1777
     RDKit          3D

 22 21  0  0  0  0  0  0  0  0999 V2000
    0.5934   -0.6091    1.8525 O   0  0  0  0  0  0  0  0  0  0  0  0
    1.2668   -2.7377    2.2759 O   0  0  0  0  0  0  0  0  0  0  0  0
    3.2827    1.4888   -0.7044 C   0  0  0  0  0  0  0  0  0  0  0  0
    4.6068    0.8522   -0.2709 C   0  0  0  0  0  0  0  0  0  0  0  0
    2.7432    2.4999    0.3116 C   0  0  0  0  0  0  0  0  0  0  0  0
    5.0918   -0.1703   -1.2991 C   0  0  0  0  0  0  0  0  0  0  0  0
    1.4814    3.1743   -0.1441 C   0  0  0  0  0  0  0  0  0  0  0  0
    6.3907   -0.8281   -0.8608 C   0  0  0  0  0  0  0  0  0  0  0  0
    0.3370    3.1609    0.5555 C   0  0  0  0  0  0  0  0  0  0  0  0
   -0.9278    3.8332    0.1079 C   0  0  0  0  0  0  0  0  0  0  0  0
    0.5817   -3.4700   -0.4359 C   0  0  0  0  0  0  0  0  0  0  0  0
   -2.0233    2.8355   -0.1397 C   0  0  0  0  0  0  0  0  0  0  0  0
    0.9544   -2.0480   -0.0167 C   0  0  0  0  0  0  0  0  0  0  0  0
   -0.7786   -3.9473    0.0780 C   0  0  0  0  0  0  0  0  0  0  0  0
   -3.2222    2.8847    0.4632 C   0  0  0  0  0  0  0  0  0  0  0  0
   -4.3796    1.9355    0.2951 C   0  0  0  0  0  0  0  0  0  0  0  0
   -4.1456    0.7897   -0.6474 C   0  0  0  0  0  0  0  0  0  0  0  0
   -3.9421   -1.6622   -1.2904 C   0  0  0  0  0  0  0  0  0  0  0  0
   -4.1757   -0.5193   -0.3496 C   0  0  0  0  0  0  0  0  0  0  0  0
    0.9631   -1.8590    1.4795 C   0  0  0  0  0  0  0  0  0  0  0  0
   -1.8902   -3.1345   -0.4316 C   0  0  0  0  0  0  0  0  0  0  0  0
   -2.8080   -2.4693   -0.8287 C   0  0  0  0  0  0  0  0  0  0  0  0
  1 20  1  0
  2 20  2  0
  3  4  1  0
  3  5  1  0
  4  6  1  0
  5  7  1  0
  6  8  1  0
  7  9  2  0
  9 10  1  0
 10 12  1  0
 11 13  1  0
 11 14  1  0
 12 15  2  0
 13 20  1  0
 14 21  1  0
 15 16  1  0
 16 17  1  0
 17 19  2  0
 18 19  1  0
 18 22  1  0
 21 22  3  0
M  END
>  <PUBCHEM_COMPOUND_CID>  (1) 
1777

>  <PUBCHEM_CONFORMER_RMSD>  (1) 
1.2

>  <PUBCHEM_CONFORMER_DIVERSEORDER>  (1) 
1
50
159
499
76
506
35
174
169
344
498
6
84
78
279
5
395
283
14
91
263
446
23
141
269
115
290
74
100
466
492
77
165
429
234
36
317
185
235
150
272
51
111
191
321
450
15
155
117
83
179
47
463
154
128
470
232
2
73
471
67
70
12
108
364
102
482
409
28
64
7
392
293
137
301
291
222
334
449
9
22
377
149
57
98
306
461
415
39
24
99
208
168
121
205
62
120
118
273
188
113
19
138
487
296
20
8
173
194
85
361
390
126
264
61
26
63
18
410
490
381
54
197
3
46
458
255
367
213
419
282
42
308
133
68
432
11
451
249
45
75
176
152
48
132
52
80
32
496
216
69
394
79
10
17
439
89
59
90
56
123
338
66
289
320
240
44
29
427
95
27
55
139
248

>  <PUBCHEM_MMFF94_PARTIAL_CHARGES>  (1) 
24
1 -0.65
10 0.28
12 -0.29
13 0.06
14 0.2
15 -0.29
16 0.28
17 -0.29
18 0.34
19 -0.29
2 -0.57
20 0.66
21 -0.2
22 -0.2
31 0.15
35 0.15
40 0.15
45 0.15
48 0.15
5 0.14
51 0.15
52 0.5
7 -0.29
9 -0.29

>  <PUBCHEM_EFFECTIVE_ROTOR_COUNT>  (1) 
12

>  <PUBCHEM_PHARMACOPHORE_FEATURES>  (1) 
6
1 1 acceptor
1 2 acceptor
1 8 hydrophobe
3 1 2 20 anion
4 11 13 14 21 hydrophobe
5 3 4 5 6 7 hydrophobe

>  <PUBCHEM_HEAVY_ATOM_COUNT>  (1) 
22

>  <PUBCHEM_ATOM_DEF_STEREO_COUNT>  (1) 
0

>  <PUBCHEM_ATOM_UDEF_STEREO_COUNT>  (1) 
0

>  <PUBCHEM_BOND_DEF_STEREO_COUNT>  (1) 
0

>  <PUBCHEM_BOND_UDEF_STEREO_COUNT>  (1) 
3

>  <PUBCHEM_ISOTOPIC_ATOM_COUNT>  (1) 
0

>  <PUBCHEM_COMPONENT_COUNT>  (1) 
1

>  <PUBCHEM_CACTVS_TAUTO_COUNT>  (1) 
1

>  <PUBCHEM_CONFORMER_ID>  (1) 
000006F100000001

>  <PUBCHEM_MMFF94_ENERGY>  (1) 
2.8844

>  <PUBCHEM_FEATURE_SELFOVERLAP>  (1) 
30.504

>  <PUBCHEM_SHAPE_FINGERPRINT>  (1) 
10670039 82 18410849958428420006
12038231 1 18411978092034605125
13122387 1 17907287759455173473
14251757 17 17981042238841504970
14289585 56 17386002828400752452
15322534 239 18335707156374731006
17627616 140 18192429671341600919
17977149 70 18342171202419804280
19311894 1 18341333383122856751
325973 47 18196656421851062028
437795 70 18342472430367646054
463206 1 18411143527890968528
474144 1 18042104510400908706
57091435 65 18050015398121465093

>  <PUBCHEM_SHAPE_MULTIPOLES>  (1) 
441.01
10.36
6.45
1.32
9.82
0.13
-0.6
-1.24
4.67
-2.93
-0.71
0.53
0.94
-1.06

>  <PUBCHEM_SHAPE_SELFOVERLAP>  (1) 
830.493

>  <PUBCHEM_SHAPE_VOLUME>  (1) 
268.8

>  <PUBCHEM_COORDINATE_TYPE>  (1) 
2
5
10

$$$$
