17786
     RDKit          3D

 32 35  0  0  1  0  0  0  0  0999 V2000
    1.7554   -0.0476    1.4144 F   0  0  0  0  0  0  0  0  0  0  0  0
    3.7230   -2.8205   -1.3899 F   0  0  0  0  0  0  0  0  0  0  0  0
   -3.8567    0.0237    1.1608 O   0  0  0  0  0  0  0  0  0  0  0  0
    0.9748    2.8457   -0.3983 O   0  0  0  0  0  0  0  0  0  0  0  0
   -3.1496    0.1916   -2.1568 O   0  0  0  0  0  0  0  0  0  0  0  0
   -3.8979    2.8015   -1.7080 O   0  0  0  0  0  0  0  0  0  0  0  0
   -5.4827   -0.8660   -0.2182 O   0  0  0  0  0  0  0  0  0  0  0  0
    6.6210   -0.0972    1.4873 O   0  0  0  0  0  0  0  0  0  0  0  0
   -1.4032    0.1026    0.6425 C   0  0  0  0  0  0  0  0  0  0  0  0
   -0.5290   -1.0781    0.1184 C   0  0  0  0  0  0  0  0  0  0  0  0
    0.7852   -0.6740   -0.6131 C   0  0  0  0  0  0  0  0  0  0  0  0
    1.5397    0.4625    0.1406 C   0  0  0  0  0  0  0  0  0  0  0  0
   -2.8649   -0.2402    0.1783 C   0  0  0  0  0  0  0  0  0  0  0  0
   -1.4506   -1.9150   -0.7852 C   0  0  0  0  0  0  0  0  0  0  0  0
   -0.8774    1.4297    0.0683 C   0  0  0  0  0  0  0  0  0  0  0  0
   -2.8532   -1.7309   -0.2101 C   0  0  0  0  0  0  0  0  0  0  0  0
    0.6075    1.6974    0.3571 C   0  0  0  0  0  0  0  0  0  0  0  0
    2.9883    0.7453   -0.4296 C   0  0  0  0  0  0  0  0  0  0  0  0
    1.6568   -1.9354   -0.7831 C   0  0  0  0  0  0  0  0  0  0  0  0
   -1.3225    0.1741    2.1885 C   0  0  0  0  0  0  0  0  0  0  0  0
    3.0301   -1.6447   -1.3623 C   0  0  0  0  0  0  0  0  0  0  0  0
    3.7231   -0.5979   -0.5309 C   0  0  0  0  0  0  0  0  0  0  0  0
   -3.3482    0.5666   -1.0022 C   0  0  0  0  0  0  0  0  0  0  0  0
   -3.1364   -2.7040    0.9352 C   0  0  0  0  0  0  0  0  0  0  0  0
    3.0013    1.3755   -1.8433 C   0  0  0  0  0  0  0  0  0  0  0  0
    3.7269    1.7045    0.4947 C   0  0  0  0  0  0  0  0  0  0  0  0
    4.8850   -0.8618    0.0874 C   0  0  0  0  0  0  0  0  0  0  0  0
   -4.0832    1.8505   -0.6810 C   0  0  0  0  0  0  0  0  0  0  0  0
    4.8821    1.4458    1.1150 C   0  0  0  0  0  0  0  0  0  0  0  0
   -5.1315   -0.3420    0.8302 C   0  0  0  0  0  0  0  0  0  0  0  0
    5.5509    0.1444    0.9391 C   0  0  0  0  0  0  0  0  0  0  0  0
   -6.0641   -0.0060    1.9542 C   0  0  0  0  0  0  0  0  0  0  0  0
  1 12  1  0
  2 21  1  0
  3 13  1  0
  3 30  1  0
  4 17  1  0
  5 23  2  0
  6 28  1  0
  7 30  2  0
  8 31  2  0
  9 10  1  0
  9 13  1  0
  9 15  1  0
  9 20  1  0
 10 11  1  0
 10 14  1  0
 11 12  1  0
 11 19  1  0
 12 17  1  0
 12 18  1  0
 13 16  1  0
 13 23  1  0
 14 16  1  0
 15 17  1  0
 16 24  1  0
 18 22  1  0
 18 25  1  0
 18 26  1  0
 19 21  1  0
 21 22  1  0
 22 27  2  0
 23 28  1  0
 26 29  2  0
 27 31  1  0
 29 31  1  0
 30 32  1  0
M  END
>  <PUBCHEM_COMPOUND_CID>  (1) 
17786

>  <PUBCHEM_CONFORMER_RMSD>  (1) 
0.8

>  <PUBCHEM_CONFORMER_DIVERSEORDER>  (1) 
10
11
24
22
23
14
8
1
7
5
16
13
15
4
27
18
29
25
31
9
32
12
2
19
21
26
6
30
28
20
17
3

>  <PUBCHEM_MMFF94_PARTIAL_CHARGES>  (1) 
27
1 -0.34
12 0.34
13 0.34
17 0.28
18 0.28
2 -0.34
21 0.48
22 -0.28
23 0.45
26 -0.29
27 -0.14
28 0.34
29 -0.14
3 -0.43
30 0.66
31 0.54
32 0.06
4 -0.68
5 -0.57
53 0.15
54 0.4
55 0.15
58 0.15
6 -0.68
62 0.4
7 -0.57
8 -0.57

>  <PUBCHEM_EFFECTIVE_ROTOR_COUNT>  (1) 
5.4

>  <PUBCHEM_PHARMACOPHORE_FEATURES>  (1) 
11
1 4 acceptor
1 4 donor
1 5 acceptor
1 6 acceptor
1 6 donor
1 7 acceptor
1 8 acceptor
5 9 10 13 14 16 rings
6 11 12 18 19 21 22 rings
6 18 22 26 27 29 31 rings
6 9 10 11 12 15 17 rings

>  <PUBCHEM_HEAVY_ATOM_COUNT>  (1) 
32

>  <PUBCHEM_ATOM_DEF_STEREO_COUNT>  (1) 
6

>  <PUBCHEM_ATOM_UDEF_STEREO_COUNT>  (1) 
3

>  <PUBCHEM_BOND_DEF_STEREO_COUNT>  (1) 
0

>  <PUBCHEM_BOND_UDEF_STEREO_COUNT>  (1) 
0

>  <PUBCHEM_ISOTOPIC_ATOM_COUNT>  (1) 
0

>  <PUBCHEM_COMPONENT_COUNT>  (1) 
1

>  <PUBCHEM_CACTVS_TAUTO_COUNT>  (1) 
3

>  <PUBCHEM_CONFORMER_ID>  (1) 
0000457A0000000A

>  <PUBCHEM_MMFF94_ENERGY>  (1) 
118.8573

>  <PUBCHEM_FEATURE_SELFOVERLAP>  (1) 
55.935

>  <PUBCHEM_SHAPE_FINGERPRINT>  (1) 
10366900 7 9439410111936099927
10906281 52 18267318684547356440
11112241 14 16987415685391128848
12035758 1 18337402595084105651
12107698 1 17894631482633820389
12166972 35 13984665879733683567
12236239 1 14345797158098589303
12403259 415 18411705352567609549
12403814 3 18187650245421029239
12422481 6 18337664235785830932
12633257 1 18335708294720282691
13140716 1 18126565849662242688
13224815 77 17917994996595896830
13533116 47 17774732969672460014
13583140 156 18130497634776627582
13782708 43 17458636661157805563
15081414 286 18272938202430192420
15163728 17 14782119755406374748
15238133 3 16950847990467871844
15788980 27 17967246520587670992
15840311 113 17344933831936618625
17349148 13 18341891900770092800
17980427 23 16845288379968646768
1813 80 17895200995645189548
20511986 3 17274816930959678531
20715895 44 18264198111022684412
21033648 29 18261958444818112237
21033650 10 17314242063704803028
21421861 104 18410570644474666482
21859007 373 18116141173755756157
22182313 1 18338518538671180477
23557571 272 18334293162677685628
23559900 14 18270684152270162462
300161 21 15267345119252254929
32027 91 18054227627279108990
3886686 26 17109853671809854594
392239 28 16987996223810854570
4093350 32 16343718598890723806
4340502 62 17561084722206312162
460360 51 18266186036814706576
508706 21 18260827086023738863
5104073 3 18269560442158025939
5283173 99 18263354815769184276
59755656 215 18340486673813429294
6086070 43 14779538015830957663

>  <PUBCHEM_SHAPE_MULTIPOLES>  (1) 
608.78
12.65
2.51
1.69
1.51
0.11
-0.03
-0.25
-3.82
-0.12
0.88
-0.54
-0.24
1.54

>  <PUBCHEM_SHAPE_SELFOVERLAP>  (1) 
1326.268

>  <PUBCHEM_SHAPE_VOLUME>  (1) 
330.5

>  <PUBCHEM_COORDINATE_TYPE>  (1) 
2
5
10

$$$$
