17787
     RDKit          3D

 18 20  0  0  0  0  0  0  0  0999 V2000
   -3.0315   -2.3129    0.0014 F   0  0  0  0  0  0  0  0  0  0  0  0
    4.2575    1.5885    0.0023 O   0  0  0  0  0  0  0  0  0  0  0  0
    3.5902   -0.6726    0.0001 N   0  0  0  0  0  0  0  0  0  0  0  0
   -0.7296    1.8748   -0.0011 C   0  0  0  0  0  0  0  0  0  0  0  0
    0.1807    0.6646   -0.0013 C   0  0  0  0  0  0  0  0  0  0  0  0
   -0.5797   -0.5265   -0.0011 C   0  0  0  0  0  0  0  0  0  0  0  0
   -2.1000    1.2302   -0.0006 C   0  0  0  0  0  0  0  0  0  0  0  0
   -1.9843   -0.1780   -0.0006 C   0  0  0  0  0  0  0  0  0  0  0  0
    1.5643    0.6390   -0.0012 C   0  0  0  0  0  0  0  0  0  0  0  0
    0.0471   -1.7613   -0.0006 C   0  0  0  0  0  0  0  0  0  0  0  0
   -3.3352    1.8543    0.0002 C   0  0  0  0  0  0  0  0  0  0  0  0
   -3.1155   -0.9768    0.0003 C   0  0  0  0  0  0  0  0  0  0  0  0
    2.1958   -0.6061   -0.0009 C   0  0  0  0  0  0  0  0  0  0  0  0
    1.4450   -1.7942   -0.0006 C   0  0  0  0  0  0  0  0  0  0  0  0
   -4.4754    1.0487    0.0012 C   0  0  0  0  0  0  0  0  0  0  0  0
   -4.3667   -0.3527    0.0012 C   0  0  0  0  0  0  0  0  0  0  0  0
    4.5062    0.3872    0.0000 C   0  0  0  0  0  0  0  0  0  0  0  0
    5.9313   -0.1062    0.0012 C   0  0  0  0  0  0  0  0  0  0  0  0
  1 12  1  0
  2 17  2  0
  3 13  1  0
  3 17  1  0
  4  5  1  0
  4  7  1  0
  5  6  2  0
  5  9  1  0
  6  8  1  0
  6 10  1  0
  7  8  2  0
  7 11  1  0
  8 12  1  0
  9 13  2  0
 10 14  2  0
 11 15  2  0
 12 16  2  0
 13 14  1  0
 15 16  1  0
 17 18  1  0
M  END
>  <PUBCHEM_COMPOUND_CID>  (1) 
17787

>  <PUBCHEM_CONFORMER_RMSD>  (1) 
0.6

>  <PUBCHEM_CONFORMER_DIVERSEORDER>  (1) 
1
3
2
4

>  <PUBCHEM_MMFF94_PARTIAL_CHARGES>  (1) 
23
1 -0.19
10 -0.15
11 -0.15
12 0.19
13 0.12
14 -0.15
15 -0.15
16 -0.15
17 0.57
18 0.06
2 -0.57
21 0.15
22 0.15
23 0.15
24 0.15
25 0.15
26 0.15
27 0.37
3 -0.55
4 0.29
5 -0.14
7 -0.14
9 -0.15

>  <PUBCHEM_EFFECTIVE_ROTOR_COUNT>  (1) 
2.2

>  <PUBCHEM_PHARMACOPHORE_FEATURES>  (1) 
5
1 2 acceptor
1 3 donor
5 4 5 6 7 8 rings
6 5 6 9 10 13 14 rings
6 7 8 11 12 15 16 rings

>  <PUBCHEM_HEAVY_ATOM_COUNT>  (1) 
18

>  <PUBCHEM_ATOM_DEF_STEREO_COUNT>  (1) 
0

>  <PUBCHEM_ATOM_UDEF_STEREO_COUNT>  (1) 
0

>  <PUBCHEM_BOND_DEF_STEREO_COUNT>  (1) 
0

>  <PUBCHEM_BOND_UDEF_STEREO_COUNT>  (1) 
0

>  <PUBCHEM_ISOTOPIC_ATOM_COUNT>  (1) 
0

>  <PUBCHEM_COMPONENT_COUNT>  (1) 
1

>  <PUBCHEM_CACTVS_TAUTO_COUNT>  (1) 
2

>  <PUBCHEM_CONFORMER_ID>  (1) 
0000457B00000001

>  <PUBCHEM_MMFF94_ENERGY>  (1) 
59.0194

>  <PUBCHEM_FEATURE_SELFOVERLAP>  (1) 
25.536

>  <PUBCHEM_SHAPE_FINGERPRINT>  (1) 
10014705 185 18187925050002643829
10411042 1 17978511163576323375
10493431 412 18269001899500640817
10616163 171 18411419526974085903
10967382 1 18338797806419725063
11132069 177 18409168796422101781
11401426 45 18409165510761551391
11578080 2 16808124706587227942
12107183 9 17614555939696745216
12236239 1 17821447958972106856
12390115 104 18057620763037979305
12403814 3 17676486116825579181
13140716 1 18194974156671502425
13214271 11 18413387644281863839
13862211 1 18410851088010080310
15196674 1 18410855421489475270
15375358 24 18411700959016590567
15536298 74 18341897329535044894
16087824 20 18412260641881949911
16945 1 18410575094002203685
19591789 44 18268146642098193280
19784866 170 18409169878959621243
200 152 17989484112973058369
20510252 161 18200314291205705841
20645477 56 18335421219169826845
20645477 70 17274547503741000982
21267235 1 18410300237322338739
23366157 5 17970353603225746362
23402539 116 18412257355018632534
23402655 69 18270672053325982741
23557571 272 18272660042856705748
23559900 14 18270681957573399126
2748010 2 18050564351071848205
296302 2 18410856521380703311
3004659 81 18335426726109093806
3312278 4 18412827967167238561
335352 9 18410855443054021940
34934 24 18336823096473901771
351380 180 18410572886352005912
3545911 37 18410857637713601644
4214541 1 18410573972388160864
4340502 62 16733275539037392385
474 4 17531255006183888372
474229 33 18410855473087228558
4990 188 18060707169612443796
5104073 3 18337111159445116290
542803 24 17458349628414005980
58051976 378 18341612577440154820
59755656 215 18340493253703612814
7364860 26 18196653986937492326
77779 3 18411419505651703940
9709674 26 18340774749348077103

>  <PUBCHEM_SHAPE_MULTIPOLES>  (1) 
352.31
10.11
2.01
0.6
9.19
0.27
0
-1.77
-0.01
-1.02
0
-0.02
-0.01
0

>  <PUBCHEM_SHAPE_SELFOVERLAP>  (1) 
782.88

>  <PUBCHEM_SHAPE_VOLUME>  (1) 
189.7

>  <PUBCHEM_COORDINATE_TYPE>  (1) 
2
5
10

$$$$
