17793
     RDKit          3D

 25 28  0  0  1  0  0  0  0  0999 V2000
   -4.2237   -0.2029   -1.2676 O   0  0  0  0  0  0  0  0  0  0  0  0
    6.3033    1.1485    0.7842 O   0  0  0  0  0  0  0  0  0  0  0  0
   -1.7952   -0.4920   -0.9817 C   0  0  0  0  0  0  0  0  0  0  0  0
   -0.9850   -0.9479    0.2418 C   0  0  0  0  0  0  0  0  0  0  0  0
    0.4089   -1.4929   -0.0974 C   0  0  0  0  0  0  0  0  0  0  0  0
    1.2465   -0.5242   -1.0102 C   0  0  0  0  0  0  0  0  0  0  0  0
   -3.1633   -0.1451   -0.3154 C   0  0  0  0  0  0  0  0  0  0  0  0
   -1.0234    0.6717   -1.6143 C   0  0  0  0  0  0  0  0  0  0  0  0
    2.3226    0.3301   -0.2297 C   0  0  0  0  0  0  0  0  0  0  0  0
   -1.9460   -1.8758    0.9826 C   0  0  0  0  0  0  0  0  0  0  0  0
    0.3868    0.2549   -2.0506 C   0  0  0  0  0  0  0  0  0  0  0  0
   -3.3397   -1.2697    0.7391 C   0  0  0  0  0  0  0  0  0  0  0  0
    1.1438   -1.9072    1.1910 C   0  0  0  0  0  0  0  0  0  0  0  0
   -2.0012   -1.6123   -2.0406 C   0  0  0  0  0  0  0  0  0  0  0  0
    3.2196   -0.6189    0.5798 C   0  0  0  0  0  0  0  0  0  0  0  0
    2.6497   -1.9511    1.0050 C   0  0  0  0  0  0  0  0  0  0  0  0
   -3.2420    1.2362    0.3477 C   0  0  0  0  0  0  0  0  0  0  0  0
    3.2455    1.0919   -1.2271 C   0  0  0  0  0  0  0  0  0  0  0  0
    1.6633    1.3595    0.7127 C   0  0  0  0  0  0  0  0  0  0  0  0
    4.4313    1.7845   -0.5601 C   0  0  0  0  0  0  0  0  0  0  0  0
    4.5074   -0.3581    0.8620 C   0  0  0  0  0  0  0  0  0  0  0  0
   -4.5609    1.4669    1.0340 C   0  0  0  0  0  0  0  0  0  0  0  0
    5.1714    0.8758    0.3870 C   0  0  0  0  0  0  0  0  0  0  0  0
   -5.6689    2.0596    0.2118 C   0  0  0  0  0  0  0  0  0  0  0  0
   -4.7509    1.1184    2.3161 C   0  0  0  0  0  0  0  0  0  0  0  0
  1  7  1  0
  2 23  2  0
  3  4  1  0
  3  7  1  0
  3  8  1  0
  3 14  1  0
  4  5  1  0
  4 10  1  0
  5  6  1  0
  5 13  1  0
  6  9  1  0
  6 11  1  0
  7 12  1  0
  7 17  1  0
  8 11  1  0
  9 15  1  0
  9 18  1  0
  9 19  1  0
 10 12  1  0
 13 16  1  0
 15 16  1  0
 15 21  2  0
 17 22  1  0
 18 20  1  0
 20 23  1  0
 21 23  1  0
 22 24  1  0
 22 25  2  0
M  END
>  <PUBCHEM_COMPOUND_CID>  (1) 
17793

>  <PUBCHEM_CONFORMER_RMSD>  (1) 
0.8

>  <PUBCHEM_CONFORMER_DIVERSEORDER>  (1) 
1
2
3

>  <PUBCHEM_MMFF94_PARTIAL_CHARGES>  (1) 
17
1 -0.68
15 -0.28
16 0.14
17 0.14
2 -0.57
20 0.06
21 -0.14
22 -0.28
23 0.49
24 0.14
25 -0.3
51 0.4
54 0.15
58 0.15
59 0.15
7 0.28
9 0.14

>  <PUBCHEM_EFFECTIVE_ROTOR_COUNT>  (1) 
3.8

>  <PUBCHEM_PHARMACOPHORE_FEATURES>  (1) 
7
1 1 acceptor
1 1 donor
1 2 acceptor
5 3 4 7 10 12 rings
6 3 4 5 6 8 11 rings
6 5 6 9 13 15 16 rings
6 9 15 18 20 21 23 rings

>  <PUBCHEM_HEAVY_ATOM_COUNT>  (1) 
25

>  <PUBCHEM_ATOM_DEF_STEREO_COUNT>  (1) 
6

>  <PUBCHEM_ATOM_UDEF_STEREO_COUNT>  (1) 
0

>  <PUBCHEM_BOND_DEF_STEREO_COUNT>  (1) 
0

>  <PUBCHEM_BOND_UDEF_STEREO_COUNT>  (1) 
0

>  <PUBCHEM_ISOTOPIC_ATOM_COUNT>  (1) 
0

>  <PUBCHEM_COMPONENT_COUNT>  (1) 
1

>  <PUBCHEM_CACTVS_TAUTO_COUNT>  (1) 
5

>  <PUBCHEM_CONFORMER_ID>  (1) 
0000458100000001

>  <PUBCHEM_MMFF94_ENERGY>  (1) 
97.7261

>  <PUBCHEM_FEATURE_SELFOVERLAP>  (1) 
35.615

>  <PUBCHEM_SHAPE_FINGERPRINT>  (1) 
10 15 17240482524688832040
10498660 4 16487256560283085315
105312 117 16845577512945418461
10675989 125 15729466347961937068
11370993 144 17968097473762643603
11552529 35 18045220689473794322
11796584 16 12396289357434490937
11961588 58 16917060049485397385
12107698 1 18058728151635132833
12236239 1 18343012289870040726
12390115 104 17971488522726960548
12422481 6 17821999883728694200
12553582 1 17167874053312469327
12596602 18 18409733941684060755
12633257 1 18186793665147965514
12670546 177 11527948932886232953
12788726 201 17773884107772379361
12892183 10 18042135280042599449
13103583 49 15213317296176990289
13140716 1 17531537605845619772
13224815 77 17822284717069481270
13583140 156 18410858780791964363
13675066 3 16588025697420707799
13782708 43 11747475252131946952
14178342 30 17895206544622032275
14251751 18 12829498068655509049
14341114 176 17603862283105292272
14341114 328 18412263926007508392
14739800 52 18130774643082523976
14790565 3 17605851432810917028
14955137 171 16950579769654676756
15163728 17 17202498705880159345
15188451 53 15864367890937778393
15209294 21 18408044017665273203
15238133 3 18413112749343152672
1601671 61 17632579336089242064
16945 1 17749374928690303238
17980427 23 18411141351096456277
1813 80 14996295703533524647
18222031 100 9583523092715270140
18769570 83 17917990581812914608
19784866 240 8070024476177575193
19862831 5 13398631606846615899
20739085 24 17385736785193621324
20775438 99 10012999983561448601
21033648 29 15338827673093591738
21637258 2 12396306980191689057
21756936 100 18342174518281950626
221357 26 12319734748296916155
22182313 1 16951395529656960327
22393880 68 13326564108677647313
23557571 272 16343695560860052095
23559900 14 17916037767141017334
2838139 119 17561081358941490825
3380486 145 17240474832328481215
3472631 163 18060419110050454569
34934 24 18202562869566825136
3633792 109 18115007642435697231
392239 28 16877940564120032088
4028521 119 15339120134617516875
4340502 62 18261121742349948345
46194498 28 15194422299899830210
463206 1 11314610747832097673
474 4 18334573551016848067
5104073 3 17823131393105828328
57527293 21 15575009393600474187
58807428 26 17603586317902197162
633830 44 18409732893738595990
7808743 9 17704073967283422721
7970288 3 12396593956842866569

>  <PUBCHEM_SHAPE_MULTIPOLES>  (1) 
502.75
11.55
2.13
1.79
1.97
0.25
0.38
-7.3
-4.58
-0.36
-0.45
-1.22
0.04
-1.26

>  <PUBCHEM_SHAPE_SELFOVERLAP>  (1) 
1070.747

>  <PUBCHEM_SHAPE_VOLUME>  (1) 
278.6

>  <PUBCHEM_COORDINATE_TYPE>  (1) 
2
5
10

$$$$
