17795
     RDKit          3D

 10 12  0  0  1  0  0  0  0  0999 V2000
    0.3869    0.7744   -0.5167 C   0  0  0  0  0  0  0  0  0  0  0  0
    0.3867   -0.7745   -0.5167 C   0  0  0  0  0  0  0  0  0  0  0  0
   -0.8645    1.1175    0.3180 C   0  0  0  0  0  0  0  0  0  0  0  0
   -0.8645   -1.1173    0.3184 C   0  0  0  0  0  0  0  0  0  0  0  0
   -0.8946    0.0004    1.3652 C   0  0  0  0  0  0  0  0  0  0  0  0
   -2.1117    0.7693   -0.5175 C   0  0  0  0  0  0  0  0  0  0  0  0
   -2.1119   -0.7695   -0.5168 C   0  0  0  0  0  0  0  0  0  0  0  0
    1.7208    1.1937    0.1029 C   0  0  0  0  0  0  0  0  0  0  0  0
    1.7208   -1.1938    0.1026 C   0  0  0  0  0  0  0  0  0  0  0  0
    2.6321    0.0000   -0.1393 C   0  0  0  0  0  0  0  0  0  0  0  0
  1  2  1  0
  1  3  1  0
  1  8  1  0
  2  4  1  0
  2  9  1  0
  3  5  1  0
  3  6  1  0
  4  5  1  0
  4  7  1  0
  6  7  1  0
  8 10  1  0
  9 10  1  0
M  END
>  <PUBCHEM_COMPOUND_CID>  (1) 
17795

>  <PUBCHEM_CONFORMER_RMSD>  (1) 
0.4

>  <PUBCHEM_CONFORMER_DIVERSEORDER>  (1) 
1
2
3

>  <PUBCHEM_MMFF94_PARTIAL_CHARGES>  (1) 
0

>  <PUBCHEM_EFFECTIVE_ROTOR_COUNT>  (1) 
1.2

>  <PUBCHEM_PHARMACOPHORE_FEATURES>  (1) 
2
5 1 2 8 9 10 rings
7 1 2 3 4 5 6 7 rings

>  <PUBCHEM_HEAVY_ATOM_COUNT>  (1) 
10

>  <PUBCHEM_ATOM_DEF_STEREO_COUNT>  (1) 
0

>  <PUBCHEM_ATOM_UDEF_STEREO_COUNT>  (1) 
4

>  <PUBCHEM_BOND_DEF_STEREO_COUNT>  (1) 
0

>  <PUBCHEM_BOND_UDEF_STEREO_COUNT>  (1) 
0

>  <PUBCHEM_ISOTOPIC_ATOM_COUNT>  (1) 
0

>  <PUBCHEM_COMPONENT_COUNT>  (1) 
1

>  <PUBCHEM_CACTVS_TAUTO_COUNT>  (1) 
1

>  <PUBCHEM_CONFORMER_ID>  (1) 
0000458300000001

>  <PUBCHEM_MMFF94_ENERGY>  (1) 
34.3663

>  <PUBCHEM_FEATURE_SELFOVERLAP>  (1) 
10.214

>  <PUBCHEM_SHAPE_FINGERPRINT>  (1) 
12423570 1 11253133848476240299
12897270 3 18341045297938003583
13024252 1 16443068296011588806
14128692 85 17987508393741699295
16945 1 18410851062086925455
18185500 45 18270400623686790614
20653085 51 18114184094777159733
21040471 1 18334860489228908564
21922407 69 17060071353540686490
23552423 10 18334296482845498702
241688 4 18263642857739886296
24536 1 17168439245317608588
2748010 2 17257654946008864958
29004967 10 18261116317347252338
369184 2 18411136939431501330
5084963 1 18201161035159285672
528886 8 18339069415650776557

>  <PUBCHEM_SHAPE_MULTIPOLES>  (1) 
205.8
3.05
1.39
0.93
0.77
0
-0.21
0
0.36
0.07
0.01
-0.27
0
0

>  <PUBCHEM_SHAPE_SELFOVERLAP>  (1) 
447.863

>  <PUBCHEM_SHAPE_VOLUME>  (1) 
109.6

>  <PUBCHEM_COORDINATE_TYPE>  (1) 
2
5
10

$$$$
