17796
     RDKit          3D

 15 15  0  0  0  0  0  0  0  0999 V2000
   -1.7386    2.7312   -0.5116 O   0  0  0  0  0  0  0  0  0  0  0  0
    0.2589    2.1415    0.1820 O   0  0  0  0  0  0  0  0  0  0  0  0
   -0.9344    1.8697   -0.0864 N   0  0  0  0  0  0  0  0  0  0  0  0
    4.2791    0.2278    0.9565 N   0  0  0  0  0  0  0  0  0  0  0  0
    1.6381   -1.1055   -2.3875 N   0  0  0  0  0  0  0  0  0  0  0  0
   -0.5441   -0.4672    0.5701 C   0  0  0  0  0  0  0  0  0  0  0  0
   -1.3929    0.5345    0.0990 C   0  0  0  0  0  0  0  0  0  0  0  0
   -1.0251   -1.7654    0.7413 C   0  0  0  0  0  0  0  0  0  0  0  0
   -2.7226    0.2379   -0.2009 C   0  0  0  0  0  0  0  0  0  0  0  0
   -2.3548   -2.0617    0.4414 C   0  0  0  0  0  0  0  0  0  0  0  0
   -3.2035   -1.0601   -0.0297 C   0  0  0  0  0  0  0  0  0  0  0  0
    0.8524   -0.2004    0.8963 C   0  0  0  0  0  0  0  0  0  0  0  0
    1.9119   -0.3155    0.0617 C   0  0  0  0  0  0  0  0  0  0  0  0
    3.2171   -0.0158    0.5566 C   0  0  0  0  0  0  0  0  0  0  0  0
    1.7585   -0.7509   -1.2890 C   0  0  0  0  0  0  0  0  0  0  0  0
  1  3  1  0
  2  3  2  0
  3  7  1  0
  4 14  3  0
  5 15  3  0
  6  7  2  0
  6  8  1  0
  6 12  1  0
  7  9  1  0
  8 10  2  0
  9 11  2  0
 10 11  1  0
 12 13  2  3
 13 14  1  0
 13 15  1  0
M  CHG  2   1  -1   3   1
M  END
>  <PUBCHEM_COMPOUND_CID>  (1) 
17796

>  <PUBCHEM_CONFORMER_RMSD>  (1) 
0.6

>  <PUBCHEM_CONFORMER_DIVERSEORDER>  (1) 
1
3
2
4

>  <PUBCHEM_MMFF94_PARTIAL_CHARGES>  (1) 
20
1 -0.52
10 -0.15
11 -0.15
12 -0.18
13 0.13
14 0.49
15 0.49
16 0.15
17 0.15
18 0.15
19 0.15
2 -0.52
20 0.15
3 0.91
4 -0.56
5 -0.56
6 0.03
7 0.13
8 -0.15
9 -0.15

>  <PUBCHEM_EFFECTIVE_ROTOR_COUNT>  (1) 
2

>  <PUBCHEM_PHARMACOPHORE_FEATURES>  (1) 
6
1 1 acceptor
1 1 anion
1 2 acceptor
1 4 acceptor
1 5 acceptor
6 6 7 8 9 10 11 rings

>  <PUBCHEM_HEAVY_ATOM_COUNT>  (1) 
15

>  <PUBCHEM_ATOM_DEF_STEREO_COUNT>  (1) 
0

>  <PUBCHEM_ATOM_UDEF_STEREO_COUNT>  (1) 
0

>  <PUBCHEM_BOND_DEF_STEREO_COUNT>  (1) 
0

>  <PUBCHEM_BOND_UDEF_STEREO_COUNT>  (1) 
0

>  <PUBCHEM_ISOTOPIC_ATOM_COUNT>  (1) 
0

>  <PUBCHEM_COMPONENT_COUNT>  (1) 
1

>  <PUBCHEM_CACTVS_TAUTO_COUNT>  (1) 
1

>  <PUBCHEM_CONFORMER_ID>  (1) 
0000458400000001

>  <PUBCHEM_MMFF94_ENERGY>  (1) 
44.845

>  <PUBCHEM_FEATURE_SELFOVERLAP>  (1) 
30.53

>  <PUBCHEM_SHAPE_FINGERPRINT>  (1) 
1 1 17040641059217437449
12532896 13 18123470471385795641
12716758 59 18194128416785246671
13296909 8 17967801718246468316
13380537 58 18191867816620410764
14115302 16 17386006229793141507
14614273 12 18042396933523667013
14817 1 13062943074492432895
15207287 21 18201709682666363782
15219456 202 17917151598315968294
15375462 478 18336255838763176228
15490181 7 17834403315250611489
16945 1 18261686899673959827
17357990 137 17097236951183135494
18175812 5 18130500950554768098
18380122 1 18131636690205383390
20201158 50 18201720669129260475
20233049 118 17895740877324034407
20344682 1 17988356069893437334
21061003 4 17203330048023396984
22802520 49 18056492646558369863
232386 152 18114744948696960522
23402539 116 18339626919417114911
23419403 2 17901072498900702861
23557571 272 18342465824222478540
23559900 14 18338228276982789858
2748010 2 17903081036361947881
3286 77 13407087997825341563
474 4 14188421911885589146
7364860 26 17837214049429044153
77492 1 17240205421761806610
81228 2 18265915604225125353
88987 49 18190472570988310844

>  <PUBCHEM_SHAPE_MULTIPOLES>  (1) 
282.01
5.19
2.17
1.25
3.13
1.38
-0.8
-1.03
0.76
-1.67
-0.13
1
-0.49
0.69

>  <PUBCHEM_SHAPE_SELFOVERLAP>  (1) 
597.715

>  <PUBCHEM_SHAPE_VOLUME>  (1) 
153.2

>  <PUBCHEM_COORDINATE_TYPE>  (1) 
2
5
10

$$$$
