17808
     RDKit          3D

 14 14  0  0  0  0  0  0  0  0999 V2000
    1.8116    0.3881    0.0002 O   0  0  0  0  0  0  0  0  0  0  0  0
    0.5574   -1.5326    0.0005 O   0  0  0  0  0  0  0  0  0  0  0  0
   -0.4126    0.5963    0.0021 N   0  0  0  0  0  0  0  0  0  0  0  0
    2.8792   -0.5191   -0.0006 N   0  0  0  0  0  0  0  0  0  0  0  0
   -1.8001    0.3269    0.0012 C   0  0  0  0  0  0  0  0  0  0  0  0
   -2.6971    1.3834    0.0013 C   0  0  0  0  0  0  0  0  0  0  0  0
   -2.2369   -0.9885   -0.0003 C   0  0  0  0  0  0  0  0  0  0  0  0
   -4.0665    1.1177    0.0000 C   0  0  0  0  0  0  0  0  0  0  0  0
   -3.6063   -1.2540   -0.0017 C   0  0  0  0  0  0  0  0  0  0  0  0
   -4.5210   -0.2009   -0.0016 C   0  0  0  0  0  0  0  0  0  0  0  0
    4.0181    0.1034   -0.0017 C   0  0  0  0  0  0  0  0  0  0  0  0
    0.6312   -0.3093    0.0013 C   0  0  0  0  0  0  0  0  0  0  0  0
    5.2812   -0.7169    0.0018 C   0  0  0  0  0  0  0  0  0  0  0  0
    4.1619    1.6053   -0.0024 C   0  0  0  0  0  0  0  0  0  0  0  0
  1  4  1  0
  1 12  1  0
  2 12  2  0
  3  5  1  0
  3 12  1  0
  4 11  2  3
  5  6  2  0
  5  7  1  0
  6  8  1  0
  7  9  2  0
  8 10  2  0
  9 10  1  0
 11 13  1  0
 11 14  1  0
M  END
>  <PUBCHEM_COMPOUND_CID>  (1) 
17808

>  <PUBCHEM_CONFORMER_RMSD>  (1) 
0.6

>  <PUBCHEM_CONFORMER_DIVERSEORDER>  (1) 
1
35
8
36
42
45
38
14
41
40
13
24
10
37
44
39
21
4
34
5
26
30
12
29
28
33
18
19
25
27
16
11
31
32
22
15
9
23
3
2
20
6
17
43
7

>  <PUBCHEM_MMFF94_PARTIAL_CHARGES>  (1) 
20
1 -0.09
10 -0.15
11 0.33
12 0.78
13 0.06
14 0.06
15 0.15
16 0.15
17 0.37
18 0.15
19 0.15
2 -0.57
20 0.15
3 -0.55
4 -0.51
5 0.12
6 -0.15
7 -0.15
8 -0.15
9 -0.15

>  <PUBCHEM_EFFECTIVE_ROTOR_COUNT>  (1) 
4

>  <PUBCHEM_PHARMACOPHORE_FEATURES>  (1) 
4
1 2 acceptor
1 3 donor
1 4 acceptor
6 5 6 7 8 9 10 rings

>  <PUBCHEM_HEAVY_ATOM_COUNT>  (1) 
14

>  <PUBCHEM_ATOM_DEF_STEREO_COUNT>  (1) 
0

>  <PUBCHEM_ATOM_UDEF_STEREO_COUNT>  (1) 
0

>  <PUBCHEM_BOND_DEF_STEREO_COUNT>  (1) 
0

>  <PUBCHEM_BOND_UDEF_STEREO_COUNT>  (1) 
0

>  <PUBCHEM_ISOTOPIC_ATOM_COUNT>  (1) 
0

>  <PUBCHEM_COMPONENT_COUNT>  (1) 
1

>  <PUBCHEM_CACTVS_TAUTO_COUNT>  (1) 
2

>  <PUBCHEM_CONFORMER_ID>  (1) 
0000459000000001

>  <PUBCHEM_MMFF94_ENERGY>  (1) 
37.2343

>  <PUBCHEM_FEATURE_SELFOVERLAP>  (1) 
20.314

>  <PUBCHEM_SHAPE_FINGERPRINT>  (1) 
10014705 185 18260261941532153893
10680689 15 17894352163788571493
13081056 2 18411418419014701412
13167823 11 18335698334559644274
13214271 11 18411417315439916391
14123238 8 17489869349500659924
14325111 11 18410575089258746048
15196674 1 18410855486103973220
17834072 33 18412824715644880420
17834076 25 15936410030971120434
18186145 218 18186513307115907052
200 152 17917710201467009027
20279233 1 17989495108010338623
20300324 65 18343300396851041847
20645477 56 18188491251462729013
20645477 70 17703233906172147046
21267235 1 18409175419668055491
23402539 116 18341888593418363311
23559900 14 18199186196475616158
351380 180 18410291415406570448
3545911 37 18409168779495401247
42 15 18334576832799149622
4214541 1 18410855434416620644
42788 4 18410855460128174788
4990 188 18201727232429892342
5104073 3 18410293626955974136
542803 24 17168148931646362476
573450 72 18261382326146801875
77779 3 18411138043454426112

>  <PUBCHEM_SHAPE_MULTIPOLES>  (1) 
266.41
11.1
1.46
0.59
7.93
0.15
0
0.58
0
-0.21
0
-0.03
0.01
0

>  <PUBCHEM_SHAPE_SELFOVERLAP>  (1) 
542.007

>  <PUBCHEM_SHAPE_VOLUME>  (1) 
154.5

>  <PUBCHEM_COORDINATE_TYPE>  (1) 
2
5
10

$$$$
