17803
     RDKit          3D

 10 10  0  0  0  0  0  0  0  0999 V2000
    2.1371   -0.9711   -0.0001 O   0  0  0  0  0  0  0  0  0  0  0  0
   -0.1421   -1.3690    0.0003 N   0  0  0  0  0  0  0  0  0  0  0  0
    0.7309    0.8661    0.0002 N   0  0  0  0  0  0  0  0  0  0  0  0
   -1.6412    0.5047    0.0000 N   0  0  0  0  0  0  0  0  0  0  0  0
   -2.4649   -1.6910   -0.0003 N   0  0  0  0  0  0  0  0  0  0  0  0
   -0.7585    2.6773   -0.0001 N   0  0  0  0  0  0  0  0  0  0  0  0
    0.8561   -0.4707    0.0002 C   0  0  0  0  0  0  0  0  0  0  0  0
   -1.3625   -0.8089    0.0001 C   0  0  0  0  0  0  0  0  0  0  0  0
   -0.5460    1.2816    0.0000 C   0  0  0  0  0  0  0  0  0  0  0  0
    3.1910   -0.0189   -0.0002 C   0  0  0  0  0  0  0  0  0  0  0  0
  1  7  1  0
  1 10  1  0
  2  7  2  0
  2  8  1  0
  3  7  1  0
  3  9  2  0
  4  8  2  0
  4  9  1  0
  5  8  1  0
  6  9  1  0
M  END
>  <PUBCHEM_COMPOUND_CID>  (1) 
17803

>  <PUBCHEM_CONFORMER_RMSD>  (1) 
0.4

>  <PUBCHEM_CONFORMER_DIVERSEORDER>  (1) 
1

>  <PUBCHEM_MMFF94_PARTIAL_CHARGES>  (1) 
14
1 -0.36
10 0.28
11 0.4
12 0.4
13 0.4
14 0.4
2 -0.62
3 -0.62
4 -0.62
5 -0.9
6 -0.9
7 0.7
8 0.72
9 0.72

>  <PUBCHEM_EFFECTIVE_ROTOR_COUNT>  (1) 
1

>  <PUBCHEM_PHARMACOPHORE_FEATURES>  (1) 
5
1 5 donor
1 6 donor
4 2 4 5 8 cation
4 3 4 6 9 cation
6 2 3 4 7 8 9 rings

>  <PUBCHEM_HEAVY_ATOM_COUNT>  (1) 
10

>  <PUBCHEM_ATOM_DEF_STEREO_COUNT>  (1) 
0

>  <PUBCHEM_ATOM_UDEF_STEREO_COUNT>  (1) 
0

>  <PUBCHEM_BOND_DEF_STEREO_COUNT>  (1) 
0

>  <PUBCHEM_BOND_UDEF_STEREO_COUNT>  (1) 
0

>  <PUBCHEM_ISOTOPIC_ATOM_COUNT>  (1) 
0

>  <PUBCHEM_COMPONENT_COUNT>  (1) 
1

>  <PUBCHEM_CACTVS_TAUTO_COUNT>  (1) 
5

>  <PUBCHEM_CONFORMER_ID>  (1) 
0000458B00000001

>  <PUBCHEM_MMFF94_ENERGY>  (1) 
33.5767

>  <PUBCHEM_FEATURE_SELFOVERLAP>  (1) 
25.415

>  <PUBCHEM_SHAPE_FINGERPRINT>  (1) 
10857977 72 18340474668852231858
16945 1 18338517413357944164
193761 8 17906171754841945859
20871998 184 18273496762441714798
21040471 1 17906452121611267808
23552423 10 18188495666409482182
23552449 1 18411416194031510636
241688 4 18410854395118808041
2748010 2 18339917237747149877

>  <PUBCHEM_SHAPE_MULTIPOLES>  (1) 
175.02
3.36
2.09
0.56
2.28
1.22
0
-1.23
0
-1.17
0
0.02
0
0

>  <PUBCHEM_SHAPE_SELFOVERLAP>  (1) 
358.003

>  <PUBCHEM_SHAPE_VOLUME>  (1) 
98.1

>  <PUBCHEM_COORDINATE_TYPE>  (1) 
2
5
10

$$$$
