17813
     RDKit          3D

 14 14  0  0  0  0  0  0  0  0999 V2000
   -0.8442   -1.7995   -0.8446 O   0  0  0  0  0  0  0  0  0  0  0  0
    4.2257   -0.5128    0.8912 N   0  0  0  0  0  0  0  0  0  0  0  0
    1.6350    1.6342   -2.0438 N   0  0  0  0  0  0  0  0  0  0  0  0
   -0.6052    0.1484    0.5428 C   0  0  0  0  0  0  0  0  0  0  0  0
   -1.3720   -0.6753   -0.2815 C   0  0  0  0  0  0  0  0  0  0  0  0
   -1.1707    1.2927    1.1055 C   0  0  0  0  0  0  0  0  0  0  0  0
   -2.7041   -0.3545   -0.5430 C   0  0  0  0  0  0  0  0  0  0  0  0
   -2.5028    1.6134    0.8438 C   0  0  0  0  0  0  0  0  0  0  0  0
   -3.2695    0.7898    0.0196 C   0  0  0  0  0  0  0  0  0  0  0  0
    0.7880   -0.1645    0.8314 C   0  0  0  0  0  0  0  0  0  0  0  0
    1.8691    0.2212    0.1117 C   0  0  0  0  0  0  0  0  0  0  0  0
   -0.9555   -3.0096   -0.0990 C   0  0  0  0  0  0  0  0  0  0  0  0
    3.1685   -0.1846    0.5425 C   0  0  0  0  0  0  0  0  0  0  0  0
    1.7377    1.0010   -1.0766 C   0  0  0  0  0  0  0  0  0  0  0  0
  1  5  1  0
  1 12  1  0
  2 13  3  0
  3 14  3  0
  4  5  2  0
  4  6  1  0
  4 10  1  0
  5  7  1  0
  6  8  2  0
  7  9  2  0
  8  9  1  0
 10 11  2  3
 11 13  1  0
 11 14  1  0
M  END
>  <PUBCHEM_COMPOUND_CID>  (1) 
17813

>  <PUBCHEM_CONFORMER_RMSD>  (1) 
0.6

>  <PUBCHEM_CONFORMER_DIVERSEORDER>  (1) 
1
5
4
2
3

>  <PUBCHEM_MMFF94_PARTIAL_CHARGES>  (1) 
19
1 -0.36
10 -0.18
11 0.13
12 0.28
13 0.49
14 0.49
15 0.15
16 0.15
17 0.15
18 0.15
19 0.15
2 -0.56
3 -0.56
4 0.03
5 0.08
6 -0.15
7 -0.15
8 -0.15
9 -0.15

>  <PUBCHEM_EFFECTIVE_ROTOR_COUNT>  (1) 
2

>  <PUBCHEM_PHARMACOPHORE_FEATURES>  (1) 
4
1 1 acceptor
1 2 acceptor
1 3 acceptor
6 4 5 6 7 8 9 rings

>  <PUBCHEM_HEAVY_ATOM_COUNT>  (1) 
14

>  <PUBCHEM_ATOM_DEF_STEREO_COUNT>  (1) 
0

>  <PUBCHEM_ATOM_UDEF_STEREO_COUNT>  (1) 
0

>  <PUBCHEM_BOND_DEF_STEREO_COUNT>  (1) 
0

>  <PUBCHEM_BOND_UDEF_STEREO_COUNT>  (1) 
0

>  <PUBCHEM_ISOTOPIC_ATOM_COUNT>  (1) 
0

>  <PUBCHEM_COMPONENT_COUNT>  (1) 
1

>  <PUBCHEM_CACTVS_TAUTO_COUNT>  (1) 
1

>  <PUBCHEM_CONFORMER_ID>  (1) 
0000459500000001

>  <PUBCHEM_MMFF94_ENERGY>  (1) 
42.4436

>  <PUBCHEM_FEATURE_SELFOVERLAP>  (1) 
20.297

>  <PUBCHEM_SHAPE_FINGERPRINT>  (1) 
12423570 1 16388112282836661405
13538477 17 18265055901864134703
13581323 91 18272369784481977026
14115302 16 18337948008147960783
14181834 199 17479174168169580525
14614273 12 18197495130523127177
15207287 21 16702010993903561974
15775835 57 18059011670763153457
15852999 172 17989211408441087174
16945 1 18130237041925667609
17357990 137 18191612807201003908
20201158 50 16343983602398692200
20645476 183 18262812855336314727
232386 152 18272086149500765292
23402539 116 17774424028121311685
23419403 2 15891848082959324634
23557571 272 17843129365925122088
23559900 14 17846492609429186746
23598291 2 18114463456809269902
305870 269 18125160437731561915
3286 77 16226056608090527361
6992083 37 18260545615220500364
7364860 26 17556301657388741927
77492 1 18333733519996684448
81228 2 17986964131407312571
9939556 21 18188208831096912190

>  <PUBCHEM_SHAPE_MULTIPOLES>  (1) 
272.28
5.28
2.13
1.28
3.27
1.71
0.48
-0.87
-0.83
-1.15
0.26
0.62
-0.56
-1.04

>  <PUBCHEM_SHAPE_SELFOVERLAP>  (1) 
567.485

>  <PUBCHEM_SHAPE_VOLUME>  (1) 
151

>  <PUBCHEM_COORDINATE_TYPE>  (1) 
2
5
10

$$$$
