17820
     RDKit          3D

  9  9  0  0  0  0  0  0  0  0999 V2000
    2.9128   -0.3763    0.0002 O   0  0  0  0  0  0  0  0  0  0  0  0
   -1.6630   -1.8544   -0.0001 N   0  0  0  0  0  0  0  0  0  0  0  0
   -1.1380    0.5289    0.0001 C   0  0  0  0  0  0  0  0  0  0  0  0
   -0.7209   -0.8022    0.0001 C   0  0  0  0  0  0  0  0  0  0  0  0
   -0.1939    1.5556    0.0000 C   0  0  0  0  0  0  0  0  0  0  0  0
    0.6404   -1.1067    0.0000 C   0  0  0  0  0  0  0  0  0  0  0  0
    1.5846   -0.0798   -0.0001 C   0  0  0  0  0  0  0  0  0  0  0  0
   -2.5894    0.8836    0.0001 C   0  0  0  0  0  0  0  0  0  0  0  0
    1.1673    1.2513   -0.0002 C   0  0  0  0  0  0  0  0  0  0  0  0
  1  7  1  0
  2  4  1  0
  3  4  2  0
  3  5  1  0
  3  8  1  0
  4  6  1  0
  5  9  2  0
  6  7  2  0
  7  9  1  0
M  END
>  <PUBCHEM_COMPOUND_CID>  (1) 
17820

>  <PUBCHEM_CONFORMER_RMSD>  (1) 
0.4

>  <PUBCHEM_CONFORMER_DIVERSEORDER>  (1) 
1

>  <PUBCHEM_MMFF94_PARTIAL_CHARGES>  (1) 
15
1 -0.53
10 0.15
11 0.15
15 0.15
16 0.4
17 0.4
18 0.45
2 -0.9
3 -0.14
4 0.1
5 -0.15
6 -0.15
7 0.08
8 0.14
9 -0.15

>  <PUBCHEM_EFFECTIVE_ROTOR_COUNT>  (1) 
0

>  <PUBCHEM_PHARMACOPHORE_FEATURES>  (1) 
4
1 1 donor
1 2 cation
1 2 donor
6 3 4 5 6 7 9 rings

>  <PUBCHEM_HEAVY_ATOM_COUNT>  (1) 
9

>  <PUBCHEM_ATOM_DEF_STEREO_COUNT>  (1) 
0

>  <PUBCHEM_ATOM_UDEF_STEREO_COUNT>  (1) 
0

>  <PUBCHEM_BOND_DEF_STEREO_COUNT>  (1) 
0

>  <PUBCHEM_BOND_UDEF_STEREO_COUNT>  (1) 
0

>  <PUBCHEM_ISOTOPIC_ATOM_COUNT>  (1) 
0

>  <PUBCHEM_COMPONENT_COUNT>  (1) 
1

>  <PUBCHEM_CACTVS_TAUTO_COUNT>  (1) 
9

>  <PUBCHEM_CONFORMER_ID>  (1) 
0000459C00000001

>  <PUBCHEM_MMFF94_ENERGY>  (1) 
32.2064

>  <PUBCHEM_FEATURE_SELFOVERLAP>  (1) 
20.297

>  <PUBCHEM_SHAPE_FINGERPRINT>  (1) 
15310529 11 16660645098787310204
16945 1 18410575041755772868
18185500 45 18408039606660000722
193761 8 18122626325301418693
21040471 1 18338797810308575429
23235685 24 18340482257801052169
23402655 69 17978491054845347389
23552423 10 18188209934935058228
2748010 2 18267302208451636676
29004967 10 18188501159255708201
5084963 1 18200036273181529755

>  <PUBCHEM_SHAPE_MULTIPOLES>  (1) 
174.37
3.07
1.73
0.6
0.42
0.23
0
-0.04
0
-0.5
0
-0.02
-0.02
0

>  <PUBCHEM_SHAPE_SELFOVERLAP>  (1) 
362.406

>  <PUBCHEM_SHAPE_VOLUME>  (1) 
100.6

>  <PUBCHEM_COORDINATE_TYPE>  (1) 
2
5
10

$$$$
