17824
     RDKit          3D

 15 17  0  0  0  0  0  0  0  0999 V2000
    0.2781   -2.7471   -0.0003 O   0  0  0  0  0  0  0  0  0  0  0  0
   -0.3846    0.6887   -0.0004 C   0  0  0  0  0  0  0  0  0  0  0  0
    1.0622    0.6630   -0.0004 C   0  0  0  0  0  0  0  0  0  0  0  0
   -0.8690   -0.6309    0.0000 C   0  0  0  0  0  0  0  0  0  0  0  0
    1.4996   -0.6728   -0.0003 C   0  0  0  0  0  0  0  0  0  0  0  0
    0.2996   -1.5361   -0.0001 C   0  0  0  0  0  0  0  0  0  0  0  0
   -2.2130   -0.9446    0.0007 C   0  0  0  0  0  0  0  0  0  0  0  0
   -1.2784    1.7449   -0.0005 C   0  0  0  0  0  0  0  0  0  0  0  0
   -3.1100    0.1235    0.0008 C   0  0  0  0  0  0  0  0  0  0  0  0
    1.9928    1.6869    0.0000 C   0  0  0  0  0  0  0  0  0  0  0  0
    2.8318   -1.0339    0.0001 C   0  0  0  0  0  0  0  0  0  0  0  0
   -2.6483    1.4539    0.0002 C   0  0  0  0  0  0  0  0  0  0  0  0
    3.3517    1.3476    0.0003 C   0  0  0  0  0  0  0  0  0  0  0  0
    3.7660    0.0017    0.0003 C   0  0  0  0  0  0  0  0  0  0  0  0
   -4.5786   -0.1448   -0.0005 C   0  0  0  0  0  0  0  0  0  0  0  0
  1  6  2  0
  2  3  1  0
  2  4  2  0
  2  8  1  0
  3  5  2  0
  3 10  1  0
  4  6  1  0
  4  7  1  0
  5  6  1  0
  5 11  1  0
  7  9  2  0
  8 12  2  0
  9 12  1  0
  9 15  1  0
 10 13  2  0
 11 14  2  0
 13 14  1  0
M  END
>  <PUBCHEM_COMPOUND_CID>  (1) 
17824

>  <PUBCHEM_CONFORMER_RMSD>  (1) 
0.4

>  <PUBCHEM_CONFORMER_DIVERSEORDER>  (1) 
1

>  <PUBCHEM_MMFF94_PARTIAL_CHARGES>  (1) 
20
1 -0.57
10 -0.15
11 -0.15
12 -0.15
13 -0.15
14 -0.15
15 0.14
16 0.15
17 0.15
18 0.15
19 0.15
20 0.15
21 0.15
22 0.15
4 0.09
5 0.09
6 0.4
7 -0.15
8 -0.15
9 -0.14

>  <PUBCHEM_EFFECTIVE_ROTOR_COUNT>  (1) 
0

>  <PUBCHEM_PHARMACOPHORE_FEATURES>  (1) 
4
1 1 acceptor
5 2 3 4 5 6 rings
6 2 4 7 8 9 12 rings
6 3 5 10 11 13 14 rings

>  <PUBCHEM_HEAVY_ATOM_COUNT>  (1) 
15

>  <PUBCHEM_ATOM_DEF_STEREO_COUNT>  (1) 
0

>  <PUBCHEM_ATOM_UDEF_STEREO_COUNT>  (1) 
0

>  <PUBCHEM_BOND_DEF_STEREO_COUNT>  (1) 
0

>  <PUBCHEM_BOND_UDEF_STEREO_COUNT>  (1) 
0

>  <PUBCHEM_ISOTOPIC_ATOM_COUNT>  (1) 
0

>  <PUBCHEM_COMPONENT_COUNT>  (1) 
1

>  <PUBCHEM_CACTVS_TAUTO_COUNT>  (1) 
1

>  <PUBCHEM_CONFORMER_ID>  (1) 
000045A000000001

>  <PUBCHEM_MMFF94_ENERGY>  (1) 
52.4994

>  <PUBCHEM_FEATURE_SELFOVERLAP>  (1) 
20.466

>  <PUBCHEM_SHAPE_FINGERPRINT>  (1) 
10608611 8 18409444752445432629
10967382 1 18410855468755039142
11132069 177 18341325673413694353
11471102 20 18410569574547170373
13140716 1 18338514260846992875
13221675 6 18411136926704958871
13380535 76 18409449193362320011
14144814 61 18410011018166068208
14251717 144 18411697677666747255
14325111 11 18410575080473918464
14614273 12 18260823748844881045
15196674 1 18410855430142739365
15219456 202 18335981974231286693
15309172 13 18411145748451682091
15442244 35 18122906434684010866
15536298 74 18343584031995868340
15775835 57 18271810150275080093
16945 1 18266459802203483045
17802600 8 18410287004100844856
1813 80 16879342313356414034
18186145 218 18343025467045982620
193761 8 17834113039680163268
200 152 18201991123952976397
20510252 161 18272370862519327376
20645476 183 17824279299923714718
20645477 70 18341326691933055375
21267235 1 18411146817856502926
21501502 16 18193838145989723057
21524375 3 18411418423103920882
2334 1 18338517559344666693
23402539 116 18342448291954921566
23402655 69 18341885256830388461
23463225 33 18335137553553735544
23559900 14 18268142068121832674
2748010 2 18337676411479817436
2871803 45 18408879621112368047
335352 9 18050286968455153076
43471831 8 18335417920160345906
474 4 16951980668139485060
5104073 3 18410293575479845537
528886 8 18410851087856761891
53812653 166 18343016731177487288
54173680 148 18120657095755243570
69090 78 18343016726602841039
7364860 26 18197498424304016358
81228 2 17762321918198168867
8809292 202 18187652426758325563
9709674 26 18411423890581704903

>  <PUBCHEM_SHAPE_MULTIPOLES>  (1) 
302.82
6.46
2.06
0.61
2.07
0.5
0
-0.99
0
-0.4
0
0
-0.02
0

>  <PUBCHEM_SHAPE_SELFOVERLAP>  (1) 
686.465

>  <PUBCHEM_SHAPE_VOLUME>  (1) 
161.2

>  <PUBCHEM_COORDINATE_TYPE>  (1) 
2
5
10

$$$$
