17826
     RDKit          3D

 12 12  0  0  0  0  0  0  0  0999 V2000
    5.6708    0.0388    0.8249 O   0  0  0  0  0  0  0  0  0  0  0  0
    2.2790   -0.0239   -0.6004 N   0  0  0  0  0  0  0  0  0  0  0  0
   -0.1534   -0.0378   -1.0641 C   0  0  0  0  0  0  0  0  0  0  0  0
    0.9506   -0.0265    0.0028 C   0  0  0  0  0  0  0  0  0  0  0  0
   -1.5172   -0.0138   -0.4606 C   0  0  0  0  0  0  0  0  0  0  0  0
    3.3136   -0.0238    0.4237 C   0  0  0  0  0  0  0  0  0  0  0  0
   -2.1656   -1.2104   -0.1548 C   0  0  0  0  0  0  0  0  0  0  0  0
   -2.1443    1.2049   -0.2022 C   0  0  0  0  0  0  0  0  0  0  0  0
    4.6953    0.0229   -0.2090 C   0  0  0  0  0  0  0  0  0  0  0  0
   -3.4409   -1.1882    0.4096 C   0  0  0  0  0  0  0  0  0  0  0  0
   -3.4198    1.2272    0.3621 C   0  0  0  0  0  0  0  0  0  0  0  0
   -4.0681    0.0306    0.6680 C   0  0  0  0  0  0  0  0  0  0  0  0
  1  9  1  0
  2  4  1  0
  2  6  1  0
  3  4  1  0
  3  5  1  0
  5  7  2  0
  5  8  1  0
  6  9  1  0
  7 10  1  0
  8 11  2  0
 10 12  2  0
 11 12  1  0
M  END
>  <PUBCHEM_COMPOUND_CID>  (1) 
17826

>  <PUBCHEM_CONFORMER_RMSD>  (1) 
0.6

>  <PUBCHEM_CONFORMER_DIVERSEORDER>  (1) 
1
14
28
10
13
21
6
5
9
8
25
17
20
19
24
23
11
4
18
15
22
16
26
30
27
7
12
3
29
2

>  <PUBCHEM_MMFF94_PARTIAL_CHARGES>  (1) 
19
1 -0.68
10 -0.15
11 -0.15
12 -0.15
17 0.36
2 -0.9
20 0.15
21 0.15
24 0.15
25 0.15
26 0.15
27 0.4
3 0.14
4 0.27
5 -0.14
6 0.27
7 -0.15
8 -0.15
9 0.28

>  <PUBCHEM_EFFECTIVE_ROTOR_COUNT>  (1) 
5

>  <PUBCHEM_PHARMACOPHORE_FEATURES>  (1) 
5
1 1 acceptor
1 1 donor
1 2 cation
1 2 donor
6 5 7 8 10 11 12 rings

>  <PUBCHEM_HEAVY_ATOM_COUNT>  (1) 
12

>  <PUBCHEM_ATOM_DEF_STEREO_COUNT>  (1) 
0

>  <PUBCHEM_ATOM_UDEF_STEREO_COUNT>  (1) 
0

>  <PUBCHEM_BOND_DEF_STEREO_COUNT>  (1) 
0

>  <PUBCHEM_BOND_UDEF_STEREO_COUNT>  (1) 
0

>  <PUBCHEM_ISOTOPIC_ATOM_COUNT>  (1) 
0

>  <PUBCHEM_COMPONENT_COUNT>  (1) 
1

>  <PUBCHEM_CACTVS_TAUTO_COUNT>  (1) 
1

>  <PUBCHEM_CONFORMER_ID>  (1) 
000045A200000001

>  <PUBCHEM_MMFF94_ENERGY>  (1) 
15.271

>  <PUBCHEM_FEATURE_SELFOVERLAP>  (1) 
25.371

>  <PUBCHEM_SHAPE_FINGERPRINT>  (1) 
10014705 185 15913315919011864736
114248 4 8070025562777868726
12251169 10 18408606967602876965
13214271 11 18131632283700826165
13675066 3 18060700593980596662
13897977 58 18410018762013364428
14123238 8 17894351090426354262
14251718 22 8430308044373805042
17834076 25 14261632833353789224
200 152 15213016063648617167
20279233 1 17775011180083343671
20432913 95 16515684420908884744
20645464 45 17917718998071675847
20645476 183 11815892332445952893
20645477 56 17561360695282534820
20645477 70 12035712203551275096
20828058 44 18334858320571110826
20871999 31 9583519772800535051
21119208 17 10447928364783681858
21650355 55 18336551611754541513
22485316 2 17095518483191383622
23402539 116 18343014511196145727
23402655 69 11743851235028911450
23403322 49 12684807805659164000
42 15 18333450932939786254
449060 50 17989209239603681500
57265010 4 18410015437792774635

>  <PUBCHEM_SHAPE_MULTIPOLES>  (1) 
236.1
10.38
1.11
0.87
14.74
0.01
-0.05
0.14
3.15
-1.39
0.04
0.11
0
0.02

>  <PUBCHEM_SHAPE_SELFOVERLAP>  (1) 
467.4

>  <PUBCHEM_SHAPE_VOLUME>  (1) 
140.8

>  <PUBCHEM_COORDINATE_TYPE>  (1) 
2
5
10

$$$$
