17839
     RDKit          3D

 18 20  0  0  0  0  0  0  0  0999 V2000
    1.4929    0.0576    0.7959 N   0  0  0  0  0  0  0  0  0  0  0  0
    2.4728    1.9350   -0.0219 N   0  0  0  0  0  0  0  0  0  0  0  0
    0.2070    1.7263   -0.4160 N   0  0  0  0  0  0  0  0  0  0  0  0
   -0.4016   -1.2816   -0.0849 C   0  0  0  0  0  0  0  0  0  0  0  0
   -1.3902   -0.1743   -0.0221 C   0  0  0  0  0  0  0  0  0  0  0  0
    0.9054   -1.1698    0.4272 C   0  0  0  0  0  0  0  0  0  0  0  0
   -1.0676    1.1880   -0.1857 C   0  0  0  0  0  0  0  0  0  0  0  0
    1.2914    1.2363    0.1080 C   0  0  0  0  0  0  0  0  0  0  0  0
   -0.7886   -2.5409   -0.6049 C   0  0  0  0  0  0  0  0  0  0  0  0
    1.7375   -2.3118    0.4759 C   0  0  0  0  0  0  0  0  0  0  0  0
   -2.7477   -0.4872    0.2494 C   0  0  0  0  0  0  0  0  0  0  0  0
   -2.0959    2.1555   -0.1327 C   0  0  0  0  0  0  0  0  0  0  0  0
    0.0518   -3.6551   -0.5677 C   0  0  0  0  0  0  0  0  0  0  0  0
    1.3136   -3.5446   -0.0095 C   0  0  0  0  0  0  0  0  0  0  0  0
   -3.7478    0.4844    0.3110 C   0  0  0  0  0  0  0  0  0  0  0  0
   -3.4216    1.8124    0.1104 C   0  0  0  0  0  0  0  0  0  0  0  0
    3.7320    1.2340   -0.0680 C   0  0  0  0  0  0  0  0  0  0  0  0
    2.4567    3.3357   -0.3645 C   0  0  0  0  0  0  0  0  0  0  0  0
  1  6  1  0
  1  8  1  0
  2  8  1  0
  2 17  1  0
  2 18  1  0
  3  7  1  0
  3  8  2  0
  4  5  1  0
  4  6  2  0
  4  9  1  0
  5  7  2  0
  5 11  1  0
  6 10  1  0
  7 12  1  0
  9 13  2  0
 10 14  2  0
 11 15  2  0
 12 16  2  0
 13 14  1  0
 15 16  1  0
M  END
>  <PUBCHEM_COMPOUND_CID>  (1) 
17839

>  <PUBCHEM_CONFORMER_RMSD>  (1) 
0.6

>  <PUBCHEM_CONFORMER_DIVERSEORDER>  (1) 
2
1

>  <PUBCHEM_MMFF94_PARTIAL_CHARGES>  (1) 
25
1 -0.55
10 -0.15
11 -0.15
12 -0.15
13 -0.15
14 -0.15
15 -0.15
16 -0.15
17 0.37
18 0.37
19 0.4
2 -0.79
20 0.15
21 0.15
22 0.15
23 0.15
24 0.15
25 0.15
26 0.15
27 0.15
3 -0.63
6 0.1
7 0.18
8 0.55
9 -0.15

>  <PUBCHEM_EFFECTIVE_ROTOR_COUNT>  (1) 
1.2

>  <PUBCHEM_PHARMACOPHORE_FEATURES>  (1) 
5
1 1 donor
4 1 2 3 8 cation
6 4 6 9 10 13 14 rings
6 5 7 11 12 15 16 rings
7 1 3 4 5 6 7 8 rings

>  <PUBCHEM_HEAVY_ATOM_COUNT>  (1) 
18

>  <PUBCHEM_ATOM_DEF_STEREO_COUNT>  (1) 
0

>  <PUBCHEM_ATOM_UDEF_STEREO_COUNT>  (1) 
0

>  <PUBCHEM_BOND_DEF_STEREO_COUNT>  (1) 
0

>  <PUBCHEM_BOND_UDEF_STEREO_COUNT>  (1) 
0

>  <PUBCHEM_ISOTOPIC_ATOM_COUNT>  (1) 
0

>  <PUBCHEM_COMPONENT_COUNT>  (1) 
1

>  <PUBCHEM_CACTVS_TAUTO_COUNT>  (1) 
1

>  <PUBCHEM_CONFORMER_ID>  (1) 
000045AF00000002

>  <PUBCHEM_MMFF94_ENERGY>  (1) 
85.7074

>  <PUBCHEM_FEATURE_SELFOVERLAP>  (1) 
25.39

>  <PUBCHEM_SHAPE_FINGERPRINT>  (1) 
10319926 262 16175072992978636058
10411042 1 17546166303665071207
10967382 1 18266739078056717883
1100329 8 17329995106414929043
11578080 2 16372402559161785247
116883 192 16971109562694510015
12035759 4 18198881773472767391
12173636 292 18195243540714537709
12553582 1 17546733655489907375
12592029 89 18409738352019439536
12788726 201 17543907270962247506
13140716 1 18265328593664289538
138480 1 18050568434852439262
14081887 123 17333641078092952464
14648413 74 18192714449474917497
14790565 3 18338250365335714697
15042514 8 17904484352385576514
15309172 13 18339089292902172265
16945 1 18123749751644423119
17134986 127 18409729586133762356
17990270 104 18121496856561408035
18785283 64 18265066734156939737
19591789 44 18338803423814942106
19868273 325 17400645917873740383
20510252 161 17909836766278329801
20645477 70 18263073319950308557
21501502 16 18268426846228892433
21524375 3 18261391199670736344
2334 1 17688866862118878144
23419403 2 17394503131119356514
23557571 272 17478629252858324804
23558518 356 17829889094496451304
23559900 14 18194955241530074553
238 59 17756664681976155581
2748010 2 17762599708214096242
3091708 16 9190438910534174819
352729 6 18266459999671719424
43471831 8 18409449215105934995
458136 41 18339381702775960801
5939293 188 18048873000907602499
6138700 20 18266750074175699086
6438718 38 17411074137054731471
7364860 26 18266743484751257301
81228 2 17474664430590754560
9862522 239 18116686613491644356

>  <PUBCHEM_SHAPE_MULTIPOLES>  (1) 
355.49
4.97
4.63
0.72
3.54
0.26
0
-1.83
0.48
-4.37
-0.89
-0.06
0.12
-0.09

>  <PUBCHEM_SHAPE_SELFOVERLAP>  (1) 
778.107

>  <PUBCHEM_SHAPE_VOLUME>  (1) 
187.8

>  <PUBCHEM_COORDINATE_TYPE>  (1) 
2
5
10

$$$$
