17831
     RDKit          3D

 12 12  0  0  1  0  0  0  0  0999 V2000
    1.5260   -0.3052   -1.5076 O   0  0  0  0  0  0  0  0  0  0  0  0
    3.1866    1.4577    0.1457 N   0  0  0  0  0  0  0  0  0  0  0  0
    1.1418    0.0155   -0.1623 C   0  0  0  0  0  0  0  0  0  0  0  0
    1.7234   -1.0871    0.7621 C   0  0  0  0  0  0  0  0  0  0  0  0
   -0.3871    0.0940   -0.0668 C   0  0  0  0  0  0  0  0  0  0  0  0
    1.7246    1.4197    0.1512 C   0  0  0  0  0  0  0  0  0  0  0  0
    1.1521   -2.4807    0.5042 C   0  0  0  0  0  0  0  0  0  0  0  0
   -0.9540    0.3730    1.1536 C   0  0  0  0  0  0  0  0  0  0  0  0
   -1.1264   -0.1183   -1.2056 C   0  0  0  0  0  0  0  0  0  0  0  0
   -2.3444    0.4441    1.2403 C   0  0  0  0  0  0  0  0  0  0  0  0
   -2.5168   -0.0470   -1.1189 C   0  0  0  0  0  0  0  0  0  0  0  0
   -3.1258    0.2342    0.1041 C   0  0  0  0  0  0  0  0  0  0  0  0
  1  3  1  0
  2  6  1  0
  3  4  1  0
  3  5  1  0
  3  6  1  0
  4  7  1  0
  5  8  2  0
  5  9  1  0
  8 10  1  0
  9 11  2  0
 10 12  2  0
 11 12  1  0
M  END
>  <PUBCHEM_COMPOUND_CID>  (1) 
17831

>  <PUBCHEM_CONFORMER_RMSD>  (1) 
0.6

>  <PUBCHEM_CONFORMER_DIVERSEORDER>  (1) 
1
11
14
7
5
16
2
13
15
10
6
17
9
12
8
4
3

>  <PUBCHEM_MMFF94_PARTIAL_CHARGES>  (1) 
18
1 -0.68
10 -0.15
11 -0.15
12 -0.15
2 -0.99
20 0.15
21 0.15
22 0.4
23 0.36
24 0.36
25 0.15
26 0.15
27 0.15
3 0.42
5 -0.14
6 0.27
8 -0.15
9 -0.15

>  <PUBCHEM_EFFECTIVE_ROTOR_COUNT>  (1) 
3

>  <PUBCHEM_PHARMACOPHORE_FEATURES>  (1) 
6
1 1 acceptor
1 1 donor
1 2 cation
1 2 donor
1 7 hydrophobe
6 5 8 9 10 11 12 rings

>  <PUBCHEM_HEAVY_ATOM_COUNT>  (1) 
12

>  <PUBCHEM_ATOM_DEF_STEREO_COUNT>  (1) 
0

>  <PUBCHEM_ATOM_UDEF_STEREO_COUNT>  (1) 
1

>  <PUBCHEM_BOND_DEF_STEREO_COUNT>  (1) 
0

>  <PUBCHEM_BOND_UDEF_STEREO_COUNT>  (1) 
0

>  <PUBCHEM_ISOTOPIC_ATOM_COUNT>  (1) 
0

>  <PUBCHEM_COMPONENT_COUNT>  (1) 
1

>  <PUBCHEM_CACTVS_TAUTO_COUNT>  (1) 
1

>  <PUBCHEM_CONFORMER_ID>  (1) 
000045A700000001

>  <PUBCHEM_MMFF94_ENERGY>  (1) 
31.3546

>  <PUBCHEM_FEATURE_SELFOVERLAP>  (1) 
30.447

>  <PUBCHEM_SHAPE_FINGERPRINT>  (1) 
107287 299 17894926117284648894
12326174 3 18341055125118725294
12423570 1 11171568553812040654
12524768 44 15864654828648580607
12932764 1 18337401448143103893
13380536 127 17561361768760439443
13538477 17 17774993609693888863
15219456 202 17531239539399759936
15310529 11 18412257325096344417
15775835 57 18411696620909737149
15852999 172 17677038140049870603
16945 1 18336540512920953099
170605 34 18130513023528670712
20082192 1 17631455570517206349
20201158 50 17386849400518931179
20645464 45 16950275204912741689
21061003 4 17899694557586245306
21922407 69 18343295942511130627
23236772 104 17988925629891178585
23552423 10 17417821582369069639
23559900 14 15793124863238861746
29004967 10 18040999514163237649
3248919 1 17561078077765226781
369184 2 18408038498922480705
5084963 1 16486143777454290637
77492 1 17988917864379193784
81228 2 17252306904619796106

>  <PUBCHEM_SHAPE_MULTIPOLES>  (1) 
236.1
4.24
1.6
1.31
0.93
0.82
-0.16
-1.04
0.14
-1.69
0.31
0.5
0.02
-0.24

>  <PUBCHEM_SHAPE_SELFOVERLAP>  (1) 
480.652

>  <PUBCHEM_SHAPE_VOLUME>  (1) 
136.7

>  <PUBCHEM_COORDINATE_TYPE>  (1) 
2
5
10

$$$$
