17833
     RDKit          3D

  9  9  0  0  0  0  0  0  0  0999 V2000
    3.0646   -1.1581    0.0001 Cl  0  0  0  0  0  0  0  0  0  0  0  0
   -2.0212   -0.9889   -0.0001 O   0  0  0  0  0  0  0  0  0  0  0  0
   -0.8437   -0.3064   -0.0004 C   0  0  0  0  0  0  0  0  0  0  0  0
    0.3659   -1.0011   -0.0001 C   0  0  0  0  0  0  0  0  0  0  0  0
   -0.8467    1.0885   -0.0003 C   0  0  0  0  0  0  0  0  0  0  0  0
    1.5723   -0.3010    0.0001 C   0  0  0  0  0  0  0  0  0  0  0  0
    0.3597    1.7886    0.0001 C   0  0  0  0  0  0  0  0  0  0  0  0
    1.5692    1.0938    0.0001 C   0  0  0  0  0  0  0  0  0  0  0  0
   -3.2201   -0.2153    0.0004 C   0  0  0  0  0  0  0  0  0  0  0  0
  1  6  1  0
  2  3  1  0
  2  9  1  0
  3  4  2  0
  3  5  1  0
  4  6  1  0
  5  7  2  0
  6  8  2  0
  7  8  1  0
M  END
>  <PUBCHEM_COMPOUND_CID>  (1) 
17833

>  <PUBCHEM_CONFORMER_RMSD>  (1) 
0.4

>  <PUBCHEM_CONFORMER_DIVERSEORDER>  (1) 
1
2

>  <PUBCHEM_MMFF94_PARTIAL_CHARGES>  (1) 
13
1 -0.18
10 0.15
11 0.15
12 0.15
13 0.15
2 -0.36
3 0.08
4 -0.15
5 -0.15
6 0.18
7 -0.15
8 -0.15
9 0.28

>  <PUBCHEM_EFFECTIVE_ROTOR_COUNT>  (1) 
1

>  <PUBCHEM_PHARMACOPHORE_FEATURES>  (1) 
2
1 2 acceptor
6 3 4 5 6 7 8 rings

>  <PUBCHEM_HEAVY_ATOM_COUNT>  (1) 
9

>  <PUBCHEM_ATOM_DEF_STEREO_COUNT>  (1) 
0

>  <PUBCHEM_ATOM_UDEF_STEREO_COUNT>  (1) 
0

>  <PUBCHEM_BOND_DEF_STEREO_COUNT>  (1) 
0

>  <PUBCHEM_BOND_UDEF_STEREO_COUNT>  (1) 
0

>  <PUBCHEM_ISOTOPIC_ATOM_COUNT>  (1) 
0

>  <PUBCHEM_COMPONENT_COUNT>  (1) 
1

>  <PUBCHEM_CACTVS_TAUTO_COUNT>  (1) 
1

>  <PUBCHEM_CONFORMER_ID>  (1) 
000045A900000001

>  <PUBCHEM_MMFF94_ENERGY>  (1) 
28.3994

>  <PUBCHEM_FEATURE_SELFOVERLAP>  (1) 
10.148

>  <PUBCHEM_SHAPE_FINGERPRINT>  (1) 
10857977 72 18340754962839484682
14128692 85 18410579483004982764
16945 1 18194401314738692896
20871998 184 18057598764088388398
20871998 22 18271535178021598894
21040471 1 17762055840679136197
23552423 10 18260270733097723238
241688 4 18337110060128907080
2748010 2 18410284796566802132
29004967 10 18335422429896683417
5084963 1 18344145877863119898

>  <PUBCHEM_SHAPE_MULTIPOLES>  (1) 
181.22
4.03
1.63
0.61
0.81
0.57
0
-1.76
0
-0.38
0
-0.03
0.01
0

>  <PUBCHEM_SHAPE_SELFOVERLAP>  (1) 
363.455

>  <PUBCHEM_SHAPE_VOLUME>  (1) 
108.5

>  <PUBCHEM_COORDINATE_TYPE>  (1) 
2
5
10

$$$$
