17848
     RDKit          3D

 16 17  0  0  0  0  0  0  0  0999 V2000
    0.0063    2.5836   -0.2155 O   0  0  0  0  0  0  0  0  0  0  0  0
   -1.3450    0.6800   -0.0713 C   0  0  0  0  0  0  0  0  0  0  0  0
    1.2256    0.6284    0.1863 C   0  0  0  0  0  0  0  0  0  0  0  0
   -0.0582    1.3572   -0.0440 C   0  0  0  0  0  0  0  0  0  0  0  0
   -2.6464   -1.3488    0.0964 C   0  0  0  0  0  0  0  0  0  0  0  0
    3.1060   -0.5443   -0.6864 C   0  0  0  0  0  0  0  0  0  0  0  0
   -1.4118   -0.6999    0.1222 C   0  0  0  0  0  0  0  0  0  0  0  0
    1.9072    0.1356   -0.9021 C   0  0  0  0  0  0  0  0  0  0  0  0
   -2.5127    1.4108   -0.2906 C   0  0  0  0  0  0  0  0  0  0  0  0
    1.6745    0.4799    1.4780 C   0  0  0  0  0  0  0  0  0  0  0  0
   -3.8140   -0.6177   -0.1227 C   0  0  0  0  0  0  0  0  0  0  0  0
    3.5889   -0.7119    0.6114 C   0  0  0  0  0  0  0  0  0  0  0  0
   -3.7471    0.7621   -0.3164 C   0  0  0  0  0  0  0  0  0  0  0  0
    2.8731   -0.2000    1.6937 C   0  0  0  0  0  0  0  0  0  0  0  0
   -2.7186   -2.8239    0.3042 C   0  0  0  0  0  0  0  0  0  0  0  0
    3.8722   -1.0912   -1.8431 C   0  0  0  0  0  0  0  0  0  0  0  0
  1  4  2  0
  2  4  1  0
  2  7  1  0
  2  9  2  0
  3  4  1  0
  3  8  1  0
  3 10  2  0
  5  7  2  0
  5 11  1  0
  5 15  1  0
  6  8  2  0
  6 12  1  0
  6 16  1  0
  9 13  1  0
 10 14  1  0
 11 13  2  0
 12 14  2  0
M  END
>  <PUBCHEM_COMPOUND_CID>  (1) 
17848

>  <PUBCHEM_CONFORMER_RMSD>  (1) 
0.6

>  <PUBCHEM_CONFORMER_DIVERSEORDER>  (1) 
1
10
7
13
5
12
9
8
11
6
4
3
2

>  <PUBCHEM_MMFF94_PARTIAL_CHARGES>  (1) 
24
1 -0.57
10 -0.15
11 -0.15
12 -0.15
13 -0.15
14 -0.15
15 0.14
16 0.14
17 0.15
18 0.15
19 0.15
2 0.09
20 0.15
21 0.15
22 0.15
23 0.15
24 0.15
3 0.09
4 0.4
5 -0.14
6 -0.14
7 -0.15
8 -0.15
9 -0.15

>  <PUBCHEM_EFFECTIVE_ROTOR_COUNT>  (1) 
2

>  <PUBCHEM_PHARMACOPHORE_FEATURES>  (1) 
3
1 1 acceptor
6 2 5 7 9 11 13 rings
6 3 6 8 10 12 14 rings

>  <PUBCHEM_HEAVY_ATOM_COUNT>  (1) 
16

>  <PUBCHEM_ATOM_DEF_STEREO_COUNT>  (1) 
0

>  <PUBCHEM_ATOM_UDEF_STEREO_COUNT>  (1) 
0

>  <PUBCHEM_BOND_DEF_STEREO_COUNT>  (1) 
0

>  <PUBCHEM_BOND_UDEF_STEREO_COUNT>  (1) 
0

>  <PUBCHEM_ISOTOPIC_ATOM_COUNT>  (1) 
0

>  <PUBCHEM_COMPONENT_COUNT>  (1) 
1

>  <PUBCHEM_CACTVS_TAUTO_COUNT>  (1) 
1

>  <PUBCHEM_CONFORMER_ID>  (1) 
000045B800000001

>  <PUBCHEM_MMFF94_ENERGY>  (1) 
52.5687

>  <PUBCHEM_FEATURE_SELFOVERLAP>  (1) 
15.223

>  <PUBCHEM_SHAPE_FINGERPRINT>  (1) 
10465860 71 18334022687228141468
10751810 167 17967255290852808567
11471102 22 16773790381777808720
11543360 7 15213304153191539835
11578080 2 13036334738418277211
11715629 250 11097853003703221323
12202030 40 17988928851248512798
12236239 1 17385723560989115024
12346177 29 18341599443820625247
12553582 1 18334296483035370259
13296908 3 18413103987192617800
13544592 145 18130227051657722287
14115302 16 18261114049615219101
14289901 80 16773505663757878857
14386348 63 18131351895166315918
15375358 24 18200863028621370160
15415430 112 18261120685376627606
16752209 62 18116137901470613533
16945 1 18336823083177803129
17804303 29 18411419518684422377
18186145 218 11819270014659083132
19049666 15 17702101361528578936
19107657 162 18272931652124985542
19422 9 17167861933120189137
19862831 5 17385730179412457262
20279233 1 18060131042166731482
20281407 28 18343588412767519238
20600515 1 18339347596319681808
20645476 183 17240774981722760923
20645477 70 16916779639755476700
20681677 155 18334020458002919145
20715346 28 17988637527574117273
20871999 31 18334587840378316950
21069387 34 17774713255967387013
21634736 98 18041569147064757180
23184049 29 18192142918245455851
232386 152 18187633734796577826
23557571 272 18342171125522005256
23559900 14 18341050718946308438
23598291 2 17023746676261715380
2748010 2 18340477980097975973
3082319 5 16950282901246008462
465052 167 17895772785052860267
568465 68 17632856438651952250
5902787 121 18335412517075351416
603831 33 17458347416437296244
7364860 26 18124877016992851921
74978 22 18261950851405700777
77492 1 17385723552214713504
81228 2 18128822940876123937
9709674 26 18272645787892119583

>  <PUBCHEM_SHAPE_MULTIPOLES>  (1) 
323.4
7.41
2.07
1.28
0.23
0.39
-0.07
2.86
1.02
-1.77
0.06
1.79
0.21
0.81

>  <PUBCHEM_SHAPE_SELFOVERLAP>  (1) 
698.598

>  <PUBCHEM_SHAPE_VOLUME>  (1) 
179.1

>  <PUBCHEM_COORDINATE_TYPE>  (1) 
2
5
10

$$$$
