17864
     RDKit          3D

  6  5  0  0  0  0  0  0  0  0999 V2000
   -3.0488    0.2564    0.1906 Br  0  0  0  0  0  0  0  0  0  0  0  0
    1.0891    0.0210   -0.3121 N   0  0  0  0  0  0  0  0  0  0  0  0
   -0.2186    0.5179    0.1143 C   0  0  0  0  0  0  0  0  0  0  0  0
   -1.3063   -0.4428   -0.3282 C   0  0  0  0  0  0  0  0  0  0  0  0
    1.3403   -1.3052    0.2508 C   0  0  0  0  0  0  0  0  0  0  0  0
    2.1442    0.9528    0.0845 C   0  0  0  0  0  0  0  0  0  0  0  0
  1  4  1  0
  2  3  1  0
  2  5  1  0
  2  6  1  0
  3  4  1  0
M  END
>  <PUBCHEM_COMPOUND_CID>  (1) 
17864

>  <PUBCHEM_CONFORMER_RMSD>  (1) 
0.4

>  <PUBCHEM_CONFORMER_DIVERSEORDER>  (1) 
1
3
5
2
4

>  <PUBCHEM_MMFF94_PARTIAL_CHARGES>  (1) 
6
1 -0.23
2 -0.81
3 0.27
4 0.23
5 0.27
6 0.27

>  <PUBCHEM_EFFECTIVE_ROTOR_COUNT>  (1) 
2

>  <PUBCHEM_PHARMACOPHORE_FEATURES>  (1) 
2
1 1 hydrophobe
1 2 cation

>  <PUBCHEM_HEAVY_ATOM_COUNT>  (1) 
6

>  <PUBCHEM_ATOM_DEF_STEREO_COUNT>  (1) 
0

>  <PUBCHEM_ATOM_UDEF_STEREO_COUNT>  (1) 
0

>  <PUBCHEM_BOND_DEF_STEREO_COUNT>  (1) 
0

>  <PUBCHEM_BOND_UDEF_STEREO_COUNT>  (1) 
0

>  <PUBCHEM_ISOTOPIC_ATOM_COUNT>  (1) 
0

>  <PUBCHEM_COMPONENT_COUNT>  (1) 
1

>  <PUBCHEM_CACTVS_TAUTO_COUNT>  (1) 
1

>  <PUBCHEM_CONFORMER_ID>  (1) 
000045C800000001

>  <PUBCHEM_MMFF94_ENERGY>  (1) 
8.8892

>  <PUBCHEM_FEATURE_SELFOVERLAP>  (1) 
10.148

>  <PUBCHEM_SHAPE_FINGERPRINT>  (1) 
14390081 3 18130786797734586321
20096714 4 18342738567398840116
20651381 32 18336255739952567773
21040471 1 18265897041381597094
23552333 60 18342459201192991442
23552449 11 18115295675125829010
29004967 10 17967255299358392665
5460574 1 8646775491002981829

>  <PUBCHEM_SHAPE_MULTIPOLES>  (1) 
124.44
4.07
1.15
0.68
2.54
0.19
0.02
-0.63
0.3
-0.64
0.08
0.09
0.01
-0.11

>  <PUBCHEM_SHAPE_SELFOVERLAP>  (1) 
202.193

>  <PUBCHEM_SHAPE_VOLUME>  (1) 
90

>  <PUBCHEM_COORDINATE_TYPE>  (1) 
2
5
10

$$$$
