17866
     RDKit          3D

 18 17  0  0  0  0  0  0  0  0999 V2000
    0.3749   -2.7762   -1.4311 O   0  0  0  0  0  0  0  0  0  0  0  0
   -0.0329   -0.7158    0.3272 N   0  0  0  0  0  0  0  0  0  0  0  0
    0.4000   -4.2816    0.3375 N   0  0  0  0  0  0  0  0  0  0  0  0
    0.9284   -5.3002   -0.4296 N   0  0  0  0  0  0  0  0  0  0  0  0
    1.3235   -0.4398    0.7892 C   0  0  0  0  0  0  0  0  0  0  0  0
   -0.9686    0.2780    0.8556 C   0  0  0  0  0  0  0  0  0  0  0  0
    1.9199    0.7274    0.0033 C   0  0  0  0  0  0  0  0  0  0  0  0
   -2.2258    0.3308   -0.0118 C   0  0  0  0  0  0  0  0  0  0  0  0
    3.3457    1.0832    0.4364 C   0  0  0  0  0  0  0  0  0  0  0  0
   -3.2601    1.3470    0.4824 C   0  0  0  0  0  0  0  0  0  0  0  0
   -0.4463   -2.0633    0.7214 C   0  0  0  0  0  0  0  0  0  0  0  0
    3.9367    2.2682   -0.3306 C   0  0  0  0  0  0  0  0  0  0  0  0
   -4.5313    1.3842   -0.3687 C   0  0  0  0  0  0  0  0  0  0  0  0
    5.3831    2.5332    0.0896 C   0  0  0  0  0  0  0  0  0  0  0  0
   -5.4960    2.4637    0.1245 C   0  0  0  0  0  0  0  0  0  0  0  0
    0.1574   -3.0533   -0.2528 C   0  0  0  0  0  0  0  0  0  0  0  0
    5.9666    3.7294   -0.6455 C   0  0  0  0  0  0  0  0  0  0  0  0
   -6.7753    2.4851   -0.6968 C   0  0  0  0  0  0  0  0  0  0  0  0
  1 16  2  0
  2  5  1  0
  2  6  1  0
  2 11  1  0
  3  4  1  0
  3 16  1  0
  5  7  1  0
  6  8  1  0
  7  9  1  0
  8 10  1  0
  9 12  1  0
 10 13  1  0
 11 16  1  0
 12 14  1  0
 13 15  1  0
 14 17  1  0
 15 18  1  0
M  END
>  <PUBCHEM_COMPOUND_CID>  (1) 
17866

>  <PUBCHEM_CONFORMER_RMSD>  (1) 
1.2

>  <PUBCHEM_CONFORMER_DIVERSEORDER>  (1) 
1
83
7
10
102
93
107
16
79
72
73
3
66
68
35
20
54
17
34
5
51
14
91
52
55
96
85
37
106
109
75
48
38
15
71
98
88
36
95
60
26
50
101
12
64
87
18
49
104
13
76
105
21
19
103
63
56
57
39
97
65
31
59
80
23
61
47
32
24
9
41
2
110
94
42
28
84
67
27
11
100
8
78
6
58
99
92
22
89
4
82
44
33
30
90
53
74
29
70
25
46
40
86
81
43
45
69
108
77
62

>  <PUBCHEM_MMFF94_PARTIAL_CHARGES>  (1) 
11
1 -0.57
11 0.33
16 0.57
2 -0.81
3 -0.42
4 -0.73
47 0.37
48 0.36
49 0.36
5 0.27
6 0.27

>  <PUBCHEM_EFFECTIVE_ROTOR_COUNT>  (1) 
13

>  <PUBCHEM_PHARMACOPHORE_FEATURES>  (1) 
8
1 1 acceptor
1 17 hydrophobe
1 18 hydrophobe
1 2 cation
1 3 donor
1 4 donor
4 7 9 12 14 hydrophobe
4 8 10 13 15 hydrophobe

>  <PUBCHEM_HEAVY_ATOM_COUNT>  (1) 
18

>  <PUBCHEM_ATOM_DEF_STEREO_COUNT>  (1) 
0

>  <PUBCHEM_ATOM_UDEF_STEREO_COUNT>  (1) 
0

>  <PUBCHEM_BOND_DEF_STEREO_COUNT>  (1) 
0

>  <PUBCHEM_BOND_UDEF_STEREO_COUNT>  (1) 
0

>  <PUBCHEM_ISOTOPIC_ATOM_COUNT>  (1) 
0

>  <PUBCHEM_COMPONENT_COUNT>  (1) 
1

>  <PUBCHEM_CACTVS_TAUTO_COUNT>  (1) 
2

>  <PUBCHEM_CONFORMER_ID>  (1) 
000045CA00000001

>  <PUBCHEM_MMFF94_ENERGY>  (1) 
10.8873

>  <PUBCHEM_FEATURE_SELFOVERLAP>  (1) 
42.106

>  <PUBCHEM_SHAPE_FINGERPRINT>  (1) 
11056379 131 17834123318375458406
12107183 9 18334283272439018664
12293681 160 17917715716274239376
12730499 353 18338526235932965937
12788726 201 17903344150348811138
13955234 65 18193000314114102075
14508225 48 17334492104118669286
167882 2 18411140195449631146
17539 30 17838050773240351086
18785283 64 18191861236846876298
20645477 56 18126581247626407592
20645477 70 18051686656344265243
21426921 1 17906456881015287104
23557571 272 17840884172261975852
23598288 3 17754470263125783144
270888 7 18335137609215237421
3057174 1 18343304755789557062
5219985 13 18335699468188625236
60123966 16 17830716679044601661
6025842 7 18267861688704290607
6327066 14 18335701688776589444
77188 2 17545601149892156758

>  <PUBCHEM_SHAPE_MULTIPOLES>  (1) 
349.62
13.02
6.34
0.91
5.97
9.67
-0.07
-26.45
-2.77
-3.71
-1.65
0.03
0.2
-0.06

>  <PUBCHEM_SHAPE_SELFOVERLAP>  (1) 
641.047

>  <PUBCHEM_SHAPE_VOLUME>  (1) 
222.9

>  <PUBCHEM_COORDINATE_TYPE>  (1) 
2
5
10

$$$$
