17879
     RDKit          3D

 22 25  0  0  0  0  0  0  0  0999 V2000
   -2.2604    0.2138   -0.3632 N   0  0  0  0  0  0  0  0  0  0  0  0
   -0.2771   -0.8738    0.5969 N   0  0  0  0  0  0  0  0  0  0  0  0
   -0.0952    1.2813   -0.5202 N   0  0  0  0  0  0  0  0  0  0  0  0
   -3.8537   -1.3838    0.6262 C   0  0  0  0  0  0  0  0  0  0  0  0
   -5.2004   -0.6750    0.4579 C   0  0  0  0  0  0  0  0  0  0  0  0
   -2.8731   -1.1238   -0.5117 C   0  0  0  0  0  0  0  0  0  0  0  0
   -5.1239    0.8523    0.4769 C   0  0  0  0  0  0  0  0  0  0  0  0
   -4.3151    1.4277   -0.6810 C   0  0  0  0  0  0  0  0  0  0  0  0
   -2.8409    1.3604   -0.4272 C   0  0  0  0  0  0  0  0  0  0  0  0
   -0.7122    0.2398   -0.0779 C   0  0  0  0  0  0  0  0  0  0  0  0
    0.9480   -1.5178    0.3248 C   0  0  0  0  0  0  0  0  0  0  0  0
    2.1170   -0.8366   -0.0677 C   0  0  0  0  0  0  0  0  0  0  0  0
    2.2735    0.6396    0.0321 C   0  0  0  0  0  0  0  0  0  0  0  0
    1.2390    1.5699   -0.1976 C   0  0  0  0  0  0  0  0  0  0  0  0
    0.9365   -2.9324    0.3473 C   0  0  0  0  0  0  0  0  0  0  0  0
    3.2079   -1.6273   -0.5070 C   0  0  0  0  0  0  0  0  0  0  0  0
    3.5375    1.1653    0.4089 C   0  0  0  0  0  0  0  0  0  0  0  0
    1.5161    2.9528   -0.1081 C   0  0  0  0  0  0  0  0  0  0  0  0
    2.0400   -3.6786   -0.0525 C   0  0  0  0  0  0  0  0  0  0  0  0
    3.1739   -3.0232   -0.4988 C   0  0  0  0  0  0  0  0  0  0  0  0
    3.7882    2.5351    0.5059 C   0  0  0  0  0  0  0  0  0  0  0  0
    2.7744    3.4343    0.2361 C   0  0  0  0  0  0  0  0  0  0  0  0
  1  6  1  0
  1  9  2  0
  1 10  1  0
  2 10  1  0
  2 11  1  0
  3 10  2  0
  3 14  1  0
  4  5  1  0
  4  6  1  0
  5  7  1  0
  7  8  1  0
  8  9  1  0
 11 12  2  0
 11 15  1  0
 12 13  1  0
 12 16  1  0
 13 14  2  0
 13 17  1  0
 14 18  1  0
 15 19  2  0
 16 20  2  0
 17 21  2  0
 18 22  2  0
 19 20  1  0
 21 22  1  0
M  CHG  1   1   1
M  END
>  <PUBCHEM_COMPOUND_CID>  (1) 
17879

>  <PUBCHEM_CONFORMER_RMSD>  (1) 
0.6

>  <PUBCHEM_CONFORMER_DIVERSEORDER>  (1) 
5
3
9
7
2
4
10
8
1
6

>  <PUBCHEM_MMFF94_PARTIAL_CHARGES>  (1) 
27
1 -0.08
10 0.83
11 0.1
14 0.18
15 -0.15
16 -0.15
17 -0.15
18 -0.15
19 -0.15
2 -0.55
20 -0.15
21 -0.15
22 -0.15
3 -0.63
33 0.06
34 0.4
35 0.15
36 0.15
37 0.15
38 0.15
39 0.15
40 0.15
41 0.15
42 0.15
6 0.35
8 0.06
9 0.28

>  <PUBCHEM_EFFECTIVE_ROTOR_COUNT>  (1) 
2.2

>  <PUBCHEM_PHARMACOPHORE_FEATURES>  (1) 
6
1 2 donor
4 1 2 3 10 cation
6 11 12 15 16 19 20 rings
6 13 14 17 18 21 22 rings
7 1 4 5 6 7 8 9 rings
7 2 3 10 11 12 13 14 rings

>  <PUBCHEM_HEAVY_ATOM_COUNT>  (1) 
22

>  <PUBCHEM_ATOM_DEF_STEREO_COUNT>  (1) 
0

>  <PUBCHEM_ATOM_UDEF_STEREO_COUNT>  (1) 
0

>  <PUBCHEM_BOND_DEF_STEREO_COUNT>  (1) 
0

>  <PUBCHEM_BOND_UDEF_STEREO_COUNT>  (1) 
0

>  <PUBCHEM_ISOTOPIC_ATOM_COUNT>  (1) 
0

>  <PUBCHEM_COMPONENT_COUNT>  (1) 
1

>  <PUBCHEM_CACTVS_TAUTO_COUNT>  (1) 
1

>  <PUBCHEM_CONFORMER_ID>  (1) 
000045D700000005

>  <PUBCHEM_MMFF94_ENERGY>  (1) 
88.3796

>  <PUBCHEM_FEATURE_SELFOVERLAP>  (1) 
30.464

>  <PUBCHEM_SHAPE_FINGERPRINT>  (1) 
10411042 1 17978792311797811982
10967382 1 18410571743584685102
11370993 70 18266454497876869577
114674 6 18261114053884254571
12035758 1 18339067273216386050
12107183 9 17910967842290787889
12553582 1 18050841113799944598
12730499 353 18337402633179557347
12769317 202 18342731965976441512
12788726 201 17469889878836773714
13009979 54 17558839381516986432
13140716 1 18336259145650740970
13533116 47 18343580742646999105
138480 1 18267020562003275206
13955234 65 18412827988320354531
14223421 5 18408038511812774381
14790565 3 18120663679945818476
15536298 74 18411700976296472125
15664445 248 17985846842936604038
15927050 60 18196650920842370646
16087824 20 17474392370510527777
17492 89 18411700976624091347
18785283 64 18334857238297465464
19591789 44 18122625217289241286
20157964 124 18410848864076766893
20645477 70 18409156702189900343
20739085 24 18260828232780526156
21033648 29 17386561350796701269
21065198 57 18410576150532535997
21197605 99 17976547427066168059
21452121 103 18411412925772362858
221490 88 18336272266686360643
22182313 1 17967521355935378189
23559900 14 18338792313077360923
2748010 2 18191600829122478770
3091708 16 9473321271161358754
314173 41 18267872670303196678
3323516 105 18334299734251942099
33824 294 18409448119667702490
3421961 26 18339642231091394250
352729 6 17832425676068318996
42630746 31 18340768229634687647
474 4 18339359772514574865
5104073 3 18335424552317384089
5265222 85 17976550726001854596
59755656 215 18409451413876256084
6287921 2 18261119629025520399
633830 44 18200314449618465973
6442390 28 18194685001776587264
6443956 14 18337676304432812668
7364860 26 18411699867894255366
7808743 9 17616532204453462376
79837 15 17977377566633847530
8272917 22 18413393150197835029
84936 182 18201717396538423648
9709674 26 18335142003472592443
9777508 108 17405700866875005872

>  <PUBCHEM_SHAPE_MULTIPOLES>  (1) 
437.81
9.15
4.28
0.77
12.34
0.88
0
-1.61
0.71
-5.75
0.04
0.18
0.02
1

>  <PUBCHEM_SHAPE_SELFOVERLAP>  (1) 
951.342

>  <PUBCHEM_SHAPE_VOLUME>  (1) 
228.6

>  <PUBCHEM_COORDINATE_TYPE>  (1) 
2
5
10

$$$$
