17872
     RDKit          3D

 50 55  0  0  0  0  0  0  0  0999 V2000
    9.5153   -2.9226   -0.6530 S   0  0  0  0  0  0  0  0  0  0  0  0
   -9.5150   -2.9227    0.6530 S   0  0  0  0  0  0  0  0  0  0  0  0
   10.3284   -3.4542    0.6582 O   0  0  0  0  0  0  0  0  0  0  0  0
  -10.3282   -3.4544   -0.6583 O   0  0  0  0  0  0  0  0  0  0  0  0
   10.4761   -2.6317   -1.7012 O   0  0  0  0  0  0  0  0  0  0  0  0
    8.4131   -3.8407   -0.8785 O   0  0  0  0  0  0  0  0  0  0  0  0
  -10.4759   -2.6318    1.7012 O   0  0  0  0  0  0  0  0  0  0  0  0
   -8.4128   -3.8408    0.8786 O   0  0  0  0  0  0  0  0  0  0  0  0
    3.5281    2.4994    0.2381 O   0  0  0  0  0  0  0  0  0  0  0  0
   -3.5295    2.4994   -0.2380 O   0  0  0  0  0  0  0  0  0  0  0  0
    6.9208    2.1825    1.0065 N   0  0  0  0  0  0  0  0  0  0  0  0
   -6.9206    2.1824   -1.0066 N   0  0  0  0  0  0  0  0  0  0  0  0
    5.4311   -0.1400    0.5453 N   0  0  0  0  0  0  0  0  0  0  0  0
   -5.4309   -0.1401   -0.5454 N   0  0  0  0  0  0  0  0  0  0  0  0
    4.8829    0.1695   -0.5380 N   0  0  0  0  0  0  0  0  0  0  0  0
   -4.8843    0.1694    0.5382 N   0  0  0  0  0  0  0  0  0  0  0  0
    9.6120   -0.2361    0.0600 C   0  0  0  0  0  0  0  0  0  0  0  0
   -9.6117   -0.2362   -0.0600 C   0  0  0  0  0  0  0  0  0  0  0  0
    8.9811    0.9680    0.4539 C   0  0  0  0  0  0  0  0  0  0  0  0
   -8.9809    0.9679   -0.4539 C   0  0  0  0  0  0  0  0  0  0  0  0
    8.8291   -1.3806   -0.1625 C   0  0  0  0  0  0  0  0  0  0  0  0
   -8.8288   -1.3808    0.1625 C   0  0  0  0  0  0  0  0  0  0  0  0
    7.5861    0.9920    0.6137 C   0  0  0  0  0  0  0  0  0  0  0  0
   -7.5858    0.9920   -0.6138 C   0  0  0  0  0  0  0  0  0  0  0  0
    6.8276   -0.1547    0.3881 C   0  0  0  0  0  0  0  0  0  0  0  0
   -6.8237   -0.1547   -0.3886 C   0  0  0  0  0  0  0  0  0  0  0  0
    7.4442   -1.3387    0.0012 C   0  0  0  0  0  0  0  0  0  0  0  0
   -7.4440   -1.3388   -0.0012 C   0  0  0  0  0  0  0  0  0  0  0  0
   11.0070   -0.2602   -0.0999 C   0  0  0  0  0  0  0  0  0  0  0  0
  -11.0068   -0.2603    0.0999 C   0  0  0  0  0  0  0  0  0  0  0  0
    9.7640    2.1126    0.6763 C   0  0  0  0  0  0  0  0  0  0  0  0
   -9.7638    2.1125   -0.6763 C   0  0  0  0  0  0  0  0  0  0  0  0
   11.7692    0.8865    0.1253 C   0  0  0  0  0  0  0  0  0  0  0  0
  -11.7690    0.8864   -0.1254 C   0  0  0  0  0  0  0  0  0  0  0  0
   11.1488    2.0706    0.5126 C   0  0  0  0  0  0  0  0  0  0  0  0
  -11.1486    2.0705   -0.5127 C   0  0  0  0  0  0  0  0  0  0  0  0
    0.7184    0.1845   -0.0786 C   0  0  0  0  0  0  0  0  0  0  0  0
   -0.7198    0.1845    0.0788 C   0  0  0  0  0  0  0  0  0  0  0  0
    3.4917    0.1839   -0.3819 C   0  0  0  0  0  0  0  0  0  0  0  0
   -3.4877    0.1840    0.3815 C   0  0  0  0  0  0  0  0  0  0  0  0
    1.4459    1.3512    0.1563 C   0  0  0  0  0  0  0  0  0  0  0  0
   -1.4474    1.3511   -0.1561 C   0  0  0  0  0  0  0  0  0  0  0  0
    2.8326    1.3509    0.0047 C   0  0  0  0  0  0  0  0  0  0  0  0
   -2.8340    1.3509   -0.0046 C   0  0  0  0  0  0  0  0  0  0  0  0
    1.3774   -0.9825   -0.4651 C   0  0  0  0  0  0  0  0  0  0  0  0
   -1.3789   -0.9825    0.4654 C   0  0  0  0  0  0  0  0  0  0  0  0
    2.7640   -0.9826   -0.6170 C   0  0  0  0  0  0  0  0  0  0  0  0
   -2.7655   -0.9827    0.6171 C   0  0  0  0  0  0  0  0  0  0  0  0
    3.7250    3.3740   -0.8708 C   0  0  0  0  0  0  0  0  0  0  0  0
   -3.7265    3.3740    0.8709 C   0  0  0  0  0  0  0  0  0  0  0  0
  1  3  1  0
  1  5  2  0
  1  6  2  0
  1 21  1  0
  2  4  1  0
  2  7  2  0
  2  8  2  0
  2 22  1  0
  9 43  1  0
  9 49  1  0
 10 44  1  0
 10 50  1  0
 11 23  1  0
 12 24  1  0
 13 15  2  0
 13 25  1  0
 14 16  2  0
 14 26  1  0
 15 39  1  0
 16 40  1  0
 17 19  1  0
 17 21  2  0
 17 29  1  0
 18 20  1  0
 18 22  2  0
 18 30  1  0
 19 23  2  0
 19 31  1  0
 20 24  2  0
 20 32  1  0
 21 27  1  0
 22 28  1  0
 23 25  1  0
 24 26  1  0
 25 27  2  0
 26 28  2  0
 29 33  2  0
 30 34  2  0
 31 35  2  0
 32 36  2  0
 33 35  1  0
 34 36  1  0
 37 38  1  0
 37 41  2  0
 37 45  1  0
 38 42  2  0
 38 46  1  0
 39 43  2  0
 39 47  1  0
 40 44  2  0
 40 48  1  0
 41 43  1  0
 42 44  1  0
 45 47  2  0
 46 48  2  0
M  END
>  <PUBCHEM_COMPOUND_CID>  (1) 
17872

>  <PUBCHEM_CONFORMER_RMSD>  (1) 
1.2

>  <PUBCHEM_CONFORMER_DIVERSEORDER>  (1) 
1
17
8
21
24
6
10
2
9
22
18
23
19
5
13
7
14
12
20
15
16
11
4
3

>  <PUBCHEM_MMFF94_PARTIAL_CHARGES>  (1) 
66
1 1.49
10 -0.36
11 -0.9
12 -0.9
13 -0.18
14 -0.18
15 -0.18
16 -0.18
2 1.49
21 -0.01
22 -0.01
23 0.1
24 0.1
25 0.18
26 0.18
27 -0.15
28 -0.15
29 -0.15
3 -0.68
30 -0.15
31 -0.15
32 -0.15
33 -0.15
34 -0.15
35 -0.15
36 -0.15
39 0.18
4 -0.68
40 0.18
41 -0.15
42 -0.15
43 0.08
44 0.08
45 -0.15
46 -0.15
47 -0.15
48 -0.15
49 0.28
5 -0.65
50 0.28
51 0.15
52 0.15
53 0.15
54 0.15
55 0.15
56 0.15
57 0.15
58 0.15
59 0.15
6 -0.65
60 0.15
61 0.4
62 0.4
63 0.4
64 0.4
65 0.15
66 0.15
67 0.15
68 0.15
69 0.15
7 -0.65
70 0.15
71 0.5
72 0.5
8 -0.65
9 -0.36

>  <PUBCHEM_EFFECTIVE_ROTOR_COUNT>  (1) 
9

>  <PUBCHEM_PHARMACOPHORE_FEATURES>  (1) 
20
1 10 acceptor
1 11 cation
1 11 donor
1 12 cation
1 12 donor
1 3 acceptor
1 4 acceptor
1 5 acceptor
1 6 acceptor
1 7 acceptor
1 8 acceptor
1 9 acceptor
4 1 3 5 6 anion
4 2 4 7 8 anion
6 17 19 21 23 25 27 rings
6 17 19 29 31 33 35 rings
6 18 20 22 24 26 28 rings
6 18 20 30 32 34 36 rings
6 37 39 41 43 45 47 rings
6 38 40 42 44 46 48 rings

>  <PUBCHEM_HEAVY_ATOM_COUNT>  (1) 
50

>  <PUBCHEM_ATOM_DEF_STEREO_COUNT>  (1) 
0

>  <PUBCHEM_ATOM_UDEF_STEREO_COUNT>  (1) 
0

>  <PUBCHEM_BOND_DEF_STEREO_COUNT>  (1) 
0

>  <PUBCHEM_BOND_UDEF_STEREO_COUNT>  (1) 
0

>  <PUBCHEM_ISOTOPIC_ATOM_COUNT>  (1) 
0

>  <PUBCHEM_COMPONENT_COUNT>  (1) 
1

>  <PUBCHEM_CACTVS_TAUTO_COUNT>  (1) 
1

>  <PUBCHEM_CONFORMER_ID>  (1) 
000045D000000001

>  <PUBCHEM_MMFF94_ENERGY>  (1) 
200.0439

>  <PUBCHEM_FEATURE_SELFOVERLAP>  (1) 
101.67

>  <PUBCHEM_SHAPE_FINGERPRINT>  (1) 
10168742 298 18337684035775477094
10580692 12 18413108360492874040
11061554 47 17894625929241555444
11409948 35 18272368625933154926
12013929 2 18409164403593990529
12522641 33 17632295666078464094
12664476 115 17458059370034477333
131240 100 18410573998179038026
13947934 56 18408323293793061484
15061470 23 18409727361203942540
15065858 18 18410854360622042626
15347591 1 17971479751849678340
15510794 2 18410857663446845863
15840311 113 18261393378158600724
16067689 302 18272933783489165390
16728433 110 18411135857870499644
21362267 20 18411698816235416939
21792961 116 18272932710000353857
232437 2 18410855464423161575
3092352 35 16081091498644622393
9937071 3 18131635564876869118

>  <PUBCHEM_SHAPE_MULTIPOLES>  (1) 
959.83
57.82
3.79
0.93
0.03
1.95
0
17.49
0
0
0
0
0.2
4.3

>  <PUBCHEM_SHAPE_SELFOVERLAP>  (1) 
2118.898

>  <PUBCHEM_SHAPE_VOLUME>  (1) 
517.4

>  <PUBCHEM_COORDINATE_TYPE>  (1) 
2
5
10

$$$$
