17875
     RDKit          3D

 26 31  0  0  0  0  0  0  0  0999 V2000
   -3.9408    2.1314   -1.0411 O   0  0  0  0  0  0  0  0  0  0  0  0
    0.6492   -0.9532    0.1082 C   0  0  0  0  0  0  0  0  0  0  0  0
   -0.4294   -0.0289    0.1634 C   0  0  0  0  0  0  0  0  0  0  0  0
    1.9944   -0.5196   -0.0497 C   0  0  0  0  0  0  0  0  0  0  0  0
   -0.0745    1.3754    0.2841 C   0  0  0  0  0  0  0  0  0  0  0  0
    2.3026    0.8574   -0.1334 C   0  0  0  0  0  0  0  0  0  0  0  0
    0.4044   -2.3488    0.2037 C   0  0  0  0  0  0  0  0  0  0  0  0
   -1.7844   -0.5877    0.0905 C   0  0  0  0  0  0  0  0  0  0  0  0
    1.2628    1.8155    0.0615 C   0  0  0  0  0  0  0  0  0  0  0  0
    3.0429   -1.4844   -0.1363 C   0  0  0  0  0  0  0  0  0  0  0  0
   -1.9853   -1.9822    0.2433 C   0  0  0  0  0  0  0  0  0  0  0  0
   -0.8920   -2.8329    0.3332 C   0  0  0  0  0  0  0  0  0  0  0  0
    1.4542   -3.2691    0.1599 C   0  0  0  0  0  0  0  0  0  0  0  0
    2.7603   -2.8427   -0.0186 C   0  0  0  0  0  0  0  0  0  0  0  0
    3.6618    1.2051   -0.3568 C   0  0  0  0  0  0  0  0  0  0  0  0
   -2.9684    0.1462   -0.1976 C   0  0  0  0  0  0  0  0  0  0  0  0
   -0.9983    2.3748    0.6948 C   0  0  0  0  0  0  0  0  0  0  0  0
    4.3655   -1.0875   -0.3401 C   0  0  0  0  0  0  0  0  0  0  0  0
    1.5274    3.2136    0.0862 C   0  0  0  0  0  0  0  0  0  0  0  0
   -3.2738   -2.5482    0.2607 C   0  0  0  0  0  0  0  0  0  0  0  0
    4.6736    0.2542   -0.4619 C   0  0  0  0  0  0  0  0  0  0  0  0
   -0.7030    3.7372    0.7394 C   0  0  0  0  0  0  0  0  0  0  0  0
   -4.2485   -0.4199   -0.1987 C   0  0  0  0  0  0  0  0  0  0  0  0
    0.5603    4.1622    0.4020 C   0  0  0  0  0  0  0  0  0  0  0  0
   -4.4037   -1.7685    0.0574 C   0  0  0  0  0  0  0  0  0  0  0  0
   -2.9572    1.4007   -0.9541 C   0  0  0  0  0  0  0  0  0  0  0  0
  1 26  2  0
  2  3  2  0
  2  4  1  0
  2  7  1  0
  3  5  1  0
  3  8  1  0
  4  6  2  0
  4 10  1  0
  5  9  2  0
  5 17  1  0
  6  9  1  0
  6 15  1  0
  7 12  2  0
  7 13  1  0
  8 11  2  0
  8 16  1  0
  9 19  1  0
 10 14  1  0
 10 18  2  0
 11 12  1  0
 11 20  1  0
 13 14  2  0
 15 21  2  0
 16 23  2  0
 16 26  1  0
 17 22  2  0
 18 21  1  0
 19 24  2  0
 20 25  2  0
 22 24  1  0
 23 25  1  0
M  END
>  <PUBCHEM_COMPOUND_CID>  (1) 
17875

>  <PUBCHEM_CONFORMER_RMSD>  (1) 
0.6

>  <PUBCHEM_CONFORMER_DIVERSEORDER>  (1) 
1

>  <PUBCHEM_MMFF94_PARTIAL_CHARGES>  (1) 
30
1 -0.57
12 -0.15
13 -0.15
14 -0.15
15 -0.15
16 0.09
17 -0.15
18 -0.15
19 -0.15
20 -0.15
21 -0.15
22 -0.15
23 -0.15
24 -0.15
25 -0.15
26 0.42
27 0.15
28 0.15
29 0.15
30 0.15
31 0.15
32 0.15
33 0.15
34 0.15
35 0.15
36 0.15
37 0.15
38 0.15
39 0.15
40 0.06

>  <PUBCHEM_EFFECTIVE_ROTOR_COUNT>  (1) 
1

>  <PUBCHEM_PHARMACOPHORE_FEATURES>  (1) 
7
1 1 acceptor
6 2 3 4 5 6 9 rings
6 2 3 7 8 11 12 rings
6 2 4 7 10 13 14 rings
6 4 6 10 15 18 21 rings
6 5 9 17 19 22 24 rings
6 8 11 16 20 23 25 rings

>  <PUBCHEM_HEAVY_ATOM_COUNT>  (1) 
26

>  <PUBCHEM_ATOM_DEF_STEREO_COUNT>  (1) 
0

>  <PUBCHEM_ATOM_UDEF_STEREO_COUNT>  (1) 
0

>  <PUBCHEM_BOND_DEF_STEREO_COUNT>  (1) 
0

>  <PUBCHEM_BOND_UDEF_STEREO_COUNT>  (1) 
0

>  <PUBCHEM_ISOTOPIC_ATOM_COUNT>  (1) 
0

>  <PUBCHEM_COMPONENT_COUNT>  (1) 
1

>  <PUBCHEM_CACTVS_TAUTO_COUNT>  (1) 
1

>  <PUBCHEM_CONFORMER_ID>  (1) 
000045D300000001

>  <PUBCHEM_MMFF94_ENERGY>  (1) 
128.6765

>  <PUBCHEM_FEATURE_SELFOVERLAP>  (1) 
35.694

>  <PUBCHEM_SHAPE_FINGERPRINT>  (1) 
10411042 1 18411704266221263778
10498660 4 18410578340644194590
10675989 125 17398374344300332269
10967382 1 18410857689448452978
1100329 8 17402895523112053362
11112241 14 16555636455883885208
11513181 2 17554601799279593903
12403259 226 18264768955442123207
12553582 1 18411985728048419194
12788726 201 17983571910049117392
12954195 1 18055372249274805990
13140716 1 18337668611972546314
13402501 40 18337673147331104619
138480 1 14735923223786839048
14178342 30 17977653226752392570
14466204 15 18337099176992664696
14790565 3 18122074349111375096
14866123 147 17330273866550815714
14931854 50 18337388249260191679
15196674 1 18409167697174640414
15927050 60 17477208700924715484
15950262 2 14394143530496289570
16087824 20 18267592299945815145
16945 1 18194972837736993994
19591789 44 18266461103483608715
19930381 70 18122623031462215019
20715895 44 17755005411576796741
20905425 154 18198909115276680246
21197605 99 17547596785726236465
21267235 1 18410584997648766230
221357 26 18410852196559918999
221490 88 18192999446140369803
2334 1 18338799025895135570
23558518 356 18048047272297287578
23559900 14 18268142231045565057
23566358 2 18410857620539332383
238 59 17978472581741763535
2748010 2 18267865175769452576
335352 9 18410577318209902351
350125 39 18336833082489058353
463206 1 18267868457140882223
5265222 85 16896246608396035604
6438718 38 17486202310750327853
6443956 14 18338521944706853028
9709674 26 18049724323624244731

>  <PUBCHEM_SHAPE_MULTIPOLES>  (1) 
529.2
7.37
4.92
0.76
0.93
2.7
0.04
-2.46
1.64
-0.3
-0.86
0.21
0.24
0.51

>  <PUBCHEM_SHAPE_SELFOVERLAP>  (1) 
1251.382

>  <PUBCHEM_SHAPE_VOLUME>  (1) 
264.3

>  <PUBCHEM_COORDINATE_TYPE>  (1) 
2
5
10

$$$$
