17873
     RDKit          3D

 25 30  0  0  0  0  0  0  0  0999 V2000
   -0.4789    0.5035   -0.0001 C   0  0  0  0  0  0  0  0  0  0  0  0
    0.5645    1.4719   -0.0001 C   0  0  0  0  0  0  0  0  0  0  0  0
   -0.1450   -0.8720   -0.0003 C   0  0  0  0  0  0  0  0  0  0  0  0
    1.9290    1.0802    0.0000 C   0  0  0  0  0  0  0  0  0  0  0  0
   -1.8503    0.9207    0.0002 C   0  0  0  0  0  0  0  0  0  0  0  0
    1.2320   -1.2858    0.0000 C   0  0  0  0  0  0  0  0  0  0  0  0
    2.2656   -0.3104    0.0001 C   0  0  0  0  0  0  0  0  0  0  0  0
    0.2331    2.8549   -0.0004 C   0  0  0  0  0  0  0  0  0  0  0  0
   -2.9083   -0.0476    0.0004 C   0  0  0  0  0  0  0  0  0  0  0  0
   -1.2202   -1.7906   -0.0012 C   0  0  0  0  0  0  0  0  0  0  0  0
   -2.5681   -1.4123   -0.0007 C   0  0  0  0  0  0  0  0  0  0  0  0
   -2.1136    2.3045    0.0000 C   0  0  0  0  0  0  0  0  0  0  0  0
   -1.0975    3.2519   -0.0004 C   0  0  0  0  0  0  0  0  0  0  0  0
    2.9007    2.1151    0.0005 C   0  0  0  0  0  0  0  0  0  0  0  0
    3.6126   -0.7691    0.0000 C   0  0  0  0  0  0  0  0  0  0  0  0
    1.6244   -2.6545    0.0003 C   0  0  0  0  0  0  0  0  0  0  0  0
    1.2289    3.8336   -0.0005 C   0  0  0  0  0  0  0  0  0  0  0  0
    3.9549   -2.1191    0.0005 C   0  0  0  0  0  0  0  0  0  0  0  0
    2.5607    3.4651    0.0001 C   0  0  0  0  0  0  0  0  0  0  0  0
   -4.2970    0.2593    0.0014 C   0  0  0  0  0  0  0  0  0  0  0  0
    2.9558   -3.0666    0.0008 C   0  0  0  0  0  0  0  0  0  0  0  0
   -3.5687   -2.4028   -0.0012 C   0  0  0  0  0  0  0  0  0  0  0  0
   -5.2833   -0.7305    0.0013 C   0  0  0  0  0  0  0  0  0  0  0  0
   -4.9179   -2.0657   -0.0005 C   0  0  0  0  0  0  0  0  0  0  0  0
    5.3868   -2.5337   -0.0003 C   0  0  0  0  0  0  0  0  0  0  0  0
  1  2  2  0
  1  3  1  0
  1  5  1  0
  2  4  1  0
  2  8  1  0
  3  6  1  0
  3 10  2  0
  4  7  1  0
  4 14  2  0
  5  9  1  0
  5 12  2  0
  6  7  2  0
  6 16  1  0
  7 15  1  0
  8 13  2  0
  8 17  1  0
  9 11  2  0
  9 20  1  0
 10 11  1  0
 11 22  1  0
 12 13  1  0
 14 19  1  0
 15 18  2  0
 16 21  2  0
 17 19  2  0
 18 21  1  0
 18 25  1  0
 20 23  2  0
 22 24  2  0
 23 24  1  0
M  END
>  <PUBCHEM_COMPOUND_CID>  (1) 
17873

>  <PUBCHEM_CONFORMER_RMSD>  (1) 
0.6

>  <PUBCHEM_CONFORMER_DIVERSEORDER>  (1) 
1

>  <PUBCHEM_MMFF94_PARTIAL_CHARGES>  (1) 
28
10 -0.15
12 -0.15
13 -0.15
14 -0.15
15 -0.15
16 -0.15
17 -0.15
18 -0.14
19 -0.15
20 -0.15
21 -0.15
22 -0.15
23 -0.15
24 -0.15
25 0.14
26 0.15
27 0.15
28 0.15
29 0.15
30 0.15
31 0.15
32 0.15
33 0.15
34 0.15
35 0.15
36 0.15
37 0.15
38 0.15

>  <PUBCHEM_EFFECTIVE_ROTOR_COUNT>  (1) 
0

>  <PUBCHEM_PHARMACOPHORE_FEATURES>  (1) 
6
6 1 2 3 4 6 7 rings
6 1 2 5 8 12 13 rings
6 1 3 5 9 10 11 rings
6 2 4 8 14 17 19 rings
6 6 7 15 16 18 21 rings
6 9 11 20 22 23 24 rings

>  <PUBCHEM_HEAVY_ATOM_COUNT>  (1) 
25

>  <PUBCHEM_ATOM_DEF_STEREO_COUNT>  (1) 
0

>  <PUBCHEM_ATOM_UDEF_STEREO_COUNT>  (1) 
0

>  <PUBCHEM_BOND_DEF_STEREO_COUNT>  (1) 
0

>  <PUBCHEM_BOND_UDEF_STEREO_COUNT>  (1) 
0

>  <PUBCHEM_ISOTOPIC_ATOM_COUNT>  (1) 
0

>  <PUBCHEM_COMPONENT_COUNT>  (1) 
1

>  <PUBCHEM_CACTVS_TAUTO_COUNT>  (1) 
1

>  <PUBCHEM_CONFORMER_ID>  (1) 
000045D100000001

>  <PUBCHEM_MMFF94_ENERGY>  (1) 
102.3041

>  <PUBCHEM_FEATURE_SELFOVERLAP>  (1) 
30.614

>  <PUBCHEM_SHAPE_FINGERPRINT>  (1) 
10319926 262 17763438658122035498
10411042 1 18410575050477992006
10622 236 17700671112288486159
10693767 8 18058457658900718710
10967382 1 18194683897790410276
1100329 8 18195248815256240865
11578080 2 17459167647410598717
11963148 33 17688302808703110995
12107183 9 18270129998620409553
12403259 226 18408599245157019021
12553582 1 18338508630245230594
12788726 201 18044938965742226682
13009979 54 17988657267365207619
13140716 1 18341612547291390464
138480 1 18410856585499523968
14117953 113 18200313217590521767
14223421 5 18409725188061072213
14787075 74 18187091620246909098
14790565 3 17760655067419487965
14866123 147 17979919307062824299
15042514 8 18050284761232664514
15196674 1 18410574037350526119
15352361 1 18410855421505552879
15927050 60 17908707581317598222
16087824 20 18050006593861352349
16728300 4 17681791325165689160
16945 1 18410856529638620836
17492 89 18266740362854105667
18681886 176 18341325656709468898
19591789 44 18410857663446391182
19930381 70 18265893738498953529
20028762 73 17046834599274078175
20101258 96 18265627501892369906
20775438 99 17761723569783736373
20905425 154 18341620325619451980
21049683 271 18189067519476193556
21267235 1 18338806627887509803
21421861 104 18333724745304574793
221490 88 18335988661384759219
22182313 1 18265592373476473780
2334 1 18122625225853094440
23366157 5 18115024233118647628
23419403 2 18115567327517472638
23557571 272 18056763118293260782
23559900 14 18411129251640527641
3091708 16 9212354380805054288
335352 9 18338516327448831829
3421961 26 18411699919449693808
350125 39 18410858741588891852
352729 6 17257085965810538177
3882209 13 17470124143971212403
3886686 26 16750123128103808098
4409770 3 17612304156731002668
484989 97 18262513694591932965
5104073 3 18339929311512279355
59755656 215 18337675346956013540
6443956 14 18408886247756360294
70251023 43 18335423460884416427
7364860 26 18338799030036920580
9709674 26 18263363753944202515
9981440 41 17689992766336630008

>  <PUBCHEM_SHAPE_MULTIPOLES>  (1) 
514.49
8.84
4.85
0.62
3.7
2.98
0
-7.77
0
-3.39
0
0
0
0

>  <PUBCHEM_SHAPE_SELFOVERLAP>  (1) 
1210.813

>  <PUBCHEM_SHAPE_VOLUME>  (1) 
235.5

>  <PUBCHEM_COORDINATE_TYPE>  (1) 
2
5
10

$$$$
