1788
     RDKit          3D

 24 26  0  0  0  0  0  0  0  0999 V2000
   -1.9107    2.6925   -0.8558 Cl  0  0  0  0  0  0  0  0  0  0  0  0
   -0.8276   -0.0648   -1.3641 O   0  0  0  0  0  0  0  0  0  0  0  0
    7.0488   -1.0223   -0.3932 O   0  0  0  0  0  0  0  0  0  0  0  0
   -6.7247   -1.1884    0.5562 O   0  0  0  0  0  0  0  0  0  0  0  0
   -6.8498    1.0886    0.7220 N   0  0  0  0  0  0  0  0  0  0  0  0
    8.2843   -0.3926   -0.4847 N   0  0  0  0  0  0  0  0  0  0  0  0
    2.5263   -0.8654    0.1283 C   0  0  0  0  0  0  0  0  0  0  0  0
    3.9186   -0.2707   -0.0900 C   0  0  0  0  0  0  0  0  0  0  0  0
    1.4798   -0.1596   -0.7313 C   0  0  0  0  0  0  0  0  0  0  0  0
    4.9616   -0.9569    0.7967 C   0  0  0  0  0  0  0  0  0  0  0  0
    0.0985   -0.7734   -0.5521 C   0  0  0  0  0  0  0  0  0  0  0  0
    6.3421   -0.3986    0.5596 C   0  0  0  0  0  0  0  0  0  0  0  0
   -2.1254   -0.0179   -0.9254 C   0  0  0  0  0  0  0  0  0  0  0  0
    7.0210    0.6146    1.1204 C   0  0  0  0  0  0  0  0  0  0  0  0
   -4.7617    0.0165   -0.0366 C   0  0  0  0  0  0  0  0  0  0  0  0
   -6.1547    0.0341    0.4334 C   0  0  0  0  0  0  0  0  0  0  0  0
    8.2442    0.5815    0.4287 C   0  0  0  0  0  0  0  0  0  0  0  0
   -2.7460    1.1969   -0.6536 C   0  0  0  0  0  0  0  0  0  0  0  0
   -2.8125   -1.2159   -0.7565 C   0  0  0  0  0  0  0  0  0  0  0  0
   -4.0677    1.2143   -0.2081 C   0  0  0  0  0  0  0  0  0  0  0  0
   -4.1341   -1.1987   -0.3107 C   0  0  0  0  0  0  0  0  0  0  0  0
   -8.0951   -0.9184    0.8055 C   0  0  0  0  0  0  0  0  0  0  0  0
   -8.1222    0.5390    1.2022 C   0  0  0  0  0  0  0  0  0  0  0  0
    9.4070    1.4655    0.6091 C   0  0  0  0  0  0  0  0  0  0  0  0
  1 18  1  0
  2 11  1  0
  2 13  1  0
  3  6  1  0
  3 12  1  0
  4 16  1  0
  4 22  1  0
  5 16  2  0
  5 23  1  0
  6 17  2  0
  7  8  1  0
  7  9  1  0
  8 10  1  0
  9 11  1  0
 10 12  1  0
 12 14  2  0
 13 18  2  0
 13 19  1  0
 14 17  1  0
 15 16  1  0
 15 20  2  0
 15 21  1  0
 17 24  1  0
 18 20  1  0
 19 21  2  0
 22 23  1  0
M  END
>  <PUBCHEM_COMPOUND_CID>  (1) 
1788

>  <PUBCHEM_CONFORMER_RMSD>  (1) 
1

>  <PUBCHEM_CONFORMER_DIVERSEORDER>  (1) 
1
145
304
121
164
154
40
264
292
21
136
54
106
42
221
4
286
273
23
149
90
33
64
227
133
103
108
309
118
6
283
190
200
52
57
131
279
114
80
96
86
300
101
253
78
250
270
325
179
139
152
281
61
213
223
291
62
183
67
217
311
203
138
56
176
263
306
278
89
248
172
178
126
259
82
194
97
41
233
284
7
55
39
189
237
3
298
302
29
314
319
115
144
261
17
156
151
294
268
171
34
148
215
241
303
98
8
44
275
163
228
165
140
100
113
208
255
249
141
251
45
162
59
76
60
327
16
135
73
258
66
93
102
51
94
310
134
2
271
27
288
49
301
24
242
128
186
111
160
99
71
169
120
12
295
123
18
26
230
92
175
214
166
50
25
180
195
83
236
37
323
265
11
72
125
257
220
244
32
84
229
287
110
53
231
234
218
132
47
170
58
87
119
150
254
158
91
198
74
297
318
193
267
10
225
262
232
15
206
201
235
48
187
197
19
109
280
240
157
307
117
31
199
65
313
207
188
285
224
142
159
320
290
105
222
209
79
289
308
143
321
13
205
28
299
293
211
124
239
22
75
155
276
137
196
77
324
266
174
191
274
116
245
36
70
226
81
43
35
184
104
30
129
316
326
204
269
315
185
272
219
243
46
181
112
246
147
68
9
127
192
305
88
317
130
168
153
282
322
256
5
182
260
210
247
38
252
277
14
146
122
216
238
161
95
328
20
202
177
69
312
173
85
167
63
107
296
212

>  <PUBCHEM_MMFF94_PARTIAL_CHARGES>  (1) 
25
1 -0.18
10 0.18
11 0.28
12 -0.04
13 0.08
14 -0.15
15 0.09
16 0.51
17 0.11
18 0.18
19 -0.15
2 -0.36
20 -0.15
21 -0.15
22 0.28
23 0.25
24 0.18
3 -0.02
35 0.15
36 0.15
4 -0.43
41 0.15
42 0.15
5 -0.7
6 -0.41

>  <PUBCHEM_EFFECTIVE_ROTOR_COUNT>  (1) 
8.6

>  <PUBCHEM_PHARMACOPHORE_FEATURES>  (1) 
6
1 2 acceptor
1 6 acceptor
4 7 8 9 10 hydrophobe
5 3 6 12 14 17 rings
5 4 5 16 22 23 rings
6 13 15 18 19 20 21 rings

>  <PUBCHEM_HEAVY_ATOM_COUNT>  (1) 
24

>  <PUBCHEM_ATOM_DEF_STEREO_COUNT>  (1) 
0

>  <PUBCHEM_ATOM_UDEF_STEREO_COUNT>  (1) 
0

>  <PUBCHEM_BOND_DEF_STEREO_COUNT>  (1) 
0

>  <PUBCHEM_BOND_UDEF_STEREO_COUNT>  (1) 
0

>  <PUBCHEM_ISOTOPIC_ATOM_COUNT>  (1) 
0

>  <PUBCHEM_COMPONENT_COUNT>  (1) 
1

>  <PUBCHEM_CACTVS_TAUTO_COUNT>  (1) 
1

>  <PUBCHEM_CONFORMER_ID>  (1) 
000006FC00000001

>  <PUBCHEM_MMFF94_ENERGY>  (1) 
47.1983

>  <PUBCHEM_FEATURE_SELFOVERLAP>  (1) 
30.446

>  <PUBCHEM_SHAPE_FINGERPRINT>  (1) 
10 15 18343301461454545419
10066227 49 11530750493099385472
10165383 225 17418374688642810431
10299344 5 18113620088383089610
10369192 42 17275101721651349877
106641 1 18259704514410530058
11315181 36 17894910716154398445
11638347 137 16660354863158608154
11719270 70 11097850784107709792
12082328 90 13190328072334530191
12643181 29 13912328997353251641
13073987 5 18041553625606850130
13177829 20 18260266352210008258
13885169 127 11314300642318256127
14117953 113 11815897859904852400
14150022 121 18201723903910197609
14251764 18 18040716965487167370
14251764 46 15430035457258310467
14617042 71 18271242846370332264
14849402 71 18188772868384727484
14933364 13 18272929428244217980
15183329 4 11167944667141008806
155225 1 16200439040500946843
15690457 1 13406791130239736760
15706992 2 17632023025780343778
18335252 98 18334857200154534338
2026 5 12901812892917684352
20721686 146 16916234244251935225
21095086 128 17313101918193442258
21095123 145 16343418501516073143
21095123 293 16988848280333648656
21150785 3 12035448345933890810
21315763 28 11674874490369325934
21360443 120 11815903353163444181
21585482 111 15625678094245196395
21795232 338 18129096895581500155
22224240 67 17967813847176460450
23576562 1 12534758562640666755
28498 318 10807939271729890216
3711267 37 17561090237092683368
5758199 1 18408039611382768858
59521270 166 11599734964668711682
59682541 35 18260551142616700226
5969126 39 14562524077109636471
59755656 520 15913319195707980535
6201320 82 13397814653372031235
636775 72 17774728542294863137
6394761 36 14405185071333838410
9953998 17 18412263952384018923
9962374 69 16516252958456918047

>  <PUBCHEM_SHAPE_MULTIPOLES>  (1) 
468.21
31.37
1.61
1.08
37.35
0.9
0.03
2.01
12.89
-0.83
-0.21
-0.45
0.08
0.67

>  <PUBCHEM_SHAPE_SELFOVERLAP>  (1) 
977.659

>  <PUBCHEM_SHAPE_VOLUME>  (1) 
267.2

>  <PUBCHEM_COORDINATE_TYPE>  (1) 
2
5
10

$$$$
