17909
     RDKit          3D

 11 11  0  0  0  0  0  0  0  0999 V2000
    2.5455    0.4069    1.7528 Cl  0  0  0  0  0  0  0  0  0  0  0  0
   -3.1969    1.7390    0.0410 Cl  0  0  0  0  0  0  0  0  0  0  0  0
    2.0032    0.2378   -0.2138 S   0  0  0  0  0  0  0  0  0  0  0  0
    2.1296    1.5667   -0.7825 O   0  0  0  0  0  0  0  0  0  0  0  0
    2.7628   -0.8912   -0.7181 O   0  0  0  0  0  0  0  0  0  0  0  0
    0.3112   -0.1780   -0.1019 C   0  0  0  0  0  0  0  0  0  0  0  0
   -0.6540    0.8287   -0.0788 C   0  0  0  0  0  0  0  0  0  0  0  0
   -0.0756   -1.5166   -0.0363 C   0  0  0  0  0  0  0  0  0  0  0  0
   -2.0059    0.4969    0.0098 C   0  0  0  0  0  0  0  0  0  0  0  0
   -1.4274   -1.8485    0.0524 C   0  0  0  0  0  0  0  0  0  0  0  0
   -2.3926   -0.8417    0.0753 C   0  0  0  0  0  0  0  0  0  0  0  0
  1  3  1  0
  2  9  1  0
  3  4  2  0
  3  5  2  0
  3  6  1  0
  6  7  2  0
  6  8  1  0
  7  9  1  0
  8 10  2  0
  9 11  2  0
 10 11  1  0
M  END
>  <PUBCHEM_COMPOUND_CID>  (1) 
17909

>  <PUBCHEM_CONFORMER_RMSD>  (1) 
0.4

>  <PUBCHEM_CONFORMER_DIVERSEORDER>  (1) 
2
1

>  <PUBCHEM_MMFF94_PARTIAL_CHARGES>  (1) 
15
1 -0.19
10 -0.15
11 -0.15
12 0.15
13 0.15
14 0.15
15 0.15
2 -0.18
3 1.49
4 -0.65
5 -0.65
6 -0.01
7 -0.15
8 -0.15
9 0.18

>  <PUBCHEM_EFFECTIVE_ROTOR_COUNT>  (1) 
1

>  <PUBCHEM_PHARMACOPHORE_FEATURES>  (1) 
1
6 6 7 8 9 10 11 rings

>  <PUBCHEM_HEAVY_ATOM_COUNT>  (1) 
11

>  <PUBCHEM_ATOM_DEF_STEREO_COUNT>  (1) 
0

>  <PUBCHEM_ATOM_UDEF_STEREO_COUNT>  (1) 
0

>  <PUBCHEM_BOND_DEF_STEREO_COUNT>  (1) 
0

>  <PUBCHEM_BOND_UDEF_STEREO_COUNT>  (1) 
0

>  <PUBCHEM_ISOTOPIC_ATOM_COUNT>  (1) 
0

>  <PUBCHEM_COMPONENT_COUNT>  (1) 
1

>  <PUBCHEM_CACTVS_TAUTO_COUNT>  (1) 
1

>  <PUBCHEM_CONFORMER_ID>  (1) 
000045F500000002

>  <PUBCHEM_MMFF94_ENERGY>  (1) 
14.492

>  <PUBCHEM_FEATURE_SELFOVERLAP>  (1) 
5.074

>  <PUBCHEM_SHAPE_FINGERPRINT>  (1) 
10857977 72 18197774607870222067
12423570 1 9176349588163206754
12716758 59 18343019986646523027
12932741 1 17632581582087761472
12932764 1 17417535825072646206
13380535 76 18337671902349887951
14325111 11 18410299103113226221
14648413 74 18337685186509615796
15775835 57 17967820431123668884
16945 1 18261107461314786799
18186145 218 18200030621400421357
19973954 147 18337961193634204076
20645464 45 18059845194987147370
20653085 51 18335998501080662945
21028194 46 18201440246677668841
21040471 1 18411136909546175695
23235685 24 18337672997218362877
23552423 10 18261396693002583566
23559900 14 18200879479411860830
2748010 2 18340212903580792639
3248919 1 18337382837601339526
369184 2 17131834304211166059
5084963 1 18343591736856051938
53812653 166 18269554935930707179
81228 2 18267298923287101403

>  <PUBCHEM_SHAPE_MULTIPOLES>  (1) 
222.23
4.69
1.84
1
0.07
0.22
-0.36
-1.64
-0.4
-0.98
0.11
0.95
-0.19
0.14

>  <PUBCHEM_SHAPE_SELFOVERLAP>  (1) 
429.952

>  <PUBCHEM_SHAPE_VOLUME>  (1) 
137.1

>  <PUBCHEM_COORDINATE_TYPE>  (1) 
2
5
10

$$$$
