17926
     RDKit          3D

 17 18  0  0  0  0  0  0  0  0999 V2000
    6.1234   -1.0178    0.9970 Cl  0  0  0  0  0  0  0  0  0  0  0  0
    0.3550    0.4443   -1.9713 O   0  0  0  0  0  0  0  0  0  0  0  0
   -3.5358   -0.1844   -0.1346 N   0  0  0  0  0  0  0  0  0  0  0  0
   -4.0280   -1.5479    0.0601 C   0  0  0  0  0  0  0  0  0  0  0  0
   -4.3281    0.6392    0.7783 C   0  0  0  0  0  0  0  0  0  0  0  0
   -5.5356   -1.3585    0.1402 C   0  0  0  0  0  0  0  0  0  0  0  0
   -5.7329    0.0799    0.6087 C   0  0  0  0  0  0  0  0  0  0  0  0
   -2.1061   -0.0691    0.1121 C   0  0  0  0  0  0  0  0  0  0  0  0
   -1.6432    1.3698   -0.1249 C   0  0  0  0  0  0  0  0  0  0  0  0
   -0.1416    1.5445    0.1186 C   0  0  0  0  0  0  0  0  0  0  0  0
    0.7238    0.7334   -0.8354 C   0  0  0  0  0  0  0  0  0  0  0  0
    2.0733    0.2953   -0.3780 C   0  0  0  0  0  0  0  0  0  0  0  0
    2.7495    1.0792    0.5299 C   0  0  0  0  0  0  0  0  0  0  0  0
    2.5936   -0.8770   -0.8791 C   0  0  0  0  0  0  0  0  0  0  0  0
    4.0118    0.6695    0.9591 C   0  0  0  0  0  0  0  0  0  0  0  0
    3.8559   -1.2868   -0.4500 C   0  0  0  0  0  0  0  0  0  0  0  0
    4.5651   -0.5134    0.4691 C   0  0  0  0  0  0  0  0  0  0  0  0
  1 17  1  0
  2 11  2  0
  3  4  1  0
  3  5  1  0
  3  8  1  0
  4  6  1  0
  5  7  1  0
  6  7  1  0
  8  9  1  0
  9 10  1  0
 10 11  1  0
 11 12  1  0
 12 13  2  0
 12 14  1  0
 13 15  1  0
 14 16  2  0
 15 17  2  0
 16 17  1  0
M  END
>  <PUBCHEM_COMPOUND_CID>  (1) 
17926

>  <PUBCHEM_CONFORMER_RMSD>  (1) 
0.8

>  <PUBCHEM_CONFORMER_DIVERSEORDER>  (1) 
1
20
32
2
39
24
40
28
41
36
19
6
21
34
16
35
27
38
23
17
14
37
30
5
4
22
10
15
18
9
33
12
29
31
13
11
3
7
26
25
8

>  <PUBCHEM_MMFF94_PARTIAL_CHARGES>  (1) 
18
1 -0.18
10 0.06
11 0.42
12 0.09
13 -0.15
14 -0.15
15 -0.15
16 -0.15
17 0.18
2 -0.57
3 -0.81
32 0.15
33 0.15
34 0.15
35 0.15
4 0.27
5 0.27
8 0.27

>  <PUBCHEM_EFFECTIVE_ROTOR_COUNT>  (1) 
6

>  <PUBCHEM_PHARMACOPHORE_FEATURES>  (1) 
4
1 2 acceptor
1 3 cation
5 3 4 5 6 7 rings
6 12 13 14 15 16 17 rings

>  <PUBCHEM_HEAVY_ATOM_COUNT>  (1) 
17

>  <PUBCHEM_ATOM_DEF_STEREO_COUNT>  (1) 
0

>  <PUBCHEM_ATOM_UDEF_STEREO_COUNT>  (1) 
0

>  <PUBCHEM_BOND_DEF_STEREO_COUNT>  (1) 
0

>  <PUBCHEM_BOND_UDEF_STEREO_COUNT>  (1) 
0

>  <PUBCHEM_ISOTOPIC_ATOM_COUNT>  (1) 
0

>  <PUBCHEM_COMPONENT_COUNT>  (1) 
1

>  <PUBCHEM_CACTVS_TAUTO_COUNT>  (1) 
2

>  <PUBCHEM_CONFORMER_ID>  (1) 
0000460600000001

>  <PUBCHEM_MMFF94_ENERGY>  (1) 
30.7974

>  <PUBCHEM_FEATURE_SELFOVERLAP>  (1) 
20.297

>  <PUBCHEM_SHAPE_FINGERPRINT>  (1) 
10354089 29 16702019777681316410
10447042 23 16153422844796366058
10670039 82 9151184142210512779
10753850 27 17240478096234314674
11045977 3 17989204871279160571
12251169 10 17561362889620536916
12507560 40 17632016330348582132
12596602 18 15697999647782313959
12670543 26 11314305019353569856
12670546 177 12396300369999617737
12916748 109 9511462229959323149
13668630 136 16008753493595093075
1420 369 18333734610897291539
14251752 14 16226317123874539063
14252887 29 17703519817538434982
14341114 176 17632581530838278298
14341114 328 16773800332768679730
14848160 23 18409442600982854195
15183329 4 14129050401119224383
15188451 53 18341044224935235895
15475509 35 17969483954521956674
15788980 27 18040436598923021525
15880784 105 18342459269986392867
15885798 251 18408044013529003261
1813 80 17821452356491286365
18222031 100 17385439925760093972
193927 3 17967827032382706387
19784866 140 15140675869616602949
19784866 240 17240486883563335078
200 152 15502373396754520580
20281389 69 12319734752782060306
20369508 70 15791730840822873956
20374829 77 18260547823028875705
204376 136 14908183053749800261
20645477 56 10015576216418975549
20645477 70 14418136193106755336
20871999 31 13695860402928524535
21065199 12 17917714543731822704
212847 35 10591767567262475156
21637258 2 17821720629139331826
22224240 67 16415473861516768791
23253445 4 17704070711407957905
23402539 116 16081367406214946308
23559900 14 18261393411668811304
23590187 198 18187365450244772787
26918003 58 18273494563666229529
2767999 5 13254794633540317227
2838139 119 10231751180608482034
2916195 48 11383821680315963538
29717793 49 16008750174081257750
3009799 131 13334739033928733166
3472631 163 12103551009726698858
351380 3 17748825215509362899
3545911 37 8430310247127707345
42 15 18412548717031124821
4325135 7 17967535692905386092
465052 167 18411139139098458470
474 4 12679456504036177491
4990 188 12107781917395808337
5104073 3 18199761396102657529
5374978 207 18060703887672185408
559249 180 18261109665382089547
5924683 9 17560513028011148295
59755656 520 13542458757125489748
960060 61 15285360630316502518

>  <PUBCHEM_SHAPE_MULTIPOLES>  (1) 
340.87
14.31
1.52
1.1
5.27
0.09
-0.27
6.22
5.27
0.27
0.03
-0.67
-0.05
-0.01

>  <PUBCHEM_SHAPE_SELFOVERLAP>  (1) 
696.277

>  <PUBCHEM_SHAPE_VOLUME>  (1) 
199

>  <PUBCHEM_COORDINATE_TYPE>  (1) 
2
5
10

$$$$
