17933
     RDKit          3D

 27 29  0  0  0  0  0  0  0  0999 V2000
    0.4493    0.9132   -0.1992 O   0  0  0  0  0  0  0  0  0  0  0  0
   -1.6585    0.5195   -1.7996 O   0  0  0  0  0  0  0  0  0  0  0  0
   -1.1442    2.1124    0.9458 O   0  0  0  0  0  0  0  0  0  0  0  0
    5.5314    0.3126    0.2567 N   0  0  0  0  0  0  0  0  0  0  0  0
    2.8086    1.2886   -0.2207 C   0  0  0  0  0  0  0  0  0  0  0  0
    3.9407    2.2072    0.2511 C   0  0  0  0  0  0  0  0  0  0  0  0
    3.1025   -0.1547    0.2024 C   0  0  0  0  0  0  0  0  0  0  0  0
    5.3054    1.6882   -0.2063 C   0  0  0  0  0  0  0  0  0  0  0  0
    4.4951   -0.5955   -0.2528 C   0  0  0  0  0  0  0  0  0  0  0  0
    1.4607    1.7557    0.3219 C   0  0  0  0  0  0  0  0  0  0  0  0
    6.8599   -0.1508   -0.1437 C   0  0  0  0  0  0  0  0  0  0  0  0
    7.1567   -1.5269    0.4277 C   0  0  0  0  0  0  0  0  0  0  0  0
   -1.8275    0.1898   -0.4057 C   0  0  0  0  0  0  0  0  0  0  0  0
   -0.8402    1.1956    0.1919 C   0  0  0  0  0  0  0  0  0  0  0  0
   -3.2803    0.4159    0.0195 C   0  0  0  0  0  0  0  0  0  0  0  0
   -1.4084   -1.2625   -0.1662 C   0  0  0  0  0  0  0  0  0  0  0  0
   -3.5344    0.8035    1.3148 C   0  0  0  0  0  0  0  0  0  0  0  0
   -1.5990   -2.1779   -1.1758 C   0  0  0  0  0  0  0  0  0  0  0  0
   -4.2761    0.2232   -0.9101 C   0  0  0  0  0  0  0  0  0  0  0  0
   -0.8570   -1.5972    1.0491 C   0  0  0  0  0  0  0  0  0  0  0  0
   -1.9883    1.8733   -2.0374 C   0  0  0  0  0  0  0  0  0  0  0  0
   -4.8584    1.0098    1.7024 C   0  0  0  0  0  0  0  0  0  0  0  0
   -1.2170   -3.5016   -0.9576 C   0  0  0  0  0  0  0  0  0  0  0  0
   -5.6001    0.4296   -0.5225 C   0  0  0  0  0  0  0  0  0  0  0  0
   -0.4748   -2.9209    1.2669 C   0  0  0  0  0  0  0  0  0  0  0  0
   -5.8912    0.8229    0.7839 C   0  0  0  0  0  0  0  0  0  0  0  0
   -0.6549   -3.8731    0.2635 C   0  0  0  0  0  0  0  0  0  0  0  0
  1 10  1  0
  1 14  1  0
  2 13  1  0
  2 21  1  0
  3 14  2  0
  4  8  1  0
  4  9  1  0
  4 11  1  0
  5  6  1  0
  5  7  1  0
  5 10  1  0
  6  8  1  0
  7  9  1  0
 11 12  1  0
 13 14  1  0
 13 15  1  0
 13 16  1  0
 15 17  2  0
 15 19  1  0
 16 18  2  0
 16 20  1  0
 17 22  1  0
 18 23  1  0
 19 24  2  0
 20 25  2  0
 22 26  2  0
 23 27  2  0
 24 26  1  0
 25 27  1  0
M  END
>  <PUBCHEM_COMPOUND_CID>  (1) 
17933

>  <PUBCHEM_CONFORMER_RMSD>  (1) 
1

>  <PUBCHEM_CONFORMER_DIVERSEORDER>  (1) 
1
63
37
13
34
36
70
68
38
9
4
61
15
49
6
11
39
8
30
40
59
67
27
22
7
20
14
54
19
73
16
62
58
72
50
12
60
24
42
35
52
64
51
69
55
25
44
23
65
47
29
46
43
2
5
17
48
10
32
31
3
71
21
18
26
45
57
66
53
56
33
28
41

>  <PUBCHEM_MMFF94_PARTIAL_CHARGES>  (1) 
33
1 -0.43
10 0.28
11 0.27
13 0.63
14 0.66
15 -0.14
16 -0.14
17 -0.15
18 -0.15
19 -0.15
2 -0.56
20 -0.15
21 0.28
22 -0.15
23 -0.15
24 -0.15
25 -0.15
26 -0.15
27 -0.15
3 -0.57
4 -0.81
44 0.15
45 0.15
46 0.15
47 0.15
51 0.15
52 0.15
53 0.15
54 0.15
55 0.15
56 0.15
8 0.27
9 0.27

>  <PUBCHEM_EFFECTIVE_ROTOR_COUNT>  (1) 
9.2

>  <PUBCHEM_PHARMACOPHORE_FEATURES>  (1) 
6
1 2 acceptor
1 3 acceptor
1 4 cation
6 15 17 19 22 24 26 rings
6 16 18 20 23 25 27 rings
6 4 5 6 7 8 9 rings

>  <PUBCHEM_HEAVY_ATOM_COUNT>  (1) 
27

>  <PUBCHEM_ATOM_DEF_STEREO_COUNT>  (1) 
0

>  <PUBCHEM_ATOM_UDEF_STEREO_COUNT>  (1) 
0

>  <PUBCHEM_BOND_DEF_STEREO_COUNT>  (1) 
0

>  <PUBCHEM_BOND_UDEF_STEREO_COUNT>  (1) 
0

>  <PUBCHEM_ISOTOPIC_ATOM_COUNT>  (1) 
0

>  <PUBCHEM_COMPONENT_COUNT>  (1) 
1

>  <PUBCHEM_CACTVS_TAUTO_COUNT>  (1) 
1

>  <PUBCHEM_CONFORMER_ID>  (1) 
0000460D00000001

>  <PUBCHEM_MMFF94_ENERGY>  (1) 
79.4767

>  <PUBCHEM_FEATURE_SELFOVERLAP>  (1) 
30.447

>  <PUBCHEM_SHAPE_FINGERPRINT>  (1) 
10906281 52 17987536912419795332
11036077 3 18411140225456230459
11405975 8 18341612685378930576
11524674 6 18341895190404162495
12236239 1 17989207057428557241
12549972 3 17701530947059070234
12633257 1 18411416220228537046
12643181 29 18411140251853859670
12788726 201 17703523124748266504
13135754 10 17388836445811445155
14617045 38 18261116253693155402
14790565 3 18341055129467063865
14840074 17 18040998448900591685
14866123 147 18339643468322401435
15183329 4 18413390921805971690
15361156 5 18261401108830077996
15537594 2 17967809449556886106
15849732 13 17822012025131871877
19141452 34 18337390547315809076
19319366 153 17821728321753333354
19930381 70 17984146958946881230
20197701 30 18410293623230724723
21033648 29 18263063509507234324
21033650 10 16986628349283145080
21403212 168 18341615867780826753
21639891 77 13757493622335326711
23352939 185 11602539836053157503
23559900 14 18270954778159606928
23569917 315 18412268363247659463
249057 3 18408044022741118348
3178227 256 18339094752285588945
335352 9 18411419518874151350
3383291 50 18342458161985830074
3411729 13 18267593399451401609
3633792 109 18340760469109397125
3729539 64 18337947883852475994
38695281 34 18342458093793256687
4015057 19 17916854854688816392
4073 2 18195806487354030760
469060 322 16081924996044342651
5104073 3 18268422607365190832
5265222 85 18259991496257981692
58260988 521 18041012734579198315
59755656 520 18411697699199703663
6138700 20 18411700954547530379
6669772 16 18339925913798223462
70251023 43 17475789231102767315
7226269 152 17989490705711441737
9709674 26 18193832872170719140

>  <PUBCHEM_SHAPE_MULTIPOLES>  (1) 
533.06
14.29
3.37
1.35
20.07
3.75
0.2
-3.77
-1.9
-0.08
0.02
-1.69
-0.12
-0.55

>  <PUBCHEM_SHAPE_SELFOVERLAP>  (1) 
1131.588

>  <PUBCHEM_SHAPE_VOLUME>  (1) 
296.3

>  <PUBCHEM_COORDINATE_TYPE>  (1) 
2
5
10

$$$$
