17937
     RDKit          3D

 20 21  0  0  0  0  0  0  0  0999 V2000
    7.0113    0.0650   -0.2544 Cl  0  0  0  0  0  0  0  0  0  0  0  0
   -6.0279    1.1822   -0.2257 O   0  0  0  0  0  0  0  0  0  0  0  0
   -6.0332   -0.9667   -0.6946 O   0  0  0  0  0  0  0  0  0  0  0  0
   -5.4335    0.0884   -0.3784 N   0  0  0  0  0  0  0  0  0  0  0  0
    1.0673   -0.6129    2.7616 N   0  0  0  0  0  0  0  0  0  0  0  0
   -1.2857   -0.0457    0.1866 C   0  0  0  0  0  0  0  0  0  0  0  0
    0.1759   -0.0930    0.3861 C   0  0  0  0  0  0  0  0  0  0  0  0
    2.5093    0.1146   -0.5317 C   0  0  0  0  0  0  0  0  0  0  0  0
    1.0578    0.1307   -0.6212 C   0  0  0  0  0  0  0  0  0  0  0  0
   -1.9520    1.1562    0.3525 C   0  0  0  0  0  0  0  0  0  0  0  0
   -1.9583   -1.2043   -0.1618 C   0  0  0  0  0  0  0  0  0  0  0  0
   -4.0273    0.0430   -0.1868 C   0  0  0  0  0  0  0  0  0  0  0  0
   -3.3334    1.2009    0.1645 C   0  0  0  0  0  0  0  0  0  0  0  0
   -3.3397   -1.1596   -0.3502 C   0  0  0  0  0  0  0  0  0  0  0  0
    3.2032    1.2888   -0.2391 C   0  0  0  0  0  0  0  0  0  0  0  0
    3.2078   -1.0749   -0.7382 C   0  0  0  0  0  0  0  0  0  0  0  0
    4.5954    1.2736   -0.1534 C   0  0  0  0  0  0  0  0  0  0  0  0
    4.5999   -1.0904   -0.6523 C   0  0  0  0  0  0  0  0  0  0  0  0
    5.2937    0.0840   -0.3601 C   0  0  0  0  0  0  0  0  0  0  0  0
    0.6694   -0.3799    1.6966 C   0  0  0  0  0  0  0  0  0  0  0  0
  1 19  1  0
  2  4  1  0
  3  4  2  0
  4 12  1  0
  5 20  3  0
  6  7  1  0
  6 10  2  0
  6 11  1  0
  7  9  2  0
  7 20  1  0
  8  9  1  0
  8 15  2  0
  8 16  1  0
 10 13  1  0
 11 14  2  0
 12 13  2  0
 12 14  1  0
 15 17  1  0
 16 18  2  0
 17 19  2  0
 18 19  1  0
M  CHG  2   2  -1   4   1
M  END
>  <PUBCHEM_COMPOUND_CID>  (1) 
17937

>  <PUBCHEM_CONFORMER_RMSD>  (1) 
0.6

>  <PUBCHEM_CONFORMER_DIVERSEORDER>  (1) 
1
2
4
3

>  <PUBCHEM_MMFF94_PARTIAL_CHARGES>  (1) 
29
1 -0.18
10 -0.15
11 -0.15
12 0.13
13 -0.15
14 -0.15
15 -0.15
16 -0.15
17 -0.15
18 -0.15
19 0.18
2 -0.52
20 0.49
21 0.15
22 0.15
23 0.15
24 0.15
25 0.15
26 0.15
27 0.15
28 0.15
29 0.15
3 -0.52
4 0.91
5 -0.56
6 0.03
7 0.04
8 0.03
9 -0.18

>  <PUBCHEM_EFFECTIVE_ROTOR_COUNT>  (1) 
3

>  <PUBCHEM_PHARMACOPHORE_FEATURES>  (1) 
6
1 2 acceptor
1 2 anion
1 3 acceptor
1 5 acceptor
6 6 10 11 12 13 14 rings
6 8 15 16 17 18 19 rings

>  <PUBCHEM_HEAVY_ATOM_COUNT>  (1) 
20

>  <PUBCHEM_ATOM_DEF_STEREO_COUNT>  (1) 
0

>  <PUBCHEM_ATOM_UDEF_STEREO_COUNT>  (1) 
0

>  <PUBCHEM_BOND_DEF_STEREO_COUNT>  (1) 
0

>  <PUBCHEM_BOND_UDEF_STEREO_COUNT>  (1) 
1

>  <PUBCHEM_ISOTOPIC_ATOM_COUNT>  (1) 
0

>  <PUBCHEM_COMPONENT_COUNT>  (1) 
1

>  <PUBCHEM_CACTVS_TAUTO_COUNT>  (1) 
1

>  <PUBCHEM_CONFORMER_ID>  (1) 
0000461100000001

>  <PUBCHEM_MMFF94_ENERGY>  (1) 
61.9957

>  <PUBCHEM_FEATURE_SELFOVERLAP>  (1) 
30.526

>  <PUBCHEM_SHAPE_FINGERPRINT>  (1) 
10354089 29 11241969291960650582
10595046 47 18343866619015836820
10968037 39 18202003235375473391
11287383 113 18413110584304582526
11315181 36 17846785121601442408
11370993 70 18342460344061026206
11796584 16 17988926682243095158
12107183 9 17621889686327561970
12236239 1 18113897152349032179
12516196 113 15051733088390383834
12916748 109 18334300859475111017
13533116 47 17603576393007846458
13668630 136 16845580820201910748
14251764 18 18259703402863261404
15183329 4 18343585105621784185
1813 80 13614530666383828168
18186145 218 17385722538792257836
18222031 100 14117518740209770306
200 152 17346884429571849550
20645477 70 18130231458753487734
20681677 155 18334011705466400363
21054139 6 17095804438252138011
21267235 1 18342466953624778279
22224240 67 15140965079876763289
23402539 116 18412542132461125583
23536379 177 18341896276993555790
23557571 272 18059862731333783564
23559900 14 18131062766272923808
23622692 88 12463567383422709953
29717793 49 17846788390730963988
3004659 81 18272937090234162038
314173 85 13973692736397703538
34797466 226 17418103152183629548
351380 180 18408324402015949772
3545911 37 18413390938621961124
4073 2 18187369887057077746
4214541 1 18342179955330895292
42630746 31 16588298359293520946
474 4 17749677393029699756
542803 24 16587745343293278956
59755656 215 17894348848269205726
59755656 520 17240199958278894715
633830 44 17603867861756223966
67856867 119 18340486793782727004
7495541 125 17274819198633722009
8863177 126 16557330752000232343

>  <PUBCHEM_SHAPE_MULTIPOLES>  (1) 
391.76
15
1.31
1.21
0.15
0.03
-1.15
0.28
4.42
0.26
0.17
-0.4
-0.08
-0.04

>  <PUBCHEM_SHAPE_SELFOVERLAP>  (1) 
837.752

>  <PUBCHEM_SHAPE_VOLUME>  (1) 
217.9

>  <PUBCHEM_COORDINATE_TYPE>  (1) 
2
5
10

$$$$
