17935
     RDKit          3D

 27 29  0  0  0  0  0  0  0  0999 V2000
    0.8069    0.7491    0.0525 O   0  0  0  0  0  0  0  0  0  0  0  0
   -1.3230    0.6655   -1.5648 O   0  0  0  0  0  0  0  0  0  0  0  0
   -0.7372    1.8189    1.3789 O   0  0  0  0  0  0  0  0  0  0  0  0
    5.8680   -0.0809    0.3586 N   0  0  0  0  0  0  0  0  0  0  0  0
    3.1775    1.0449    0.0601 C   0  0  0  0  0  0  0  0  0  0  0  0
    4.3436    1.8458    0.6492 C   0  0  0  0  0  0  0  0  0  0  0  0
    3.4240   -0.4539    0.2633 C   0  0  0  0  0  0  0  0  0  0  0  0
    5.6868    1.3548    0.1052 C   0  0  0  0  0  0  0  0  0  0  0  0
    4.7979   -0.8690   -0.2673 C   0  0  0  0  0  0  0  0  0  0  0  0
    1.8500    1.4716    0.6804 C   0  0  0  0  0  0  0  0  0  0  0  0
    7.1772   -0.5241   -0.1203 C   0  0  0  0  0  0  0  0  0  0  0  0
   -1.4947    0.1400   -0.2327 C   0  0  0  0  0  0  0  0  0  0  0  0
   -0.4696    1.0134    0.4952 C   0  0  0  0  0  0  0  0  0  0  0  0
   -2.9363    0.3492    0.2373 C   0  0  0  0  0  0  0  0  0  0  0  0
   -1.1247   -1.3448   -0.2139 C   0  0  0  0  0  0  0  0  0  0  0  0
   -3.1688    0.5501    1.5782 C   0  0  0  0  0  0  0  0  0  0  0  0
   -1.3528   -2.0947   -1.3448 C   0  0  0  0  0  0  0  0  0  0  0  0
   -3.9438    0.3288   -0.6995 C   0  0  0  0  0  0  0  0  0  0  0  0
   -0.5775   -1.8729    0.9328 C   0  0  0  0  0  0  0  0  0  0  0  0
   -1.6073    2.0499   -1.5974 C   0  0  0  0  0  0  0  0  0  0  0  0
   -4.4825    0.7411    2.0066 C   0  0  0  0  0  0  0  0  0  0  0  0
   -1.0154   -3.4480   -1.3279 C   0  0  0  0  0  0  0  0  0  0  0  0
   -5.2574    0.5198   -0.2709 C   0  0  0  0  0  0  0  0  0  0  0  0
   -0.2400   -3.2263    0.9495 C   0  0  0  0  0  0  0  0  0  0  0  0
   -1.4152    2.5595   -3.0099 C   0  0  0  0  0  0  0  0  0  0  0  0
   -5.5267    0.7259    1.0821 C   0  0  0  0  0  0  0  0  0  0  0  0
   -0.4590   -4.0137   -0.1808 C   0  0  0  0  0  0  0  0  0  0  0  0
  1 10  1  0
  1 13  1  0
  2 12  1  0
  2 20  1  0
  3 13  2  0
  4  8  1  0
  4  9  1  0
  4 11  1  0
  5  6  1  0
  5  7  1  0
  5 10  1  0
  6  8  1  0
  7  9  1  0
 12 13  1  0
 12 14  1  0
 12 15  1  0
 14 16  2  0
 14 18  1  0
 15 17  2  0
 15 19  1  0
 16 21  1  0
 17 22  1  0
 18 23  2  0
 19 24  2  0
 20 25  1  0
 21 26  2  0
 22 27  2  0
 23 26  1  0
 24 27  1  0
M  END
>  <PUBCHEM_COMPOUND_CID>  (1) 
17935

>  <PUBCHEM_CONFORMER_RMSD>  (1) 
1

>  <PUBCHEM_CONFORMER_DIVERSEORDER>  (1) 
1
27
30
15
47
29
21
31
9
25
12
36
46
17
5
11
44
41
39
16
8
18
23
3
45
43
32
38
42
33
14
2
20
19
35
10
22
7
24
26
40
37
34
6
4
13
28

>  <PUBCHEM_MMFF94_PARTIAL_CHARGES>  (1) 
33
1 -0.43
10 0.28
11 0.27
12 0.63
13 0.66
14 -0.14
15 -0.14
16 -0.15
17 -0.15
18 -0.15
19 -0.15
2 -0.56
20 0.28
21 -0.15
22 -0.15
23 -0.15
24 -0.15
26 -0.15
27 -0.15
3 -0.57
4 -0.81
42 0.15
43 0.15
44 0.15
45 0.15
48 0.15
49 0.15
50 0.15
51 0.15
55 0.15
56 0.15
8 0.27
9 0.27

>  <PUBCHEM_EFFECTIVE_ROTOR_COUNT>  (1) 
9.2

>  <PUBCHEM_PHARMACOPHORE_FEATURES>  (1) 
6
1 2 acceptor
1 3 acceptor
1 4 cation
6 14 16 18 21 23 26 rings
6 15 17 19 22 24 27 rings
6 4 5 6 7 8 9 rings

>  <PUBCHEM_HEAVY_ATOM_COUNT>  (1) 
27

>  <PUBCHEM_ATOM_DEF_STEREO_COUNT>  (1) 
0

>  <PUBCHEM_ATOM_UDEF_STEREO_COUNT>  (1) 
0

>  <PUBCHEM_BOND_DEF_STEREO_COUNT>  (1) 
0

>  <PUBCHEM_BOND_UDEF_STEREO_COUNT>  (1) 
0

>  <PUBCHEM_ISOTOPIC_ATOM_COUNT>  (1) 
0

>  <PUBCHEM_COMPONENT_COUNT>  (1) 
1

>  <PUBCHEM_CACTVS_TAUTO_COUNT>  (1) 
1

>  <PUBCHEM_CONFORMER_ID>  (1) 
0000460F00000001

>  <PUBCHEM_MMFF94_ENERGY>  (1) 
80.2286

>  <PUBCHEM_FEATURE_SELFOVERLAP>  (1) 
30.446

>  <PUBCHEM_SHAPE_FINGERPRINT>  (1) 
10906281 52 17773897405259866320
11036077 3 18342179951199516707
11115154 58 17266076059082193175
11488393 25 18049721815437450347
11524674 6 18343864415882503046
12549972 3 17416113113198684842
12633257 1 18341894112873448588
13135754 10 17679598992725593547
14617045 38 18335989697094272170
14713325 29 17824258194270435845
14790565 3 18271250430237831881
14840074 17 18187085061256393669
14866123 147 18269836578733857115
15361156 5 18338525252543749732
15537594 2 18186235131069920442
15775530 1 17538554414682841485
15849732 13 18113620113978677501
19141452 34 18339360867989594084
19930381 70 17771073695969798574
20197701 30 18412826889273086539
21033648 29 18336809940821113648
21033650 10 16628592183397187584
21403212 168 18343304721804098425
21639891 77 12822713012639010485
23419403 2 17829612760726975917
23559900 14 18129935810674896096
23569917 315 18343026618361865487
249057 3 18410578401411955676
3298306 158 18117546345706104014
3383291 50 18201719595599082754
3411729 13 18198071274826533033
38695281 34 18200877271308235447
4015057 19 17631720703407399256
4073 2 18199183079051903336
469060 322 16878217692258159530
5080951 261 17984108657050468734
5104073 3 18269828882821376096
5265222 85 18333739035488781132
550186 7 17096071481885201837
58260988 521 18188225251057877395
59755656 520 18343581849925706759
6138700 20 18271248222766741186
6669772 16 18342460283979346734
81228 2 17830717013529446891

>  <PUBCHEM_SHAPE_MULTIPOLES>  (1) 
533.06
12.32
3.48
1.76
18.31
4.05
0.82
-4.45
-3.06
-0.69
1.18
-2.12
-0.97
0.21

>  <PUBCHEM_SHAPE_SELFOVERLAP>  (1) 
1130.731

>  <PUBCHEM_SHAPE_VOLUME>  (1) 
296.6

>  <PUBCHEM_COORDINATE_TYPE>  (1) 
2
5
10

$$$$
