17944
     RDKit          3D

 11 11  0  0  0  0  0  0  0  0999 V2000
   -0.0732   -2.3447    0.1708 Cl  0  0  0  0  0  0  0  0  0  0  0  0
   -3.1062   -1.2920    0.2278 Cl  0  0  0  0  0  0  0  0  0  0  0  0
    3.1526    0.4358    1.0899 Cl  0  0  0  0  0  0  0  0  0  0  0  0
    2.3763   -0.9118   -1.0261 O   0  0  0  0  0  0  0  0  0  0  0  0
    0.5975    0.2652   -0.0842 C   0  0  0  0  0  0  0  0  0  0  0  0
   -0.4442   -0.6534    0.0449 C   0  0  0  0  0  0  0  0  0  0  0  0
    0.3173    1.6279   -0.1860 C   0  0  0  0  0  0  0  0  0  0  0  0
   -1.7661   -0.2094    0.0722 C   0  0  0  0  0  0  0  0  0  0  0  0
   -1.0047    2.0718   -0.1588 C   0  0  0  0  0  0  0  0  0  0  0  0
   -2.0465    1.1533   -0.0297 C   0  0  0  0  0  0  0  0  0  0  0  0
    1.9974   -0.1428   -0.1207 C   0  0  0  0  0  0  0  0  0  0  0  0
  1  6  1  0
  2  8  1  0
  3 11  1  0
  4 11  2  0
  5  6  2  0
  5  7  1  0
  5 11  1  0
  6  8  1  0
  7  9  2  0
  8 10  2  0
  9 10  1  0
M  END
>  <PUBCHEM_COMPOUND_CID>  (1) 
17944

>  <PUBCHEM_CONFORMER_RMSD>  (1) 
0.4

>  <PUBCHEM_CONFORMER_DIVERSEORDER>  (1) 
1
2
3
4

>  <PUBCHEM_MMFF94_PARTIAL_CHARGES>  (1) 
14
1 -0.18
10 -0.15
11 0.69
12 0.15
13 0.15
14 0.15
2 -0.18
3 -0.21
4 -0.57
5 0.09
6 0.18
7 -0.15
8 0.18
9 -0.15

>  <PUBCHEM_EFFECTIVE_ROTOR_COUNT>  (1) 
1

>  <PUBCHEM_PHARMACOPHORE_FEATURES>  (1) 
1
6 5 6 7 8 9 10 rings

>  <PUBCHEM_HEAVY_ATOM_COUNT>  (1) 
11

>  <PUBCHEM_ATOM_DEF_STEREO_COUNT>  (1) 
0

>  <PUBCHEM_ATOM_UDEF_STEREO_COUNT>  (1) 
0

>  <PUBCHEM_BOND_DEF_STEREO_COUNT>  (1) 
0

>  <PUBCHEM_BOND_UDEF_STEREO_COUNT>  (1) 
0

>  <PUBCHEM_ISOTOPIC_ATOM_COUNT>  (1) 
0

>  <PUBCHEM_COMPONENT_COUNT>  (1) 
1

>  <PUBCHEM_CACTVS_TAUTO_COUNT>  (1) 
1

>  <PUBCHEM_CONFORMER_ID>  (1) 
0000461800000001

>  <PUBCHEM_MMFF94_ENERGY>  (1) 
31.0924

>  <PUBCHEM_FEATURE_SELFOVERLAP>  (1) 
5.074

>  <PUBCHEM_SHAPE_FINGERPRINT>  (1) 
10857977 72 18411131454726778353
12423570 1 15535510739658061004
12524768 44 18195814191459339726
12716758 59 18267024942569106836
14614273 12 18115576033627314117
15219456 202 18060134315427546808
16945 1 18263927631346581637
193761 8 17976820878916608747
20645464 45 18201710726722796152
20871998 184 18342452672874427726
20871998 22 18340215179786826311
21040471 1 17975978661241061788
22802520 49 18056489356618631014
23380061 330 18339354270787984603
23402539 116 18269254911074868526
23552423 10 18116726122605312286
23559900 14 17838622155059061390
241688 4 18410300215652219777
2748010 2 18411420566202664671
369184 2 18271799086565965192
5084963 1 18272944807593820051
5255222 1 17905614302330372132
53812654 25 18126563663666209671

>  <PUBCHEM_SHAPE_MULTIPOLES>  (1) 
226.11
4.12
2.2
0.82
0.92
0.08
-0.03
0.73
-0.78
-0.82
0.08
0.48
0.07
0.36

>  <PUBCHEM_SHAPE_SELFOVERLAP>  (1) 
446.402

>  <PUBCHEM_SHAPE_VOLUME>  (1) 
135.8

>  <PUBCHEM_COORDINATE_TYPE>  (1) 
2
5
10

$$$$
