17946
     RDKit          3D

 11 11  0  0  0  0  0  0  0  0999 V2000
    3.4258   -1.5351    0.2897 Cl  0  0  0  0  0  0  0  0  0  0  0  0
   -2.4812    0.4838    0.3592 O   0  0  0  0  0  0  0  0  0  0  0  0
   -1.9518   -1.5576   -0.5636 O   0  0  0  0  0  0  0  0  0  0  0  0
   -0.2362    0.0297   -0.0926 C   0  0  0  0  0  0  0  0  0  0  0  0
    0.8132   -0.8764    0.0618 C   0  0  0  0  0  0  0  0  0  0  0  0
    0.0314    1.3938   -0.2079 C   0  0  0  0  0  0  0  0  0  0  0  0
    2.1301   -0.4181    0.1008 C   0  0  0  0  0  0  0  0  0  0  0  0
    1.3482    1.8520   -0.1689 C   0  0  0  0  0  0  0  0  0  0  0  0
    2.3975    0.9461   -0.0146 C   0  0  0  0  0  0  0  0  0  0  0  0
   -1.6089   -0.4474   -0.1353 C   0  0  0  0  0  0  0  0  0  0  0  0
   -3.8682    0.1292    0.3714 C   0  0  0  0  0  0  0  0  0  0  0  0
  1  7  1  0
  2 10  1  0
  2 11  1  0
  3 10  2  0
  4  5  2  0
  4  6  1  0
  4 10  1  0
  5  7  1  0
  6  8  2  0
  7  9  2  0
  8  9  1  0
M  END
>  <PUBCHEM_COMPOUND_CID>  (1) 
17946

>  <PUBCHEM_CONFORMER_RMSD>  (1) 
0.4

>  <PUBCHEM_CONFORMER_DIVERSEORDER>  (1) 
1
6
4
2
5
3

>  <PUBCHEM_MMFF94_PARTIAL_CHARGES>  (1) 
15
1 -0.18
10 0.63
11 0.28
12 0.15
13 0.15
14 0.15
15 0.15
2 -0.43
3 -0.57
4 0.09
5 -0.15
6 -0.15
7 0.18
8 -0.15
9 -0.15

>  <PUBCHEM_EFFECTIVE_ROTOR_COUNT>  (1) 
2

>  <PUBCHEM_PHARMACOPHORE_FEATURES>  (1) 
2
1 3 acceptor
6 4 5 6 7 8 9 rings

>  <PUBCHEM_HEAVY_ATOM_COUNT>  (1) 
11

>  <PUBCHEM_ATOM_DEF_STEREO_COUNT>  (1) 
0

>  <PUBCHEM_ATOM_UDEF_STEREO_COUNT>  (1) 
0

>  <PUBCHEM_BOND_DEF_STEREO_COUNT>  (1) 
0

>  <PUBCHEM_BOND_UDEF_STEREO_COUNT>  (1) 
0

>  <PUBCHEM_ISOTOPIC_ATOM_COUNT>  (1) 
0

>  <PUBCHEM_COMPONENT_COUNT>  (1) 
1

>  <PUBCHEM_CACTVS_TAUTO_COUNT>  (1) 
1

>  <PUBCHEM_CONFORMER_ID>  (1) 
0000461A00000001

>  <PUBCHEM_MMFF94_ENERGY>  (1) 
28.6576

>  <PUBCHEM_FEATURE_SELFOVERLAP>  (1) 
10.148

>  <PUBCHEM_SHAPE_FINGERPRINT>  (1) 
10130415 120 18408885105384671938
10219947 1 18412829062114938475
11471102 20 18407755937039488901
12032990 46 18336270024639475098
12251169 10 18343017778975297634
12932764 1 18408604794328378133
14128692 85 18410855460634603046
14144814 61 18413392042386312593
14325111 11 18411420656771563041
15775835 57 18269562791584400301
161256 15 18334572421815281548
16945 1 18412540981536594420
17844478 74 17676209065564969389
18511873 20 18341333314392603035
20645477 70 18408036317021435967
207724 885 18410014316732405179
20871998 184 17982440508758381198
20871998 22 18197502818419505094
21040471 1 17977385267678916428
21501502 16 18339079427114230431
23402539 116 17560509613390639701
23463225 33 18411138017600362814
23552423 10 18264489670624238692
2748010 2 18409443726090251558
63268167 104 18410295838785236929
7364860 26 18343021133809128760

>  <PUBCHEM_SHAPE_MULTIPOLES>  (1) 
216.51
5.36
1.73
0.67
2.62
0.29
0
-1.59
-0.8
-1
0.12
0.06
-0.04
-0.32

>  <PUBCHEM_SHAPE_SELFOVERLAP>  (1) 
440.234

>  <PUBCHEM_SHAPE_VOLUME>  (1) 
127.3

>  <PUBCHEM_COORDINATE_TYPE>  (1) 
2
5
10

$$$$
