1795
     RDKit          3D

 20 20  0  0  0  0  0  0  0  0999 V2000
   -1.1151   -2.6307    0.9842 Cl  0  0  0  0  0  0  0  0  0  0  0  0
    3.0574    1.6989    1.1750 O   0  0  0  0  0  0  0  0  0  0  0  0
   -2.7935   -0.2868    0.0206 N   0  0  0  0  0  0  0  0  0  0  0  0
   -0.9608    1.2163   -0.0490 N   0  0  0  0  0  0  0  0  0  0  0  0
    0.7331   -0.8360    0.8374 N   0  0  0  0  0  0  0  0  0  0  0  0
    0.8975    2.6955   -0.1056 N   0  0  0  0  0  0  0  0  0  0  0  0
    3.4375   -0.5105    0.6036 N   0  0  0  0  0  0  0  0  0  0  0  0
    4.7773   -1.7913   -0.9332 N   0  0  0  0  0  0  0  0  0  0  0  0
    3.7023    0.0966   -1.6289 N   0  0  0  0  0  0  0  0  0  0  0  0
   -3.4246   -0.1082   -1.2692 C   0  0  0  0  0  0  0  0  0  0  0  0
   -3.6168   -0.7342    1.1432 C   0  0  0  0  0  0  0  0  0  0  0  0
   -2.7687   -1.0374   -2.2819 C   0  0  0  0  0  0  0  0  0  0  0  0
   -3.3069    1.3494   -1.6957 C   0  0  0  0  0  0  0  0  0  0  0  0
   -1.4299   -0.0277    0.2056 C   0  0  0  0  0  0  0  0  0  0  0  0
   -4.7197    0.2720    1.4018 C   0  0  0  0  0  0  0  0  0  0  0  0
   -0.5859   -1.0334    0.6427 C   0  0  0  0  0  0  0  0  0  0  0  0
    0.3583    1.4137    0.1454 C   0  0  0  0  0  0  0  0  0  0  0  0
    1.1903    0.4057    0.5808 C   0  0  0  0  0  0  0  0  0  0  0  0
    2.6160    0.5975    0.7975 C   0  0  0  0  0  0  0  0  0  0  0  0
    3.9522   -0.7492   -0.5743 C   0  0  0  0  0  0  0  0  0  0  0  0
  1 16  1  0
  2 19  2  0
  3 10  1  0
  3 11  1  0
  3 14  1  0
  4 14  2  0
  4 17  1  0
  5 16  2  0
  5 18  1  0
  6 17  1  0
  7 19  1  0
  7 20  2  3
  8 20  1  0
  9 20  1  0
 10 12  1  0
 10 13  1  0
 11 15  1  0
 14 16  1  0
 17 18  2  0
 18 19  1  0
M  END
>  <PUBCHEM_COMPOUND_CID>  (1) 
1795

>  <PUBCHEM_CONFORMER_RMSD>  (1) 
0.8

>  <PUBCHEM_CONFORMER_DIVERSEORDER>  (1) 
1
38
22
41
40
9
18
19
43
30
23
24
29
34
21
26
12
35
27
31
20
37
11
39
15
36
25
17
14
4
28
16
10
32
8
6
33
7
2
3
42
13
5

>  <PUBCHEM_MMFF94_PARTIAL_CHARGES>  (1) 
23
1 -0.18
10 0.37
11 0.37
14 0.41
16 0.49
17 0.41
18 0.4
19 0.69
2 -0.57
20 0.55
3 -0.84
33 0.4
34 0.4
35 0.4
36 0.4
37 0.4
38 0.4
4 -0.62
5 -0.62
6 -0.9
7 -0.66
8 -0.85
9 -0.85

>  <PUBCHEM_EFFECTIVE_ROTOR_COUNT>  (1) 
5

>  <PUBCHEM_PHARMACOPHORE_FEATURES>  (1) 
10
1 2 acceptor
1 5 acceptor
1 6 cation
1 6 donor
1 7 donor
1 8 donor
1 9 donor
3 10 12 13 hydrophobe
3 3 4 14 cation
6 4 5 14 16 17 18 rings

>  <PUBCHEM_HEAVY_ATOM_COUNT>  (1) 
20

>  <PUBCHEM_ATOM_DEF_STEREO_COUNT>  (1) 
0

>  <PUBCHEM_ATOM_UDEF_STEREO_COUNT>  (1) 
0

>  <PUBCHEM_BOND_DEF_STEREO_COUNT>  (1) 
0

>  <PUBCHEM_BOND_UDEF_STEREO_COUNT>  (1) 
0

>  <PUBCHEM_ISOTOPIC_ATOM_COUNT>  (1) 
0

>  <PUBCHEM_COMPONENT_COUNT>  (1) 
1

>  <PUBCHEM_CACTVS_TAUTO_COUNT>  (1) 
8

>  <PUBCHEM_CONFORMER_ID>  (1) 
0000070300000001

>  <PUBCHEM_MMFF94_ENERGY>  (1) 
87.2643

>  <PUBCHEM_FEATURE_SELFOVERLAP>  (1) 
50.876

>  <PUBCHEM_SHAPE_FINGERPRINT>  (1) 
10366900 7 16950566623107794067
12186901 62 17240204322244962507
12236239 1 17918273182455749419
12553582 1 18411416168557392098
12596599 1 18058998579734568255
12596602 18 14476950178516218094
13140716 1 18044937019842109521
13583140 156 16154804986251501537
13675066 3 18131074865659988161
14289901 80 16557893688303444738
14787075 74 11891635553630974615
14957384 54 12975816570669763119
15375358 24 18265880514669410144
15848702 151 17775283850324356271
16752209 62 18190166906734637920
16945 1 18188196702045945417
1813 80 18129959909171845732
18186145 218 18410288129392514411
19026448 5 16702017616695789545
19141452 34 17561083583586460591
19422 9 17275097375091341005
19862831 5 18261103041703606204
20281475 54 17489299823778293620
20600515 1 18261657256073960016
20645476 183 17022903454091433002
20645477 70 18201707466779263070
20871999 31 18335145237503760748
21069387 34 17917426574711800191
23402539 116 18340768144131097598
23493267 7 17095520652160457113
23503958 8 16844998126363262527
23559900 14 18408605881893918824
25 1 17825363234090158245
26918003 58 14548736166926692478
2748010 2 17972876148675374177
3286 77 16343404181430248706
463206 1 18059297548446249206
573450 72 15697995232581833287
6049 1 17822567321817827965
633830 44 18413668015372760633
9709674 26 18268700774594558186

>  <PUBCHEM_SHAPE_MULTIPOLES>  (1) 
372.72
8.52
2.09
1.7
3.2
0.06
0.86
1.19
1.56
0.32
-0.22
-1.06
0.09
1.16

>  <PUBCHEM_SHAPE_SELFOVERLAP>  (1) 
757.641

>  <PUBCHEM_SHAPE_VOLUME>  (1) 
218.2

>  <PUBCHEM_COORDINATE_TYPE>  (1) 
2
5
10

$$$$
