17958
     RDKit          3D

 20 22  0  0  0  0  0  0  0  0999 V2000
    0.3066    1.7056   -0.7817 O   0  0  0  0  0  0  0  0  0  0  0  0
    0.6703   -0.9909   -0.7323 O   0  0  0  0  0  0  0  0  0  0  0  0
    3.1857   -2.0462    0.2000 O   0  0  0  0  0  0  0  0  0  0  0  0
   -2.3279    1.0129   -0.0045 N   0  0  0  0  0  0  0  0  0  0  0  0
   -2.1015    0.5370    1.3644 C   0  0  0  0  0  0  0  0  0  0  0  0
   -3.7021    0.8468   -0.4805 C   0  0  0  0  0  0  0  0  0  0  0  0
   -2.7398   -0.7985    1.7584 C   0  0  0  0  0  0  0  0  0  0  0  0
   -3.8669   -0.4991   -1.1920 C   0  0  0  0  0  0  0  0  0  0  0  0
   -2.7158   -1.8640    0.6674 C   0  0  0  0  0  0  0  0  0  0  0  0
   -3.8964   -1.7300   -0.2910 C   0  0  0  0  0  0  0  0  0  0  0  0
   -1.8857    2.4033   -0.1270 C   0  0  0  0  0  0  0  0  0  0  0  0
   -0.3951    2.5188    0.1495 C   0  0  0  0  0  0  0  0  0  0  0  0
    1.5005    1.1877   -0.3695 C   0  0  0  0  0  0  0  0  0  0  0  0
    1.7086   -0.1912   -0.3318 C   0  0  0  0  0  0  0  0  0  0  0  0
    2.9315   -0.7026    0.1096 C   0  0  0  0  0  0  0  0  0  0  0  0
    2.5270    2.0547    0.0062 C   0  0  0  0  0  0  0  0  0  0  0  0
    1.0966   -2.3329   -0.9830 C   0  0  0  0  0  0  0  0  0  0  0  0
    1.9849   -2.8211    0.1446 C   0  0  0  0  0  0  0  0  0  0  0  0
    3.9620    0.1653    0.4722 C   0  0  0  0  0  0  0  0  0  0  0  0
    3.7575    1.5444    0.4211 C   0  0  0  0  0  0  0  0  0  0  0  0
  1 12  1  0
  1 13  1  0
  2 14  1  0
  2 17  1  0
  3 15  1  0
  3 18  1  0
  4  5  1  0
  4  6  1  0
  4 11  1  0
  5  7  1  0
  6  8  1  0
  7  9  1  0
  8 10  1  0
  9 10  1  0
 11 12  1  0
 13 14  1  0
 13 16  2  0
 14 15  2  0
 15 19  1  0
 16 20  1  0
 17 18  1  0
 19 20  2  0
M  END
>  <PUBCHEM_COMPOUND_CID>  (1) 
17958

>  <PUBCHEM_CONFORMER_RMSD>  (1) 
0.8

>  <PUBCHEM_CONFORMER_DIVERSEORDER>  (1) 
1
6
57
58
76
99
89
90
80
4
24
98
77
69
42
47
73
100
79
52
60
32
59
3
115
40
2
44
35
38
97
26
72
113
41
43
16
5
85
68
82
88
29
111
14
17
50
67
8
11
84
112
12
56
105
61
70
10
65
75
86
51
20
49
63
39
7
66
87
110
34
19
104
53
31
45
101
116
54
62
9
21
18
33
15
93
103
91
81
48
64
28
109
22
114
102
27
95
23
83
94
106
71
25
37
92
55
107
36
46
78
96
30
13
108
74

>  <PUBCHEM_MMFF94_PARTIAL_CHARGES>  (1) 
19
1 -0.36
11 0.27
12 0.28
13 0.08
14 0.08
15 0.08
16 -0.15
17 0.28
18 0.28
19 -0.15
2 -0.36
20 -0.15
3 -0.36
37 0.15
4 -0.81
42 0.15
43 0.15
5 0.27
6 0.27

>  <PUBCHEM_EFFECTIVE_ROTOR_COUNT>  (1) 
6.2

>  <PUBCHEM_PHARMACOPHORE_FEATURES>  (1) 
7
1 1 acceptor
1 2 acceptor
1 3 acceptor
1 4 cation
6 13 14 15 16 19 20 rings
6 2 3 14 15 17 18 rings
7 4 5 6 7 8 9 10 rings

>  <PUBCHEM_HEAVY_ATOM_COUNT>  (1) 
20

>  <PUBCHEM_ATOM_DEF_STEREO_COUNT>  (1) 
0

>  <PUBCHEM_ATOM_UDEF_STEREO_COUNT>  (1) 
0

>  <PUBCHEM_BOND_DEF_STEREO_COUNT>  (1) 
0

>  <PUBCHEM_BOND_UDEF_STEREO_COUNT>  (1) 
0

>  <PUBCHEM_ISOTOPIC_ATOM_COUNT>  (1) 
0

>  <PUBCHEM_COMPONENT_COUNT>  (1) 
1

>  <PUBCHEM_CACTVS_TAUTO_COUNT>  (1) 
1

>  <PUBCHEM_CONFORMER_ID>  (1) 
0000462600000001

>  <PUBCHEM_MMFF94_ENERGY>  (1) 
58.254

>  <PUBCHEM_FEATURE_SELFOVERLAP>  (1) 
35.57

>  <PUBCHEM_SHAPE_FINGERPRINT>  (1) 
10366900 7 18413106177784597264
10616163 171 18411982459710312077
10759866 29 17823422789203693908
1100329 8 17475235081748572272
11370993 70 18336819887722109059
12553582 1 18264509389025063161
12596599 1 17703242736186888431
12633257 1 18194121807057347514
128993 33 10303808757402938051
13140716 1 18339649927488068608
13224815 77 18130794472656274415
14178342 30 18341067271244430457
1420 336 17977388235527574779
14223421 5 18411139091378986644
14251705 54 18336553827583360323
14251745 187 18409159991739177921
14251757 17 17970605438785407821
14787075 74 17486769955066360016
14790565 3 18192436501062794836
15375358 24 18335415760076418101
15927050 60 14522276015898462324
17492 89 18411416181405981111
17834072 14 18334570265667546969
19433438 48 18131077077541693435
19591789 44 18412268320581848566
200 152 18130220553815302149
20261772 1 18201155584803745198
221490 88 18339084791897654766
23559900 14 18338226077405750104
3797600 57 17275105071773079344
392239 28 17702936088665319368
463206 1 18052252088420122807
474229 33 18339076111953502216
8809292 202 17975420118166581772
9709674 26 18337673009987155229

>  <PUBCHEM_SHAPE_MULTIPOLES>  (1) 
389
7.67
3.19
1.11
1.36
0.42
0.26
1.1
0.31
-0.85
-0.2
0.89
0.21
0.3

>  <PUBCHEM_SHAPE_SELFOVERLAP>  (1) 
812.279

>  <PUBCHEM_SHAPE_VOLUME>  (1) 
219.1

>  <PUBCHEM_COORDINATE_TYPE>  (1) 
2
5
10

$$$$
