17974
     RDKit          3D

 25 27  0  0  0  0  0  0  0  0999 V2000
   -1.1961    0.0501    0.8043 O   0  0  0  0  0  0  0  0  0  0  0  0
    1.1977    0.1026    1.9867 O   0  0  0  0  0  0  0  0  0  0  0  0
   -0.2636    1.8488   -0.2835 O   0  0  0  0  0  0  0  0  0  0  0  0
   -5.1573    0.2461   -0.5337 N   0  0  0  0  0  0  0  0  0  0  0  0
   -2.4907    0.6039    0.6068 C   0  0  0  0  0  0  0  0  0  0  0  0
   -3.5278   -0.3203    1.2370 C   0  0  0  0  0  0  0  0  0  0  0  0
   -2.7664    0.7675   -0.8852 C   0  0  0  0  0  0  0  0  0  0  0  0
   -4.9497    0.1398    0.9177 C   0  0  0  0  0  0  0  0  0  0  0  0
   -4.2116    1.1947   -1.1392 C   0  0  0  0  0  0  0  0  0  0  0  0
    1.1823    0.0565    0.5453 C   0  0  0  0  0  0  0  0  0  0  0  0
   -6.5352    0.6407   -0.8258 C   0  0  0  0  0  0  0  0  0  0  0  0
   -0.1449    0.7803    0.3043 C   0  0  0  0  0  0  0  0  0  0  0  0
    2.4019    0.7878   -0.0208 C   0  0  0  0  0  0  0  0  0  0  0  0
    1.1539   -1.4003    0.0775 C   0  0  0  0  0  0  0  0  0  0  0  0
    2.2822    1.4262   -1.2336 C   0  0  0  0  0  0  0  0  0  0  0  0
    1.7859   -2.3510    0.8455 C   0  0  0  0  0  0  0  0  0  0  0  0
    3.5705    0.7791    0.7051 C   0  0  0  0  0  0  0  0  0  0  0  0
    0.4972   -1.7037   -1.0929 C   0  0  0  0  0  0  0  0  0  0  0  0
    1.1698    1.4394    2.4453 C   0  0  0  0  0  0  0  0  0  0  0  0
    3.3935    2.0929   -1.7496 C   0  0  0  0  0  0  0  0  0  0  0  0
    1.7598   -3.6790    0.4194 C   0  0  0  0  0  0  0  0  0  0  0  0
    4.6818    1.4460    0.1891 C   0  0  0  0  0  0  0  0  0  0  0  0
    0.4712   -3.0317   -1.5188 C   0  0  0  0  0  0  0  0  0  0  0  0
    4.5932    2.1029   -1.0383 C   0  0  0  0  0  0  0  0  0  0  0  0
    1.1025   -4.0193   -0.7627 C   0  0  0  0  0  0  0  0  0  0  0  0
  1  5  1  0
  1 12  1  0
  2 10  1  0
  2 19  1  0
  3 12  2  0
  4  8  1  0
  4  9  1  0
  4 11  1  0
  5  6  1  0
  5  7  1  0
  6  8  1  0
  7  9  1  0
 10 12  1  0
 10 13  1  0
 10 14  1  0
 13 15  2  0
 13 17  1  0
 14 16  2  0
 14 18  1  0
 15 20  1  0
 16 21  1  0
 17 22  2  0
 18 23  2  0
 20 24  2  0
 21 25  2  0
 22 24  1  0
 23 25  1  0
M  END
>  <PUBCHEM_COMPOUND_CID>  (1) 
17974

>  <PUBCHEM_CONFORMER_RMSD>  (1) 
0.8

>  <PUBCHEM_CONFORMER_DIVERSEORDER>  (1) 
1
21
55
36
32
33
14
12
6
4
45
43
58
37
28
5
22
11
15
25
20
27
54
47
44
19
23
51
13
39
26
7
49
53
17
42
2
59
8
56
50
57
31
35
10
46
29
30
18
40
34
9
38
48
41
60
61
3
16
62
52
24

>  <PUBCHEM_MMFF94_PARTIAL_CHARGES>  (1) 
33
1 -0.43
10 0.63
11 0.27
12 0.66
13 -0.14
14 -0.14
15 -0.15
16 -0.15
17 -0.15
18 -0.15
19 0.28
2 -0.56
20 -0.15
21 -0.15
22 -0.15
23 -0.15
24 -0.15
25 -0.15
3 -0.57
38 0.15
39 0.15
4 -0.81
40 0.15
41 0.15
45 0.15
46 0.15
47 0.15
48 0.15
49 0.15
5 0.28
50 0.15
8 0.27
9 0.27

>  <PUBCHEM_EFFECTIVE_ROTOR_COUNT>  (1) 
7.2

>  <PUBCHEM_PHARMACOPHORE_FEATURES>  (1) 
6
1 2 acceptor
1 3 acceptor
1 4 cation
6 13 15 17 20 22 24 rings
6 14 16 18 21 23 25 rings
6 4 5 6 7 8 9 rings

>  <PUBCHEM_HEAVY_ATOM_COUNT>  (1) 
25

>  <PUBCHEM_ATOM_DEF_STEREO_COUNT>  (1) 
0

>  <PUBCHEM_ATOM_UDEF_STEREO_COUNT>  (1) 
0

>  <PUBCHEM_BOND_DEF_STEREO_COUNT>  (1) 
0

>  <PUBCHEM_BOND_UDEF_STEREO_COUNT>  (1) 
0

>  <PUBCHEM_ISOTOPIC_ATOM_COUNT>  (1) 
0

>  <PUBCHEM_COMPONENT_COUNT>  (1) 
1

>  <PUBCHEM_CACTVS_TAUTO_COUNT>  (1) 
1

>  <PUBCHEM_CONFORMER_ID>  (1) 
0000463600000001

>  <PUBCHEM_MMFF94_ENERGY>  (1) 
82.964

>  <PUBCHEM_FEATURE_SELFOVERLAP>  (1) 
30.447

>  <PUBCHEM_SHAPE_FINGERPRINT>  (1) 
10162869 55 12179845027384781617
10366900 7 18131068256011352721
10906281 52 18041577887719362877
11069576 57 18057876953536827103
11421498 54 18202015299928591449
11488393 25 18263654965516795162
11545043 162 12823298983996958675
12592029 89 18334020492821431122
12730499 353 18411142441907125843
12788726 201 17261287706610065730
12969540 114 18339358690230646300
13083527 12 18195237819928680698
13149001 5 17629488759285480576
13257819 37 18118709805154496950
133893 2 18121804758419241194
13533116 47 18130782310353416667
13681431 1 17980205188591961118
13836976 161 18411696573839209174
13911987 19 18265911313374052733
13968360 50 18410570682511965974
14863182 85 17703215201331382550
15502722 9 18337116661292998830
15537594 2 17917426567134832695
15849732 13 18187361035456157732
16752209 62 18052812834717587534
17134984 74 17773004624041847415
17138139 8 17628891690291357839
17980427 23 16443916105602992447
1813 80 17769100038264569454
18681886 176 18262235646392715944
20197701 30 18410578426691116638
20567600 347 18272940418459205158
20600515 1 17048515207365660194
20602899 9 18127437685796155588
20645477 70 18338510825448116623
21054139 6 18129089186399469303
21304303 94 17703795803457712919
21344244 181 17560538281817547030
21344244 246 18271536278171842646
21421861 104 17842577153363366267
21452121 199 18123466072985694490
21521721 280 18199759204857537681
21756936 100 17026010824850584748
22393880 68 17774992549190336327
23419403 2 17189208784181004754
23557571 272 16806188608739890129
23558518 356 17977387136042827737
23559900 14 18116145563586631643
239999 70 17967531229738046291
24893989 43 16314924412178592492
25147074 1 17915471493151661337
298252 57 18261679293577159152
3052486 1 18125707131102178326
3060560 45 18410014359909243348
38695281 34 18408887373101043428
404807 78 18121212349955867651
4280585 95 17758391873194476106
44802255 64 17755336635892569750
46194498 28 18261952921690740343
53917941 68 18124309669535835804
57359948 33 18115017508313128189
59755656 215 17968098586264603212
6025842 7 18410570652742405719
633830 44 17489591207366317617
6669772 16 18342186574703921014
70251023 43 17700714868707694311
81228 2 17405977935019753954
81539 233 18408046212372683310

>  <PUBCHEM_SHAPE_MULTIPOLES>  (1) 
491.9
9.96
3.59
1.71
15.3
5.16
0.41
-7.01
-2.27
-4.09
-1.17
-0.4
-0.41
-0.28

>  <PUBCHEM_SHAPE_SELFOVERLAP>  (1) 
1056.051

>  <PUBCHEM_SHAPE_VOLUME>  (1) 
270.1

>  <PUBCHEM_COORDINATE_TYPE>  (1) 
2
5
10

$$$$
