17972
     RDKit          3D

 26 28  0  0  1  0  0  0  0  0999 V2000
   -1.0197   -0.0553    0.2050 O   0  0  0  0  0  0  0  0  0  0  0  0
    1.0896    0.2635    1.8087 O   0  0  0  0  0  0  0  0  0  0  0  0
    0.0464    1.6616   -0.8923 O   0  0  0  0  0  0  0  0  0  0  0  0
   -4.7025   -0.0481   -0.2746 N   0  0  0  0  0  0  0  0  0  0  0  0
   -2.2695    0.4000   -0.3027 C   0  0  0  0  0  0  0  0  0  0  0  0
   -2.5095    1.8391    0.1459 C   0  0  0  0  0  0  0  0  0  0  0  0
   -3.3900   -0.5269    0.1772 C   0  0  0  0  0  0  0  0  0  0  0  0
   -3.9053    2.2961   -0.2577 C   0  0  0  0  0  0  0  0  0  0  0  0
   -4.9722    1.3091    0.2208 C   0  0  0  0  0  0  0  0  0  0  0  0
   -5.7576   -0.9677    0.1502 C   0  0  0  0  0  0  0  0  0  0  0  0
    1.3599    0.0567    0.4073 C   0  0  0  0  0  0  0  0  0  0  0  0
    0.0827    0.6733   -0.1689 C   0  0  0  0  0  0  0  0  0  0  0  0
   -7.1172   -0.5135   -0.3531 C   0  0  0  0  0  0  0  0  0  0  0  0
    2.6419    0.7880    0.0019 C   0  0  0  0  0  0  0  0  0  0  0  0
    1.4730   -1.4424    0.1210 C   0  0  0  0  0  0  0  0  0  0  0  0
    2.7422    1.2799   -1.2790 C   0  0  0  0  0  0  0  0  0  0  0  0
    1.9728   -2.2648    1.1044 C   0  0  0  0  0  0  0  0  0  0  0  0
    3.6443    0.9257    0.9341 C   0  0  0  0  0  0  0  0  0  0  0  0
    1.0703   -1.9105   -1.1085 C   0  0  0  0  0  0  0  0  0  0  0  0
    0.9272    1.6393    2.0898 C   0  0  0  0  0  0  0  0  0  0  0  0
    3.9104    1.9465   -1.6486 C   0  0  0  0  0  0  0  0  0  0  0  0
    2.0758   -3.6313    0.8436 C   0  0  0  0  0  0  0  0  0  0  0  0
    4.8125    1.5926    0.5645 C   0  0  0  0  0  0  0  0  0  0  0  0
    1.1732   -3.2769   -1.3692 C   0  0  0  0  0  0  0  0  0  0  0  0
    4.9454    2.1029   -0.7269 C   0  0  0  0  0  0  0  0  0  0  0  0
    1.6759   -4.1372   -0.3930 C   0  0  0  0  0  0  0  0  0  0  0  0
  1  5  1  0
  1 12  1  0
  2 11  1  0
  2 20  1  0
  3 12  2  0
  4  7  1  0
  4  9  1  0
  4 10  1  0
  5  6  1  0
  5  7  1  0
  6  8  1  0
  8  9  1  0
 10 13  1  0
 11 12  1  0
 11 14  1  0
 11 15  1  0
 14 16  2  0
 14 18  1  0
 15 17  2  0
 15 19  1  0
 16 21  1  0
 17 22  1  0
 18 23  2  0
 19 24  2  0
 21 25  2  0
 22 26  2  0
 23 25  1  0
 24 26  1  0
M  END
>  <PUBCHEM_COMPOUND_CID>  (1) 
17972

>  <PUBCHEM_CONFORMER_RMSD>  (1) 
0.8

>  <PUBCHEM_CONFORMER_DIVERSEORDER>  (1) 
1
64
121
139
80
28
76
82
36
77
6
90
53
125
65
18
73
135
32
34
109
143
33
102
100
124
58
37
87
50
101
85
123
151
23
54
27
118
119
96
133
153
66
95
98
71
128
99
11
3
78
93
140
92
17
26
106
122
75
49
89
105
107
126
44
21
97
43
56
113
83
39
24
74
134
29
114
38
30
42
136
68
84
20
55
51
69
46
10
7
112
41
103
57
148
5
120
146
25
31
108
104
79
14
138
81
142
94
115
8
86
91
59
111
88
144
61
22
127
117
62
70
150
60
147
48
12
2
145
149
141
52
110
132
129
47
4
9
152
15
40
63
16
35
72
45
130
19
137
131
13
116
67

>  <PUBCHEM_MMFF94_PARTIAL_CHARGES>  (1) 
33
1 -0.43
10 0.27
11 0.63
12 0.66
14 -0.14
15 -0.14
16 -0.15
17 -0.15
18 -0.15
19 -0.15
2 -0.56
20 0.28
21 -0.15
22 -0.15
23 -0.15
24 -0.15
25 -0.15
26 -0.15
3 -0.57
4 -0.81
41 0.15
42 0.15
43 0.15
44 0.15
48 0.15
49 0.15
5 0.28
50 0.15
51 0.15
52 0.15
53 0.15
7 0.27
9 0.27

>  <PUBCHEM_EFFECTIVE_ROTOR_COUNT>  (1) 
8.2

>  <PUBCHEM_PHARMACOPHORE_FEATURES>  (1) 
6
1 2 acceptor
1 3 acceptor
1 4 cation
6 14 16 18 21 23 25 rings
6 15 17 19 22 24 26 rings
6 4 5 6 7 8 9 rings

>  <PUBCHEM_HEAVY_ATOM_COUNT>  (1) 
26

>  <PUBCHEM_ATOM_DEF_STEREO_COUNT>  (1) 
0

>  <PUBCHEM_ATOM_UDEF_STEREO_COUNT>  (1) 
1

>  <PUBCHEM_BOND_DEF_STEREO_COUNT>  (1) 
0

>  <PUBCHEM_BOND_UDEF_STEREO_COUNT>  (1) 
0

>  <PUBCHEM_ISOTOPIC_ATOM_COUNT>  (1) 
0

>  <PUBCHEM_COMPONENT_COUNT>  (1) 
1

>  <PUBCHEM_CACTVS_TAUTO_COUNT>  (1) 
1

>  <PUBCHEM_CONFORMER_ID>  (1) 
0000463400000001

>  <PUBCHEM_MMFF94_ENERGY>  (1) 
82.499

>  <PUBCHEM_FEATURE_SELFOVERLAP>  (1) 
30.447

>  <PUBCHEM_SHAPE_FINGERPRINT>  (1) 
10366900 7 18271525394639649065
10554248 39 18055626219466011269
10906281 52 17968956274254516849
11405975 8 18123753054870153265
11421498 54 18272378554985128729
11488393 25 17987261974468128046
11963148 33 18263637528208692427
12107183 9 17691972562283607753
12236239 1 17822285816845028433
12293681 160 17917722326893390048
12422481 6 18047160026838588138
12592029 89 18334576837257563024
12730499 353 18412832403947771635
12788726 201 17469051411468866598
12977781 61 17458929088179984042
131258 43 17200243534760598150
13140716 1 18051128396057365753
13150687 139 18336839701139456172
13257819 37 18191325942678049590
133893 2 18048904925937460584
13533116 47 18271801295097189571
13583140 156 17987780961584258149
14617045 38 18272374213463827071
14790565 3 18265618856255695292
14863182 85 18408046220920342270
15131766 46 14131327666532870540
15163728 17 17824292429823394020
15537594 2 18131348648809317967
15849732 13 18187078473910840920
17492 89 18267303136903479543
1813 80 17691129236406244930
18222031 100 10953731188809637736
18681886 176 18190743226921927084
19319366 153 18341606040273622790
20197701 30 18412263965310793958
20286276 3 18194689159737297157
20567600 347 18409735075360572270
20600515 1 17334489411490477786
20645477 70 18337952290568185799
20691752 17 17313957290261585737
20771845 140 17131543969044602094
21054139 6 18269829981747765895
21120745 212 16978729226411538974
21344244 181 17631753650164869806
21344244 246 18270695160519515798
21421861 104 18127139571388166459
21521721 280 18199476638990769320
22149856 69 18338814359835549433
22224240 67 18269829968493494545
22393880 68 18270128911070465564
22956985 138 18045209458730589706
23366157 5 18116720612273093174
23419403 2 17117997801359184056
23559900 14 18125152728465680031
298252 57 18189057654479899744
394222 165 18335699434382236154
404807 78 18046628086644742747
4280585 95 17832707868505872622
4340502 62 18272368698155938020
5104073 3 18339367341064427113
57359948 33 17968369062531501253
59755656 215 18334860510672142119
59755656 520 18340200908180091084
6442390 28 18341608278204303976
6669772 16 18272377486324177758
70251023 43 17843705273731884102
7364860 26 18268146453478347838
8509985 295 9295293832738168625
9709674 26 18334862667447539603
9841814 1 17899417480698224434

>  <PUBCHEM_SHAPE_MULTIPOLES>  (1) 
512.48
11.61
3.93
1.37
20.24
4.79
0.22
-4.91
-1.33
-3.91
-0.51
-1.37
-0.18
-0.58

>  <PUBCHEM_SHAPE_SELFOVERLAP>  (1) 
1095.073

>  <PUBCHEM_SHAPE_VOLUME>  (1) 
282.8

>  <PUBCHEM_COORDINATE_TYPE>  (1) 
2
5
10

$$$$
