17980
     RDKit          3D

 28 30  0  0  1  0  0  0  0  0999 V2000
   -0.8853   -0.0001   -0.0032 O   0  0  0  0  0  0  0  0  0  0  0  0
    1.2315    0.7674    1.4469 O   0  0  0  0  0  0  0  0  0  0  0  0
    0.2344    1.2558   -1.5707 O   0  0  0  0  0  0  0  0  0  0  0  0
   -4.5807   -0.2947   -0.4559 N   0  0  0  0  0  0  0  0  0  0  0  0
   -3.2362   -0.4059    0.1417 C   0  0  0  0  0  0  0  0  0  0  0  0
   -3.2774    0.0810    1.6030 C   0  0  0  0  0  0  0  0  0  0  0  0
   -3.8497    1.4894    1.7338 C   0  0  0  0  0  0  0  0  0  0  0  0
   -5.1322    1.0638   -0.4014 C   0  0  0  0  0  0  0  0  0  0  0  0
   -5.2012    1.5790    1.0364 C   0  0  0  0  0  0  0  0  0  0  0  0
   -2.1124    0.2929   -0.6393 C   0  0  0  0  0  0  0  0  0  0  0  0
   -4.6532   -0.8367   -1.8098 C   0  0  0  0  0  0  0  0  0  0  0  0
   -6.0900   -0.8996   -2.2997 C   0  0  0  0  0  0  0  0  0  0  0  0
    1.5046    0.1210    0.1868 C   0  0  0  0  0  0  0  0  0  0  0  0
    0.2447    0.5479   -0.5707 C   0  0  0  0  0  0  0  0  0  0  0  0
    1.5854   -1.3933    0.3923 C   0  0  0  0  0  0  0  0  0  0  0  0
    2.8049    0.6606   -0.4140 C   0  0  0  0  0  0  0  0  0  0  0  0
    2.0634   -1.9091    1.5970 C   0  0  0  0  0  0  0  0  0  0  0  0
    2.9562    0.7320   -1.7988 C   0  0  0  0  0  0  0  0  0  0  0  0
    1.1807   -2.2579   -0.6248 C   0  0  0  0  0  0  0  0  0  0  0  0
    3.8384    1.0811    0.4231 C   0  0  0  0  0  0  0  0  0  0  0  0
    1.0986    2.1641    1.2749 C   0  0  0  0  0  0  0  0  0  0  0  0
    2.1369   -3.2894    1.7845 C   0  0  0  0  0  0  0  0  0  0  0  0
    4.1410    1.2238   -2.3466 C   0  0  0  0  0  0  0  0  0  0  0  0
    1.2542   -3.6381   -0.4372 C   0  0  0  0  0  0  0  0  0  0  0  0
    5.0232    1.5730   -0.1247 C   0  0  0  0  0  0  0  0  0  0  0  0
    0.8134    2.8015    2.6181 C   0  0  0  0  0  0  0  0  0  0  0  0
    1.7323   -4.1538    0.7676 C   0  0  0  0  0  0  0  0  0  0  0  0
    5.1744    1.6444   -1.5096 C   0  0  0  0  0  0  0  0  0  0  0  0
  1 10  1  0
  1 14  1  0
  2 13  1  0
  2 21  1  0
  3 14  2  0
  4  5  1  0
  4  8  1  0
  4 11  1  0
  5  6  1  0
  5 10  1  0
  6  7  1  0
  7  9  1  0
  8  9  1  0
 11 12  1  0
 13 14  1  0
 13 15  1  0
 13 16  1  0
 15 17  2  0
 15 19  1  0
 16 18  2  0
 16 20  1  0
 17 22  1  0
 18 23  1  0
 19 24  2  0
 20 25  2  0
 21 26  1  0
 22 27  2  0
 23 28  2  0
 24 27  1  0
 25 28  1  0
M  END
>  <PUBCHEM_COMPOUND_CID>  (1) 
17980

>  <PUBCHEM_CONFORMER_RMSD>  (1) 
1

>  <PUBCHEM_CONFORMER_DIVERSEORDER>  (1) 
1
15
80
58
53
24
7
38
52
69
59
25
45
81
18
63
85
33
56
30
91
75
44
61
82
36
32
26
68
64
2
90
47
54
46
12
17
6
83
79
73
13
62
41
42
89
92
35
28
88
20
23
57
10
70
43
5
65
86
49
67
16
71
39
40
34
74
37
72
55
48
51
29
22
76
87
27
19
31
60
3
14
50
84
4
9
21
66
11
8
77
78

>  <PUBCHEM_MMFF94_PARTIAL_CHARGES>  (1) 
33
1 -0.43
10 0.28
11 0.27
13 0.63
14 0.66
15 -0.14
16 -0.14
17 -0.15
18 -0.15
19 -0.15
2 -0.56
20 -0.15
21 0.28
22 -0.15
23 -0.15
24 -0.15
25 -0.15
27 -0.15
28 -0.15
3 -0.57
4 -0.81
45 0.15
46 0.15
47 0.15
48 0.15
5 0.27
51 0.15
52 0.15
53 0.15
54 0.15
58 0.15
59 0.15
8 0.27

>  <PUBCHEM_EFFECTIVE_ROTOR_COUNT>  (1) 
10.2

>  <PUBCHEM_PHARMACOPHORE_FEATURES>  (1) 
6
1 2 acceptor
1 3 acceptor
1 4 cation
6 15 17 19 22 24 27 rings
6 16 18 20 23 25 28 rings
6 4 5 6 7 8 9 rings

>  <PUBCHEM_HEAVY_ATOM_COUNT>  (1) 
28

>  <PUBCHEM_ATOM_DEF_STEREO_COUNT>  (1) 
0

>  <PUBCHEM_ATOM_UDEF_STEREO_COUNT>  (1) 
1

>  <PUBCHEM_BOND_DEF_STEREO_COUNT>  (1) 
0

>  <PUBCHEM_BOND_UDEF_STEREO_COUNT>  (1) 
0

>  <PUBCHEM_ISOTOPIC_ATOM_COUNT>  (1) 
0

>  <PUBCHEM_COMPONENT_COUNT>  (1) 
1

>  <PUBCHEM_CACTVS_TAUTO_COUNT>  (1) 
1

>  <PUBCHEM_CONFORMER_ID>  (1) 
0000463C00000001

>  <PUBCHEM_MMFF94_ENERGY>  (1) 
75.1249

>  <PUBCHEM_FEATURE_SELFOVERLAP>  (1) 
30.447

>  <PUBCHEM_SHAPE_FINGERPRINT>  (1) 
10319688 77 17176861234183962938
10366900 7 18411132576277816561
10369192 42 17170709762535480174
10940486 97 17264987086781070262
11007060 377 18127135401466026000
11069576 57 18266730303550010287
11421498 54 18339093608954200713
11488393 25 17896034348208024586
12293681 160 18201175316416636512
12422481 6 17822558452963218810
12788726 201 17773048462029609473
13149001 5 17983307216110927984
133893 2 17679893430640829978
13533116 47 18340195320660013275
13583140 156 18343312479005515809
13631057 29 18195245740450021047
13911987 19 17968949715433333396
14068700 675 18052247398141905274
144659 39 16443066131596017897
14790565 3 18188782776241159780
15537594 2 18202013114201245881
17134984 74 17981858008647241887
17138139 8 17911215519885503535
17818456 19 17697315110625873913
1813 80 17831866750341778138
20645477 70 17968372356223322647
21054139 6 18268983344756586671
21421861 104 18195256507278235688
22393880 68 17918270965788894689
23557571 272 14996573858558388383
23559900 14 15792299167959584291
266924 1 18126302843567131208
32027 91 17169823380481900947
3380486 77 16552499338239406492
404807 78 17826790645176463491
44802255 64 17171274938374367222
6823239 73 16128370463319253347
7495541 125 12895352217820284981

>  <PUBCHEM_SHAPE_MULTIPOLES>  (1) 
553.64
11.46
3.68
2.33
13.46
4.36
-0.08
-4.75
-5.59
-3.7
1.86
0.29
-0.69
-2.89

>  <PUBCHEM_SHAPE_SELFOVERLAP>  (1) 
1165.323

>  <PUBCHEM_SHAPE_VOLUME>  (1) 
310.2

>  <PUBCHEM_COORDINATE_TYPE>  (1) 
2
5
10

$$$$
