18005
     RDKit          3D

 28 29  0  0  1  0  0  0  0  0999 V2000
    0.2448    1.2766   -0.7633 O   0  0  0  0  0  0  0  0  0  0  0  0
   -1.2475   -0.7325   -1.6952 O   0  0  0  0  0  0  0  0  0  0  0  0
   -1.8111    2.3061   -0.8077 O   0  0  0  0  0  0  0  0  0  0  0  0
    2.8540    1.7454    0.2751 N   0  0  0  0  0  0  0  0  0  0  0  0
    4.1467    1.0968    0.0895 C   0  0  0  0  0  0  0  0  0  0  0  0
    3.9667   -0.2602   -0.5890 C   0  0  0  0  0  0  0  0  0  0  0  0
    2.3831    2.3258   -0.9837 C   0  0  0  0  0  0  0  0  0  0  0  0
    5.3104   -0.9684   -0.7743 C   0  0  0  0  0  0  0  0  0  0  0  0
    2.9392    2.7779    1.3095 C   0  0  0  0  0  0  0  0  0  0  0  0
   -1.6796   -0.1138   -0.4662 C   0  0  0  0  0  0  0  0  0  0  0  0
    0.8777    2.5361   -0.9478 C   0  0  0  0  0  0  0  0  0  0  0  0
    5.1384   -2.3108   -1.4848 C   0  0  0  0  0  0  0  0  0  0  0  0
   -3.2047   -0.1736   -0.3509 C   0  0  0  0  0  0  0  0  0  0  0  0
   -1.0148   -0.8118    0.7225 C   0  0  0  0  0  0  0  0  0  0  0  0
   -1.1282    1.2936   -0.7086 C   0  0  0  0  0  0  0  0  0  0  0  0
    3.3631    2.1856    2.6428 C   0  0  0  0  0  0  0  0  0  0  0  0
    6.4674   -3.0326   -1.6410 C   0  0  0  0  0  0  0  0  0  0  0  0
   -3.8944    0.8422    0.3111 C   0  0  0  0  0  0  0  0  0  0  0  0
   -0.7170   -2.1730    0.6546 C   0  0  0  0  0  0  0  0  0  0  0  0
   -3.9051   -1.2435   -0.9083 C   0  0  0  0  0  0  0  0  0  0  0  0
   -0.7061   -0.0869    1.8737 C   0  0  0  0  0  0  0  0  0  0  0  0
   -5.2843    0.7881    0.4160 C   0  0  0  0  0  0  0  0  0  0  0  0
   -0.1108   -2.8091    1.7379 C   0  0  0  0  0  0  0  0  0  0  0  0
   -5.2950   -1.2976   -0.8036 C   0  0  0  0  0  0  0  0  0  0  0  0
   -0.0999   -0.7233    2.9568 C   0  0  0  0  0  0  0  0  0  0  0  0
   -1.8064   -0.0709   -2.8124 C   0  0  0  0  0  0  0  0  0  0  0  0
   -5.9845   -0.2817   -0.1414 C   0  0  0  0  0  0  0  0  0  0  0  0
    0.1977   -2.0844    2.8889 C   0  0  0  0  0  0  0  0  0  0  0  0
  1 11  1  0
  1 15  1  0
  2 10  1  0
  2 26  1  0
  3 15  2  0
  4  5  1  0
  4  7  1  0
  4  9  1  0
  5  6  1  0
  6  8  1  0
  7 11  1  0
  8 12  1  0
  9 16  1  0
 10 13  1  0
 10 14  1  0
 10 15  1  0
 12 17  1  0
 13 18  2  0
 13 20  1  0
 14 19  2  0
 14 21  1  0
 18 22  1  0
 19 23  1  0
 20 24  2  0
 21 25  2  0
 22 27  2  0
 23 28  2  0
 24 27  1  0
 25 28  1  0
M  END
>  <PUBCHEM_COMPOUND_CID>  (1) 
18005

>  <PUBCHEM_CONFORMER_RMSD>  (1) 
1.4

>  <PUBCHEM_CONFORMER_DIVERSEORDER>  (1) 
1
10
25
28
38
21
44
16
35
3
32
23
13
42
39
36
2
26
6
30
53
40
29
31
45
24
27
9
5
17
50
34
11
43
15
20
55
49
7
37
47
18
22
46
54
19
14
8
51
52
41
33
12
4
48

>  <PUBCHEM_MMFF94_PARTIAL_CHARGES>  (1) 
33
1 -0.43
10 0.63
11 0.28
13 -0.14
14 -0.14
15 0.66
18 -0.15
19 -0.15
2 -0.56
20 -0.15
21 -0.15
22 -0.15
23 -0.15
24 -0.15
25 -0.15
26 0.28
27 -0.15
28 -0.15
3 -0.57
4 -0.81
49 0.15
5 0.27
50 0.15
51 0.15
52 0.15
53 0.15
54 0.15
55 0.15
56 0.15
60 0.15
61 0.15
7 0.27
9 0.27

>  <PUBCHEM_EFFECTIVE_ROTOR_COUNT>  (1) 
13

>  <PUBCHEM_PHARMACOPHORE_FEATURES>  (1) 
6
1 17 hydrophobe
1 2 acceptor
1 3 acceptor
1 4 cation
6 13 18 20 22 24 27 rings
6 14 19 21 23 25 28 rings

>  <PUBCHEM_HEAVY_ATOM_COUNT>  (1) 
28

>  <PUBCHEM_ATOM_DEF_STEREO_COUNT>  (1) 
0

>  <PUBCHEM_ATOM_UDEF_STEREO_COUNT>  (1) 
0

>  <PUBCHEM_BOND_DEF_STEREO_COUNT>  (1) 
0

>  <PUBCHEM_BOND_UDEF_STEREO_COUNT>  (1) 
0

>  <PUBCHEM_ISOTOPIC_ATOM_COUNT>  (1) 
0

>  <PUBCHEM_COMPONENT_COUNT>  (1) 
1

>  <PUBCHEM_CACTVS_TAUTO_COUNT>  (1) 
1

>  <PUBCHEM_CONFORMER_ID>  (1) 
0000465500000001

>  <PUBCHEM_MMFF94_ENERGY>  (1) 
75.1241

>  <PUBCHEM_FEATURE_SELFOVERLAP>  (1) 
30.446

>  <PUBCHEM_SHAPE_FINGERPRINT>  (1) 
10816530 23 17766269161127173624
10930396 42 13613093493160483358
12166972 35 17346319276448268678
12467345 10 18060703879287803703
12633257 1 17605818442766156448
12788726 201 18041273365473823652
13512321 179 17481994432955271345
13533116 47 18130790091995490820
13583140 156 17414720066014657361
1361 2 18412265038726382774
13782708 43 15912479272879767711
14022347 108 17676205801453511068
14931854 50 17823426994262039630
17349148 13 14620251791578429857
19930381 70 18263361395748856502
20101258 96 17321235958458769947
20832881 197 18341619174531195696
21304303 282 15837913408654702673
21344244 181 18262804080982685243
21781051 124 16950855781533337339
23559900 14 18261681479599344932
3298306 158 17169245153207870279
3383291 50 18186526488476722658
3493558 16 16698665008421942697
3729539 64 17823420396870506538
404807 14 17196598610131942358
437815 12 18200604596851194934
59755656 215 18040710347369488287
6138700 20 18188214199895969342
9981440 41 16756333762324762969

>  <PUBCHEM_SHAPE_MULTIPOLES>  (1) 
553.64
12.03
3.32
2.63
3.81
0.06
1.57
-5.38
-5.55
4.77
0.35
1.15
-0.8
2.44

>  <PUBCHEM_SHAPE_SELFOVERLAP>  (1) 
1140.001

>  <PUBCHEM_SHAPE_VOLUME>  (1) 
317.9

>  <PUBCHEM_COORDINATE_TYPE>  (1) 
2
5
10

$$$$
