18003
     RDKit          3D

 28 29  0  0  1  0  0  0  0  0999 V2000
    0.7056   -0.4231    0.3539 O   0  0  0  0  0  0  0  0  0  0  0  0
   -1.6412   -0.8421    1.5578 O   0  0  0  0  0  0  0  0  0  0  0  0
   -0.4151   -1.4998   -1.3411 O   0  0  0  0  0  0  0  0  0  0  0  0
    4.3589   -0.9010    0.2571 N   0  0  0  0  0  0  0  0  0  0  0  0
    4.6008   -0.4596   -1.1164 C   0  0  0  0  0  0  0  0  0  0  0  0
    3.0673   -0.4068    0.7325 C   0  0  0  0  0  0  0  0  0  0  0  0
    4.6261    1.0740   -1.2151 C   0  0  0  0  0  0  0  0  0  0  0  0
    5.4353   -0.4468    1.1364 C   0  0  0  0  0  0  0  0  0  0  0  0
    5.9274   -1.0471   -1.5959 C   0  0  0  0  0  0  0  0  0  0  0  0
   -1.6725   -0.1686    0.2829 C   0  0  0  0  0  0  0  0  0  0  0  0
    1.9400   -0.9123   -0.1537 C   0  0  0  0  0  0  0  0  0  0  0  0
    4.8729    1.5911   -2.6266 C   0  0  0  0  0  0  0  0  0  0  0  0
   -2.9693   -0.5004   -0.4595 C   0  0  0  0  0  0  0  0  0  0  0  0
   -1.5360    1.3408    0.4950 C   0  0  0  0  0  0  0  0  0  0  0  0
    5.2324   -0.9476    2.5564 C   0  0  0  0  0  0  0  0  0  0  0  0
   -0.4214   -0.7930   -0.3402 C   0  0  0  0  0  0  0  0  0  0  0  0
   -2.9473   -0.5471   -1.8343 C   0  0  0  0  0  0  0  0  0  0  0  0
   -2.0570    1.8943    1.6419 C   0  0  0  0  0  0  0  0  0  0  0  0
   -4.1069   -0.7387    0.2764 C   0  0  0  0  0  0  0  0  0  0  0  0
   -0.8979    2.0866   -0.4691 C   0  0  0  0  0  0  0  0  0  0  0  0
   -1.7117   -2.2435    1.3856 C   0  0  0  0  0  0  0  0  0  0  0  0
   -4.1290   -0.8493   -2.5109 C   0  0  0  0  0  0  0  0  0  0  0  0
   -1.9327    3.2701    1.8353 C   0  0  0  0  0  0  0  0  0  0  0  0
   -5.2886   -1.0410   -0.4003 C   0  0  0  0  0  0  0  0  0  0  0  0
   -0.7735    3.4624   -0.2756 C   0  0  0  0  0  0  0  0  0  0  0  0
   -5.2997   -1.0963   -1.7940 C   0  0  0  0  0  0  0  0  0  0  0  0
   -1.2910    4.0542    0.8767 C   0  0  0  0  0  0  0  0  0  0  0  0
   -1.6761   -2.9095    2.7447 C   0  0  0  0  0  0  0  0  0  0  0  0
  1 11  1  0
  1 16  1  0
  2 10  1  0
  2 21  1  0
  3 16  2  0
  4  5  1  0
  4  6  1  0
  4  8  1  0
  5  7  1  0
  5  9  1  0
  6 11  1  0
  7 12  1  0
  8 15  1  0
 10 13  1  0
 10 14  1  0
 10 16  1  0
 13 17  2  0
 13 19  1  0
 14 18  2  0
 14 20  1  0
 17 22  1  0
 18 23  1  0
 19 24  2  0
 20 25  2  0
 21 28  1  0
 22 26  2  0
 23 27  2  0
 24 26  1  0
 25 27  1  0
M  END
>  <PUBCHEM_COMPOUND_CID>  (1) 
18003

>  <PUBCHEM_CONFORMER_RMSD>  (1) 
1

>  <PUBCHEM_CONFORMER_DIVERSEORDER>  (1) 
1
146
135
213
129
162
143
187
226
160
204
115
181
148
229
44
157
212
184
27
230
103
195
126
49
217
127
120
167
95
225
57
222
221
207
214
84
83
117
139
189
42
152
197
219
65
40
80
154
91
37
235
175
116
180
133
118
188
144
31
76
88
130
178
153
53
56
191
82
19
147
174
41
209
177
165
109
94
141
239
202
237
151
199
205
21
170
128
159
142
190
140
238
136
34
74
78
89
97
105
176
156
100
112
216
218
62
59
93
236
36
113
104
211
172
101
30
124
29
81
70
137
161
64
185
16
9
33
99
87
102
67
232
86
203
90
111
66
119
24
12
61
224
46
55
163
13
182
22
179
132
77
28
8
149
155
196
47
192
150
20
25
121
169
7
96
48
58
123
134
206
52
71
2
108
68
164
138
43
85
193
15
158
5
69
186
234
79
183
14
171
72
233
166
223
18
201
145
107
45
114
231
220
32
6
198
54
106
125
39
168
92
75
10
50
23
35
98
63
210
4
131
110
60
122
51
200
173
227
208
73
11
26
38
3
194
17
228
215

>  <PUBCHEM_MMFF94_PARTIAL_CHARGES>  (1) 
33
1 -0.43
10 0.63
11 0.28
13 -0.14
14 -0.14
16 0.66
17 -0.15
18 -0.15
19 -0.15
2 -0.56
20 -0.15
21 0.28
22 -0.15
23 -0.15
24 -0.15
25 -0.15
26 -0.15
27 -0.15
3 -0.57
4 -0.81
47 0.15
48 0.15
49 0.15
5 0.27
50 0.15
53 0.15
54 0.15
55 0.15
56 0.15
57 0.15
58 0.15
6 0.27
8 0.27

>  <PUBCHEM_EFFECTIVE_ROTOR_COUNT>  (1) 
12

>  <PUBCHEM_PHARMACOPHORE_FEATURES>  (1) 
6
1 12 hydrophobe
1 2 acceptor
1 3 acceptor
1 4 cation
6 13 17 19 22 24 26 rings
6 14 18 20 23 25 27 rings

>  <PUBCHEM_HEAVY_ATOM_COUNT>  (1) 
28

>  <PUBCHEM_ATOM_DEF_STEREO_COUNT>  (1) 
0

>  <PUBCHEM_ATOM_UDEF_STEREO_COUNT>  (1) 
1

>  <PUBCHEM_BOND_DEF_STEREO_COUNT>  (1) 
0

>  <PUBCHEM_BOND_UDEF_STEREO_COUNT>  (1) 
0

>  <PUBCHEM_ISOTOPIC_ATOM_COUNT>  (1) 
0

>  <PUBCHEM_COMPONENT_COUNT>  (1) 
1

>  <PUBCHEM_CACTVS_TAUTO_COUNT>  (1) 
1

>  <PUBCHEM_CONFORMER_ID>  (1) 
0000465300000001

>  <PUBCHEM_MMFF94_ENERGY>  (1) 
87.8469

>  <PUBCHEM_FEATURE_SELFOVERLAP>  (1) 
30.446

>  <PUBCHEM_SHAPE_FINGERPRINT>  (1) 
10366900 7 18411140234167653666
10369192 42 15696569269707740160
10670039 82 18341062835218083276
10906281 52 18265918933135820939
11101153 10 18343301509475087504
11578080 2 17315371468679564077
12788726 201 18408601435531993129
13149001 5 18118109502102837771
13583140 156 15792028774393499568
13782708 43 17060342903207062782
13911987 19 18336271244394577935
14294032 229 18126294034331575785
14347332 77 18130786694776807758
14556957 393 18410020935188143997
14840074 17 17846224392357025751
14910302 57 17203612571188340822
14955137 171 17988083430392493695
15840311 113 17131553942643705707
15849732 13 17489584576838294965
16992727 255 18047169888195146789
17349148 13 18260831479711939926
1813 80 17845930835743027181
20681651 13 17386015000459004698
21033648 29 14779556712081754204
23402539 116 18412819171185206971
23419403 2 17972890434559676499
23558518 356 18119250549784489371
23559900 14 18041548218169275890
283562 15 18340758239920701987
3633792 109 17532635867759796858
3729539 64 17894341198805461201
469060 322 18202285801120916083
531348 171 17843132411357908254
7399639 24 17417796345405014702

>  <PUBCHEM_SHAPE_MULTIPOLES>  (1) 
553.64
12.42
3.47
2.61
15.48
4.17
0.07
-5.08
-5.25
-2.6
1.98
0.65
-0.72
-2.14

>  <PUBCHEM_SHAPE_SELFOVERLAP>  (1) 
1150.947

>  <PUBCHEM_SHAPE_VOLUME>  (1) 
315.7

>  <PUBCHEM_COORDINATE_TYPE>  (1) 
2
5
10

$$$$
