18014
     RDKit          3D

 16 16  0  0  1  0  0  0  0  0999 V2000
   -1.8708    2.8231   -0.3651 Cl  0  0  0  0  0  0  0  0  0  0  0  0
   -1.7296    0.1207    0.9452 O   0  0  0  0  0  0  0  0  0  0  0  0
   -2.0768   -0.8772   -1.1260 O   0  0  0  0  0  0  0  0  0  0  0  0
   -3.6390   -1.0929    0.5756 N   0  0  0  0  0  0  0  0  0  0  0  0
    3.0654   -0.5210    0.3581 C   0  0  0  0  0  0  0  0  0  0  0  0
    2.9861   -1.8873   -0.3531 C   0  0  0  0  0  0  0  0  0  0  0  0
    1.8127    0.3193    0.1786 C   0  0  0  0  0  0  0  0  0  0  0  0
    3.3740   -0.7134    1.8479 C   0  0  0  0  0  0  0  0  0  0  0  0
    2.8585   -1.7672   -1.8668 C   0  0  0  0  0  0  0  0  0  0  0  0
    0.6074   -0.1667    0.6462 C   0  0  0  0  0  0  0  0  0  0  0  0
    1.9137    1.5463   -0.4474 C   0  0  0  0  0  0  0  0  0  0  0  0
   -0.5428    0.6052    0.4814 C   0  0  0  0  0  0  0  0  0  0  0  0
    0.7635    2.3182   -0.6122 C   0  0  0  0  0  0  0  0  0  0  0  0
   -0.4647    1.8476   -0.1479 C   0  0  0  0  0  0  0  0  0  0  0  0
   -2.4579   -0.6481    0.0181 C   0  0  0  0  0  0  0  0  0  0  0  0
   -4.5996   -1.9067   -0.1326 C   0  0  0  0  0  0  0  0  0  0  0  0
  1 14  1  0
  2 12  1  0
  2 15  1  0
  3 15  2  0
  4 15  1  0
  4 16  1  0
  5  6  1  0
  5  7  1  0
  5  8  1  0
  6  9  1  0
  7 10  2  0
  7 11  1  0
 10 12  1  0
 11 13  2  0
 12 14  2  0
 13 14  1  0
M  END
>  <PUBCHEM_COMPOUND_CID>  (1) 
18014

>  <PUBCHEM_CONFORMER_RMSD>  (1) 
0.6

>  <PUBCHEM_CONFORMER_DIVERSEORDER>  (1) 
1
75
123
57
39
168
145
140
199
74
59
189
56
202
122
146
97
100
171
83
200
163
221
175
219
46
107
207
139
128
138
72
16
205
162
114
111
184
209
182
185
96
152
195
89
197
71
48
63
156
116
106
190
105
154
217
211
126
70
144
95
110
58
117
164
108
166
104
129
147
173
76
196
169
206
193
127
90
155
142
13
137
134
44
150
125
149
51
93
136
118
92
98
148
170
28
159
91
124
54
119
218
38
78
19
120
177
23
80
130
167
215
102
181
15
40
109
20
113
158
188
33
172
143
66
86
191
220
82
213
21
14
79
32
43
36
135
42
52
161
131
204
22
84
121
55
73
176
53
67
212
31
192
214
6
47
165
37
101
35
87
68
88
157
153
62
85
179
174
49
99
223
216
29
4
198
151
160
141
45
7
94
222
77
203
69
25
194
180
61
186
34
201
65
27
41
17
64
187
210
24
115
81
5
26
132
178
60
183
2
30
112
9
8
103
12
18
3
133
10
50
11
208

>  <PUBCHEM_MMFF94_PARTIAL_CHARGES>  (1) 
17
1 -0.18
10 -0.15
11 -0.15
12 0.08
13 -0.15
14 0.18
15 0.78
16 0.3
2 -0.23
23 0.15
27 0.15
28 0.15
29 0.37
3 -0.57
4 -0.73
5 0.14
7 -0.14

>  <PUBCHEM_EFFECTIVE_ROTOR_COUNT>  (1) 
5

>  <PUBCHEM_PHARMACOPHORE_FEATURES>  (1) 
5
1 3 acceptor
1 4 donor
1 8 hydrophobe
1 9 hydrophobe
6 7 10 11 12 13 14 rings

>  <PUBCHEM_HEAVY_ATOM_COUNT>  (1) 
16

>  <PUBCHEM_ATOM_DEF_STEREO_COUNT>  (1) 
0

>  <PUBCHEM_ATOM_UDEF_STEREO_COUNT>  (1) 
1

>  <PUBCHEM_BOND_DEF_STEREO_COUNT>  (1) 
0

>  <PUBCHEM_BOND_UDEF_STEREO_COUNT>  (1) 
0

>  <PUBCHEM_ISOTOPIC_ATOM_COUNT>  (1) 
0

>  <PUBCHEM_COMPONENT_COUNT>  (1) 
1

>  <PUBCHEM_CACTVS_TAUTO_COUNT>  (1) 
2

>  <PUBCHEM_CONFORMER_ID>  (1) 
0000465E00000001

>  <PUBCHEM_MMFF94_ENERGY>  (1) 
35.6352

>  <PUBCHEM_FEATURE_SELFOVERLAP>  (1) 
25.371

>  <PUBCHEM_SHAPE_FINGERPRINT>  (1) 
10618630 7 18412829074915658714
11322862 65 17978515226181966189
11543360 7 14562822096220944267
11578080 2 17988063587401533153
116883 192 18410576154558575637
12202030 40 17915741968811987486
12363563 72 18333448733573990434
12553582 1 18269832171832849111
13083527 12 18189877877100624136
13583140 156 16199865068569654675
14178342 30 18192981626521324306
14252887 29 18342179998396755922
15342816 4 18261109690265955898
16945 1 18116721905222084904
20339313 130 18337675325190740731
20361792 2 18407759239684638615
20559304 39 18129668619893851904
20645476 183 16447318857999671592
20645477 70 18263925621607913603
20671657 53 18113612395874876177
20715346 28 17987789692941086232
20871998 22 18412547600107564714
20871999 31 18264222313463532110
21296965 67 18408316709470929857
21501502 16 18260833682909421276
2255824 54 17835523004729949365
23402539 116 18042974173434863630
23419403 2 17683760571533445756
23557571 272 18340484448835565168
23559900 14 17979350860110946182
2748010 2 18199463264715251670
276578 36 10447936082929596634
4463277 69 18060422400037445951
7364860 26 18198064874924802816
81228 2 18263923237363117905

>  <PUBCHEM_SHAPE_MULTIPOLES>  (1) 
314.42
6.65
2.78
1.28
3.76
1.35
0.06
-5.72
-0.32
1.25
0.87
-1.21
-0.53
0.38

>  <PUBCHEM_SHAPE_SELFOVERLAP>  (1) 
631.19

>  <PUBCHEM_SHAPE_VOLUME>  (1) 
186.6

>  <PUBCHEM_COORDINATE_TYPE>  (1) 
2
5
10

$$$$
