18012
     RDKit          3D

 10  9  0  0  0  0  0  0  0  0999 V2000
   -0.4100    0.0001    0.0671 Si  0  0  0  0  0  4  0  0  0  0  0  0
    3.6803   -0.0001   -0.5944 O   0  0  0  0  0  0  0  0  0  0  0  0
    1.2711    0.0195   -0.7635 C   0  0  0  0  0  0  0  0  0  0  0  0
   -1.7532   -0.0196   -1.2416 C   0  0  0  0  0  0  0  0  0  0  0  0
   -0.5599   -1.5310    1.1396 C   0  0  0  0  0  0  0  0  0  0  0  0
   -0.5986    1.5310    1.1335 C   0  0  0  0  0  0  0  0  0  0  0  0
    2.4801    0.0368    0.1680 C   0  0  0  0  0  0  0  0  0  0  0  0
   -3.1830   -0.0367   -0.7172 C   0  0  0  0  0  0  0  0  0  0  0  0
   -0.4271   -2.8614    0.4100 C   0  0  0  0  0  0  0  0  0  0  0  0
   -0.4996    2.8614    0.3985 C   0  0  0  0  0  0  0  0  0  0  0  0
  1  3  1  0
  1  4  1  0
  1  5  1  0
  1  6  1  0
  2  7  1  0
  3  7  1  0
  4  8  1  0
  5  9  1  0
  6 10  1  0
M  END
>  <PUBCHEM_COMPOUND_CID>  (1) 
18012

>  <PUBCHEM_CONFORMER_RMSD>  (1) 
0.6

>  <PUBCHEM_CONFORMER_DIVERSEORDER>  (1) 
1
28
41
6
36
44
25
32
39
22
33
26
29
43
45
35
30
23
9
14
17
7
19
4
37
34
38
27
31
15
5
21
8
40
18
42
13
46
47
11
24
16
12
2
10
3
20

>  <PUBCHEM_MMFF94_PARTIAL_CHARGES>  (1) 
8
1 0.32
2 -0.68
3 -0.08
30 0.4
4 -0.08
5 -0.08
6 -0.08
7 0.28

>  <PUBCHEM_EFFECTIVE_ROTOR_COUNT>  (1) 
5

>  <PUBCHEM_PHARMACOPHORE_FEATURES>  (1) 
2
1 2 acceptor
1 2 donor

>  <PUBCHEM_HEAVY_ATOM_COUNT>  (1) 
10

>  <PUBCHEM_ATOM_DEF_STEREO_COUNT>  (1) 
0

>  <PUBCHEM_ATOM_UDEF_STEREO_COUNT>  (1) 
0

>  <PUBCHEM_BOND_DEF_STEREO_COUNT>  (1) 
0

>  <PUBCHEM_BOND_UDEF_STEREO_COUNT>  (1) 
0

>  <PUBCHEM_ISOTOPIC_ATOM_COUNT>  (1) 
0

>  <PUBCHEM_COMPONENT_COUNT>  (1) 
1

>  <PUBCHEM_CACTVS_TAUTO_COUNT>  (1) 
1

>  <PUBCHEM_CONFORMER_ID>  (1) 
0000465C00000001

>  <PUBCHEM_MMFF94_ENERGY>  (1) 
-2.6742

>  <PUBCHEM_FEATURE_SELFOVERLAP>  (1) 
10.148

>  <PUBCHEM_SHAPE_FINGERPRINT>  (1) 
12423570 1 10150473369822371873
13024252 1 13118288104551650116
13380536 167 17692521222437424129
13380536 261 18124578800412306829
13380536 55 17833831573225003844
137420 1 17187235555455767603
14713566 1 18260545641059025402
15279308 128 18410293644199301859
16945 1 18339062852729699807
187816 3 18411133640944097486
20653085 51 16950568791570522868
21524375 3 17551535257366072880
228727 97 18341325587583023981
23402539 116 18342729707044748126
23552423 10 17905598909294274711
2748010 2 17981891044912494392
3250762 1 17689429808025225979
353137 74 18269267963643939813
4369600 1 18268691909813694763
54338 74 18410014333954940032
68250623 7 17838902525310700535
68419 9 17765981814628949273
81228 2 18201170874961438360

>  <PUBCHEM_SHAPE_MULTIPOLES>  (1) 
218.14
3.68
2.65
1.21
2.32
0
-0.03
-0.01
1.63
-0.73
-1.11
-0.3
0.01
-0.02

>  <PUBCHEM_SHAPE_SELFOVERLAP>  (1) 
374.495

>  <PUBCHEM_SHAPE_VOLUME>  (1) 
145.1

>  <PUBCHEM_COORDINATE_TYPE>  (1) 
2
5
10

$$$$
