18018
     RDKit          3D

 27 27  0  0  0  0  0  0  0  0999 V2000
    2.9634   -2.6346    0.3442 S   0  0  0  0  0  0  0  0  0  0  0  0
    0.4771    3.1689   -0.0897 O   0  0  0  0  0  0  0  0  0  0  0  0
    3.0962    2.1885    0.0678 O   0  0  0  0  0  0  0  0  0  0  0  0
    4.6170   -0.1374   -0.2573 O   0  0  0  0  0  0  0  0  0  0  0  0
    3.0056   -4.1105    1.0369 O   0  0  0  0  0  0  0  0  0  0  0  0
    2.1614   -2.7078   -0.8631 O   0  0  0  0  0  0  0  0  0  0  0  0
    2.7008   -1.6442    1.3720 O   0  0  0  0  0  0  0  0  0  0  0  0
   -4.3673    0.1809   -0.1978 C   0  0  0  0  0  0  0  0  0  0  0  0
   -3.1706   -2.2874   -0.0096 C   0  0  0  0  0  0  0  0  0  0  0  0
   -4.1677   -1.2964   -0.6960 C   0  0  0  0  0  0  0  0  0  0  0  0
   -3.0548    0.9900   -0.1689 C   0  0  0  0  0  0  0  0  0  0  0  0
   -5.1402    0.2007    1.1378 C   0  0  0  0  0  0  0  0  0  0  0  0
   -5.2976    0.8839   -1.2289 C   0  0  0  0  0  0  0  0  0  0  0  0
   -3.1854   -3.5953   -0.8392 C   0  0  0  0  0  0  0  0  0  0  0  0
   -3.6226   -2.6611    1.4156 C   0  0  0  0  0  0  0  0  0  0  0  0
   -1.7234   -1.7829    0.0368 C   0  0  0  0  0  0  0  0  0  0  0  0
   -2.6262    1.5804    1.0200 C   0  0  0  0  0  0  0  0  0  0  0  0
   -2.2965    1.1318   -1.3311 C   0  0  0  0  0  0  0  0  0  0  0  0
   -1.4392    2.3125    1.0467 C   0  0  0  0  0  0  0  0  0  0  0  0
   -1.1096    1.8638   -1.3043 C   0  0  0  0  0  0  0  0  0  0  0  0
   -0.6809    2.4542   -0.1154 C   0  0  0  0  0  0  0  0  0  0  0  0
    1.2021    3.1864    1.1391 C   0  0  0  0  0  0  0  0  0  0  0  0
    2.6832    3.3109    0.8379 C   0  0  0  0  0  0  0  0  0  0  0  0
    4.4806    2.2526   -0.2447 C   0  0  0  0  0  0  0  0  0  0  0  0
    4.8652    1.0220   -1.0432 C   0  0  0  0  0  0  0  0  0  0  0  0
    4.9604   -1.3247   -0.9581 C   0  0  0  0  0  0  0  0  0  0  0  0
    4.6688   -2.5453   -0.1073 C   0  0  0  0  0  0  0  0  0  0  0  0
  1  5  1  0
  1  6  2  0
  1  7  2  0
  1 27  1  0
  2 21  1  0
  2 22  1  0
  3 23  1  0
  3 24  1  0
  4 25  1  0
  4 26  1  0
  8 10  1  0
  8 11  1  0
  8 12  1  0
  8 13  1  0
  9 10  1  0
  9 14  1  0
  9 15  1  0
  9 16  1  0
 11 17  2  0
 11 18  1  0
 17 19  1  0
 18 20  2  0
 19 21  2  0
 20 21  1  0
 22 23  1  0
 24 25  1  0
 26 27  1  0
M  END
>  <PUBCHEM_COMPOUND_CID>  (1) 
18018

>  <PUBCHEM_CONFORMER_RMSD>  (1) 
1.2

>  <PUBCHEM_CONFORMER_DIVERSEORDER>  (1) 
1
25
7
45
9
16
5
13
38
6
20
40
17
31
22
32
18
8
43
41
14
46
42
33
47
23
36
4
30
2
19
44
35
37
34
26
27
28
24
3
12
15
11
21
10
29
39

>  <PUBCHEM_MMFF94_PARTIAL_CHARGES>  (1) 
25
1 1.38
11 -0.14
17 -0.15
18 -0.15
19 -0.15
2 -0.36
20 -0.15
21 0.08
22 0.28
23 0.28
24 0.28
25 0.28
26 0.28
27 0.11
3 -0.56
4 -0.56
45 0.15
46 0.15
47 0.15
48 0.15
5 -0.68
6 -0.65
61 0.5
7 -0.65
8 0.14

>  <PUBCHEM_EFFECTIVE_ROTOR_COUNT>  (1) 
13

>  <PUBCHEM_PHARMACOPHORE_FEATURES>  (1) 
10
1 2 acceptor
1 3 acceptor
1 4 acceptor
1 5 acceptor
1 6 acceptor
1 7 acceptor
3 8 12 13 hydrophobe
4 1 5 6 7 anion
4 9 14 15 16 hydrophobe
6 11 17 18 19 20 21 rings

>  <PUBCHEM_HEAVY_ATOM_COUNT>  (1) 
27

>  <PUBCHEM_ATOM_DEF_STEREO_COUNT>  (1) 
0

>  <PUBCHEM_ATOM_UDEF_STEREO_COUNT>  (1) 
0

>  <PUBCHEM_BOND_DEF_STEREO_COUNT>  (1) 
0

>  <PUBCHEM_BOND_UDEF_STEREO_COUNT>  (1) 
0

>  <PUBCHEM_ISOTOPIC_ATOM_COUNT>  (1) 
0

>  <PUBCHEM_COMPONENT_COUNT>  (1) 
1

>  <PUBCHEM_CACTVS_TAUTO_COUNT>  (1) 
1

>  <PUBCHEM_CONFORMER_ID>  (1) 
0000466200000001

>  <PUBCHEM_MMFF94_ENERGY>  (1) 
83.8863

>  <PUBCHEM_FEATURE_SELFOVERLAP>  (1) 
50.811

>  <PUBCHEM_SHAPE_FINGERPRINT>  (1) 
11186622 123 18339640143858796030
13383661 66 17760100904847413683
13402501 40 18337675346903051324
20764821 26 18411133654156417130
21623110 236 18411706456769791299
23559900 14 18340761649951259137
325973 47 18196938773154880726
3729539 64 18264197033586812021
3737641 26 18338243751021872632
444735 86 18124300864415159182
463206 1 18338524040962318408
6433294 58 18410855469140122062
86090 222 18049443944006269066

>  <PUBCHEM_SHAPE_MULTIPOLES>  (1) 
524.28
12.31
5.47
1.33
4.94
1.98
-0.06
4.18
1.7
3.62
-1.15
-0.55
-0.05
0.12

>  <PUBCHEM_SHAPE_SELFOVERLAP>  (1) 
1030.939

>  <PUBCHEM_SHAPE_VOLUME>  (1) 
317.1

>  <PUBCHEM_COORDINATE_TYPE>  (1) 
2
5
10

$$$$
