18025
     RDKit          3D

 15 14  0  0  0  0  0  0  0  0999 V2000
   -1.0298   -0.4829   -0.0377 O   0  0  0  0  0  0  0  0  0  0  0  0
    0.0499    1.5555   -0.0384 O   0  0  0  0  0  0  0  0  0  0  0  0
   -4.7199   -0.1400    0.0215 N   0  0  0  0  0  0  0  0  0  0  0  0
   -3.4107   -0.8402    0.0176 C   0  0  0  0  0  0  0  0  0  0  0  0
   -4.8662    0.7342    1.2743 C   0  0  0  0  0  0  0  0  0  0  0  0
   -4.8572    0.7644   -1.2108 C   0  0  0  0  0  0  0  0  0  0  0  0
   -5.8769   -1.1483    0.0050 C   0  0  0  0  0  0  0  0  0  0  0  0
   -2.2947    0.1857    0.0028 C   0  0  0  0  0  0  0  0  0  0  0  0
    3.8568   -0.5876   -0.0104 C   0  0  0  0  0  0  0  0  0  0  0  0
    2.6044    0.2941    0.0087 C   0  0  0  0  0  0  0  0  0  0  0  0
    5.1311    0.2581    0.0345 C   0  0  0  0  0  0  0  0  0  0  0  0
    1.3143   -0.5226   -0.0635 C   0  0  0  0  0  0  0  0  0  0  0  0
    6.3821   -0.6187   -0.0131 C   0  0  0  0  0  0  0  0  0  0  0  0
    0.0663    0.3323   -0.0547 C   0  0  0  0  0  0  0  0  0  0  0  0
    7.6506    0.2159    0.0643 C   0  0  0  0  0  0  0  0  0  0  0  0
  1  8  1  0
  1 14  1  0
  2 14  2  0
  3  4  1  0
  3  5  1  0
  3  6  1  0
  3  7  1  0
  4  8  1  0
  9 10  1  0
  9 11  1  0
 10 12  1  0
 11 13  1  0
 12 14  1  0
 13 15  1  0
M  CHG  1   3   1
M  END
>  <PUBCHEM_COMPOUND_CID>  (1) 
18025

>  <PUBCHEM_CONFORMER_RMSD>  (1) 
0.8

>  <PUBCHEM_CONFORMER_DIVERSEORDER>  (1) 
1
127
295
213
205
165
257
41
57
281
186
72
325
276
96
98
340
250
266
202
193
217
60
36
268
21
183
88
239
245
264
66
232
101
345
244
3
177
22
214
144
211
47
255
159
19
334
53
179
327
227
89
27
191
275
288
9
354
291
77
172
206
262
168
237
15
184
170
141
304
299
55
200
236
52
37
261
292
173
180
70
256
58
14
138
185
59
283
312
216
24
30
220
93
5
71
248
270
301
297
20
17
330
335
166
176
212
126
326
259
224
118
110
308
6
208
243
130
197
134
114
246
190
349
104
7
339
167
223
122
317
61
192
35
298
128
293
16
242
331
100
62
203
271
320
64
175
81
314
307
210
84
350
103
33
49
8
74
198
194
115
355
108
252
240
94
356
300
12
321
315
65
313
112
13
196
284
129
92
171
263
267
280
337
120
182
83
161
332
274
102
233
44
31
143
133
91
131
344
111
11
86
23
209
148
73
95
174
151
341
69
4
125
309
346
109
225
222
306
178
147
310
146
333
251
38
238
2
121
348
75
305
123
145
226
18
163
45
132
351
249
169
32
154
106
40
322
329
207
136
294
352
319
279
87
241
181
80
162
68
117
105
316
113
303
215
67
323
277
201
229
296
158
119
90
25
230
278
43
28
116
199
156
282
63
234
157
149
39
82
311
54
342
56
324
97
218
195
34
142
48
79
189
228
272
204
318
253
188
150
221
328
10
153
285
137
99
139
265
26
286
219
338
152
135
254
247
78
187
231
29
164
124
46
50
343
160
51
76
258
140
235
273
290
269
302
287
289
347
85
42
353
107
260
155
336

>  <PUBCHEM_MMFF94_PARTIAL_CHARGES>  (1) 
10
1 -0.43
12 0.06
14 0.66
2 -0.57
3 -1.01
4 0.5
5 0.5
6 0.5
7 0.5
8 0.28

>  <PUBCHEM_EFFECTIVE_ROTOR_COUNT>  (1) 
9

>  <PUBCHEM_PHARMACOPHORE_FEATURES>  (1) 
4
1 15 hydrophobe
1 2 acceptor
1 3 cation
5 9 10 11 12 13 hydrophobe

>  <PUBCHEM_HEAVY_ATOM_COUNT>  (1) 
15

>  <PUBCHEM_ATOM_DEF_STEREO_COUNT>  (1) 
0

>  <PUBCHEM_ATOM_UDEF_STEREO_COUNT>  (1) 
0

>  <PUBCHEM_BOND_DEF_STEREO_COUNT>  (1) 
0

>  <PUBCHEM_BOND_UDEF_STEREO_COUNT>  (1) 
0

>  <PUBCHEM_ISOTOPIC_ATOM_COUNT>  (1) 
0

>  <PUBCHEM_COMPONENT_COUNT>  (1) 
1

>  <PUBCHEM_CACTVS_TAUTO_COUNT>  (1) 
1

>  <PUBCHEM_CONFORMER_ID>  (1) 
0000466900000001

>  <PUBCHEM_MMFF94_ENERGY>  (1) 
25.1457

>  <PUBCHEM_FEATURE_SELFOVERLAP>  (1) 
20.297

>  <PUBCHEM_SHAPE_FINGERPRINT>  (1) 
10968037 39 18408886243603843646
11287383 113 15140687998514270724
11315181 36 18343866636807447393
12091667 2 17603304851799828375
12815109 37 18408322185812584534
13288520 33 18408603682575387623
13533116 47 15123517961286248846
14123238 8 15574712495301154123
1420 363 18341897385680719606
14251718 22 18187081754405888614
14251731 8 18186517700413776717
14251764 18 18343586260751553155
14251764 46 17917993884510648903
17093844 174 17530962488656244921
17834076 25 18343021099180163630
18006028 8 18202280308047966472
187816 3 16950284005385081840
19489759 90 16950281797771852661
22224240 67 17060331938645912614
23035841 295 18334294266927347090
23402539 116 18412822490783307903
23521765 1 18341894100030712078
23536379 177 15791728586123019388
23559900 14 18271238421819956368
42788 4 18335420175249777974
4463277 17 18412262839955749744
8209 1 18335138699993609439

>  <PUBCHEM_SHAPE_MULTIPOLES>  (1) 
291.97
19.29
1.05
0.82
19.52
0.06
0.02
-1.67
0.43
-0.78
-0.01
-1.04
0.16
0.02

>  <PUBCHEM_SHAPE_SELFOVERLAP>  (1) 
533.787

>  <PUBCHEM_SHAPE_VOLUME>  (1) 
188.3

>  <PUBCHEM_COORDINATE_TYPE>  (1) 
2
5
10

$$$$
