18037
     RDKit          3D

 22 23  0  0  1  0  0  0  0  0999 V2000
   -3.0542    0.3202    0.0355 N   0  0  0  0  0  0  0  0  0  0  0  0
    0.6696    0.0818    0.4187 N   0  0  0  0  0  0  0  0  0  0  0  0
    1.4438    1.2920    0.2441 C   0  0  0  0  0  0  0  0  0  0  0  0
   -1.6356    0.2498   -0.3952 C   0  0  0  0  0  0  0  0  0  0  0  0
   -0.7294    0.2045    0.8223 C   0  0  0  0  0  0  0  0  0  0  0  0
    1.9096    1.3925   -1.2100 C   0  0  0  0  0  0  0  0  0  0  0  0
    2.6304    1.2895    1.2109 C   0  0  0  0  0  0  0  0  0  0  0  0
   -3.9911    0.3671   -1.1793 C   0  0  0  0  0  0  0  0  0  0  0  0
   -3.3054    1.5765    0.8807 C   0  0  0  0  0  0  0  0  0  0  0  0
   -3.4289   -0.9057    0.8799 C   0  0  0  0  0  0  0  0  0  0  0  0
    2.8135    2.6038   -1.4260 C   0  0  0  0  0  0  0  0  0  0  0  0
    3.5321    2.5020    0.9929 C   0  0  0  0  0  0  0  0  0  0  0  0
    3.9936    2.6051   -0.4582 C   0  0  0  0  0  0  0  0  0  0  0  0
    1.2340   -1.1789    0.1963 C   0  0  0  0  0  0  0  0  0  0  0  0
   -3.8206   -0.8994   -1.9894 C   0  0  0  0  0  0  0  0  0  0  0  0
   -2.9434    2.8024    0.0709 C   0  0  0  0  0  0  0  0  0  0  0  0
   -4.8892   -0.8171    1.2661 C   0  0  0  0  0  0  0  0  0  0  0  0
    1.8616   -1.8692    1.2410 C   0  0  0  0  0  0  0  0  0  0  0  0
    1.1785   -1.7659   -1.0742 C   0  0  0  0  0  0  0  0  0  0  0  0
    2.4247   -3.1258    1.0189 C   0  0  0  0  0  0  0  0  0  0  0  0
    1.7416   -3.0227   -1.2962 C   0  0  0  0  0  0  0  0  0  0  0  0
    2.3647   -3.7026   -0.2497 C   0  0  0  0  0  0  0  0  0  0  0  0
  1  4  1  0
  1  8  1  0
  1  9  1  0
  1 10  1  0
  2  3  1  0
  2  5  1  0
  2 14  1  0
  3  6  1  0
  3  7  1  0
  4  5  1  0
  6 11  1  0
  7 12  1  0
  8 15  1  0
  9 16  1  0
 10 17  1  0
 11 13  1  0
 12 13  1  0
 14 18  2  0
 14 19  1  0
 18 20  1  0
 19 21  2  0
 20 22  2  0
 21 22  1  0
M  CHG  1   1   1
M  END
>  <PUBCHEM_COMPOUND_CID>  (1) 
18037

>  <PUBCHEM_CONFORMER_RMSD>  (1) 
1

>  <PUBCHEM_CONFORMER_DIVERSEORDER>  (1) 
1
11
20
10
9
19
13
2
6
8
4
18
17
16
7
15
12
14
5
3

>  <PUBCHEM_MMFF94_PARTIAL_CHARGES>  (1) 
19
1 -1.01
10 0.5
14 0.1
18 -0.15
19 -0.15
2 -0.84
20 -0.15
21 -0.15
22 -0.15
3 0.37
4 0.5
5 0.37
53 0.15
54 0.15
55 0.15
56 0.15
57 0.15
8 0.5
9 0.5

>  <PUBCHEM_EFFECTIVE_ROTOR_COUNT>  (1) 
9.2

>  <PUBCHEM_PHARMACOPHORE_FEATURES>  (1) 
4
1 1 cation
1 2 cation
6 14 18 19 20 21 22 rings
6 3 6 7 11 12 13 rings

>  <PUBCHEM_HEAVY_ATOM_COUNT>  (1) 
22

>  <PUBCHEM_ATOM_DEF_STEREO_COUNT>  (1) 
0

>  <PUBCHEM_ATOM_UDEF_STEREO_COUNT>  (1) 
0

>  <PUBCHEM_BOND_DEF_STEREO_COUNT>  (1) 
0

>  <PUBCHEM_BOND_UDEF_STEREO_COUNT>  (1) 
0

>  <PUBCHEM_ISOTOPIC_ATOM_COUNT>  (1) 
0

>  <PUBCHEM_COMPONENT_COUNT>  (1) 
1

>  <PUBCHEM_CACTVS_TAUTO_COUNT>  (1) 
1

>  <PUBCHEM_CONFORMER_ID>  (1) 
0000467500000001

>  <PUBCHEM_MMFF94_ENERGY>  (1) 
88.4618

>  <PUBCHEM_FEATURE_SELFOVERLAP>  (1) 
20.297

>  <PUBCHEM_SHAPE_FINGERPRINT>  (1) 
10764073 3 15433924378314374568
11578080 2 17024583396241844190
11582403 64 16125521740804064600
121448 382 17841137067755737182
12422481 6 18051099568558765730
12553582 1 17756990008579695611
12707595 3 18191592938930335779
12788726 201 17038106113611391306
13004483 165 17402329270239539250
13140716 1 17907580581762042793
13257819 37 17828229879825679612
133893 2 18262817172021033984
13533116 47 18411421670900705809
13681431 1 18267588992398289198
13911987 19 18046623688233942709
14181834 199 18340476773380938438
14347424 109 18268730341966966011
14955137 171 18271807870402099458
15502722 9 18409174311181306322
15842332 3 17917428692700194257
15906896 17 17686342375449034298
16752209 62 17761765565884161378
17492 89 18341604868470217775
17980427 23 18056457483718840946
1813 80 17979638935629471054
20197701 30 18267014136985349576
20567600 347 18337962310579070882
20600515 1 17621888586894957610
20645477 70 18339066121727664175
21033648 29 13480234202975208277
21524375 3 18265899240558106328
2255824 54 18337955588723325918
23366157 5 18261116218774014096
23419403 2 17606934249858192886
23557571 272 16877946040408945679
23558518 356 18335703789531639585
23559900 14 18263923250732842219
312423 11 18342743966773955569
314173 41 17978239261632933067
404807 78 17395546838797296879
458136 41 18340779233377953354
469060 322 17833833046979366555
59755656 215 18334301980240035737
6049 1 17968383329969797837
6138700 20 18337965485435583270
633830 44 17773327930929472953
6669772 16 18269564987103798086
7364860 26 18341614776552944578
7615 1 18130779015501577237
81228 2 17117208295848974082
81539 233 18335418019170998546
9709674 26 18338510829732365691
9981440 41 18337664342669585464

>  <PUBCHEM_SHAPE_MULTIPOLES>  (1) 
442.79
8.34
4.27
1.59
8.17
1.88
-0.36
-2.79
0.26
-5.53
-0.35
0.38
0.22
-0.4

>  <PUBCHEM_SHAPE_SELFOVERLAP>  (1) 
889.192

>  <PUBCHEM_SHAPE_VOLUME>  (1) 
257.2

>  <PUBCHEM_COORDINATE_TYPE>  (1) 
2
5
10

$$$$
