18039
     RDKit          3D

 19 20  0  0  1  0  0  0  0  0999 V2000
   -0.0550   -0.1309    0.3873 N   0  0  0  0  0  0  0  0  0  0  0  0
    3.6519   -0.5014   -0.0509 N   0  0  0  0  0  0  0  0  0  0  0  0
   -0.8721   -1.3168    0.2453 C   0  0  0  0  0  0  0  0  0  0  0  0
   -2.0419   -1.2584    1.2307 C   0  0  0  0  0  0  0  0  0  0  0  0
   -1.3649   -1.4252   -1.1993 C   0  0  0  0  0  0  0  0  0  0  0  0
   -2.9874   -2.4431    1.0474 C   0  0  0  0  0  0  0  0  0  0  0  0
   -2.3124   -2.6085   -1.3805 C   0  0  0  0  0  0  0  0  0  0  0  0
   -3.4758   -2.5541   -0.3943 C   0  0  0  0  0  0  0  0  0  0  0  0
    1.3456   -0.2943    0.7706 C   0  0  0  0  0  0  0  0  0  0  0  0
    2.2296   -0.3901   -0.4602 C   0  0  0  0  0  0  0  0  0  0  0  0
   -0.5803    1.1444    0.1527 C   0  0  0  0  0  0  0  0  0  0  0  0
    3.8716   -1.7427    0.8248 C   0  0  0  0  0  0  0  0  0  0  0  0
    4.5649   -0.6163   -1.2793 C   0  0  0  0  0  0  0  0  0  0  0  0
    4.0862    0.7321    0.7526 C   0  0  0  0  0  0  0  0  0  0  0  0
   -1.1669    1.8721    1.1957 C   0  0  0  0  0  0  0  0  0  0  0  0
   -0.5251    1.7094   -1.1277 C   0  0  0  0  0  0  0  0  0  0  0  0
   -1.6898    3.1440    0.9623 C   0  0  0  0  0  0  0  0  0  0  0  0
   -1.0479    2.9812   -1.3612 C   0  0  0  0  0  0  0  0  0  0  0  0
   -1.6304    3.6985   -0.3161 C   0  0  0  0  0  0  0  0  0  0  0  0
  1  3  1  0
  1  9  1  0
  1 11  1  0
  2 10  1  0
  2 12  1  0
  2 13  1  0
  2 14  1  0
  3  4  1  0
  3  5  1  0
  4  6  1  0
  5  7  1  0
  6  8  1  0
  7  8  1  0
  9 10  1  0
 11 15  2  0
 11 16  1  0
 15 17  1  0
 16 18  2  0
 17 19  2  0
 18 19  1  0
M  CHG  1   2   1
M  END
>  <PUBCHEM_COMPOUND_CID>  (1) 
18039

>  <PUBCHEM_CONFORMER_RMSD>  (1) 
0.8

>  <PUBCHEM_CONFORMER_DIVERSEORDER>  (1) 
1
3
12
10
11
8
5
9
4
7
2
6

>  <PUBCHEM_MMFF94_PARTIAL_CHARGES>  (1) 
19
1 -0.84
10 0.5
11 0.1
12 0.5
13 0.5
14 0.5
15 -0.15
16 -0.15
17 -0.15
18 -0.15
19 -0.15
2 -1.01
3 0.37
44 0.15
45 0.15
46 0.15
47 0.15
48 0.15
9 0.37

>  <PUBCHEM_EFFECTIVE_ROTOR_COUNT>  (1) 
6.2

>  <PUBCHEM_PHARMACOPHORE_FEATURES>  (1) 
4
1 1 cation
1 2 cation
6 11 15 16 17 18 19 rings
6 3 4 5 6 7 8 rings

>  <PUBCHEM_HEAVY_ATOM_COUNT>  (1) 
19

>  <PUBCHEM_ATOM_DEF_STEREO_COUNT>  (1) 
0

>  <PUBCHEM_ATOM_UDEF_STEREO_COUNT>  (1) 
0

>  <PUBCHEM_BOND_DEF_STEREO_COUNT>  (1) 
0

>  <PUBCHEM_BOND_UDEF_STEREO_COUNT>  (1) 
0

>  <PUBCHEM_ISOTOPIC_ATOM_COUNT>  (1) 
0

>  <PUBCHEM_COMPONENT_COUNT>  (1) 
1

>  <PUBCHEM_CACTVS_TAUTO_COUNT>  (1) 
1

>  <PUBCHEM_CONFORMER_ID>  (1) 
0000467700000001

>  <PUBCHEM_MMFF94_ENERGY>  (1) 
71.9038

>  <PUBCHEM_FEATURE_SELFOVERLAP>  (1) 
20.297

>  <PUBCHEM_SHAPE_FINGERPRINT>  (1) 
10670039 82 18189909785215091340
11045515 52 18263074590664431919
11101153 10 18190469445070349076
11578080 2 17702364316748916801
12173636 292 18054504699560672608
12553582 1 18265339576154823018
12643181 29 17765438639703238574
12714826 92 18272937102886922746
12788726 201 18335412435624161635
13004483 165 18339632421333680579
13134695 92 18053379083506007567
13681431 1 17975972390678350413
13911987 19 17681561656004874270
13931106 250 17986929921845360310
13955234 65 17401210465993333379
14178342 30 18335689500307496562
14251757 17 16589974147778169910
15842332 3 17822294523065309162
15906896 17 18264485083731171683
17357779 13 18270384113869272383
17539 30 18411692175792496829
1813 80 18197228146296529567
18785283 64 17178843039383402123
20361792 2 18267581497290409439
20600515 1 17753025457280492344
20645476 183 17977653221961143392
20711985 344 18336250280532299923
21041028 32 18264782136949670107
21202864 24 18269573649404162905
21304303 282 17467582149847670460
21524375 3 17903353706402669672
21731228 192 17832707872351894936
22112679 90 18122654831083712837
22907989 373 18411423886418399148
23175994 123 18189336947465816427
23419403 2 17559086960976034201
23557571 272 18339635746054689652
23558518 356 18041278760511371442
23598288 3 18338511929086121002
283562 15 18335697260896980738
312423 11 18260272941259831822
3729539 64 16827588124131365078
458136 41 17549550604576130065
532947 4 17403178591538149996
5845 1 11388370226670481473
6049 1 17988926661263474448
6786 2 17694238676774539737
6992083 37 17987527085719342219
7164475 11 18335414652180635958
7364860 26 17547568636013737323
7399639 24 18130499855855104554
7615 1 17749668507306476834
81228 2 18335419062573790648
84936 31 17331950033419386677

>  <PUBCHEM_SHAPE_MULTIPOLES>  (1) 
381.05
6.61
4.35
1.45
9.66
3.31
-0.18
-4.81
-0.04
-5.19
-0.47
-0.28
-0.03
-0.18

>  <PUBCHEM_SHAPE_SELFOVERLAP>  (1) 
768.408

>  <PUBCHEM_SHAPE_VOLUME>  (1) 
222.4

>  <PUBCHEM_COORDINATE_TYPE>  (1) 
2
5
10

$$$$
