18031
     RDKit          3D

 16 17  0  0  0  0  0  0  0  0999 V2000
   -2.6712    2.6128   -0.6395 Cl  0  0  0  0  0  0  0  0  0  0  0  0
    4.2237    1.6406    0.2758 F   0  0  0  0  0  0  0  0  0  0  0  0
    2.6295   -2.5560   -0.5850 F   0  0  0  0  0  0  0  0  0  0  0  0
   -0.3443    0.8833    0.2886 N   0  0  0  0  0  0  0  0  0  0  0  0
    1.1239   -0.8894   -0.1578 N   0  0  0  0  0  0  0  0  0  0  0  0
    1.9608    1.3137    0.2942 N   0  0  0  0  0  0  0  0  0  0  0  0
    3.4883   -0.4800   -0.1607 N   0  0  0  0  0  0  0  0  0  0  0  0
   -1.6020    0.2455    0.1983 C   0  0  0  0  0  0  0  0  0  0  0  0
   -2.7390    0.9394   -0.2162 C   0  0  0  0  0  0  0  0  0  0  0  0
   -1.6930   -1.1058    0.5325 C   0  0  0  0  0  0  0  0  0  0  0  0
    0.9729    0.4147    0.1352 C   0  0  0  0  0  0  0  0  0  0  0  0
   -3.9667    0.2820   -0.2964 C   0  0  0  0  0  0  0  0  0  0  0  0
   -2.9208   -1.7630    0.4523 C   0  0  0  0  0  0  0  0  0  0  0  0
   -4.0576   -1.0692    0.0379 C   0  0  0  0  0  0  0  0  0  0  0  0
    3.1890    0.7958    0.1318 C   0  0  0  0  0  0  0  0  0  0  0  0
    2.4064   -1.2646   -0.2909 C   0  0  0  0  0  0  0  0  0  0  0  0
  1  9  1  0
  2 15  1  0
  3 16  1  0
  4  8  1  0
  4 11  1  0
  5 11  2  0
  5 16  1  0
  6 11  1  0
  6 15  2  0
  7 15  1  0
  7 16  2  0
  8  9  2  0
  8 10  1  0
  9 12  1  0
 10 13  2  0
 12 14  2  0
 13 14  1  0
M  END
>  <PUBCHEM_COMPOUND_CID>  (1) 
18031

>  <PUBCHEM_CONFORMER_RMSD>  (1) 
0.6

>  <PUBCHEM_CONFORMER_DIVERSEORDER>  (1) 
1
7
3
8
2
6
4
5

>  <PUBCHEM_MMFF94_PARTIAL_CHARGES>  (1) 
21
1 -0.18
10 -0.15
11 0.72
12 -0.15
13 -0.15
14 -0.15
15 0.81
16 0.81
17 0.4
18 0.15
19 0.15
2 -0.19
20 0.15
21 0.15
3 -0.19
4 -0.6
5 -0.62
6 -0.62
7 -0.62
8 0.1
9 0.18

>  <PUBCHEM_EFFECTIVE_ROTOR_COUNT>  (1) 
2

>  <PUBCHEM_PHARMACOPHORE_FEATURES>  (1) 
4
1 4 donor
4 4 5 6 11 cation
6 5 6 7 11 15 16 rings
6 8 9 10 12 13 14 rings

>  <PUBCHEM_HEAVY_ATOM_COUNT>  (1) 
16

>  <PUBCHEM_ATOM_DEF_STEREO_COUNT>  (1) 
0

>  <PUBCHEM_ATOM_UDEF_STEREO_COUNT>  (1) 
0

>  <PUBCHEM_BOND_DEF_STEREO_COUNT>  (1) 
0

>  <PUBCHEM_BOND_UDEF_STEREO_COUNT>  (1) 
0

>  <PUBCHEM_ISOTOPIC_ATOM_COUNT>  (1) 
0

>  <PUBCHEM_COMPONENT_COUNT>  (1) 
1

>  <PUBCHEM_CACTVS_TAUTO_COUNT>  (1) 
3

>  <PUBCHEM_CONFORMER_ID>  (1) 
0000466F00000001

>  <PUBCHEM_MMFF94_ENERGY>  (1) 
45.2702

>  <PUBCHEM_FEATURE_SELFOVERLAP>  (1) 
20.297

>  <PUBCHEM_SHAPE_FINGERPRINT>  (1) 
10608611 8 18410290294029969325
10922523 26 18408887308792585015
11615757 297 17418098753493091953
12173636 292 18261951839395924405
13296908 3 18342459209804141591
14144814 61 18410576171453361297
15196674 1 18411138043417697771
15219456 202 18411700984580477547
15375358 24 18336262430984269619
15375462 6 18411699906570229125
15442244 35 18195529181851138666
15536298 74 18341896277125638914
17834074 16 18411139138576199567
18186145 218 18189051989022319245
19049666 15 18339078185905436305
19141452 34 18270687588539463059
19591789 44 15595564016447386043
200 152 17846776338904901359
20201158 50 18411983576391382947
20279233 1 18409169930288349210
20510252 161 18410573964315301745
20645477 56 18261393300279275485
20645477 70 18202566150668911374
221490 88 18411708660120052398
23402539 116 18115013216828265805
23402655 69 18343298154582909285
23557571 272 18113898264698388269
23559900 14 18268986480335841914
2871803 45 18408882957948879751
4028521 119 18187072932975729077
4214541 1 18337390448283660720
5104073 3 18410856546781301409
58051976 378 18409728503801951812
69090 78 18412541012049875295
81228 2 18186526501329761169
8809292 202 18335708212841818371
93112 12 18337391535036785901
9709674 26 18410015433397976463

>  <PUBCHEM_SHAPE_MULTIPOLES>  (1) 
296.67
7.96
2.32
0.7
2.12
0.25
-0.01
0.12
-0.35
-0.41
-0.3
-0.08
-0.02
1.01

>  <PUBCHEM_SHAPE_SELFOVERLAP>  (1) 
629.583

>  <PUBCHEM_SHAPE_VOLUME>  (1) 
165.5

>  <PUBCHEM_COORDINATE_TYPE>  (1) 
2
5
10

$$$$
