18041
     RDKit          3D

 23 24  0  0  0  0  0  0  0  0999 V2000
   -2.7568   -0.5135    0.0872 N   0  0  0  0  0  0  0  0  0  0  0  0
    0.9830   -0.0385    0.0894 N   0  0  0  0  0  0  0  0  0  0  0  0
   -3.0718    0.3412    1.3065 C   0  0  0  0  0  0  0  0  0  0  0  0
   -3.8138   -0.2805   -0.9826 C   0  0  0  0  0  0  0  0  0  0  0  0
   -1.3888   -0.1320   -0.4600 C   0  0  0  0  0  0  0  0  0  0  0  0
   -2.7524   -1.9825    0.4849 C   0  0  0  0  0  0  0  0  0  0  0  0
   -0.3294   -0.3458    0.6067 C   0  0  0  0  0  0  0  0  0  0  0  0
   -3.0704    1.8017    0.8847 C   0  0  0  0  0  0  0  0  0  0  0  0
   -2.0353    0.0503    2.3799 C   0  0  0  0  0  0  0  0  0  0  0  0
   -5.1691   -0.6681   -0.4136 C   0  0  0  0  0  0  0  0  0  0  0  0
   -3.4476   -1.1012   -2.2088 C   0  0  0  0  0  0  0  0  0  0  0  0
    1.9085   -1.1264    0.0503 C   0  0  0  0  0  0  0  0  0  0  0  0
    1.3342    1.3330   -0.1130 C   0  0  0  0  0  0  0  0  0  0  0  0
    3.2253   -0.9117    0.4252 C   0  0  0  0  0  0  0  0  0  0  0  0
    1.3043    1.8585   -1.3942 C   0  0  0  0  0  0  0  0  0  0  0  0
    1.4714   -2.3751   -0.3619 C   0  0  0  0  0  0  0  0  0  0  0  0
    1.6973    2.1073    0.9766 C   0  0  0  0  0  0  0  0  0  0  0  0
    4.1289   -1.9736    0.3864 C   0  0  0  0  0  0  0  0  0  0  0  0
    1.6476    3.1961   -1.5914 C   0  0  0  0  0  0  0  0  0  0  0  0
    2.3750   -3.4371   -0.4005 C   0  0  0  0  0  0  0  0  0  0  0  0
    2.0405    3.4449    0.7793 C   0  0  0  0  0  0  0  0  0  0  0  0
    3.7038   -3.2363   -0.0263 C   0  0  0  0  0  0  0  0  0  0  0  0
    2.0155    3.9892   -0.5048 C   0  0  0  0  0  0  0  0  0  0  0  0
  1  3  1  0
  1  4  1  0
  1  5  1  0
  1  6  1  0
  2  7  1  0
  2 12  1  0
  2 13  1  0
  3  8  1  0
  3  9  1  0
  4 10  1  0
  4 11  1  0
  5  7  1  0
 12 14  2  0
 12 16  1  0
 13 15  2  0
 13 17  1  0
 14 18  1  0
 15 19  1  0
 16 20  2  0
 17 21  2  0
 18 22  2  0
 19 23  2  0
 20 22  1  0
 21 23  1  0
M  CHG  1   1   1
M  END
>  <PUBCHEM_COMPOUND_CID>  (1) 
18041

>  <PUBCHEM_CONFORMER_RMSD>  (1) 
0.8

>  <PUBCHEM_CONFORMER_DIVERSEORDER>  (1) 
1
12
6
7
14
18
13
17
15
8
5
16
2
10
3
9
11
4

>  <PUBCHEM_MMFF94_PARTIAL_CHARGES>  (1) 
29
1 -1.01
12 0.1
13 0.1
14 -0.15
15 -0.15
16 -0.15
17 -0.15
18 -0.15
19 -0.15
2 -0.57
20 -0.15
21 -0.15
22 -0.15
23 -0.15
3 0.5
4 0.5
45 0.15
46 0.15
47 0.15
48 0.15
49 0.15
5 0.5
50 0.15
51 0.15
52 0.15
53 0.15
54 0.15
6 0.5
7 0.37

>  <PUBCHEM_EFFECTIVE_ROTOR_COUNT>  (1) 
7

>  <PUBCHEM_PHARMACOPHORE_FEATURES>  (1) 
6
1 1 cation
1 2 cation
3 3 8 9 hydrophobe
3 4 10 11 hydrophobe
6 12 14 16 18 20 22 rings
6 13 15 17 19 21 23 rings

>  <PUBCHEM_HEAVY_ATOM_COUNT>  (1) 
23

>  <PUBCHEM_ATOM_DEF_STEREO_COUNT>  (1) 
0

>  <PUBCHEM_ATOM_UDEF_STEREO_COUNT>  (1) 
0

>  <PUBCHEM_BOND_DEF_STEREO_COUNT>  (1) 
0

>  <PUBCHEM_BOND_UDEF_STEREO_COUNT>  (1) 
0

>  <PUBCHEM_ISOTOPIC_ATOM_COUNT>  (1) 
0

>  <PUBCHEM_COMPONENT_COUNT>  (1) 
1

>  <PUBCHEM_CACTVS_TAUTO_COUNT>  (1) 
1

>  <PUBCHEM_CONFORMER_ID>  (1) 
0000467900000001

>  <PUBCHEM_MMFF94_ENERGY>  (1) 
155.9448

>  <PUBCHEM_FEATURE_SELFOVERLAP>  (1) 
30.446

>  <PUBCHEM_SHAPE_FINGERPRINT>  (1) 
10165383 225 17323285769970751580
11582403 64 16814276770650293413
121448 382 17552079918984438804
12160290 23 17251171719009477048
12553582 1 18266192642569509022
12788726 201 17541376839340124194
13004483 165 17905888076467735578
13009979 54 17917721153596866347
13134695 92 18334571322287517902
13149001 5 17968110727921339298
133893 2 18334869354057342120
13533116 47 18411702119206393091
13544653 18 18263928735374768222
13681431 1 18334865991482986736
13899415 180 18191568783928391230
13911987 19 17615409598886353661
14251757 17 15864371115962455654
15842332 3 17988094365120532889
17357779 13 18190726558000156382
17492 89 18412541033593699279
17980427 23 17846213315494106353
1813 80 18270128889864946606
18335252 114 18121486957437998205
192875 21 18342733005738075171
20600515 1 17896619292583454058
20642791 105 17040890626755343166
21304303 282 17118577707595862420
21524375 3 17611468931794911296
21641784 216 17972340425464076870
2255824 54 18339646740907171470
23402539 116 18192992617422418274
23558518 356 18410300224569234819
23559900 14 18339352054753736675
238 59 18265061403717169522
25222932 49 14825926608669108463
312423 11 18130520716205215275
3380486 145 18195808457899831712
350125 39 17904496438666140442
4409770 3 17471850299409896684
46194498 28 18187352256010353015
59755656 520 17549292631523286920
6442390 28 17401524882851596640
6443956 14 18338793421041792644
6992083 37 17913500042816723739
70251023 43 18408038490591074203
7097593 13 18341344300861001971
7364860 26 18411135883070123496
7471813 234 18130493189480435205
7615 1 18131077051814204769
81228 2 17612609825643165184
9981440 41 17978503466461634201

>  <PUBCHEM_SHAPE_MULTIPOLES>  (1) 
463.37
7.81
4.65
1.58
6.14
2.41
0.02
-4.5
0.54
-6.77
0.84
1.34
0.5
-0.95

>  <PUBCHEM_SHAPE_SELFOVERLAP>  (1) 
961.82

>  <PUBCHEM_SHAPE_VOLUME>  (1) 
262.5

>  <PUBCHEM_COORDINATE_TYPE>  (1) 
2
5
10

$$$$
