18052
     RDKit          3D

  7  6  0  0  0  0  0  0  0  0999 V2000
    2.7283   -1.1023    0.1033 Cl  0  0  0  0  0  0  0  0  0  0  0  0
    0.2243   -0.4142   -0.1356 O   0  0  0  0  0  0  0  0  0  0  0  0
    1.6898    1.3238    0.1180 O   0  0  0  0  0  0  0  0  0  0  0  0
   -0.8502    0.5124   -0.2043 C   0  0  0  0  0  0  0  0  0  0  0  0
   -2.1246   -0.2435   -0.3845 C   0  0  0  0  0  0  0  0  0  0  0  0
   -3.1507   -0.1931    0.4721 C   0  0  0  0  0  0  0  0  0  0  0  0
    1.4831    0.1168    0.0310 C   0  0  0  0  0  0  0  0  0  0  0  0
  1  7  1  0
  2  4  1  0
  2  7  1  0
  3  7  2  0
  4  5  1  0
  5  6  2  0
M  END
>  <PUBCHEM_COMPOUND_CID>  (1) 
18052

>  <PUBCHEM_CONFORMER_RMSD>  (1) 
0.4

>  <PUBCHEM_CONFORMER_DIVERSEORDER>  (1) 
1
40
34
39
38
15
37
43
21
36
30
42
10
29
35
2
3
20
26
7
23
17
22
28
14
27
33
9
41
8
16
5
11
4
12
25
24
13
6
32
31
19
18

>  <PUBCHEM_MMFF94_PARTIAL_CHARGES>  (1) 
10
1 -0.21
10 0.15
11 0.15
12 0.15
2 -0.43
3 -0.57
4 0.42
5 -0.29
6 -0.3
7 0.93

>  <PUBCHEM_EFFECTIVE_ROTOR_COUNT>  (1) 
3

>  <PUBCHEM_PHARMACOPHORE_FEATURES>  (1) 
2
1 3 acceptor
1 6 hydrophobe

>  <PUBCHEM_HEAVY_ATOM_COUNT>  (1) 
7

>  <PUBCHEM_ATOM_DEF_STEREO_COUNT>  (1) 
0

>  <PUBCHEM_ATOM_UDEF_STEREO_COUNT>  (1) 
0

>  <PUBCHEM_BOND_DEF_STEREO_COUNT>  (1) 
0

>  <PUBCHEM_BOND_UDEF_STEREO_COUNT>  (1) 
0

>  <PUBCHEM_ISOTOPIC_ATOM_COUNT>  (1) 
0

>  <PUBCHEM_COMPONENT_COUNT>  (1) 
1

>  <PUBCHEM_CACTVS_TAUTO_COUNT>  (1) 
1

>  <PUBCHEM_CONFORMER_ID>  (1) 
0000468400000001

>  <PUBCHEM_MMFF94_ENERGY>  (1) 
6.1583

>  <PUBCHEM_FEATURE_SELFOVERLAP>  (1) 
10.148

>  <PUBCHEM_SHAPE_FINGERPRINT>  (1) 
12932741 1 17749097903109352495
12932764 1 18411981381731426197
14325111 11 18411136965491468375
14390081 3 9079108968834122775
29004967 10 18113337543885552345
3248919 1 16988847189590776551
5460574 1 10519991465096283813

>  <PUBCHEM_SHAPE_MULTIPOLES>  (1) 
134.19
4.83
1.06
0.66
1.26
0.14
-0.01
-1.25
-0.56
-0.72
-0.04
0.16
-0.03
0.05

>  <PUBCHEM_SHAPE_SELFOVERLAP>  (1) 
236.115

>  <PUBCHEM_SHAPE_VOLUME>  (1) 
87.4

>  <PUBCHEM_COORDINATE_TYPE>  (1) 
2
5
10

$$$$
