18058
     RDKit          3D

 11 11  0  0  1  0  0  0  0  0999 V2000
   -1.0783   -0.0550   -1.7513 O   0  0  0  0  0  0  0  0  0  0  0  0
   -0.2896    1.7841    1.2998 O   0  0  0  0  0  0  0  0  0  0  0  0
   -1.2215   -2.0199    0.6703 O   0  0  0  0  0  0  0  0  0  0  0  0
    2.9936   -0.3636   -0.1483 O   0  0  0  0  0  0  0  0  0  0  0  0
    1.2157    1.0760   -0.3262 N   0  0  0  0  0  0  0  0  0  0  0  0
    0.8804   -1.1509    0.3205 N   0  0  0  0  0  0  0  0  0  0  0  0
   -1.0780    0.1776   -0.3425 C   0  0  0  0  0  0  0  0  0  0  0  0
   -0.1754    1.3777   -0.0575 C   0  0  0  0  0  0  0  0  0  0  0  0
   -0.5107   -1.0933    0.2830 C   0  0  0  0  0  0  0  0  0  0  0  0
   -2.5191    0.4226    0.1076 C   0  0  0  0  0  0  0  0  0  0  0  0
    1.7830   -0.1552   -0.0554 C   0  0  0  0  0  0  0  0  0  0  0  0
  1  7  1  0
  2  8  1  0
  3  9  2  0
  4 11  2  0
  5  8  1  0
  5 11  1  0
  6  9  1  0
  6 11  1  0
  7  8  1  0
  7  9  1  0
  7 10  1  0
M  END
>  <PUBCHEM_COMPOUND_CID>  (1) 
18058

>  <PUBCHEM_CONFORMER_RMSD>  (1) 
0.4

>  <PUBCHEM_CONFORMER_DIVERSEORDER>  (1) 
6
3
1
4
2
5

>  <PUBCHEM_MMFF94_PARTIAL_CHARGES>  (1) 
14
1 -0.68
11 0.69
16 0.37
17 0.37
18 0.4
19 0.4
2 -0.68
3 -0.57
4 -0.57
5 -0.73
6 -0.49
7 0.34
8 0.58
9 0.57

>  <PUBCHEM_EFFECTIVE_ROTOR_COUNT>  (1) 
0.8

>  <PUBCHEM_PHARMACOPHORE_FEATURES>  (1) 
9
1 1 acceptor
1 1 donor
1 2 acceptor
1 2 donor
1 3 acceptor
1 4 acceptor
1 5 donor
1 6 donor
6 5 6 7 8 9 11 rings

>  <PUBCHEM_HEAVY_ATOM_COUNT>  (1) 
11

>  <PUBCHEM_ATOM_DEF_STEREO_COUNT>  (1) 
0

>  <PUBCHEM_ATOM_UDEF_STEREO_COUNT>  (1) 
2

>  <PUBCHEM_BOND_DEF_STEREO_COUNT>  (1) 
0

>  <PUBCHEM_BOND_UDEF_STEREO_COUNT>  (1) 
0

>  <PUBCHEM_ISOTOPIC_ATOM_COUNT>  (1) 
0

>  <PUBCHEM_COMPONENT_COUNT>  (1) 
1

>  <PUBCHEM_CACTVS_TAUTO_COUNT>  (1) 
5

>  <PUBCHEM_CONFORMER_ID>  (1) 
0000468A00000006

>  <PUBCHEM_MMFF94_ENERGY>  (1) 
19.8383

>  <PUBCHEM_FEATURE_SELFOVERLAP>  (1) 
45.762

>  <PUBCHEM_SHAPE_FINGERPRINT>  (1) 
12423570 1 16381127596429378231
13024252 1 13623540042975965084
137420 1 17337917787477091287
16945 1 18260265248134374895
18185500 45 17689980250786000467
20711978 78 17696756936063999711
21040471 1 18334009467186740367
23235685 24 18336824204253587348
23552423 10 17823984635149903854
241688 4 17616816531002594690
2748010 2 18192996139036410454
29004967 10 17895198753139634033
369184 2 18411694366331260544
5084963 1 18054511300824556208
528886 8 18115015291208032829

>  <PUBCHEM_SHAPE_MULTIPOLES>  (1) 
192.94
2.8
1.68
1
1.15
0.19
0.21
0.17
0.17
-0.32
-0.54
-0.33
-0.16
0.01

>  <PUBCHEM_SHAPE_SELFOVERLAP>  (1) 
396.419

>  <PUBCHEM_SHAPE_VOLUME>  (1) 
109.8

>  <PUBCHEM_COORDINATE_TYPE>  (1) 
2
5
10

$$$$
