18054
     RDKit          3D

 10 10  0  0  1  0  0  0  0  0999 V2000
   -1.8044    1.8161    0.5913 N   0  0  0  0  0  0  0  0  0  0  0  0
   -1.4979    0.3823    0.5002 C   0  0  0  0  0  0  0  0  0  0  0  0
   -2.4102   -0.2824   -0.5510 C   0  0  0  0  0  0  0  0  0  0  0  0
   -0.0167    0.1708    0.2450 C   0  0  0  0  0  0  0  0  0  0  0  0
   -2.2268   -1.7938   -0.6272 C   0  0  0  0  0  0  0  0  0  0  0  0
    0.6086   -0.9314    0.7961 C   0  0  0  0  0  0  0  0  0  0  0  0
    0.6679    1.0861   -0.5316 C   0  0  0  0  0  0  0  0  0  0  0  0
    1.9700   -1.1257    0.5620 C   0  0  0  0  0  0  0  0  0  0  0  0
    2.0292    0.8919   -0.7658 C   0  0  0  0  0  0  0  0  0  0  0  0
    2.6802   -0.2139   -0.2190 C   0  0  0  0  0  0  0  0  0  0  0  0
  1  2  1  0
  2  3  1  0
  2  4  1  0
  3  5  1  0
  4  6  2  0
  4  7  1  0
  6  8  1  0
  7  9  2  0
  8 10  2  0
  9 10  1  0
M  END
>  <PUBCHEM_COMPOUND_CID>  (1) 
18054

>  <PUBCHEM_CONFORMER_RMSD>  (1) 
0.4

>  <PUBCHEM_CONFORMER_DIVERSEORDER>  (1) 
2
5
6
3
4
1

>  <PUBCHEM_MMFF94_PARTIAL_CHARGES>  (1) 
15
1 -0.99
10 -0.15
17 0.15
18 0.15
19 0.36
2 0.41
20 0.36
21 0.15
22 0.15
23 0.15
4 -0.14
6 -0.15
7 -0.15
8 -0.15
9 -0.15

>  <PUBCHEM_EFFECTIVE_ROTOR_COUNT>  (1) 
2

>  <PUBCHEM_PHARMACOPHORE_FEATURES>  (1) 
4
1 1 cation
1 1 donor
1 5 hydrophobe
6 4 6 7 8 9 10 rings

>  <PUBCHEM_HEAVY_ATOM_COUNT>  (1) 
10

>  <PUBCHEM_ATOM_DEF_STEREO_COUNT>  (1) 
0

>  <PUBCHEM_ATOM_UDEF_STEREO_COUNT>  (1) 
1

>  <PUBCHEM_BOND_DEF_STEREO_COUNT>  (1) 
0

>  <PUBCHEM_BOND_UDEF_STEREO_COUNT>  (1) 
0

>  <PUBCHEM_ISOTOPIC_ATOM_COUNT>  (1) 
0

>  <PUBCHEM_COMPONENT_COUNT>  (1) 
1

>  <PUBCHEM_CACTVS_TAUTO_COUNT>  (1) 
1

>  <PUBCHEM_CONFORMER_ID>  (1) 
0000468600000002

>  <PUBCHEM_MMFF94_ENERGY>  (1) 
19.0345

>  <PUBCHEM_FEATURE_SELFOVERLAP>  (1) 
20.297

>  <PUBCHEM_SHAPE_FINGERPRINT>  (1) 
12716758 59 17773886298030963369
12897270 3 18336543931788715391
12932764 1 18342748407237617088
14128692 85 18339637940255606702
16945 1 18412546517691312698
18185500 45 18335415742606249147
21040471 1 17984986994509444417
23552423 10 18334011722102716495
2748010 2 16893726514484451352
29004967 10 17023478442816858280
5084963 1 18040995176182939252
63268167 104 18113052727313418196

>  <PUBCHEM_SHAPE_MULTIPOLES>  (1) 
200.81
3.84
1.64
0.93
0.18
0.02
0.01
-0.66
0.68
0.58
-0.04
0.05
-0.02
-0.81

>  <PUBCHEM_SHAPE_SELFOVERLAP>  (1) 
405.612

>  <PUBCHEM_SHAPE_VOLUME>  (1) 
118.3

>  <PUBCHEM_COORDINATE_TYPE>  (1) 
2
5
10

$$$$
