18065
     RDKit          3D

  8  7  0  0  0  0  0  0  0  0999 V2000
    0.3654   -1.3724   -1.2322 S   0  0  0  0  0  0  0  0  0  0  0  0
   -0.6105    2.0077   -1.2330 S   0  0  0  0  0  0  0  0  0  0  0  0
   -0.1507    0.4099   -0.1911 P   0  0  0  0  0  0  0  0  0  0  0  0
   -1.3194    0.0120    0.8815 O   0  0  0  0  0  0  0  0  0  0  0  0
    1.0496    0.7010    0.8805 O   0  0  0  0  0  0  0  0  0  0  0  0
    0.9486   -2.5162    0.0354 C   0  0  0  0  0  0  0  0  0  0  0  0
   -2.6165   -0.3408    0.4304 C   0  0  0  0  0  0  0  0  0  0  0  0
    2.3335    1.0988    0.4284 C   0  0  0  0  0  0  0  0  0  0  0  0
  1  3  1  0
  1  6  1  0
  2  3  2  0
  3  4  1  0
  3  5  1  0
  4  7  1  0
  5  8  1  0
M  END
>  <PUBCHEM_COMPOUND_CID>  (1) 
18065

>  <PUBCHEM_CONFORMER_RMSD>  (1) 
0.6

>  <PUBCHEM_CONFORMER_DIVERSEORDER>  (1) 
1
3
2
5
7
8
6
4
9

>  <PUBCHEM_MMFF94_PARTIAL_CHARGES>  (1) 
8
1 -0.48
2 -0.68
3 1.47
4 -0.55
5 -0.55
6 0.23
7 0.28
8 0.28

>  <PUBCHEM_EFFECTIVE_ROTOR_COUNT>  (1) 
3

>  <PUBCHEM_PHARMACOPHORE_FEATURES>  (1) 
0

>  <PUBCHEM_HEAVY_ATOM_COUNT>  (1) 
8

>  <PUBCHEM_ATOM_DEF_STEREO_COUNT>  (1) 
0

>  <PUBCHEM_ATOM_UDEF_STEREO_COUNT>  (1) 
0

>  <PUBCHEM_BOND_DEF_STEREO_COUNT>  (1) 
0

>  <PUBCHEM_BOND_UDEF_STEREO_COUNT>  (1) 
0

>  <PUBCHEM_ISOTOPIC_ATOM_COUNT>  (1) 
0

>  <PUBCHEM_COMPONENT_COUNT>  (1) 
1

>  <PUBCHEM_CACTVS_TAUTO_COUNT>  (1) 
1

>  <PUBCHEM_CONFORMER_ID>  (1) 
0000469100000001

>  <PUBCHEM_MMFF94_ENERGY>  (1) 
4.3899

>  <PUBCHEM_FEATURE_SELFOVERLAP>  (1) 
0

>  <PUBCHEM_SHAPE_FINGERPRINT>  (1) 
137420 1 16527824416342939036
20711978 78 17773877484868828877
23552449 11 18128828447361371947
24536 1 16541602916173545790
3250762 1 18120087278048596909
528862 383 18201435839988813458
5943 1 16034731534607702325

>  <PUBCHEM_SHAPE_MULTIPOLES>  (1) 
164.45
2.65
2.49
1.25
0.13
0.46
0.3
-0.87
-0.05
-0.55
-0.15
0.14
0.1
1.07

>  <PUBCHEM_SHAPE_SELFOVERLAP>  (1) 
253.105

>  <PUBCHEM_SHAPE_VOLUME>  (1) 
121.2

>  <PUBCHEM_COORDINATE_TYPE>  (1) 
2
5
10

$$$$
