18061
     RDKit          3D

 14 14  0  0  1  0  0  0  0  0999 V2000
    1.3431   -0.2598   -1.9724 O   0  0  0  0  0  0  0  0  0  0  0  0
   -3.5552   -1.7078    0.6055 O   0  0  0  0  0  0  0  0  0  0  0  0
   -4.2871    0.9697    0.4675 O   0  0  0  0  0  0  0  0  0  0  0  0
    3.4161   -0.2702    0.0279 N   0  0  0  0  0  0  0  0  0  0  0  0
    1.0341   -0.5715   -0.6073 C   0  0  0  0  0  0  0  0  0  0  0  0
    2.0428    0.1334    0.3214 C   0  0  0  0  0  0  0  0  0  0  0  0
   -0.3728   -0.1674   -0.3227 C   0  0  0  0  0  0  0  0  0  0  0  0
    4.3551    0.4234    0.8965 C   0  0  0  0  0  0  0  0  0  0  0  0
   -1.3216   -1.1334    0.0126 C   0  0  0  0  0  0  0  0  0  0  0  0
   -0.7403    1.1765   -0.3922 C   0  0  0  0  0  0  0  0  0  0  0  0
   -2.6379   -0.7555    0.2783 C   0  0  0  0  0  0  0  0  0  0  0  0
   -2.0563    1.5543   -0.1265 C   0  0  0  0  0  0  0  0  0  0  0  0
   -3.0051    0.5885    0.2088 C   0  0  0  0  0  0  0  0  0  0  0  0
    5.7851    0.0198    0.6025 C   0  0  0  0  0  0  0  0  0  0  0  0
  1  5  1  0
  2 11  1  0
  3 13  1  0
  4  6  1  0
  4  8  1  0
  5  6  1  0
  5  7  1  0
  7  9  2  0
  7 10  1  0
  8 14  1  0
  9 11  1  0
 10 12  2  0
 11 13  2  0
 12 13  1  0
M  END
>  <PUBCHEM_COMPOUND_CID>  (1) 
18061

>  <PUBCHEM_CONFORMER_RMSD>  (1) 
0.6

>  <PUBCHEM_CONFORMER_DIVERSEORDER>  (1) 
2
41
31
43
23
37
35
39
26
6
12
40
18
36
10
21
42
5
34
4
8
33
17
24
29
13
22
1
19
38
30
28
7
14
9
32
11
20
16
27
3
25
15

>  <PUBCHEM_MMFF94_PARTIAL_CHARGES>  (1) 
20
1 -0.68
10 -0.15
11 0.08
12 -0.15
13 0.08
18 0.36
2 -0.53
21 0.15
22 0.15
23 0.15
24 0.4
28 0.45
29 0.45
3 -0.53
4 -0.9
5 0.42
6 0.27
7 -0.14
8 0.27
9 -0.15

>  <PUBCHEM_EFFECTIVE_ROTOR_COUNT>  (1) 
4

>  <PUBCHEM_PHARMACOPHORE_FEATURES>  (1) 
7
1 1 acceptor
1 1 donor
1 2 donor
1 3 donor
1 4 cation
1 4 donor
6 7 9 10 11 12 13 rings

>  <PUBCHEM_HEAVY_ATOM_COUNT>  (1) 
14

>  <PUBCHEM_ATOM_DEF_STEREO_COUNT>  (1) 
0

>  <PUBCHEM_ATOM_UDEF_STEREO_COUNT>  (1) 
1

>  <PUBCHEM_BOND_DEF_STEREO_COUNT>  (1) 
0

>  <PUBCHEM_BOND_UDEF_STEREO_COUNT>  (1) 
0

>  <PUBCHEM_ISOTOPIC_ATOM_COUNT>  (1) 
0

>  <PUBCHEM_COMPONENT_COUNT>  (1) 
1

>  <PUBCHEM_CACTVS_TAUTO_COUNT>  (1) 
10

>  <PUBCHEM_CONFORMER_ID>  (1) 
0000468D00000002

>  <PUBCHEM_MMFF94_ENERGY>  (1) 
21.9765

>  <PUBCHEM_FEATURE_SELFOVERLAP>  (1) 
35.529

>  <PUBCHEM_SHAPE_FINGERPRINT>  (1) 
10726558 24 9727368929995564433
11132069 177 18409455760657193133
114248 4 9151169866250170322
12119455 92 17418370290316373726
12251169 10 18334011688006819708
13214271 11 18202279212715047205
13296909 8 17822284643938947636
13897977 58 18336266829563654004
15219456 202 17917436388938918454
15279308 16 17846503586442500357
16945 1 18263943076544648981
17834072 33 17749113318358946524
1813 80 16226616169958544814
18186145 218 15123499333659332866
200 152 14707203314623543168
20279233 1 18130514067353280503
204376 136 16702018703739156022
20645464 45 18202848746911244991
20645477 70 16844731915895267102
20671657 53 12468638292574707222
20711985 327 16877943841301385198
21650355 55 18334012826178356441
22926399 37 15769772450896131313
2297311 6 18412273826587490684
23402539 116 18341603850267134431
23557571 272 18201451297465134231
23559900 14 18269011799215564342
42 15 18333728001522774426

>  <PUBCHEM_SHAPE_MULTIPOLES>  (1) 
265.52
9.32
1.32
0.99
11.54
0.01
-0.39
0.5
3.52
-1.51
0.09
0.46
-0.07
0.38

>  <PUBCHEM_SHAPE_SELFOVERLAP>  (1) 
538.431

>  <PUBCHEM_SHAPE_VOLUME>  (1) 
155.6

>  <PUBCHEM_COORDINATE_TYPE>  (1) 
2
5
10

$$$$
