18069
     RDKit          3D

 17 18  0  0  0  0  0  0  0  0999 V2000
    2.3284    0.9925   -2.3193 Cl  0  0  0  0  0  0  0  0  0  0  0  0
   -2.5929   -3.1709   -0.8080 Cl  0  0  0  0  0  0  0  0  0  0  0  0
    0.3056    2.2753   -0.2902 O   0  0  0  0  0  0  0  0  0  0  0  0
   -2.0979    2.5216    0.7521 N   0  0  0  0  0  0  0  0  0  0  0  0
   -1.1021    0.4279   -0.0137 C   0  0  0  0  0  0  0  0  0  0  0  0
    1.4716    0.3024    0.1775 C   0  0  0  0  0  0  0  0  0  0  0  0
    0.2483    1.0614   -0.0526 C   0  0  0  0  0  0  0  0  0  0  0  0
   -2.1989    1.1634    0.3774 C   0  0  0  0  0  0  0  0  0  0  0  0
   -1.1920   -0.8979   -0.3808 C   0  0  0  0  0  0  0  0  0  0  0  0
   -3.4482    0.5437    0.4034 C   0  0  0  0  0  0  0  0  0  0  0  0
    2.4757    0.2106   -0.7864 C   0  0  0  0  0  0  0  0  0  0  0  0
    1.6228   -0.3421    1.4054 C   0  0  0  0  0  0  0  0  0  0  0  0
   -2.4415   -1.5176   -0.3548 C   0  0  0  0  0  0  0  0  0  0  0  0
   -3.5695   -0.7967    0.0375 C   0  0  0  0  0  0  0  0  0  0  0  0
    3.6309   -0.5255   -0.5223 C   0  0  0  0  0  0  0  0  0  0  0  0
    2.7778   -1.0782    1.6693 C   0  0  0  0  0  0  0  0  0  0  0  0
    3.7818   -1.1700    0.7056 C   0  0  0  0  0  0  0  0  0  0  0  0
  1 11  1  0
  2 13  1  0
  3  7  2  0
  4  8  1  0
  5  7  1  0
  5  8  2  0
  5  9  1  0
  6  7  1  0
  6 11  2  0
  6 12  1  0
  8 10  1  0
  9 13  2  0
 10 14  2  0
 11 15  1  0
 12 16  2  0
 13 14  1  0
 15 17  2  0
 16 17  1  0
M  END
>  <PUBCHEM_COMPOUND_CID>  (1) 
18069

>  <PUBCHEM_CONFORMER_RMSD>  (1) 
0.6

>  <PUBCHEM_CONFORMER_DIVERSEORDER>  (1) 
1
7
10
15
13
8
12
2
6
11
14
5
9
4
3

>  <PUBCHEM_MMFF94_PARTIAL_CHARGES>  (1) 
26
1 -0.18
10 -0.15
11 0.18
12 -0.15
13 0.18
14 -0.15
15 -0.15
16 -0.15
17 -0.15
18 0.15
19 0.15
2 -0.18
20 0.15
21 0.15
22 0.15
23 0.15
24 0.15
25 0.4
26 0.4
3 -0.57
4 -0.9
5 0.09
6 0.09
7 0.4
8 0.1
9 -0.15

>  <PUBCHEM_EFFECTIVE_ROTOR_COUNT>  (1) 
2

>  <PUBCHEM_PHARMACOPHORE_FEATURES>  (1) 
5
1 3 acceptor
1 4 cation
1 4 donor
6 5 8 9 10 13 14 rings
6 6 11 12 15 16 17 rings

>  <PUBCHEM_HEAVY_ATOM_COUNT>  (1) 
17

>  <PUBCHEM_ATOM_DEF_STEREO_COUNT>  (1) 
0

>  <PUBCHEM_ATOM_UDEF_STEREO_COUNT>  (1) 
0

>  <PUBCHEM_BOND_DEF_STEREO_COUNT>  (1) 
0

>  <PUBCHEM_BOND_UDEF_STEREO_COUNT>  (1) 
0

>  <PUBCHEM_ISOTOPIC_ATOM_COUNT>  (1) 
0

>  <PUBCHEM_COMPONENT_COUNT>  (1) 
1

>  <PUBCHEM_CACTVS_TAUTO_COUNT>  (1) 
3

>  <PUBCHEM_CONFORMER_ID>  (1) 
0000469500000001

>  <PUBCHEM_MMFF94_ENERGY>  (1) 
65.7416

>  <PUBCHEM_FEATURE_SELFOVERLAP>  (1) 
25.371

>  <PUBCHEM_SHAPE_FINGERPRINT>  (1) 
10366900 7 16988840579319635786
10616163 171 18413109467735171430
11471102 22 15410897336284753888
11578080 2 17970038171931807996
12202030 40 17203065005612666286
12236239 1 18113904827608525452
12346177 29 18059561508487505143
12500047 106 18128247892062457488
12553582 1 18340771567099090055
13083527 12 17337836736969945907
13134695 92 15936397949855942582
13140716 1 18199467839108805003
13538477 17 18408885143954981415
13581323 91 18343298137175978848
14115302 16 18335414673407279935
14787075 74 18118961632262450816
15375462 175 18200609045941421815
15375462 189 18187368735293335209
15653759 3 17346595261918471322
15669948 3 18411704304796036287
16752209 62 18339069411719728189
16945 1 18343866606547536229
17804303 29 18202282498285809955
1813 80 17532939299152676182
18186145 218 13695862606257192486
19049666 15 16700909162993517312
19422 9 18186811257112411512
19786989 88 15937264441779395668
200 152 17313382288656234282
20291156 8 18337669849128927019
20361792 2 17603855685508069902
20442098 301 18341608235070203162
20510252 161 17988362555478956961
20600515 1 18130788949228637977
20645476 183 17895204311159721927
21197605 99 13004571583303285042
21452121 199 17982435290119843843
21634736 98 18260555566802201926
21639500 275 16733275646079154660
21731516 1 18335976583831104239
22112679 90 18335427841629634604
2255824 54 17676214593409165542
23184049 29 18198052775901378275
232386 152 18412541028738958718
23402539 116 18059281081773062333
23419403 2 16753176887798287977
23463225 33 18334858273047019170
23526113 38 16988300685093577086
23557571 272 17988650675112919776
23559900 14 18060143120147647932
23598291 2 17896054164880965764
2748010 2 17984416601804934501
465052 167 18261408775431363891
474 4 17532666826332466452
568465 68 16773797004549047678
5902787 121 18272086157758371105
603831 33 18261118525166261980
7364860 26 18055914539586506040
74978 22 18339074994929338685
77492 1 18113908125974766124
90525 40 18335705979527246667

>  <PUBCHEM_SHAPE_MULTIPOLES>  (1) 
342.74
6.67
2.42
1.44
0.53
0.48
0.38
2.52
-0.15
-2.1
0.27
1.43
-0.03
-1.74

>  <PUBCHEM_SHAPE_SELFOVERLAP>  (1) 
729.544

>  <PUBCHEM_SHAPE_VOLUME>  (1) 
192.5

>  <PUBCHEM_COORDINATE_TYPE>  (1) 
2
5
10

$$$$
