18074
     RDKit          3D

 21 22  0  0  0  0  0  0  0  0999 V2000
    1.9672    3.2218   -0.3679 I   0  0  0  0  0  0  0  0  0  0  0  0
    0.8740    0.3606    0.4214 O   0  0  0  0  0  0  0  0  0  0  0  0
    0.7147   -1.2136   -1.2753 O   0  0  0  0  0  0  0  0  0  0  0  0
    2.1979   -1.8291    1.4085 O   0  0  0  0  0  0  0  0  0  0  0  0
   -6.1157    0.0105   -0.8222 O   0  0  0  0  0  0  0  0  0  0  0  0
   -5.8271    0.4620    1.3067 O   0  0  0  0  0  0  0  0  0  0  0  0
   -5.3706    0.1693    0.1751 N   0  0  0  0  0  0  0  0  0  0  0  0
   -1.2445   -0.2922   -0.2868 C   0  0  0  0  0  0  0  0  0  0  0  0
   -2.0604   -0.4673   -1.3845 C   0  0  0  0  0  0  0  0  0  0  0  0
   -1.7426    0.0299    0.9583 C   0  0  0  0  0  0  0  0  0  0  0  0
   -3.9683    0.0125    0.0182 C   0  0  0  0  0  0  0  0  0  0  0  0
   -3.4381   -0.3131   -1.2303 C   0  0  0  0  0  0  0  0  0  0  0  0
   -3.1204    0.1841    1.1126 C   0  0  0  0  0  0  0  0  0  0  0  0
    2.2588    0.2795    0.3454 C   0  0  0  0  0  0  0  0  0  0  0  0
    0.2236   -0.4570   -0.4510 C   0  0  0  0  0  0  0  0  0  0  0  0
    2.9888    1.3716    0.0392 C   0  0  0  0  0  0  0  0  0  0  0  0
    2.8112   -1.0741    0.6548 C   0  0  0  0  0  0  0  0  0  0  0  0
    4.4363    1.4824    0.0373 C   0  0  0  0  0  0  0  0  0  0  0  0
    4.0082   -1.5801   -0.0539 C   0  0  0  0  0  0  0  0  0  0  0  0
    5.3343    0.5139   -0.1686 C   0  0  0  0  0  0  0  0  0  0  0  0
    5.0726   -0.8713   -0.4368 C   0  0  0  0  0  0  0  0  0  0  0  0
  1 16  1  0
  2 14  1  0
  2 15  1  0
  3 15  2  0
  4 17  2  0
  5  7  1  0
  6  7  2  0
  7 11  1  0
  8  9  2  0
  8 10  1  0
  8 15  1  0
  9 12  1  0
 10 13  2  0
 11 12  2  0
 11 13  1  0
 14 16  2  0
 14 17  1  0
 16 18  1  0
 17 19  1  0
 18 20  2  0
 19 21  2  0
 20 21  1  0
M  CHG  2   5  -1   7   1
M  END
>  <PUBCHEM_COMPOUND_CID>  (1) 
18074

>  <PUBCHEM_CONFORMER_RMSD>  (1) 
0.6

>  <PUBCHEM_CONFORMER_DIVERSEORDER>  (1) 
1
47
31
17
41
29
52
25
4
43
24
38
18
48
7
32
2
40
46
45
5
51
30
42
15
44
10
22
37
21
39
3
26
27
12
20
34
36
11
28
49
50
14
35
16
33
19
23
13
6
8
9

>  <PUBCHEM_MMFF94_PARTIAL_CHARGES>  (1) 
29
1 -0.09
10 -0.15
11 0.13
12 -0.15
13 -0.15
14 0.09
15 0.63
16 0.09
17 0.54
18 -0.15
19 -0.14
2 -0.23
20 -0.15
21 -0.15
22 0.15
23 0.15
24 0.15
25 0.15
26 0.15
27 0.15
28 0.15
29 0.15
3 -0.57
4 -0.57
5 -0.52
6 -0.52
7 0.91
8 0.09
9 -0.15

>  <PUBCHEM_EFFECTIVE_ROTOR_COUNT>  (1) 
4

>  <PUBCHEM_PHARMACOPHORE_FEATURES>  (1) 
8
1 1 hydrophobe
1 3 acceptor
1 4 acceptor
1 5 acceptor
1 5 anion
1 6 acceptor
6 8 9 10 11 12 13 rings
7 14 16 17 18 19 20 21 rings

>  <PUBCHEM_HEAVY_ATOM_COUNT>  (1) 
21

>  <PUBCHEM_ATOM_DEF_STEREO_COUNT>  (1) 
0

>  <PUBCHEM_ATOM_UDEF_STEREO_COUNT>  (1) 
0

>  <PUBCHEM_BOND_DEF_STEREO_COUNT>  (1) 
0

>  <PUBCHEM_BOND_UDEF_STEREO_COUNT>  (1) 
0

>  <PUBCHEM_ISOTOPIC_ATOM_COUNT>  (1) 
0

>  <PUBCHEM_COMPONENT_COUNT>  (1) 
1

>  <PUBCHEM_CACTVS_TAUTO_COUNT>  (1) 
1

>  <PUBCHEM_CONFORMER_ID>  (1) 
0000469A00000001

>  <PUBCHEM_MMFF94_ENERGY>  (1) 
79.2018

>  <PUBCHEM_FEATURE_SELFOVERLAP>  (1) 
40.679

>  <PUBCHEM_SHAPE_FINGERPRINT>  (1) 
10354089 29 18410294726562689504
10366900 7 17603585222680014689
10688039 33 18040715835995658804
11045977 3 18041002881718200443
11796584 16 16200435793004615222
12107183 9 17621606012253723563
12166972 35 17988925582657516881
12236239 1 17989207048917178777
12730499 353 17894353271916709578
13533116 47 18337671919076453498
13583140 156 18260269689674072963
14341114 176 18335426768040615945
14386348 63 17167583782289948979
14573314 32 17458622281242937245
17349148 13 17561079207209815357
17834072 33 18342455962819545254
17844677 252 18335140873832831637
1813 80 18271254802993937486
18335252 114 18341602691080132525
18681886 176 17703220823426982032
18785283 64 17606127414002372204
20645477 56 17603579755735039071
20645477 70 18336261250311628062
21033648 144 18268136729166423309
21033648 29 17604414280555077325
21033650 10 15911393972718427624
21267235 1 18339648850284817894
21503847 285 18410575110839415528
21641784 216 17896055277911031508
221357 26 18334008372102429732
22289505 5 18261101955378022108
23402539 116 15123502593339180065
23557571 272 15936406693892671942
23558518 356 17539124365575295394
23559900 14 17167867491040089245
29717793 49 17418099810746214700
345986 75 18270109099093185008
34797466 226 16588320375311905718
4340502 62 17748826324054127994
474 4 18340206383451009633
5104073 3 18342450499700461546
542803 24 18201720647975930531
8272917 22 18412265012929808686
9971528 1 18343861139376350616
9999458 23 18114181977780042132

>  <PUBCHEM_SHAPE_MULTIPOLES>  (1) 
409.78
12.68
2.07
1.17
11.27
1.78
0.03
0.16
-0.31
-3.29
0.06
0.97
-0.21
-0.49

>  <PUBCHEM_SHAPE_SELFOVERLAP>  (1) 
862.228

>  <PUBCHEM_SHAPE_VOLUME>  (1) 
232.2

>  <PUBCHEM_COORDINATE_TYPE>  (1) 
2
5
10

$$$$
