18070
     RDKit          3D

 13 14  0  0  0  0  0  0  0  0999 V2000
   -4.3023   -0.9222    0.0020 Cl  0  0  0  0  0  0  0  0  0  0  0  0
    3.2661   -1.9409    0.0010 Cl  0  0  0  0  0  0  0  0  0  0  0  0
    3.6677    1.3319    0.0015 Cl  0  0  0  0  0  0  0  0  0  0  0  0
    0.7529   -1.3711   -0.0007 N   0  0  0  0  0  0  0  0  0  0  0  0
    1.0911    1.3867   -0.0003 N   0  0  0  0  0  0  0  0  0  0  0  0
   -0.3115   -0.5496   -0.0006 C   0  0  0  0  0  0  0  0  0  0  0  0
   -0.1403    0.8468   -0.0002 C   0  0  0  0  0  0  0  0  0  0  0  0
   -1.6020   -1.0740   -0.0008 C   0  0  0  0  0  0  0  0  0  0  0  0
   -1.2659    1.6674   -0.0001 C   0  0  0  0  0  0  0  0  0  0  0  0
   -2.7217   -0.2440   -0.0005 C   0  0  0  0  0  0  0  0  0  0  0  0
   -2.5530    1.1325   -0.0001 C   0  0  0  0  0  0  0  0  0  0  0  0
    1.9761   -0.8113   -0.0007 C   0  0  0  0  0  0  0  0  0  0  0  0
    2.1428    0.5479   -0.0005 C   0  0  0  0  0  0  0  0  0  0  0  0
  1 10  1  0
  2 12  1  0
  3 13  1  0
  4  6  2  0
  4 12  1  0
  5  7  2  0
  5 13  1  0
  6  7  1  0
  6  8  1  0
  7  9  1  0
  8 10  2  0
  9 11  2  0
 10 11  1  0
 12 13  2  0
M  END
>  <PUBCHEM_COMPOUND_CID>  (1) 
18070

>  <PUBCHEM_CONFORMER_RMSD>  (1) 
0.4

>  <PUBCHEM_CONFORMER_DIVERSEORDER>  (1) 
1

>  <PUBCHEM_MMFF94_PARTIAL_CHARGES>  (1) 
16
1 -0.18
10 0.18
11 -0.15
12 0.49
13 0.49
14 0.15
15 0.15
16 0.15
2 -0.18
3 -0.18
4 -0.62
5 -0.62
6 0.31
7 0.31
8 -0.15
9 -0.15

>  <PUBCHEM_EFFECTIVE_ROTOR_COUNT>  (1) 
0

>  <PUBCHEM_PHARMACOPHORE_FEATURES>  (1) 
4
1 4 acceptor
1 5 acceptor
6 4 5 6 7 12 13 rings
6 6 7 8 9 10 11 rings

>  <PUBCHEM_HEAVY_ATOM_COUNT>  (1) 
13

>  <PUBCHEM_ATOM_DEF_STEREO_COUNT>  (1) 
0

>  <PUBCHEM_ATOM_UDEF_STEREO_COUNT>  (1) 
0

>  <PUBCHEM_BOND_DEF_STEREO_COUNT>  (1) 
0

>  <PUBCHEM_BOND_UDEF_STEREO_COUNT>  (1) 
0

>  <PUBCHEM_ISOTOPIC_ATOM_COUNT>  (1) 
0

>  <PUBCHEM_COMPONENT_COUNT>  (1) 
1

>  <PUBCHEM_CACTVS_TAUTO_COUNT>  (1) 
1

>  <PUBCHEM_CONFORMER_ID>  (1) 
0000469600000001

>  <PUBCHEM_MMFF94_ENERGY>  (1) 
32.476

>  <PUBCHEM_FEATURE_SELFOVERLAP>  (1) 
20.339

>  <PUBCHEM_SHAPE_FINGERPRINT>  (1) 
10608611 8 18409726227432647300
10967382 1 18338516455585518406
11471102 20 18410288125466812079
11769659 78 18410852127360335527
11806522 49 18338232786286870383
12032990 46 18410859819588857335
12932764 1 17386849408971371064
13296908 3 18409166580319268771
13380535 76 18335983176869563386
14144814 61 18411419501024401425
14325111 11 18410856538165225920
14576447 43 17984969651853938543
15196674 1 18410573963766356901
15219456 202 18410007715193721269
15442244 35 18267305326824584496
15536298 74 18342458123641496398
15775835 57 18201441423240290541
16945 1 18338517563639737924
17844478 74 18186527605099043065
18186145 218 17749387027449353319
193761 8 13798888593889664645
19422 9 18342181033478254899
200 152 18130776859649391615
20201158 50 18335420213846545907
20510252 161 18344148077097729569
20645477 70 18411412895787206735
21267235 1 18411145718434805782
21501502 16 18339928121131026352
21501925 9 18337660945640428674
22959321 4 18409729530198947522
2334 1 18410573972409136460
23402539 116 18339913930917679319
23402655 69 18341040870581186549
23463225 33 18409729517604027070
23552423 10 18261395515980759478
23559900 14 18196363733210938074
25610 137 18410577309772824737
2748010 2 18337950095486248940
5104073 3 18410856534176026329
528886 8 18339356486743014227
53812653 166 18200308952429384120
7364860 26 18342457037199354346
8809292 202 18260274035891209563

>  <PUBCHEM_SHAPE_MULTIPOLES>  (1) 
263.18
6.44
1.95
0.61
1.23
0.08
0
1.2
0
-0.97
0
0
0
0

>  <PUBCHEM_SHAPE_SELFOVERLAP>  (1) 
549.387

>  <PUBCHEM_SHAPE_VOLUME>  (1) 
151.5

>  <PUBCHEM_COORDINATE_TYPE>  (1) 
2
5
10

$$$$
