18088
     RDKit          3D

 21 23  0  0  0  0  0  0  0  0999 V2000
    5.3249    0.0308   -0.0008 Cl  0  0  0  0  0  0  0  0  0  0  0  0
    0.9692    2.3132    0.0011 O   0  0  0  0  0  0  0  0  0  0  0  0
    1.0018   -2.3131   -0.0007 O   0  0  0  0  0  0  0  0  0  0  0  0
    0.9357   -0.0003    0.0002 N   0  0  0  0  0  0  0  0  0  0  0  0
    3.0222   -1.1854   -0.0007 N   0  0  0  0  0  0  0  0  0  0  0  0
    3.0052    1.2142    0.0009 N   0  0  0  0  0  0  0  0  0  0  0  0
   -0.3902    2.2489    0.0005 C   0  0  0  0  0  0  0  0  0  0  0  0
   -0.3751   -2.2547   -0.0003 C   0  0  0  0  0  0  0  0  0  0  0  0
   -1.0877    2.2155    1.2081 C   0  0  0  0  0  0  0  0  0  0  0  0
   -1.0862    2.2159   -1.2079 C   0  0  0  0  0  0  0  0  0  0  0  0
   -1.0551   -2.2254   -1.2081 C   0  0  0  0  0  0  0  0  0  0  0  0
   -1.0541   -2.2259    1.2080 C   0  0  0  0  0  0  0  0  0  0  0  0
   -2.4809    2.1489    1.2073 C   0  0  0  0  0  0  0  0  0  0  0  0
   -2.4795    2.1494   -1.2087 C   0  0  0  0  0  0  0  0  0  0  0  0
   -2.4487   -2.1656   -1.2076 C   0  0  0  0  0  0  0  0  0  0  0  0
   -2.4478   -2.1662    1.2083 C   0  0  0  0  0  0  0  0  0  0  0  0
   -3.1768    2.1159   -0.0009 C   0  0  0  0  0  0  0  0  0  0  0  0
   -3.1450   -2.1361    0.0006 C   0  0  0  0  0  0  0  0  0  0  0  0
    1.6702    1.1188    0.0010 C   0  0  0  0  0  0  0  0  0  0  0  0
    1.6812   -1.1171   -0.0004 C   0  0  0  0  0  0  0  0  0  0  0  0
    3.6167    0.0186    0.0002 C   0  0  0  0  0  0  0  0  0  0  0  0
  1 21  1  0
  2  7  1  0
  2 19  1  0
  3  8  1  0
  3 20  1  0
  4 19  2  0
  4 20  1  0
  5 20  2  0
  5 21  1  0
  6 19  1  0
  6 21  2  0
  7  9  2  0
  7 10  1  0
  8 11  2  0
  8 12  1  0
  9 13  1  0
 10 14  2  0
 11 15  1  0
 12 16  2  0
 13 17  2  0
 14 17  1  0
 15 18  2  0
 16 18  1  0
M  END
>  <PUBCHEM_COMPOUND_CID>  (1) 
18088

>  <PUBCHEM_CONFORMER_RMSD>  (1) 
0.6

>  <PUBCHEM_CONFORMER_DIVERSEORDER>  (1) 
1
28
37
55
22
2
30
77
57
8
74
14
50
42
15
72
73
58
63
48
62
16
53
64
49
29
32
68
36
43
56
67
13
46
70
18
35
34
24
6
41
47
59
38
17
3
66
69
21
12
23
5
52
9
71
20
4
45
11
65
39
26
27
10
40
19
61
76
31
51
60
33
75
54
44
7
25

>  <PUBCHEM_MMFF94_PARTIAL_CHARGES>  (1) 
31
1 -0.18
10 -0.15
11 -0.15
12 -0.15
13 -0.15
14 -0.15
15 -0.15
16 -0.15
17 -0.15
18 -0.15
19 0.7
2 -0.17
20 0.7
21 0.8
22 0.15
23 0.15
24 0.15
25 0.15
26 0.15
27 0.15
28 0.15
29 0.15
3 -0.17
30 0.15
31 0.15
4 -0.62
5 -0.62
6 -0.62
7 0.08
8 0.08
9 -0.15

>  <PUBCHEM_EFFECTIVE_ROTOR_COUNT>  (1) 
4

>  <PUBCHEM_PHARMACOPHORE_FEATURES>  (1) 
6
3 4 5 20 cation
3 4 6 19 cation
3 5 6 21 cation
6 4 5 6 19 20 21 rings
6 7 9 10 13 14 17 rings
6 8 11 12 15 16 18 rings

>  <PUBCHEM_HEAVY_ATOM_COUNT>  (1) 
21

>  <PUBCHEM_ATOM_DEF_STEREO_COUNT>  (1) 
0

>  <PUBCHEM_ATOM_UDEF_STEREO_COUNT>  (1) 
0

>  <PUBCHEM_BOND_DEF_STEREO_COUNT>  (1) 
0

>  <PUBCHEM_BOND_UDEF_STEREO_COUNT>  (1) 
0

>  <PUBCHEM_ISOTOPIC_ATOM_COUNT>  (1) 
0

>  <PUBCHEM_COMPONENT_COUNT>  (1) 
1

>  <PUBCHEM_CACTVS_TAUTO_COUNT>  (1) 
1

>  <PUBCHEM_CONFORMER_ID>  (1) 
000046A800000001

>  <PUBCHEM_MMFF94_ENERGY>  (1) 
66.3419

>  <PUBCHEM_FEATURE_SELFOVERLAP>  (1) 
33.235

>  <PUBCHEM_SHAPE_FINGERPRINT>  (1) 
104564 63 18339087102125609030
10688039 33 17969225706258772715
1100329 8 17902783068837986618
11578080 2 17416948685968922602
12293681 4 18117003380046016754
12422481 6 18195558976614356355
13140716 1 18410851028333874896
13583140 156 16733265634605781120
14790565 3 16968021618717159605
14931854 50 18266719347583538213
16752209 62 18337382833876370178
17138139 8 17839982400907357765
17357779 13 18268419312254842783
17492 54 18263343821237943237
19591789 44 17041759790993395630
20645477 70 17617651060629419781
20775438 99 16472568442510726767
21041028 32 18193849364418218811
21160774 45 18336826390365963685
21197605 99 18339941350748416219
21236236 1 18411136953181455974
22182313 1 18130522842467670054
23419403 2 17416949811287407200
238 59 17396960389484150989
2748010 2 18341062813089241878
350125 39 18338803441638850800
469060 322 17530687614838449279
6438718 38 18273497866417153775
6992083 37 17699861905319546950
7237137 82 18338815497864966492
81228 2 18335978782896519128

>  <PUBCHEM_SHAPE_MULTIPOLES>  (1) 
407.36
6.38
4.13
1.19
8.38
0.04
0
-0.1
0
-3.81
0
-1.02
0
0

>  <PUBCHEM_SHAPE_SELFOVERLAP>  (1) 
883.298

>  <PUBCHEM_SHAPE_VOLUME>  (1) 
220.6

>  <PUBCHEM_COORDINATE_TYPE>  (1) 
2
5
10

$$$$
