1808
     RDKit          3D

 10 10  0  0  0  0  0  0  0  0999 V2000
    3.2014   -1.5766    0.0000 Br  0  0  0  0  0  0  0  0  0  0  0  0
   -2.2840   -1.6276    0.0086 O   0  0  0  0  0  0  0  0  0  0  0  0
    0.9345    1.8916    0.0033 N   0  0  0  0  0  0  0  0  0  0  0  0
   -3.0092    0.5479   -0.0027 N   0  0  0  0  0  0  0  0  0  0  0  0
   -0.6254    0.0446   -0.0022 C   0  0  0  0  0  0  0  0  0  0  0  0
    0.4322   -0.8581   -0.0037 C   0  0  0  0  0  0  0  0  0  0  0  0
   -0.3237    1.3970    0.0014 C   0  0  0  0  0  0  0  0  0  0  0  0
    1.7406   -0.3877   -0.0018 C   0  0  0  0  0  0  0  0  0  0  0  0
   -2.0029   -0.4151   -0.0045 C   0  0  0  0  0  0  0  0  0  0  0  0
    1.9365    0.9840    0.0017 C   0  0  0  0  0  0  0  0  0  0  0  0
  1  8  1  0
  2  9  2  0
  3  7  2  0
  3 10  1  0
  4  9  1  0
  5  6  2  0
  5  7  1  0
  5  9  1  0
  6  8  1  0
  8 10  2  0
M  END
>  <PUBCHEM_COMPOUND_CID>  (1) 
1808

>  <PUBCHEM_CONFORMER_RMSD>  (1) 
0.4

>  <PUBCHEM_CONFORMER_DIVERSEORDER>  (1) 
1
2

>  <PUBCHEM_MMFF94_PARTIAL_CHARGES>  (1) 
15
1 -0.11
10 0.16
11 0.15
12 0.15
13 0.15
14 0.37
15 0.37
2 -0.57
3 -0.62
4 -0.8
5 0.09
6 -0.15
7 0.16
8 0.11
9 0.54

>  <PUBCHEM_EFFECTIVE_ROTOR_COUNT>  (1) 
1

>  <PUBCHEM_PHARMACOPHORE_FEATURES>  (1) 
5
1 1 hydrophobe
1 2 acceptor
1 3 acceptor
1 4 donor
6 3 5 6 7 8 10 rings

>  <PUBCHEM_HEAVY_ATOM_COUNT>  (1) 
10

>  <PUBCHEM_ATOM_DEF_STEREO_COUNT>  (1) 
0

>  <PUBCHEM_ATOM_UDEF_STEREO_COUNT>  (1) 
0

>  <PUBCHEM_BOND_DEF_STEREO_COUNT>  (1) 
0

>  <PUBCHEM_BOND_UDEF_STEREO_COUNT>  (1) 
0

>  <PUBCHEM_ISOTOPIC_ATOM_COUNT>  (1) 
0

>  <PUBCHEM_COMPONENT_COUNT>  (1) 
1

>  <PUBCHEM_CACTVS_TAUTO_COUNT>  (1) 
2

>  <PUBCHEM_CONFORMER_ID>  (1) 
0000071000000001

>  <PUBCHEM_MMFF94_ENERGY>  (1) 
26.6883

>  <PUBCHEM_FEATURE_SELFOVERLAP>  (1) 
25.371

>  <PUBCHEM_SHAPE_FINGERPRINT>  (1) 
10130415 120 18336827489761170186
12932764 1 17631454642872614763
14128692 85 18409453570318824222
14325111 11 18410574032401398629
16945 1 18338798896903555364
17990270 104 18337107981248528642
193761 8 14303573059664985127
19973954 147 18337674234263870065
20201158 50 18338796715086900158
20645477 70 18337946926307403879
20871998 184 17985258569897878254
20871998 22 18270970029298123062
21040471 1 17906171007443705376
23552423 10 18261677068356584798
2748010 2 18410008874855879822
29004967 10 18337673117292726968

>  <PUBCHEM_SHAPE_MULTIPOLES>  (1) 
195.91
4.36
1.84
0.61
0.31
0.31
0
-2.01
0
0.33
0
0.09
-0.02
0

>  <PUBCHEM_SHAPE_SELFOVERLAP>  (1) 
395.425

>  <PUBCHEM_SHAPE_VOLUME>  (1) 
117.3

>  <PUBCHEM_COORDINATE_TYPE>  (1) 
2
5
10

$$$$
