18084
     RDKit          3D

 13 12  0  0  0  0  0  0  0  0999 V2000
    4.6989    0.7110   -0.1742 O   0  0  0  0  0  0  0  0  0  0  0  0
   -3.7260   -0.6753    0.1926 O   0  0  0  0  0  0  0  0  0  0  0  0
    3.8010   -1.3955    0.1035 O   0  0  0  0  0  0  0  0  0  0  0  0
   -2.8168    1.4648    0.1674 O   0  0  0  0  0  0  0  0  0  0  0  0
    1.1494   -0.3572    0.0865 C   0  0  0  0  0  0  0  0  0  0  0  0
   -0.1732    0.4199    0.0877 C   0  0  0  0  0  0  0  0  0  0  0  0
    2.3650    0.5654   -0.0063 C   0  0  0  0  0  0  0  0  0  0  0  0
   -1.3892   -0.5027    0.1790 C   0  0  0  0  0  0  0  0  0  0  0  0
    3.6797   -0.1830   -0.0054 C   0  0  0  0  0  0  0  0  0  0  0  0
   -2.7065    0.2458    0.1848 C   0  0  0  0  0  0  0  0  0  0  0  0
    6.0127    0.1456   -0.2238 C   0  0  0  0  0  0  0  0  0  0  0  0
   -4.9895   -0.1172    0.1786 C   0  0  0  0  0  0  0  0  0  0  0  0
   -5.9055   -0.3216   -0.7705 C   0  0  0  0  0  0  0  0  0  0  0  0
  1  9  1  0
  1 11  1  0
  2 10  1  0
  2 12  1  0
  3  9  2  0
  4 10  2  0
  5  6  1  0
  5  7  1  0
  6  8  1  0
  7  9  1  0
  8 10  1  0
 12 13  2  0
M  END
>  <PUBCHEM_COMPOUND_CID>  (1) 
18084

>  <PUBCHEM_CONFORMER_RMSD>  (1) 
0.8

>  <PUBCHEM_CONFORMER_DIVERSEORDER>  (1) 
1
46
104
205
77
100
45
9
189
68
195
155
186
55
175
182
25
63
49
201
156
207
173
8
40
42
139
89
12
172
183
64
84
31
92
99
10
151
114
140
164
21
154
30
188
51
157
200
61
105
203
131
146
158
160
196
147
192
110
44
193
41
144
119
129
5
113
97
107
132
168
176
162
56
7
123
86
37
106
115
67
117
171
121
43
167
108
91
57
101
73
148
116
103
170
180
2
93
62
22
199
50
70
80
79
120
185
125
65
118
152
35
4
191
82
26
66
53
87
69
181
135
102
198
128
194
137
36
85
60
96
58
59
94
38
124
19
159
153
178
179
6
204
20
78
16
48
14
75
74
17
76
143
72
39
141
177
98
112
109
15
23
47
13
18
145
174
71
90
52
32
150
3
184
136
166
149
130
11
24
83
34
165
133
206
54
27
197
33
187
111
127
161
190
28
142
122
134
126
138
95
169
29
202
163
81
88

>  <PUBCHEM_MMFF94_PARTIAL_CHARGES>  (1) 
14
1 -0.43
10 0.66
11 0.28
12 -0.07
13 -0.3
2 -0.23
25 0.15
26 0.15
27 0.15
3 -0.57
4 -0.57
7 0.06
8 0.06
9 0.66

>  <PUBCHEM_EFFECTIVE_ROTOR_COUNT>  (1) 
8

>  <PUBCHEM_PHARMACOPHORE_FEATURES>  (1) 
3
1 3 acceptor
1 4 acceptor
4 5 6 7 8 hydrophobe

>  <PUBCHEM_HEAVY_ATOM_COUNT>  (1) 
13

>  <PUBCHEM_ATOM_DEF_STEREO_COUNT>  (1) 
0

>  <PUBCHEM_ATOM_UDEF_STEREO_COUNT>  (1) 
0

>  <PUBCHEM_BOND_DEF_STEREO_COUNT>  (1) 
0

>  <PUBCHEM_BOND_UDEF_STEREO_COUNT>  (1) 
0

>  <PUBCHEM_ISOTOPIC_ATOM_COUNT>  (1) 
0

>  <PUBCHEM_COMPONENT_COUNT>  (1) 
1

>  <PUBCHEM_CACTVS_TAUTO_COUNT>  (1) 
1

>  <PUBCHEM_CONFORMER_ID>  (1) 
000046A400000001

>  <PUBCHEM_MMFF94_ENERGY>  (1) 
17.8708

>  <PUBCHEM_FEATURE_SELFOVERLAP>  (1) 
15.223

>  <PUBCHEM_SHAPE_FINGERPRINT>  (1) 
10968037 39 18408605885513724375
11401426 45 16877942750195003751
114248 4 18409449193372564240
12091667 2 18060140942678083691
12714333 28 16877660171063557917
12815109 37 18410292523059642383
14123238 8 18131351912071650947
1420 363 18410300219678174531
14251718 22 18333449858775930099
14251764 46 15913329091697576156
15242439 84 18040434412468098441
17834072 33 18411418440357428876
17834076 25 18342458149490369486
187816 3 18113056043402723825
19433438 28 12823297883636479227
200 152 18272649048246849449
20645477 70 18339362951365731038
20767249 213 16370725945932060621
23402539 116 18411695504766652119
23559900 14 18338231686385028177
42788 4 18410575093253033001
8209 1 18408041819153662172

>  <PUBCHEM_SHAPE_MULTIPOLES>  (1) 
244.06
14.7
0.98
0.66
1.05
0.03
-0.04
-0.78
-2.23
0.13
0.04
-0.29
-0.01
-0.2

>  <PUBCHEM_SHAPE_SELFOVERLAP>  (1) 
458.909

>  <PUBCHEM_SHAPE_VOLUME>  (1) 
151.4

>  <PUBCHEM_COORDINATE_TYPE>  (1) 
2
5
10

$$$$
