18093
     RDKit          3D

 16 17  0  0  0  0  0  0  0  0999 V2000
    5.3412   -0.1732    0.9489 N   0  0  0  0  0  0  0  0  0  0  0  0
    2.4381   -0.9323   -2.3572 N   0  0  0  0  0  0  0  0  0  0  0  0
   -1.7085   -0.4532    0.4096 C   0  0  0  0  0  0  0  0  0  0  0  0
   -2.1993    0.7481   -0.1550 C   0  0  0  0  0  0  0  0  0  0  0  0
   -0.3452   -0.5545    0.7311 C   0  0  0  0  0  0  0  0  0  0  0  0
    0.5223    0.5132    0.4988 C   0  0  0  0  0  0  0  0  0  0  0  0
   -1.3119    1.8128   -0.3818 C   0  0  0  0  0  0  0  0  0  0  0  0
   -2.5959   -1.5179    0.6368 C   0  0  0  0  0  0  0  0  0  0  0  0
   -3.5626    0.8493   -0.4765 C   0  0  0  0  0  0  0  0  0  0  0  0
    0.0398    1.6945   -0.0566 C   0  0  0  0  0  0  0  0  0  0  0  0
   -3.9474   -1.4000    0.3113 C   0  0  0  0  0  0  0  0  0  0  0  0
   -4.4297   -0.2189   -0.2443 C   0  0  0  0  0  0  0  0  0  0  0  0
    1.9319    0.3928    0.8375 C   0  0  0  0  0  0  0  0  0  0  0  0
    2.9201   -0.0801    0.0384 C   0  0  0  0  0  0  0  0  0  0  0  0
    4.2551   -0.1312    0.5419 C   0  0  0  0  0  0  0  0  0  0  0  0
    2.6521   -0.5492   -1.2829 C   0  0  0  0  0  0  0  0  0  0  0  0
  1 15  3  0
  2 16  3  0
  3  4  1  0
  3  5  2  0
  3  8  1  0
  4  7  2  0
  4  9  1  0
  5  6  1  0
  6 10  2  0
  6 13  1  0
  7 10  1  0
  8 11  2  0
  9 12  2  0
 11 12  1  0
 13 14  2  3
 14 15  1  0
 14 16  1  0
M  END
>  <PUBCHEM_COMPOUND_CID>  (1) 
18093

>  <PUBCHEM_CONFORMER_RMSD>  (1) 
0.6

>  <PUBCHEM_CONFORMER_DIVERSEORDER>  (1) 
1
2
3
4
5
6

>  <PUBCHEM_MMFF94_PARTIAL_CHARGES>  (1) 
22
1 -0.56
10 -0.15
11 -0.15
12 -0.15
13 -0.18
14 0.13
15 0.49
16 0.49
17 0.15
18 0.15
19 0.15
2 -0.56
20 0.15
21 0.15
22 0.15
23 0.15
24 0.15
5 -0.15
6 0.03
7 -0.15
8 -0.15
9 -0.15

>  <PUBCHEM_EFFECTIVE_ROTOR_COUNT>  (1) 
1

>  <PUBCHEM_PHARMACOPHORE_FEATURES>  (1) 
4
1 1 acceptor
1 2 acceptor
6 3 4 5 6 7 10 rings
6 3 4 8 9 11 12 rings

>  <PUBCHEM_HEAVY_ATOM_COUNT>  (1) 
16

>  <PUBCHEM_ATOM_DEF_STEREO_COUNT>  (1) 
0

>  <PUBCHEM_ATOM_UDEF_STEREO_COUNT>  (1) 
0

>  <PUBCHEM_BOND_DEF_STEREO_COUNT>  (1) 
0

>  <PUBCHEM_BOND_UDEF_STEREO_COUNT>  (1) 
0

>  <PUBCHEM_ISOTOPIC_ATOM_COUNT>  (1) 
0

>  <PUBCHEM_COMPONENT_COUNT>  (1) 
1

>  <PUBCHEM_CACTVS_TAUTO_COUNT>  (1) 
1

>  <PUBCHEM_CONFORMER_ID>  (1) 
000046AD00000001

>  <PUBCHEM_MMFF94_ENERGY>  (1) 
40.9694

>  <PUBCHEM_FEATURE_SELFOVERLAP>  (1) 
20.324

>  <PUBCHEM_SHAPE_FINGERPRINT>  (1) 
10465860 250 18408598167251979664
10465860 71 18188789313096325549
11543360 7 14851889218170054059
12032990 46 18334857272815303761
12236239 1 17022618667446640184
12251169 10 12679459806902873651
12892183 10 16200166390854139675
13288520 33 18333446530492767554
14115302 16 17313107479294862578
14252887 29 17775292655366067462
14289901 80 16630806603756352827
14386348 63 18273498965786220255
14911166 2 18187916288458997565
15375358 24 18201998819874851238
15375462 189 14620794873350587474
16945 1 18260828181477860153
17804303 29 18335982056109952537
19141452 34 18131353050913646527
192875 21 16443068292112371380
200 152 17060613399830210489
20279233 1 18273217495141400054
20374829 77 18335978740083885651
204376 136 16845281796384395322
20645476 183 16370721547949113427
20645477 70 16845010078935292716
21119208 17 16298102086036100162
21267235 1 18187367653489233787
22079108 93 15410316871671269874
23402539 116 18334284366679290774
23557571 272 18341334388377507300
23559900 14 18336540539429066464
2748010 2 18044370767654948913
474 4 14763474181140411506
67856867 119 17749674120786996236
7364860 26 18124035895098337873
77492 1 17022624165020642121
81228 2 18196951988442053512

>  <PUBCHEM_SHAPE_MULTIPOLES>  (1) 
319.31
8.84
1.49
1.21
4.47
0.32
-0.78
-2.38
0.37
-1.3
0.02
1.33
-0.28
0.53

>  <PUBCHEM_SHAPE_SELFOVERLAP>  (1) 
695.352

>  <PUBCHEM_SHAPE_VOLUME>  (1) 
169.8

>  <PUBCHEM_COORDINATE_TYPE>  (1) 
2
5
10

$$$$
