1809
     RDKit          3D

 15 16  0  0  0  0  0  0  0  0999 V2000
    4.1423    0.9070   -0.1733 O   0  0  0  0  0  0  0  0  0  0  0  0
   -1.2092   -2.5164   -0.0634 N   0  0  0  0  0  0  0  0  0  0  0  0
   -3.9830    2.6301   -0.3554 N   0  0  0  0  0  0  0  0  0  0  0  0
    2.5647    2.5063    0.2872 N   0  0  0  0  0  0  0  0  0  0  0  0
   -1.8389   -0.4272    0.3439 C   0  0  0  0  0  0  0  0  0  0  0  0
   -0.4261   -0.4410    0.1746 C   0  0  0  0  0  0  0  0  0  0  0  0
   -0.0567   -1.7635   -0.0796 C   0  0  0  0  0  0  0  0  0  0  0  0
   -2.6781    0.7532    0.6329 C   0  0  0  0  0  0  0  0  0  0  0  0
   -2.2914   -1.7175    0.1915 C   0  0  0  0  0  0  0  0  0  0  0  0
    0.5770    0.5479    0.2133 C   0  0  0  0  0  0  0  0  0  0  0  0
   -3.1800    1.4479   -0.6488 C   0  0  0  0  0  0  0  0  0  0  0  0
    1.2710   -2.1482   -0.2978 C   0  0  0  0  0  0  0  0  0  0  0  0
    1.9093    0.1778   -0.0031 C   0  0  0  0  0  0  0  0  0  0  0  0
    2.2488   -1.1501   -0.2546 C   0  0  0  0  0  0  0  0  0  0  0  0
    2.9502    1.1936    0.0326 C   0  0  0  0  0  0  0  0  0  0  0  0
  1 15  2  0
  2  7  1  0
  2  9  1  0
  3 11  1  0
  4 15  1  0
  5  6  1  0
  5  8  1  0
  5  9  2  0
  6  7  2  0
  6 10  1  0
  7 12  1  0
  8 11  1  0
 10 13  2  0
 12 14  2  0
 13 14  1  0
 13 15  1  0
M  END
>  <PUBCHEM_COMPOUND_CID>  (1) 
1809

>  <PUBCHEM_CONFORMER_RMSD>  (1) 
0.6

>  <PUBCHEM_CONFORMER_DIVERSEORDER>  (1) 
1
6
4
5
2
3

>  <PUBCHEM_MMFF94_PARTIAL_CHARGES>  (1) 
23
1 -0.57
10 -0.15
11 0.27
12 -0.15
13 0.09
14 -0.15
15 0.54
18 0.15
19 0.27
2 0.03
20 0.15
23 0.15
24 0.15
25 0.36
26 0.36
27 0.37
28 0.37
3 -0.99
4 -0.8
5 -0.18
7 -0.15
8 0.18
9 -0.3

>  <PUBCHEM_EFFECTIVE_ROTOR_COUNT>  (1) 
3

>  <PUBCHEM_PHARMACOPHORE_FEATURES>  (1) 
8
1 1 acceptor
1 2 cation
1 2 donor
1 3 cation
1 3 donor
1 4 donor
5 2 5 6 7 9 rings
6 6 7 10 12 13 14 rings

>  <PUBCHEM_HEAVY_ATOM_COUNT>  (1) 
15

>  <PUBCHEM_ATOM_DEF_STEREO_COUNT>  (1) 
0

>  <PUBCHEM_ATOM_UDEF_STEREO_COUNT>  (1) 
0

>  <PUBCHEM_BOND_DEF_STEREO_COUNT>  (1) 
0

>  <PUBCHEM_BOND_UDEF_STEREO_COUNT>  (1) 
0

>  <PUBCHEM_ISOTOPIC_ATOM_COUNT>  (1) 
0

>  <PUBCHEM_COMPONENT_COUNT>  (1) 
1

>  <PUBCHEM_CACTVS_TAUTO_COUNT>  (1) 
5

>  <PUBCHEM_CONFORMER_ID>  (1) 
0000071100000001

>  <PUBCHEM_MMFF94_ENERGY>  (1) 
25.2488

>  <PUBCHEM_FEATURE_SELFOVERLAP>  (1) 
40.688

>  <PUBCHEM_SHAPE_FINGERPRINT>  (1) 
10608611 8 18411139159897970801
10967382 1 18267306430525723424
12730499 353 18118972387082073553
13380535 76 18412260636083710374
13464514 151 18341616949627223708
13897977 150 18411983546189195341
14614273 12 18268999846063031459
14648413 74 18338521845759373786
14897335 6 18411978048736674927
15279308 100 18337962190087741814
16945 1 18125733296011374970
1741750 31 18412826876050561521
17834072 32 18408325509680143004
18186145 218 18201168654230925665
18219364 16 18339375105679846585
20510252 161 17983019139299627906
21501502 16 18409721863661465494
21524375 3 18411139164314458835
21639500 275 18194108617492369093
2334 1 18340491157031422266
23402539 116 18125999618823753847
23402655 69 18200304417239286133
23559900 14 18059866095342722132
238 59 17322918202791415909
25 1 18339078177204757933
2748010 2 18340782484584066614
305870 269 18261108573806496122
474 4 18196371408227909881
7364860 26 18342747273735879798
84936 182 18057031416020300185

>  <PUBCHEM_SHAPE_MULTIPOLES>  (1) 
287.88
6.01
2.89
0.69
0.34
0.13
0
4.91
0.51
0.76
0.21
0.2
0.05
0.59

>  <PUBCHEM_SHAPE_SELFOVERLAP>  (1) 
621.659

>  <PUBCHEM_SHAPE_VOLUME>  (1) 
159.7

>  <PUBCHEM_COORDINATE_TYPE>  (1) 
2
5
10

$$$$
