18094
     RDKit          3D

  9  8  0  0  0  0  0  0  0  0999 V2000
   -0.1973    1.6636    1.1950 Cl  0  0  0  0  0  0  0  0  0  0  0  0
   -1.0053   -1.6108   -0.4993 O   0  0  0  0  0  0  0  0  0  0  0  0
    2.1490   -0.2208   -0.6819 O   0  0  0  0  0  0  0  0  0  0  0  0
   -2.2720   -0.0282    0.3365 O   0  0  0  0  0  0  0  0  0  0  0  0
    1.3029   -0.8517    1.2422 O   0  0  0  0  0  0  0  0  0  0  0  0
   -1.1984   -0.4468   -0.1213 N   0  0  0  0  0  0  0  0  0  0  0  0
    1.2437   -0.2411    0.1663 N   0  0  0  0  0  0  0  0  0  0  0  0
   -0.0302    0.5213   -0.1432 C   0  0  0  0  0  0  0  0  0  0  0  0
    0.0075    1.2144   -1.4943 C   0  0  0  0  0  0  0  0  0  0  0  0
  1  8  1  0
  2  6  1  0
  3  7  1  0
  4  6  2  0
  5  7  2  0
  6  8  1  0
  7  8  1  0
  8  9  1  0
M  CHG  4   2  -1   3  -1   6   1   7   1
M  END
>  <PUBCHEM_COMPOUND_CID>  (1) 
18094

>  <PUBCHEM_CONFORMER_RMSD>  (1) 
0.4

>  <PUBCHEM_CONFORMER_DIVERSEORDER>  (1) 
1
4
5
7
3
6
2

>  <PUBCHEM_MMFF94_PARTIAL_CHARGES>  (1) 
8
1 -0.29
2 -0.52
3 -0.52
4 -0.52
5 -0.52
6 0.8
7 0.8
8 0.77

>  <PUBCHEM_EFFECTIVE_ROTOR_COUNT>  (1) 
2

>  <PUBCHEM_PHARMACOPHORE_FEATURES>  (1) 
6
1 2 acceptor
1 2 anion
1 3 acceptor
1 3 anion
1 4 acceptor
1 5 acceptor

>  <PUBCHEM_HEAVY_ATOM_COUNT>  (1) 
9

>  <PUBCHEM_ATOM_DEF_STEREO_COUNT>  (1) 
0

>  <PUBCHEM_ATOM_UDEF_STEREO_COUNT>  (1) 
0

>  <PUBCHEM_BOND_DEF_STEREO_COUNT>  (1) 
0

>  <PUBCHEM_BOND_UDEF_STEREO_COUNT>  (1) 
0

>  <PUBCHEM_ISOTOPIC_ATOM_COUNT>  (1) 
0

>  <PUBCHEM_COMPONENT_COUNT>  (1) 
1

>  <PUBCHEM_CACTVS_TAUTO_COUNT>  (1) 
1

>  <PUBCHEM_CONFORMER_ID>  (1) 
000046AE00000001

>  <PUBCHEM_MMFF94_ENERGY>  (1) 
22.4091

>  <PUBCHEM_FEATURE_SELFOVERLAP>  (1) 
30.614

>  <PUBCHEM_SHAPE_FINGERPRINT>  (1) 
12423570 1 14439735785058748681
137420 1 11623537407034944141
18185500 45 18187082883771453302
21040471 1 17409093491321660768
24536 1 17559372850830770091
29004967 10 17168150047942356897
5943 1 10012779934884764733

>  <PUBCHEM_SHAPE_MULTIPOLES>  (1) 
153.65
2.06
1.52
1.29
0.05
0.25
-0.21
-0.63
0.12
-0.33
0.2
0.25
0.43
-0.2

>  <PUBCHEM_SHAPE_SELFOVERLAP>  (1) 
285.344

>  <PUBCHEM_SHAPE_VOLUME>  (1) 
97.1

>  <PUBCHEM_COORDINATE_TYPE>  (1) 
2
5
10

$$$$
