18090
     RDKit          3D

 16 16  0  0  0  0  0  0  0  0999 V2000
    0.1182    2.0473    0.7920 O   0  0  0  0  0  0  0  0  0  0  0  0
   -4.0582   -0.1822    0.2827 O   0  0  0  0  0  0  0  0  0  0  0  0
    4.8740   -0.1498   -0.9186 N   0  0  0  0  0  0  0  0  0  0  0  0
    1.9751   -1.7285    2.0878 N   0  0  0  0  0  0  0  0  0  0  0  0
    0.0046    0.0470   -0.5355 C   0  0  0  0  0  0  0  0  0  0  0  0
   -0.6011    1.0152    0.2655 C   0  0  0  0  0  0  0  0  0  0  0  0
   -2.7260   -0.1067    0.0144 C   0  0  0  0  0  0  0  0  0  0  0  0
   -1.9665    0.9383    0.5405 C   0  0  0  0  0  0  0  0  0  0  0  0
   -0.7549   -0.9979   -1.0617 C   0  0  0  0  0  0  0  0  0  0  0  0
   -2.1202   -1.0748   -0.7866 C   0  0  0  0  0  0  0  0  0  0  0  0
    1.4285    0.1051   -0.8377 C   0  0  0  0  0  0  0  0  0  0  0  0
    2.4324   -0.4411   -0.1101 C   0  0  0  0  0  0  0  0  0  0  0  0
    0.2118    3.2356    0.0099 C   0  0  0  0  0  0  0  0  0  0  0  0
   -4.7744   -1.2768   -0.2871 C   0  0  0  0  0  0  0  0  0  0  0  0
    3.7788   -0.2795   -0.5570 C   0  0  0  0  0  0  0  0  0  0  0  0
    2.1779   -1.1513    1.1016 C   0  0  0  0  0  0  0  0  0  0  0  0
  1  6  1  0
  1 13  1  0
  2  7  1  0
  2 14  1  0
  3 15  3  0
  4 16  3  0
  5  6  2  0
  5  9  1  0
  5 11  1  0
  6  8  1  0
  7  8  2  0
  7 10  1  0
  9 10  2  0
 11 12  2  3
 12 15  1  0
 12 16  1  0
M  END
>  <PUBCHEM_COMPOUND_CID>  (1) 
18090

>  <PUBCHEM_CONFORMER_RMSD>  (1) 
0.6

>  <PUBCHEM_CONFORMER_DIVERSEORDER>  (1) 
1
8
9
4
5
3
7
6
2

>  <PUBCHEM_MMFF94_PARTIAL_CHARGES>  (1) 
20
1 -0.36
10 -0.15
11 -0.18
12 0.13
13 0.28
14 0.28
15 0.49
16 0.49
17 0.15
18 0.15
19 0.15
2 -0.36
20 0.15
3 -0.56
4 -0.56
5 0.03
6 0.08
7 0.08
8 -0.15
9 -0.15

>  <PUBCHEM_EFFECTIVE_ROTOR_COUNT>  (1) 
3

>  <PUBCHEM_PHARMACOPHORE_FEATURES>  (1) 
5
1 1 acceptor
1 2 acceptor
1 3 acceptor
1 4 acceptor
6 5 6 7 8 9 10 rings

>  <PUBCHEM_HEAVY_ATOM_COUNT>  (1) 
16

>  <PUBCHEM_ATOM_DEF_STEREO_COUNT>  (1) 
0

>  <PUBCHEM_ATOM_UDEF_STEREO_COUNT>  (1) 
0

>  <PUBCHEM_BOND_DEF_STEREO_COUNT>  (1) 
0

>  <PUBCHEM_BOND_UDEF_STEREO_COUNT>  (1) 
0

>  <PUBCHEM_ISOTOPIC_ATOM_COUNT>  (1) 
0

>  <PUBCHEM_COMPONENT_COUNT>  (1) 
1

>  <PUBCHEM_CACTVS_TAUTO_COUNT>  (1) 
1

>  <PUBCHEM_CONFORMER_ID>  (1) 
000046AA00000001

>  <PUBCHEM_MMFF94_ENERGY>  (1) 
56.8317

>  <PUBCHEM_FEATURE_SELFOVERLAP>  (1) 
25.374

>  <PUBCHEM_SHAPE_FINGERPRINT>  (1) 
10989021 7 18342741857360100372
11578080 2 17970880376363717948
11680986 33 18054509376816305737
12236239 1 18334018280981982006
12553582 1 18340756113759208399
12644460 14 18197509630337694681
13538477 17 18119523233216047128
13760787 19 18113899330145514055
14787075 74 18261402212262204276
14993402 34 18343301474581936759
15375462 189 18333725823251857258
16945 1 17489292067241352381
18175812 5 16128649777668853855
18222031 100 18060125566558274047
200 152 17894631435383716846
20201158 50 14996289102121044686
20279233 1 14779270791059647762
20645477 70 18196929092735964719
20671657 1 18055075621258050133
21029758 27 18340777013075176629
228727 97 18333737888368606612
2297311 6 17917164814415589876
23236772 104 18261684675102427144
23402539 116 18131632261819704159
23419403 2 15256845934637979125
23532345 42 18131059446368601595
23557571 272 17917163714788138324
23598294 1 18269270158192860768
474 4 18116158955701226156
7364860 26 17914894472447846257

>  <PUBCHEM_SHAPE_MULTIPOLES>  (1) 
307.57
7.24
2.14
1.2
0.74
2.2
-0.44
-3.54
1.03
0.09
-0.43
-0.8
-0.54
-0.77

>  <PUBCHEM_SHAPE_SELFOVERLAP>  (1) 
639.975

>  <PUBCHEM_SHAPE_VOLUME>  (1) 
171.7

>  <PUBCHEM_COORDINATE_TYPE>  (1) 
2
5
10

$$$$
