18104
     RDKit          3D

 30 33  0  0  0  0  0  0  0  0999 V2000
   -4.6338    1.2275    0.9832 S   0  0  0  0  0  0  0  0  0  0  0  0
    7.8798   -0.0530    0.7913 O   0  0  0  0  0  0  0  0  0  0  0  0
    1.7959    2.5401   -0.6554 O   0  0  0  0  0  0  0  0  0  0  0  0
    1.8458   -2.1969   -0.2789 N   0  0  0  0  0  0  0  0  0  0  0  0
    4.6664   -1.7450    0.1661 N   0  0  0  0  0  0  0  0  0  0  0  0
   -2.1790   -0.5410    0.2678 N   0  0  0  0  0  0  0  0  0  0  0  0
    2.7329   -3.2836    0.1535 C   0  0  0  0  0  0  0  0  0  0  0  0
    2.5928   -1.2069   -1.0645 C   0  0  0  0  0  0  0  0  0  0  0  0
    3.9199   -2.7346    0.9526 C   0  0  0  0  0  0  0  0  0  0  0  0
    3.7789   -0.6579   -0.2642 C   0  0  0  0  0  0  0  0  0  0  0  0
    0.7167   -2.7219   -1.0442 C   0  0  0  0  0  0  0  0  0  0  0  0
   -0.4778   -1.7628   -1.0336 C   0  0  0  0  0  0  0  0  0  0  0  0
    5.7970   -1.2208    0.9299 C   0  0  0  0  0  0  0  0  0  0  0  0
   -1.0049   -1.4185    0.3590 C   0  0  0  0  0  0  0  0  0  0  0  0
    6.8093   -0.5619    0.0065 C   0  0  0  0  0  0  0  0  0  0  0  0
   -1.9497    0.8583    0.2679 C   0  0  0  0  0  0  0  0  0  0  0  0
   -3.4463   -1.1594    0.1206 C   0  0  0  0  0  0  0  0  0  0  0  0
   -2.9900    1.7644    0.5537 C   0  0  0  0  0  0  0  0  0  0  0  0
   -4.6349   -0.4533    0.3919 C   0  0  0  0  0  0  0  0  0  0  0  0
   -0.6892    1.4096   -0.0503 C   0  0  0  0  0  0  0  0  0  0  0  0
   -3.5810   -2.4893   -0.3350 C   0  0  0  0  0  0  0  0  0  0  0  0
   -0.4662    2.7892   -0.0618 C   0  0  0  0  0  0  0  0  0  0  0  0
   -2.7589    3.1516    0.5454 C   0  0  0  0  0  0  0  0  0  0  0  0
   -5.8896   -1.0693    0.2373 C   0  0  0  0  0  0  0  0  0  0  0  0
   -1.5014    3.6610    0.2396 C   0  0  0  0  0  0  0  0  0  0  0  0
   -4.8306   -3.0952   -0.4916 C   0  0  0  0  0  0  0  0  0  0  0  0
   -5.9859   -2.3855   -0.2019 C   0  0  0  0  0  0  0  0  0  0  0  0
    0.8534    3.3110   -0.3811 C   0  0  0  0  0  0  0  0  0  0  0  0
    1.0987    4.8303   -0.3840 C   0  0  0  0  0  0  0  0  0  0  0  0
    2.5315    5.2138   -0.7197 C   0  0  0  0  0  0  0  0  0  0  0  0
  1 18  1  0
  1 19  1  0
  2 15  1  0
  3 28  2  0
  4  7  1  0
  4  8  1  0
  4 11  1  0
  5  9  1  0
  5 10  1  0
  5 13  1  0
  6 14  1  0
  6 16  1  0
  6 17  1  0
  7  9  1  0
  8 10  1  0
 11 12  1  0
 12 14  1  0
 13 15  1  0
 16 18  2  0
 16 20  1  0
 17 19  2  0
 17 21  1  0
 18 23  1  0
 19 24  1  0
 20 22  2  0
 21 26  2  0
 22 25  1  0
 22 28  1  0
 23 25  2  0
 24 27  2  0
 26 27  1  0
 28 29  1  0
 29 30  1  0
M  END
>  <PUBCHEM_COMPOUND_CID>  (1) 
18104

>  <PUBCHEM_CONFORMER_RMSD>  (1) 
1

>  <PUBCHEM_CONFORMER_DIVERSEORDER>  (1) 
1
24
45
55
37
57
4
53
52
70
2
44
33
47
32
18
16
22
30
40
50
28
34
51
43
8
71
48
63
46
42
62
65
3
11
61
74
56
73
25
60
29
23
13
15
68
77
38
36
69
78
21
75
59
76
20
41
35
64
5
12
6
7
39
72
31
49
58
14
10
66
54
26
9
19
27
17
67

>  <PUBCHEM_MMFF94_PARTIAL_CHARGES>  (1) 
36
1 -0.2
10 0.27
11 0.27
13 0.27
14 0.37
15 0.28
16 0.1
17 0.1
18 0.1
19 0.1
2 -0.68
20 -0.15
21 -0.15
22 0.09
23 -0.15
24 -0.15
25 -0.15
26 -0.15
27 -0.15
28 0.42
29 0.06
3 -0.57
4 -0.81
49 0.15
5 -0.81
50 0.15
51 0.15
52 0.15
53 0.4
54 0.15
55 0.15
56 0.15
6 -0.57
7 0.27
8 0.27
9 0.27

>  <PUBCHEM_EFFECTIVE_ROTOR_COUNT>  (1) 
9.6

>  <PUBCHEM_PHARMACOPHORE_FEATURES>  (1) 
11
1 2 acceptor
1 2 donor
1 3 acceptor
1 30 hydrophobe
1 4 cation
1 5 cation
1 6 cation
6 1 6 16 17 18 19 rings
6 16 18 20 22 23 25 rings
6 17 19 21 24 26 27 rings
6 4 5 7 8 9 10 rings

>  <PUBCHEM_HEAVY_ATOM_COUNT>  (1) 
30

>  <PUBCHEM_ATOM_DEF_STEREO_COUNT>  (1) 
0

>  <PUBCHEM_ATOM_UDEF_STEREO_COUNT>  (1) 
0

>  <PUBCHEM_BOND_DEF_STEREO_COUNT>  (1) 
0

>  <PUBCHEM_BOND_UDEF_STEREO_COUNT>  (1) 
0

>  <PUBCHEM_ISOTOPIC_ATOM_COUNT>  (1) 
0

>  <PUBCHEM_COMPONENT_COUNT>  (1) 
1

>  <PUBCHEM_CACTVS_TAUTO_COUNT>  (1) 
2

>  <PUBCHEM_CONFORMER_ID>  (1) 
000046B800000001

>  <PUBCHEM_MMFF94_ENERGY>  (1) 
84.8747

>  <PUBCHEM_FEATURE_SELFOVERLAP>  (1) 
55.853

>  <PUBCHEM_SHAPE_FINGERPRINT>  (1) 
10319926 262 17981311306096515762
10369192 42 16917345948705957294
10670039 82 18265348226941358550
1100329 8 18266741479065463966
11578080 2 17967801778987830685
11963148 33 17331959933884740879
12107183 9 18340498772810623185
12156800 1 11054642205590715493
13111901 25 18338811073178362609
1361 2 18193275423955035416
138480 1 18410578422058695181
14068700 675 18412265072890493684
14394314 77 18336549309051054825
15419008 145 18264473011723062434
15927050 60 17619916496658041982
15961568 22 18411984629122711198
167882 2 18120938562415819493
17627616 140 17905891735732145630
18336668 15 18187086152252109125
19611394 137 18116165526526864538
20721686 56 18264490753362108016
20771845 171 17682115818444541605
21344244 246 17979064213761619847
21360443 120 17831021595430768924
21796203 349 17976019515318408136
22899556 105 17268055175986020959
23559900 14 18341885329923745873
25019877 29 17275102860239956502
373842 8 18193556894409314866
4280585 95 18409160000830226641
469060 322 18340498772129615114
474144 1 18042147434863604732
550186 72 18411135797313793564
57676310 188 18120099644030374652
9961470 85 17909258436706508568
9981440 41 16822773337053864385

>  <PUBCHEM_SHAPE_MULTIPOLES>  (1) 
594.55
14.15
6.48
0.93
13.64
8.41
-0.01
-11.06
3.43
1.63
-1.21
0.31
-0.14
-1.94

>  <PUBCHEM_SHAPE_SELFOVERLAP>  (1) 
1241.419

>  <PUBCHEM_SHAPE_VOLUME>  (1) 
337.7

>  <PUBCHEM_COORDINATE_TYPE>  (1) 
2
5
10

$$$$
