18108
     RDKit          3D

 18 18  0  0  1  0  0  0  0  0999 V2000
   -0.4018    2.4434   -1.3063 O   0  0  0  0  0  0  0  0  0  0  0  0
   -3.5899   -1.0285    0.2784 N   0  0  0  0  0  0  0  0  0  0  0  0
   -0.2745    0.4759   -2.4359 N   0  0  0  0  0  0  0  0  0  0  0  0
    0.0225    0.4207    0.0404 C   0  0  0  0  0  0  0  0  0  0  0  0
   -0.0404    1.3782    1.3106 C   0  0  0  0  0  0  0  0  0  0  0  0
   -1.1736   -0.6052    0.1427 C   0  0  0  0  0  0  0  0  0  0  0  0
    1.4140   -0.2663   -0.0182 C   0  0  0  0  0  0  0  0  0  0  0  0
   -2.5789    0.0206    0.1739 C   0  0  0  0  0  0  0  0  0  0  0  0
   -0.2659    1.2193   -1.2747 C   0  0  0  0  0  0  0  0  0  0  0  0
    0.9712    2.5362    1.2929 C   0  0  0  0  0  0  0  0  0  0  0  0
    0.0848    0.6532    2.6622 C   0  0  0  0  0  0  0  0  0  0  0  0
    2.3909    0.3379   -0.7562 C   0  0  0  0  0  0  0  0  0  0  0  0
    1.5771   -1.4329    0.6719 C   0  0  0  0  0  0  0  0  0  0  0  0
    3.6409   -0.2790   -0.8088 C   0  0  0  0  0  0  0  0  0  0  0  0
    2.8272   -2.0495    0.6194 C   0  0  0  0  0  0  0  0  0  0  0  0
   -3.5391   -1.9078   -0.8899 C   0  0  0  0  0  0  0  0  0  0  0  0
   -4.9235   -0.4437    0.4186 C   0  0  0  0  0  0  0  0  0  0  0  0
    3.8590   -1.4725   -0.1210 C   0  0  0  0  0  0  0  0  0  0  0  0
  1  9  2  0
  2  8  1  0
  2 16  1  0
  2 17  1  0
  3  9  1  0
  4  5  1  0
  4  6  1  0
  4  7  1  0
  4  9  1  0
  5 10  1  0
  5 11  1  0
  6  8  1  0
  7 12  2  0
  7 13  1  0
 12 14  1  0
 13 15  2  0
 14 18  2  0
 15 18  1  0
M  END
>  <PUBCHEM_COMPOUND_CID>  (1) 
18108

>  <PUBCHEM_CONFORMER_RMSD>  (1) 
0.8

>  <PUBCHEM_CONFORMER_DIVERSEORDER>  (1) 
2
21
16
22
26
1
20
7
24
14
5
33
32
36
17
15
28
34
8
23
10
12
6
19
11
4
25
3
35
18
13
9
27
30
31
29

>  <PUBCHEM_MMFF94_PARTIAL_CHARGES>  (1) 
21
1 -0.57
12 -0.15
13 -0.15
14 -0.15
15 -0.15
16 0.27
17 0.27
18 -0.15
2 -0.81
3 -0.8
30 0.15
31 0.15
32 0.37
33 0.37
34 0.15
35 0.15
4 0.2
42 0.15
7 -0.14
8 0.27
9 0.57

>  <PUBCHEM_EFFECTIVE_ROTOR_COUNT>  (1) 
6

>  <PUBCHEM_PHARMACOPHORE_FEATURES>  (1) 
5
1 1 acceptor
1 2 cation
1 3 donor
3 5 10 11 hydrophobe
6 7 12 13 14 15 18 rings

>  <PUBCHEM_HEAVY_ATOM_COUNT>  (1) 
18

>  <PUBCHEM_ATOM_DEF_STEREO_COUNT>  (1) 
0

>  <PUBCHEM_ATOM_UDEF_STEREO_COUNT>  (1) 
1

>  <PUBCHEM_BOND_DEF_STEREO_COUNT>  (1) 
0

>  <PUBCHEM_BOND_UDEF_STEREO_COUNT>  (1) 
0

>  <PUBCHEM_ISOTOPIC_ATOM_COUNT>  (1) 
0

>  <PUBCHEM_COMPONENT_COUNT>  (1) 
1

>  <PUBCHEM_CACTVS_TAUTO_COUNT>  (1) 
2

>  <PUBCHEM_CONFORMER_ID>  (1) 
000046BC00000002

>  <PUBCHEM_MMFF94_ENERGY>  (1) 
66.6624

>  <PUBCHEM_FEATURE_SELFOVERLAP>  (1) 
25.371

>  <PUBCHEM_SHAPE_FINGERPRINT>  (1) 
10610426 29 18413105056713314555
10756046 5 15431979277425041307
11578080 2 18339907264749446113
12423570 1 8419687573434428160
12633257 1 17489316304317057211
13134695 92 17988638636182562617
13149001 5 15141832628625902293
13538477 17 17983303629660040776
14787075 74 18057321897806810512
14817 1 13844784026120538368
15375462 189 18413110562904027915
15422964 175 17560244609138755974
15906896 17 17411333222382927416
16945 1 18040726874055606600
18186145 218 15213024842525009423
187816 3 15719399429676693590
19010151 120 18271539623454791904
200 152 18261960656900583074
20600515 1 17417267475764035529
21296965 67 18201440255046090072
21452121 71 18341062894434885017
21501502 16 17532938190934569198
23402539 116 16877942694439641270
23419403 2 18267276829622117088
23526113 38 16660935468562104961
25222932 49 15902611353288878543
298252 57 11314317169183105672
3060560 45 15719666675585183923
54040823 5 17968106351470821051
5845 1 14308593382755623704
5895379 119 15624290566109995145
5902787 121 17989205983871102683
59915604 170 16588315994254885132
83771 10 18334858307628264711

>  <PUBCHEM_SHAPE_MULTIPOLES>  (1) 
354.6
6.52
2.27
1.8
4.85
0.8
0.12
-4.94
-0.14
-0.39
-0.38
-0.12
0.82
-0.29

>  <PUBCHEM_SHAPE_SELFOVERLAP>  (1) 
717.479

>  <PUBCHEM_SHAPE_VOLUME>  (1) 
207.9

>  <PUBCHEM_COORDINATE_TYPE>  (1) 
2
5
10

$$$$
