18119
     RDKit          3D

 29 32  0  0  0  0  0  0  0  0999 V2000
    0.0559    2.8458   -0.1110 N   0  0  0  0  0  0  0  0  0  0  0  0
   -3.4411   -1.6133    0.2789 N   0  0  0  0  0  0  0  0  0  0  0  0
    0.6117   -2.0319    3.0773 N   0  0  0  0  0  0  0  0  0  0  0  0
    0.3666   -0.9474    0.6710 C   0  0  0  0  0  0  0  0  0  0  0  0
    0.2532    0.6033    0.8745 C   0  0  0  0  0  0  0  0  0  0  0  0
   -0.9978   -1.4434    0.0787 C   0  0  0  0  0  0  0  0  0  0  0  0
    0.1629    1.4210   -0.4236 C   0  0  0  0  0  0  0  0  0  0  0  0
   -2.2330   -1.1048    0.9280 C   0  0  0  0  0  0  0  0  0  0  0  0
    0.0820    3.6458   -1.3435 C   0  0  0  0  0  0  0  0  0  0  0  0
   -1.1614    3.1111    0.6688 C   0  0  0  0  0  0  0  0  0  0  0  0
   -4.6151   -1.3957    1.1357 C   0  0  0  0  0  0  0  0  0  0  0  0
   -3.6204   -0.9853   -1.0377 C   0  0  0  0  0  0  0  0  0  0  0  0
    1.5210   -1.2783   -0.2923 C   0  0  0  0  0  0  0  0  0  0  0  0
    0.0203    5.1418   -1.0317 C   0  0  0  0  0  0  0  0  0  0  0  0
   -1.2636    4.5898    1.0465 C   0  0  0  0  0  0  0  0  0  0  0  0
   -5.8804   -1.9660    0.4930 C   0  0  0  0  0  0  0  0  0  0  0  0
   -4.8532   -1.5423   -1.7515 C   0  0  0  0  0  0  0  0  0  0  0  0
   -1.2026    5.4826   -0.1875 C   0  0  0  0  0  0  0  0  0  0  0  0
   -6.1064   -1.3847   -0.8981 C   0  0  0  0  0  0  0  0  0  0  0  0
    2.8198   -0.9190    0.0175 C   0  0  0  0  0  0  0  0  0  0  0  0
    0.5129   -1.5613    2.0205 C   0  0  0  0  0  0  0  0  0  0  0  0
    1.1658   -1.9382   -1.4469 C   0  0  0  0  0  0  0  0  0  0  0  0
    3.8357   -1.2521   -0.9097 C   0  0  0  0  0  0  0  0  0  0  0  0
    2.1650   -2.2661   -2.3587 C   0  0  0  0  0  0  0  0  0  0  0  0
    3.1640   -0.2455    1.2009 C   0  0  0  0  0  0  0  0  0  0  0  0
    3.4918   -1.9259   -2.0931 C   0  0  0  0  0  0  0  0  0  0  0  0
    5.1659   -0.9020   -0.6263 C   0  0  0  0  0  0  0  0  0  0  0  0
    4.4907    0.0947    1.4661 C   0  0  0  0  0  0  0  0  0  0  0  0
    5.4898   -0.2327    0.5542 C   0  0  0  0  0  0  0  0  0  0  0  0
  1  7  1  0
  1  9  1  0
  1 10  1  0
  2  8  1  0
  2 11  1  0
  2 12  1  0
  3 21  3  0
  4  5  1  0
  4  6  1  0
  4 13  1  0
  4 21  1  0
  5  7  1  0
  6  8  1  0
  9 14  1  0
 10 15  1  0
 11 16  1  0
 12 17  1  0
 13 20  1  0
 13 22  2  0
 14 18  1  0
 15 18  1  0
 16 19  1  0
 17 19  1  0
 20 23  2  0
 20 25  1  0
 22 24  1  0
 23 26  1  0
 23 27  1  0
 24 26  2  0
 25 28  2  0
 27 29  2  0
 28 29  1  0
M  END
>  <PUBCHEM_COMPOUND_CID>  (1) 
18119

>  <PUBCHEM_CONFORMER_RMSD>  (1) 
1

>  <PUBCHEM_CONFORMER_DIVERSEORDER>  (1) 
1
19
10
4
46
13
27
36
25
31
3
34
14
43
21
17
42
44
18
39
23
32
11
47
24
12
29
15
20
16
5
45
8
26
22
33
30
35
48
2
28
9
38
40
6
41
37
7

>  <PUBCHEM_MMFF94_PARTIAL_CHARGES>  (1) 
26
1 -0.81
10 0.27
11 0.27
12 0.27
13 -0.14
2 -0.81
21 0.36
22 -0.15
24 -0.15
25 -0.15
26 -0.15
27 -0.15
28 -0.15
29 -0.15
3 -0.56
4 0.34
58 0.15
59 0.15
60 0.15
61 0.15
62 0.15
63 0.15
64 0.15
7 0.27
8 0.27
9 0.27

>  <PUBCHEM_EFFECTIVE_ROTOR_COUNT>  (1) 
9.4

>  <PUBCHEM_PHARMACOPHORE_FEATURES>  (1) 
7
1 1 cation
1 2 cation
1 3 acceptor
6 1 9 10 14 15 18 rings
6 13 20 22 23 24 26 rings
6 2 11 12 16 17 19 rings
6 20 23 25 27 28 29 rings

>  <PUBCHEM_HEAVY_ATOM_COUNT>  (1) 
29

>  <PUBCHEM_ATOM_DEF_STEREO_COUNT>  (1) 
0

>  <PUBCHEM_ATOM_UDEF_STEREO_COUNT>  (1) 
0

>  <PUBCHEM_BOND_DEF_STEREO_COUNT>  (1) 
0

>  <PUBCHEM_BOND_UDEF_STEREO_COUNT>  (1) 
0

>  <PUBCHEM_ISOTOPIC_ATOM_COUNT>  (1) 
0

>  <PUBCHEM_COMPONENT_COUNT>  (1) 
1

>  <PUBCHEM_CACTVS_TAUTO_COUNT>  (1) 
1

>  <PUBCHEM_CONFORMER_ID>  (1) 
000046C700000001

>  <PUBCHEM_MMFF94_ENERGY>  (1) 
77.4304

>  <PUBCHEM_FEATURE_SELFOVERLAP>  (1) 
35.549

>  <PUBCHEM_SHAPE_FINGERPRINT>  (1) 
10006869 2 18265042721538561240
102385 1 17906730306717577890
10815517 723 18126864715821891353
10930396 42 18122875838080774312
10940486 97 17845087549132554103
11578080 2 17630902499215250728
11646440 116 18334582364675128171
12107698 1 18409441493498392688
12293681 160 17894633673135629082
12788726 201 18260272945317221096
13149001 5 17898303933075237443
13540713 4 17843964733444668206
13590594 115 18410013256382294633
13782708 43 17916312649902377134
13911987 19 18116733961142570238
14028597 1 17822569408855105290
140371 6 18340218482595656035
14840074 17 17988644154998838358
14955137 171 18339081613442683027
15081414 286 18266458896161069369
15198563 99 18337956688171956405
15439362 3 17901662993022932621
15775530 1 17912368619651017070
15961568 22 18339365261973642772
16090146 7 16878241770625458986
1813 80 18343032098612702791
20600515 1 18040442117597262022
20739085 24 18199744928401686164
21033650 10 17970367935193756454
21285901 2 18130791135614794606
21641784 216 18339663177821341052
21860390 5 18194963165280544757
229495 10 17417802890845698014
23557571 272 18411421678667999942
23559900 14 18199741622216378339
24771750 20 17614294680830890605
283562 15 18261107431413325688
3298306 158 17613729531996748692
3380486 77 17312828182188499530
376196 1 17470157524508803849
4461854 278 17622479072781422945
46194498 28 18266732666562381543
5969126 39 18341332210786481246
6442390 28 17545331773738312980
6823239 73 16733536260790027623
6913067 236 18131340913146306726
7399639 24 18130496479857809698
7808743 9 17974025963925985364
9658208 31 17764880099815306452

>  <PUBCHEM_SHAPE_MULTIPOLES>  (1) 
581.86
10.52
5.89
2.08
6.67
14.91
-0.27
-10.64
1.24
3.73
1.44
-0.77
-1.33
0.6

>  <PUBCHEM_SHAPE_SELFOVERLAP>  (1) 
1230.542

>  <PUBCHEM_SHAPE_VOLUME>  (1) 
321.3

>  <PUBCHEM_COORDINATE_TYPE>  (1) 
2
5
10

$$$$
