18132
     RDKit          3D

 19 20  0  0  0  0  0  0  0  0999 V2000
    0.0940   -0.5150    1.0817 O   0  0  0  0  0  0  0  0  0  0  0  0
   -1.7241    1.4613    0.6497 O   0  0  0  0  0  0  0  0  0  0  0  0
   -4.3024    0.7731   -0.4410 O   0  0  0  0  0  0  0  0  0  0  0  0
    3.5300   -0.1111   -0.2351 N   0  0  0  0  0  0  0  0  0  0  0  0
    2.3478    0.1795    0.6146 C   0  0  0  0  0  0  0  0  0  0  0  0
    3.1651   -0.0248   -1.7233 C   0  0  0  0  0  0  0  0  0  0  0  0
    4.6579    0.8928    0.0391 C   0  0  0  0  0  0  0  0  0  0  0  0
    4.0678   -1.5213    0.0437 C   0  0  0  0  0  0  0  0  0  0  0  0
    1.2458   -0.8111    0.2945 C   0  0  0  0  0  0  0  0  0  0  0  0
    2.6312    1.3582   -2.0260 C   0  0  0  0  0  0  0  0  0  0  0  0
    5.0909    0.7735    1.4840 C   0  0  0  0  0  0  0  0  0  0  0  0
   -1.1196   -0.8169    0.5411 C   0  0  0  0  0  0  0  0  0  0  0  0
   -2.0703    0.1785    0.3140 C   0  0  0  0  0  0  0  0  0  0  0  0
   -3.3159   -0.1533   -0.2248 C   0  0  0  0  0  0  0  0  0  0  0  0
   -1.4050   -2.1394    0.2009 C   0  0  0  0  0  0  0  0  0  0  0  0
   -2.6087    2.4223    0.0669 C   0  0  0  0  0  0  0  0  0  0  0  0
   -4.0503    1.9941    0.2598 C   0  0  0  0  0  0  0  0  0  0  0  0
   -3.5954   -1.4739   -0.5773 C   0  0  0  0  0  0  0  0  0  0  0  0
   -2.6389   -2.4666   -0.3625 C   0  0  0  0  0  0  0  0  0  0  0  0
  1  9  1  0
  1 12  1  0
  2 13  1  0
  2 16  1  0
  3 14  1  0
  3 17  1  0
  4  5  1  0
  4  6  1  0
  4  7  1  0
  4  8  1  0
  5  9  1  0
  6 10  1  0
  7 11  1  0
 12 13  1  0
 12 15  2  0
 13 14  2  0
 14 18  1  0
 15 19  1  0
 16 17  1  0
 18 19  2  0
M  CHG  1   4   1
M  END
>  <PUBCHEM_COMPOUND_CID>  (1) 
18132

>  <PUBCHEM_CONFORMER_RMSD>  (1) 
0.8

>  <PUBCHEM_CONFORMER_DIVERSEORDER>  (1) 
1
41
60
44
87
21
58
22
81
72
45
39
63
86
46
54
42
51
7
78
50
53
20
30
25
102
62
61
33
55
29
23
57
59
92
47
5
49
64
16
19
70
40
101
4
37
17
27
36
8
11
66
24
14
43
85
94
31
74
103
15
26
52
18
10
91
12
71
104
2
38
48
100
13
69
34
3
35
99
65
56
96
98
28
105
90
9
32
6
95
89
93
82
76
73
84
68
75
106
97
80
79
88
67
83
77

>  <PUBCHEM_MMFF94_PARTIAL_CHARGES>  (1) 
20
1 -0.36
12 0.08
13 0.08
14 0.08
15 -0.15
16 0.28
17 0.28
18 -0.15
19 -0.15
2 -0.36
3 -0.36
37 0.15
4 -1.01
42 0.15
43 0.15
5 0.5
6 0.5
7 0.5
8 0.5
9 0.28

>  <PUBCHEM_EFFECTIVE_ROTOR_COUNT>  (1) 
6.8

>  <PUBCHEM_PHARMACOPHORE_FEATURES>  (1) 
6
1 1 acceptor
1 2 acceptor
1 3 acceptor
1 4 cation
6 12 13 14 15 18 19 rings
6 2 3 13 14 16 17 rings

>  <PUBCHEM_HEAVY_ATOM_COUNT>  (1) 
19

>  <PUBCHEM_ATOM_DEF_STEREO_COUNT>  (1) 
0

>  <PUBCHEM_ATOM_UDEF_STEREO_COUNT>  (1) 
0

>  <PUBCHEM_BOND_DEF_STEREO_COUNT>  (1) 
0

>  <PUBCHEM_BOND_UDEF_STEREO_COUNT>  (1) 
0

>  <PUBCHEM_ISOTOPIC_ATOM_COUNT>  (1) 
0

>  <PUBCHEM_COMPONENT_COUNT>  (1) 
1

>  <PUBCHEM_CACTVS_TAUTO_COUNT>  (1) 
1

>  <PUBCHEM_CONFORMER_ID>  (1) 
000046D400000001

>  <PUBCHEM_MMFF94_ENERGY>  (1) 
77.8511

>  <PUBCHEM_FEATURE_SELFOVERLAP>  (1) 
30.494

>  <PUBCHEM_SHAPE_FINGERPRINT>  (1) 
10498660 4 18412260614677465225
10646746 165 18342458136526398284
11370993 70 18272651225400143206
12173636 292 18411416172815221815
12236239 1 17894623768803861571
12633257 1 17095241436753444030
12788726 201 17245004966274908218
12916748 109 18410014334012605227
13583140 156 17774994713796025842
14251764 38 18266175222325029584
14790565 3 17984429529778646881
15375358 24 17704070703039484778
15961568 22 18194958776463317320
17492 89 18408326605203024866
17818456 19 18194394503389910946
17980427 23 18187922945753583580
18186145 218 17988939863660853762
192875 21 17967810608723341108
20300324 65 18341890814169727619
20645477 56 18412827975451296137
20645477 70 16415206646184837438
20871999 31 18272643563515629167
21524375 3 18189904106386415665
21864079 5 17896058670333359692
22393880 68 18273222980432186318
23402539 116 18339632421285889462
235170 7 17346327006999011860
23557571 272 18201444713596741432
23559900 14 18202280274078456002
2838139 119 16371827605618498655
3268164 11 18342167895167995973
3472631 163 18411700967675545445
4028521 119 18410569565925639073
4214541 1 18413105044155525378
441001 317 18341044194448069176
474 4 17603872204010442626
5104073 3 18411135814350953034
573450 72 18335405877451681026
57724786 102 15502383339598465414
5895379 119 18337403681690174220
633830 44 17458072551431273282
7064713 232 18262801744135139909
7615 1 17968101983704943236
9709674 26 18343869917857065062
9971528 1 18040432179797306462
9981440 41 18408318891278036707

>  <PUBCHEM_SHAPE_MULTIPOLES>  (1) 
368.42
10.35
2.37
1.27
6.55
0.03
0.48
-2.44
-0.19
-2.65
0.09
1.6
-0.34
-0.49

>  <PUBCHEM_SHAPE_SELFOVERLAP>  (1) 
755.53

>  <PUBCHEM_SHAPE_VOLUME>  (1) 
214.5

>  <PUBCHEM_COORDINATE_TYPE>  (1) 
2
5
10

$$$$
