18155
     RDKit          3D

 10 10  0  0  0  0  0  0  0  0999 V2000
    2.3593    1.8178   -0.0009 Br  0  0  0  0  0  0  0  0  0  0  0  0
    2.3285   -1.8555   -0.0022 Br  0  0  0  0  0  0  0  0  0  0  0  0
   -0.8050    2.3075    0.0086 O   0  0  0  0  0  0  0  0  0  0  0  0
   -0.8446   -2.2923    0.0093 O   0  0  0  0  0  0  0  0  0  0  0  0
   -1.2473    0.0107   -0.0071 N   0  0  0  0  0  0  0  0  0  0  0  0
   -0.4657    1.1358   -0.0001 C   0  0  0  0  0  0  0  0  0  0  0  0
   -0.4841   -1.1270    0.0005 C   0  0  0  0  0  0  0  0  0  0  0  0
    0.9334    0.6605   -0.0012 C   0  0  0  0  0  0  0  0  0  0  0  0
    0.9226   -0.6742   -0.0011 C   0  0  0  0  0  0  0  0  0  0  0  0
   -2.6971    0.0166   -0.0058 C   0  0  0  0  0  0  0  0  0  0  0  0
  1  8  1  0
  2  9  1  0
  3  6  2  0
  4  7  2  0
  5  6  1  0
  5  7  1  0
  5 10  1  0
  6  8  1  0
  7  9  1  0
  8  9  2  0
M  END
>  <PUBCHEM_COMPOUND_CID>  (1) 
18155

>  <PUBCHEM_CONFORMER_RMSD>  (1) 
0.4

>  <PUBCHEM_CONFORMER_DIVERSEORDER>  (1) 
1

>  <PUBCHEM_MMFF94_PARTIAL_CHARGES>  (1) 
10
1 -0.11
10 0.3
2 -0.11
3 -0.57
4 -0.57
5 -0.42
6 0.62
7 0.62
8 0.12
9 0.12

>  <PUBCHEM_EFFECTIVE_ROTOR_COUNT>  (1) 
0.2

>  <PUBCHEM_PHARMACOPHORE_FEATURES>  (1) 
5
1 1 hydrophobe
1 2 hydrophobe
1 3 acceptor
1 4 acceptor
5 5 6 7 8 9 rings

>  <PUBCHEM_HEAVY_ATOM_COUNT>  (1) 
10

>  <PUBCHEM_ATOM_DEF_STEREO_COUNT>  (1) 
0

>  <PUBCHEM_ATOM_UDEF_STEREO_COUNT>  (1) 
0

>  <PUBCHEM_BOND_DEF_STEREO_COUNT>  (1) 
0

>  <PUBCHEM_BOND_UDEF_STEREO_COUNT>  (1) 
0

>  <PUBCHEM_ISOTOPIC_ATOM_COUNT>  (1) 
0

>  <PUBCHEM_COMPONENT_COUNT>  (1) 
1

>  <PUBCHEM_CACTVS_TAUTO_COUNT>  (1) 
1

>  <PUBCHEM_CONFORMER_ID>  (1) 
000046EB00000001

>  <PUBCHEM_MMFF94_ENERGY>  (1) 
7.8738

>  <PUBCHEM_FEATURE_SELFOVERLAP>  (1) 
25.371

>  <PUBCHEM_SHAPE_FINGERPRINT>  (1) 
11206711 2 18120374254909783277
12524768 44 18410293639904230574
13380535 76 18265888240867227914
161256 15 18410862040239754844
16945 1 18410575084963752772
193761 8 18410575084879343748
21040471 1 18338797934925930533
23552423 10 18262521523683862238
241688 4 17906451030821365824
2748010 2 18409166593341340341
5084963 1 18058724680816332458

>  <PUBCHEM_SHAPE_MULTIPOLES>  (1) 
200.96
3.21
2.64
0.62
0.12
0.01
0
0
-0.01
-1.06
0.01
-0.09
0
0

>  <PUBCHEM_SHAPE_SELFOVERLAP>  (1) 
393.759

>  <PUBCHEM_SHAPE_VOLUME>  (1) 
126.2

>  <PUBCHEM_COORDINATE_TYPE>  (1) 
2
5
10

$$$$
