18164
     RDKit          3D

  9  9  0  0  0  0  0  0  0  0999 V2000
    0.1258    0.4125    0.1583 N   0  0  0  0  0  0  0  0  0  0  0  0
    3.4126   -0.6177    0.2974 N   0  0  0  0  0  0  0  0  0  0  0  0
   -2.6141   -0.5662   -0.1186 C   0  0  0  0  0  0  0  0  0  0  0  0
   -1.4371   -1.5052    0.1192 C   0  0  0  0  0  0  0  0  0  0  0  0
   -2.2998    0.8274    0.4133 C   0  0  0  0  0  0  0  0  0  0  0  0
   -0.1348   -0.9125   -0.4214 C   0  0  0  0  0  0  0  0  0  0  0  0
   -0.9702    1.3462   -0.1365 C   0  0  0  0  0  0  0  0  0  0  0  0
    1.3969    0.9446   -0.3321 C   0  0  0  0  0  0  0  0  0  0  0  0
    2.5206    0.0711    0.0204 C   0  0  0  0  0  0  0  0  0  0  0  0
  1  6  1  0
  1  7  1  0
  1  8  1  0
  2  9  3  0
  3  4  1  0
  3  5  1  0
  4  6  1  0
  5  7  1  0
  8  9  1  0
M  END
>  <PUBCHEM_COMPOUND_CID>  (1) 
18164

>  <PUBCHEM_CONFORMER_RMSD>  (1) 
0.4

>  <PUBCHEM_CONFORMER_DIVERSEORDER>  (1) 
1
10
3
2
9
4
5
8
7
6

>  <PUBCHEM_MMFF94_PARTIAL_CHARGES>  (1) 
6
1 -0.81
2 -0.56
6 0.27
7 0.27
8 0.47
9 0.36

>  <PUBCHEM_EFFECTIVE_ROTOR_COUNT>  (1) 
2.2

>  <PUBCHEM_PHARMACOPHORE_FEATURES>  (1) 
3
1 1 cation
1 2 acceptor
6 1 3 4 5 6 7 rings

>  <PUBCHEM_HEAVY_ATOM_COUNT>  (1) 
9

>  <PUBCHEM_ATOM_DEF_STEREO_COUNT>  (1) 
0

>  <PUBCHEM_ATOM_UDEF_STEREO_COUNT>  (1) 
0

>  <PUBCHEM_BOND_DEF_STEREO_COUNT>  (1) 
0

>  <PUBCHEM_BOND_UDEF_STEREO_COUNT>  (1) 
0

>  <PUBCHEM_ISOTOPIC_ATOM_COUNT>  (1) 
0

>  <PUBCHEM_COMPONENT_COUNT>  (1) 
1

>  <PUBCHEM_CACTVS_TAUTO_COUNT>  (1) 
1

>  <PUBCHEM_CONFORMER_ID>  (1) 
000046F400000001

>  <PUBCHEM_MMFF94_ENERGY>  (1) 
3.5768

>  <PUBCHEM_FEATURE_SELFOVERLAP>  (1) 
15.223

>  <PUBCHEM_SHAPE_FINGERPRINT>  (1) 
12932764 1 17489587917558037732
14325111 11 18411982451120442280
16714656 1 18410012147789835813
20645464 45 17703790314652544270
207724 885 18113339721191241877
20871998 184 18130229370935125487
21040471 1 18340780242911584589
23235685 24 18341609266104862793
23552423 10 18044096975804882204
369184 2 15841551872760805614
5084963 1 18408884053054575577

>  <PUBCHEM_SHAPE_MULTIPOLES>  (1) 
175.25
4.38
1.45
0.67
2.75
0.05
0.01
0.61
-0.48
-0.55
0.02
-0.03
0
-0.18

>  <PUBCHEM_SHAPE_SELFOVERLAP>  (1) 
336.996

>  <PUBCHEM_SHAPE_VOLUME>  (1) 
102.2

>  <PUBCHEM_COORDINATE_TYPE>  (1) 
2
5
10

$$$$
