18169
     RDKit          3D

 12 12  0  0  0  0  0  0  0  0999 V2000
    2.2428    1.6463   -0.0005 O   0  0  0  0  0  0  0  0  0  0  0  0
    1.5045   -2.3645    0.0001 O   0  0  0  0  0  0  0  0  0  0  0  0
    2.9552   -0.7169   -0.0003 O   0  0  0  0  0  0  0  0  0  0  0  0
   -3.3329   -1.4348   -0.0005 O   0  0  0  0  0  0  0  0  0  0  0  0
    1.7753   -1.1405    0.0001 N   0  0  0  0  0  0  0  0  0  0  0  0
    0.7077   -0.2007    0.0004 C   0  0  0  0  0  0  0  0  0  0  0  0
   -1.6669    0.2453    0.0003 C   0  0  0  0  0  0  0  0  0  0  0  0
   -0.6083   -0.6632    0.0004 C   0  0  0  0  0  0  0  0  0  0  0  0
    0.9651    1.1703    0.0001 C   0  0  0  0  0  0  0  0  0  0  0  0
   -1.4096    1.6161    0.0001 C   0  0  0  0  0  0  0  0  0  0  0  0
   -0.0936    2.0786    0.0000 C   0  0  0  0  0  0  0  0  0  0  0  0
   -3.0393   -0.2360   -0.0002 C   0  0  0  0  0  0  0  0  0  0  0  0
  1  9  1  0
  2  5  1  0
  3  5  2  0
  4 12  2  0
  5  6  1  0
  6  8  2  0
  6  9  1  0
  7  8  1  0
  7 10  2  0
  7 12  1  0
  9 11  2  0
 10 11  1  0
M  CHG  2   2  -1   5   1
M  END
>  <PUBCHEM_COMPOUND_CID>  (1) 
18169

>  <PUBCHEM_CONFORMER_RMSD>  (1) 
0.6

>  <PUBCHEM_CONFORMER_DIVERSEORDER>  (1) 
1

>  <PUBCHEM_MMFF94_PARTIAL_CHARGES>  (1) 
17
1 -0.53
10 -0.15
11 -0.15
12 0.42
13 0.15
14 0.15
15 0.15
16 0.06
17 0.45
2 -0.52
3 -0.52
4 -0.57
5 0.91
6 0.13
7 0.09
8 -0.15
9 0.08

>  <PUBCHEM_EFFECTIVE_ROTOR_COUNT>  (1) 
2

>  <PUBCHEM_PHARMACOPHORE_FEATURES>  (1) 
6
1 1 donor
1 2 acceptor
1 2 anion
1 3 acceptor
1 4 acceptor
6 6 7 8 9 10 11 rings

>  <PUBCHEM_HEAVY_ATOM_COUNT>  (1) 
12

>  <PUBCHEM_ATOM_DEF_STEREO_COUNT>  (1) 
0

>  <PUBCHEM_ATOM_UDEF_STEREO_COUNT>  (1) 
0

>  <PUBCHEM_BOND_DEF_STEREO_COUNT>  (1) 
0

>  <PUBCHEM_BOND_UDEF_STEREO_COUNT>  (1) 
0

>  <PUBCHEM_ISOTOPIC_ATOM_COUNT>  (1) 
0

>  <PUBCHEM_COMPONENT_COUNT>  (1) 
1

>  <PUBCHEM_CACTVS_TAUTO_COUNT>  (1) 
6

>  <PUBCHEM_CONFORMER_ID>  (1) 
000046F900000001

>  <PUBCHEM_MMFF94_ENERGY>  (1) 
35.5874

>  <PUBCHEM_FEATURE_SELFOVERLAP>  (1) 
30.527

>  <PUBCHEM_SHAPE_FINGERPRINT>  (1) 
14128692 85 18411424977113088948
14251717 144 18267297819332806735
161256 15 18411136943795339228
16945 1 18194402178011379589
19021347 11 18266177420962312213
193761 8 18338516318157601637
20201158 50 18335137592129618819
20645477 70 18411977001445559327
20871998 184 18058161713778033183
20871998 22 18270972240852768215
21040471 1 17402050496702266689
21501502 16 18410016502755110441
23552423 10 18334299734030259661
23559900 14 17405140730748025606
241688 4 18264208023870305625
2748010 2 18410568466271801061

>  <PUBCHEM_SHAPE_MULTIPOLES>  (1) 
218.5
4.1
2.23
0.58
1.33
0.06
0
-1.68
0
-0.62
0
0.05
0.04
0

>  <PUBCHEM_SHAPE_SELFOVERLAP>  (1) 
464.1

>  <PUBCHEM_SHAPE_VOLUME>  (1) 
121.8

>  <PUBCHEM_COORDINATE_TYPE>  (1) 
2
5
10

$$$$
