18163
     RDKit          3D

  9  8  0  0  0  0  0  0  0  0999 V2000
    0.3779   -0.0016    0.0170 N   0  0  0  0  0  0  0  0  0  0  0  0
   -3.0645   -0.0143   -0.1566 N   0  0  0  0  0  0  0  0  0  0  0  0
    1.7369    0.5287    0.4507 C   0  0  0  0  0  0  0  0  0  0  0  0
    0.1972   -1.4205    0.5370 C   0  0  0  0  0  0  0  0  0  0  0  0
   -0.7185    0.8893    0.5831 C   0  0  0  0  0  0  0  0  0  0  0  0
    0.2958   -0.0038   -1.5027 C   0  0  0  0  0  0  0  0  0  0  0  0
    1.9105    1.9391   -0.0689 C   0  0  0  0  0  0  0  0  0  0  0  0
    1.2895   -2.3013   -0.0289 C   0  0  0  0  0  0  0  0  0  0  0  0
   -2.0247    0.3845    0.1694 C   0  0  0  0  0  0  0  0  0  0  0  0
  1  3  1  0
  1  4  1  0
  1  5  1  0
  1  6  1  0
  2  9  3  0
  3  7  1  0
  4  8  1  0
  5  9  1  0
M  CHG  1   1   1
M  END
>  <PUBCHEM_COMPOUND_CID>  (1) 
18163

>  <PUBCHEM_CONFORMER_RMSD>  (1) 
0.6

>  <PUBCHEM_CONFORMER_DIVERSEORDER>  (1) 
1
2
3
9
5
7
8
4
11
10
6

>  <PUBCHEM_MMFF94_PARTIAL_CHARGES>  (1) 
7
1 -1.01
2 -0.56
3 0.5
4 0.5
5 0.7
6 0.5
9 0.36

>  <PUBCHEM_EFFECTIVE_ROTOR_COUNT>  (1) 
3

>  <PUBCHEM_PHARMACOPHORE_FEATURES>  (1) 
2
1 1 cation
1 2 acceptor

>  <PUBCHEM_HEAVY_ATOM_COUNT>  (1) 
9

>  <PUBCHEM_ATOM_DEF_STEREO_COUNT>  (1) 
0

>  <PUBCHEM_ATOM_UDEF_STEREO_COUNT>  (1) 
0

>  <PUBCHEM_BOND_DEF_STEREO_COUNT>  (1) 
0

>  <PUBCHEM_BOND_UDEF_STEREO_COUNT>  (1) 
0

>  <PUBCHEM_ISOTOPIC_ATOM_COUNT>  (1) 
0

>  <PUBCHEM_COMPONENT_COUNT>  (1) 
1

>  <PUBCHEM_CACTVS_TAUTO_COUNT>  (1) 
1

>  <PUBCHEM_CONFORMER_ID>  (1) 
000046F300000001

>  <PUBCHEM_MMFF94_ENERGY>  (1) 
29.4878

>  <PUBCHEM_FEATURE_SELFOVERLAP>  (1) 
10.148

>  <PUBCHEM_SHAPE_FINGERPRINT>  (1) 
137420 1 12495821367744115026
14128692 85 18123479279989218751
18185500 45 17689445888293371491
20653091 64 18199193884076348275
20711978 78 18265315240605697847
21040471 1 18194401323529094216
23552333 60 17988368070290428105
23552423 10 18340492158011762985
23552449 11 18115859711816648587
24536 1 16843887434845852929
29004967 10 18050277077235394298
5084963 1 18202568388473407912
528862 383 18336532851021057178

>  <PUBCHEM_SHAPE_MULTIPOLES>  (1) 
175.25
2.98
2.04
0.97
2.36
0.8
-0.34
-0.78
0.07
-1.57
0.16
-0.09
0
-0.04

>  <PUBCHEM_SHAPE_SELFOVERLAP>  (1) 
318.718

>  <PUBCHEM_SHAPE_VOLUME>  (1) 
110.9

>  <PUBCHEM_COORDINATE_TYPE>  (1) 
2
5
10

$$$$
