18173
     RDKit          3D

 13 14  0  0  0  0  0  0  0  0999 V2000
    4.6672   -0.4112   -0.0002 O   0  0  0  0  0  0  0  0  0  0  0  0
    0.2077    1.1071    0.0001 N   0  0  0  0  0  0  0  0  0  0  0  0
    0.4910   -1.0974    0.0005 N   0  0  0  0  0  0  0  0  0  0  0  0
    3.3399   -0.8479   -0.0003 N   0  0  0  0  0  0  0  0  0  0  0  0
   -1.0565    0.5757    0.0000 C   0  0  0  0  0  0  0  0  0  0  0  0
   -0.8528   -0.8016    0.0002 C   0  0  0  0  0  0  0  0  0  0  0  0
    1.0971    0.0688    0.0006 C   0  0  0  0  0  0  0  0  0  0  0  0
   -2.3220    1.1633   -0.0003 C   0  0  0  0  0  0  0  0  0  0  0  0
    0.5399    2.5138    0.0002 C   0  0  0  0  0  0  0  0  0  0  0  0
   -1.9663   -1.6585    0.0000 C   0  0  0  0  0  0  0  0  0  0  0  0
   -3.4189    0.2955   -0.0002 C   0  0  0  0  0  0  0  0  0  0  0  0
   -3.2464   -1.0906   -0.0002 C   0  0  0  0  0  0  0  0  0  0  0  0
    2.5200    0.1830   -0.0003 C   0  0  0  0  0  0  0  0  0  0  0  0
  1  4  1  0
  2  5  1  0
  2  7  1  0
  2  9  1  0
  3  6  1  0
  3  7  2  0
  4 13  2  0
  5  6  2  0
  5  8  1  0
  6 10  1  0
  7 13  1  0
  8 11  2  0
 10 12  2  0
 11 12  1  0
M  END
>  <PUBCHEM_COMPOUND_CID>  (1) 
18173

>  <PUBCHEM_CONFORMER_RMSD>  (1) 
0.4

>  <PUBCHEM_CONFORMER_DIVERSEORDER>  (1) 
1

>  <PUBCHEM_MMFF94_PARTIAL_CHARGES>  (1) 
19
1 -0.34
10 -0.15
11 -0.15
12 -0.15
13 0.47
14 0.15
18 0.15
19 0.15
2 0.05
20 0.15
21 0.06
22 0.4
3 -0.57
4 -0.51
5 -0.15
6 0.23
7 0.1
8 -0.15
9 0.26

>  <PUBCHEM_EFFECTIVE_ROTOR_COUNT>  (1) 
1

>  <PUBCHEM_PHARMACOPHORE_FEATURES>  (1) 
5
1 1 anion
1 4 acceptor
3 2 3 7 cation
5 2 3 5 6 7 rings
6 5 6 8 10 11 12 rings

>  <PUBCHEM_HEAVY_ATOM_COUNT>  (1) 
13

>  <PUBCHEM_ATOM_DEF_STEREO_COUNT>  (1) 
0

>  <PUBCHEM_ATOM_UDEF_STEREO_COUNT>  (1) 
0

>  <PUBCHEM_BOND_DEF_STEREO_COUNT>  (1) 
0

>  <PUBCHEM_BOND_UDEF_STEREO_COUNT>  (1) 
1

>  <PUBCHEM_ISOTOPIC_ATOM_COUNT>  (1) 
0

>  <PUBCHEM_COMPONENT_COUNT>  (1) 
1

>  <PUBCHEM_CACTVS_TAUTO_COUNT>  (1) 
2

>  <PUBCHEM_CONFORMER_ID>  (1) 
000046FD00000001

>  <PUBCHEM_MMFF94_ENERGY>  (1) 
21.757

>  <PUBCHEM_FEATURE_SELFOVERLAP>  (1) 
25.479

>  <PUBCHEM_SHAPE_FINGERPRINT>  (1) 
10130415 120 18334293180052415472
10465860 71 18268452233516855084
11132069 177 18411131429178416664
12032990 46 18411705382732717558
13024252 1 16081091463583211499
13690532 89 18411134757978660967
14325111 11 18410574002347183552
14911166 2 18409157801859712317
14993402 34 18409725149537852135
15536298 74 18270682094806650152
16945 1 18410574002832460739
17804303 29 18342178885836383825
193761 8 17834395996346712039
200 152 17845925308473395519
20871998 184 18201719526746892942
21029758 11 18342731927559086361
21029758 27 18260558839282626773
21267235 1 18410302414385578074
21501502 16 18267591397511403277
2297311 6 18271254833412142662
23402539 116 18272923895761994557
23402655 69 18124014764676757261
23463225 33 18408886209328637718
23552423 10 18118120509713308781
23559900 14 18341327791771613386
2748010 2 18121214544187354861
3071541 158 18261109707403640244
5493415 88 18339360889306071219
7364860 26 18125721433496410712
8809292 202 18188494691320031027

>  <PUBCHEM_SHAPE_MULTIPOLES>  (1) 
246.72
6.01
1.85
0.59
4.66
0.86
0
-1.9
0
-0.29
0
-0.07
0.01
0

>  <PUBCHEM_SHAPE_SELFOVERLAP>  (1) 
533.309

>  <PUBCHEM_SHAPE_VOLUME>  (1) 
138.9

>  <PUBCHEM_COORDINATE_TYPE>  (1) 
2
5
10

$$$$
