18198
     RDKit          3D

  8  7  0  0  1  0  0  0  0  0999 V2000
   -2.7166    1.0750   -0.1959 O   0  0  0  0  0  0  0  0  0  0  0  0
    2.4597    0.3390    1.2605 O   0  0  0  0  0  0  0  0  0  0  0  0
   -2.0453   -0.1707   -0.3619 C   0  0  0  0  0  0  0  0  0  0  0  0
    2.0466    0.3797   -0.1025 C   0  0  0  0  0  0  0  0  0  0  0  0
   -2.5406   -1.1218    0.7164 C   0  0  0  0  0  0  0  0  0  0  0  0
    2.7952   -0.7099   -0.8542 C   0  0  0  0  0  0  0  0  0  0  0  0
   -0.5936    0.0247   -0.2687 C   0  0  0  0  0  0  0  0  0  0  0  0
    0.5947    0.1838   -0.1937 C   0  0  0  0  0  0  0  0  0  0  0  0
  1  3  1  0
  2  4  1  0
  3  5  1  0
  3  7  1  0
  4  6  1  0
  4  8  1  0
  7  8  3  0
M  END
>  <PUBCHEM_COMPOUND_CID>  (1) 
18198

>  <PUBCHEM_CONFORMER_RMSD>  (1) 
0.4

>  <PUBCHEM_CONFORMER_DIVERSEORDER>  (1) 
2
1
3

>  <PUBCHEM_MMFF94_PARTIAL_CHARGES>  (1) 
8
1 -0.68
17 0.4
18 0.4
2 -0.68
3 0.48
4 0.48
7 -0.2
8 -0.2

>  <PUBCHEM_EFFECTIVE_ROTOR_COUNT>  (1) 
0

>  <PUBCHEM_PHARMACOPHORE_FEATURES>  (1) 
4
1 1 acceptor
1 1 donor
1 2 acceptor
1 2 donor

>  <PUBCHEM_HEAVY_ATOM_COUNT>  (1) 
8

>  <PUBCHEM_ATOM_DEF_STEREO_COUNT>  (1) 
0

>  <PUBCHEM_ATOM_UDEF_STEREO_COUNT>  (1) 
2

>  <PUBCHEM_BOND_DEF_STEREO_COUNT>  (1) 
0

>  <PUBCHEM_BOND_UDEF_STEREO_COUNT>  (1) 
0

>  <PUBCHEM_ISOTOPIC_ATOM_COUNT>  (1) 
0

>  <PUBCHEM_COMPONENT_COUNT>  (1) 
1

>  <PUBCHEM_CACTVS_TAUTO_COUNT>  (1) 
1

>  <PUBCHEM_CONFORMER_ID>  (1) 
0000471600000002

>  <PUBCHEM_MMFF94_ENERGY>  (1) 
2.7692

>  <PUBCHEM_FEATURE_SELFOVERLAP>  (1) 
20.297

>  <PUBCHEM_SHAPE_FINGERPRINT>  (1) 
10857977 72 18337668723662450401
12897270 3 10665219354422981035
12932741 1 18272932721545241205
12932764 1 17632580473891195356
14325111 11 18408606967534311638
14390081 3 18060412500111363497
20715346 28 18273214217996781820
29004967 10 18272934946538728056
3248919 1 18334289885627883213
5460574 1 18131351899213142516

>  <PUBCHEM_SHAPE_MULTIPOLES>  (1) 
152.9
5.03
0.98
0.94
0.07
0.08
-0.14
0.51
-0.09
-0.68
-0.03
0.65
0.09
0.35

>  <PUBCHEM_SHAPE_SELFOVERLAP>  (1) 
279.95

>  <PUBCHEM_SHAPE_VOLUME>  (1) 
95.8

>  <PUBCHEM_COORDINATE_TYPE>  (1) 
2
5
10

$$$$
