18197
     RDKit          3D

 13 14  0  0  0  0  0  0  0  0999 V2000
    0.0263    0.7136    0.0003 C   0  0  0  0  0  0  0  0  0  0  0  0
    0.1720   -0.6942    0.0003 C   0  0  0  0  0  0  0  0  0  0  0  0
   -1.2631    1.2705    0.0003 C   0  0  0  0  0  0  0  0  0  0  0  0
   -2.2488   -0.9332    0.0003 C   0  0  0  0  0  0  0  0  0  0  0  0
   -0.9756   -1.5035    0.0004 C   0  0  0  0  0  0  0  0  0  0  0  0
   -2.3922    0.4511    0.0003 C   0  0  0  0  0  0  0  0  0  0  0  0
    1.4613   -1.2512    0.0003 C   0  0  0  0  0  0  0  0  0  0  0  0
    1.1740    1.5228    0.0002 C   0  0  0  0  0  0  0  0  0  0  0  0
    2.5907   -0.4319    0.0002 C   0  0  0  0  0  0  0  0  0  0  0  0
    2.4472    0.9524    0.0002 C   0  0  0  0  0  0  0  0  0  0  0  0
   -1.4879    2.7511   -0.0009 C   0  0  0  0  0  0  0  0  0  0  0  0
   -3.4568   -1.8081   -0.0009 C   0  0  0  0  0  0  0  0  0  0  0  0
    3.9527   -1.0396   -0.0010 C   0  0  0  0  0  0  0  0  0  0  0  0
  1  2  1  0
  1  3  2  0
  1  8  1  0
  2  5  2  0
  2  7  1  0
  3  6  1  0
  3 11  1  0
  4  5  1  0
  4  6  2  0
  4 12  1  0
  7  9  2  0
  8 10  2  0
  9 10  1  0
  9 13  1  0
M  END
>  <PUBCHEM_COMPOUND_CID>  (1) 
18197

>  <PUBCHEM_CONFORMER_RMSD>  (1) 
0.4

>  <PUBCHEM_CONFORMER_DIVERSEORDER>  (1) 
1

>  <PUBCHEM_MMFF94_PARTIAL_CHARGES>  (1) 
16
10 -0.15
11 0.14
12 0.14
13 0.14
14 0.15
15 0.15
16 0.15
17 0.15
18 0.15
3 -0.14
4 -0.14
5 -0.15
6 -0.15
7 -0.15
8 -0.15
9 -0.14

>  <PUBCHEM_EFFECTIVE_ROTOR_COUNT>  (1) 
0

>  <PUBCHEM_PHARMACOPHORE_FEATURES>  (1) 
2
6 1 2 3 4 5 6 rings
6 1 2 7 8 9 10 rings

>  <PUBCHEM_HEAVY_ATOM_COUNT>  (1) 
13

>  <PUBCHEM_ATOM_DEF_STEREO_COUNT>  (1) 
0

>  <PUBCHEM_ATOM_UDEF_STEREO_COUNT>  (1) 
0

>  <PUBCHEM_BOND_DEF_STEREO_COUNT>  (1) 
0

>  <PUBCHEM_BOND_UDEF_STEREO_COUNT>  (1) 
0

>  <PUBCHEM_ISOTOPIC_ATOM_COUNT>  (1) 
0

>  <PUBCHEM_COMPONENT_COUNT>  (1) 
1

>  <PUBCHEM_CACTVS_TAUTO_COUNT>  (1) 
1

>  <PUBCHEM_CONFORMER_ID>  (1) 
0000471500000001

>  <PUBCHEM_MMFF94_ENERGY>  (1) 
38.8417

>  <PUBCHEM_FEATURE_SELFOVERLAP>  (1) 
10.175

>  <PUBCHEM_SHAPE_FINGERPRINT>  (1) 
10608611 8 18341607093025601360
10967382 1 18122626329569752387
11132069 177 18341891874652051578
11206711 2 18408887312866032460
11471102 20 18337948021396924543
11769659 78 18410007758285903418
12032990 46 18337113483307622915
12423570 1 17917993884131022910
13140716 1 18411423920867684577
13380535 76 18124590877939627029
14325111 11 18410575102022478048
161256 15 18341047544311667088
16945 1 18338517430506190821
17804303 29 18342179942851967242
193761 8 18050285864991689283
19973954 147 18410856551229404452
200 152 17988350542650394239
20510252 161 18343581832851404376
20871998 184 18202001010297739927
21501502 16 18410300215583719188
21501925 9 18338223964392383018
221490 88 17615687775396973127
2334 1 18266741462011525965
23402539 116 18272078410091309855
23463225 33 18338238270553821511
23552423 10 18260831543967566060
23559900 14 17983013346344222582
241688 4 18409729590544806809
2748010 2 18339072804353709853
5084963 1 18272933825499561938
528886 8 18122619457754227080
54173680 148 18338517409216042178
6333449 129 18340202968936249997
7364860 26 18197781209731061880
8809292 202 18261397762301851307

>  <PUBCHEM_SHAPE_MULTIPOLES>  (1) 
267.53
5.18
2.37
0.62
2
1.08
0
-2.39
0
-1.32
0
0
0
0

>  <PUBCHEM_SHAPE_SELFOVERLAP>  (1) 
579.862

>  <PUBCHEM_SHAPE_VOLUME>  (1) 
139

>  <PUBCHEM_COORDINATE_TYPE>  (1) 
2
5
10

$$$$
