18200
     RDKit          3D

  5  4  0  0  0  0  0  0  0  0999 V2000
   -0.6399   -0.7331    0.2948 O   0  0  0  0  0  0  0  0  0  0  0  0
   -1.8635   -0.0781   -0.1329 O   0  0  0  0  0  0  0  0  0  0  0  0
    0.4099    0.0055   -0.3226 C   0  0  0  0  0  0  0  0  0  0  0  0
    0.3498    1.4505    0.1485 C   0  0  0  0  0  0  0  0  0  0  0  0
    1.7437   -0.6447    0.0122 C   0  0  0  0  0  0  0  0  0  0  0  0
  1  2  1  0
  1  3  1  0
  3  4  1  0
  3  5  1  0
M  END
>  <PUBCHEM_COMPOUND_CID>  (1) 
18200

>  <PUBCHEM_CONFORMER_RMSD>  (1) 
0.4

>  <PUBCHEM_CONFORMER_DIVERSEORDER>  (1) 
2
3
1

>  <PUBCHEM_MMFF94_PARTIAL_CHARGES>  (1) 
4
1 -0.28
13 0.4
2 -0.4
3 0.28

>  <PUBCHEM_EFFECTIVE_ROTOR_COUNT>  (1) 
1

>  <PUBCHEM_PHARMACOPHORE_FEATURES>  (1) 
1
3 3 4 5 hydrophobe

>  <PUBCHEM_HEAVY_ATOM_COUNT>  (1) 
5

>  <PUBCHEM_ATOM_DEF_STEREO_COUNT>  (1) 
0

>  <PUBCHEM_ATOM_UDEF_STEREO_COUNT>  (1) 
0

>  <PUBCHEM_BOND_DEF_STEREO_COUNT>  (1) 
0

>  <PUBCHEM_BOND_UDEF_STEREO_COUNT>  (1) 
0

>  <PUBCHEM_ISOTOPIC_ATOM_COUNT>  (1) 
0

>  <PUBCHEM_COMPONENT_COUNT>  (1) 
1

>  <PUBCHEM_CACTVS_TAUTO_COUNT>  (1) 
1

>  <PUBCHEM_CONFORMER_ID>  (1) 
0000471800000002

>  <PUBCHEM_MMFF94_ENERGY>  (1) 
1.881

>  <PUBCHEM_FEATURE_SELFOVERLAP>  (1) 
5.074

>  <PUBCHEM_SHAPE_FINGERPRINT>  (1) 
139733 1 9223224144119781894
20096714 4 18053105313162795873
21015797 1 9797392418926702484
29004967 10 18411140233777094370
5943 1 17391394777377306492

>  <PUBCHEM_SHAPE_MULTIPOLES>  (1) 
91.16
1.93
1.23
0.62
0.24
0.56
0.01
-0.58
0.03
-0.12
-0.09
-0.04
0.01
0.02

>  <PUBCHEM_SHAPE_SELFOVERLAP>  (1) 
152.916

>  <PUBCHEM_SHAPE_VOLUME>  (1) 
63.6

>  <PUBCHEM_COORDINATE_TYPE>  (1) 
2
5
10

$$$$
