18208
     RDKit          3D

  8  8  0  0  0  0  0  0  0  0999 V2000
    2.1107   -1.0998   -0.0008 O   0  0  0  0  0  0  0  0  0  0  0  0
    2.0586    1.0991   -0.0002 O   0  0  0  0  0  0  0  0  0  0  0  0
   -0.7053    1.0823    0.0002 N   0  0  0  0  0  0  0  0  0  0  0  0
    1.4585   -0.0152    0.0002 N   0  0  0  0  0  0  0  0  0  0  0  0
   -2.1307   -0.6207   -0.0007 N   0  0  0  0  0  0  0  0  0  0  0  0
    0.0623   -0.0482    0.0010 C   0  0  0  0  0  0  0  0  0  0  0  0
   -0.8396   -1.0861    0.0009 C   0  0  0  0  0  0  0  0  0  0  0  0
   -2.0146    0.6887   -0.0006 C   0  0  0  0  0  0  0  0  0  0  0  0
  1  4  1  0
  2  4  2  0
  3  6  1  0
  3  8  1  0
  4  6  1  0
  5  7  1  0
  5  8  2  0
  6  7  2  0
M  CHG  2   1  -1   4   1
M  END
>  <PUBCHEM_COMPOUND_CID>  (1) 
18208

>  <PUBCHEM_CONFORMER_RMSD>  (1) 
0.4

>  <PUBCHEM_CONFORMER_DIVERSEORDER>  (1) 
1

>  <PUBCHEM_MMFF94_PARTIAL_CHARGES>  (1) 
11
1 -0.52
10 0.15
11 0.15
2 -0.52
3 0.03
4 0.96
5 -0.57
6 -0.07
7 0.08
8 0.04
9 0.27

>  <PUBCHEM_EFFECTIVE_ROTOR_COUNT>  (1) 
1

>  <PUBCHEM_PHARMACOPHORE_FEATURES>  (1) 
6
1 1 acceptor
1 1 anion
1 2 acceptor
1 3 donor
3 3 5 8 cation
5 3 5 6 7 8 rings

>  <PUBCHEM_HEAVY_ATOM_COUNT>  (1) 
8

>  <PUBCHEM_ATOM_DEF_STEREO_COUNT>  (1) 
0

>  <PUBCHEM_ATOM_UDEF_STEREO_COUNT>  (1) 
0

>  <PUBCHEM_BOND_DEF_STEREO_COUNT>  (1) 
0

>  <PUBCHEM_BOND_UDEF_STEREO_COUNT>  (1) 
0

>  <PUBCHEM_ISOTOPIC_ATOM_COUNT>  (1) 
0

>  <PUBCHEM_COMPONENT_COUNT>  (1) 
1

>  <PUBCHEM_CACTVS_TAUTO_COUNT>  (1) 
2

>  <PUBCHEM_CONFORMER_ID>  (1) 
0000472000000001

>  <PUBCHEM_MMFF94_ENERGY>  (1) 
9.7395

>  <PUBCHEM_FEATURE_SELFOVERLAP>  (1) 
30.526

>  <PUBCHEM_SHAPE_FINGERPRINT>  (1) 
14390081 3 18272087257402172992
16714656 1 18410857663715429535
20096714 4 18409730621083535552
21040471 1 18410573989488648929
23552423 10 18260831496659862614
24536 1 18338782473043515536
29004967 10 18188778373714265689
5460574 1 9295296040251034467

>  <PUBCHEM_SHAPE_MULTIPOLES>  (1) 
137.95
2.99
1.24
0.55
0.63
0.01
0
-0.05
0
0.1
0
-0.05
0.01
0

>  <PUBCHEM_SHAPE_SELFOVERLAP>  (1) 
286.478

>  <PUBCHEM_SHAPE_VOLUME>  (1) 
80.4

>  <PUBCHEM_COORDINATE_TYPE>  (1) 
2
5
10

$$$$
