1820
     RDKit          3D

 13 14  0  0  0  0  0  0  0  0999 V2000
    4.1609   -0.8409   -0.0007 F   0  0  0  0  0  0  0  0  0  0  0  0
   -3.6989    1.0733    0.0005 O   0  0  0  0  0  0  0  0  0  0  0  0
   -3.8166   -1.1966   -0.0008 O   0  0  0  0  0  0  0  0  0  0  0  0
   -0.9617    1.0482   -0.0001 N   0  0  0  0  0  0  0  0  0  0  0  0
    0.5220   -0.6178    0.0004 C   0  0  0  0  0  0  0  0  0  0  0  0
    0.3870    0.7722    0.0000 C   0  0  0  0  0  0  0  0  0  0  0  0
   -1.6820   -0.1160    0.0001 C   0  0  0  0  0  0  0  0  0  0  0  0
   -0.7916   -1.1649    0.0006 C   0  0  0  0  0  0  0  0  0  0  0  0
    1.8168   -1.1735    0.0006 C   0  0  0  0  0  0  0  0  0  0  0  0
    1.4867    1.6376   -0.0001 C   0  0  0  0  0  0  0  0  0  0  0  0
    2.9261   -0.3200    0.0001 C   0  0  0  0  0  0  0  0  0  0  0  0
    2.7612    1.0636   -0.0002 C   0  0  0  0  0  0  0  0  0  0  0  0
   -3.1099   -0.1651   -0.0005 C   0  0  0  0  0  0  0  0  0  0  0  0
  1 11  1  0
  2 13  1  0
  3 13  2  0
  4  6  1  0
  4  7  1  0
  5  6  2  0
  5  8  1  0
  5  9  1  0
  6 10  1  0
  7  8  2  0
  7 13  1  0
  9 11  2  0
 10 12  2  0
 11 12  1  0
M  END
>  <PUBCHEM_COMPOUND_CID>  (1) 
1820

>  <PUBCHEM_CONFORMER_RMSD>  (1) 
0.4

>  <PUBCHEM_CONFORMER_DIVERSEORDER>  (1) 
1
2

>  <PUBCHEM_MMFF94_PARTIAL_CHARGES>  (1) 
18
1 -0.19
10 -0.15
11 0.19
12 -0.15
13 0.81
14 0.15
15 0.27
16 0.15
17 0.15
18 0.15
19 0.5
2 -0.65
3 -0.57
4 0.03
6 -0.15
7 -0.24
8 -0.15
9 -0.15

>  <PUBCHEM_EFFECTIVE_ROTOR_COUNT>  (1) 
1

>  <PUBCHEM_PHARMACOPHORE_FEATURES>  (1) 
7
1 2 acceptor
1 3 acceptor
1 4 cation
1 4 donor
3 2 3 13 anion
5 4 5 6 7 8 rings
6 5 6 9 10 11 12 rings

>  <PUBCHEM_HEAVY_ATOM_COUNT>  (1) 
13

>  <PUBCHEM_ATOM_DEF_STEREO_COUNT>  (1) 
0

>  <PUBCHEM_ATOM_UDEF_STEREO_COUNT>  (1) 
0

>  <PUBCHEM_BOND_DEF_STEREO_COUNT>  (1) 
0

>  <PUBCHEM_BOND_UDEF_STEREO_COUNT>  (1) 
0

>  <PUBCHEM_ISOTOPIC_ATOM_COUNT>  (1) 
0

>  <PUBCHEM_COMPONENT_COUNT>  (1) 
1

>  <PUBCHEM_CACTVS_TAUTO_COUNT>  (1) 
2

>  <PUBCHEM_CONFORMER_ID>  (1) 
0000071C00000001

>  <PUBCHEM_MMFF94_ENERGY>  (1) 
19.7031

>  <PUBCHEM_FEATURE_SELFOVERLAP>  (1) 
35.67

>  <PUBCHEM_SHAPE_FINGERPRINT>  (1) 
10130415 120 18408038503117162976
10219947 1 18272653450002895374
10608611 8 18409444817022857861
11401426 45 18341323431504023720
11471102 20 18410288125023804380
12032990 46 18410298020623263883
12932764 1 17240471512128564259
13690532 89 18410292497590785298
13922767 16 18342452625624649120
14144814 61 18411982468321248225
14325111 11 18410855494688561601
15536298 74 18343582979823943288
16945 1 18410855460365545122
17844478 74 18039873644532266765
18186145 218 18113613482601789847
200 152 18131342030006004871
20201158 50 18409731742233815986
20645477 70 18412541007623247399
20871998 22 18199474260074544830
21267235 1 18411146847963699391
21501502 16 18266740375137036270
21501925 9 18411128169140022466
23402539 116 18200866310044982302
23402655 69 18413101767190547669
23463225 33 18409448076892050806
2748010 2 18121785186226814630
5104073 3 18411138051828083881
528886 8 18411695517350918954
7364860 26 18270682103428311232
8809292 202 18187370968824463979

>  <PUBCHEM_SHAPE_MULTIPOLES>  (1) 
243.54
6.27
1.5
0.59
2.09
0.2
0
-0.69
0
-0.28
0
-0.03
0
0

>  <PUBCHEM_SHAPE_SELFOVERLAP>  (1) 
538.743

>  <PUBCHEM_SHAPE_VOLUME>  (1) 
132.3

>  <PUBCHEM_COORDINATE_TYPE>  (1) 
2
5
10

$$$$
