18214
     RDKit          3D

 13 12  0  0  0  0  0  0  0  0999 V2000
   -0.9653    0.4155    0.3979 Si  0  0  0  0  0  4  0  0  0  0  0  0
   -1.1262   -1.2340    0.6637 O   0  0  0  0  0  0  0  0  0  0  0  0
   -2.2457    0.9622   -0.5396 O   0  0  0  0  0  0  0  0  0  0  0  0
    5.6361    0.3196   -0.5614 N   0  0  0  0  0  0  0  0  0  0  0  0
    0.6762    0.7600   -0.4603 C   0  0  0  0  0  0  0  0  0  0  0  0
    1.9224    0.2664    0.2834 C   0  0  0  0  0  0  0  0  0  0  0  0
    3.1964    0.5506   -0.5172 C   0  0  0  0  0  0  0  0  0  0  0  0
   -0.9369    1.3487    2.0343 C   0  0  0  0  0  0  0  0  0  0  0  0
    4.4333    0.0213    0.2069 C   0  0  0  0  0  0  0  0  0  0  0  0
   -1.1688   -2.1208   -0.4449 C   0  0  0  0  0  0  0  0  0  0  0  0
   -3.5734    0.8436   -0.0489 C   0  0  0  0  0  0  0  0  0  0  0  0
   -1.3168   -3.5390    0.0635 C   0  0  0  0  0  0  0  0  0  0  0  0
   -4.5314    1.4058   -1.0773 C   0  0  0  0  0  0  0  0  0  0  0  0
  1  2  1  0
  1  3  1  0
  1  5  1  0
  1  8  1  0
  2 10  1  0
  3 11  1  0
  4  9  1  0
  5  6  1  0
  6  7  1  0
  7  9  1  0
 10 12  1  0
 11 13  1  0
M  END
>  <PUBCHEM_COMPOUND_CID>  (1) 
18214

>  <PUBCHEM_CONFORMER_RMSD>  (1) 
0.8

>  <PUBCHEM_CONFORMER_DIVERSEORDER>  (1) 
3
61
47
13
43
46
25
22
45
68
34
7
60
8
64
70
67
33
26
4
57
12
50
37
29
51
54
32
49
65
1
24
15
63
36
69
55
39
20
42
38
27
52
53
71
10
16
59
66
17
5
18
44
30
21
31
9
41
56
28
23
35
62
2
19
58
11
14
6
40
48

>  <PUBCHEM_MMFF94_PARTIAL_CHARGES>  (1) 
11
1 0.76
10 0.28
11 0.28
2 -0.58
3 -0.58
35 0.36
36 0.36
4 -0.99
5 -0.08
8 -0.08
9 0.27

>  <PUBCHEM_EFFECTIVE_ROTOR_COUNT>  (1) 
8

>  <PUBCHEM_PHARMACOPHORE_FEATURES>  (1) 
2
1 4 cation
1 4 donor

>  <PUBCHEM_HEAVY_ATOM_COUNT>  (1) 
13

>  <PUBCHEM_ATOM_DEF_STEREO_COUNT>  (1) 
0

>  <PUBCHEM_ATOM_UDEF_STEREO_COUNT>  (1) 
0

>  <PUBCHEM_BOND_DEF_STEREO_COUNT>  (1) 
0

>  <PUBCHEM_BOND_UDEF_STEREO_COUNT>  (1) 
0

>  <PUBCHEM_ISOTOPIC_ATOM_COUNT>  (1) 
0

>  <PUBCHEM_COMPONENT_COUNT>  (1) 
1

>  <PUBCHEM_CACTVS_TAUTO_COUNT>  (1) 
1

>  <PUBCHEM_CONFORMER_ID>  (1) 
0000472600000003

>  <PUBCHEM_MMFF94_ENERGY>  (1) 
0.3237

>  <PUBCHEM_FEATURE_SELFOVERLAP>  (1) 
10.148

>  <PUBCHEM_SHAPE_FINGERPRINT>  (1) 
10014705 185 18261113015077012596
10366900 7 17346600768699417576
10726558 24 18337951186835196949
11315181 36 18272939332534014552
12119455 92 18040711425084766309
12500047 106 18410570708481794470
12555020 224 18341334379787553526
12592029 89 18041840588997884211
12715332 25 18272091660255295767
13380535 76 18343585114138002478
13533116 47 17916862401383977622
14115302 16 18412267263482109196
14577589 140 18259991487029691178
14713566 1 18413389847331003025
14943859 89 17603867788552181145
14993402 34 18408882914835734973
15852999 172 18271534121322318974
167882 2 18045780091894888002
18186145 218 18201144504025914065
187816 3 18059853948252075505
200 152 12751233697002982948
20279233 1 17988651791862062612
20645476 183 18261106383320245627
20645477 56 18335137605077889228
20871999 31 18337949103343548326
23402539 116 17846780672115959681
23419403 2 16986583419735315059
23559900 14 18201716293417468168
298252 57 18113894936288501433
3250762 1 17767388446805297289
366044 4 18335980891925713437
559249 180 18261106366541517522
58051976 100 18259987106442715198
69090 78 18261106365913445125
81539 233 18043241350064343951

>  <PUBCHEM_SHAPE_MULTIPOLES>  (1) 
269.03
8.41
2.53
1.19
10.29
3.82
-0.49
-3.62
3.16
-2.53
-0.15
-0.6
-0.55
0.27

>  <PUBCHEM_SHAPE_SELFOVERLAP>  (1) 
472.573

>  <PUBCHEM_SHAPE_VOLUME>  (1) 
176.7

>  <PUBCHEM_COORDINATE_TYPE>  (1) 
2
5
10

$$$$
