1821
     RDKit          3D

 18 19  0  0  1  0  0  0  0  0999 V2000
    2.5654   -2.4292    1.0438 F   0  0  0  0  0  0  0  0  0  0  0  0
   -1.4092   -0.5741   -0.8668 O   0  0  0  0  0  0  0  0  0  0  0  0
   -1.3735    2.6750    0.5850 O   0  0  0  0  0  0  0  0  0  0  0  0
   -3.4203    0.6864    1.8141 O   0  0  0  0  0  0  0  0  0  0  0  0
   -3.3536   -2.6047   -1.1164 O   0  0  0  0  0  0  0  0  0  0  0  0
    1.4787    2.3591   -1.2227 O   0  0  0  0  0  0  0  0  0  0  0  0
    4.5489   -0.6945    0.3744 O   0  0  0  0  0  0  0  0  0  0  0  0
    0.6769    0.3446   -0.3478 N   0  0  0  0  0  0  0  0  0  0  0  0
    3.0062    0.8393   -0.4268 N   0  0  0  0  0  0  0  0  0  0  0  0
   -1.3693    1.2604    0.6495 C   0  0  0  0  0  0  0  0  0  0  0  0
   -2.7757    0.7125    0.5555 C   0  0  0  0  0  0  0  0  0  0  0  0
   -0.7082    0.6454   -0.5740 C   0  0  0  0  0  0  0  0  0  0  0  0
   -2.5139   -0.6925    0.0437 C   0  0  0  0  0  0  0  0  0  0  0  0
   -3.7048   -1.3046   -0.6713 C   0  0  0  0  0  0  0  0  0  0  0  0
    1.6965    1.2617   -0.7043 C   0  0  0  0  0  0  0  0  0  0  0  0
    1.0060   -0.8752    0.2325 C   0  0  0  0  0  0  0  0  0  0  0  0
    2.2602   -1.2455    0.4821 C   0  0  0  0  0  0  0  0  0  0  0  0
    3.3897   -0.3641    0.1496 C   0  0  0  0  0  0  0  0  0  0  0  0
  1 17  1  0
  2 12  1  0
  2 13  1  0
  3 10  1  0
  4 11  1  0
  5 14  1  0
  6 15  2  0
  7 18  2  0
  8 12  1  0
  8 15  1  0
  8 16  1  0
  9 15  1  0
  9 18  1  0
 10 11  1  0
 10 12  1  0
 11 13  1  0
 13 14  1  0
 16 17  2  0
 17 18  1  0
M  END
>  <PUBCHEM_COMPOUND_CID>  (1) 
1821

>  <PUBCHEM_CONFORMER_RMSD>  (1) 
0.6

>  <PUBCHEM_CONFORMER_DIVERSEORDER>  (1) 
1
66
24
61
50
88
57
78
107
45
84
87
76
75
36
102
106
91
40
82
47
18
58
98
93
30
95
74
94
100
4
46
44
49
92
8
37
99
77
55
16
14
101
15
6
90
3
56
11
68
43
86
48
83
103
60
69
29
96
52
80
105
67
51
79
17
104
19
38
97
72
21
59
34
62
10
65
70
23
81
32
39
53
42
28
2
7
108
33
31
27
26
5
25
73
71
35
85
12
89
9
54
20
41
64
13
22
63

>  <PUBCHEM_MMFF94_PARTIAL_CHARGES>  (1) 
23
1 -0.15
10 0.28
11 0.28
12 0.58
13 0.28
14 0.28
15 0.69
16 -0.04
17 0.16
18 0.62
2 -0.56
25 0.4
26 0.4
27 0.15
28 0.37
29 0.4
3 -0.68
4 -0.68
5 -0.68
6 -0.57
7 -0.57
8 -0.47
9 -0.49

>  <PUBCHEM_EFFECTIVE_ROTOR_COUNT>  (1) 
3

>  <PUBCHEM_PHARMACOPHORE_FEATURES>  (1) 
12
1 2 acceptor
1 3 acceptor
1 3 donor
1 4 acceptor
1 4 donor
1 5 acceptor
1 5 donor
1 6 acceptor
1 7 acceptor
1 9 donor
5 2 10 11 12 13 rings
6 8 9 15 16 17 18 rings

>  <PUBCHEM_HEAVY_ATOM_COUNT>  (1) 
18

>  <PUBCHEM_ATOM_DEF_STEREO_COUNT>  (1) 
0

>  <PUBCHEM_ATOM_UDEF_STEREO_COUNT>  (1) 
4

>  <PUBCHEM_BOND_DEF_STEREO_COUNT>  (1) 
0

>  <PUBCHEM_BOND_UDEF_STEREO_COUNT>  (1) 
0

>  <PUBCHEM_ISOTOPIC_ATOM_COUNT>  (1) 
0

>  <PUBCHEM_COMPONENT_COUNT>  (1) 
1

>  <PUBCHEM_CACTVS_TAUTO_COUNT>  (1) 
3

>  <PUBCHEM_CONFORMER_ID>  (1) 
0000071D00000001

>  <PUBCHEM_MMFF94_ENERGY>  (1) 
43.7368

>  <PUBCHEM_FEATURE_SELFOVERLAP>  (1) 
60.905

>  <PUBCHEM_SHAPE_FINGERPRINT>  (1) 
11578080 2 18196624445915482333
11769659 78 18409724079864194086
11806522 49 18337665421149143398
12251169 10 18338805511179701505
12553582 1 18187088321448021882
13538477 17 18272093790168651925
13764800 53 16343431613565638683
14787075 74 17552911145554059672
15375462 189 18196659720876945027
16945 1 18113905999776037612
19050596 39 18410298003580363176
19422 9 18343025526996059886
19433438 48 18411134718960023642
200 152 18335693970782927919
20442098 301 18340488859297674482
20645477 70 17676763292044030703
21634736 98 18193839468892709846
22112679 90 18201448020737526525
22445834 79 18335708178339518832
2255824 54 18188217618848095236
23388829 49 18408887334409648252
23402539 116 18335974299298899382
23557571 272 17418103112927121061
23598291 2 18338248127577833692
2748010 2 17475812952538854949
6992083 37 18193842535172161784
7097593 13 18267870475643194266
77492 1 18340496646025870509
90316 7 18271533009284862025

>  <PUBCHEM_SHAPE_MULTIPOLES>  (1) 
317.98
6.88
2.38
1.11
1.33
0.05
0.14
-2.96
0.63
-0.55
-0.18
-0.59
0.08
-1.91

>  <PUBCHEM_SHAPE_SELFOVERLAP>  (1) 
672.234

>  <PUBCHEM_SHAPE_VOLUME>  (1) 
178.5

>  <PUBCHEM_COORDINATE_TYPE>  (1) 
2
5
10

$$$$
