18231
     RDKit          3D

 14 13  0  0  1  0  0  0  0  0999 V2000
   -0.1902    1.3409    0.3005 O   0  0  0  0  0  0  0  0  0  0  0  0
    2.4480   -2.3678    1.0710 O   0  0  0  0  0  0  0  0  0  0  0  0
    2.2391   -1.9287   -1.1496 O   0  0  0  0  0  0  0  0  0  0  0  0
    1.2775    2.3629   -1.1618 O   0  0  0  0  0  0  0  0  0  0  0  0
   -2.1546   -0.6965   -0.0209 N   0  0  0  0  0  0  0  0  0  0  0  0
   -0.7847   -0.9897    0.4738 C   0  0  0  0  0  0  0  0  0  0  0  0
    0.1977    0.0264   -0.1011 C   0  0  0  0  0  0  0  0  0  0  0  0
   -2.2003   -0.7415   -1.5539 C   0  0  0  0  0  0  0  0  0  0  0  0
   -3.1585   -1.7242    0.5181 C   0  0  0  0  0  0  0  0  0  0  0  0
   -2.6089    0.6980    0.4303 C   0  0  0  0  0  0  0  0  0  0  0  0
    1.6026   -0.2265    0.4447 C   0  0  0  0  0  0  0  0  0  0  0  0
    2.1184   -1.5795    0.0175 C   0  0  0  0  0  0  0  0  0  0  0  0
    0.6202    2.3512   -0.1299 C   0  0  0  0  0  0  0  0  0  0  0  0
    0.5936    3.4751    0.8612 C   0  0  0  0  0  0  0  0  0  0  0  0
  1  7  1  0
  1 13  1  0
  2 12  1  0
  3 12  2  0
  4 13  2  0
  5  6  1  0
  5  8  1  0
  5  9  1  0
  5 10  1  0
  6  7  1  0
  7 11  1  0
 11 12  1  0
 13 14  1  0
M  CHG  1   5   1
M  END
>  <PUBCHEM_COMPOUND_CID>  (1) 
18231

>  <PUBCHEM_CONFORMER_RMSD>  (1) 
0.6

>  <PUBCHEM_CONFORMER_DIVERSEORDER>  (1) 
1
9
8
4
10
5
7
2
3
6

>  <PUBCHEM_MMFF94_PARTIAL_CHARGES>  (1) 
15
1 -0.43
10 0.5
11 0.06
12 0.66
13 0.66
14 0.06
2 -0.65
3 -0.57
32 0.5
4 -0.57
5 -1.01
6 0.5
7 0.28
8 0.5
9 0.5

>  <PUBCHEM_EFFECTIVE_ROTOR_COUNT>  (1) 
6

>  <PUBCHEM_PHARMACOPHORE_FEATURES>  (1) 
5
1 2 acceptor
1 3 acceptor
1 4 acceptor
1 5 cation
3 2 3 12 anion

>  <PUBCHEM_HEAVY_ATOM_COUNT>  (1) 
14

>  <PUBCHEM_ATOM_DEF_STEREO_COUNT>  (1) 
1

>  <PUBCHEM_ATOM_UDEF_STEREO_COUNT>  (1) 
0

>  <PUBCHEM_BOND_DEF_STEREO_COUNT>  (1) 
0

>  <PUBCHEM_BOND_UDEF_STEREO_COUNT>  (1) 
0

>  <PUBCHEM_ISOTOPIC_ATOM_COUNT>  (1) 
0

>  <PUBCHEM_COMPONENT_COUNT>  (1) 
1

>  <PUBCHEM_CACTVS_TAUTO_COUNT>  (1) 
1

>  <PUBCHEM_CONFORMER_ID>  (1) 
0000473700000001

>  <PUBCHEM_MMFF94_ENERGY>  (1) 
45.2331

>  <PUBCHEM_FEATURE_SELFOVERLAP>  (1) 
25.429

>  <PUBCHEM_SHAPE_FINGERPRINT>  (1) 
1 1 17977098286342966884
12759256 9 18197199546114242154
14648413 74 18336823199537221369
14817 1 13230478744892300238
15852999 172 17465632973682608647
16945 1 18196082459554001083
17841504 4 18409169943563719291
19021347 4 17401483148622791048
20559304 39 18269842067727493377
20645477 70 18195245744739843487
20711985 344 17980201881266715590
20871998 184 17838053702275807798
21524375 3 17617657000225674840
23419403 2 17542167585848443196
23552423 10 18337675338102152691
23557571 272 18196648493816394702
23598294 1 17615415757679019386
2748010 2 18340195298129804147
305870 269 18051966219164230673
7364860 26 18269842084643605329
81228 2 17978785710231760712

>  <PUBCHEM_SHAPE_MULTIPOLES>  (1) 
259.66
4
3.51
1.12
3.58
0.24
0.32
-0.35
-0.07
-3.75
-0.56
0.07
-0.11
-0.06

>  <PUBCHEM_SHAPE_SELFOVERLAP>  (1) 
495.494

>  <PUBCHEM_SHAPE_VOLUME>  (1) 
160.7

>  <PUBCHEM_COORDINATE_TYPE>  (1) 
2
5
10

$$$$
