18233
     RDKit          3D

  7  7  0  0  0  0  0  0  0  0999 V2000
   -1.1743   -1.1039    0.2742 O   0  0  0  0  0  0  0  0  0  0  0  0
    0.4028    1.1775   -0.0192 O   0  0  0  0  0  0  0  0  0  0  0  0
    2.2747   -0.0834   -0.0278 O   0  0  0  0  0  0  0  0  0  0  0  0
   -1.7209    0.0396   -0.3658 C   0  0  0  0  0  0  0  0  0  0  0  0
   -1.0168    1.2428    0.2102 C   0  0  0  0  0  0  0  0  0  0  0  0
    0.1862   -1.2583   -0.0605 C   0  0  0  0  0  0  0  0  0  0  0  0
    1.0483   -0.0143   -0.0110 C   0  0  0  0  0  0  0  0  0  0  0  0
  1  4  1  0
  1  6  1  0
  2  5  1  0
  2  7  1  0
  3  7  2  0
  4  5  1  0
  6  7  1  0
M  END
>  <PUBCHEM_COMPOUND_CID>  (1) 
18233

>  <PUBCHEM_CONFORMER_RMSD>  (1) 
0.4

>  <PUBCHEM_CONFORMER_DIVERSEORDER>  (1) 
1

>  <PUBCHEM_MMFF94_PARTIAL_CHARGES>  (1) 
7
1 -0.56
2 -0.43
3 -0.57
4 0.28
5 0.28
6 0.34
7 0.66

>  <PUBCHEM_EFFECTIVE_ROTOR_COUNT>  (1) 
1

>  <PUBCHEM_PHARMACOPHORE_FEATURES>  (1) 
3
1 1 acceptor
1 3 acceptor
6 1 2 4 5 6 7 rings

>  <PUBCHEM_HEAVY_ATOM_COUNT>  (1) 
7

>  <PUBCHEM_ATOM_DEF_STEREO_COUNT>  (1) 
0

>  <PUBCHEM_ATOM_UDEF_STEREO_COUNT>  (1) 
0

>  <PUBCHEM_BOND_DEF_STEREO_COUNT>  (1) 
0

>  <PUBCHEM_BOND_UDEF_STEREO_COUNT>  (1) 
0

>  <PUBCHEM_ISOTOPIC_ATOM_COUNT>  (1) 
0

>  <PUBCHEM_COMPONENT_COUNT>  (1) 
1

>  <PUBCHEM_CACTVS_TAUTO_COUNT>  (1) 
1

>  <PUBCHEM_CONFORMER_ID>  (1) 
0000473900000001

>  <PUBCHEM_MMFF94_ENERGY>  (1) 
13.9194

>  <PUBCHEM_FEATURE_SELFOVERLAP>  (1) 
15.223

>  <PUBCHEM_SHAPE_FINGERPRINT>  (1) 
16714656 1 18410860953560132038
20096714 4 18051415063201014361
21040471 1 18194403290402491584
23552423 10 18261119513220067694
29004967 10 18341619243013126706

>  <PUBCHEM_SHAPE_MULTIPOLES>  (1) 
126.45
2.19
1.38
0.61
0.62
0.05
0.01
-0.11
0.11
-0.26
-0.08
-0.07
0.01
-0.01

>  <PUBCHEM_SHAPE_SELFOVERLAP>  (1) 
248.36

>  <PUBCHEM_SHAPE_VOLUME>  (1) 
75.6

>  <PUBCHEM_COORDINATE_TYPE>  (1) 
2
5
10

$$$$
