18254
     RDKit          3D

 25 27  0  0  1  0  0  0  0  0999 V2000
   -1.1503    1.1880   -0.3171 O   0  0  0  0  0  0  0  0  0  0  0  0
    0.6191    0.6714    1.6199 O   0  0  0  0  0  0  0  0  0  0  0  0
    0.7266    2.1503   -1.2332 O   0  0  0  0  0  0  0  0  0  0  0  0
   -3.6826   -0.3146    0.2604 N   0  0  0  0  0  0  0  0  0  0  0  0
   -3.4305    1.8124   -0.7017 C   0  0  0  0  0  0  0  0  0  0  0  0
   -3.7027    1.9564    0.8024 C   0  0  0  0  0  0  0  0  0  0  0  0
   -3.8240    0.3693   -1.0262 C   0  0  0  0  0  0  0  0  0  0  0  0
   -4.2569    0.6071    1.2397 C   0  0  0  0  0  0  0  0  0  0  0  0
   -1.9675    2.1009   -1.0305 C   0  0  0  0  0  0  0  0  0  0  0  0
   -4.3366   -1.6150    0.2728 C   0  0  0  0  0  0  0  0  0  0  0  0
    0.9689    0.2472    0.2866 C   0  0  0  0  0  0  0  0  0  0  0  0
    0.2069    1.3141   -0.5037 C   0  0  0  0  0  0  0  0  0  0  0  0
    0.4342   -1.1651    0.0392 C   0  0  0  0  0  0  0  0  0  0  0  0
    2.4869    0.2973    0.0962 C   0  0  0  0  0  0  0  0  0  0  0  0
    0.3593   -2.0364    1.1014 C   0  0  0  0  0  0  0  0  0  0  0  0
    2.9845    0.5822   -1.1543 C   0  0  0  0  0  0  0  0  0  0  0  0
    0.0483   -1.5096   -1.2358 C   0  0  0  0  0  0  0  0  0  0  0  0
    3.2951    0.0557    1.1831 C   0  0  0  0  0  0  0  0  0  0  0  0
    1.0556    1.9952    1.8549 C   0  0  0  0  0  0  0  0  0  0  0  0
   -0.1282   -3.3238    0.8762 C   0  0  0  0  0  0  0  0  0  0  0  0
    4.3677    0.6281   -1.3279 C   0  0  0  0  0  0  0  0  0  0  0  0
   -0.4393   -2.7969   -1.4610 C   0  0  0  0  0  0  0  0  0  0  0  0
    4.6784    0.1017    1.0095 C   0  0  0  0  0  0  0  0  0  0  0  0
   -0.5275   -3.7039   -0.4049 C   0  0  0  0  0  0  0  0  0  0  0  0
    5.2146    0.3879   -0.2461 C   0  0  0  0  0  0  0  0  0  0  0  0
  1  9  1  0
  1 12  1  0
  2 11  1  0
  2 19  1  0
  3 12  2  0
  4  7  1  0
  4  8  1  0
  4 10  1  0
  5  6  1  0
  5  7  1  0
  5  9  1  0
  6  8  1  0
 11 12  1  0
 11 13  1  0
 11 14  1  0
 13 15  2  0
 13 17  1  0
 14 16  2  0
 14 18  1  0
 15 20  1  0
 16 21  1  0
 17 22  2  0
 18 23  2  0
 20 24  2  0
 21 25  2  0
 22 24  1  0
 23 25  1  0
M  END
>  <PUBCHEM_COMPOUND_CID>  (1) 
18254

>  <PUBCHEM_CONFORMER_RMSD>  (1) 
0.8

>  <PUBCHEM_CONFORMER_DIVERSEORDER>  (1) 
1
145
124
45
25
172
35
29
24
66
192
17
67
158
153
63
114
173
77
186
13
88
44
117
68
64
171
188
75
128
78
52
89
167
134
81
157
32
149
154
99
176
179
165
15
73
119
58
61
103
121
170
133
148
69
115
184
56
140
30
150
113
27
116
11
60
86
101
160
65
83
107
2
174
169
181
33
152
175
70
62
194
104
59
131
155
38
147
90
18
79
95
106
191
126
97
96
71
91
143
132
48
138
36
193
109
76
19
136
123
108
111
112
151
98
34
135
156
187
3
159
84
180
6
163
22
127
122
4
46
100
23
93
7
162
40
139
28
49
80
87
16
41
190
42
31
146
120
144
74
164
47
185
12
130
118
51
5
8
21
178
182
57
53
105
72
168
102
55
110
125
82
142
183
161
39
94
10
20
189
9
85
54
141
137
177
166
92
26
43
14
37
50
129

>  <PUBCHEM_MMFF94_PARTIAL_CHARGES>  (1) 
33
1 -0.43
10 0.27
11 0.63
12 0.66
13 -0.14
14 -0.14
15 -0.15
16 -0.15
17 -0.15
18 -0.15
19 0.28
2 -0.56
20 -0.15
21 -0.15
22 -0.15
23 -0.15
24 -0.15
25 -0.15
3 -0.57
38 0.15
39 0.15
4 -0.81
40 0.15
41 0.15
45 0.15
46 0.15
47 0.15
48 0.15
49 0.15
50 0.15
7 0.27
8 0.27
9 0.28

>  <PUBCHEM_EFFECTIVE_ROTOR_COUNT>  (1) 
8

>  <PUBCHEM_PHARMACOPHORE_FEATURES>  (1) 
6
1 2 acceptor
1 3 acceptor
1 4 cation
5 4 5 6 7 8 rings
6 13 15 17 20 22 24 rings
6 14 16 18 21 23 25 rings

>  <PUBCHEM_HEAVY_ATOM_COUNT>  (1) 
25

>  <PUBCHEM_ATOM_DEF_STEREO_COUNT>  (1) 
0

>  <PUBCHEM_ATOM_UDEF_STEREO_COUNT>  (1) 
1

>  <PUBCHEM_BOND_DEF_STEREO_COUNT>  (1) 
0

>  <PUBCHEM_BOND_UDEF_STEREO_COUNT>  (1) 
0

>  <PUBCHEM_ISOTOPIC_ATOM_COUNT>  (1) 
0

>  <PUBCHEM_COMPONENT_COUNT>  (1) 
1

>  <PUBCHEM_CACTVS_TAUTO_COUNT>  (1) 
1

>  <PUBCHEM_CONFORMER_ID>  (1) 
0000474E00000001

>  <PUBCHEM_MMFF94_ENERGY>  (1) 
86.4738

>  <PUBCHEM_FEATURE_SELFOVERLAP>  (1) 
30.447

>  <PUBCHEM_SHAPE_FINGERPRINT>  (1) 
10366900 7 18271792485771430609
10382601 240 18193286191300396123
10906281 52 18042409037111344277
11488393 25 17983306932089731270
12035758 1 18130506448065558002
12293681 4 17346599702888288384
12422481 6 18047164394699444154
12592029 89 18115312163879551880
12715332 25 18341613745713444230
12788726 201 18047478008631502662
12839892 36 18189039928669834338
13140716 1 17979067511536743723
13149001 5 18059287785826705936
14178342 30 18339090289651082881
14251751 93 18413387657235499935
14251757 17 17274831245948734158
14790565 3 18335990821748469764
14866123 147 18337940264728952674
15021287 119 17385435523713858726
15209289 33 18201438099278546753
1601671 61 18410577262454390064
16945 1 18200581588357786878
17980427 23 12035742963547652455
19591789 44 18409443674508673182
20028762 73 18128817628582029135
20197701 30 18337947896774236118
20261772 1 18335702775233646039
20775438 99 15895841694366924503
21421861 104 17693950595953765481
22224240 67 18413389835047604617
22956985 138 17827638054338700619
23419403 2 16270226305250421898
23559900 14 17755854221562918906
3383291 50 17986394391686519046
474229 33 18334576840977608087
59755656 215 18202002144786602959
633830 44 17704066270301517232
7226269 152 18131345302776502328
81228 2 17905865317314506543

>  <PUBCHEM_SHAPE_MULTIPOLES>  (1) 
491.9
8.54
3.38
1.57
1.49
3.25
-0.15
-3.46
-0.36
-2.06
0.21
0.36
-0.23
-0.05

>  <PUBCHEM_SHAPE_SELFOVERLAP>  (1) 
1056.854

>  <PUBCHEM_SHAPE_VOLUME>  (1) 
272.7

>  <PUBCHEM_COORDINATE_TYPE>  (1) 
2
5
10

$$$$
