18256
     RDKit          3D

 26 28  0  0  1  0  0  0  0  0999 V2000
   -0.8863    1.3650   -0.3210 O   0  0  0  0  0  0  0  0  0  0  0  0
    0.7721    0.5965    1.6307 O   0  0  0  0  0  0  0  0  0  0  0  0
    1.0837    2.2531   -1.1075 O   0  0  0  0  0  0  0  0  0  0  0  0
   -3.5338    0.0077    0.0693 N   0  0  0  0  0  0  0  0  0  0  0  0
   -3.1034    2.1718   -0.7336 C   0  0  0  0  0  0  0  0  0  0  0  0
   -3.4202    2.2329    0.7674 C   0  0  0  0  0  0  0  0  0  0  0  0
   -3.5814    0.7850   -1.1704 C   0  0  0  0  0  0  0  0  0  0  0  0
   -4.0799    0.8993    1.0917 C   0  0  0  0  0  0  0  0  0  0  0  0
   -1.6132    2.3788   -0.9947 C   0  0  0  0  0  0  0  0  0  0  0  0
   -4.2742   -1.2416   -0.0299 C   0  0  0  0  0  0  0  0  0  0  0  0
   -4.2180   -2.0181    1.2747 C   0  0  0  0  0  0  0  0  0  0  0  0
    1.1410    0.2397    0.2829 C   0  0  0  0  0  0  0  0  0  0  0  0
    0.4823    1.4081   -0.4550 C   0  0  0  0  0  0  0  0  0  0  0  0
    2.6648    0.1961    0.1450 C   0  0  0  0  0  0  0  0  0  0  0  0
    0.5215   -1.1119   -0.0793 C   0  0  0  0  0  0  0  0  0  0  0  0
    3.2260    0.5291   -1.0662 C   0  0  0  0  0  0  0  0  0  0  0  0
    0.3489   -2.0454    0.9167 C   0  0  0  0  0  0  0  0  0  0  0  0
    3.4145   -0.1740    1.2376 C   0  0  0  0  0  0  0  0  0  0  0  0
    0.1601   -1.3419   -1.3869 C   0  0  0  0  0  0  0  0  0  0  0  0
    1.2882    1.8677    1.9712 C   0  0  0  0  0  0  0  0  0  0  0  0
    4.6146    0.4897   -1.1919 C   0  0  0  0  0  0  0  0  0  0  0  0
   -0.2159   -3.2774    0.5868 C   0  0  0  0  0  0  0  0  0  0  0  0
    4.8032   -0.2134    1.1118 C   0  0  0  0  0  0  0  0  0  0  0  0
   -0.4049   -2.5738   -1.7167 C   0  0  0  0  0  0  0  0  0  0  0  0
    5.4031    0.1185   -0.1030 C   0  0  0  0  0  0  0  0  0  0  0  0
   -0.5928   -3.5415   -0.7297 C   0  0  0  0  0  0  0  0  0  0  0  0
  1  9  1  0
  1 13  1  0
  2 12  1  0
  2 20  1  0
  3 13  2  0
  4  7  1  0
  4  8  1  0
  4 10  1  0
  5  6  1  0
  5  7  1  0
  5  9  1  0
  6  8  1  0
 10 11  1  0
 12 13  1  0
 12 14  1  0
 12 15  1  0
 14 16  2  0
 14 18  1  0
 15 17  2  0
 15 19  1  0
 16 21  1  0
 17 22  1  0
 18 23  2  0
 19 24  2  0
 21 25  2  0
 22 26  2  0
 23 25  1  0
 24 26  1  0
M  END
>  <PUBCHEM_COMPOUND_CID>  (1) 
18256

>  <PUBCHEM_CONFORMER_RMSD>  (1) 
1

>  <PUBCHEM_CONFORMER_DIVERSEORDER>  (1) 
1
71
51
24
14
23
54
11
52
31
70
18
2
26
35
5
80
55
63
32
39
69
22
6
45
50
21
49
53
74
48
82
43
34
41
36
81
4
16
8
62
30
85
15
58
64
60
3
59
25
42
13
57
44
66
68
46
37
75
61
10
83
7
40
17
78
76
19
79
84
20
12
28
77
65
27
72
9
56
33
47
29
38
73
67

>  <PUBCHEM_MMFF94_PARTIAL_CHARGES>  (1) 
33
1 -0.43
10 0.27
12 0.63
13 0.66
14 -0.14
15 -0.14
16 -0.15
17 -0.15
18 -0.15
19 -0.15
2 -0.56
20 0.28
21 -0.15
22 -0.15
23 -0.15
24 -0.15
25 -0.15
26 -0.15
3 -0.57
4 -0.81
41 0.15
42 0.15
43 0.15
44 0.15
48 0.15
49 0.15
50 0.15
51 0.15
52 0.15
53 0.15
7 0.27
8 0.27
9 0.28

>  <PUBCHEM_EFFECTIVE_ROTOR_COUNT>  (1) 
9

>  <PUBCHEM_PHARMACOPHORE_FEATURES>  (1) 
6
1 2 acceptor
1 3 acceptor
1 4 cation
5 4 5 6 7 8 rings
6 14 16 18 21 23 25 rings
6 15 17 19 22 24 26 rings

>  <PUBCHEM_HEAVY_ATOM_COUNT>  (1) 
26

>  <PUBCHEM_ATOM_DEF_STEREO_COUNT>  (1) 
0

>  <PUBCHEM_ATOM_UDEF_STEREO_COUNT>  (1) 
1

>  <PUBCHEM_BOND_DEF_STEREO_COUNT>  (1) 
0

>  <PUBCHEM_BOND_UDEF_STEREO_COUNT>  (1) 
0

>  <PUBCHEM_ISOTOPIC_ATOM_COUNT>  (1) 
0

>  <PUBCHEM_COMPONENT_COUNT>  (1) 
1

>  <PUBCHEM_CACTVS_TAUTO_COUNT>  (1) 
1

>  <PUBCHEM_CONFORMER_ID>  (1) 
0000475000000001

>  <PUBCHEM_MMFF94_ENERGY>  (1) 
83.0641

>  <PUBCHEM_FEATURE_SELFOVERLAP>  (1) 
30.447

>  <PUBCHEM_SHAPE_FINGERPRINT>  (1) 
10076449 9 17917169276971038822
10366900 7 18200298932550575449
10616163 171 18334576807124362805
10906281 52 18189618242280916941
11488393 25 17772202915744072678
11578080 2 16156230838052701191
12035758 1 18059574745423737266
12422481 6 17976514162702443538
12633257 1 18187091650432733417
12715332 25 18343865549832665846
12788726 201 18262810691010180204
12839892 36 18261944138118720418
13140716 1 18051689146444530858
13149001 5 17988070201598044200
14117953 113 18339927134391744943
14178342 30 18339654330457671097
14251751 93 18413106169252522615
14251757 17 17275111604349920998
14790565 3 18408890637567033852
15021287 119 17385719189160820166
15209289 33 18202281411717262037
1601671 61 18411702054354531432
17980427 23 16878240678917385909
19591789 44 18410007719741987086
20028762 73 18129662053459446127
20197701 30 18339072684358369662
20261772 1 18339924934497531191
21033648 29 18060125561746407560
21421861 104 17551241670270020121
22956985 138 17829045407721017523
23419403 2 16126385986507360706
23559900 14 17902224512456494382
2818148 4 17687194496633649703
3383291 50 17843965841573319318
350125 39 18411141376633969009
35225 105 17459456935460717915
5265222 85 18341620356543903958
56638632 33 17468449557174262298
59755656 215 18202846552478759031
633830 44 17561074770387876896
7226269 152 18060412496296282152
81228 2 17907269380746580700
9862522 239 18343013406783486527

>  <PUBCHEM_SHAPE_MULTIPOLES>  (1) 
512.48
8.94
3.45
1.62
3
2.22
-0.16
-1.95
-1.19
-2.81
0.42
0.22
-0.06
0.31

>  <PUBCHEM_SHAPE_SELFOVERLAP>  (1) 
1095.657

>  <PUBCHEM_SHAPE_VOLUME>  (1) 
285.4

>  <PUBCHEM_COORDINATE_TYPE>  (1) 
2
5
10

$$$$
