1825
     RDKit          3D

 13 12  0  0  1  0  0  0  0  0999 V2000
   -0.9668   -2.7558   -0.0051 O   0  0  0  0  0  0  0  0  0  0  0  0
    5.3992    0.8518    0.4474 O   0  0  0  0  0  0  0  0  0  0  0  0
    3.6968    1.9216   -0.6177 O   0  0  0  0  0  0  0  0  0  0  0  0
   -0.3734   -1.5063   -0.3643 C   0  0  0  0  0  0  0  0  0  0  0  0
   -1.2391   -0.3761    0.2068 C   0  0  0  0  0  0  0  0  0  0  0  0
   -2.7050   -0.4052   -0.2476 C   0  0  0  0  0  0  0  0  0  0  0  0
    1.0641   -1.4914    0.1756 C   0  0  0  0  0  0  0  0  0  0  0  0
   -3.5210    0.7839    0.2644 C   0  0  0  0  0  0  0  0  0  0  0  0
    1.9073   -0.2612   -0.1795 C   0  0  0  0  0  0  0  0  0  0  0  0
   -4.9724    0.7045   -0.2109 C   0  0  0  0  0  0  0  0  0  0  0  0
    3.3576   -0.3092    0.3007 C   0  0  0  0  0  0  0  0  0  0  0  0
   -5.7800    1.9022    0.2633 C   0  0  0  0  0  0  0  0  0  0  0  0
    4.1328    0.9412   -0.0330 C   0  0  0  0  0  0  0  0  0  0  0  0
  1  4  1  0
  2 13  1  0
  3 13  2  0
  4  5  1  0
  4  7  1  0
  5  6  1  0
  6  8  1  0
  7  9  1  0
  8 10  1  0
  9 11  1  0
 10 12  1  0
 11 13  1  0
M  END
>  <PUBCHEM_COMPOUND_CID>  (1) 
1825

>  <PUBCHEM_CONFORMER_RMSD>  (1) 
0.8

>  <PUBCHEM_CONFORMER_DIVERSEORDER>  (1) 
1
246
148
185
11
224
256
173
7
164
139
187
153
290
71
219
37
15
220
112
277
49
244
81
144
267
82
251
14
143
171
175
33
84
54
240
115
285
266
231
269
111
92
180
122
178
253
52
206
5
282
255
147
40
252
57
263
235
278
30
167
29
195
297
174
22
137
259
295
268
162
209
193
190
138
133
292
28
294
110
225
236
8
55
247
152
222
262
192
136
248
17
116
211
186
160
10
176
264
145
101
27
181
237
233
16
38
210
273
205
151
271
87
103
31
179
276
241
265
21
4
289
62
19
165
215
249
76
159
25
85
68
196
172
239
24
158
228
188
59
154
32
283
34
212
213
234
13
60
202
93
257
226
279
89
280
90
131
238
9
258
161
132
183
163
23
208
157
201
230
48
156
12
78
20
218
197
204
77
108
270
243
140
127
118
227
281
72
198
6
242
293
124
254
284
67
45
261
41
128
36
291
114
43
69
203
146
184
125
109
191
2
286
51
65
214
104
274
46
96
56
149
88
120
142
221
53
95
73
3
50
189
134
177
182
75
217
168
47
18
250
121
260
42
287
39
74
245
199
223
135
169
272
58
35
99
44
107
64
200
86
150
275
61
98
166
126
66
83
288
26
194
97
80
229
102
155
216
63
123
106
119
207
113
129
94
117
70
232
130
170
91
296
79
105
100
141

>  <PUBCHEM_MMFF94_PARTIAL_CHARGES>  (1) 
8
1 -0.68
11 0.06
13 0.66
2 -0.65
29 0.4
3 -0.57
33 0.5
4 0.28

>  <PUBCHEM_EFFECTIVE_ROTOR_COUNT>  (1) 
8

>  <PUBCHEM_PHARMACOPHORE_FEATURES>  (1) 
7
1 1 acceptor
1 1 donor
1 12 hydrophobe
1 2 acceptor
1 3 acceptor
3 2 3 13 anion
4 5 6 8 10 hydrophobe

>  <PUBCHEM_HEAVY_ATOM_COUNT>  (1) 
13

>  <PUBCHEM_ATOM_DEF_STEREO_COUNT>  (1) 
0

>  <PUBCHEM_ATOM_UDEF_STEREO_COUNT>  (1) 
1

>  <PUBCHEM_BOND_DEF_STEREO_COUNT>  (1) 
0

>  <PUBCHEM_BOND_UDEF_STEREO_COUNT>  (1) 
0

>  <PUBCHEM_ISOTOPIC_ATOM_COUNT>  (1) 
0

>  <PUBCHEM_COMPONENT_COUNT>  (1) 
1

>  <PUBCHEM_CACTVS_TAUTO_COUNT>  (1) 
1

>  <PUBCHEM_CONFORMER_ID>  (1) 
0000072100000001

>  <PUBCHEM_MMFF94_ENERGY>  (1) 
6.3204

>  <PUBCHEM_FEATURE_SELFOVERLAP>  (1) 
35.578

>  <PUBCHEM_SHAPE_FINGERPRINT>  (1) 
100836 57 18410296908232015477
122479 349 18334298703264657858
12596602 18 13623536748778786909
13955234 65 18047196250561770043
14123255 352 18409729556359095941
14123255 52 18410011031029851487
14123256 34 8430311385273429209
1420 369 8502655913148964961
14576447 43 10663826282503359388
15342168 16 18407763633800218757
15501527 16 18411984692945561008
15501527 24 17846208939576526869
17834072 32 18410576222877164501
17834072 8 18272660030694607446
20374829 77 9871752377697329879
204376 136 18410013221895916491
20605781 2 18341895177909260849
20621476 21 12396569677582425464
20621476 66 18335706087508467388
20645477 56 18410013264460318270
20767249 142 9367354734038369896
20871999 31 17131537432335869175
212847 35 18343015575947108448
21499 59 18412259506998000143
22620623 9 16414616307304416087
23272321 79 18410013260755941205
23402539 116 18201431502024066644
23402655 69 17988921158888200199
23403322 49 9799694792323176521
23500284 214 18335422386936681771
23590187 49 18411698785762963367
270888 7 18412261718653118713
293599 30 18413108355316886577
328317 168 18413106156636379439
351380 3 8430314636442242520
4259306 186 10592040246051523329
449060 50 18337113367838962391
449060 62 18340204098818493555
465052 167 7925622332493836969
59345605 21 11527952235732213252
59345606 38 18411699876895633613
59682541 52 17274555221870987636

>  <PUBCHEM_SHAPE_MULTIPOLES>  (1) 
249.93
12.42
2.16
0.68
4.1
0.69
-0.01
-10.63
0.75
0.14
-0.1
-0.05
-0.05
-0.42

>  <PUBCHEM_SHAPE_SELFOVERLAP>  (1) 
456.696

>  <PUBCHEM_SHAPE_VOLUME>  (1) 
158.8

>  <PUBCHEM_COORDINATE_TYPE>  (1) 
2
5
10

$$$$
