18262
     RDKit          3D

 24 25  0  0  1  0  0  0  0  0999 V2000
    0.9114   -0.3510   -1.8531 O   0  0  0  0  0  0  0  0  0  0  0  0
   -1.2662   -0.3123   -0.3075 O   0  0  0  0  0  0  0  0  0  0  0  0
   -0.0401   -1.9209    0.7868 O   0  0  0  0  0  0  0  0  0  0  0  0
   -4.9113   -0.7169    0.0603 N   0  0  0  0  0  0  0  0  0  0  0  0
    1.1172   -0.1474   -0.4403 C   0  0  0  0  0  0  0  0  0  0  0  0
    1.0502    1.3478   -0.1211 C   0  0  0  0  0  0  0  0  0  0  0  0
    2.4626   -0.7374   -0.0107 C   0  0  0  0  0  0  0  0  0  0  0  0
   -0.0968   -0.9184    0.0844 C   0  0  0  0  0  0  0  0  0  0  0  0
   -3.6493   -0.1190   -0.3744 C   0  0  0  0  0  0  0  0  0  0  0  0
   -2.4675   -0.9175    0.1522 C   0  0  0  0  0  0  0  0  0  0  0  0
    0.5623    1.7384    1.1048 C   0  0  0  0  0  0  0  0  0  0  0  0
    3.4998   -0.7388   -0.9146 C   0  0  0  0  0  0  0  0  0  0  0  0
    1.4799    2.2442   -1.0722 C   0  0  0  0  0  0  0  0  0  0  0  0
    2.5826   -1.2443    1.2627 C   0  0  0  0  0  0  0  0  0  0  0  0
   -6.0442   -0.0060   -0.5309 C   0  0  0  0  0  0  0  0  0  0  0  0
   -5.0060   -0.7058    1.5196 C   0  0  0  0  0  0  0  0  0  0  0  0
    0.5010    3.1014    1.3955 C   0  0  0  0  0  0  0  0  0  0  0  0
    4.7256   -1.2768   -0.5230 C   0  0  0  0  0  0  0  0  0  0  0  0
    1.4187    3.6071   -0.7814 C   0  0  0  0  0  0  0  0  0  0  0  0
    3.8085   -1.7822    1.6542 C   0  0  0  0  0  0  0  0  0  0  0  0
    0.9152   -1.7295   -2.1662 C   0  0  0  0  0  0  0  0  0  0  0  0
    0.9292    4.0355    0.4523 C   0  0  0  0  0  0  0  0  0  0  0  0
    4.8799   -1.7986    0.7615 C   0  0  0  0  0  0  0  0  0  0  0  0
   -7.3625   -0.6514   -0.1388 C   0  0  0  0  0  0  0  0  0  0  0  0
  1  5  1  0
  1 21  1  0
  2  8  1  0
  2 10  1  0
  3  8  2  0
  4  9  1  0
  4 15  1  0
  4 16  1  0
  5  6  1  0
  5  7  1  0
  5  8  1  0
  6 11  2  0
  6 13  1  0
  7 12  2  0
  7 14  1  0
  9 10  1  0
 11 17  1  0
 12 18  1  0
 13 19  2  0
 14 20  2  0
 15 24  1  0
 17 22  2  0
 18 23  2  0
 19 22  1  0
 20 23  1  0
M  END
>  <PUBCHEM_COMPOUND_CID>  (1) 
18262

>  <PUBCHEM_CONFORMER_RMSD>  (1) 
1

>  <PUBCHEM_CONFORMER_DIVERSEORDER>  (1) 
1
17
53
41
18
51
25
24
42
26
38
48
15
23
20
6
29
32
47
37
52
27
12
10
40
33
19
35
11
50
16
14
36
28
2
39
46
44
31
5
22
8
7
9
45
3
43
49
34
30
13
4
21

>  <PUBCHEM_MMFF94_PARTIAL_CHARGES>  (1) 
33
1 -0.56
10 0.28
11 -0.15
12 -0.15
13 -0.15
14 -0.15
15 0.27
16 0.27
17 -0.15
18 -0.15
19 -0.15
2 -0.43
20 -0.15
21 0.28
22 -0.15
23 -0.15
29 0.15
3 -0.57
30 0.15
31 0.15
32 0.15
38 0.15
39 0.15
4 -0.81
40 0.15
41 0.15
48 0.15
49 0.15
5 0.63
6 -0.14
7 -0.14
8 0.66
9 0.27

>  <PUBCHEM_EFFECTIVE_ROTOR_COUNT>  (1) 
9

>  <PUBCHEM_PHARMACOPHORE_FEATURES>  (1) 
5
1 1 acceptor
1 3 acceptor
1 4 cation
6 6 11 13 17 19 22 rings
6 7 12 14 18 20 23 rings

>  <PUBCHEM_HEAVY_ATOM_COUNT>  (1) 
24

>  <PUBCHEM_ATOM_DEF_STEREO_COUNT>  (1) 
0

>  <PUBCHEM_ATOM_UDEF_STEREO_COUNT>  (1) 
0

>  <PUBCHEM_BOND_DEF_STEREO_COUNT>  (1) 
0

>  <PUBCHEM_BOND_UDEF_STEREO_COUNT>  (1) 
0

>  <PUBCHEM_ISOTOPIC_ATOM_COUNT>  (1) 
0

>  <PUBCHEM_COMPONENT_COUNT>  (1) 
1

>  <PUBCHEM_CACTVS_TAUTO_COUNT>  (1) 
1

>  <PUBCHEM_CONFORMER_ID>  (1) 
0000475600000001

>  <PUBCHEM_MMFF94_ENERGY>  (1) 
81.6319

>  <PUBCHEM_FEATURE_SELFOVERLAP>  (1) 
25.372

>  <PUBCHEM_SHAPE_FINGERPRINT>  (1) 
10090160 65 10087640381798869683
10162869 55 17989198262732942111
11265709 11 18410858724704343984
11405975 8 18336548322057863763
11545043 162 17530972410521140739
11578080 2 17533800443757021049
12166972 35 18201998837650787361
12516196 113 18409725140964151186
12549972 3 17750526250629501265
12616971 3 18130785703372377391
12633257 1 18343305885940910055
12788726 201 18263932047068684810
13004483 165 18337379440836525290
13134695 92 18341041995156002508
13294875 104 17699567253757738080
133893 2 17760048059980681460
13590594 115 18410860928075853697
13878862 14 18264749109042028749
13899415 154 18408328774150206250
14170010 4 18341046410577483561
14347329 18 16083030920812114261
14466204 15 18265610984133847641
14863182 85 16845303734449830519
14950920 106 18120122639521687315
14955137 171 18412546504733148895
15420108 30 17628335376067396768
15849732 13 17917709114898494206
17349148 13 17917720101825724891
17868525 174 18334849520357337761
17980427 23 17416665016142480511
18006028 8 18409726227865183450
1813 80 18271251529780503614
18222031 100 18271810098798958030
192875 21 18131074844306360433
20369508 70 18334857233912827395
20832881 197 18187363212123856115
21041028 32 18341327816676806261
21304303 94 12613028358119917673
23419403 2 18127101174771579520
23558518 356 17617930778842725630
23559900 14 17312823814544252667
283562 15 18118966893460128242
3178227 256 18335711542064186267
3380486 77 18336276656137701570
3411729 13 18269548519798667632
345986 75 17825086152532987970
34934 24 18269555108557476692
5895379 119 17201947889072712865
70251023 43 18339085861671799578
7164475 11 18047190757282273450
7471813 234 18273492382007771241
7495541 125 18187650227872135215
81228 2 18124612885557643640
8509985 295 18408884044654525507
9841814 1 18410017649452973152
9971528 1 17988925561129555595
9981440 41 17476629253701633249

>  <PUBCHEM_SHAPE_MULTIPOLES>  (1) 
471.32
11.5
3.58
1.55
25.12
5.53
0.15
-8.28
-1.18
-3.46
-0.48
-0.78
-0.32
-0.44

>  <PUBCHEM_SHAPE_SELFOVERLAP>  (1) 
992.321

>  <PUBCHEM_SHAPE_VOLUME>  (1) 
265.4

>  <PUBCHEM_COORDINATE_TYPE>  (1) 
2
5
10

$$$$
