18260
     RDKit          3D

 23 24  0  0  0  0  0  0  0  0999 V2000
   -0.2682    0.6345   -1.5270 O   0  0  0  0  0  0  0  0  0  0  0  0
    1.7602    0.4660    0.1132 O   0  0  0  0  0  0  0  0  0  0  0  0
    0.3613    1.7020    1.4562 O   0  0  0  0  0  0  0  0  0  0  0  0
    5.3389    1.1083    0.7306 N   0  0  0  0  0  0  0  0  0  0  0  0
   -0.5805    0.1259   -0.1988 C   0  0  0  0  0  0  0  0  0  0  0  0
   -0.3261   -1.3977   -0.1957 C   0  0  0  0  0  0  0  0  0  0  0  0
   -1.9744    0.4665    0.2080 C   0  0  0  0  0  0  0  0  0  0  0  0
    0.5345    0.8758    0.5682 C   0  0  0  0  0  0  0  0  0  0  0  0
    0.1321   -1.9722    0.9595 C   0  0  0  0  0  0  0  0  0  0  0  0
   -2.9780    0.5654   -0.7559 C   0  0  0  0  0  0  0  0  0  0  0  0
   -0.5718   -2.0941   -1.3487 C   0  0  0  0  0  0  0  0  0  0  0  0
   -2.2745    0.6867    1.5523 C   0  0  0  0  0  0  0  0  0  0  0  0
   -0.3982    2.0369   -1.5544 C   0  0  0  0  0  0  0  0  0  0  0  0
    2.8914    1.0710    0.7475 C   0  0  0  0  0  0  0  0  0  0  0  0
    0.3621   -3.3481    0.9618 C   0  0  0  0  0  0  0  0  0  0  0  0
   -4.2814    0.8842   -0.3752 C   0  0  0  0  0  0  0  0  0  0  0  0
   -0.3420   -3.4699   -1.3461 C   0  0  0  0  0  0  0  0  0  0  0  0
   -3.5780    1.0056    1.9329 C   0  0  0  0  0  0  0  0  0  0  0  0
    0.1250   -4.0968   -0.1910 C   0  0  0  0  0  0  0  0  0  0  0  0
   -4.5814    1.1043    0.9692 C   0  0  0  0  0  0  0  0  0  0  0  0
   -0.0679    2.5357   -2.9450 C   0  0  0  0  0  0  0  0  0  0  0  0
    4.1593    0.5069    0.1266 C   0  0  0  0  0  0  0  0  0  0  0  0
    6.5575    0.6032    0.1117 C   0  0  0  0  0  0  0  0  0  0  0  0
  1  5  1  0
  1 13  1  0
  2  8  1  0
  2 14  1  0
  3  8  2  0
  4 22  1  0
  4 23  1  0
  5  6  1  0
  5  7  1  0
  5  8  1  0
  6  9  2  0
  6 11  1  0
  7 10  2  0
  7 12  1  0
  9 15  1  0
 10 16  1  0
 11 17  2  0
 12 18  2  0
 13 21  1  0
 14 22  1  0
 15 19  2  0
 16 20  2  0
 17 19  1  0
 18 20  1  0
M  END
>  <PUBCHEM_COMPOUND_CID>  (1) 
18260

>  <PUBCHEM_CONFORMER_RMSD>  (1) 
1

>  <PUBCHEM_CONFORMER_DIVERSEORDER>  (1) 
1
19
20
8
5
6
15
2
16
3
11
13
12
4
17
23
14
7
22
18
9
10
21

>  <PUBCHEM_MMFF94_PARTIAL_CHARGES>  (1) 
33
1 -0.56
10 -0.15
11 -0.15
12 -0.15
13 0.28
14 0.28
15 -0.15
16 -0.15
17 -0.15
18 -0.15
19 -0.15
2 -0.43
20 -0.15
22 0.27
23 0.27
24 0.15
25 0.15
26 0.15
27 0.15
3 -0.57
32 0.15
33 0.15
34 0.15
35 0.15
36 0.15
37 0.15
4 -0.9
43 0.36
5 0.63
6 -0.14
7 -0.14
8 0.66
9 -0.15

>  <PUBCHEM_EFFECTIVE_ROTOR_COUNT>  (1) 
9

>  <PUBCHEM_PHARMACOPHORE_FEATURES>  (1) 
6
1 1 acceptor
1 3 acceptor
1 4 cation
1 4 donor
6 6 9 11 15 17 19 rings
6 7 10 12 16 18 20 rings

>  <PUBCHEM_HEAVY_ATOM_COUNT>  (1) 
23

>  <PUBCHEM_ATOM_DEF_STEREO_COUNT>  (1) 
0

>  <PUBCHEM_ATOM_UDEF_STEREO_COUNT>  (1) 
0

>  <PUBCHEM_BOND_DEF_STEREO_COUNT>  (1) 
0

>  <PUBCHEM_BOND_UDEF_STEREO_COUNT>  (1) 
0

>  <PUBCHEM_ISOTOPIC_ATOM_COUNT>  (1) 
0

>  <PUBCHEM_COMPONENT_COUNT>  (1) 
1

>  <PUBCHEM_CACTVS_TAUTO_COUNT>  (1) 
1

>  <PUBCHEM_CONFORMER_ID>  (1) 
0000475400000001

>  <PUBCHEM_MMFF94_ENERGY>  (1) 
71.484

>  <PUBCHEM_FEATURE_SELFOVERLAP>  (1) 
30.446

>  <PUBCHEM_SHAPE_FINGERPRINT>  (1) 
10756046 70 17823990128154749581
10906281 52 17604154701575031381
11036077 3 18342181046563779330
11315181 36 14907903812757437616
11578080 2 17976547100506105181
12403814 3 18040707083004802628
12633257 1 18411410748730735472
12643181 29 18343872122172008302
12788726 201 17835814366331095878
14178342 30 18264511558500181441
14713325 29 14979688710103832929
14866123 147 18268988850921101186
14943834 7 17467083267921371021
15775530 1 17538832590634253285
15849732 13 18114180886267732660
16945 1 18268151955236469635
18915476 22 18121486961030643781
19930381 70 17413325572223887334
20197701 30 18341894099587724019
21033648 29 18338780270100865832
22224240 67 18411984672087955297
23419403 2 17766327202925087467
23558518 356 17982441908437691161
3411729 13 18267309720702826657
3729539 64 18124892157607158638
3759504 43 18409167748597976242
404807 78 17757518084475308279
59755656 520 18344143696325636582
6669772 16 18343023247065440318
81228 2 17831275560940897290

>  <PUBCHEM_SHAPE_MULTIPOLES>  (1) 
450.74
8.09
3.83
1.92
11.84
5.53
0.89
-6.47
-3.45
0.41
1.42
-0.98
-1.07
-0.17

>  <PUBCHEM_SHAPE_SELFOVERLAP>  (1) 
948.662

>  <PUBCHEM_SHAPE_VOLUME>  (1) 
251.7

>  <PUBCHEM_COORDINATE_TYPE>  (1) 
2
5
10

$$$$
