18271
     RDKit          3D

 14 14  0  0  1  0  0  0  0  0999 V2000
   -0.2838    3.2464   -1.0790 O   0  0  0  0  0  0  0  0  0  0  0  0
   -0.2339    0.6857    0.1313 N   0  0  0  0  0  0  0  0  0  0  0  0
   -1.4670    0.3435   -0.5354 C   0  0  0  0  0  0  0  0  0  0  0  0
   -2.3388   -0.5361    0.3568 C   0  0  0  0  0  0  0  0  0  0  0  0
   -0.1792    1.9237    0.9113 C   0  0  0  0  0  0  0  0  0  0  0  0
   -3.6399   -0.9640   -0.3268 C   0  0  0  0  0  0  0  0  0  0  0  0
    0.8936   -0.1445    0.0556 C   0  0  0  0  0  0  0  0  0  0  0  0
    0.4725    3.0368    0.1064 C   0  0  0  0  0  0  0  0  0  0  0  0
   -4.4547   -1.8916    0.5614 C   0  0  0  0  0  0  0  0  0  0  0  0
    0.8447   -1.3355   -0.6767 C   0  0  0  0  0  0  0  0  0  0  0  0
    2.0773    0.2112    0.7108 C   0  0  0  0  0  0  0  0  0  0  0  0
    1.9665   -2.1611   -0.7529 C   0  0  0  0  0  0  0  0  0  0  0  0
    3.1991   -0.6143    0.6345 C   0  0  0  0  0  0  0  0  0  0  0  0
    3.1436   -1.8005   -0.0973 C   0  0  0  0  0  0  0  0  0  0  0  0
  1  8  1  0
  2  3  1  0
  2  5  1  0
  2  7  1  0
  3  4  1  0
  4  6  1  0
  5  8  1  0
  6  9  1  0
  7 10  2  0
  7 11  1  0
 10 12  1  0
 11 13  2  0
 12 14  2  0
 13 14  1  0
M  END
>  <PUBCHEM_COMPOUND_CID>  (1) 
18271

>  <PUBCHEM_CONFORMER_RMSD>  (1) 
0.6

>  <PUBCHEM_CONFORMER_DIVERSEORDER>  (1) 
2
151
87
149
145
115
174
65
59
150
108
34
124
66
73
156
127
136
140
105
133
146
123
102
13
168
162
57
138
157
154
110
37
126
160
143
91
101
92
114
74
35
129
148
84
41
144
25
100
96
81
49
85
40
36
134
135
98
142
173
94
117
75
58
27
166
131
172
62
130
1
71
159
69
72
139
5
164
169
67
141
99
55
167
60
82
95
120
77
152
51
113
12
38
118
63
163
53
17
116
161
128
90
104
42
39
78
21
147
64
31
119
29
93
7
83
165
47
4
19
153
137
24
88
56
15
23
26
109
121
155
171
50
46
11
68
158
86
132
33
52
70
111
125
3
170
80
61
20
43
54
76
79
122
112
97
45
16
18
10
22
106
8
44
9
89
103
48
107
28
32
14
30
6

>  <PUBCHEM_MMFF94_PARTIAL_CHARGES>  (1) 
17
1 -0.68
10 -0.15
11 -0.15
12 -0.15
13 -0.15
14 -0.15
2 -0.84
28 0.15
29 0.15
3 0.37
30 0.15
31 0.15
32 0.15
33 0.4
5 0.37
7 0.1
8 0.28

>  <PUBCHEM_EFFECTIVE_ROTOR_COUNT>  (1) 
6

>  <PUBCHEM_PHARMACOPHORE_FEATURES>  (1) 
5
1 1 acceptor
1 1 donor
1 2 cation
1 9 hydrophobe
6 7 10 11 12 13 14 rings

>  <PUBCHEM_HEAVY_ATOM_COUNT>  (1) 
14

>  <PUBCHEM_ATOM_DEF_STEREO_COUNT>  (1) 
0

>  <PUBCHEM_ATOM_UDEF_STEREO_COUNT>  (1) 
0

>  <PUBCHEM_BOND_DEF_STEREO_COUNT>  (1) 
0

>  <PUBCHEM_BOND_UDEF_STEREO_COUNT>  (1) 
0

>  <PUBCHEM_ISOTOPIC_ATOM_COUNT>  (1) 
0

>  <PUBCHEM_COMPONENT_COUNT>  (1) 
1

>  <PUBCHEM_CACTVS_TAUTO_COUNT>  (1) 
1

>  <PUBCHEM_CONFORMER_ID>  (1) 
0000475F00000002

>  <PUBCHEM_MMFF94_ENERGY>  (1) 
37.2326

>  <PUBCHEM_FEATURE_SELFOVERLAP>  (1) 
25.371

>  <PUBCHEM_SHAPE_FINGERPRINT>  (1) 
1 1 17906171007443880909
12032990 46 18412826867307951183
12138202 97 17616250286978179292
12346645 6 18050566536972915985
14252887 29 18272937123903167619
15422964 175 18341614780753479583
15501101 241 17988917890196568042
16945 1 17703213083938223018
17844478 74 18200871769143801910
18186145 218 11242254013294684047
18380122 1 18201144456786113218
20097449 115 18409448089861524121
20645477 70 18192700375373997207
20671657 53 18408324406326656963
20708731 107 18265055923623898773
20711985 344 18046902684739755233
20871998 22 18413392020763919403
21029758 27 18411138060481347182
21665056 4 17257656616709075015
2255824 54 18123475148562729605
23419403 2 17753296980902725076
23557571 272 18268993072862468388
2748010 2 18199735973399960580
3060560 45 17758117377328547301
3071541 236 17545305394217291120
458136 41 17688325890045964393
5902787 121 18333445465219870755
7364860 26 18195247947556328145
81228 2 18122634855264698401
8809292 202 17909830929496889006

>  <PUBCHEM_SHAPE_MULTIPOLES>  (1) 
277.26
5.87
3.26
0.93
5.56
2.99
0.03
-5.76
-1.04
-0.41
0.63
-0.04
0.16
0.59

>  <PUBCHEM_SHAPE_SELFOVERLAP>  (1) 
548.731

>  <PUBCHEM_SHAPE_VOLUME>  (1) 
165.7

>  <PUBCHEM_COORDINATE_TYPE>  (1) 
2
5
10

$$$$
