18276
     RDKit          3D

 19 20  0  0  0  0  0  0  0  0999 V2000
    1.2610    0.5085   -2.4854 O   0  0  0  0  0  0  0  0  0  0  0  0
    1.1026    0.8698    2.2718 O   0  0  0  0  0  0  0  0  0  0  0  0
   -2.7039    2.4164   -0.0872 O   0  0  0  0  0  0  0  0  0  0  0  0
    0.2019   -1.2870   -0.0074 O   0  0  0  0  0  0  0  0  0  0  0  0
    4.6622   -1.1304    0.1355 O   0  0  0  0  0  0  0  0  0  0  0  0
   -4.3867   -1.8942    0.1148 O   0  0  0  0  0  0  0  0  0  0  0  0
   -0.1665    1.3953   -0.1019 N   0  0  0  0  0  0  0  0  0  0  0  0
    2.9273   -0.2818   -1.1112 N   0  0  0  0  0  0  0  0  0  0  0  0
    2.8876   -0.1343    1.2174 N   0  0  0  0  0  0  0  0  0  0  0  0
   -3.5641    0.2524    0.0129 N   0  0  0  0  0  0  0  0  0  0  0  0
   -2.1046   -1.6060    0.0535 N   0  0  0  0  0  0  0  0  0  0  0  0
    1.0436    0.7583   -0.1028 C   0  0  0  0  0  0  0  0  0  0  0  0
   -1.1882    0.6152   -0.0510 C   0  0  0  0  0  0  0  0  0  0  0  0
    1.7148    0.3516   -1.1952 C   0  0  0  0  0  0  0  0  0  0  0  0
    1.6615    0.5138    1.2367 C   0  0  0  0  0  0  0  0  0  0  0  0
   -2.5625    1.2051   -0.0447 C   0  0  0  0  0  0  0  0  0  0  0  0
   -0.9413   -0.8597   -0.0003 C   0  0  0  0  0  0  0  0  0  0  0  0
    3.5730   -0.5586    0.0810 C   0  0  0  0  0  0  0  0  0  0  0  0
   -3.4175   -1.1342    0.0635 C   0  0  0  0  0  0  0  0  0  0  0  0
  1 14  1  0
  2 15  2  0
  3 16  2  0
  4 17  2  0
  5 18  2  0
  6 19  2  0
  7 12  1  0
  7 13  2  3
  8 14  1  0
  8 18  1  0
  9 15  1  0
  9 18  1  0
 10 16  1  0
 10 19  1  0
 11 17  1  0
 11 19  1  0
 12 14  2  0
 12 15  1  0
 13 16  1  0
 13 17  1  0
M  END
>  <PUBCHEM_COMPOUND_CID>  (1) 
18276

>  <PUBCHEM_CONFORMER_RMSD>  (1) 
0.6

>  <PUBCHEM_CONFORMER_DIVERSEORDER>  (1) 
1

>  <PUBCHEM_MMFF94_PARTIAL_CHARGES>  (1) 
24
1 -0.53
10 -0.49
11 -0.49
12 0.19
13 0.45
14 0.19
15 0.62
16 0.63
17 0.63
18 0.69
19 0.69
2 -0.57
20 0.37
21 0.37
22 0.37
23 0.37
24 0.45
3 -0.57
4 -0.57
5 -0.57
6 -0.57
7 -0.62
8 -0.54
9 -0.49

>  <PUBCHEM_EFFECTIVE_ROTOR_COUNT>  (1) 
1.4

>  <PUBCHEM_PHARMACOPHORE_FEATURES>  (1) 
14
1 1 donor
1 10 donor
1 11 donor
1 13 anion
1 2 acceptor
1 3 acceptor
1 4 acceptor
1 5 acceptor
1 6 acceptor
1 7 acceptor
1 8 donor
1 9 donor
6 10 11 13 16 17 19 rings
6 8 9 12 14 15 18 rings

>  <PUBCHEM_HEAVY_ATOM_COUNT>  (1) 
19

>  <PUBCHEM_ATOM_DEF_STEREO_COUNT>  (1) 
0

>  <PUBCHEM_ATOM_UDEF_STEREO_COUNT>  (1) 
0

>  <PUBCHEM_BOND_DEF_STEREO_COUNT>  (1) 
0

>  <PUBCHEM_BOND_UDEF_STEREO_COUNT>  (1) 
0

>  <PUBCHEM_ISOTOPIC_ATOM_COUNT>  (1) 
0

>  <PUBCHEM_COMPONENT_COUNT>  (1) 
1

>  <PUBCHEM_CACTVS_TAUTO_COUNT>  (1) 
25

>  <PUBCHEM_CONFORMER_ID>  (1) 
0000476400000001

>  <PUBCHEM_MMFF94_ENERGY>  (1) 
65.2988

>  <PUBCHEM_FEATURE_SELFOVERLAP>  (1) 
71.199

>  <PUBCHEM_SHAPE_FINGERPRINT>  (1) 
10062212 137 18113900420782357723
10219947 1 15985099696105304708
10465860 250 18060133198704414602
11471102 22 16559031571575153168
11578080 2 17242980619133575604
12236239 1 17603869974737819060
124424 183 17845926334469503544
12500047 106 18266733576483556869
12633257 1 17131276877770628715
13134695 92 16773505586849569792
13288520 33 18410294679634573358
13581323 91 18410570708101966798
14993402 34 17167579388638761682
15219456 202 17917984010143523808
15653759 3 18202279208166807424
16752209 62 18187350052860940987
16945 1 18198358276666829372
17804303 29 18342457053835956747
19049666 15 17630897005725342233
19422 9 17967256390285230636
19862831 5 17095239245903346099
200 152 15864063269538172897
20645477 70 14273725218769660248
22112679 90 18040725744316022221
23175994 123 17346883317033057784
232386 152 18408323315003835767
23402539 116 18272359842144708357
23526113 38 17416403160624006292
23559900 14 18128540358641401926
23598291 2 17676216757582293676
3060560 45 15213293188071714794
31174 14 17487893613005009801
3286 77 17489587926279867419
474 4 16879925285904128716
568465 68 17489873743136295678
7364860 26 18193839473124574604
77492 1 17603307029100535492
81228 2 16770730333470069464
9981440 41 16886410308464116428

>  <PUBCHEM_SHAPE_MULTIPOLES>  (1) 
330.89
6.93
1.69
1.38
0.41
0.14
0.13
-2.86
-0.26
1.74
-0.05
-1.29
0.38
0.11

>  <PUBCHEM_SHAPE_SELFOVERLAP>  (1) 
728.268

>  <PUBCHEM_SHAPE_VOLUME>  (1) 
173.6

>  <PUBCHEM_COORDINATE_TYPE>  (1) 
2
5
10

$$$$
