18274
     RDKit          3D

 13 14  0  0  1  0  0  0  0  0999 V2000
   -2.0869   -0.7743   -0.5352 O   0  0  0  0  0  0  0  0  0  0  0  0
    2.0867    0.7750   -0.5350 O   0  0  0  0  0  0  0  0  0  0  0  0
   -0.2375   -1.9231   -1.2421 O   0  0  0  0  0  0  0  0  0  0  0  0
    0.2368    1.9222   -1.2428 O   0  0  0  0  0  0  0  0  0  0  0  0
    0.0000   -0.0002    0.2413 C   0  0  0  0  0  0  0  0  0  0  0  0
   -1.1126    0.5948    1.0855 C   0  0  0  0  0  0  0  0  0  0  0  0
    1.1131   -0.5955    1.0850 C   0  0  0  0  0  0  0  0  0  0  0  0
   -2.3272    0.4357    0.1941 C   0  0  0  0  0  0  0  0  0  0  0  0
    2.3275   -0.4353    0.1938 C   0  0  0  0  0  0  0  0  0  0  0  0
   -0.7414   -1.0207   -0.5909 C   0  0  0  0  0  0  0  0  0  0  0  0
    0.7411    1.0205   -0.5911 C   0  0  0  0  0  0  0  0  0  0  0  0
   -3.6266    0.3183    0.9688 C   0  0  0  0  0  0  0  0  0  0  0  0
    3.6270   -0.3175    0.9685 C   0  0  0  0  0  0  0  0  0  0  0  0
  1  8  1  0
  1 10  1  0
  2  9  1  0
  2 11  1  0
  3 10  2  0
  4 11  2  0
  5  6  1  0
  5  7  1  0
  5 10  1  0
  5 11  1  0
  6  8  1  0
  7  9  1  0
  8 12  1  0
  9 13  1  0
M  END
>  <PUBCHEM_COMPOUND_CID>  (1) 
18274

>  <PUBCHEM_CONFORMER_RMSD>  (1) 
0.4

>  <PUBCHEM_CONFORMER_DIVERSEORDER>  (1) 
2
7
3
8
5
4
6
1

>  <PUBCHEM_MMFF94_PARTIAL_CHARGES>  (1) 
9
1 -0.43
10 0.66
11 0.66
2 -0.43
3 -0.57
4 -0.57
5 0.12
8 0.28
9 0.28

>  <PUBCHEM_EFFECTIVE_ROTOR_COUNT>  (1) 
1.2

>  <PUBCHEM_PHARMACOPHORE_FEATURES>  (1) 
4
1 3 acceptor
1 4 acceptor
5 1 5 6 8 10 rings
5 2 5 7 9 11 rings

>  <PUBCHEM_HEAVY_ATOM_COUNT>  (1) 
13

>  <PUBCHEM_ATOM_DEF_STEREO_COUNT>  (1) 
0

>  <PUBCHEM_ATOM_UDEF_STEREO_COUNT>  (1) 
2

>  <PUBCHEM_BOND_DEF_STEREO_COUNT>  (1) 
0

>  <PUBCHEM_BOND_UDEF_STEREO_COUNT>  (1) 
0

>  <PUBCHEM_ISOTOPIC_ATOM_COUNT>  (1) 
0

>  <PUBCHEM_COMPONENT_COUNT>  (1) 
1

>  <PUBCHEM_CACTVS_TAUTO_COUNT>  (1) 
1

>  <PUBCHEM_CONFORMER_ID>  (1) 
0000476200000002

>  <PUBCHEM_MMFF94_ENERGY>  (1) 
21.7137

>  <PUBCHEM_FEATURE_SELFOVERLAP>  (1) 
20.315

>  <PUBCHEM_SHAPE_FINGERPRINT>  (1) 
10219947 1 18409453553006995297
12138202 97 16056872550606372421
12423570 1 14275169027913324446
13024252 1 16370998543153367498
13839132 238 16701752531277454713
14993402 34 18410856572524691751
15375462 478 18260833670092695129
15775835 57 18339371867047677593
16945 1 18410855442948292642
17844478 74 15936407836074027221
207724 885 18334855030309728947
21040471 1 17917717911170792583
23402539 116 18260538997351344797
23559900 14 17203897358033229046
2748010 2 17906170655087264118
276578 36 17559977449509471843
29004967 10 17530962479749676000
3250762 1 17402048898784034996
369184 2 16988554706444236962
5084963 1 18335698390399039035
528886 8 18040710385607494896
63268167 104 18115303504888217164
68250623 7 17899433157355072395
77492 1 18410574032396091459

>  <PUBCHEM_SHAPE_MULTIPOLES>  (1) 
244.06
4.55
1.39
1.23
0
0
-0.01
0
-1.93
0
0.68
0
0
-0.5

>  <PUBCHEM_SHAPE_SELFOVERLAP>  (1) 
518.127

>  <PUBCHEM_SHAPE_VOLUME>  (1) 
140.6

>  <PUBCHEM_COORDINATE_TYPE>  (1) 
2
5
10

$$$$
