18270
     RDKit          3D

 31 34  0  0  1  0  0  0  0  0999 V2000
   -2.4274    3.8055    0.2066 Cl  0  0  0  0  0  0  0  0  0  0  0  0
    3.8865   -0.3765    1.2899 O   0  0  0  0  0  0  0  0  0  0  0  0
    5.9556   -0.4296   -1.2147 O   0  0  0  0  0  0  0  0  0  0  0  0
   -6.0117    0.1786    0.5009 O   0  0  0  0  0  0  0  0  0  0  0  0
    6.0304    0.4765    1.4068 O   0  0  0  0  0  0  0  0  0  0  0  0
   -6.8741   -1.7525    1.4305 O   0  0  0  0  0  0  0  0  0  0  0  0
    2.4664   -0.4226   -0.7380 C   0  0  0  0  0  0  0  0  0  0  0  0
    1.7075    0.8447   -0.2593 C   0  0  0  0  0  0  0  0  0  0  0  0
    0.2719    0.9062   -0.7999 C   0  0  0  0  0  0  0  0  0  0  0  0
   -0.4958   -0.3375   -0.2590 C   0  0  0  0  0  0  0  0  0  0  0  0
    3.8579   -0.1384   -0.1139 C   0  0  0  0  0  0  0  0  0  0  0  0
    1.7034   -1.6548   -0.2193 C   0  0  0  0  0  0  0  0  0  0  0  0
    2.6747    1.9785   -0.5915 C   0  0  0  0  0  0  0  0  0  0  0  0
   -2.0242   -0.2660   -0.6060 C   0  0  0  0  0  0  0  0  0  0  0  0
    0.2241   -1.6492   -0.6565 C   0  0  0  0  0  0  0  0  0  0  0  0
    4.0719    1.3748   -0.3432 C   0  0  0  0  0  0  0  0  0  0  0  0
    2.5930   -0.5197   -2.2858 C   0  0  0  0  0  0  0  0  0  0  0  0
   -0.4547    2.1792   -0.4562 C   0  0  0  0  0  0  0  0  0  0  0  0
   -2.5944    1.0331    0.0118 C   0  0  0  0  0  0  0  0  0  0  0  0
   -2.7421   -1.5166   -0.0161 C   0  0  0  0  0  0  0  0  0  0  0  0
    4.9912   -0.9544   -0.6600 C   0  0  0  0  0  0  0  0  0  0  0  0
   -2.2658   -0.2381   -2.1357 C   0  0  0  0  0  0  0  0  0  0  0  0
   -1.7467    2.2293   -0.0876 C   0  0  0  0  0  0  0  0  0  0  0  0
   -4.2577   -1.3651    0.0127 C   0  0  0  0  0  0  0  0  0  0  0  0
   -3.7804    1.0381    0.6562 C   0  0  0  0  0  0  0  0  0  0  0  0
   -4.6693   -0.1572    0.8435 C   0  0  0  0  0  0  0  0  0  0  0  0
    4.8923   -2.4467   -0.4939 C   0  0  0  0  0  0  0  0  0  0  0  0
    5.0408   -0.0197    1.9283 C   0  0  0  0  0  0  0  0  0  0  0  0
    4.9274   -0.3255    3.3911 C   0  0  0  0  0  0  0  0  0  0  0  0
   -6.9248   -0.8292    0.6292 C   0  0  0  0  0  0  0  0  0  0  0  0
   -8.0260   -0.6453   -0.3707 C   0  0  0  0  0  0  0  0  0  0  0  0
  1 23  1  0
  2 11  1  0
  2 28  1  0
  3 21  2  0
  4 26  1  0
  4 30  1  0
  5 28  2  0
  6 30  2  0
  7  8  1  0
  7 11  1  0
  7 12  1  0
  7 17  1  0
  8  9  1  0
  8 13  1  0
  9 10  1  0
  9 18  1  0
 10 14  1  0
 10 15  1  0
 11 16  1  0
 11 21  1  0
 12 15  1  0
 13 16  1  0
 14 19  1  0
 14 20  1  0
 14 22  1  0
 18 23  2  0
 19 23  1  0
 19 25  2  0
 20 24  1  0
 21 27  1  0
 24 26  1  0
 25 26  1  0
 28 29  1  0
 30 31  1  0
M  END
>  <PUBCHEM_COMPOUND_CID>  (1) 
18270

>  <PUBCHEM_CONFORMER_RMSD>  (1) 
0.8

>  <PUBCHEM_CONFORMER_DIVERSEORDER>  (1) 
1
69
56
61
45
15
66
73
13
31
71
4
30
80
18
42
81
29
83
76
43
75
20
55
41
14
36
70
62
48
67
6
54
65
28
59
82
39
35
5
87
74
10
38
51
16
47
86
57
9
25
53
26
12
22
32
37
63
33
68
23
7
85
58
72
2
79
60
44
40
84
27
77
17
49
64
11
52
19
78
21
8
3
50
46
34
24

>  <PUBCHEM_MMFF94_PARTIAL_CHARGES>  (1) 
22
1 -0.14
11 0.34
14 0.14
18 -0.29
19 -0.14
2 -0.43
21 0.45
23 0.14
25 -0.29
26 0.42
27 0.06
28 0.66
29 0.06
3 -0.57
30 0.66
31 0.06
4 -0.43
46 0.15
5 -0.57
54 0.15
6 -0.57
9 0.14

>  <PUBCHEM_EFFECTIVE_ROTOR_COUNT>  (1) 
6.6

>  <PUBCHEM_PHARMACOPHORE_FEATURES>  (1) 
7
1 3 acceptor
1 5 acceptor
1 6 acceptor
5 7 8 11 13 16 rings
6 14 19 20 24 25 26 rings
6 7 8 9 10 12 15 rings
6 9 10 14 18 19 23 rings

>  <PUBCHEM_HEAVY_ATOM_COUNT>  (1) 
31

>  <PUBCHEM_ATOM_DEF_STEREO_COUNT>  (1) 
4

>  <PUBCHEM_ATOM_UDEF_STEREO_COUNT>  (1) 
3

>  <PUBCHEM_BOND_DEF_STEREO_COUNT>  (1) 
0

>  <PUBCHEM_BOND_UDEF_STEREO_COUNT>  (1) 
0

>  <PUBCHEM_ISOTOPIC_ATOM_COUNT>  (1) 
0

>  <PUBCHEM_COMPONENT_COUNT>  (1) 
1

>  <PUBCHEM_CACTVS_TAUTO_COUNT>  (1) 
2

>  <PUBCHEM_CONFORMER_ID>  (1) 
0000475E00000001

>  <PUBCHEM_MMFF94_ENERGY>  (1) 
101.6894

>  <PUBCHEM_FEATURE_SELFOVERLAP>  (1) 
35.619

>  <PUBCHEM_SHAPE_FINGERPRINT>  (1) 
10 15 18341045302533846352
10165383 225 17703789263308748960
10319926 262 18196924484198970538
11578080 2 16915929855212840706
11646440 116 17989210351831633801
11719270 70 18410857655447949959
11796584 16 17022914479240904883
11963148 33 18334858342110498315
12236239 1 17676494917076288660
12403259 415 17917988344229774784
12422481 6 18271813375985501533
12516196 113 18412548734675100683
12596602 18 17894904119074335928
12788726 201 18334868211807447577
13140716 1 18193551392635472466
13224815 77 18271800216495766092
13540713 4 18056480543261337396
13782708 43 17846222085933681703
13862211 1 18412550929472058391
13914758 101 16226041159857788359
14028597 1 17894906288006336545
14178342 30 18264767649730042644
14341114 176 18342179951368081438
15131766 46 15265628872222826880
15183329 4 10737278052905963451
15475509 35 17023167337235332696
16728300 4 17387947829767697274
17349148 13 17821451240073932942
17492 89 18193841440019227094
1813 80 17603592923545846964
18608769 82 18342178877869149382
1979834 28 17918284155095033558
19841028 212 16299212546052408314
20028762 73 18411985766904396935
21033648 29 17774142527875944720
21130935 74 18131356280618594967
21267235 1 18339372902145027455
21307412 95 11891613451740417344
21792934 111 18341892970818544281
22122407 14 14907907114807112579
22149856 69 18200613440431444419
22182313 1 18058173829807026532
22956985 138 17681265569329046066
23559900 14 18126847102239306638
23569914 152 12760191392760057307
23569914 2 16195890248247176089
2747138 104 18411989074081124585
29717793 49 13406792216265244562
3004659 81 18041003955222679973
3383291 50 18336553811137500859
3411729 13 18193276523735870060
34797466 226 14692577645268465649
350125 39 18412271605398685572
3633792 109 15430034344476762776
3886686 26 17325186447575785578
397830 11 16271642420814356831
4258327 124 13254505535445101145
4340502 62 15410902846690917693
469060 322 18338251370589775009
474113 269 17532070757780600779
5104073 3 18200027318649348234
57724786 102 15697706087241899544
59682541 52 13912320162114848114
59755656 215 18334583416831702911

>  <PUBCHEM_SHAPE_MULTIPOLES>  (1) 
610.49
16.7
2.49
1.8
15.68
1.84
-1.02
-6.85
-6.62
1.09
0.19
-2.78
-0.32
0.7

>  <PUBCHEM_SHAPE_SELFOVERLAP>  (1) 
1299.94

>  <PUBCHEM_SHAPE_VOLUME>  (1) 
339.5

>  <PUBCHEM_COORDINATE_TYPE>  (1) 
2
5
10

$$$$
