18289
     RDKit          3D

 17 18  0  0  0  0  0  0  0  0999 V2000
   -0.4356   -2.2155    1.4318 O   0  0  0  0  0  0  0  0  0  0  0  0
    0.7061   -3.1049   -0.3020 O   0  0  0  0  0  0  0  0  0  0  0  0
    0.0598   -1.1841   -1.9601 N   0  0  0  0  0  0  0  0  0  0  0  0
    0.0073   -0.7510   -0.5219 C   0  0  0  0  0  0  0  0  0  0  0  0
   -1.2402   -0.0126   -0.1713 C   0  0  0  0  0  0  0  0  0  0  0  0
    1.2596    0.1326   -0.2207 C   0  0  0  0  0  0  0  0  0  0  0  0
    0.1186   -2.1477    0.1893 C   0  0  0  0  0  0  0  0  0  0  0  0
   -1.4515    0.4170    1.1389 C   0  0  0  0  0  0  0  0  0  0  0  0
    1.3603    1.3214   -0.8756 C   0  0  0  0  0  0  0  0  0  0  0  0
   -2.1954    0.2491   -1.1536 C   0  0  0  0  0  0  0  0  0  0  0  0
    2.1641   -0.3466    0.6765 C   0  0  0  0  0  0  0  0  0  0  0  0
   -2.6181    1.1078    1.4669 C   0  0  0  0  0  0  0  0  0  0  0  0
    2.4784    2.1107   -0.6066 C   0  0  0  0  0  0  0  0  0  0  0  0
   -3.3619    0.9400   -0.8256 C   0  0  0  0  0  0  0  0  0  0  0  0
    3.2822    0.4429    0.9455 C   0  0  0  0  0  0  0  0  0  0  0  0
   -3.5732    1.3694    0.4847 C   0  0  0  0  0  0  0  0  0  0  0  0
    3.4394    1.6715    0.3039 C   0  0  0  0  0  0  0  0  0  0  0  0
  1  7  1  0
  2  7  2  0
  3  4  1  0
  4  5  1  0
  4  6  1  0
  4  7  1  0
  5  8  2  0
  5 10  1  0
  6  9  2  0
  6 11  1  0
  8 12  1  0
  9 13  1  0
 10 14  2  0
 11 15  2  0
 12 16  2  0
 13 17  2  0
 14 16  1  0
 15 17  1  0
M  END
>  <PUBCHEM_COMPOUND_CID>  (1) 
18289

>  <PUBCHEM_CONFORMER_RMSD>  (1) 
0.6

>  <PUBCHEM_CONFORMER_DIVERSEORDER>  (1) 
1
2
3
6
5
4

>  <PUBCHEM_MMFF94_PARTIAL_CHARGES>  (1) 
30
1 -0.65
10 -0.15
11 -0.15
12 -0.15
13 -0.15
14 -0.15
15 -0.15
16 -0.15
17 -0.15
18 0.36
19 0.36
2 -0.57
20 0.15
21 0.15
22 0.15
23 0.15
24 0.15
25 0.15
26 0.15
27 0.15
28 0.15
29 0.15
3 -0.99
30 0.5
4 0.62
5 -0.14
6 -0.14
7 0.66
8 -0.15
9 -0.15

>  <PUBCHEM_EFFECTIVE_ROTOR_COUNT>  (1) 
3

>  <PUBCHEM_PHARMACOPHORE_FEATURES>  (1) 
7
1 1 acceptor
1 2 acceptor
1 3 cation
1 3 donor
3 1 2 7 anion
6 5 8 10 12 14 16 rings
6 6 9 11 13 15 17 rings

>  <PUBCHEM_HEAVY_ATOM_COUNT>  (1) 
17

>  <PUBCHEM_ATOM_DEF_STEREO_COUNT>  (1) 
0

>  <PUBCHEM_ATOM_UDEF_STEREO_COUNT>  (1) 
0

>  <PUBCHEM_BOND_DEF_STEREO_COUNT>  (1) 
0

>  <PUBCHEM_BOND_UDEF_STEREO_COUNT>  (1) 
0

>  <PUBCHEM_ISOTOPIC_ATOM_COUNT>  (1) 
0

>  <PUBCHEM_COMPONENT_COUNT>  (1) 
1

>  <PUBCHEM_CACTVS_TAUTO_COUNT>  (1) 
1

>  <PUBCHEM_CONFORMER_ID>  (1) 
0000477100000001

>  <PUBCHEM_MMFF94_ENERGY>  (1) 
63.6759

>  <PUBCHEM_FEATURE_SELFOVERLAP>  (1) 
35.582

>  <PUBCHEM_SHAPE_FINGERPRINT>  (1) 
10465860 228 18197784301743479281
11471102 22 17894625911987345280
11640471 11 17917146100731754569
12326174 3 18124320402279313351
12491281 212 17989487450294652688
12788726 201 17837758281736102678
13299463 15 14261357980726376460
13571099 52 18260827055980085797
13764800 53 18127708229427113416
14787075 74 18129101311308131051
14817 1 11089435937144793398
15309172 13 18333447651199910100
15490181 8 18410860983509209374
15775835 57 18201716253950521897
15906896 17 18126845129995334030
16945 1 18267020565939462054
1741750 31 18268429216882314184
1813 80 17338729153738699534
18186145 218 18341616996813926124
18981168 100 18054820474256400932
19765921 60 18131070416026396545
20510252 161 18053946435263025402
21524375 3 18272932734425089197
21731228 192 18334859449820514240
23184049 59 18261381214172291112
23402539 116 16773501240105555268
23419403 2 17265033506434255750
23557571 272 15912468255512984797
2748010 2 18265353822371024014
298252 57 17561358504400749702
305870 269 18341613663845334337
430814 3 18342450439422855399
4340502 62 18336272267466673457
474 4 18412829057957439721
5706482 22 18337381746684979579
6333272 397 18410015455072941897
6992083 37 18042396001526521292
7364860 26 18127411142275936495
74978 22 18265333000860300356
81228 2 17760096502431860386
8272917 22 18264204712772111109
9981440 41 17485905730742675512

>  <PUBCHEM_SHAPE_MULTIPOLES>  (1) 
333.13
5.34
2.45
1.41
0.49
1.74
-0.06
-4.15
0.85
-0.82
0.02
0.48
0.1
-0.32

>  <PUBCHEM_SHAPE_SELFOVERLAP>  (1) 
723.722

>  <PUBCHEM_SHAPE_VOLUME>  (1) 
179

>  <PUBCHEM_COORDINATE_TYPE>  (1) 
2
5
10

$$$$
