18296
     RDKit          3D

 26 29  0  0  0  0  0  0  0  0999 V2000
   -2.5948   -1.3808    1.0555 S   0  0  0  0  0  0  0  0  0  0  0  0
    1.8308   -1.0292    0.2592 S   0  0  0  0  0  0  0  0  0  0  0  0
   -3.0245    0.5806   -0.4473 N   0  0  0  0  0  0  0  0  0  0  0  0
    3.6419    0.9399    0.3752 N   0  0  0  0  0  0  0  0  0  0  0  0
   -4.2607   -0.0021   -0.2830 C   0  0  0  0  0  0  0  0  0  0  0  0
    4.3578   -0.2182    0.0157 C   0  0  0  0  0  0  0  0  0  0  0  0
   -2.0984   -0.0340    0.1876 C   0  0  0  0  0  0  0  0  0  0  0  0
    2.2810    0.6775    0.5439 C   0  0  0  0  0  0  0  0  0  0  0  0
   -2.8213    1.7630   -1.2582 C   0  0  0  0  0  0  0  0  0  0  0  0
    4.3351    2.2044    0.5281 C   0  0  0  0  0  0  0  0  0  0  0  0
   -4.2216   -1.1248    0.5345 C   0  0  0  0  0  0  0  0  0  0  0  0
    3.5528   -1.3743   -0.0952 C   0  0  0  0  0  0  0  0  0  0  0  0
   -0.1103    1.2279    1.0528 C   0  0  0  0  0  0  0  0  0  0  0  0
   -0.6906    0.3780    0.1800 C   0  0  0  0  0  0  0  0  0  0  0  0
    1.3069    1.5360    0.8845 C   0  0  0  0  0  0  0  0  0  0  0  0
   -5.4670    0.4357   -0.8482 C   0  0  0  0  0  0  0  0  0  0  0  0
    5.7238   -0.3237   -0.2294 C   0  0  0  0  0  0  0  0  0  0  0  0
   -5.3839   -1.8547    0.8202 C   0  0  0  0  0  0  0  0  0  0  0  0
    4.0810   -2.6104   -0.4411 C   0  0  0  0  0  0  0  0  0  0  0  0
   -2.5137    1.3504   -2.6838 C   0  0  0  0  0  0  0  0  0  0  0  0
    4.4133    2.9565   -0.7844 C   0  0  0  0  0  0  0  0  0  0  0  0
   -0.8378    1.8722    2.2065 C   0  0  0  0  0  0  0  0  0  0  0  0
   -6.6289   -0.2892   -0.5659 C   0  0  0  0  0  0  0  0  0  0  0  0
    6.2655   -1.5655   -0.5785 C   0  0  0  0  0  0  0  0  0  0  0  0
   -6.5867   -1.4158    0.2550 C   0  0  0  0  0  0  0  0  0  0  0  0
    5.4505   -2.6997   -0.6837 C   0  0  0  0  0  0  0  0  0  0  0  0
  1  7  1  0
  1 11  1  0
  2  8  1  0
  2 12  1  0
  3  5  1  0
  3  7  2  0
  3  9  1  0
  4  6  1  0
  4  8  1  0
  4 10  1  0
  5 11  2  0
  5 16  1  0
  6 12  2  0
  6 17  1  0
  7 14  1  0
  8 15  2  0
  9 20  1  0
 10 21  1  0
 11 18  1  0
 12 19  1  0
 13 14  2  0
 13 15  1  0
 13 22  1  0
 16 23  2  0
 17 24  2  0
 18 25  2  0
 19 26  2  0
 23 25  1  0
 24 26  1  0
M  CHG  1   3   1
M  END
>  <PUBCHEM_COMPOUND_CID>  (1) 
18296

>  <PUBCHEM_CONFORMER_RMSD>  (1) 
0.8

>  <PUBCHEM_CONFORMER_DIVERSEORDER>  (1) 
2
8
3
5
7
6
1
4

>  <PUBCHEM_MMFF94_PARTIAL_CHARGES>  (1) 
34
1 -0.08
10 0.37
11 0.04
12 0.1
13 -0.14
14 -0.11
15 -0.15
16 -0.15
17 -0.15
18 -0.15
19 -0.15
2 -0.2
22 0.14
23 -0.15
24 -0.15
25 -0.15
26 -0.15
3 -0.18
31 0.15
32 0.15
33 0.15
34 0.15
35 0.15
36 0.15
4 -0.57
46 0.15
47 0.15
48 0.15
49 0.15
5 0.33
6 0.1
7 0.33
8 0.2
9 0.51

>  <PUBCHEM_EFFECTIVE_ROTOR_COUNT>  (1) 
4.4

>  <PUBCHEM_PHARMACOPHORE_FEATURES>  (1) 
6
1 22 hydrophobe
1 4 cation
5 1 3 5 7 11 rings
5 2 4 6 8 12 rings
6 5 11 16 18 23 25 rings
6 6 12 17 19 24 26 rings

>  <PUBCHEM_HEAVY_ATOM_COUNT>  (1) 
26

>  <PUBCHEM_ATOM_DEF_STEREO_COUNT>  (1) 
0

>  <PUBCHEM_ATOM_UDEF_STEREO_COUNT>  (1) 
0

>  <PUBCHEM_BOND_DEF_STEREO_COUNT>  (1) 
0

>  <PUBCHEM_BOND_UDEF_STEREO_COUNT>  (1) 
2

>  <PUBCHEM_ISOTOPIC_ATOM_COUNT>  (1) 
0

>  <PUBCHEM_COMPONENT_COUNT>  (1) 
1

>  <PUBCHEM_CACTVS_TAUTO_COUNT>  (1) 
1

>  <PUBCHEM_CONFORMER_ID>  (1) 
0000477800000002

>  <PUBCHEM_MMFF94_ENERGY>  (1) 
91.1953

>  <PUBCHEM_FEATURE_SELFOVERLAP>  (1) 
30.585

>  <PUBCHEM_SHAPE_FINGERPRINT>  (1) 
10670039 82 15864350182418384014
10673678 19 17973171909257624308
10835480 77 18337387235870000801
11719270 70 18340483474315943032
12166972 35 18410015433587861196
12236239 1 16271926051906334953
12516196 113 17917990576905835426
12616971 3 17346871252290633796
12633257 1 14405175175296834074
12760667 363 18131352982003973523
12788726 201 17203342108112476129
13073987 5 18131353011615473561
13402501 40 18409450284579776059
13533116 47 18131070454702194752
13540713 5 18058471832551576424
13617811 41 16949999236464055927
13673619 4 18408606963729954705
13685833 64 18272933812509502738
13782708 43 18334010579726299019
13955234 65 18059286686631596136
14840074 17 16845287224442498575
14910302 57 18259979375185038759
15183329 4 18040432153194150635
15361156 5 18115316681963906407
15537594 2 17632012056449882404
15961568 22 17168708669176075452
17492 89 17843693166741374366
17844677 252 18410580569415846461
1813 80 16558755632495237776
18335252 98 18263368151816055731
19958102 18 18113612357431647671
20028762 73 17917431995473036526
20645477 70 18411417311271543072
21033650 10 17023467422031445332
21267235 1 18202571657370690414
21279426 13 18410006603467072153
21623969 137 18060139816875036742
21682296 61 18273219664527490375
22061861 79 18410572885771900247
221357 26 18409727344055150250
2215653 11 18411130338689454423
22393880 68 18114175290252308938
2297311 6 17967533472090672349
23522609 53 17772498856719145633
23557571 272 17967246494491164124
23559900 14 18335135405906570441
239999 70 18334293184848685810
24771750 20 17394740909242222757
25147074 1 17916602963620829776
2838139 119 8502375499330084523
3004659 81 18408321086264105306
312423 11 18059870428373854472
314194 84 17988922301296941755
329604 57 18342179951315294920
345986 75 16917073252104031561
34797466 226 17895194454051600093
351380 3 17346594158301819198
4073 2 18187650266226343027
4098825 35 18408604734104384045
437815 12 18411697691063481877
439807 62 18335422326791594643
46194498 28 18186519925819143084
465052 167 17989490731554792910
497634 4 18409733924372789941
5104073 3 17775286015446686832
5281201 14 18260829280884142484
54039377 194 17988649562816760518
59755656 215 18187081732863091139
6608658 132 15792005615819129413

>  <PUBCHEM_SHAPE_MULTIPOLES>  (1) 
532.8
17.08
2.8
1.45
4.17
0.13
0.31
-8.15
3.54
-3.73
0.19
1.15
0.85
1.95

>  <PUBCHEM_SHAPE_SELFOVERLAP>  (1) 
1133.931

>  <PUBCHEM_SHAPE_VOLUME>  (1) 
300.5

>  <PUBCHEM_COORDINATE_TYPE>  (1) 
2
5
10

$$$$
