18301
     RDKit          3D

 22 26  0  0  0  0  0  0  0  0999 V2000
    2.0132    2.8805    0.0027 O   0  0  0  0  0  0  0  0  0  0  0  0
   -4.7980    1.3641    0.0003 O   0  0  0  0  0  0  0  0  0  0  0  0
   -0.1745    0.0098   -0.0004 C   0  0  0  0  0  0  0  0  0  0  0  0
   -1.5672   -0.2788   -0.0004 C   0  0  0  0  0  0  0  0  0  0  0  0
    0.7760   -1.0444   -0.0002 C   0  0  0  0  0  0  0  0  0  0  0  0
    0.2173    1.3626   -0.0004 C   0  0  0  0  0  0  0  0  0  0  0  0
    2.2271   -0.7246   -0.0004 C   0  0  0  0  0  0  0  0  0  0  0  0
   -2.0042   -1.6132    0.0003 C   0  0  0  0  0  0  0  0  0  0  0  0
   -2.4998    0.7772   -0.0009 C   0  0  0  0  0  0  0  0  0  0  0  0
    2.6553    0.6172    0.0001 C   0  0  0  0  0  0  0  0  0  0  0  0
    1.6557    1.7089    0.0005 C   0  0  0  0  0  0  0  0  0  0  0  0
    0.2927   -2.3662    0.0003 C   0  0  0  0  0  0  0  0  0  0  0  0
   -0.7236    2.4003   -0.0009 C   0  0  0  0  0  0  0  0  0  0  0  0
   -1.0733   -2.6486    0.0007 C   0  0  0  0  0  0  0  0  0  0  0  0
   -2.0820    2.1081   -0.0012 C   0  0  0  0  0  0  0  0  0  0  0  0
   -3.4367   -1.9187    0.0009 C   0  0  0  0  0  0  0  0  0  0  0  0
   -3.9535    0.4773   -0.0005 C   0  0  0  0  0  0  0  0  0  0  0  0
    3.2357   -1.7084   -0.0005 C   0  0  0  0  0  0  0  0  0  0  0  0
    4.0173    0.9580    0.0002 C   0  0  0  0  0  0  0  0  0  0  0  0
   -4.3564   -0.9488    0.0006 C   0  0  0  0  0  0  0  0  0  0  0  0
    4.5942   -1.3723   -0.0006 C   0  0  0  0  0  0  0  0  0  0  0  0
    4.9846   -0.0401   -0.0003 C   0  0  0  0  0  0  0  0  0  0  0  0
  1 11  2  0
  2 17  2  0
  3  4  1  0
  3  5  1  0
  3  6  2  0
  4  8  1  0
  4  9  2  0
  5  7  1  0
  5 12  2  0
  6 11  1  0
  6 13  1  0
  7 10  2  0
  7 18  1  0
  8 14  2  0
  8 16  1  0
  9 15  1  0
  9 17  1  0
 10 11  1  0
 10 19  1  0
 12 14  1  0
 13 15  2  0
 16 20  2  0
 17 20  1  0
 18 21  2  0
 19 22  2  0
 21 22  1  0
M  END
>  <PUBCHEM_COMPOUND_CID>  (1) 
18301

>  <PUBCHEM_CONFORMER_RMSD>  (1) 
0.6

>  <PUBCHEM_CONFORMER_DIVERSEORDER>  (1) 
1

>  <PUBCHEM_MMFF94_PARTIAL_CHARGES>  (1) 
28
1 -0.57
10 0.09
11 0.4
12 -0.15
13 -0.15
14 -0.15
15 -0.15
16 -0.18
17 0.47
18 -0.15
19 -0.15
2 -0.57
20 -0.14
21 -0.15
22 -0.15
23 0.15
24 0.15
25 0.15
26 0.15
27 0.15
28 0.15
29 0.15
30 0.15
31 0.15
32 0.15
6 0.09
8 0.03
9 0.09

>  <PUBCHEM_EFFECTIVE_ROTOR_COUNT>  (1) 
0

>  <PUBCHEM_PHARMACOPHORE_FEATURES>  (1) 
7
1 1 acceptor
1 2 acceptor
6 3 4 5 8 12 14 rings
6 3 4 6 9 13 15 rings
6 3 5 6 7 10 11 rings
6 4 8 9 16 17 20 rings
6 7 10 18 19 21 22 rings

>  <PUBCHEM_HEAVY_ATOM_COUNT>  (1) 
22

>  <PUBCHEM_ATOM_DEF_STEREO_COUNT>  (1) 
0

>  <PUBCHEM_ATOM_UDEF_STEREO_COUNT>  (1) 
0

>  <PUBCHEM_BOND_DEF_STEREO_COUNT>  (1) 
0

>  <PUBCHEM_BOND_UDEF_STEREO_COUNT>  (1) 
0

>  <PUBCHEM_ISOTOPIC_ATOM_COUNT>  (1) 
0

>  <PUBCHEM_COMPONENT_COUNT>  (1) 
1

>  <PUBCHEM_CACTVS_TAUTO_COUNT>  (1) 
1

>  <PUBCHEM_CONFORMER_ID>  (1) 
0000477D00000001

>  <PUBCHEM_MMFF94_ENERGY>  (1) 
74.879

>  <PUBCHEM_FEATURE_SELFOVERLAP>  (1) 
35.66

>  <PUBCHEM_SHAPE_FINGERPRINT>  (1) 
10411042 1 17834114525755652843
10493431 412 18054799381899325161
10616163 171 18339927146236903174
10693767 8 17914030244215180871
10967382 1 18338798914093902598
1100329 8 18411702088698556081
11578080 2 16986579012798111258
12011746 2 18410573946533714556
12236239 1 17821730525076414430
12403259 226 18410569604327345053
12403814 3 17603583019583130325
12788726 201 17988095417129778800
12838862 33 18265876025890781656
13140716 1 18410864286781834097
13583140 156 14405189438841266167
13862211 1 18410568483325186447
14790565 3 18267311928116303393
15099037 51 18410572877229340927
15196674 1 18410575097553281542
15209289 33 18411136939568748779
15442244 35 18411136960885225746
15536298 74 18342457079753505416
16945 1 18338797797719014177
17492 89 18266177425184296954
17804303 29 18411984675865976940
1813 80 17385439947050418484
19591789 44 18338234972309374323
200 152 18060414725136284575
20028762 73 18130223873873495719
20510252 161 18343302531043638928
20775438 99 16474826839689564607
21029758 11 18342453733747303961
21267235 1 18338243755633552155
21279426 13 18338234838896148863
21421861 104 17897441683930418738
221490 88 18263932200996313594
2334 1 18266741466438297091
23366157 5 17969499501781528924
23402539 116 18342450439465229119
23559900 14 18342453764387152976
2748010 2 18338233885729718479
3004659 81 18260552187322725806
335352 9 18410573942233427133
34934 24 18410569609223510722
350125 39 18410296912854322713
3680242 22 18191588553509829002
4214541 1 18410855455833200999
5104073 3 18411136952295305090
59755656 215 18267588996635598526
69090 78 18412542102433472238
7364860 26 18269273646207549256
8809292 202 18334860532168149027
9709674 26 18339647835992515318

>  <PUBCHEM_SHAPE_MULTIPOLES>  (1) 
441.01
8.66
2.97
0.61
1.84
0.27
0
-0.74
0
-0.44
0
0.01
-0.02
0

>  <PUBCHEM_SHAPE_SELFOVERLAP>  (1) 
1033.738

>  <PUBCHEM_SHAPE_VOLUME>  (1) 
221.8

>  <PUBCHEM_COORDINATE_TYPE>  (1) 
2
5
10

$$$$
