18311
     RDKit          3D

 18 21  0  0  0  0  0  0  0  0999 V2000
   -1.5992   -2.8177    0.0009 O   0  0  0  0  0  0  0  0  0  0  0  0
   -0.3156    0.4348    0.0005 C   0  0  0  0  0  0  0  0  0  0  0  0
   -0.0829   -0.9475    0.0003 C   0  0  0  0  0  0  0  0  0  0  0  0
   -1.7423    0.6773    0.0002 C   0  0  0  0  0  0  0  0  0  0  0  0
   -2.4186   -0.5547   -0.0003 C   0  0  0  0  0  0  0  0  0  0  0  0
   -1.3978   -1.6234    0.0001 C   0  0  0  0  0  0  0  0  0  0  0  0
    0.7578    1.3082    0.0005 C   0  0  0  0  0  0  0  0  0  0  0  0
    2.0663    0.7846    0.0003 C   0  0  0  0  0  0  0  0  0  0  0  0
    2.2771   -0.6286    0.0001 C   0  0  0  0  0  0  0  0  0  0  0  0
    1.1802   -1.5039    0.0002 C   0  0  0  0  0  0  0  0  0  0  0  0
   -2.4681    1.8552    0.0008 C   0  0  0  0  0  0  0  0  0  0  0  0
   -3.7945   -0.6642   -0.0011 C   0  0  0  0  0  0  0  0  0  0  0  0
    3.1798    1.6385    0.0000 C   0  0  0  0  0  0  0  0  0  0  0  0
    3.5896   -1.1244   -0.0003 C   0  0  0  0  0  0  0  0  0  0  0  0
   -3.8662    1.7723    0.0001 C   0  0  0  0  0  0  0  0  0  0  0  0
   -4.5217    0.5260   -0.0011 C   0  0  0  0  0  0  0  0  0  0  0  0
    4.4760    1.1221   -0.0005 C   0  0  0  0  0  0  0  0  0  0  0  0
    4.6803   -0.2545   -0.0007 C   0  0  0  0  0  0  0  0  0  0  0  0
  1  6  2  0
  2  3  2  0
  2  4  1  0
  2  7  1  0
  3  6  1  0
  3 10  1  0
  4  5  2  0
  4 11  1  0
  5  6  1  0
  5 12  1  0
  7  8  2  0
  8  9  1  0
  8 13  1  0
  9 10  2  0
  9 14  1  0
 11 15  2  0
 12 16  2  0
 13 17  2  0
 14 18  2  0
 15 16  1  0
 17 18  1  0
M  END
>  <PUBCHEM_COMPOUND_CID>  (1) 
18311

>  <PUBCHEM_CONFORMER_RMSD>  (1) 
0.4

>  <PUBCHEM_CONFORMER_DIVERSEORDER>  (1) 
1

>  <PUBCHEM_MMFF94_PARTIAL_CHARGES>  (1) 
24
1 -0.57
10 -0.15
11 -0.15
12 -0.15
13 -0.15
14 -0.15
15 -0.15
16 -0.15
17 -0.15
18 -0.15
19 0.15
20 0.15
21 0.15
22 0.15
23 0.15
24 0.15
25 0.15
26 0.15
27 0.15
28 0.15
3 0.09
5 0.09
6 0.4
7 -0.15

>  <PUBCHEM_EFFECTIVE_ROTOR_COUNT>  (1) 
0

>  <PUBCHEM_PHARMACOPHORE_FEATURES>  (1) 
5
1 1 acceptor
5 2 3 4 5 6 rings
6 2 3 7 8 9 10 rings
6 4 5 11 12 15 16 rings
6 8 9 13 14 17 18 rings

>  <PUBCHEM_HEAVY_ATOM_COUNT>  (1) 
18

>  <PUBCHEM_ATOM_DEF_STEREO_COUNT>  (1) 
0

>  <PUBCHEM_ATOM_UDEF_STEREO_COUNT>  (1) 
0

>  <PUBCHEM_BOND_DEF_STEREO_COUNT>  (1) 
0

>  <PUBCHEM_BOND_UDEF_STEREO_COUNT>  (1) 
0

>  <PUBCHEM_ISOTOPIC_ATOM_COUNT>  (1) 
0

>  <PUBCHEM_COMPONENT_COUNT>  (1) 
1

>  <PUBCHEM_CACTVS_TAUTO_COUNT>  (1) 
1

>  <PUBCHEM_CONFORMER_ID>  (1) 
0000478700000001

>  <PUBCHEM_MMFF94_ENERGY>  (1) 
65.2101

>  <PUBCHEM_FEATURE_SELFOVERLAP>  (1) 
25.567

>  <PUBCHEM_SHAPE_FINGERPRINT>  (1) 
10411042 1 17617941777954102154
10608611 8 18412260670622777392
10616163 171 18339926033993503742
10646746 165 18411139134460625852
10967382 1 18410575050329720804
11132069 177 18410006663237970120
11471102 20 18411697669256147716
11578080 2 16843309357870039715
12173636 292 18410570661184634429
12236239 1 17822009822509824836
12251169 10 18408321094743120364
12390115 104 18200331917698922905
12403814 3 17748823012301844925
12500047 106 18412539933522343640
13140716 1 18050294966132612097
13380535 76 18413108346674392919
138480 1 17617940231723469699
14790565 3 18269000786893608193
14866123 147 16976756680881052882
15042514 8 18264776639524108051
15196674 1 18410856551055175204
15309172 13 18338525149068785211
15375358 24 18272370867109316710
15442244 35 18338233756975781586
15536298 74 18341895173561455092
16945 1 18338516451480552615
17804303 29 18411984684413765436
18186145 218 18339644425650994517
19591789 44 18336827468339321350
200 152 17917706903327810029
20510252 161 18271810094778330129
20645477 56 18409730681281915776
20645477 70 18272090448784446270
21267235 1 18410302410122129354
21501502 16 18338231669363264822
23227448 37 18339922713756489133
23402539 116 18343293769590027389
23402655 69 18271804596893065453
23463225 33 18408040710798950652
23558518 356 17827076521918775504
23559900 14 18343865490299254902
2748010 2 18337398119538116391
3004659 81 18262245413949901878
335352 9 18338516318637240734
34934 24 18410568505316675826
350125 39 18410859854566027601
3545911 37 18412547626199180328
4214541 1 18410855460212778692
474 4 17386293232762020932
495365 180 17417798574582640800
4990 188 18059863839714479468
5104073 3 18410012134725482834
69090 78 18412260636157401055
7364860 26 18268711606645016702
77779 3 18410576180011777088
7832392 63 18410290337401382132
9709674 26 18341900700968581190

>  <PUBCHEM_SHAPE_MULTIPOLES>  (1) 
364.56
8.8
2.17
0.61
2.04
0.51
0
-2.35
0
-0.69
0
0.01
-0.01
0

>  <PUBCHEM_SHAPE_SELFOVERLAP>  (1) 
845.129

>  <PUBCHEM_SHAPE_VOLUME>  (1) 
188.4

>  <PUBCHEM_COORDINATE_TYPE>  (1) 
2
5
10

$$$$
