18316
     RDKit          3D

 18 17  0  0  0  0  0  0  0  0999 V2000
    5.8494    0.4087   -0.0180 O   0  0  0  0  0  0  0  0  0  0  0  0
    7.2611   -1.4207   -0.0409 O   0  0  0  0  0  0  0  0  0  0  0  0
   -2.8938   -0.3728    0.0776 C   0  0  0  0  0  0  0  0  0  0  0  0
   -1.5933    0.4354    0.1054 C   0  0  0  0  0  0  0  0  0  0  0  0
   -4.1524    0.4992    0.0730 C   0  0  0  0  0  0  0  0  0  0  0  0
   -0.3349   -0.4352    0.0851 C   0  0  0  0  0  0  0  0  0  0  0  0
   -5.4185   -0.3605    0.0330 C   0  0  0  0  0  0  0  0  0  0  0  0
    0.9320    0.4233    0.0826 C   0  0  0  0  0  0  0  0  0  0  0  0
   -6.7109    0.4607   -0.0037 C   0  0  0  0  0  0  0  0  0  0  0  0
    2.1920   -0.4439    0.0961 C   0  0  0  0  0  0  0  0  0  0  0  0
   -8.0115   -0.3471   -0.0659 C   0  0  0  0  0  0  0  0  0  0  0  0
    3.4560    0.4120    0.0601 C   0  0  0  0  0  0  0  0  0  0  0  0
   -9.3027    0.4743   -0.0462 C   0  0  0  0  0  0  0  0  0  0  0  0
    4.7140   -0.4444    0.0300 C   0  0  0  0  0  0  0  0  0  0  0  0
  -10.5598   -0.3687   -0.1928 C   0  0  0  0  0  0  0  0  0  0  0  0
    7.0623   -0.2162   -0.0497 C   0  0  0  0  0  0  0  0  0  0  0  0
    8.1112    0.8234   -0.0951 C   0  0  0  0  0  0  0  0  0  0  0  0
    9.3998    0.4724   -0.1306 C   0  0  0  0  0  0  0  0  0  0  0  0
  1 14  1  0
  1 16  1  0
  2 16  2  0
  3  4  1  0
  3  5  1  0
  4  6  1  0
  5  7  1  0
  6  8  1  0
  7  9  1  0
  8 10  1  0
  9 11  1  0
 10 12  1  0
 11 13  1  0
 12 14  1  0
 13 15  1  0
 16 17  1  0
 17 18  2  0
M  END
>  <PUBCHEM_COMPOUND_CID>  (1) 
18316

>  <PUBCHEM_CONFORMER_RMSD>  (1) 
1.2

>  <PUBCHEM_CONFORMER_DIVERSEORDER>  (1) 
1
47
16
42
31
27
36
56
62
48
44
14
30
10
50
32
15
55
58
41
9
46
67
7
11
5
52
13
61
2
34
40
59
45
33
21
3
63
26
18
66
35
6
22
60
64
65
38
25
49
39
19
57
43
4
54
29
68
23
28
20
51
37
17
24
12
53
8

>  <PUBCHEM_MMFF94_PARTIAL_CHARGES>  (1) 
9
1 -0.43
14 0.28
16 0.71
17 -0.14
18 -0.3
2 -0.57
46 0.15
47 0.15
48 0.15

>  <PUBCHEM_EFFECTIVE_ROTOR_COUNT>  (1) 
14

>  <PUBCHEM_PHARMACOPHORE_FEATURES>  (1) 
3
1 15 hydrophobe
1 18 hydrophobe
1 2 acceptor

>  <PUBCHEM_HEAVY_ATOM_COUNT>  (1) 
18

>  <PUBCHEM_ATOM_DEF_STEREO_COUNT>  (1) 
0

>  <PUBCHEM_ATOM_UDEF_STEREO_COUNT>  (1) 
0

>  <PUBCHEM_BOND_DEF_STEREO_COUNT>  (1) 
0

>  <PUBCHEM_BOND_UDEF_STEREO_COUNT>  (1) 
0

>  <PUBCHEM_ISOTOPIC_ATOM_COUNT>  (1) 
0

>  <PUBCHEM_COMPONENT_COUNT>  (1) 
1

>  <PUBCHEM_CACTVS_TAUTO_COUNT>  (1) 
1

>  <PUBCHEM_CONFORMER_ID>  (1) 
0000478C00000001

>  <PUBCHEM_MMFF94_ENERGY>  (1) 
6.5491

>  <PUBCHEM_FEATURE_SELFOVERLAP>  (1) 
15.223

>  <PUBCHEM_SHAPE_FINGERPRINT>  (1) 
11315181 36 18343024398237156953
11638347 137 10015589406843991700
14123256 10 17748544840128480777
14251764 18 17846782888297498402
14251764 46 18410573989451693191
14251920 1 18410855460128161793
15510794 2 18260552220907225211
16120349 18 18334858355369186588
21362267 2 17968647341035770445
21362267 20 18410011070519423603
21362267 313 17823689781213085505
22224240 67 16588024623947948394
232437 2 18202282511835544855
23521765 1 18341895190345685353
23581129 1 18409449189051242561
246663 6 13614524064649828504
33684 2 18410573985151451137
67123 10 18410856568234998917
8209 1 18410575088963327465

>  <PUBCHEM_SHAPE_MULTIPOLES>  (1) 
358.69
39.05
0.88
0.61
19.48
0.08
0
-1.18
-2.73
-0.71
0
0.08
-0.01
-0.09

>  <PUBCHEM_SHAPE_SELFOVERLAP>  (1) 
656.347

>  <PUBCHEM_SHAPE_VOLUME>  (1) 
227.5

>  <PUBCHEM_COORDINATE_TYPE>  (1) 
2
5
10

$$$$
