18324
     RDKit          3D

 15 17  0  0  0  0  0  0  0  0999 V2000
    4.0601   -0.5017    0.1204 Cl  0  0  0  0  0  0  0  0  0  0  0  0
    1.8115    1.7828   -0.1862 N   0  0  0  0  0  0  0  0  0  0  0  0
   -2.8640   -0.2382    0.2041 N   0  0  0  0  0  0  0  0  0  0  0  0
    0.1172    0.3380   -0.0691 C   0  0  0  0  0  0  0  0  0  0  0  0
   -0.4081    1.6594   -0.1765 C   0  0  0  0  0  0  0  0  0  0  0  0
   -1.8555    1.9964   -0.1380 C   0  0  0  0  0  0  0  0  0  0  0  0
   -0.4773   -0.9368    0.0271 C   0  0  0  0  0  0  0  0  0  0  0  0
    1.5081    0.4478   -0.0480 C   0  0  0  0  0  0  0  0  0  0  0  0
   -2.6024    1.0610    0.8114 C   0  0  0  0  0  0  0  0  0  0  0  0
    0.6626    2.5231   -0.2622 C   0  0  0  0  0  0  0  0  0  0  0  0
   -1.9536   -1.0960   -0.0997 C   0  0  0  0  0  0  0  0  0  0  0  0
    0.3608   -2.0546    0.1782 C   0  0  0  0  0  0  0  0  0  0  0  0
    2.3506   -0.6586    0.0911 C   0  0  0  0  0  0  0  0  0  0  0  0
    1.7484   -1.9124    0.2134 C   0  0  0  0  0  0  0  0  0  0  0  0
   -2.4585   -2.4102   -0.6659 C   0  0  0  0  0  0  0  0  0  0  0  0
  1 13  1  0
  2  8  1  0
  2 10  1  0
  3  9  1  0
  3 11  2  0
  4  5  1  0
  4  7  1  0
  4  8  2  0
  5  6  1  0
  5 10  2  0
  6  9  1  0
  7 11  1  0
  7 12  2  0
  8 13  1  0
 11 15  1  0
 12 14  1  0
 13 14  2  0
M  END
>  <PUBCHEM_COMPOUND_CID>  (1) 
18324

>  <PUBCHEM_CONFORMER_RMSD>  (1) 
0.4

>  <PUBCHEM_CONFORMER_DIVERSEORDER>  (1) 
1
2

>  <PUBCHEM_MMFF94_PARTIAL_CHARGES>  (1) 
18
1 -0.18
10 -0.3
11 0.3
12 -0.15
13 0.18
14 -0.15
15 0.06
2 0.03
20 0.15
21 0.27
22 0.15
23 0.15
3 -0.7
5 -0.18
6 0.18
7 0.09
8 -0.15
9 0.25

>  <PUBCHEM_EFFECTIVE_ROTOR_COUNT>  (1) 
0.4

>  <PUBCHEM_PHARMACOPHORE_FEATURES>  (1) 
6
1 2 cation
1 2 donor
1 3 acceptor
5 2 4 5 8 10 rings
6 4 7 8 12 13 14 rings
7 3 4 5 6 7 9 11 rings

>  <PUBCHEM_HEAVY_ATOM_COUNT>  (1) 
15

>  <PUBCHEM_ATOM_DEF_STEREO_COUNT>  (1) 
0

>  <PUBCHEM_ATOM_UDEF_STEREO_COUNT>  (1) 
0

>  <PUBCHEM_BOND_DEF_STEREO_COUNT>  (1) 
0

>  <PUBCHEM_BOND_UDEF_STEREO_COUNT>  (1) 
0

>  <PUBCHEM_ISOTOPIC_ATOM_COUNT>  (1) 
0

>  <PUBCHEM_COMPONENT_COUNT>  (1) 
1

>  <PUBCHEM_CACTVS_TAUTO_COUNT>  (1) 
2

>  <PUBCHEM_CONFORMER_ID>  (1) 
0000479400000001

>  <PUBCHEM_MMFF94_ENERGY>  (1) 
39.4787

>  <PUBCHEM_FEATURE_SELFOVERLAP>  (1) 
30.582

>  <PUBCHEM_SHAPE_FINGERPRINT>  (1) 
10967382 1 18266178335711218434
11132069 177 18339356366979750162
11680986 33 17903074782800108714
12251169 10 18341338812024653513
12382932 28 18267302019552073664
12423570 1 17917437561259398334
13132413 78 18410578357702731596
13140716 1 18338521944611816873
13172582 1 18339648836587532825
14251711 518 18190737518852037363
14617773 55 18058176200971598257
16945 1 18410854317682698349
193761 8 18338517572271948508
20871998 184 18268431230757336581
21501502 16 18339083808002010308
2334 1 18193841680494567477
23388829 49 18338789125953222726
23419403 2 16829454347392015945
23463225 33 18334859364369457130
23552423 10 18264490757388062565
23559900 14 17187022315411589980
241688 4 18409725188039674593
2748010 2 18265329688828293117
2897 32 18193278717835696357
34934 24 18263075522535022592
5255222 1 18266169548435237520
528886 8 18338511937348572970
53812653 166 18341609253299004512
63268167 104 18337109089529374049
7364860 26 18126565854242085320

>  <PUBCHEM_SHAPE_MULTIPOLES>  (1) 
300.6
4.62
2.9
0.7
2.1
0.19
0.02
-0.99
0.34
-0.86
-0.36
-0.17
-0.02
-0.5

>  <PUBCHEM_SHAPE_SELFOVERLAP>  (1) 
658.476

>  <PUBCHEM_SHAPE_VOLUME>  (1) 
162.3

>  <PUBCHEM_COORDINATE_TYPE>  (1) 
2
5
10

$$$$
