18325
     RDKit          3D

 22 22  0  0  1  0  0  0  0  0999 V2000
   -3.8061   -2.7077    0.2731 Cl  0  0  0  0  0  0  0  0  0  0  0  0
   -4.3345    3.4857   -0.3041 Cl  0  0  0  0  0  0  0  0  0  0  0  0
   -6.6799    1.7424    1.0852 Cl  0  0  0  0  0  0  0  0  0  0  0  0
    4.2693   -0.4251   -0.1078 O   0  0  0  0  0  0  0  0  0  0  0  0
    1.6061   -1.1732    0.0565 O   0  0  0  0  0  0  0  0  0  0  0  0
   -1.7979   -0.8400   -0.9666 O   0  0  0  0  0  0  0  0  0  0  0  0
    0.1537   -2.6832   -0.9125 O   0  0  0  0  0  0  0  0  0  0  0  0
    3.8935   -1.5511    0.6737 C   0  0  0  0  0  0  0  0  0  0  0  0
    5.4640    1.6439   -0.2663 C   0  0  0  0  0  0  0  0  0  0  0  0
    5.0995    0.4652    0.6251 C   0  0  0  0  0  0  0  0  0  0  0  0
    6.3715    2.6364    0.4549 C   0  0  0  0  0  0  0  0  0  0  0  0
    2.6349   -2.1571    0.0657 C   0  0  0  0  0  0  0  0  0  0  0  0
    5.0422   -2.5482    0.6841 C   0  0  0  0  0  0  0  0  0  0  0  0
    6.7681    3.7898   -0.4525 C   0  0  0  0  0  0  0  0  0  0  0  0
    0.4052   -1.5726   -0.4647 C   0  0  0  0  0  0  0  0  0  0  0  0
   -0.5691   -0.4259   -0.4033 C   0  0  0  0  0  0  0  0  0  0  0  0
   -2.9390   -0.2444   -0.4859 C   0  0  0  0  0  0  0  0  0  0  0  0
   -3.9499   -0.9961    0.1129 C   0  0  0  0  0  0  0  0  0  0  0  0
   -3.0757    1.1385   -0.6055 C   0  0  0  0  0  0  0  0  0  0  0  0
   -4.2235    1.7697   -0.1263 C   0  0  0  0  0  0  0  0  0  0  0  0
   -5.0978   -0.3649    0.5919 C   0  0  0  0  0  0  0  0  0  0  0  0
   -5.2346    1.0181    0.4725 C   0  0  0  0  0  0  0  0  0  0  0  0
  1 18  1  0
  2 20  1  0
  3 22  1  0
  4  8  1  0
  4 10  1  0
  5 12  1  0
  5 15  1  0
  6 16  1  0
  6 17  1  0
  7 15  2  0
  8 12  1  0
  8 13  1  0
  9 10  1  0
  9 11  1  0
 11 14  1  0
 15 16  1  0
 17 18  2  0
 17 19  1  0
 18 21  1  0
 19 20  2  0
 20 22  1  0
 21 22  2  0
M  END
>  <PUBCHEM_COMPOUND_CID>  (1) 
18325

>  <PUBCHEM_CONFORMER_RMSD>  (1) 
1

>  <PUBCHEM_CONFORMER_DIVERSEORDER>  (1) 
1
37
63
116
84
4
115
25
123
72
82
11
93
80
7
112
13
182
74
95
9
108
192
157
152
166
78
190
22
124
140
107
43
69
67
135
18
31
24
159
122
81
70
144
14
170
183
89
59
50
32
148
143
117
187
150
109
177
15
73
156
185
120
41
2
155
36
33
87
171
178
139
100
158
76
111
68
83
35
141
46
103
160
65
149
165
97
98
189
142
60
47
105
125
146
147
85
119
90
133
92
75
106
39
110
23
175
17
114
188
61
127
86
91
71
42
30
58
53
52
62
6
132
134
130
145
38
118
51
12
168
45
8
184
161
193
57
94
186
40
64
126
136
99
88
174
79
96
26
131
191
101
180
151
121
19
137
29
154
28
48
113
16
5
10
162
164
153
129
104
3
54
167
55
169
173
56
77
21
181
66
138
176
49
163
128
179
172
34
102
44
27
20

>  <PUBCHEM_MMFF94_PARTIAL_CHARGES>  (1) 
20
1 -0.18
10 0.28
12 0.28
15 0.66
16 0.34
17 0.08
18 0.18
19 -0.15
2 -0.18
20 0.18
21 -0.15
22 0.18
3 -0.18
4 -0.56
40 0.15
41 0.15
5 -0.43
6 -0.36
7 -0.57
8 0.28

>  <PUBCHEM_EFFECTIVE_ROTOR_COUNT>  (1) 
10

>  <PUBCHEM_PHARMACOPHORE_FEATURES>  (1) 
5
1 14 hydrophobe
1 4 acceptor
1 6 acceptor
1 7 acceptor
6 17 18 19 20 21 22 rings

>  <PUBCHEM_HEAVY_ATOM_COUNT>  (1) 
22

>  <PUBCHEM_ATOM_DEF_STEREO_COUNT>  (1) 
0

>  <PUBCHEM_ATOM_UDEF_STEREO_COUNT>  (1) 
1

>  <PUBCHEM_BOND_DEF_STEREO_COUNT>  (1) 
0

>  <PUBCHEM_BOND_UDEF_STEREO_COUNT>  (1) 
0

>  <PUBCHEM_ISOTOPIC_ATOM_COUNT>  (1) 
0

>  <PUBCHEM_COMPONENT_COUNT>  (1) 
1

>  <PUBCHEM_CACTVS_TAUTO_COUNT>  (1) 
1

>  <PUBCHEM_CONFORMER_ID>  (1) 
0000479500000001

>  <PUBCHEM_MMFF94_ENERGY>  (1) 
44.6161

>  <PUBCHEM_FEATURE_SELFOVERLAP>  (1) 
25.38

>  <PUBCHEM_SHAPE_FINGERPRINT>  (1) 
10 15 18334300825495142123
10906281 52 17631745863736781921
11101153 10 18267860756569806661
12596602 18 18187646877723616643
13785724 45 17764587621655317866
14251764 75 18339643451479596524
14341114 176 18334580105295307771
14429114 114 18411975893101721880
14790565 3 18411980265282535222
15183329 4 10592040258698892398
15348495 7 18261112941614299514
16760501 71 18408888438179475869
17844677 252 18337957792189170386
20058555 10 18409728460905760316
21365058 113 17554907472698532446
21585482 111 18334011671075799844
23559900 14 17981325590740828679
23569943 247 10665234761621717573
245318 6 17678752356530817476
34797466 226 18059582360036697687
5104073 3 18187079555536166706
5364581 5 18334579074608814481
550186 72 18338794645181864469
5718773 13 8574438608069058056
636775 72 17837204145905373112
7808743 9 18341044242014605330
960060 61 12463568517594717466

>  <PUBCHEM_SHAPE_MULTIPOLES>  (1) 
434.88
19.4
4.31
0.89
15.21
2.29
0.04
16.7
4.38
4.14
-0.19
-0.3
-0.01
-0.96

>  <PUBCHEM_SHAPE_SELFOVERLAP>  (1) 
845.248

>  <PUBCHEM_SHAPE_VOLUME>  (1) 
265.2

>  <PUBCHEM_COORDINATE_TYPE>  (1) 
2
5
10

$$$$
