18323
     RDKit          3D

 17 18  0  0  1  0  0  0  0  0999 V2000
   -1.3594   -0.3954    0.9657 O   0  0  0  0  0  0  0  0  0  0  0  0
   -0.9445    0.2115   -1.9430 O   0  0  0  0  0  0  0  0  0  0  0  0
   -3.2116    2.0134    0.2036 O   0  0  0  0  0  0  0  0  0  0  0  0
   -2.9401   -2.6768    0.7245 O   0  0  0  0  0  0  0  0  0  0  0  0
    1.6604    2.3699    0.6957 O   0  0  0  0  0  0  0  0  0  0  0  0
    4.5914   -1.0534   -0.2713 O   0  0  0  0  0  0  0  0  0  0  0  0
    0.7731    0.2559    0.2435 N   0  0  0  0  0  0  0  0  0  0  0  0
    3.1183    0.6640    0.2132 N   0  0  0  0  0  0  0  0  0  0  0  0
   -1.2791    1.0887   -0.8739 C   0  0  0  0  0  0  0  0  0  0  0  0
   -2.7354    0.8784   -0.5162 C   0  0  0  0  0  0  0  0  0  0  0  0
   -0.5848    0.6780    0.4154 C   0  0  0  0  0  0  0  0  0  0  0  0
   -2.6996   -0.3169    0.4378 C   0  0  0  0  0  0  0  0  0  0  0  0
   -3.0110   -1.6427   -0.2420 C   0  0  0  0  0  0  0  0  0  0  0  0
    1.8314    1.1839    0.4054 C   0  0  0  0  0  0  0  0  0  0  0  0
    1.0566   -1.0673   -0.0831 C   0  0  0  0  0  0  0  0  0  0  0  0
    2.2885   -1.5481   -0.2630 C   0  0  0  0  0  0  0  0  0  0  0  0
    3.4457   -0.6431   -0.1124 C   0  0  0  0  0  0  0  0  0  0  0  0
  1 11  1  0
  1 12  1  0
  2  9  1  0
  3 10  1  0
  4 13  1  0
  5 14  2  0
  6 17  2  0
  7 11  1  0
  7 14  1  0
  7 15  1  0
  8 14  1  0
  8 17  1  0
  9 10  1  0
  9 11  1  0
 10 12  1  0
 12 13  1  0
 15 16  2  0
 16 17  1  0
M  END
>  <PUBCHEM_COMPOUND_CID>  (1) 
18323

>  <PUBCHEM_CONFORMER_RMSD>  (1) 
0.6

>  <PUBCHEM_CONFORMER_DIVERSEORDER>  (1) 
1
10
8
9
2
6
4
5
7
3

>  <PUBCHEM_MMFF94_PARTIAL_CHARGES>  (1) 
23
1 -0.56
10 0.28
11 0.58
12 0.28
13 0.28
14 0.69
15 -0.04
16 -0.14
17 0.62
2 -0.68
24 0.4
25 0.4
26 0.15
27 0.4
28 0.37
29 0.15
3 -0.68
4 -0.68
5 -0.57
6 -0.57
7 -0.47
8 -0.49
9 0.28

>  <PUBCHEM_EFFECTIVE_ROTOR_COUNT>  (1) 
3

>  <PUBCHEM_PHARMACOPHORE_FEATURES>  (1) 
12
1 1 acceptor
1 2 acceptor
1 2 donor
1 3 acceptor
1 3 donor
1 4 acceptor
1 4 donor
1 5 acceptor
1 6 acceptor
1 8 donor
5 1 9 10 11 12 rings
6 7 8 14 15 16 17 rings

>  <PUBCHEM_HEAVY_ATOM_COUNT>  (1) 
17

>  <PUBCHEM_ATOM_DEF_STEREO_COUNT>  (1) 
4

>  <PUBCHEM_ATOM_UDEF_STEREO_COUNT>  (1) 
0

>  <PUBCHEM_BOND_DEF_STEREO_COUNT>  (1) 
0

>  <PUBCHEM_BOND_UDEF_STEREO_COUNT>  (1) 
0

>  <PUBCHEM_ISOTOPIC_ATOM_COUNT>  (1) 
0

>  <PUBCHEM_COMPONENT_COUNT>  (1) 
1

>  <PUBCHEM_CACTVS_TAUTO_COUNT>  (1) 
3

>  <PUBCHEM_CONFORMER_ID>  (1) 
0000479300000001

>  <PUBCHEM_MMFF94_ENERGY>  (1) 
45.1711

>  <PUBCHEM_FEATURE_SELFOVERLAP>  (1) 
60.906

>  <PUBCHEM_SHAPE_FINGERPRINT>  (1) 
10608611 8 18411132549970065872
12032990 46 18343306938197217854
12500047 106 18262796259756678245
12932764 1 17531518802510628192
13214271 11 18272646818863410822
13296908 3 18272084994138653944
14115302 16 18262530182026863780
14965852 173 18410293605570846513
15219456 202 18410852187437156288
15375462 6 18195527214756331309
15775835 57 17895476903790513290
16945 1 18263914450086571481
17834074 16 18410011052409800915
18175812 5 18409166627489971799
200 152 17917983993084850359
20201158 50 18338516331195159570
21501502 16 18335143119541395668
221490 88 18339084903482453970
23402539 116 16515686615732254830
23559900 14 18338508746209204817
25 1 18121212087155013557
2748010 2 18339349876825515620
2871803 45 18262510515619931123
3286 77 18337950190149420860
3312278 4 18341615863074175482
5104073 3 18413106160899751146
5493415 88 18413107264632472986
69090 78 18337387146128770501
74978 22 18411696556596030017
81228 2 17967815002796547337
8809292 202 18407763629178437466
93112 12 18411133619522144649
9709674 26 18342177756534765991

>  <PUBCHEM_SHAPE_MULTIPOLES>  (1) 
304.67
6.5
2.18
0.97
3.26
0.26
0.31
1.81
-0.01
-1.01
-0.38
-0.39
-0.07
0.73

>  <PUBCHEM_SHAPE_SELFOVERLAP>  (1) 
642.14

>  <PUBCHEM_SHAPE_VOLUME>  (1) 
171

>  <PUBCHEM_COORDINATE_TYPE>  (1) 
2
5
10

$$$$
