18334
     RDKit          3D

 15 15  0  0  0  0  0  0  0  0999 V2000
   -2.6461   -0.0175    0.4002 O   0  0  0  0  0  0  0  0  0  0  0  0
   -1.2097   -2.3641    0.0882 O   0  0  0  0  0  0  0  0  0  0  0  0
   -1.3122    2.4088    0.4656 O   0  0  0  0  0  0  0  0  0  0  0  0
    3.6223   -0.8764   -0.2586 O   0  0  0  0  0  0  0  0  0  0  0  0
    3.5361    1.3921   -0.0540 N   0  0  0  0  0  0  0  0  0  0  0  0
   -1.2885    0.0215    0.2804 C   0  0  0  0  0  0  0  0  0  0  0  0
   -0.5681   -1.1626    0.1229 C   0  0  0  0  0  0  0  0  0  0  0  0
   -0.6199    1.2453    0.3142 C   0  0  0  0  0  0  0  0  0  0  0  0
    1.4892    0.1006    0.0332 C   0  0  0  0  0  0  0  0  0  0  0  0
    0.8207   -1.1231   -0.0006 C   0  0  0  0  0  0  0  0  0  0  0  0
    0.7690    1.2848    0.1906 C   0  0  0  0  0  0  0  0  0  0  0  0
    2.9374    0.1418   -0.0961 C   0  0  0  0  0  0  0  0  0  0  0  0
   -3.3754   -0.5837   -0.6861 C   0  0  0  0  0  0  0  0  0  0  0  0
   -0.4000   -3.5266   -0.0758 C   0  0  0  0  0  0  0  0  0  0  0  0
   -1.7548    3.0590   -0.7241 C   0  0  0  0  0  0  0  0  0  0  0  0
  1  6  1  0
  1 13  1  0
  2  7  1  0
  2 14  1  0
  3  8  1  0
  3 15  1  0
  4 12  2  0
  5 12  1  0
  6  7  2  0
  6  8  1  0
  7 10  1  0
  8 11  2  0
  9 10  2  0
  9 11  1  0
  9 12  1  0
M  END
>  <PUBCHEM_COMPOUND_CID>  (1) 
18334

>  <PUBCHEM_CONFORMER_RMSD>  (1) 
0.6

>  <PUBCHEM_CONFORMER_DIVERSEORDER>  (1) 
4
3
1
2

>  <PUBCHEM_MMFF94_PARTIAL_CHARGES>  (1) 
19
1 -0.36
10 -0.15
11 -0.15
12 0.54
13 0.28
14 0.28
15 0.28
16 0.15
17 0.15
2 -0.36
27 0.37
28 0.37
3 -0.36
4 -0.57
5 -0.8
6 0.08
7 0.08
8 0.08
9 0.09

>  <PUBCHEM_EFFECTIVE_ROTOR_COUNT>  (1) 
4

>  <PUBCHEM_PHARMACOPHORE_FEATURES>  (1) 
6
1 1 acceptor
1 2 acceptor
1 3 acceptor
1 4 acceptor
1 5 donor
6 6 7 8 9 10 11 rings

>  <PUBCHEM_HEAVY_ATOM_COUNT>  (1) 
15

>  <PUBCHEM_ATOM_DEF_STEREO_COUNT>  (1) 
0

>  <PUBCHEM_ATOM_UDEF_STEREO_COUNT>  (1) 
0

>  <PUBCHEM_BOND_DEF_STEREO_COUNT>  (1) 
0

>  <PUBCHEM_BOND_UDEF_STEREO_COUNT>  (1) 
0

>  <PUBCHEM_ISOTOPIC_ATOM_COUNT>  (1) 
0

>  <PUBCHEM_COMPONENT_COUNT>  (1) 
1

>  <PUBCHEM_CACTVS_TAUTO_COUNT>  (1) 
2

>  <PUBCHEM_CONFORMER_ID>  (1) 
0000479E00000004

>  <PUBCHEM_MMFF94_ENERGY>  (1) 
73.7534

>  <PUBCHEM_FEATURE_SELFOVERLAP>  (1) 
30.457

>  <PUBCHEM_SHAPE_FINGERPRINT>  (1) 
1 1 17905610999595532076
10756046 5 17835509432680331967
10967382 1 18267304411833065538
11206711 2 18410857620576216549
11680986 33 17693369353976982819
12423570 1 17324908271112670409
13140716 1 18123189266833405680
13380535 76 17975129842680646889
14614273 12 18190462649714349949
15042514 8 18337393854420015290
16945 1 18410296938518157312
193761 8 17906734696289633811
20510252 161 18271806796127480288
20511035 2 17554329502953442199
20588541 1 18270969053955139050
20871998 184 18129673039573766958
21501502 16 18048311142018214577
2334 1 17834958955048193674
23402539 116 18342729736914489815
23526114 1 17978793402592495494
23557571 272 17982468271548178548
23559900 14 18270400620309870456
2748010 2 18194691353974916486
3071541 12 17330277165101003448
353137 74 18408316679316500873
43471831 8 18264769857032165531
54173680 148 18266743669567135682
589210 1 17906732497340179279
7364860 26 17619068326342042314
81228 2 18339926025297684536

>  <PUBCHEM_SHAPE_MULTIPOLES>  (1) 
280.23
4.64
3.39
0.7
2.81
0.91
0.04
-0.79
0.75
-1.74
0.31
-0.2
-0.12
0.11

>  <PUBCHEM_SHAPE_SELFOVERLAP>  (1) 
582.597

>  <PUBCHEM_SHAPE_VOLUME>  (1) 
161.2

>  <PUBCHEM_COORDINATE_TYPE>  (1) 
2
5
10

$$$$
