18343
     RDKit          3D

 17 18  0  0  1  0  0  0  0  0999 V2000
    2.7792    2.3138    0.3405 F   0  0  0  0  0  0  0  0  0  0  0  0
   -1.5028    0.7843   -1.1401 O   0  0  0  0  0  0  0  0  0  0  0  0
   -1.9890   -1.8418    1.2529 O   0  0  0  0  0  0  0  0  0  0  0  0
   -3.9471   -0.7258   -0.2829 O   0  0  0  0  0  0  0  0  0  0  0  0
    0.7521   -2.6257   -0.5182 O   0  0  0  0  0  0  0  0  0  0  0  0
    4.3775    0.1153    0.2844 O   0  0  0  0  0  0  0  0  0  0  0  0
    0.3695   -0.3302   -0.2934 N   0  0  0  0  0  0  0  0  0  0  0  0
    2.5562   -1.2609   -0.1197 N   0  0  0  0  0  0  0  0  0  0  0  0
   -1.8116   -0.5080    0.8220 C   0  0  0  0  0  0  0  0  0  0  0  0
   -3.1233    0.1624    0.4720 C   0  0  0  0  0  0  0  0  0  0  0  0
   -1.0499   -0.4138   -0.4888 C   0  0  0  0  0  0  0  0  0  0  0  0
   -2.6714    1.2838   -0.4535 C   0  0  0  0  0  0  0  0  0  0  0  0
   -2.2789    2.5548    0.2878 C   0  0  0  0  0  0  0  0  0  0  0  0
    1.1862   -1.4878   -0.3257 C   0  0  0  0  0  0  0  0  0  0  0  0
    0.9373    0.9189   -0.0687 C   0  0  0  0  0  0  0  0  0  0  0  0
    2.2423    1.0994    0.1235 C   0  0  0  0  0  0  0  0  0  0  0  0
    3.1738   -0.0386    0.1081 C   0  0  0  0  0  0  0  0  0  0  0  0
  1 16  1  0
  2 11  1  0
  2 12  1  0
  3  9  1  0
  4 10  1  0
  5 14  2  0
  6 17  2  0
  7 11  1  0
  7 14  1  0
  7 15  1  0
  8 14  1  0
  8 17  1  0
  9 10  1  0
  9 11  1  0
 10 12  1  0
 12 13  1  0
 15 16  2  0
 16 17  1  0
M  END
>  <PUBCHEM_COMPOUND_CID>  (1) 
18343

>  <PUBCHEM_CONFORMER_RMSD>  (1) 
0.6

>  <PUBCHEM_CONFORMER_DIVERSEORDER>  (1) 
1
8
6
4
9
2
7
10
3
5

>  <PUBCHEM_MMFF94_PARTIAL_CHARGES>  (1) 
20
1 -0.15
10 0.28
11 0.58
12 0.28
14 0.69
15 -0.04
16 0.16
17 0.62
2 -0.56
25 0.4
26 0.4
27 0.15
28 0.37
3 -0.68
4 -0.68
5 -0.57
6 -0.57
7 -0.47
8 -0.49
9 0.28

>  <PUBCHEM_EFFECTIVE_ROTOR_COUNT>  (1) 
2

>  <PUBCHEM_PHARMACOPHORE_FEATURES>  (1) 
10
1 2 acceptor
1 3 acceptor
1 3 donor
1 4 acceptor
1 4 donor
1 5 acceptor
1 6 acceptor
1 8 donor
5 2 9 10 11 12 rings
6 7 8 14 15 16 17 rings

>  <PUBCHEM_HEAVY_ATOM_COUNT>  (1) 
17

>  <PUBCHEM_ATOM_DEF_STEREO_COUNT>  (1) 
4

>  <PUBCHEM_ATOM_UDEF_STEREO_COUNT>  (1) 
0

>  <PUBCHEM_BOND_DEF_STEREO_COUNT>  (1) 
0

>  <PUBCHEM_BOND_UDEF_STEREO_COUNT>  (1) 
0

>  <PUBCHEM_ISOTOPIC_ATOM_COUNT>  (1) 
0

>  <PUBCHEM_COMPONENT_COUNT>  (1) 
1

>  <PUBCHEM_CACTVS_TAUTO_COUNT>  (1) 
3

>  <PUBCHEM_CONFORMER_ID>  (1) 
000047A700000001

>  <PUBCHEM_MMFF94_ENERGY>  (1) 
43.5508

>  <PUBCHEM_FEATURE_SELFOVERLAP>  (1) 
50.761

>  <PUBCHEM_SHAPE_FINGERPRINT>  (1) 
10366900 7 18336271222761063138
10608611 8 18409728426455805429
11471102 20 18340763728567081380
11471102 22 18409176510362746154
12251169 10 18259705609679847122
13294875 104 17103939449607250281
13380535 76 18408039593849237659
14026960 21 18265337394184407256
14144814 61 18339360764562219392
14648413 74 18267024955417182929
15219456 202 18337392625879396743
15309172 13 18342461473236147270
15442244 35 17908987599635451656
15775835 57 17917429873214989341
16945 1 18336281088569999711
17802600 8 18412539924885150672
18175812 5 18187929537779010494
18186145 218 17917717907107797404
19049666 15 18191876612861158539
200 152 18201425987760773389
20201158 50 18408887312982245555
20510252 161 18409451345673705041
20528008 55 18259982699737671511
21501502 16 18336829667457269111
21524375 3 18130223864982087662
23402539 116 18334286587705052951
23559900 14 18338230453819065218
25 1 18194118516948920020
2748010 2 18410575132187521612
69090 78 18409445899692161627
7364860 26 18198345048273195774
81228 2 17895494578240202491
8809292 202 18189904119092079738
9709674 26 18410579461435700855

>  <PUBCHEM_SHAPE_MULTIPOLES>  (1) 
303.27
6.24
2.31
0.84
1.79
0.21
0.04
1.1
0.58
-0.09
0.14
-0.4
-0.13
0.52

>  <PUBCHEM_SHAPE_SELFOVERLAP>  (1) 
643.126

>  <PUBCHEM_SHAPE_VOLUME>  (1) 
170.5

>  <PUBCHEM_COORDINATE_TYPE>  (1) 
2
5
10

$$$$
