18349
     RDKit          3D

 22 22  0  0  0  0  0  0  0  0999 V2000
    2.0998   -0.0935   -1.4244 O   0  0  0  0  0  0  0  0  0  0  0  0
   -4.7216   -0.8397   -0.2468 O   0  0  0  0  0  0  0  0  0  0  0  0
   -5.0644    1.4143    0.0708 O   0  0  0  0  0  0  0  0  0  0  0  0
    4.5967   -0.3796   -0.2857 N   0  0  0  0  0  0  0  0  0  0  0  0
    1.2974    0.7098    0.6306 N   0  0  0  0  0  0  0  0  0  0  0  0
    3.6592    0.5859    0.2868 C   0  0  0  0  0  0  0  0  0  0  0  0
    5.9492   -0.1374    0.2152 C   0  0  0  0  0  0  0  0  0  0  0  0
    4.1748   -1.7457    0.0217 C   0  0  0  0  0  0  0  0  0  0  0  0
   -0.1073    0.6418    0.4719 C   0  0  0  0  0  0  0  0  0  0  0  0
   -0.7789   -0.5160    0.8348 C   0  0  0  0  0  0  0  0  0  0  0  0
   -0.7884    1.7346   -0.0434 C   0  0  0  0  0  0  0  0  0  0  0  0
    2.2757    0.3530   -0.2952 C   0  0  0  0  0  0  0  0  0  0  0  0
   -2.1634   -0.5828    0.6788 C   0  0  0  0  0  0  0  0  0  0  0  0
   -2.1730    1.6680   -0.1993 C   0  0  0  0  0  0  0  0  0  0  0  0
   -2.8604    0.5093    0.1618 C   0  0  0  0  0  0  0  0  0  0  0  0
    6.4278    1.2578   -0.1489 C   0  0  0  0  0  0  0  0  0  0  0  0
    5.1381   -2.7631   -0.5658 C   0  0  0  0  0  0  0  0  0  0  0  0
   -0.0599   -1.7021    1.3916 C   0  0  0  0  0  0  0  0  0  0  0  0
   -0.0799    2.9895   -0.4396 C   0  0  0  0  0  0  0  0  0  0  0  0
   -4.3039    0.4399   -0.0013 C   0  0  0  0  0  0  0  0  0  0  0  0
   -6.1279   -1.0378   -0.4275 C   0  0  0  0  0  0  0  0  0  0  0  0
   -6.3898   -2.5063   -0.6860 C   0  0  0  0  0  0  0  0  0  0  0  0
  1 12  2  0
  2 20  1  0
  2 21  1  0
  3 20  2  0
  4  6  1  0
  4  7  1  0
  4  8  1  0
  5  9  1  0
  5 12  1  0
  6 12  1  0
  7 16  1  0
  8 17  1  0
  9 10  2  0
  9 11  1  0
 10 13  1  0
 10 18  1  0
 11 14  2  0
 11 19  1  0
 13 15  2  0
 14 15  1  0
 15 20  1  0
 21 22  1  0
M  END
>  <PUBCHEM_COMPOUND_CID>  (1) 
18349

>  <PUBCHEM_CONFORMER_RMSD>  (1) 
0.8

>  <PUBCHEM_CONFORMER_DIVERSEORDER>  (1) 
1
26
13
25
8
24
23
5
27
4
10
17
9
22
28
11
2
30
7
15
16
3
6
21
12
18
29
14
19
20

>  <PUBCHEM_MMFF94_PARTIAL_CHARGES>  (1) 
22
1 -0.57
10 -0.14
11 -0.14
12 0.57
13 -0.15
14 -0.15
15 0.09
18 0.14
19 0.14
2 -0.43
20 0.63
21 0.28
29 0.37
3 -0.57
30 0.15
31 0.15
4 -0.81
5 -0.55
6 0.33
7 0.27
8 0.27
9 0.12

>  <PUBCHEM_EFFECTIVE_ROTOR_COUNT>  (1) 
9

>  <PUBCHEM_PHARMACOPHORE_FEATURES>  (1) 
5
1 1 acceptor
1 3 acceptor
1 4 cation
1 5 donor
6 9 10 11 13 14 15 rings

>  <PUBCHEM_HEAVY_ATOM_COUNT>  (1) 
22

>  <PUBCHEM_ATOM_DEF_STEREO_COUNT>  (1) 
0

>  <PUBCHEM_ATOM_UDEF_STEREO_COUNT>  (1) 
0

>  <PUBCHEM_BOND_DEF_STEREO_COUNT>  (1) 
0

>  <PUBCHEM_BOND_UDEF_STEREO_COUNT>  (1) 
0

>  <PUBCHEM_ISOTOPIC_ATOM_COUNT>  (1) 
0

>  <PUBCHEM_COMPONENT_COUNT>  (1) 
1

>  <PUBCHEM_CACTVS_TAUTO_COUNT>  (1) 
3

>  <PUBCHEM_CONFORMER_ID>  (1) 
000047AD00000001

>  <PUBCHEM_MMFF94_ENERGY>  (1) 
73.2458

>  <PUBCHEM_FEATURE_SELFOVERLAP>  (1) 
25.371

>  <PUBCHEM_SHAPE_FINGERPRINT>  (1) 
10 15 10663821914695790495
10595046 47 18412829083964633184
10693767 8 18339348743492888919
10906281 52 18265075616181196468
12236239 1 17095521786343364752
12516196 113 18413670223112927984
13533116 47 18335703789711325178
13668630 136 17632304437155757366
13862211 1 18333726922942677363
14251732 16 18272650177438275856
14347332 77 18117271459103717466
14790565 3 17401487044438723105
15048467 5 7997977872987396399
15183329 4 16587743127127317718
15196674 1 18337674105483319120
17492 89 18197216950007872238
18335252 98 18411703218074657146
200 152 17989205927878103544
20567600 247 18131345332720558015
20645477 70 18199753553629914222
21150785 3 17968093170010168839
21267235 1 18335984277161951891
21637258 2 17418083335304434167
23402539 116 18409164394128382149
23522609 53 18126598723448239952
23559900 14 18334860558734843072
283562 15 18261672571552823577
2838139 119 14345785059508273527
3004659 81 18187931626077485410
3009799 131 17676482869434735781
351380 180 18410013213194945732
465052 167 17775005674568344366
5104073 3 17775003440626058288
5718773 13 18341048498290941726
59755656 215 18043251245194415455
9709674 26 18335431136565772578

>  <PUBCHEM_SHAPE_MULTIPOLES>  (1) 
425.18
15.58
2.61
0.92
0.36
0.29
-0.05
7.7
3.31
-0.16
0.46
0.01
0.26
-0.21

>  <PUBCHEM_SHAPE_SELFOVERLAP>  (1) 
859.809

>  <PUBCHEM_SHAPE_VOLUME>  (1) 
251.2

>  <PUBCHEM_COORDINATE_TYPE>  (1) 
2
5
10

$$$$
