18346
     RDKit          3D

 25 26  0  0  1  0  0  0  0  0999 V2000
   -2.1167   -0.2231   -1.3550 O   0  0  0  0  0  0  0  0  0  0  0  0
    5.1316   -0.0336   -0.0357 O   0  0  0  0  0  0  0  0  0  0  0  0
    4.5934    2.1293   -0.6114 O   0  0  0  0  0  0  0  0  0  0  0  0
   -4.5294   -0.3867   -0.1696 N   0  0  0  0  0  0  0  0  0  0  0  0
   -1.0750   -0.5891    0.7164 N   0  0  0  0  0  0  0  0  0  0  0  0
   -4.3954    1.0645    0.0191 C   0  0  0  0  0  0  0  0  0  0  0  0
   -5.8168   -0.8729    0.3462 C   0  0  0  0  0  0  0  0  0  0  0  0
   -5.5201    1.8197   -0.6910 C   0  0  0  0  0  0  0  0  0  0  0  0
   -6.9879   -0.1812   -0.3530 C   0  0  0  0  0  0  0  0  0  0  0  0
   -6.8901    1.3353   -0.2303 C   0  0  0  0  0  0  0  0  0  0  0  0
   -3.4212   -1.0910    0.4750 C   0  0  0  0  0  0  0  0  0  0  0  0
   -3.5934   -2.5947    0.2952 C   0  0  0  0  0  0  0  0  0  0  0  0
   -2.1391   -0.5855   -0.1821 C   0  0  0  0  0  0  0  0  0  0  0  0
    0.2614   -0.1918    0.4737 C   0  0  0  0  0  0  0  0  0  0  0  0
    0.6297    1.1280    0.6881 C   0  0  0  0  0  0  0  0  0  0  0  0
    1.1804   -1.1292    0.0261 C   0  0  0  0  0  0  0  0  0  0  0  0
    1.9470    1.5195    0.4492 C   0  0  0  0  0  0  0  0  0  0  0  0
    2.4978   -0.7378   -0.2128 C   0  0  0  0  0  0  0  0  0  0  0  0
    2.8810    0.5864   -0.0012 C   0  0  0  0  0  0  0  0  0  0  0  0
   -0.3481    2.1502    1.1704 C   0  0  0  0  0  0  0  0  0  0  0  0
    0.8000   -2.5551   -0.2103 C   0  0  0  0  0  0  0  0  0  0  0  0
    4.2546    0.9944   -0.2507 C   0  0  0  0  0  0  0  0  0  0  0  0
    6.5197    0.2454   -0.2478 C   0  0  0  0  0  0  0  0  0  0  0  0
    7.3237   -1.0132    0.0408 C   0  0  0  0  0  0  0  0  0  0  0  0
    8.8130   -0.7879   -0.1494 C   0  0  0  0  0  0  0  0  0  0  0  0
  1 13  2  0
  2 22  1  0
  2 23  1  0
  3 22  2  0
  4  6  1  0
  4  7  1  0
  4 11  1  0
  5 13  1  0
  5 14  1  0
  6  8  1  0
  7  9  1  0
  8 10  1  0
  9 10  1  0
 11 12  1  0
 11 13  1  0
 14 15  2  0
 14 16  1  0
 15 17  1  0
 15 20  1  0
 16 18  2  0
 16 21  1  0
 17 19  2  0
 18 19  1  0
 19 22  1  0
 23 24  1  0
 24 25  1  0
M  END
>  <PUBCHEM_COMPOUND_CID>  (1) 
18346

>  <PUBCHEM_CONFORMER_RMSD>  (1) 
1

>  <PUBCHEM_CONFORMER_DIVERSEORDER>  (1) 
2
23
26
18
29
21
27
4
15
17
25
22
24
30
20
10
12
13
9
14
8
19
7
16
5
6
11
31
1
28
3

>  <PUBCHEM_MMFF94_PARTIAL_CHARGES>  (1) 
22
1 -0.57
11 0.33
13 0.57
14 0.12
15 -0.14
16 -0.14
17 -0.15
18 -0.15
19 0.09
2 -0.43
20 0.14
21 0.14
22 0.63
23 0.28
3 -0.57
4 -0.81
40 0.37
41 0.15
42 0.15
5 -0.55
6 0.27
7 0.27

>  <PUBCHEM_EFFECTIVE_ROTOR_COUNT>  (1) 
9.2

>  <PUBCHEM_PHARMACOPHORE_FEATURES>  (1) 
7
1 1 acceptor
1 25 hydrophobe
1 3 acceptor
1 4 cation
1 5 donor
6 14 15 16 17 18 19 rings
6 4 6 7 8 9 10 rings

>  <PUBCHEM_HEAVY_ATOM_COUNT>  (1) 
25

>  <PUBCHEM_ATOM_DEF_STEREO_COUNT>  (1) 
0

>  <PUBCHEM_ATOM_UDEF_STEREO_COUNT>  (1) 
1

>  <PUBCHEM_BOND_DEF_STEREO_COUNT>  (1) 
0

>  <PUBCHEM_BOND_UDEF_STEREO_COUNT>  (1) 
0

>  <PUBCHEM_ISOTOPIC_ATOM_COUNT>  (1) 
0

>  <PUBCHEM_COMPONENT_COUNT>  (1) 
1

>  <PUBCHEM_CACTVS_TAUTO_COUNT>  (1) 
3

>  <PUBCHEM_CONFORMER_ID>  (1) 
000047AA00000002

>  <PUBCHEM_MMFF94_ENERGY>  (1) 
73.3832

>  <PUBCHEM_FEATURE_SELFOVERLAP>  (1) 
35.52

>  <PUBCHEM_SHAPE_FINGERPRINT>  (1) 
10165383 225 18187362096080971469
106641 1 9583513218342831132
10670039 82 18261668195640583781
10730089 173 18335701629089658549
11089746 13 16845852399452710241
11315181 36 17560804350714424027
11408170 108 16343436003349614318
11578080 2 13552629321550235428
11719270 70 18272932705104558566
12166972 35 18114185276405057588
12516196 113 9511465524046472750
12788726 201 17917149382387287329
13862211 1 18272373113757215354
13885169 127 18409166597599429732
13914758 101 18114462276009670600
14251752 14 18410012130731428792
14251764 18 17822005398456328322
15183329 4 18334011679095073512
16087824 20 18269558235432013721
18006028 8 17346880044326150008
18608769 82 18335425729492324899
18681886 176 18341888619341232528
19611394 137 17678192675310518313
21150785 3 16487251076031886813
21267235 1 18413393150224111481
21315763 28 18335984250627081711
21709351 56 18340762749704791775
21792934 111 18201710761668493760
21792961 116 18411141320493491251
22224240 67 13183016316183838132
23402539 116 18201437000062259838
23559900 14 18342171176438633673
28498 318 18411982438974083830
3004659 81 18333730226300074528
3009799 131 17704069599132851600
335352 9 18411702102005223846
3545911 37 18411699903034683113
4073 2 17822016466523967810
4098825 35 18113616768378540860
4325135 7 18113899351198240621
5758199 1 11818991876930133188
59682541 35 10015574000901562638
59755656 215 18341335505174421510
59755656 520 17240199954395286835
6138700 20 18411140225725314402

>  <PUBCHEM_SHAPE_MULTIPOLES>  (1) 
486.92
20.7
2.23
0.84
17
0.28
-0.01
-0.04
3.28
-0.99
-0.15
-0.29
-0.16
0.45

>  <PUBCHEM_SHAPE_SELFOVERLAP>  (1) 
999.812

>  <PUBCHEM_SHAPE_VOLUME>  (1) 
282

>  <PUBCHEM_COORDINATE_TYPE>  (1) 
2
5
10

$$$$
