18359
     RDKit          3D

 20 20  0  0  0  0  0  0  0  0999 V2000
   -2.9338    3.3284    0.6705 Cl  0  0  0  0  0  0  0  0  0  0  0  0
   -0.0710   -1.0753   -0.3714 O   0  0  0  0  0  0  0  0  0  0  0  0
    4.9716   -0.2462   -0.1508 N   0  0  0  0  0  0  0  0  0  0  0  0
   -1.0607    0.9967    0.1223 N   0  0  0  0  0  0  0  0  0  0  0  0
    3.8438    0.6531    0.0620 C   0  0  0  0  0  0  0  0  0  0  0  0
    2.5258   -0.1015   -0.0990 C   0  0  0  0  0  0  0  0  0  0  0  0
    4.9451   -1.3442    0.8172 C   0  0  0  0  0  0  0  0  0  0  0  0
    6.2375    0.4830   -0.0565 C   0  0  0  0  0  0  0  0  0  0  0  0
    1.3293    0.8249    0.1119 C   0  0  0  0  0  0  0  0  0  0  0  0
   -0.0034    0.1140   -0.0798 C   0  0  0  0  0  0  0  0  0  0  0  0
    6.0773   -2.3256    0.5654 C   0  0  0  0  0  0  0  0  0  0  0  0
    6.2869    1.6284   -1.0534 C   0  0  0  0  0  0  0  0  0  0  0  0
   -2.4455    0.7183    0.0357 C   0  0  0  0  0  0  0  0  0  0  0  0
   -4.1870   -0.8829   -0.3776 C   0  0  0  0  0  0  0  0  0  0  0  0
   -2.8296   -0.5749   -0.2859 C   0  0  0  0  0  0  0  0  0  0  0  0
   -4.6155   -2.2691   -0.7222 C   0  0  0  0  0  0  0  0  0  0  0  0
   -3.3855    1.7101    0.2676 C   0  0  0  0  0  0  0  0  0  0  0  0
   -5.1436    0.1055   -0.1467 C   0  0  0  0  0  0  0  0  0  0  0  0
   -4.7428    1.4021    0.1758 C   0  0  0  0  0  0  0  0  0  0  0  0
   -4.7989   -3.1447    0.5147 C   0  0  0  0  0  0  0  0  0  0  0  0
  1 17  1  0
  2 10  2  0
  3  5  1  0
  3  7  1  0
  3  8  1  0
  4 10  1  0
  4 13  1  0
  5  6  1  0
  6  9  1  0
  7 11  1  0
  8 12  1  0
  9 10  1  0
 13 15  2  0
 13 17  1  0
 14 15  1  0
 14 16  1  0
 14 18  2  0
 16 20  1  0
 17 19  2  0
 18 19  1  0
M  END
>  <PUBCHEM_COMPOUND_CID>  (1) 
18359

>  <PUBCHEM_CONFORMER_RMSD>  (1) 
0.8

>  <PUBCHEM_CONFORMER_DIVERSEORDER>  (1) 
1
3
32
130
244
167
46
253
102
177
242
215
211
247
256
174
87
245
98
200
255
182
44
97
188
138
180
204
238
210
199
29
246
184
202
239
168
55
233
254
173
81
40
194
219
150
258
117
228
100
249
206
90
259
124
197
111
115
160
237
123
192
137
39
153
93
172
190
222
99
221
164
53
114
52
189
227
170
11
229
89
257
121
72
101
58
116
225
213
241
203
240
120
24
61
74
62
110
69
207
64
143
140
30
65
176
43
37
34
122
161
76
68
243
84
181
224
165
4
78
166
105
56
50
156
209
178
251
18
234
83
159
88
2
75
157
13
195
236
14
133
169
226
103
112
187
54
128
66
136
33
60
186
193
82
119
216
79
15
231
198
106
5
217
175
191
25
48
91
59
214
223
21
141
94
23
67
146
135
113
144
151
27
129
86
171
179
70
77
118
85
155
16
132
42
80
63
22
92
71
185
235
201
147
183
35
31
36
104
158
162
96
134
252
7
109
57
127
163
45
230
10
205
73
38
19
208
8
220
108
51
196
95
17
250
152
47
9
41
28
49
154
218
125
20
232
149
12
142
148
212
131
6
145
26
107
126
139
248

>  <PUBCHEM_MMFF94_PARTIAL_CHARGES>  (1) 
20
1 -0.18
10 0.57
13 0.12
14 -0.14
15 -0.15
16 0.14
17 0.18
18 -0.15
19 -0.15
2 -0.57
3 -0.81
37 0.37
38 0.15
4 -0.55
41 0.15
42 0.15
5 0.27
7 0.27
8 0.27
9 0.06

>  <PUBCHEM_EFFECTIVE_ROTOR_COUNT>  (1) 
9

>  <PUBCHEM_PHARMACOPHORE_FEATURES>  (1) 
5
1 2 acceptor
1 20 hydrophobe
1 3 cation
1 4 donor
6 13 14 15 17 18 19 rings

>  <PUBCHEM_HEAVY_ATOM_COUNT>  (1) 
20

>  <PUBCHEM_ATOM_DEF_STEREO_COUNT>  (1) 
0

>  <PUBCHEM_ATOM_UDEF_STEREO_COUNT>  (1) 
0

>  <PUBCHEM_BOND_DEF_STEREO_COUNT>  (1) 
0

>  <PUBCHEM_BOND_UDEF_STEREO_COUNT>  (1) 
0

>  <PUBCHEM_ISOTOPIC_ATOM_COUNT>  (1) 
0

>  <PUBCHEM_COMPONENT_COUNT>  (1) 
1

>  <PUBCHEM_CACTVS_TAUTO_COUNT>  (1) 
2

>  <PUBCHEM_CONFORMER_ID>  (1) 
000047B700000001

>  <PUBCHEM_MMFF94_ENERGY>  (1) 
40.7266

>  <PUBCHEM_FEATURE_SELFOVERLAP>  (1) 
25.371

>  <PUBCHEM_SHAPE_FINGERPRINT>  (1) 
10411042 1 18125157389212474327
10595046 47 18408606989547510580
10912923 1 18261109656443995464
11315181 36 18334295400461109493
11524674 6 16487254387483626679
12107183 9 17689151215098308584
12236239 1 18261111855045244588
12596602 18 18333730234636749434
12616971 3 17676498241301971549
13073987 5 18411979166039958840
13167823 11 18410007724200536658
13288520 33 18341049713971524775
13533116 47 18334856083526230618
13631057 29 18339077198448437395
14211702 104 18411423899499076758
14251732 16 18339079406129926356
14461889 52 18337946926697021530
14528608 73 18335424586703618956
15183329 4 18411139100354036514
15250474 111 18335409145822008074
17834072 33 18407759235917218000
17844677 252 18413393129203338824
17857418 61 18334570222828968826
18927931 339 18202284740749440159
21236236 1 18411701006477625547
21267235 1 18340208604909249471
220451 1 18410017628357957616
2297311 6 18131075956455366061
2303208 19 17131841975534252236
23081809 10 18259706696934398396
23402539 116 18409444795711194637
23522609 53 18195274219982840176
23536379 177 18409166580741320608
23559900 14 18340475764348889417
335352 9 18341327869402849997
4073 2 18113904896528742106
4214541 1 18340485573605631425
497634 4 18333448746469377141
5104073 3 18201718474474598680
5109719 28 17914048970441338128
531348 171 17677882440610482559
559249 180 18338229376262211351
59755656 520 17095526176263814555
6327066 14 18047467821518404533
67856867 119 18336549433737455940
7062679 117 18409731798126224735
7495541 125 17989200482334287168

>  <PUBCHEM_SHAPE_MULTIPOLES>  (1) 
397.63
17.58
3.01
0.81
22.52
0.41
0.02
4.49
0.56
-3.49
-0.59
0.3
0.01
-1.84

>  <PUBCHEM_SHAPE_SELFOVERLAP>  (1) 
783.701

>  <PUBCHEM_SHAPE_VOLUME>  (1) 
239.6

>  <PUBCHEM_COORDINATE_TYPE>  (1) 
2
5
10

$$$$
