18358
     RDKit          3D

  8  8  0  0  0  0  0  0  0  0999 V2000
   -2.9660   -0.0308    0.8146 Cl  0  0  0  0  0  0  0  0  0  0  0  0
    1.5032   -1.2125    0.1199 N   0  0  0  0  0  0  0  0  0  0  0  0
   -0.5295    0.0147   -0.3350 C   0  0  0  0  0  0  0  0  0  0  0  0
    0.1500    1.2163   -0.1683 C   0  0  0  0  0  0  0  0  0  0  0  0
   -1.9795   -0.0062   -0.6661 C   0  0  0  0  0  0  0  0  0  0  0  0
    0.1865   -1.1617   -0.1818 C   0  0  0  0  0  0  0  0  0  0  0  0
    1.5053    1.2049    0.1423 C   0  0  0  0  0  0  0  0  0  0  0  0
    2.1300   -0.0247    0.2745 C   0  0  0  0  0  0  0  0  0  0  0  0
  1  5  1  0
  2  6  2  0
  2  8  1  0
  3  4  2  0
  3  5  1  0
  3  6  1  0
  4  7  1  0
  7  8  2  0
M  END
>  <PUBCHEM_COMPOUND_CID>  (1) 
18358

>  <PUBCHEM_CONFORMER_RMSD>  (1) 
0.4

>  <PUBCHEM_CONFORMER_DIVERSEORDER>  (1) 
1
4
3
2

>  <PUBCHEM_MMFF94_PARTIAL_CHARGES>  (1) 
12
1 -0.29
12 0.15
13 0.15
14 0.15
2 -0.62
3 -0.14
4 -0.15
5 0.43
6 0.16
7 -0.15
8 0.16
9 0.15

>  <PUBCHEM_EFFECTIVE_ROTOR_COUNT>  (1) 
1

>  <PUBCHEM_PHARMACOPHORE_FEATURES>  (1) 
2
1 2 acceptor
6 2 3 4 6 7 8 rings

>  <PUBCHEM_HEAVY_ATOM_COUNT>  (1) 
8

>  <PUBCHEM_ATOM_DEF_STEREO_COUNT>  (1) 
0

>  <PUBCHEM_ATOM_UDEF_STEREO_COUNT>  (1) 
0

>  <PUBCHEM_BOND_DEF_STEREO_COUNT>  (1) 
0

>  <PUBCHEM_BOND_UDEF_STEREO_COUNT>  (1) 
0

>  <PUBCHEM_ISOTOPIC_ATOM_COUNT>  (1) 
0

>  <PUBCHEM_COMPONENT_COUNT>  (1) 
1

>  <PUBCHEM_CACTVS_TAUTO_COUNT>  (1) 
1

>  <PUBCHEM_CONFORMER_ID>  (1) 
000047B600000001

>  <PUBCHEM_MMFF94_ENERGY>  (1) 
16.5536

>  <PUBCHEM_FEATURE_SELFOVERLAP>  (1) 
10.148

>  <PUBCHEM_SHAPE_FINGERPRINT>  (1) 
10857977 72 17676204710415175721
21040471 1 18194957676444280388
29004967 10 18260546705941830865
5084963 1 18271230737870164933

>  <PUBCHEM_SHAPE_MULTIPOLES>  (1) 
161.52
3.46
1.3
0.8
2.07
0.01
0.03
-0.04
0.84
-0.57
-0.01
0.36
-0.01
-0.01

>  <PUBCHEM_SHAPE_SELFOVERLAP>  (1) 
319.936

>  <PUBCHEM_SHAPE_VOLUME>  (1) 
97.1

>  <PUBCHEM_COORDINATE_TYPE>  (1) 
2
5
10

$$$$
