18356
     RDKit          3D

 17 19  0  0  0  0  0  0  0  0999 V2000
    0.8309   -2.7331    0.0006 O   0  0  0  0  0  0  0  0  0  0  0  0
   -4.6879    0.9432    0.0012 O   0  0  0  0  0  0  0  0  0  0  0  0
   -4.3260   -1.2263    0.0001 O   0  0  0  0  0  0  0  0  0  0  0  0
   -3.9129   -0.0424    0.0006 N   0  0  0  0  0  0  0  0  0  0  0  0
    0.2226    0.7128   -0.0001 C   0  0  0  0  0  0  0  0  0  0  0  0
    1.6688    0.6642   -0.0001 C   0  0  0  0  0  0  0  0  0  0  0  0
   -0.2827   -0.5988    0.0000 C   0  0  0  0  0  0  0  0  0  0  0  0
    2.0849   -0.6785   -0.0005 C   0  0  0  0  0  0  0  0  0  0  0  0
    0.8713   -1.5225   -0.0004 C   0  0  0  0  0  0  0  0  0  0  0  0
   -0.6543    1.7830   -0.0007 C   0  0  0  0  0  0  0  0  0  0  0  0
   -1.6317   -0.8911   -0.0004 C   0  0  0  0  0  0  0  0  0  0  0  0
    2.6156    1.6731    0.0006 C   0  0  0  0  0  0  0  0  0  0  0  0
    3.4111   -1.0609   -0.0003 C   0  0  0  0  0  0  0  0  0  0  0  0
   -2.5117    0.1912   -0.0006 C   0  0  0  0  0  0  0  0  0  0  0  0
   -2.0289    1.5140   -0.0010 C   0  0  0  0  0  0  0  0  0  0  0  0
    3.9689    1.3123    0.0009 C   0  0  0  0  0  0  0  0  0  0  0  0
    4.3619   -0.0401    0.0002 C   0  0  0  0  0  0  0  0  0  0  0  0
  1  9  2  0
  2  4  1  0
  3  4  2  0
  4 14  1  0
  5  6  1  0
  5  7  2  0
  5 10  1  0
  6  8  2  0
  6 12  1  0
  7  9  1  0
  7 11  1  0
  8  9  1  0
  8 13  1  0
 10 15  2  0
 11 14  2  0
 12 16  2  0
 13 17  2  0
 14 15  1  0
 16 17  1  0
M  CHG  2   2  -1   4   1
M  END
>  <PUBCHEM_COMPOUND_CID>  (1) 
18356

>  <PUBCHEM_CONFORMER_RMSD>  (1) 
0.6

>  <PUBCHEM_CONFORMER_DIVERSEORDER>  (1) 
1

>  <PUBCHEM_MMFF94_PARTIAL_CHARGES>  (1) 
22
1 -0.57
10 -0.15
11 -0.15
12 -0.15
13 -0.15
14 0.13
15 -0.15
16 -0.15
17 -0.15
18 0.15
19 0.15
2 -0.52
20 0.15
21 0.15
22 0.15
23 0.15
24 0.15
3 -0.52
4 0.91
7 0.09
8 0.09
9 0.4

>  <PUBCHEM_EFFECTIVE_ROTOR_COUNT>  (1) 
1

>  <PUBCHEM_PHARMACOPHORE_FEATURES>  (1) 
7
1 1 acceptor
1 2 acceptor
1 2 anion
1 3 acceptor
5 5 6 7 8 9 rings
6 5 7 10 11 14 15 rings
6 6 8 12 13 16 17 rings

>  <PUBCHEM_HEAVY_ATOM_COUNT>  (1) 
17

>  <PUBCHEM_ATOM_DEF_STEREO_COUNT>  (1) 
0

>  <PUBCHEM_ATOM_UDEF_STEREO_COUNT>  (1) 
0

>  <PUBCHEM_BOND_DEF_STEREO_COUNT>  (1) 
0

>  <PUBCHEM_BOND_UDEF_STEREO_COUNT>  (1) 
0

>  <PUBCHEM_ISOTOPIC_ATOM_COUNT>  (1) 
0

>  <PUBCHEM_COMPONENT_COUNT>  (1) 
1

>  <PUBCHEM_CACTVS_TAUTO_COUNT>  (1) 
1

>  <PUBCHEM_CONFORMER_ID>  (1) 
000047B400000001

>  <PUBCHEM_MMFF94_ENERGY>  (1) 
61.8606

>  <PUBCHEM_FEATURE_SELFOVERLAP>  (1) 
35.771

>  <PUBCHEM_SHAPE_FINGERPRINT>  (1) 
10608611 8 18336542711923350061
10967382 1 18410575089364260582
11132069 177 18411695512839719320
11471102 20 18410852144418768620
11578080 2 16735788923259624014
11806522 49 18410855494746376111
12032990 46 18410859858185228917
12403259 226 18336821992704580860
13140716 1 18338228379545066354
13221675 6 18412543197618380335
13380535 76 18408324388788208482
13862211 1 18410849984061131874
14178342 30 17979907216751199688
15196674 1 18410855473050038917
15230672 131 13506979252735061363
15375358 24 18260830384648162603
15442244 35 17979637831680022538
15536298 74 18343021082010798524
16945 1 18266740177853156260
17802600 8 18410289199135068736
17862501 102 18337102389496463050
18186145 218 18411135827393784916
19591789 44 18339923817600520295
200 152 18202277001097007485
20510252 161 18272370854182561376
20645477 70 18270960150830982151
21267235 1 18411146826462287774
21421861 104 17825949221873622499
21501502 16 18193839240953169512
21524375 3 18411982472864369090
221490 88 18337962185872311314
22854114 111 18408041805836250052
2334 1 18194683898006837514
23402539 116 18342449370028636092
23402655 69 18341889663139753917
23463225 33 18335700525061205516
23559900 14 18339637816065733882
2748010 2 18265903629893246550
2871803 45 18408600336247205431
335352 9 18338798884029170934
34934 24 18410568449645488407
350125 39 18409730647513267972
4072396 5 18262783091270904338
43471831 8 18335416820959921994
474229 33 18410291453787118818
4990 188 17988934365965363716
5104073 3 18410575076152318545
528886 8 18411132567386928682
537710 114 18410579521464970780
69090 78 18342173397084548326
7364860 26 18269557131012767574
8809292 202 18187651327104272963
9709674 26 18410300189655939199

>  <PUBCHEM_SHAPE_MULTIPOLES>  (1) 
327.26
7.85
2.04
0.59
3.52
0.47
0
-0.83
0
-0.42
0
-0.07
-0.02
0

>  <PUBCHEM_SHAPE_SELFOVERLAP>  (1) 
743.82

>  <PUBCHEM_SHAPE_VOLUME>  (1) 
172.8

>  <PUBCHEM_COORDINATE_TYPE>  (1) 
2
5
10

$$$$
