18371
     RDKit          3D

 13 13  0  0  0  0  0  0  0  0999 V2000
    1.4484    1.9552    1.2010 O   0  0  0  0  0  0  0  0  0  0  0  0
    1.5805    2.0531   -1.0661 O   0  0  0  0  0  0  0  0  0  0  0  0
    1.8140   -2.4939    0.0111 O   0  0  0  0  0  0  0  0  0  0  0  0
    2.5531   -0.4272   -0.0259 O   0  0  0  0  0  0  0  0  0  0  0  0
    1.6134   -1.2566   -0.0079 N   0  0  0  0  0  0  0  0  0  0  0  0
   -2.3705    0.1110   -0.0090 C   0  0  0  0  0  0  0  0  0  0  0  0
   -0.0024    0.5895   -0.0287 C   0  0  0  0  0  0  0  0  0  0  0  0
    0.2739   -0.7777   -0.0094 C   0  0  0  0  0  0  0  0  0  0  0  0
   -1.3247    1.0338   -0.0285 C   0  0  0  0  0  0  0  0  0  0  0  0
   -2.0943   -1.2560    0.0102 C   0  0  0  0  0  0  0  0  0  0  0  0
   -0.7721   -1.7003    0.0101 C   0  0  0  0  0  0  0  0  0  0  0  0
   -3.7840    0.5858   -0.0077 C   0  0  0  0  0  0  0  0  0  0  0  0
    1.0647    1.5832   -0.0493 C   0  0  0  0  0  0  0  0  0  0  0  0
  1 13  1  0
  2 13  2  0
  3  5  1  0
  4  5  2  0
  5  8  1  0
  6  9  2  0
  6 10  1  0
  6 12  1  0
  7  8  2  0
  7  9  1  0
  7 13  1  0
  8 11  1  0
 10 11  2  0
M  CHG  2   3  -1   5   1
M  END
>  <PUBCHEM_COMPOUND_CID>  (1) 
18371

>  <PUBCHEM_CONFORMER_RMSD>  (1) 
0.6

>  <PUBCHEM_CONFORMER_DIVERSEORDER>  (1) 
1

>  <PUBCHEM_MMFF94_PARTIAL_CHARGES>  (1) 
17
1 -0.65
10 -0.15
11 -0.15
12 0.14
13 0.63
14 0.15
15 0.15
16 0.15
2 -0.57
20 0.5
3 -0.52
4 -0.52
5 0.91
6 -0.14
7 0.09
8 0.13
9 -0.15

>  <PUBCHEM_EFFECTIVE_ROTOR_COUNT>  (1) 
2

>  <PUBCHEM_PHARMACOPHORE_FEATURES>  (1) 
7
1 1 acceptor
1 2 acceptor
1 3 acceptor
1 3 anion
1 4 acceptor
3 1 2 13 anion
6 6 7 8 9 10 11 rings

>  <PUBCHEM_HEAVY_ATOM_COUNT>  (1) 
13

>  <PUBCHEM_ATOM_DEF_STEREO_COUNT>  (1) 
0

>  <PUBCHEM_ATOM_UDEF_STEREO_COUNT>  (1) 
0

>  <PUBCHEM_BOND_DEF_STEREO_COUNT>  (1) 
0

>  <PUBCHEM_BOND_UDEF_STEREO_COUNT>  (1) 
0

>  <PUBCHEM_ISOTOPIC_ATOM_COUNT>  (1) 
0

>  <PUBCHEM_COMPONENT_COUNT>  (1) 
1

>  <PUBCHEM_CACTVS_TAUTO_COUNT>  (1) 
1

>  <PUBCHEM_CONFORMER_ID>  (1) 
000047C300000001

>  <PUBCHEM_MMFF94_ENERGY>  (1) 
47.8091

>  <PUBCHEM_FEATURE_SELFOVERLAP>  (1) 
35.665

>  <PUBCHEM_SHAPE_FINGERPRINT>  (1) 
12423570 1 10790882620213973972
13380535 21 18264785413888468939
13380535 76 18264480866104929035
14648413 74 18334018319383375905
16945 1 18408891715302475503
193761 8 18266178512090142935
20511035 2 18341048618090362463
21040471 1 17978510063462548868
21501502 16 18337954614108426743
2334 1 18122063366953150671
23552423 10 18335701697429138791
241688 4 17905609899904419994
2748010 2 18193842767253292199
3071541 158 18261674753390447965
53812653 166 18413103978776815136
63268167 104 18339083692148429419
7364860 26 18343864428577046058
81228 2 17618796751407497394

>  <PUBCHEM_SHAPE_MULTIPOLES>  (1) 
239.08
3.99
2.38
0.74
2.64
0.34
0.03
-0.32
-0.03
-1.47
0
-0.2
-0.31
0

>  <PUBCHEM_SHAPE_SELFOVERLAP>  (1) 
507.8

>  <PUBCHEM_SHAPE_VOLUME>  (1) 
133.9

>  <PUBCHEM_COORDINATE_TYPE>  (1) 
2
5
10

$$$$
