18370
     RDKit          3D

 13 13  0  0  0  0  0  0  0  0999 V2000
   -3.5583    1.1854   -0.0003 O   0  0  0  0  0  0  0  0  0  0  0  0
    3.2082    1.5215   -0.0003 O   0  0  0  0  0  0  0  0  0  0  0  0
    3.3952   -0.6658    0.0002 O   0  0  0  0  0  0  0  0  0  0  0  0
   -3.5989   -1.0872   -0.0003 O   0  0  0  0  0  0  0  0  0  0  0  0
    2.6982    0.3762   -0.0002 N   0  0  0  0  0  0  0  0  0  0  0  0
    0.6675   -0.9977    0.0001 C   0  0  0  0  0  0  0  0  0  0  0  0
    1.2810    0.2551   -0.0002 C   0  0  0  0  0  0  0  0  0  0  0  0
   -0.7242   -1.0926    0.0005 C   0  0  0  0  0  0  0  0  0  0  0  0
   -1.5023    0.0652    0.0007 C   0  0  0  0  0  0  0  0  0  0  0  0
    0.5028    1.4128    0.0000 C   0  0  0  0  0  0  0  0  0  0  0  0
   -0.8888    1.3179    0.0005 C   0  0  0  0  0  0  0  0  0  0  0  0
    1.4727   -2.2570   -0.0003 C   0  0  0  0  0  0  0  0  0  0  0  0
   -2.9532   -0.0340   -0.0005 C   0  0  0  0  0  0  0  0  0  0  0  0
  1 13  1  0
  2  5  1  0
  3  5  2  0
  4 13  2  0
  5  7  1  0
  6  7  2  0
  6  8  1  0
  6 12  1  0
  7 10  1  0
  8  9  2  0
  9 11  1  0
  9 13  1  0
 10 11  2  0
M  CHG  2   2  -1   5   1
M  END
>  <PUBCHEM_COMPOUND_CID>  (1) 
18370

>  <PUBCHEM_CONFORMER_RMSD>  (1) 
0.6

>  <PUBCHEM_CONFORMER_DIVERSEORDER>  (1) 
1
2

>  <PUBCHEM_MMFF94_PARTIAL_CHARGES>  (1) 
17
1 -0.65
10 -0.15
11 -0.15
12 0.14
13 0.63
14 0.15
15 0.15
16 0.15
2 -0.52
20 0.5
3 -0.52
4 -0.57
5 0.91
6 -0.14
7 0.13
8 -0.15
9 0.09

>  <PUBCHEM_EFFECTIVE_ROTOR_COUNT>  (1) 
2

>  <PUBCHEM_PHARMACOPHORE_FEATURES>  (1) 
7
1 1 acceptor
1 2 acceptor
1 2 anion
1 3 acceptor
1 4 acceptor
3 1 4 13 anion
6 6 7 8 9 10 11 rings

>  <PUBCHEM_HEAVY_ATOM_COUNT>  (1) 
13

>  <PUBCHEM_ATOM_DEF_STEREO_COUNT>  (1) 
0

>  <PUBCHEM_ATOM_UDEF_STEREO_COUNT>  (1) 
0

>  <PUBCHEM_BOND_DEF_STEREO_COUNT>  (1) 
0

>  <PUBCHEM_BOND_UDEF_STEREO_COUNT>  (1) 
0

>  <PUBCHEM_ISOTOPIC_ATOM_COUNT>  (1) 
0

>  <PUBCHEM_COMPONENT_COUNT>  (1) 
1

>  <PUBCHEM_CACTVS_TAUTO_COUNT>  (1) 
1

>  <PUBCHEM_CONFORMER_ID>  (1) 
000047C200000001

>  <PUBCHEM_MMFF94_ENERGY>  (1) 
47.3148

>  <PUBCHEM_FEATURE_SELFOVERLAP>  (1) 
35.662

>  <PUBCHEM_SHAPE_FINGERPRINT>  (1) 
10219947 1 18335703870439808988
10608611 8 18336542733609137621
10980938 120 18411418410081739098
11132069 177 18411973667822488984
11471102 20 18410568479209301045
11806522 49 18267580393995231511
12032990 46 18411144635981494046
12932764 1 17458905908193584619
13380535 76 18335982051224459786
14251717 144 18411695504392391431
14325111 11 18410855477371509889
15219456 202 18262514776190039493
15536298 74 18271806783395331366
16945 1 18410575071794040260
18186145 218 18409732845950662508
19021347 11 18409446985796628594
193761 8 17834113039659051268
20201158 50 18335421248970697891
20645476 183 17823997825205551342
20645477 70 18340482254155146111
21501502 16 18194966236066155505
23235685 24 18408879667850690344
23402539 116 18272079509549891196
23402655 69 18268976611028692261
23463225 33 18335699421154325242
23552423 10 18263084310064685211
2748010 2 18193837033334665677
3312278 4 18413110546056149769
528886 8 18411695521413751698
53812653 166 18342734126392249713
63268167 104 18341052930443093721
7364860 26 18198623237853177894

>  <PUBCHEM_SHAPE_MULTIPOLES>  (1) 
239.08
5.42
1.87
0.58
1.49
0.39
0
-0.43
0
-0.66
0
0.02
0.01
0

>  <PUBCHEM_SHAPE_SELFOVERLAP>  (1) 
507.799

>  <PUBCHEM_SHAPE_VOLUME>  (1) 
134.3

>  <PUBCHEM_COORDINATE_TYPE>  (1) 
2
5
10

$$$$
