18373
     RDKit          3D

 27 30  0  0  0  0  0  0  0  0999 V2000
    0.3407   -7.2387   -0.1272 Cl  0  0  0  0  0  0  0  0  0  0  0  0
   -6.4444    3.3236    0.1264 Cl  0  0  0  0  0  0  0  0  0  0  0  0
    6.1031    3.9180   -0.0003 Cl  0  0  0  0  0  0  0  0  0  0  0  0
   -1.1656   -0.7505    0.0004 N   0  0  0  0  0  0  0  0  0  0  0  0
    1.2312   -0.6372   -0.0245 N   0  0  0  0  0  0  0  0  0  0  0  0
   -0.0648    1.3816    0.0250 N   0  0  0  0  0  0  0  0  0  0  0  0
    0.0608   -1.2886   -0.0227 C   0  0  0  0  0  0  0  0  0  0  0  0
   -1.1510    0.5921    0.0234 C   0  0  0  0  0  0  0  0  0  0  0  0
    1.0907    0.6980    0.0001 C   0  0  0  0  0  0  0  0  0  0  0  0
    0.1288   -2.7337   -0.0486 C   0  0  0  0  0  0  0  0  0  0  0  0
   -2.4299    1.2520    0.0488 C   0  0  0  0  0  0  0  0  0  0  0  0
    2.3019    1.4756   -0.0003 C   0  0  0  0  0  0  0  0  0  0  0  0
   -0.8900   -3.4690   -0.6541 C   0  0  0  0  0  0  0  0  0  0  0  0
   -3.5294    0.6354    0.6543 C   0  0  0  0  0  0  0  0  0  0  0  0
    3.4669    0.9659    0.5817 C   0  0  0  0  0  0  0  0  0  0  0  0
    1.2130   -3.3914    0.5326 C   0  0  0  0  0  0  0  0  0  0  0  0
   -2.5831    2.5149   -0.5326 C   0  0  0  0  0  0  0  0  0  0  0  0
    2.3230    2.7473   -0.5821 C   0  0  0  0  0  0  0  0  0  0  0  0
   -0.8249   -4.8621   -0.6783 C   0  0  0  0  0  0  0  0  0  0  0  0
   -4.7689    1.2745    0.6782 C   0  0  0  0  0  0  0  0  0  0  0  0
    4.6405    1.7198    0.5822 C   0  0  0  0  0  0  0  0  0  0  0  0
    1.2782   -4.7846    0.5083 C   0  0  0  0  0  0  0  0  0  0  0  0
   -3.8226    3.1542   -0.5087 C   0  0  0  0  0  0  0  0  0  0  0  0
    3.4966    3.5014   -0.5819 C   0  0  0  0  0  0  0  0  0  0  0  0
    0.2593   -5.5200   -0.0972 C   0  0  0  0  0  0  0  0  0  0  0  0
   -4.9157    2.5340    0.0968 C   0  0  0  0  0  0  0  0  0  0  0  0
    4.6555    2.9875    0.0003 C   0  0  0  0  0  0  0  0  0  0  0  0
  1 25  1  0
  2 26  1  0
  3 27  1  0
  4  7  2  0
  4  8  1  0
  5  7  1  0
  5  9  2  0
  6  8  2  0
  6  9  1  0
  7 10  1  0
  8 11  1  0
  9 12  1  0
 10 13  2  0
 10 16  1  0
 11 14  2  0
 11 17  1  0
 12 15  2  0
 12 18  1  0
 13 19  1  0
 14 20  1  0
 15 21  1  0
 16 22  2  0
 17 23  2  0
 18 24  2  0
 19 25  2  0
 20 26  2  0
 21 27  2  0
 22 25  1  0
 23 26  1  0
 24 27  1  0
M  END
>  <PUBCHEM_COMPOUND_CID>  (1) 
18373

>  <PUBCHEM_CONFORMER_RMSD>  (1) 
0.6

>  <PUBCHEM_CONFORMER_DIVERSEORDER>  (1) 
1
2
3

>  <PUBCHEM_MMFF94_PARTIAL_CHARGES>  (1) 
36
1 -0.18
13 -0.15
14 -0.15
15 -0.15
16 -0.15
17 -0.15
18 -0.15
19 -0.15
2 -0.18
20 -0.15
21 -0.15
22 -0.15
23 -0.15
24 -0.15
25 0.18
26 0.18
27 0.18
28 0.15
29 0.15
3 -0.18
30 0.15
31 0.15
32 0.15
33 0.15
34 0.15
35 0.15
36 0.15
37 0.15
38 0.15
39 0.15
4 -0.62
5 -0.62
6 -0.62
7 0.62
8 0.62
9 0.62

>  <PUBCHEM_EFFECTIVE_ROTOR_COUNT>  (1) 
3

>  <PUBCHEM_PHARMACOPHORE_FEATURES>  (1) 
7
3 4 5 7 cation
3 4 6 8 cation
3 5 6 9 cation
6 10 13 16 19 22 25 rings
6 11 14 17 20 23 26 rings
6 12 15 18 21 24 27 rings
6 4 5 6 7 8 9 rings

>  <PUBCHEM_HEAVY_ATOM_COUNT>  (1) 
27

>  <PUBCHEM_ATOM_DEF_STEREO_COUNT>  (1) 
0

>  <PUBCHEM_ATOM_UDEF_STEREO_COUNT>  (1) 
0

>  <PUBCHEM_BOND_DEF_STEREO_COUNT>  (1) 
0

>  <PUBCHEM_BOND_UDEF_STEREO_COUNT>  (1) 
0

>  <PUBCHEM_ISOTOPIC_ATOM_COUNT>  (1) 
0

>  <PUBCHEM_COMPONENT_COUNT>  (1) 
1

>  <PUBCHEM_CACTVS_TAUTO_COUNT>  (1) 
1

>  <PUBCHEM_CONFORMER_ID>  (1) 
000047C500000001

>  <PUBCHEM_MMFF94_ENERGY>  (1) 
77.0575

>  <PUBCHEM_FEATURE_SELFOVERLAP>  (1) 
38.307

>  <PUBCHEM_SHAPE_FINGERPRINT>  (1) 
10074138 170 18051677034636315072
10411042 1 17257934793552017219
10940486 97 18189626110956344124
11045515 52 17179952446272995454
11056379 131 17977953711259454428
11411753 3 17752496352946866333
11763715 3 17109614501664806076
12107183 9 18335971031340705080
12788726 201 17831566940465841610
13248334 5 18122626054639058961
13590594 115 17041772984906089201
13757389 114 17977124661742562677
13785724 45 17404866951813567193
138480 1 17834113039579774084
13955234 65 18194690263443821697
14508225 48 17404576070462833285
14790565 3 18410855481618874555
14856354 85 16443634609700655704
14866123 147 18123471845706953634
15042514 8 17834400398762114962
15230672 131 18336272306427282300
15400415 2 18410855477372445369
15420108 30 18335690676701462360
15664445 248 17768261106686974590
15705408 1 18122624946579721989
15927050 60 18411701023937329518
16087824 20 18050287274453768543
16992752 21 17328876903353784100
17980427 26 18269265781626552485
18785283 64 18192427472397232681
19319366 153 18272082765209584477
20101258 96 17472146549137558632
20238998 120 17329707622209239428
21033648 29 18341887545611062568
21049683 271 17903090931745013382
21120745 212 17400373732727175212
21133410 32 14568986186566654738
21307412 95 18056789618895313372
21796203 349 17476959786338513931
22311459 1 18122626054839674926
23559900 14 17832701276068228777
23929065 36 17766260356460054040
24771750 20 18189634756081374052
249999 5 18267304231729516273
255183 313 17980223068625126755
283562 15 18269551814280845135
3091708 16 9263621313652145674
3103668 31 17904195185660879535
3421961 26 17906732497440237289
3627633 1 17546447138179328374
38695281 34 18410291397936771920
4403749 210 18263922310051563177
4409770 3 17975967980127051095
5309563 4 17258494445176530495
5385378 56 18267589000804205537
563151 97 18411409632018088021
6058803 2 17827068817428584308
6673363 416 17332542172721152318
6677587 24 16310693645863218141
6679774 75 18115863015243501938
6695519 79 18270141092352338513
6697151 62 17397526625609734317
6698420 124 18129683983567721272
6700243 42 17116960287553093860
77188 2 17474108700440447263
7808743 9 18265894851244675800
79837 15 18338795753077152818
9777508 108 18124871515355900496
9981440 41 18408888460092156473

>  <PUBCHEM_SHAPE_MULTIPOLES>  (1) 
546.31
10.41
10.4
0.77
2.73
24
0
-24.08
1.14
-2.76
-1.14
0.03
0.02
-0.55

>  <PUBCHEM_SHAPE_SELFOVERLAP>  (1) 
1190.246

>  <PUBCHEM_SHAPE_VOLUME>  (1) 
299.1

>  <PUBCHEM_COORDINATE_TYPE>  (1) 
2
5
10

$$$$
