18379
     RDKit          3D

 12 11  0  0  0  0  0  0  0  0999 V2000
   -0.0687   -2.1104    0.9207 O   0  0  0  0  0  0  0  0  0  0  0  0
   -0.1071   -1.6900   -1.3063 O   0  0  0  0  0  0  0  0  0  0  0  0
    0.0201    0.1943    0.2082 C   0  0  0  0  0  0  0  0  0  0  0  0
   -1.2649    0.9058   -0.2570 C   0  0  0  0  0  0  0  0  0  0  0  0
    1.3024    0.8495   -0.3365 C   0  0  0  0  0  0  0  0  0  0  0  0
   -2.5373    0.2957    0.3399 C   0  0  0  0  0  0  0  0  0  0  0  0
    2.5760    0.2344    0.2586 C   0  0  0  0  0  0  0  0  0  0  0  0
   -3.7892    0.9839   -0.2063 C   0  0  0  0  0  0  0  0  0  0  0  0
    3.8589    0.9229   -0.2144 C   0  0  0  0  0  0  0  0  0  0  0  0
   -0.0572   -1.2817   -0.1518 C   0  0  0  0  0  0  0  0  0  0  0  0
   -5.0574    0.3551    0.3488 C   0  0  0  0  0  0  0  0  0  0  0  0
    5.1243    0.3405    0.3961 C   0  0  0  0  0  0  0  0  0  0  0  0
  1 10  1  0
  2 10  2  0
  3  4  1  0
  3  5  1  0
  3 10  1  0
  4  6  1  0
  5  7  1  0
  6  8  1  0
  7  9  1  0
  8 11  1  0
  9 12  1  0
M  END
>  <PUBCHEM_COMPOUND_CID>  (1) 
18379

>  <PUBCHEM_CONFORMER_RMSD>  (1) 
0.8

>  <PUBCHEM_CONFORMER_DIVERSEORDER>  (1) 
1
7
31
4
27
28
29
37
25
20
32
11
41
23
2
39
18
38
21
24
30
19
22
6
26
35
14
10
15
40
17
13
5
34
33
12
36
8
3
16
9

>  <PUBCHEM_MMFF94_PARTIAL_CHARGES>  (1) 
5
1 -0.65
10 0.66
2 -0.57
3 0.06
32 0.5

>  <PUBCHEM_EFFECTIVE_ROTOR_COUNT>  (1) 
7

>  <PUBCHEM_PHARMACOPHORE_FEATURES>  (1) 
5
1 1 acceptor
1 11 hydrophobe
1 12 hydrophobe
1 2 acceptor
3 1 2 10 anion

>  <PUBCHEM_HEAVY_ATOM_COUNT>  (1) 
12

>  <PUBCHEM_ATOM_DEF_STEREO_COUNT>  (1) 
0

>  <PUBCHEM_ATOM_UDEF_STEREO_COUNT>  (1) 
0

>  <PUBCHEM_BOND_DEF_STEREO_COUNT>  (1) 
0

>  <PUBCHEM_BOND_UDEF_STEREO_COUNT>  (1) 
0

>  <PUBCHEM_ISOTOPIC_ATOM_COUNT>  (1) 
0

>  <PUBCHEM_COMPONENT_COUNT>  (1) 
1

>  <PUBCHEM_CACTVS_TAUTO_COUNT>  (1) 
1

>  <PUBCHEM_CONFORMER_ID>  (1) 
000047CB00000001

>  <PUBCHEM_MMFF94_ENERGY>  (1) 
4.0722

>  <PUBCHEM_FEATURE_SELFOVERLAP>  (1) 
25.431

>  <PUBCHEM_SHAPE_FINGERPRINT>  (1) 
10219947 1 18186524284820473373
10922049 32 18411139129838558910
12119455 92 18413106156151147765
12346645 44 18272373018972483945
12932764 1 15864895669404102728
13380535 76 18412547613230012454
13533116 47 16558470782634152686
14943859 89 18341893008760800904
15048467 5 13830136083223040097
15342168 16 15214447718720968820
15775835 57 18412823585957809025
170605 34 18341334401182852631
18186145 218 17632001018341967497
187816 3 17346883355550671808
200 152 12319742462211264128
20645477 56 18343015640635790424
20711985 327 11891338629656900103
21524375 3 18412546509022419181
23402539 116 17774996903591290356
366044 4 18272932730235474030
474229 33 18408887364933296731
69090 78 18131064948453764422
81539 233 18334575698585113151

>  <PUBCHEM_SHAPE_MULTIPOLES>  (1) 
235.22
9.13
1.52
0.83
0.68
0.96
0.09
-3.78
-1.37
-0.09
0.07
0
0.25
-0.01

>  <PUBCHEM_SHAPE_SELFOVERLAP>  (1) 
429.147

>  <PUBCHEM_SHAPE_VOLUME>  (1) 
150.4

>  <PUBCHEM_COORDINATE_TYPE>  (1) 
2
5
10

$$$$
