18383
     RDKit          3D

 19 19  0  0  0  0  0  0  0  0999 V2000
   -1.6966   -2.8552   -0.1570 O   0  0  0  0  0  0  0  0  0  0  0  0
    1.0419    1.3432    0.7287 O   0  0  0  0  0  0  0  0  0  0  0  0
    3.5337    0.3656    0.0598 N   0  0  0  0  0  0  0  0  0  0  0  0
    0.1395   -0.7851    0.3188 N   0  0  0  0  0  0  0  0  0  0  0  0
    2.5090   -0.5625    0.5368 C   0  0  0  0  0  0  0  0  0  0  0  0
    4.8524   -0.2658    0.0974 C   0  0  0  0  0  0  0  0  0  0  0  0
    3.2222    0.8184   -1.2954 C   0  0  0  0  0  0  0  0  0  0  0  0
    1.1601    0.1357    0.5467 C   0  0  0  0  0  0  0  0  0  0  0  0
   -1.2516   -0.5334    0.2529 C   0  0  0  0  0  0  0  0  0  0  0  0
   -3.0705    1.0284    0.3686 C   0  0  0  0  0  0  0  0  0  0  0  0
    5.2190   -0.6879    1.5100 C   0  0  0  0  0  0  0  0  0  0  0  0
    4.2772    1.7842   -1.8076 C   0  0  0  0  0  0  0  0  0  0  0  0
   -1.7020    0.7654    0.4293 C   0  0  0  0  0  0  0  0  0  0  0  0
   -3.5715    2.4205    0.5558 C   0  0  0  0  0  0  0  0  0  0  0  0
   -2.1336   -1.5758    0.0174 C   0  0  0  0  0  0  0  0  0  0  0  0
   -3.9706   -0.0106    0.1323 C   0  0  0  0  0  0  0  0  0  0  0  0
   -3.5022   -1.3126   -0.0432 C   0  0  0  0  0  0  0  0  0  0  0  0
   -3.6616    3.1874   -0.7610 C   0  0  0  0  0  0  0  0  0  0  0  0
   -1.3947   -3.2599   -1.4904 C   0  0  0  0  0  0  0  0  0  0  0  0
  1 15  1  0
  1 19  1  0
  2  8  2  0
  3  5  1  0
  3  6  1  0
  3  7  1  0
  4  8  1  0
  4  9  1  0
  5  8  1  0
  6 11  1  0
  7 12  1  0
  9 13  2  0
  9 15  1  0
 10 13  1  0
 10 14  1  0
 10 16  2  0
 14 18  1  0
 15 17  2  0
 16 17  1  0
M  END
>  <PUBCHEM_COMPOUND_CID>  (1) 
18383

>  <PUBCHEM_CONFORMER_RMSD>  (1) 
0.8

>  <PUBCHEM_CONFORMER_DIVERSEORDER>  (1) 
1
30
26
34
15
28
23
31
21
18
14
29
19
37
11
35
6
22
17
32
8
12
36
33
16
38
3
24
7
4
25
20
27
10
2
13
9
5

>  <PUBCHEM_MMFF94_PARTIAL_CHARGES>  (1) 
20
1 -0.36
10 -0.14
13 -0.15
14 0.14
15 0.08
16 -0.15
17 -0.15
19 0.28
2 -0.57
26 0.37
3 -0.81
33 0.15
36 0.15
37 0.15
4 -0.55
5 0.33
6 0.27
7 0.27
8 0.57
9 0.12

>  <PUBCHEM_EFFECTIVE_ROTOR_COUNT>  (1) 
8

>  <PUBCHEM_PHARMACOPHORE_FEATURES>  (1) 
6
1 1 acceptor
1 18 hydrophobe
1 2 acceptor
1 3 cation
1 4 donor
6 9 10 13 15 16 17 rings

>  <PUBCHEM_HEAVY_ATOM_COUNT>  (1) 
19

>  <PUBCHEM_ATOM_DEF_STEREO_COUNT>  (1) 
0

>  <PUBCHEM_ATOM_UDEF_STEREO_COUNT>  (1) 
0

>  <PUBCHEM_BOND_DEF_STEREO_COUNT>  (1) 
0

>  <PUBCHEM_BOND_UDEF_STEREO_COUNT>  (1) 
0

>  <PUBCHEM_ISOTOPIC_ATOM_COUNT>  (1) 
0

>  <PUBCHEM_COMPONENT_COUNT>  (1) 
1

>  <PUBCHEM_CACTVS_TAUTO_COUNT>  (1) 
2

>  <PUBCHEM_CONFORMER_ID>  (1) 
000047CF00000001

>  <PUBCHEM_MMFF94_ENERGY>  (1) 
56.2803

>  <PUBCHEM_FEATURE_SELFOVERLAP>  (1) 
30.446

>  <PUBCHEM_SHAPE_FINGERPRINT>  (1) 
10062212 137 18334851740813400850
12107183 9 17899970543931861832
12173636 292 18412259528272038829
12236239 1 18040714774895305203
12500047 106 18271799103777483050
13167823 11 18333168388643066546
14508225 48 17984119729565789839
14739800 52 18194115442649888592
15042514 8 18268710687844041643
15375358 24 17275100622471771194
15669948 3 18340205305483121359
16752209 62 18342162376430711883
17818456 19 18266172825901434224
18785283 64 17834128450592520715
19433438 15 18259989275464528984
20279233 1 17275108349128687470
20645477 56 18272654553798863243
21524375 3 18337107865753747779
22907989 373 18337100255172043509
23366157 5 17974294222940413035
23402539 116 18201428156191983637
23557571 272 18060143150254616896
23559900 14 18058177124775026910
23598288 3 18335427901796067563
23598291 2 18113898286331200694
268830 7 17167860881301912564
2838139 119 17096628939081886589
298252 57 18338795611617649419
3084891 72 18128815248610373497
4214541 1 18411135818650953992
474 4 17096377313832574220
5104073 3 18259988188780158472
559249 180 18337666404797348970
573450 72 18336256895130050074
67856867 119 18190176979066417264

>  <PUBCHEM_SHAPE_MULTIPOLES>  (1) 
369.31
10.29
3.11
1.26
10.27
0.48
0.39
-3.71
-0.38
-4.08
1.44
1.41
-0.06
-1.56

>  <PUBCHEM_SHAPE_SELFOVERLAP>  (1) 
741.004

>  <PUBCHEM_SHAPE_VOLUME>  (1) 
219.3

>  <PUBCHEM_COORDINATE_TYPE>  (1) 
2
5
10

$$$$
