18387
     RDKit          3D

 13 13  0  0  0  0  0  0  0  0999 V2000
   -0.5646    3.0351   -0.0304 I   0  0  0  0  0  0  0  0  0  0  0  0
   -1.6095   -3.0003   -0.0294 I   0  0  0  0  0  0  0  0  0  0  0  0
    4.0094   -1.0318    0.0213 I   0  0  0  0  0  0  0  0  0  0  0  0
   -2.7302    0.3208    1.2122 O   0  0  0  0  0  0  0  0  0  0  0  0
   -2.9008    0.3542   -1.0542 O   0  0  0  0  0  0  0  0  0  0  0  0
    2.4369    1.8345    0.0016 N   0  0  0  0  0  0  0  0  0  0  0  0
   -0.7748   -0.0306   -0.0268 C   0  0  0  0  0  0  0  0  0  0  0  0
    1.5056    0.7667   -0.0059 C   0  0  0  0  0  0  0  0  0  0  0  0
    0.1353    1.0264   -0.0193 C   0  0  0  0  0  0  0  0  0  0  0  0
   -0.3145   -1.3474   -0.0208 C   0  0  0  0  0  0  0  0  0  0  0  0
    1.9660   -0.5500   -0.0001 C   0  0  0  0  0  0  0  0  0  0  0  0
    1.0558   -1.6070   -0.0076 C   0  0  0  0  0  0  0  0  0  0  0  0
   -2.2145    0.2296   -0.0407 C   0  0  0  0  0  0  0  0  0  0  0  0
  1  9  1  0
  2 10  1  0
  3 11  1  0
  4 13  1  0
  5 13  2  0
  6  8  1  0
  7  9  2  0
  7 10  1  0
  7 13  1  0
  8  9  1  0
  8 11  2  0
 10 12  2  0
 11 12  1  0
M  END
>  <PUBCHEM_COMPOUND_CID>  (1) 
18387

>  <PUBCHEM_CONFORMER_RMSD>  (1) 
0.4

>  <PUBCHEM_CONFORMER_DIVERSEORDER>  (1) 
1

>  <PUBCHEM_MMFF94_PARTIAL_CHARGES>  (1) 
17
1 -0.08
10 0.08
11 0.08
12 -0.15
13 0.63
14 0.15
15 0.4
16 0.4
17 0.5
2 -0.08
3 -0.08
4 -0.65
5 -0.57
6 -0.9
7 0.09
8 0.1
9 0.08

>  <PUBCHEM_EFFECTIVE_ROTOR_COUNT>  (1) 
1

>  <PUBCHEM_PHARMACOPHORE_FEATURES>  (1) 
9
1 1 hydrophobe
1 2 hydrophobe
1 3 hydrophobe
1 4 acceptor
1 5 acceptor
1 6 cation
1 6 donor
3 4 5 13 anion
6 7 8 9 10 11 12 rings

>  <PUBCHEM_HEAVY_ATOM_COUNT>  (1) 
13

>  <PUBCHEM_ATOM_DEF_STEREO_COUNT>  (1) 
0

>  <PUBCHEM_ATOM_UDEF_STEREO_COUNT>  (1) 
0

>  <PUBCHEM_BOND_DEF_STEREO_COUNT>  (1) 
0

>  <PUBCHEM_BOND_UDEF_STEREO_COUNT>  (1) 
0

>  <PUBCHEM_ISOTOPIC_ATOM_COUNT>  (1) 
0

>  <PUBCHEM_COMPONENT_COUNT>  (1) 
1

>  <PUBCHEM_CACTVS_TAUTO_COUNT>  (1) 
1

>  <PUBCHEM_CONFORMER_ID>  (1) 
000047D300000001

>  <PUBCHEM_MMFF94_ENERGY>  (1) 
53.8912

>  <PUBCHEM_FEATURE_SELFOVERLAP>  (1) 
45.728

>  <PUBCHEM_SHAPE_FINGERPRINT>  (1) 
10967382 1 18410574023938058118
11132069 177 18411692176256928170
11206711 2 18265897943367207036
11680986 33 18125148583516362363
12423570 1 12534755254851223171
13140716 1 18410856607290897962
13380535 21 18265908032318926134
14911166 2 18410007698309387910
14993402 34 18339072696958610398
16945 1 18338518543171927734
193761 8 18050286165354342566
20510252 161 18127688232513031480
20588541 1 18341899545785817702
21501502 16 18266464393740112118
2334 1 18194401323650452350
23402539 116 18270950259188853583
23493267 7 17241045392584187729
23526114 1 18266740371279808430
23552423 10 18189616231966696390
23557571 272 18129668470698943126
23559900 14 18341614803198773030
2748010 2 18268429216739648982
5084963 1 18059564737764594363
54173680 148 18410012165091491986

>  <PUBCHEM_SHAPE_MULTIPOLES>  (1) 
286.62
4.87
3.5
0.81
3.87
0.36
0.03
-1.17
0.02
-1.61
-0.05
-0.33
0
-0.01

>  <PUBCHEM_SHAPE_SELFOVERLAP>  (1) 
538.245

>  <PUBCHEM_SHAPE_VOLUME>  (1) 
186.7

>  <PUBCHEM_COORDINATE_TYPE>  (1) 
2
5
10

$$$$
