18381
     RDKit          3D

 30 33  0  0  1  0  0  0  0  0999 V2000
    1.7543   -1.4304   -2.6861 Cl  0  0  0  0  0  0  0  0  0  0  0  0
    2.4437   -1.2622    2.7499 Cl  0  0  0  0  0  0  0  0  0  0  0  0
   -1.3230    0.8795   -1.5973 S   0  0  0  0  0  0  0  0  0  0  0  0
   -1.7573    0.3238    2.7519 O   0  0  0  0  0  0  0  0  0  0  0  0
   -5.3728   -1.0327   -0.0333 O   0  0  0  0  0  0  0  0  0  0  0  0
   -5.1784    0.9148    1.1351 O   0  0  0  0  0  0  0  0  0  0  0  0
    1.4968    2.8642   -0.5342 O   0  0  0  0  0  0  0  0  0  0  0  0
    4.9796    0.4906   -0.3907 O   0  0  0  0  0  0  0  0  0  0  0  0
   -2.5706    1.0770    0.6683 N   0  0  0  0  0  0  0  0  0  0  0  0
    0.6038    1.1885    0.7731 N   0  0  0  0  0  0  0  0  0  0  0  0
    4.3114   -0.7215   -0.2674 N   0  0  0  0  0  0  0  0  0  0  0  0
   -1.6840    1.9220   -0.1372 C   0  0  0  0  0  0  0  0  0  0  0  0
   -2.9993    0.0752   -1.4856 C   0  0  0  0  0  0  0  0  0  0  0  0
   -3.2508   -0.0338    0.0338 C   0  0  0  0  0  0  0  0  0  0  0  0
   -0.6794    1.8605    1.0216 C   0  0  0  0  0  0  0  0  0  0  0  0
   -1.7225    0.9759    1.7330 C   0  0  0  0  0  0  0  0  0  0  0  0
   -4.0007    0.9650   -2.2347 C   0  0  0  0  0  0  0  0  0  0  0  0
   -2.9330   -1.3056   -2.1405 C   0  0  0  0  0  0  0  0  0  0  0  0
   -4.6855    0.0306    0.4506 C   0  0  0  0  0  0  0  0  0  0  0  0
    1.6177    1.7591   -0.0062 C   0  0  0  0  0  0  0  0  0  0  0  0
    2.8548    0.9778   -0.1375 C   0  0  0  0  0  0  0  0  0  0  0  0
    3.0253   -0.3934   -0.1153 C   0  0  0  0  0  0  0  0  0  0  0  0
    4.0831    1.5068   -0.3097 C   0  0  0  0  0  0  0  0  0  0  0  0
    2.0280   -1.4193    0.0432 C   0  0  0  0  0  0  0  0  0  0  0  0
    4.6296    2.8661   -0.4225 C   0  0  0  0  0  0  0  0  0  0  0  0
    1.3910   -1.9574   -1.0776 C   0  0  0  0  0  0  0  0  0  0  0  0
    1.6931   -1.8816    1.3182 C   0  0  0  0  0  0  0  0  0  0  0  0
    0.4251   -2.9519   -0.9243 C   0  0  0  0  0  0  0  0  0  0  0  0
    0.7271   -2.8761    1.4714 C   0  0  0  0  0  0  0  0  0  0  0  0
    0.0930   -3.4113    0.3501 C   0  0  0  0  0  0  0  0  0  0  0  0
  1 26  1  0
  2 27  1  0
  3 12  1  0
  3 13  1  0
  4 16  2  0
  5 19  1  0
  6 19  2  0
  7 20  2  0
  8 11  1  0
  8 23  1  0
  9 12  1  0
  9 14  1  0
  9 16  1  0
 10 15  1  0
 10 20  1  0
 11 22  2  0
 12 15  1  0
 13 14  1  0
 13 17  1  0
 13 18  1  0
 14 19  1  0
 15 16  1  0
 20 21  1  0
 21 22  1  0
 21 23  2  0
 22 24  1  0
 23 25  1  0
 24 26  2  0
 24 27  1  0
 26 28  1  0
 27 29  2  0
 28 30  2  0
 29 30  1  0
M  END
>  <PUBCHEM_COMPOUND_CID>  (1) 
18381

>  <PUBCHEM_CONFORMER_RMSD>  (1) 
0.8

>  <PUBCHEM_CONFORMER_DIVERSEORDER>  (1) 
4
9
5
17
19
3
14
11
10
2
15
1
16
12
18
8
6
7
13

>  <PUBCHEM_MMFF94_PARTIAL_CHARGES>  (1) 
33
1 -0.18
10 -0.65
11 -0.41
12 0.44
13 0.23
14 0.36
15 0.28
16 0.58
19 0.66
2 -0.18
20 0.72
21 -0.09
22 0.23
23 -0.04
24 0.05
25 0.18
26 0.18
27 0.18
28 -0.15
29 -0.15
3 -0.45
30 -0.15
4 -0.57
40 0.37
41 0.5
45 0.15
46 0.15
47 0.15
5 -0.65
6 -0.57
7 -0.57
8 -0.02
9 -0.59

>  <PUBCHEM_EFFECTIVE_ROTOR_COUNT>  (1) 
5.8

>  <PUBCHEM_PHARMACOPHORE_FEATURES>  (1) 
12
1 10 donor
1 11 acceptor
1 4 acceptor
1 5 acceptor
1 6 acceptor
1 7 acceptor
3 13 17 18 hydrophobe
3 5 6 19 anion
4 9 12 15 16 rings
5 8 11 21 22 23 rings
6 24 26 27 28 29 30 rings
7 3 9 12 13 14 15 16 rings

>  <PUBCHEM_HEAVY_ATOM_COUNT>  (1) 
30

>  <PUBCHEM_ATOM_DEF_STEREO_COUNT>  (1) 
3

>  <PUBCHEM_ATOM_UDEF_STEREO_COUNT>  (1) 
0

>  <PUBCHEM_BOND_DEF_STEREO_COUNT>  (1) 
0

>  <PUBCHEM_BOND_UDEF_STEREO_COUNT>  (1) 
0

>  <PUBCHEM_ISOTOPIC_ATOM_COUNT>  (1) 
0

>  <PUBCHEM_COMPONENT_COUNT>  (1) 
1

>  <PUBCHEM_CACTVS_TAUTO_COUNT>  (1) 
2

>  <PUBCHEM_CONFORMER_ID>  (1) 
000047CD00000004

>  <PUBCHEM_MMFF94_ENERGY>  (1) 
76.9315

>  <PUBCHEM_FEATURE_SELFOVERLAP>  (1) 
64.687

>  <PUBCHEM_SHAPE_FINGERPRINT>  (1) 
10119406 146 18266761099710423086
11421498 54 17560531615822100657
12156800 1 17467106310405278639
12293681 4 17324362295587882506
12553582 1 17988911272116337657
12788726 201 16773243873149283105
13009979 54 17486211119950038410
13224815 77 18410290268455227623
13583140 156 17168141295537863040
14251764 3 17603584157564918485
14787075 74 18343021142209101063
15183329 4 18130210568744917861
17138139 8 17770762800598407503
17492 54 18266164205274128814
17980427 23 17755272623256917288
20775438 99 15613789413700189030
21421861 104 18266748969735860977
22393880 68 18261950735314931716
23419403 2 14617972646346027510
23557571 272 16370733590921437597
23559900 14 17771069285306695975
238 59 18334290968054749664
35225 105 17616284766627394262
3797600 57 18343293786411434151
4340502 62 18337125531054463067
463206 1 18343301513400230937
469060 322 16662322029992515439
513532 50 14854935818777870031
6287921 2 17488751047217326598
6669772 16 18335425686394724606

>  <PUBCHEM_SHAPE_MULTIPOLES>  (1) 
580.69
8.85
3.37
2.33
4.09
1.18
0.16
-3.41
-0.91
-2.56
0.03
0.83
0.78
-0.8

>  <PUBCHEM_SHAPE_SELFOVERLAP>  (1) 
1236.204

>  <PUBCHEM_SHAPE_VOLUME>  (1) 
329.1

>  <PUBCHEM_COORDINATE_TYPE>  (1) 
2
5
10

$$$$
