18390
     RDKit          3D

 20 20  0  0  0  0  0  0  0  0999 V2000
    0.0874    0.8667   -2.8766 O   0  0  0  0  0  0  0  0  0  0  0  0
    3.2330    1.7150    0.8973 N   0  0  0  0  0  0  0  0  0  0  0  0
    0.6266   -3.4263   -0.2721 N   0  0  0  0  0  0  0  0  0  0  0  0
   -0.5798    2.6151   -1.5654 N   0  0  0  0  0  0  0  0  0  0  0  0
   -0.1698    0.4304   -0.4706 C   0  0  0  0  0  0  0  0  0  0  0  0
    0.9060    1.0477    0.4893 C   0  0  0  0  0  0  0  0  0  0  0  0
    0.2373   -1.0319   -0.8803 C   0  0  0  0  0  0  0  0  0  0  0  0
   -1.5984    0.4260    0.1243 C   0  0  0  0  0  0  0  0  0  0  0  0
    2.3284    1.1235   -0.0853 C   0  0  0  0  0  0  0  0  0  0  0  0
    0.2358   -2.1110    0.2142 C   0  0  0  0  0  0  0  0  0  0  0  0
   -0.2003    1.3033   -1.7624 C   0  0  0  0  0  0  0  0  0  0  0  0
   -1.7679    0.9171    1.3895 C   0  0  0  0  0  0  0  0  0  0  0  0
   -2.6131   -0.0692   -0.6476 C   0  0  0  0  0  0  0  0  0  0  0  0
   -3.0556    0.9128    1.9257 C   0  0  0  0  0  0  0  0  0  0  0  0
   -3.9008   -0.0734   -0.1114 C   0  0  0  0  0  0  0  0  0  0  0  0
    3.1938    0.9605    2.1501 C   0  0  0  0  0  0  0  0  0  0  0  0
    4.5984    1.7630    0.3738 C   0  0  0  0  0  0  0  0  0  0  0  0
    1.9573   -3.3786   -0.8824 C   0  0  0  0  0  0  0  0  0  0  0  0
    0.6038   -4.4080    0.8149 C   0  0  0  0  0  0  0  0  0  0  0  0
   -4.1220    0.4175    1.1752 C   0  0  0  0  0  0  0  0  0  0  0  0
  1 11  2  0
  2  9  1  0
  2 16  1  0
  2 17  1  0
  3 10  1  0
  3 18  1  0
  3 19  1  0
  4 11  1  0
  5  6  1  0
  5  7  1  0
  5  8  1  0
  5 11  1  0
  6  9  1  0
  7 10  1  0
  8 12  2  0
  8 13  1  0
 12 14  1  0
 13 15  2  0
 14 20  2  0
 15 20  1  0
M  END
>  <PUBCHEM_COMPOUND_CID>  (1) 
18390

>  <PUBCHEM_CONFORMER_RMSD>  (1) 
0.8

>  <PUBCHEM_CONFORMER_DIVERSEORDER>  (1) 
3
68
49
43
53
82
57
33
74
24
81
19
83
26
48
69
80
42
39
64
75
71
67
79
63
60
59
13
47
45
21
61
27
8
70
50
78
29
84
41
25
6
34
73
37
76
38
62
65
10
77
35
23
18
11
36
9
5
66
52
12
17
51
1
72
58
20
44
4
54
31
30
22
28
55
40
15
56
16
46
32
14
2
7

>  <PUBCHEM_MMFF94_PARTIAL_CHARGES>  (1) 
25
1 -0.57
10 0.27
11 0.57
12 -0.15
13 -0.15
14 -0.15
15 -0.15
16 0.27
17 0.27
18 0.27
19 0.27
2 -0.81
20 -0.15
29 0.15
3 -0.81
30 0.15
31 0.37
32 0.37
33 0.15
34 0.15
4 -0.8
47 0.15
5 0.2
8 -0.14
9 0.27

>  <PUBCHEM_EFFECTIVE_ROTOR_COUNT>  (1) 
8

>  <PUBCHEM_PHARMACOPHORE_FEATURES>  (1) 
5
1 1 acceptor
1 2 cation
1 3 cation
1 4 donor
6 8 12 13 14 15 20 rings

>  <PUBCHEM_HEAVY_ATOM_COUNT>  (1) 
20

>  <PUBCHEM_ATOM_DEF_STEREO_COUNT>  (1) 
0

>  <PUBCHEM_ATOM_UDEF_STEREO_COUNT>  (1) 
0

>  <PUBCHEM_BOND_DEF_STEREO_COUNT>  (1) 
0

>  <PUBCHEM_BOND_UDEF_STEREO_COUNT>  (1) 
0

>  <PUBCHEM_ISOTOPIC_ATOM_COUNT>  (1) 
0

>  <PUBCHEM_COMPONENT_COUNT>  (1) 
1

>  <PUBCHEM_CACTVS_TAUTO_COUNT>  (1) 
2

>  <PUBCHEM_CONFORMER_ID>  (1) 
000047D600000003

>  <PUBCHEM_MMFF94_ENERGY>  (1) 
67.5924

>  <PUBCHEM_FEATURE_SELFOVERLAP>  (1) 
25.371

>  <PUBCHEM_SHAPE_FINGERPRINT>  (1) 
10756046 70 17460881949262785252
10906281 52 17603304826336565117
11578080 2 18121508955368970549
12788726 201 17548140386213074398
14178342 30 18266197152680360907
14787075 74 17556285495616334423
14817 1 10728597704419150614
14863182 85 18263383502235309003
15309172 13 18409721893989909384
15502708 68 18412259515054898818
16945 1 18410856525612412677
18915476 22 18193256525850370173
20600515 1 16258447400517512786
21524375 3 17632582677241566976
22182313 1 17823976737127189525
229495 10 18055611968152424277
23419403 2 17901944145523142405
25222932 49 15079369583827580763
2748010 2 17824544076336480349
3250762 1 17829316999972101085
539174 4 17771316739610364330
633830 44 17989495133769949836
68419 9 16269635691222294500
6992083 37 17972031710939695252
81228 2 17761185006517340762

>  <PUBCHEM_SHAPE_MULTIPOLES>  (1) 
390.78
6.1
3.95
1.99
0.04
6.73
-0.51
-3.85
3.25
-3.55
0.11
0.09
-1.03
0.5

>  <PUBCHEM_SHAPE_SELFOVERLAP>  (1) 
784.261

>  <PUBCHEM_SHAPE_VOLUME>  (1) 
231.1

>  <PUBCHEM_COORDINATE_TYPE>  (1) 
2
5
10

$$$$
