18402
     RDKit          3D

 10  9  0  0  0  0  0  0  0  0999 V2000
   -0.9758   -0.0593   -0.3760 O   0  0  0  0  0  0  0  0  0  0  0  0
   -2.6148   -0.1209    1.2393 O   0  0  0  0  0  0  0  0  0  0  0  0
   -3.1207    0.3330   -0.9574 N   0  0  0  0  0  0  0  0  0  0  0  0
    1.4136   -0.4433   -0.0307 C   0  0  0  0  0  0  0  0  0  0  0  0
    1.8277    0.8928   -0.7059 C   0  0  0  0  0  0  0  0  0  0  0  0
    0.0083   -0.3644    0.6036 C   0  0  0  0  0  0  0  0  0  0  0  0
    1.4172   -1.5383   -1.1190 C   0  0  0  0  0  0  0  0  0  0  0  0
    2.4256   -0.8423    1.0581 C   0  0  0  0  0  0  0  0  0  0  0  0
    1.8836    2.1067    0.2137 C   0  0  0  0  0  0  0  0  0  0  0  0
   -2.2648    0.0361    0.0744 C   0  0  0  0  0  0  0  0  0  0  0  0
  1  6  1  0
  1 10  1  0
  2 10  2  0
  3 10  1  0
  4  5  1  0
  4  6  1  0
  4  7  1  0
  4  8  1  0
  5  9  1  0
M  END
>  <PUBCHEM_COMPOUND_CID>  (1) 
18402

>  <PUBCHEM_CONFORMER_RMSD>  (1) 
0.6

>  <PUBCHEM_CONFORMER_DIVERSEORDER>  (1) 
1
25
5
24
27
33
31
23
29
17
34
32
15
28
30
26
19
6
13
21
14
8
18
20
3
2
22
4
12
9
16
7
11
10

>  <PUBCHEM_MMFF94_PARTIAL_CHARGES>  (1) 
7
1 -0.43
10 0.78
2 -0.57
24 0.37
25 0.37
3 -0.8
6 0.28

>  <PUBCHEM_EFFECTIVE_ROTOR_COUNT>  (1) 
4

>  <PUBCHEM_PHARMACOPHORE_FEATURES>  (1) 
4
1 2 acceptor
1 3 donor
1 9 hydrophobe
3 4 7 8 hydrophobe

>  <PUBCHEM_HEAVY_ATOM_COUNT>  (1) 
10

>  <PUBCHEM_ATOM_DEF_STEREO_COUNT>  (1) 
0

>  <PUBCHEM_ATOM_UDEF_STEREO_COUNT>  (1) 
0

>  <PUBCHEM_BOND_DEF_STEREO_COUNT>  (1) 
0

>  <PUBCHEM_BOND_UDEF_STEREO_COUNT>  (1) 
0

>  <PUBCHEM_ISOTOPIC_ATOM_COUNT>  (1) 
0

>  <PUBCHEM_COMPONENT_COUNT>  (1) 
1

>  <PUBCHEM_CACTVS_TAUTO_COUNT>  (1) 
2

>  <PUBCHEM_CONFORMER_ID>  (1) 
000047E200000001

>  <PUBCHEM_MMFF94_ENERGY>  (1) 
18.7076

>  <PUBCHEM_FEATURE_SELFOVERLAP>  (1) 
20.298

>  <PUBCHEM_SHAPE_FINGERPRINT>  (1) 
10219947 1 18342449310395193226
10857977 72 16878234176700675097
12932741 1 18040442083422172215
12932764 1 17967543375884577115
14390081 3 17894627063365530941
19973954 147 17894351077151478237
20653091 64 18040724632198826824
20711985 327 18200027335776651202
20711985 344 17474113094508781394
21524375 3 17905612460085165020
230 275 18335421321974819712
23211744 41 18115592693525646336
23235687 12 18412260640468231647
23552423 10 17775013336404988863
23552449 11 18334572425893685114
29004967 10 18340489954524891010
3248919 1 18202566172491679739
5084963 1 17846780663509804599
8030462 33 17060341812179425455

>  <PUBCHEM_SHAPE_MULTIPOLES>  (1) 
189.08
4.35
1.54
1.15
3.65
0.58
-0.06
0.43
-0.16
-1.5
0.2
0.01
-0.24
0.05

>  <PUBCHEM_SHAPE_SELFOVERLAP>  (1) 
351.869

>  <PUBCHEM_SHAPE_VOLUME>  (1) 
119.7

>  <PUBCHEM_COORDINATE_TYPE>  (1) 
2
5
10

$$$$
