18411
     RDKit          3D

 17 18  0  0  0  0  0  0  0  0999 V2000
    0.0381   -1.3862    1.8275 O   0  0  0  0  0  0  0  0  0  0  0  0
    0.7108    2.5964   -0.4426 O   0  0  0  0  0  0  0  0  0  0  0  0
   -4.1354   -1.9048   -1.0303 O   0  0  0  0  0  0  0  0  0  0  0  0
   -4.6715    0.2986   -1.1344 O   0  0  0  0  0  0  0  0  0  0  0  0
    0.0047    0.7564    0.8502 N   0  0  0  0  0  0  0  0  0  0  0  0
   -1.2344    1.2748    1.3949 C   0  0  0  0  0  0  0  0  0  0  0  0
   -2.4265    1.0634    0.4627 C   0  0  0  0  0  0  0  0  0  0  0  0
    1.7422   -0.6151    0.3711 C   0  0  0  0  0  0  0  0  0  0  0  0
    1.9426    0.5776   -0.3080 C   0  0  0  0  0  0  0  0  0  0  0  0
    0.4935   -0.5037    1.1240 C   0  0  0  0  0  0  0  0  0  0  0  0
    0.8247    1.4688    0.0009 C   0  0  0  0  0  0  0  0  0  0  0  0
   -2.7397   -0.4067    0.1724 C   0  0  0  0  0  0  0  0  0  0  0  0
    2.6338   -1.6643    0.2827 C   0  0  0  0  0  0  0  0  0  0  0  0
    3.0452    0.7840   -1.1113 C   0  0  0  0  0  0  0  0  0  0  0  0
    3.7583   -1.4781   -0.5262 C   0  0  0  0  0  0  0  0  0  0  0  0
    3.9622   -0.2657   -1.2164 C   0  0  0  0  0  0  0  0  0  0  0  0
   -3.9489   -0.5956   -0.7171 C   0  0  0  0  0  0  0  0  0  0  0  0
  1 10  2  0
  2 11  2  0
  3 17  1  0
  4 17  2  0
  5  6  1  0
  5 10  1  0
  5 11  1  0
  6  7  1  0
  7 12  1  0
  8  9  2  0
  8 10  1  0
  8 13  1  0
  9 11  1  0
  9 14  1  0
 12 17  1  0
 13 15  2  0
 14 16  2  0
 15 16  1  0
M  END
>  <PUBCHEM_COMPOUND_CID>  (1) 
18411

>  <PUBCHEM_CONFORMER_RMSD>  (1) 
0.6

>  <PUBCHEM_CONFORMER_DIVERSEORDER>  (1) 
1
17
20
19
8
9
21
18
16
10
3
2
5
7
11
6
12
15
13
14
4

>  <PUBCHEM_MMFF94_PARTIAL_CHARGES>  (1) 
21
1 -0.57
10 0.54
11 0.54
12 0.06
13 -0.15
14 -0.15
15 -0.15
16 -0.15
17 0.66
2 -0.57
24 0.15
25 0.15
26 0.15
27 0.15
28 0.5
3 -0.65
4 -0.57
5 -0.42
6 0.3
8 0.09
9 0.09

>  <PUBCHEM_EFFECTIVE_ROTOR_COUNT>  (1) 
4.2

>  <PUBCHEM_PHARMACOPHORE_FEATURES>  (1) 
7
1 1 acceptor
1 2 acceptor
1 3 acceptor
1 4 acceptor
3 3 4 17 anion
5 5 8 9 10 11 rings
6 8 9 13 14 15 16 rings

>  <PUBCHEM_HEAVY_ATOM_COUNT>  (1) 
17

>  <PUBCHEM_ATOM_DEF_STEREO_COUNT>  (1) 
0

>  <PUBCHEM_ATOM_UDEF_STEREO_COUNT>  (1) 
0

>  <PUBCHEM_BOND_DEF_STEREO_COUNT>  (1) 
0

>  <PUBCHEM_BOND_UDEF_STEREO_COUNT>  (1) 
0

>  <PUBCHEM_ISOTOPIC_ATOM_COUNT>  (1) 
0

>  <PUBCHEM_COMPONENT_COUNT>  (1) 
1

>  <PUBCHEM_CACTVS_TAUTO_COUNT>  (1) 
1

>  <PUBCHEM_CONFORMER_ID>  (1) 
000047EB00000001

>  <PUBCHEM_MMFF94_ENERGY>  (1) 
29.6884

>  <PUBCHEM_FEATURE_SELFOVERLAP>  (1) 
35.673

>  <PUBCHEM_SHAPE_FINGERPRINT>  (1) 
10498660 4 15574703712720911847
10764073 3 15223913233134830649
11086676 242 11527954422018051778
11471102 22 12607404368975464256
11578080 2 18128517306866921456
11769659 78 18059859432750966336
11806522 49 18272932751968922800
12363563 72 16343982537795292487
12390115 104 11165357529446225130
12400797 292 18338795744634878505
12633257 1 13829846967705309607
12644460 14 14189279509174241538
12730499 353 16515971363732508193
12892183 10 10375874082482174007
13583140 156 15141541258466957096
14576447 43 18413109476451212998
15210252 30 16515681109210097277
16752209 62 18129647601167949985
16945 1 17825417140372337872
18186145 218 17385737867319469266
18915474 69 18343586243550812551
19862831 5 18334573538553926331
200 152 18335710390680134242
20291156 8 18201999954073258671
20671657 53 18342176674192301837
20871999 31 18338798918710870317
21634736 98 18341049739118920799
21713013 43 18262508308412650551
221490 88 18264495168372534939
22182313 1 17755884235100410144
231179 274 15574716910807057428
23379529 103 17987247792211816671
23382010 3 17822295720532723867
23402539 116 18188219680600909740
23402655 69 18260552182035812845
23559900 14 17774714282090303640
25 1 17458349602406812649
2748010 2 17828801596034354192
276578 36 8214144062199747700
2838139 119 15358554084791736574
3060560 45 17749660865916286815
568465 68 15267342907549676431
57096353 35 18263664925682682604
6786 2 15618312791519061889

>  <PUBCHEM_SHAPE_MULTIPOLES>  (1) 
321.39
7.78
1.95
1.35
5.38
0.32
-0.23
-3.41
4.42
-0.03
0.08
0.26
-0.16
-0.91

>  <PUBCHEM_SHAPE_SELFOVERLAP>  (1) 
691.428

>  <PUBCHEM_SHAPE_VOLUME>  (1) 
179

>  <PUBCHEM_COORDINATE_TYPE>  (1) 
2
5
10

$$$$
