18413
     RDKit          3D

 28 31  0  0  0  0  0  0  0  0999 V2000
    3.4599   -1.2790    0.7381 O   0  0  0  0  0  0  0  0  0  0  0  0
   -4.6132    0.5554   -0.2417 N   0  0  0  0  0  0  0  0  0  0  0  0
   -1.9603   -0.0474    0.0809 C   0  0  0  0  0  0  0  0  0  0  0  0
   -2.8930   -1.0794   -0.0804 C   0  0  0  0  0  0  0  0  0  0  0  0
   -2.3738    1.2905    0.0784 C   0  0  0  0  0  0  0  0  0  0  0  0
   -4.2519   -0.7414   -0.2446 C   0  0  0  0  0  0  0  0  0  0  0  0
   -3.7449    1.5727   -0.0894 C   0  0  0  0  0  0  0  0  0  0  0  0
   -0.5465   -0.3688    0.2524 C   0  0  0  0  0  0  0  0  0  0  0  0
    6.7400    0.0248   -0.5653 C   0  0  0  0  0  0  0  0  0  0  0  0
    5.7235   -0.5461    0.4222 C   0  0  0  0  0  0  0  0  0  0  0  0
    8.1312    0.2275    0.0416 C   0  0  0  0  0  0  0  0  0  0  0  0
   -2.5254   -2.4345   -0.0847 C   0  0  0  0  0  0  0  0  0  0  0  0
   -1.4757    2.3580    0.2365 C   0  0  0  0  0  0  0  0  0  0  0  0
   -5.2142   -1.7437   -0.4086 C   0  0  0  0  0  0  0  0  0  0  0  0
   -4.1979    2.8963   -0.0975 C   0  0  0  0  0  0  0  0  0  0  0  0
   -6.0447    0.8808   -0.4167 C   0  0  0  0  0  0  0  0  0  0  0  0
    4.3662   -0.7607   -0.2345 C   0  0  0  0  0  0  0  0  0  0  0  0
    9.1420    0.8219   -0.9400 C   0  0  0  0  0  0  0  0  0  0  0  0
    0.2713   -0.4730   -0.8643 C   0  0  0  0  0  0  0  0  0  0  0  0
   -0.0399   -0.5654    1.5297 C   0  0  0  0  0  0  0  0  0  0  0  0
   -3.4913   -3.4293   -0.2489 C   0  0  0  0  0  0  0  0  0  0  0  0
   -1.9349    3.6766    0.2273 C   0  0  0  0  0  0  0  0  0  0  0  0
    2.1421   -0.9795    0.5784 C   0  0  0  0  0  0  0  0  0  0  0  0
   -4.8322   -3.0844   -0.4104 C   0  0  0  0  0  0  0  0  0  0  0  0
   -3.2925    3.9447    0.0607 C   0  0  0  0  0  0  0  0  0  0  0  0
    1.6221   -0.7800   -0.7005 C   0  0  0  0  0  0  0  0  0  0  0  0
    1.3109   -0.8724    1.6935 C   0  0  0  0  0  0  0  0  0  0  0  0
   10.5230    0.9357   -0.3121 C   0  0  0  0  0  0  0  0  0  0  0  0
  1 17  1  0
  1 23  1  0
  2  6  2  0
  2  7  1  0
  2 16  1  0
  3  4  2  0
  3  5  1  0
  3  8  1  0
  4  6  1  0
  4 12  1  0
  5  7  2  0
  5 13  1  0
  6 14  1  0
  7 15  1  0
  8 19  2  0
  8 20  1  0
  9 10  1  0
  9 11  1  0
 10 17  1  0
 11 18  1  0
 12 21  2  0
 13 22  2  0
 14 24  2  0
 15 25  2  0
 18 28  1  0
 19 26  1  0
 20 27  2  0
 21 24  1  0
 22 25  1  0
 23 26  2  0
 23 27  1  0
M  CHG  1   2   1
M  END
>  <PUBCHEM_COMPOUND_CID>  (1) 
18413

>  <PUBCHEM_CONFORMER_RMSD>  (1) 
0.8

>  <PUBCHEM_CONFORMER_DIVERSEORDER>  (1) 
1
7
11
5
10
8
18
2
13
9
4
6
16
12
3
19
17
14
15

>  <PUBCHEM_MMFF94_PARTIAL_CHARGES>  (1) 
31
1 -0.36
12 -0.15
13 -0.15
14 -0.15
15 -0.15
16 0.49
17 0.28
19 -0.15
2 -0.21
20 -0.15
21 -0.15
22 -0.15
23 0.08
24 -0.15
25 -0.15
26 -0.15
27 -0.15
35 0.15
36 0.15
37 0.15
38 0.15
46 0.15
47 0.15
48 0.15
49 0.15
50 0.15
51 0.15
52 0.15
53 0.15
6 0.36
7 0.36

>  <PUBCHEM_EFFECTIVE_ROTOR_COUNT>  (1) 
7

>  <PUBCHEM_PHARMACOPHORE_FEATURES>  (1) 
7
1 1 acceptor
1 28 hydrophobe
4 9 10 11 18 hydrophobe
6 2 3 4 5 6 7 rings
6 4 6 12 14 21 24 rings
6 5 7 13 15 22 25 rings
6 8 19 20 23 26 27 rings

>  <PUBCHEM_HEAVY_ATOM_COUNT>  (1) 
28

>  <PUBCHEM_ATOM_DEF_STEREO_COUNT>  (1) 
0

>  <PUBCHEM_ATOM_UDEF_STEREO_COUNT>  (1) 
0

>  <PUBCHEM_BOND_DEF_STEREO_COUNT>  (1) 
0

>  <PUBCHEM_BOND_UDEF_STEREO_COUNT>  (1) 
0

>  <PUBCHEM_ISOTOPIC_ATOM_COUNT>  (1) 
0

>  <PUBCHEM_COMPONENT_COUNT>  (1) 
1

>  <PUBCHEM_CACTVS_TAUTO_COUNT>  (1) 
1

>  <PUBCHEM_CONFORMER_ID>  (1) 
000047ED00000001

>  <PUBCHEM_MMFF94_ENERGY>  (1) 
107.268

>  <PUBCHEM_FEATURE_SELFOVERLAP>  (1) 
35.581

>  <PUBCHEM_SHAPE_FINGERPRINT>  (1) 
10076449 9 17775286088414014475
10087517 78 18260548896855602732
10319926 262 18125977435343927602
10411042 1 18123187064222882663
10454371 7 18411423895504315724
10595046 47 18335136467365379490
10669705 176 18411985733440729974
10670039 82 18408600366718567544
1100329 8 18410570700709706289
11101153 10 18336829818187917236
11315181 36 18114179756702000038
11477941 20 18341886416034117940
12082328 90 18413670206687218814
12107183 9 17686891722861552906
12236239 1 17749948856775078099
12788726 201 18334568036928278283
13140716 1 18411696630755017377
13631057 29 18409726296315758307
13690498 29 18201431531999784110
13726171 33 18196940967867338761
13911987 19 16558747880374167342
14856354 85 18339643446388518894
150020 25 17988924483978929264
15328684 2 17968641745768789928
15419008 47 17846213380631124000
1577012 14 18187081729459030850
15876981 60 18335704965683038965
16087824 20 18410852120173660605
16989713 51 17774150340168697310
16992752 21 18337955700498139695
17686467 74 18115588287759865916
19427546 20 18408884023153354381
20511986 3 17604420778687452485
20609170 92 18059586772086878326
20771845 165 18127982909691988495
21133410 32 15793421984354644907
21792961 116 17561369453332956430
22899556 105 17686918510308976863
23557571 272 18201999893796107697
23559900 14 18342728633371541307
24771293 8 18113343029566462716
249057 25 18040443213684380492
255183 451 17910665790184316847
335352 9 18411692189716550991
4073 2 18260271833106100578
445580 37 18410579470626580516
44802255 64 18060700589675606942
5080951 261 15213310762871974305
5265222 85 18343021077901376766
57634706 229 17773331027901743513
59567204 34 18411138017526892989
636775 72 18335140908836680740
6673363 416 18340214106868396556
6700243 42 17843436043590364487
7808743 9 18266455399920488497

>  <PUBCHEM_SHAPE_MULTIPOLES>  (1) 
565.38
21.78
3.77
0.96
79.37
2.25
0.25
3.83
-5.79
-8.61
-0.11
0.55
-0.2
-0.97

>  <PUBCHEM_SHAPE_SELFOVERLAP>  (1) 
1235.489

>  <PUBCHEM_SHAPE_VOLUME>  (1) 
310.2

>  <PUBCHEM_COORDINATE_TYPE>  (1) 
2
5
10

$$$$
