18425
     RDKit          3D

 24 25  0  0  0  0  0  0  0  0999 V2000
    2.0508   -1.8933   -0.9412 O   0  0  0  0  0  0  0  0  0  0  0  0
   -0.2825   -3.1522    0.0126 N   0  0  0  0  0  0  0  0  0  0  0  0
    1.8549   -0.2630    0.7395 N   0  0  0  0  0  0  0  0  0  0  0  0
   -1.0362   -2.2872   -0.9873 C   0  0  0  0  0  0  0  0  0  0  0  0
    0.5699   -2.2659    0.9093 C   0  0  0  0  0  0  0  0  0  0  0  0
   -1.9412   -1.2928   -0.2663 C   0  0  0  0  0  0  0  0  0  0  0  0
   -1.2775   -3.9276    0.8641 C   0  0  0  0  0  0  0  0  0  0  0  0
    0.6138   -4.1283   -0.7357 C   0  0  0  0  0  0  0  0  0  0  0  0
   -2.7954   -0.4001   -1.1760 C   0  0  0  0  0  0  0  0  0  0  0  0
    1.5775   -1.4721    0.1090 C   0  0  0  0  0  0  0  0  0  0  0  0
   -3.6338    0.6069   -0.4300 C   0  0  0  0  0  0  0  0  0  0  0  0
    2.7415    0.7518    0.3070 C   0  0  0  0  0  0  0  0  0  0  0  0
   -3.1093    1.8613   -0.1566 C   0  0  0  0  0  0  0  0  0  0  0  0
   -4.9158    0.2620   -0.0290 C   0  0  0  0  0  0  0  0  0  0  0  0
    2.2686    1.7665   -0.5120 C   0  0  0  0  0  0  0  0  0  0  0  0
    4.0682    0.7148    0.7099 C   0  0  0  0  0  0  0  0  0  0  0  0
   -3.8851    2.7926    0.5338 C   0  0  0  0  0  0  0  0  0  0  0  0
   -5.6916    1.1934    0.6613 C   0  0  0  0  0  0  0  0  0  0  0  0
    3.1424    2.7670   -0.9374 C   0  0  0  0  0  0  0  0  0  0  0  0
    4.9418    1.7155    0.2845 C   0  0  0  0  0  0  0  0  0  0  0  0
   -5.1762    2.4585    0.9426 C   0  0  0  0  0  0  0  0  0  0  0  0
    0.8424    1.8212   -0.9555 C   0  0  0  0  0  0  0  0  0  0  0  0
    4.5938   -0.3707    1.5926 C   0  0  0  0  0  0  0  0  0  0  0  0
    4.4790    2.7415   -0.5391 C   0  0  0  0  0  0  0  0  0  0  0  0
  1 10  2  0
  2  4  1  0
  2  5  1  0
  2  7  1  0
  2  8  1  0
  3 10  1  0
  3 12  1  0
  4  6  1  0
  5 10  1  0
  6  9  1  0
  9 11  1  0
 11 13  2  0
 11 14  1  0
 12 15  2  0
 12 16  1  0
 13 17  1  0
 14 18  2  0
 15 19  1  0
 15 22  1  0
 16 20  2  0
 16 23  1  0
 17 21  2  0
 18 21  1  0
 19 24  2  0
 20 24  1  0
M  CHG  1   2   1
M  END
>  <PUBCHEM_COMPOUND_CID>  (1) 
18425

>  <PUBCHEM_CONFORMER_RMSD>  (1) 
0.8

>  <PUBCHEM_CONFORMER_DIVERSEORDER>  (1) 
10
24
51
32
9
45
49
29
15
34
30
2
44
47
16
6
23
31
46
43
28
18
3
39
17
27
20
22
14
48
50
42
13
26
41
7
52
21
40
35
38
33
11
8
37
36
25
12
1
19
4
5

>  <PUBCHEM_MMFF94_PARTIAL_CHARGES>  (1) 
32
1 -0.57
10 0.57
11 -0.14
12 0.12
13 -0.15
14 -0.15
15 -0.14
16 -0.14
17 -0.15
18 -0.15
19 -0.15
2 -1.01
20 -0.15
21 -0.15
22 0.14
23 0.14
24 -0.15
3 -0.55
39 0.37
4 0.5
40 0.15
41 0.15
42 0.15
43 0.15
44 0.15
45 0.15
46 0.15
5 0.56
53 0.15
7 0.5
8 0.5
9 0.14

>  <PUBCHEM_EFFECTIVE_ROTOR_COUNT>  (1) 
8

>  <PUBCHEM_PHARMACOPHORE_FEATURES>  (1) 
5
1 1 acceptor
1 2 cation
1 3 donor
6 11 13 14 17 18 21 rings
6 12 15 16 19 20 24 rings

>  <PUBCHEM_HEAVY_ATOM_COUNT>  (1) 
24

>  <PUBCHEM_ATOM_DEF_STEREO_COUNT>  (1) 
0

>  <PUBCHEM_ATOM_UDEF_STEREO_COUNT>  (1) 
0

>  <PUBCHEM_BOND_DEF_STEREO_COUNT>  (1) 
0

>  <PUBCHEM_BOND_UDEF_STEREO_COUNT>  (1) 
0

>  <PUBCHEM_ISOTOPIC_ATOM_COUNT>  (1) 
0

>  <PUBCHEM_COMPONENT_COUNT>  (1) 
1

>  <PUBCHEM_CACTVS_TAUTO_COUNT>  (1) 
2

>  <PUBCHEM_CONFORMER_ID>  (1) 
000047F90000000A

>  <PUBCHEM_MMFF94_ENERGY>  (1) 
99.8439

>  <PUBCHEM_FEATURE_SELFOVERLAP>  (1) 
25.371

>  <PUBCHEM_SHAPE_FINGERPRINT>  (1) 
10382601 240 18187921712327582738
10483366 6 18195829392383004726
10493431 412 18410292540524686085
10937287 8 18412543223673066239
12107183 9 18335124390022767154
12422481 6 18044921394972736400
12633257 1 18261379062235426844
12788726 201 17469905722975637031
12978246 48 18409164424462490329
13590594 115 17475523776200940626
138480 1 17834114139281565887
14020679 6 17894911789749322642
14251764 75 18271819990615439681
14294032 229 17986680466251001487
14790565 3 18410296925502159660
14840074 17 17822016440369412684
14849402 71 18265055725997933170
15081414 286 17908705029453188926
15475509 8 18340211770353050238
18785283 64 18265332807122808203
20739085 24 18190180079452108060
22182937 141 18263362658389704367
23845131 108 18260550005284407643
245318 6 18041857214848429485
392239 28 18263372541943097667
444735 79 18118422837468957579
474 4 18409726227870107383
5048184 11 18412546522276833125
5104073 3 17898835006498767432
5895379 119 18122613110394002448
6287921 2 18338241440777665423
6371009 1 18267281262170440677
6700243 42 17191824934597483286
7064713 232 18340475729619827296
7288768 16 18187646942153562875
7808743 9 18339921631430063577
79837 15 18336546122491503659
9981440 41 18410015451099806347

>  <PUBCHEM_SHAPE_MULTIPOLES>  (1) 
478.08
11.36
4.99
1.16
5.18
4.34
0.07
-12.06
2.92
0.22
-0.3
-0.32
0.13
-1.48

>  <PUBCHEM_SHAPE_SELFOVERLAP>  (1) 
989.162

>  <PUBCHEM_SHAPE_VOLUME>  (1) 
275.4

>  <PUBCHEM_COORDINATE_TYPE>  (1) 
2
5
10

$$$$
