18444
     RDKit          3D

 13 13  0  0  0  0  0  0  0  0999 V2000
    4.2685    1.4266    1.2231 S   0  0  0  0  0  0  0  0  0  0  0  0
   -3.6157   -0.6329    0.5221 O   0  0  0  0  0  0  0  0  0  0  0  0
   -1.9010    0.8098   -0.2105 N   0  0  0  0  0  0  0  0  0  0  0  0
    2.8599    0.2778   -0.8727 N   0  0  0  0  0  0  0  0  0  0  0  0
   -0.7567    0.0126   -0.1675 C   0  0  0  0  0  0  0  0  0  0  0  0
    0.4781    0.5436   -0.5407 C   0  0  0  0  0  0  0  0  0  0  0  0
   -0.8476   -1.3159    0.2481 C   0  0  0  0  0  0  0  0  0  0  0  0
    1.6217   -0.2539   -0.4981 C   0  0  0  0  0  0  0  0  0  0  0  0
    0.2960   -2.1134    0.2906 C   0  0  0  0  0  0  0  0  0  0  0  0
    1.5306   -1.5824   -0.0825 C   0  0  0  0  0  0  0  0  0  0  0  0
   -3.2152    0.4555    0.1223 C   0  0  0  0  0  0  0  0  0  0  0  0
   -4.1688    1.6093   -0.0609 C   0  0  0  0  0  0  0  0  0  0  0  0
    3.4502    0.7634    0.0267 C   0  0  0  0  0  0  0  0  0  0  0  0
  1 13  2  0
  2 11  2  0
  3  5  1  0
  3 11  1  0
  4  8  1  0
  4 13  2  0
  5  6  2  0
  5  7  1  0
  6  8  1  0
  7  9  2  0
  8 10  2  0
  9 10  1  0
 11 12  1  0
M  END
>  <PUBCHEM_COMPOUND_CID>  (1) 
18444

>  <PUBCHEM_CONFORMER_RMSD>  (1) 
0.6

>  <PUBCHEM_CONFORMER_DIVERSEORDER>  (1) 
1
10
5
12
6
7
11
8
9
4
3
2

>  <PUBCHEM_MMFF94_PARTIAL_CHARGES>  (1) 
18
1 -0.27
10 -0.15
11 0.57
12 0.06
13 0.57
14 0.15
15 0.15
16 0.37
17 0.15
18 0.15
2 -0.57
3 -0.55
4 -0.48
5 0.12
6 -0.15
7 -0.15
8 0.18
9 -0.15

>  <PUBCHEM_EFFECTIVE_ROTOR_COUNT>  (1) 
3

>  <PUBCHEM_PHARMACOPHORE_FEATURES>  (1) 
5
1 1 acceptor
1 2 acceptor
1 3 donor
1 4 acceptor
6 5 6 7 8 9 10 rings

>  <PUBCHEM_HEAVY_ATOM_COUNT>  (1) 
13

>  <PUBCHEM_ATOM_DEF_STEREO_COUNT>  (1) 
0

>  <PUBCHEM_ATOM_UDEF_STEREO_COUNT>  (1) 
0

>  <PUBCHEM_BOND_DEF_STEREO_COUNT>  (1) 
0

>  <PUBCHEM_BOND_UDEF_STEREO_COUNT>  (1) 
0

>  <PUBCHEM_ISOTOPIC_ATOM_COUNT>  (1) 
0

>  <PUBCHEM_COMPONENT_COUNT>  (1) 
1

>  <PUBCHEM_CACTVS_TAUTO_COUNT>  (1) 
2

>  <PUBCHEM_CONFORMER_ID>  (1) 
0000480C00000001

>  <PUBCHEM_MMFF94_ENERGY>  (1) 
35.3117

>  <PUBCHEM_FEATURE_SELFOVERLAP>  (1) 
25.376

>  <PUBCHEM_SHAPE_FINGERPRINT>  (1) 
10608611 8 18189336762781989125
11132069 177 18259987071919478901
11543360 7 16271921631852490789
122479 349 18199181961795987912
12251169 10 18040991895339783820
12346645 44 18412263913301765977
13380535 76 18334860540800593274
14325111 11 18335146358284197695
14897335 6 18410853261110486438
15536298 74 18339083687653313790
16945 1 18188500175676535918
17846911 113 18411133662630190232
18186145 218 18200890490600205677
20281475 54 9223241762128455636
20645477 70 18268148643991141351
20871999 31 16415183620881078885
21452121 103 18339353046722240504
21524375 3 18410854369517951862
23382010 3 14548727452363910044
23402539 116 18342729737157199788
23500284 214 18271243927946982624
23559900 14 18342185470923264068
2748010 2 17970911059429985303
5104073 3 18262806147219793769
53812653 166 18413106190753563816
6333272 397 18338238275054796504
7364860 26 18196935470324796014
90316 7 17240751904657953060

>  <PUBCHEM_SHAPE_MULTIPOLES>  (1) 
255.55
7.53
1.87
0.87
1.17
0.57
0.07
-5.27
1.61
-0.09
0.33
-0.59
-0.13
0.69

>  <PUBCHEM_SHAPE_SELFOVERLAP>  (1) 
520.858

>  <PUBCHEM_SHAPE_VOLUME>  (1) 
148.8

>  <PUBCHEM_COORDINATE_TYPE>  (1) 
2
5
10

$$$$
