18442
     RDKit          3D

 22 23  0  0  0  0  0  0  0  0999 V2000
   -0.2679    0.4579   -1.7643 O   0  0  0  0  0  0  0  0  0  0  0  0
    1.7581    0.5670   -0.1161 O   0  0  0  0  0  0  0  0  0  0  0  0
    0.3594    2.0145    0.9959 O   0  0  0  0  0  0  0  0  0  0  0  0
    5.3369    1.2998    0.3891 N   0  0  0  0  0  0  0  0  0  0  0  0
   -0.5827    0.1821   -0.3696 C   0  0  0  0  0  0  0  0  0  0  0  0
   -0.3308   -1.3193   -0.1081 C   0  0  0  0  0  0  0  0  0  0  0  0
   -1.9767    0.5886   -0.0286 C   0  0  0  0  0  0  0  0  0  0  0  0
    0.5325    1.0496    0.2609 C   0  0  0  0  0  0  0  0  0  0  0  0
    0.1250   -1.6904    1.1285 C   0  0  0  0  0  0  0  0  0  0  0  0
   -2.9788    0.5241   -0.9968 C   0  0  0  0  0  0  0  0  0  0  0  0
   -0.5761   -2.2007   -1.1267 C   0  0  0  0  0  0  0  0  0  0  0  0
   -2.2782    1.0338    1.2586 C   0  0  0  0  0  0  0  0  0  0  0  0
    2.8894    1.2692    0.4083 C   0  0  0  0  0  0  0  0  0  0  0  0
    0.3528   -3.0463    1.3642 C   0  0  0  0  0  0  0  0  0  0  0  0
   -4.2823    0.9045   -0.6777 C   0  0  0  0  0  0  0  0  0  0  0  0
   -0.3485   -3.5565   -0.8907 C   0  0  0  0  0  0  0  0  0  0  0  0
   -3.5816    1.4143    1.5776 C   0  0  0  0  0  0  0  0  0  0  0  0
   -0.3956    1.8355   -2.0291 C   0  0  0  0  0  0  0  0  0  0  0  0
    4.1572    0.6063   -0.1061 C   0  0  0  0  0  0  0  0  0  0  0  0
    0.1160   -3.9792    0.3545 C   0  0  0  0  0  0  0  0  0  0  0  0
   -4.5836    1.3497    0.6095 C   0  0  0  0  0  0  0  0  0  0  0  0
    6.5556    0.6955   -0.1333 C   0  0  0  0  0  0  0  0  0  0  0  0
  1  5  1  0
  1 18  1  0
  2  8  1  0
  2 13  1  0
  3  8  2  0
  4 19  1  0
  4 22  1  0
  5  6  1  0
  5  7  1  0
  5  8  1  0
  6  9  2  0
  6 11  1  0
  7 10  2  0
  7 12  1  0
  9 14  1  0
 10 15  1  0
 11 16  2  0
 12 17  2  0
 13 19  1  0
 14 20  2  0
 15 21  2  0
 16 20  1  0
 17 21  1  0
M  END
>  <PUBCHEM_COMPOUND_CID>  (1) 
18442

>  <PUBCHEM_CONFORMER_RMSD>  (1) 
0.8

>  <PUBCHEM_CONFORMER_DIVERSEORDER>  (1) 
1
62
47
40
39
27
61
58
37
12
33
34
51
23
16
41
54
22
29
52
24
6
26
15
31
56
7
48
2
36
21
59
50
8
9
28
57
11
63
43
49
5
55
3
44
17
30
13
60
38
42
19
25
32
14
45
18
53
35
20
4
46
10

>  <PUBCHEM_MMFF94_PARTIAL_CHARGES>  (1) 
33
1 -0.56
10 -0.15
11 -0.15
12 -0.15
13 0.28
14 -0.15
15 -0.15
16 -0.15
17 -0.15
18 0.28
19 0.27
2 -0.43
20 -0.15
21 -0.15
22 0.27
23 0.15
24 0.15
25 0.15
26 0.15
29 0.15
3 -0.57
30 0.15
31 0.15
32 0.15
38 0.15
39 0.15
4 -0.9
40 0.36
5 0.63
6 -0.14
7 -0.14
8 0.66
9 -0.15

>  <PUBCHEM_EFFECTIVE_ROTOR_COUNT>  (1) 
8

>  <PUBCHEM_PHARMACOPHORE_FEATURES>  (1) 
6
1 1 acceptor
1 3 acceptor
1 4 cation
1 4 donor
6 6 9 11 14 16 20 rings
6 7 10 12 15 17 21 rings

>  <PUBCHEM_HEAVY_ATOM_COUNT>  (1) 
22

>  <PUBCHEM_ATOM_DEF_STEREO_COUNT>  (1) 
0

>  <PUBCHEM_ATOM_UDEF_STEREO_COUNT>  (1) 
0

>  <PUBCHEM_BOND_DEF_STEREO_COUNT>  (1) 
0

>  <PUBCHEM_BOND_UDEF_STEREO_COUNT>  (1) 
0

>  <PUBCHEM_ISOTOPIC_ATOM_COUNT>  (1) 
0

>  <PUBCHEM_COMPONENT_COUNT>  (1) 
1

>  <PUBCHEM_CACTVS_TAUTO_COUNT>  (1) 
1

>  <PUBCHEM_CONFORMER_ID>  (1) 
0000480A00000001

>  <PUBCHEM_MMFF94_ENERGY>  (1) 
72.3581

>  <PUBCHEM_FEATURE_SELFOVERLAP>  (1) 
30.446

>  <PUBCHEM_SHAPE_FINGERPRINT>  (1) 
10382601 240 18055654823298979209
10906281 52 17386012698446692405
11036077 3 18411141316340883450
11315181 36 15698005167601045696
11578080 2 17828769439245587549
12549972 3 17630035195374083184
12643181 29 18412552012194434590
12788726 201 17907565183887743434
13083527 12 17974551517066215275
13135754 10 17533797141296891122
13140716 1 18337395937231227499
13257819 101 17023446565706575759
14178342 30 18262822708666492577
14468879 13 16340010105141795016
14790565 3 18340489959084122272
14866123 147 18337952423538651146
14910302 57 12613299912386605048
15309172 13 18335419066948125761
16945 1 18191870024602866003
17980427 23 13479141172632156667
18769570 83 10951787243709352323
18915476 22 18046332051406352821
19930381 70 17697891271862274958
200 152 10592049050739936704
20197701 30 18410855468834257971
21033648 29 18336528478845537728
21421861 104 17909282286396055417
21524375 3 18413671322539906257
22224240 67 18409171021848443529
23419403 2 17764075390200061683
23558518 356 17979910832723395725
23728640 28 18338520871239634642
298252 57 16845291639785085613
3411729 13 18192153698603001401
3729539 64 18122076308312613006
3759504 43 18334015029317179298
4073 2 18269834380754359696
58260988 521 18042141932408923171
59755656 520 18412542119908519966
6669772 16 18340208497277215214
7364860 26 18125726690873627283
81228 2 17758945313825858515

>  <PUBCHEM_SHAPE_MULTIPOLES>  (1) 
430.16
8.45
3.71
1.5
12.4
5.7
0.25
-8.09
-1.13
0.32
-0.21
-0.91
-0.16
-0.42

>  <PUBCHEM_SHAPE_SELFOVERLAP>  (1) 
910.616

>  <PUBCHEM_SHAPE_VOLUME>  (1) 
238.8

>  <PUBCHEM_COORDINATE_TYPE>  (1) 
2
5
10

$$$$
