18448
     RDKit          3D

 26 28  0  0  1  0  0  0  0  0999 V2000
    1.4035    0.1209   -0.5359 O   0  0  0  0  0  0  0  0  0  0  0  0
   -0.3233   -0.4654    1.4127 O   0  0  0  0  0  0  0  0  0  0  0  0
    0.0634   -1.3837   -1.6443 O   0  0  0  0  0  0  0  0  0  0  0  0
    4.2284    0.2637    0.3427 N   0  0  0  0  0  0  0  0  0  0  0  0
    2.4997   -0.2426   -1.3735 C   0  0  0  0  0  0  0  0  0  0  0  0
    2.7918   -1.7354   -1.2383 C   0  0  0  0  0  0  0  0  0  0  0  0
    3.7148    0.6098   -0.9928 C   0  0  0  0  0  0  0  0  0  0  0  0
    3.3949   -2.0530    0.1272 C   0  0  0  0  0  0  0  0  0  0  0  0
    4.5966   -1.1558    0.4238 C   0  0  0  0  0  0  0  0  0  0  0  0
   -0.8799   -0.0229    0.1581 C   0  0  0  0  0  0  0  0  0  0  0  0
    5.3708    1.1100    0.6868 C   0  0  0  0  0  0  0  0  0  0  0  0
    0.2201   -0.5331   -0.7764 C   0  0  0  0  0  0  0  0  0  0  0  0
   -2.2455   -0.6741   -0.0744 C   0  0  0  0  0  0  0  0  0  0  0  0
   -0.9956    1.5030    0.1562 C   0  0  0  0  0  0  0  0  0  0  0  0
   -2.6364   -0.9407   -1.3663 C   0  0  0  0  0  0  0  0  0  0  0  0
   -1.2418    2.1463    1.3473 C   0  0  0  0  0  0  0  0  0  0  0  0
   -3.0291   -0.9681    1.0175 C   0  0  0  0  0  0  0  0  0  0  0  0
   -0.8485    2.1734   -1.0363 C   0  0  0  0  0  0  0  0  0  0  0  0
   -0.1560   -1.8690    1.4192 C   0  0  0  0  0  0  0  0  0  0  0  0
   -3.8806   -1.5343   -1.5782 C   0  0  0  0  0  0  0  0  0  0  0  0
   -1.3471    3.5372    1.3458 C   0  0  0  0  0  0  0  0  0  0  0  0
   -4.2734   -1.5619    0.8054 C   0  0  0  0  0  0  0  0  0  0  0  0
   -0.9537    3.5644   -1.0378 C   0  0  0  0  0  0  0  0  0  0  0  0
    0.4288   -2.2898    2.7506 C   0  0  0  0  0  0  0  0  0  0  0  0
   -4.6991   -1.8449   -0.4924 C   0  0  0  0  0  0  0  0  0  0  0  0
   -1.2030    4.2461    0.1534 C   0  0  0  0  0  0  0  0  0  0  0  0
  1  5  1  0
  1 12  1  0
  2 10  1  0
  2 19  1  0
  3 12  2  0
  4  7  1  0
  4  9  1  0
  4 11  1  0
  5  6  1  0
  5  7  1  0
  6  8  1  0
  8  9  1  0
 10 12  1  0
 10 13  1  0
 10 14  1  0
 13 15  2  0
 13 17  1  0
 14 16  2  0
 14 18  1  0
 15 20  1  0
 16 21  1  0
 17 22  2  0
 18 23  2  0
 19 24  1  0
 20 25  2  0
 21 26  2  0
 22 25  1  0
 23 26  1  0
M  END
>  <PUBCHEM_COMPOUND_CID>  (1) 
18448

>  <PUBCHEM_CONFORMER_RMSD>  (1) 
0.8

>  <PUBCHEM_CONFORMER_DIVERSEORDER>  (1) 
1
18
54
90
62
67
77
42
55
40
6
23
83
86
25
65
89
20
61
43
78
21
81
15
79
41
32
30
31
57
53
73
9
75
63
36
87
34
3
51
2
66
44
39
35
46
19
27
47
56
52
4
17
80
7
38
85
10
71
70
76
33
82
72
29
60
84
68
88
58
49
24
74
11
69
5
45
26
48
64
13
28
59
14
50
37
22
8
16
12

>  <PUBCHEM_MMFF94_PARTIAL_CHARGES>  (1) 
33
1 -0.43
10 0.63
11 0.27
12 0.66
13 -0.14
14 -0.14
15 -0.15
16 -0.15
17 -0.15
18 -0.15
19 0.28
2 -0.56
20 -0.15
21 -0.15
22 -0.15
23 -0.15
25 -0.15
26 -0.15
3 -0.57
39 0.15
4 -0.81
40 0.15
41 0.15
42 0.15
45 0.15
46 0.15
47 0.15
48 0.15
5 0.28
52 0.15
53 0.15
7 0.27
9 0.27

>  <PUBCHEM_EFFECTIVE_ROTOR_COUNT>  (1) 
8.2

>  <PUBCHEM_PHARMACOPHORE_FEATURES>  (1) 
6
1 2 acceptor
1 3 acceptor
1 4 cation
6 13 15 17 20 22 25 rings
6 14 16 18 21 23 26 rings
6 4 5 6 7 8 9 rings

>  <PUBCHEM_HEAVY_ATOM_COUNT>  (1) 
26

>  <PUBCHEM_ATOM_DEF_STEREO_COUNT>  (1) 
0

>  <PUBCHEM_ATOM_UDEF_STEREO_COUNT>  (1) 
1

>  <PUBCHEM_BOND_DEF_STEREO_COUNT>  (1) 
0

>  <PUBCHEM_BOND_UDEF_STEREO_COUNT>  (1) 
0

>  <PUBCHEM_ISOTOPIC_ATOM_COUNT>  (1) 
0

>  <PUBCHEM_COMPONENT_COUNT>  (1) 
1

>  <PUBCHEM_CACTVS_TAUTO_COUNT>  (1) 
1

>  <PUBCHEM_CONFORMER_ID>  (1) 
0000481000000001

>  <PUBCHEM_MMFF94_ENERGY>  (1) 
84.1856

>  <PUBCHEM_FEATURE_SELFOVERLAP>  (1) 
30.447

>  <PUBCHEM_SHAPE_FINGERPRINT>  (1) 
10366900 7 18337400434915794520
10670039 82 18338814385706255580
10906281 52 18191324851435057220
10930396 42 17905854279966481904
11045515 52 18409443726290880829
11101153 10 18338244851372647540
11578080 2 17274244059721338313
12035759 4 17970618602533037215
12107698 1 18411698756373763242
12403814 3 18060416910916247551
12422481 6 17911274678927938825
12553582 1 18269291194942676751
12788726 201 18335148600309958076
13004483 165 18342173349987672839
131258 38 16092415492292791995
13134695 92 18267867370867194621
13149001 5 17900264409694393107
13583140 156 17487596564920280794
13681431 1 18196381544155439085
13911987 19 18116728497885894222
14178342 30 18117559531445411854
14787075 74 18189332544797037106
14840074 17 18058734752868186732
14943834 7 17754726140023673843
15420108 30 17181362608775439956
15840311 113 17201669773066103627
17349148 13 17967537874174019150
17492 89 18340486643353720870
17980427 23 17060066994950656333
1813 80 18272100447536506311
18393751 57 17984691471491144544
18769570 83 18335984190867194485
192875 21 18113900472627732238
20600515 1 17968950797733079189
21304303 282 17758085156684203501
21524375 3 17687484367991920253
229495 10 17274540914854765998
23402539 116 18410012151942482263
23419403 2 18196069235461291933
23557571 272 18341610395501699374
23558518 356 18189345575927954902
23559900 14 17823424962583570798
283562 15 18334290946500688154
312423 11 18263377927510002142
3380486 77 17313109682744921798
34934 24 18339930320866224121
3633792 109 17458621216460638054
6004065 56 18195239151611239335
6913067 236 17916850400796856078
70251023 43 18200336384411845294
7164475 11 18339083683511100214
7226269 152 18114457959113779402
7399639 24 18131634478545243630
81228 2 18263103066213383580

>  <PUBCHEM_SHAPE_MULTIPOLES>  (1) 
512.48
8.21
4.06
1.85
6.53
5.39
0.55
-4.44
-0.65
-2.49
0.81
-0.31
-0.75
-0.45

>  <PUBCHEM_SHAPE_SELFOVERLAP>  (1) 
1094.938

>  <PUBCHEM_SHAPE_VOLUME>  (1) 
282.6

>  <PUBCHEM_COORDINATE_TYPE>  (1) 
2
5
10

$$$$
