18450
     RDKit          3D

 11 11  0  0  0  0  0  0  0  0999 V2000
    3.4743    0.0004    0.0005 Cl  0  0  0  0  0  0  0  0  0  0  0  0
   -0.8649   -2.3132   -0.0001 O   0  0  0  0  0  0  0  0  0  0  0  0
   -0.8656    2.3131    0.0001 O   0  0  0  0  0  0  0  0  0  0  0  0
   -0.9150   -0.0001   -0.0001 N   0  0  0  0  0  0  0  0  0  0  0  0
    1.1629    1.1999    0.0002 N   0  0  0  0  0  0  0  0  0  0  0  0
    1.1632   -1.1996   -0.0005 N   0  0  0  0  0  0  0  0  0  0  0  0
   -0.1773   -1.1222   -0.0004 C   0  0  0  0  0  0  0  0  0  0  0  0
   -0.1777    1.1221    0.0001 C   0  0  0  0  0  0  0  0  0  0  0  0
    1.7660    0.0003   -0.0003 C   0  0  0  0  0  0  0  0  0  0  0  0
   -2.2827   -2.2280    0.0007 C   0  0  0  0  0  0  0  0  0  0  0  0
   -2.2833    2.2275   -0.0002 C   0  0  0  0  0  0  0  0  0  0  0  0
  1  9  1  0
  2  7  1  0
  2 10  1  0
  3  8  1  0
  3 11  1  0
  4  7  2  0
  4  8  1  0
  5  8  2  0
  5  9  1  0
  6  7  1  0
  6  9  2  0
M  END
>  <PUBCHEM_COMPOUND_CID>  (1) 
18450

>  <PUBCHEM_CONFORMER_RMSD>  (1) 
0.4

>  <PUBCHEM_CONFORMER_DIVERSEORDER>  (1) 
1
2
3

>  <PUBCHEM_MMFF94_PARTIAL_CHARGES>  (1) 
11
1 -0.18
10 0.28
11 0.28
2 -0.36
3 -0.36
4 -0.62
5 -0.62
6 -0.62
7 0.7
8 0.7
9 0.8

>  <PUBCHEM_EFFECTIVE_ROTOR_COUNT>  (1) 
2

>  <PUBCHEM_PHARMACOPHORE_FEATURES>  (1) 
4
3 4 5 8 cation
3 4 6 7 cation
3 5 6 9 cation
6 4 5 6 7 8 9 rings

>  <PUBCHEM_HEAVY_ATOM_COUNT>  (1) 
11

>  <PUBCHEM_ATOM_DEF_STEREO_COUNT>  (1) 
0

>  <PUBCHEM_ATOM_UDEF_STEREO_COUNT>  (1) 
0

>  <PUBCHEM_BOND_DEF_STEREO_COUNT>  (1) 
0

>  <PUBCHEM_BOND_UDEF_STEREO_COUNT>  (1) 
0

>  <PUBCHEM_ISOTOPIC_ATOM_COUNT>  (1) 
0

>  <PUBCHEM_COMPONENT_COUNT>  (1) 
1

>  <PUBCHEM_CACTVS_TAUTO_COUNT>  (1) 
1

>  <PUBCHEM_CONFORMER_ID>  (1) 
0000481200000001

>  <PUBCHEM_MMFF94_ENERGY>  (1) 
30.6857

>  <PUBCHEM_FEATURE_SELFOVERLAP>  (1) 
23.07

>  <PUBCHEM_SHAPE_FINGERPRINT>  (1) 
1 1 17689154513216427564
13380535 76 18197490727949163454
16945 1 18410573989646859014
193761 8 18410573985452118502
20871998 184 18273216434527110342
21040471 1 18266740173595248644
23530152 11 18122908620848692829
241688 4 18194684988780636698
2748010 2 18049453547236462415
81228 2 18409452522014410314

>  <PUBCHEM_SHAPE_MULTIPOLES>  (1) 
201.56
3.69
2.85
0.58
2.51
0
0
0
0
-2.86
0
0.02
0
0

>  <PUBCHEM_SHAPE_SELFOVERLAP>  (1) 
401.003

>  <PUBCHEM_SHAPE_VOLUME>  (1) 
120.6

>  <PUBCHEM_COORDINATE_TYPE>  (1) 
2
5
10

$$$$
