18452
     RDKit          3D

  7  7  0  0  0  0  0  0  0  0999 V2000
   -1.8257    1.7901    0.0000 Br  0  0  0  0  0  0  0  0  0  0  0  0
   -1.8263   -1.7896    0.0001 Br  0  0  0  0  0  0  0  0  0  0  0  0
    2.1944   -0.0002    0.0001 S   0  0  0  0  0  0  0  0  0  0  0  0
   -0.2738    0.7125   -0.0001 C   0  0  0  0  0  0  0  0  0  0  0  0
   -0.2741   -0.7124    0.0000 C   0  0  0  0  0  0  0  0  0  0  0  0
    1.0029    1.2296    0.0000 C   0  0  0  0  0  0  0  0  0  0  0  0
    1.0026   -1.2299   -0.0001 C   0  0  0  0  0  0  0  0  0  0  0  0
  1  4  1  0
  2  5  1  0
  3  6  1  0
  3  7  1  0
  4  5  1  0
  4  6  2  0
  5  7  2  0
M  END
>  <PUBCHEM_COMPOUND_CID>  (1) 
18452

>  <PUBCHEM_CONFORMER_RMSD>  (1) 
0.4

>  <PUBCHEM_CONFORMER_DIVERSEORDER>  (1) 
1

>  <PUBCHEM_MMFF94_PARTIAL_CHARGES>  (1) 
9
1 -0.06
2 -0.06
3 -0.08
4 0.06
5 0.06
6 -0.11
7 -0.11
8 0.15
9 0.15

>  <PUBCHEM_EFFECTIVE_ROTOR_COUNT>  (1) 
0

>  <PUBCHEM_PHARMACOPHORE_FEATURES>  (1) 
3
1 1 hydrophobe
1 2 hydrophobe
5 3 4 5 6 7 rings

>  <PUBCHEM_HEAVY_ATOM_COUNT>  (1) 
7

>  <PUBCHEM_ATOM_DEF_STEREO_COUNT>  (1) 
0

>  <PUBCHEM_ATOM_UDEF_STEREO_COUNT>  (1) 
0

>  <PUBCHEM_BOND_DEF_STEREO_COUNT>  (1) 
0

>  <PUBCHEM_BOND_UDEF_STEREO_COUNT>  (1) 
0

>  <PUBCHEM_ISOTOPIC_ATOM_COUNT>  (1) 
0

>  <PUBCHEM_COMPONENT_COUNT>  (1) 
1

>  <PUBCHEM_CACTVS_TAUTO_COUNT>  (1) 
1

>  <PUBCHEM_CONFORMER_ID>  (1) 
0000481400000001

>  <PUBCHEM_MMFF94_ENERGY>  (1) 
4.0825

>  <PUBCHEM_FEATURE_SELFOVERLAP>  (1) 
15.223

>  <PUBCHEM_SHAPE_FINGERPRINT>  (1) 
18185500 45 17764873884796922127
21040471 1 18266741272911743076
23552423 10 18260553329198321070
29004967 10 17903356253223343707

>  <PUBCHEM_SHAPE_MULTIPOLES>  (1) 
159.79
2.78
2.25
0.67
0.26
0
0
0
0
-1.5
0
-0.04
0
0

>  <PUBCHEM_SHAPE_SELFOVERLAP>  (1) 
285.022

>  <PUBCHEM_SHAPE_VOLUME>  (1) 
108.3

>  <PUBCHEM_COORDINATE_TYPE>  (1) 
2
5
10

$$$$
