18457
     RDKit          3D

 28 29  0  0  1  0  0  0  0  0999 V2000
    0.5626   -0.9608   -0.7576 O   0  0  0  0  0  0  0  0  0  0  0  0
   -1.3588    0.5830    0.2238 O   0  0  0  0  0  0  0  0  0  0  0  0
   -0.2326    0.0777    2.1640 O   0  0  0  0  0  0  0  0  0  0  0  0
   -4.9436    1.2776    0.7419 N   0  0  0  0  0  0  0  0  0  0  0  0
   -0.1140   -3.2973   -0.8397 C   0  0  0  0  0  0  0  0  0  0  0  0
    0.9768    0.1424    0.0372 C   0  0  0  0  0  0  0  0  0  0  0  0
    0.3320   -2.1175    0.0343 C   0  0  0  0  0  0  0  0  0  0  0  0
   -1.4538   -3.0526   -1.5637 C   0  0  0  0  0  0  0  0  0  0  0  0
   -2.6209   -2.7847   -0.6107 C   0  0  0  0  0  0  0  0  0  0  0  0
    0.9664   -3.6281   -1.8761 C   0  0  0  0  0  0  0  0  0  0  0  0
    2.2760   -0.1937    0.7735 C   0  0  0  0  0  0  0  0  0  0  0  0
    1.1559    1.3767   -0.8495 C   0  0  0  0  0  0  0  0  0  0  0  0
   -0.2479    0.2435    0.9500 C   0  0  0  0  0  0  0  0  0  0  0  0
   -3.9316   -2.6337   -1.3682 C   0  0  0  0  0  0  0  0  0  0  0  0
    2.4974    0.3704    2.0087 C   0  0  0  0  0  0  0  0  0  0  0  0
    1.5702    1.1992   -2.1495 C   0  0  0  0  0  0  0  0  0  0  0  0
    3.1721   -1.0467    0.1720 C   0  0  0  0  0  0  0  0  0  0  0  0
    0.8960    2.6166   -0.3130 C   0  0  0  0  0  0  0  0  0  0  0  0
   -2.5657    0.7457    0.9756 C   0  0  0  0  0  0  0  0  0  0  0  0
    3.6813    0.0642    2.6797 C   0  0  0  0  0  0  0  0  0  0  0  0
    1.7334    2.3241   -2.9579 C   0  0  0  0  0  0  0  0  0  0  0  0
    4.3560   -1.3529    0.8431 C   0  0  0  0  0  0  0  0  0  0  0  0
    1.0594    3.7416   -1.1214 C   0  0  0  0  0  0  0  0  0  0  0  0
   -3.6891    1.1185    0.0214 C   0  0  0  0  0  0  0  0  0  0  0  0
    4.6106   -0.7974    2.0970 C   0  0  0  0  0  0  0  0  0  0  0  0
    1.4780    3.5954   -2.4439 C   0  0  0  0  0  0  0  0  0  0  0  0
   -5.3219    0.0279    1.4063 C   0  0  0  0  0  0  0  0  0  0  0  0
   -4.8440    2.3612    1.7227 C   0  0  0  0  0  0  0  0  0  0  0  0
  1  6  1  0
  1  7  1  0
  2 13  1  0
  2 19  1  0
  3 13  2  0
  4 24  1  0
  4 27  1  0
  4 28  1  0
  5  7  1  0
  5  8  1  0
  5 10  1  0
  6 11  1  0
  6 12  1  0
  6 13  1  0
  8  9  1  0
  9 14  1  0
 11 15  2  0
 11 17  1  0
 12 16  2  0
 12 18  1  0
 15 20  1  0
 16 21  1  0
 17 22  2  0
 18 23  2  0
 19 24  1  0
 20 25  2  0
 21 26  2  0
 22 25  1  0
 23 26  1  0
M  END
>  <PUBCHEM_COMPOUND_CID>  (1) 
18457

>  <PUBCHEM_CONFORMER_RMSD>  (1) 
1

>  <PUBCHEM_CONFORMER_DIVERSEORDER>  (1) 
1
80
57
142
54
21
130
116
55
119
160
32
6
78
4
138
93
169
148
70
140
147
108
61
5
10
155
154
59
24
52
144
49
94
135
2
104
26
92
88
145
133
75
50
63
29
137
30
126
74
66
35
68
170
45
159
101
56
103
165
53
105
164
81
37
48
118
97
95
161
96
11
43
67
121
46
22
124
150
110
82
62
156
134
13
47
111
19
69
38
122
79
162
64
157
89
9
71
132
173
83
42
98
149
73
125
91
58
8
146
84
76
113
14
85
136
163
12
20
141
117
107
128
115
34
139
102
129
158
39
112
87
72
40
114
143
100
152
51
167
25
18
41
109
106
31
28
3
151
33
120
99
153
166
174
127
60
168
23
65
7
172
131
27
36
86
15
171
44
17
16
77
123
90

>  <PUBCHEM_MMFF94_PARTIAL_CHARGES>  (1) 
33
1 -0.56
11 -0.14
12 -0.14
13 0.66
15 -0.15
16 -0.15
17 -0.15
18 -0.15
19 0.28
2 -0.43
20 -0.15
21 -0.15
22 -0.15
23 -0.15
24 0.27
25 -0.15
26 -0.15
27 0.27
28 0.27
3 -0.57
4 -0.81
42 0.15
43 0.15
44 0.15
45 0.15
48 0.15
49 0.15
50 0.15
51 0.15
54 0.15
55 0.15
6 0.63
7 0.28

>  <PUBCHEM_EFFECTIVE_ROTOR_COUNT>  (1) 
12

>  <PUBCHEM_PHARMACOPHORE_FEATURES>  (1) 
7
1 1 acceptor
1 10 hydrophobe
1 14 hydrophobe
1 3 acceptor
1 4 cation
6 11 15 17 20 22 25 rings
6 12 16 18 21 23 26 rings

>  <PUBCHEM_HEAVY_ATOM_COUNT>  (1) 
28

>  <PUBCHEM_ATOM_DEF_STEREO_COUNT>  (1) 
0

>  <PUBCHEM_ATOM_UDEF_STEREO_COUNT>  (1) 
1

>  <PUBCHEM_BOND_DEF_STEREO_COUNT>  (1) 
0

>  <PUBCHEM_BOND_UDEF_STEREO_COUNT>  (1) 
0

>  <PUBCHEM_ISOTOPIC_ATOM_COUNT>  (1) 
0

>  <PUBCHEM_COMPONENT_COUNT>  (1) 
1

>  <PUBCHEM_CACTVS_TAUTO_COUNT>  (1) 
1

>  <PUBCHEM_CONFORMER_ID>  (1) 
0000481900000001

>  <PUBCHEM_MMFF94_ENERGY>  (1) 
89.1988

>  <PUBCHEM_FEATURE_SELFOVERLAP>  (1) 
35.521

>  <PUBCHEM_SHAPE_FINGERPRINT>  (1) 
10165383 225 18201157634262729250
10756046 70 18261116308963111116
10764073 3 17773306843077873718
11513181 2 17274528846081905319
11578080 2 15263722370246351192
12035759 4 17904201778123721252
12160290 23 17558006197118355955
12293681 160 16678943544837938485
12422481 6 18124858080487488082
12633257 1 17895771608010352945
12788726 201 17839473520259931455
12977781 61 16272214119172737670
13009979 54 17978210987726229222
13134695 92 17749387061640650636
133893 2 17242999418400036668
13965767 371 18197202655596900338
14178342 30 18272647944340202939
144659 178 18201433705511315473
14863182 85 18199763452753915431
14943834 7 18048032166754726628
14955137 171 18260840267088335904
15420108 30 18338520845285636724
15775530 1 17185021774782094812
15849732 13 18408046195387720108
17818456 19 18127115605544949111
17980427 23 18335975471407947648
17980427 26 17242469432304651812
18681886 176 18267325229603314132
19319366 153 17108186240207852407
20600515 1 17846497032481176169
20739085 24 17908444462904172163
21033648 29 18128235814810198321
22182313 1 17903917751873406045
23419403 2 17335050158183354524
23559900 14 18052837862166891089
25222932 49 16816055862248548803
3380486 145 17971449854529486389
3380486 77 17314809403009468528
338550 245 18342181076961106647
394222 165 17970655062316104864
4340502 62 17774714256262464587
513202 73 17609201369567593546
5895379 119 18271532012540615381
9999458 23 17846493678327378368

>  <PUBCHEM_SHAPE_MULTIPOLES>  (1) 
553.64
8.21
4.63
2.77
8.43
0.3
-0.32
-0.27
6.22
0.87
-4.2
-1.82
-1.08
-3.62

>  <PUBCHEM_SHAPE_SELFOVERLAP>  (1) 
1149.099

>  <PUBCHEM_SHAPE_VOLUME>  (1) 
316.1

>  <PUBCHEM_COORDINATE_TYPE>  (1) 
2
5
10

$$$$
