18459
     RDKit          3D

 18 18  0  0  0  0  0  0  0  0999 V2000
   -3.5394    0.1518   -0.0035 O   0  0  0  0  0  0  0  0  0  0  0  0
    3.5393    0.1517    0.0034 O   0  0  0  0  0  0  0  0  0  0  0  0
   -2.5643   -1.9333   -0.0032 O   0  0  0  0  0  0  0  0  0  0  0  0
    2.5645   -1.9335    0.0035 O   0  0  0  0  0  0  0  0  0  0  0  0
   -1.2081    0.0276   -0.0009 C   0  0  0  0  0  0  0  0  0  0  0  0
    1.2080    0.0273    0.0014 C   0  0  0  0  0  0  0  0  0  0  0  0
   -5.8881    0.6565   -0.0046 C   0  0  0  0  0  0  0  0  0  0  0  0
    5.8879    0.6566    0.0039 C   0  0  0  0  0  0  0  0  0  0  0  0
   -4.8402   -0.4460   -0.0042 C   0  0  0  0  0  0  0  0  0  0  0  0
    4.8402   -0.4459    0.0038 C   0  0  0  0  0  0  0  0  0  0  0  0
   -0.0002   -0.6701    0.0002 C   0  0  0  0  0  0  0  0  0  0  0  0
   -1.2078    1.4226   -0.0009 C   0  0  0  0  0  0  0  0  0  0  0  0
    1.2080    1.4222    0.0013 C   0  0  0  0  0  0  0  0  0  0  0  0
   -2.4679   -0.6989   -0.0030 C   0  0  0  0  0  0  0  0  0  0  0  0
    2.4680   -0.6992    0.0032 C   0  0  0  0  0  0  0  0  0  0  0  0
    0.0002    2.1199    0.0003 C   0  0  0  0  0  0  0  0  0  0  0  0
   -7.2986    0.0952    0.0099 C   0  0  0  0  0  0  0  0  0  0  0  0
    7.2985    0.0954   -0.0108 C   0  0  0  0  0  0  0  0  0  0  0  0
  1  9  1  0
  1 14  1  0
  2 10  1  0
  2 15  1  0
  3 14  2  0
  4 15  2  0
  5 11  2  0
  5 12  1  0
  5 14  1  0
  6 11  1  0
  6 13  2  0
  6 15  1  0
  7  9  1  0
  7 17  1  0
  8 10  1  0
  8 18  1  0
 12 16  2  0
 13 16  1  0
M  END
>  <PUBCHEM_COMPOUND_CID>  (1) 
18459

>  <PUBCHEM_CONFORMER_RMSD>  (1) 
0.8

>  <PUBCHEM_CONFORMER_DIVERSEORDER>  (1) 
3
81
121
80
11
17
62
9
91
84
1
60
79
15
99
74
72
46
10
101
66
122
73
115
6
103
23
63
55
64
22
89
107
116
37
109
111
59
18
69
25
83
102
105
88
56
75
41
98
90
104
120
119
97
61
58
57
20
106
76
29
47
30
19
28
82
42
45
108
34
5
40
118
52
71
95
32
86
43
110
114
100
70
36
33
21
77
113
94
31
92
78
26
68
24
16
112
7
48
49
35
54
53
50
8
85
4
93
44
96
51
13
2
65
38
12
67
27
39
14
117
87

>  <PUBCHEM_MMFF94_PARTIAL_CHARGES>  (1) 
18
1 -0.43
10 0.28
11 -0.15
12 -0.15
13 -0.15
14 0.63
15 0.63
16 -0.15
2 -0.43
27 0.15
28 0.15
29 0.15
3 -0.57
30 0.15
4 -0.57
5 0.09
6 0.09
9 0.28

>  <PUBCHEM_EFFECTIVE_ROTOR_COUNT>  (1) 
8

>  <PUBCHEM_PHARMACOPHORE_FEATURES>  (1) 
5
1 17 hydrophobe
1 18 hydrophobe
1 3 acceptor
1 4 acceptor
6 5 6 11 12 13 16 rings

>  <PUBCHEM_HEAVY_ATOM_COUNT>  (1) 
18

>  <PUBCHEM_ATOM_DEF_STEREO_COUNT>  (1) 
0

>  <PUBCHEM_ATOM_UDEF_STEREO_COUNT>  (1) 
0

>  <PUBCHEM_BOND_DEF_STEREO_COUNT>  (1) 
0

>  <PUBCHEM_BOND_UDEF_STEREO_COUNT>  (1) 
0

>  <PUBCHEM_ISOTOPIC_ATOM_COUNT>  (1) 
0

>  <PUBCHEM_COMPONENT_COUNT>  (1) 
1

>  <PUBCHEM_CACTVS_TAUTO_COUNT>  (1) 
1

>  <PUBCHEM_CONFORMER_ID>  (1) 
0000481B00000003

>  <PUBCHEM_MMFF94_ENERGY>  (1) 
36.8969

>  <PUBCHEM_FEATURE_SELFOVERLAP>  (1) 
25.371

>  <PUBCHEM_SHAPE_FINGERPRINT>  (1) 
10906281 52 18338536182322823170
10968037 39 18411138043464962767
12516196 113 18202281411464158537
12815109 37 18410575084663085415
12838862 33 18338780278199156737
13533116 47 17417813885519247191
14123256 10 18410012135474620140
14251764 18 18411982460290417809
14251764 46 18410573989446424939
15048467 5 18410573985151483620
167882 2 17753059572770896100
17834072 8 18409445891291819413
17834076 25 18410855464428403862
18006028 8 18131631183762235649
19141452 34 18272649078079850023
200 152 18273211997562032272
20238998 120 18333448737801211357
20612939 158 18187089498174518517
21267235 1 18410581686027851841
21304253 13 18272370879989691105
22224240 67 17131827677445900310
23035841 295 18408602561404372018
23402539 116 18410006672118198110
23521765 1 18341895190345678853
23536379 177 15719105846960361165
23557571 272 18201163161574649540
23559900 14 18270955859889777497
23622692 118 17914324930294697495
23622692 88 15697996353241503148
26918003 58 17749113304724984402
335352 9 18410855494493305253
347723 3 16515402966979930745
34934 24 18410852165888797922
3545911 37 18410855460128168294
4325135 7 18335141990703436468
4340502 62 16443064989103309282
4463277 17 18410855460128473605
5486654 2 18410298025672572806
59755656 215 18410580548653296742
8209 1 18410855460128168308

>  <PUBCHEM_SHAPE_MULTIPOLES>  (1) 
346.95
16.5
1.58
0.6
0
0.14
0
-0.05
0
0
0
0
0.02
0

>  <PUBCHEM_SHAPE_SELFOVERLAP>  (1) 
702.826

>  <PUBCHEM_SHAPE_VOLUME>  (1) 
203

>  <PUBCHEM_COORDINATE_TYPE>  (1) 
2
5
10

$$$$
