18464
     RDKit          3D

 12 12  0  0  0  0  0  0  0  0999 V2000
    2.0819    2.8587   -0.1124 Br  0  0  0  0  0  0  0  0  0  0  0  0
    2.5634   -2.7902    0.1168 Br  0  0  0  0  0  0  0  0  0  0  0  0
   -0.9372    2.1343   -0.0738 O   0  0  0  0  0  0  0  0  0  0  0  0
   -2.5678   -1.5600   -0.5484 O   0  0  0  0  0  0  0  0  0  0  0  0
   -2.9730    0.4122    0.5065 O   0  0  0  0  0  0  0  0  0  0  0  0
   -0.7219   -0.2375    0.0223 C   0  0  0  0  0  0  0  0  0  0  0  0
   -0.1382    1.0283   -0.0311 C   0  0  0  0  0  0  0  0  0  0  0  0
    0.0834   -1.3755    0.0663 C   0  0  0  0  0  0  0  0  0  0  0  0
    1.2508    1.1560   -0.0403 C   0  0  0  0  0  0  0  0  0  0  0  0
    1.4724   -1.2478    0.0571 C   0  0  0  0  0  0  0  0  0  0  0  0
    2.0561    0.0180    0.0038 C   0  0  0  0  0  0  0  0  0  0  0  0
   -2.1700   -0.3965    0.0333 C   0  0  0  0  0  0  0  0  0  0  0  0
  1  9  1  0
  2 10  1  0
  3  7  1  0
  4 12  1  0
  5 12  2  0
  6  7  2  0
  6  8  1  0
  6 12  1  0
  7  9  1  0
  8 10  2  0
  9 11  2  0
 10 11  1  0
M  END
>  <PUBCHEM_COMPOUND_CID>  (1) 
18464

>  <PUBCHEM_CONFORMER_RMSD>  (1) 
0.4

>  <PUBCHEM_CONFORMER_DIVERSEORDER>  (1) 
1
2
3

>  <PUBCHEM_MMFF94_PARTIAL_CHARGES>  (1) 
16
1 -0.11
10 0.11
11 -0.15
12 0.63
13 0.15
14 0.15
15 0.45
16 0.5
2 -0.11
3 -0.53
4 -0.65
5 -0.57
6 0.09
7 0.08
8 -0.15
9 0.11

>  <PUBCHEM_EFFECTIVE_ROTOR_COUNT>  (1) 
1

>  <PUBCHEM_PHARMACOPHORE_FEATURES>  (1) 
7
1 1 hydrophobe
1 2 hydrophobe
1 3 donor
1 4 acceptor
1 5 acceptor
3 4 5 12 anion
6 6 7 8 9 10 11 rings

>  <PUBCHEM_HEAVY_ATOM_COUNT>  (1) 
12

>  <PUBCHEM_ATOM_DEF_STEREO_COUNT>  (1) 
0

>  <PUBCHEM_ATOM_UDEF_STEREO_COUNT>  (1) 
0

>  <PUBCHEM_BOND_DEF_STEREO_COUNT>  (1) 
0

>  <PUBCHEM_BOND_UDEF_STEREO_COUNT>  (1) 
0

>  <PUBCHEM_ISOTOPIC_ATOM_COUNT>  (1) 
0

>  <PUBCHEM_COMPONENT_COUNT>  (1) 
1

>  <PUBCHEM_CACTVS_TAUTO_COUNT>  (1) 
4

>  <PUBCHEM_CONFORMER_ID>  (1) 
0000482000000001

>  <PUBCHEM_MMFF94_ENERGY>  (1) 
32.1394

>  <PUBCHEM_FEATURE_SELFOVERLAP>  (1) 
35.578

>  <PUBCHEM_SHAPE_FINGERPRINT>  (1) 
1 1 18265615566483962462
13380535 76 17907577287411155180
14817 1 14761773257783862302
161256 15 18408888416730824860
16945 1 18410009944450416492
17990270 104 18409444778204479090
19021347 4 17761777660321831552
193761 8 18338233761017840036
20510252 161 16901855728240441578
20645477 70 18336536227177075303
20871998 184 17694776324975815966
21040471 1 17833834146137169984
2334 1 17833551576080728050
23552423 10 18410857697864242831
23559900 14 17548972262045995310
241688 4 18049159969374240784
2748010 2 18122616163703890236
7364860 26 18412826897799502960
81228 2 17617378381665934282

>  <PUBCHEM_SHAPE_MULTIPOLES>  (1) 
241.23
3.87
3.32
0.66
1.59
1.23
0
-1.69
-0.12
-2.79
0.13
0
-0.03
-0.27

>  <PUBCHEM_SHAPE_SELFOVERLAP>  (1) 
482.053

>  <PUBCHEM_SHAPE_VOLUME>  (1) 
147.9

>  <PUBCHEM_COORDINATE_TYPE>  (1) 
2
5
10

$$$$
