18469
     RDKit          3D

 26 28  0  0  0  0  0  0  0  0999 V2000
   -0.2319    1.1896    2.2377 O   0  0  0  0  0  0  0  0  0  0  0  0
    5.7411    0.1900   -0.8486 O   0  0  0  0  0  0  0  0  0  0  0  0
   -5.8400   -0.3612   -1.8809 O   0  0  0  0  0  0  0  0  0  0  0  0
   -5.6318    0.2162    0.3081 O   0  0  0  0  0  0  0  0  0  0  0  0
   -0.5733   -0.7010    0.1908 N   0  0  0  0  0  0  0  0  0  0  0  0
   -1.7004   -1.4215    0.4881 C   0  0  0  0  0  0  0  0  0  0  0  0
    0.5236   -1.5275    0.2056 C   0  0  0  0  0  0  0  0  0  0  0  0
   -3.0480   -0.8143    0.5510 C   0  0  0  0  0  0  0  0  0  0  0  0
   -0.5508    0.6711   -0.0855 C   0  0  0  0  0  0  0  0  0  0  0  0
   -1.3223   -2.7296    0.6961 C   0  0  0  0  0  0  0  0  0  0  0  0
    0.0816   -2.7977    0.5178 C   0  0  0  0  0  0  0  0  0  0  0  0
    1.8694   -1.0849   -0.0661 C   0  0  0  0  0  0  0  0  0  0  0  0
   -3.7711   -0.8481   -0.8035 C   0  0  0  0  0  0  0  0  0  0  0  0
   -0.3799    1.5875    0.9419 C   0  0  0  0  0  0  0  0  0  0  0  0
   -0.7017    1.0888   -1.4001 C   0  0  0  0  0  0  0  0  0  0  0  0
    2.3593   -1.1038   -1.3718 C   0  0  0  0  0  0  0  0  0  0  0  0
    2.6805   -0.6378    0.9768 C   0  0  0  0  0  0  0  0  0  0  0  0
   -0.3594    2.9511    0.6486 C   0  0  0  0  0  0  0  0  0  0  0  0
   -0.6812    2.4524   -1.6932 C   0  0  0  0  0  0  0  0  0  0  0  0
   -5.1632   -0.2793   -0.7084 C   0  0  0  0  0  0  0  0  0  0  0  0
    3.6605   -0.6757   -1.6347 C   0  0  0  0  0  0  0  0  0  0  0  0
    3.9818   -0.2095    0.7141 C   0  0  0  0  0  0  0  0  0  0  0  0
   -0.5100    3.3835   -0.6690 C   0  0  0  0  0  0  0  0  0  0  0  0
    4.4718   -0.2285   -0.5918 C   0  0  0  0  0  0  0  0  0  0  0  0
   -1.4208    1.0557    3.0131 C   0  0  0  0  0  0  0  0  0  0  0  0
    6.5160    0.6345    0.2639 C   0  0  0  0  0  0  0  0  0  0  0  0
  1 14  1  0
  1 25  1  0
  2 24  1  0
  2 26  1  0
  3 20  1  0
  4 20  2  0
  5  6  1  0
  5  7  1  0
  5  9  1  0
  6  8  1  0
  6 10  2  0
  7 11  2  0
  7 12  1  0
  8 13  1  0
  9 14  2  0
  9 15  1  0
 10 11  1  0
 12 16  2  0
 12 17  1  0
 13 20  1  0
 14 18  1  0
 15 19  2  0
 16 21  1  0
 17 22  2  0
 18 23  2  0
 19 23  1  0
 21 24  2  0
 22 24  1  0
M  END
>  <PUBCHEM_COMPOUND_CID>  (1) 
18469

>  <PUBCHEM_CONFORMER_RMSD>  (1) 
0.8

>  <PUBCHEM_CONFORMER_DIVERSEORDER>  (1) 
2
12
17
1
14
18
16
8
6
10
5
4
11
7
13
9
3
15

>  <PUBCHEM_MMFF94_PARTIAL_CHARGES>  (1) 
37
1 -0.36
10 -0.15
11 -0.15
12 0.05
13 0.06
14 0.08
15 -0.15
16 -0.15
17 -0.15
18 -0.15
19 -0.15
2 -0.36
20 0.66
21 -0.15
22 -0.15
23 -0.15
24 0.08
25 0.28
26 0.28
29 0.15
3 -0.65
30 0.15
33 0.15
34 0.15
35 0.15
36 0.15
37 0.15
38 0.15
39 0.15
4 -0.57
40 0.15
44 0.5
5 0.33
6 -0.33
7 -0.2
8 0.18
9 -0.02

>  <PUBCHEM_EFFECTIVE_ROTOR_COUNT>  (1) 
7

>  <PUBCHEM_PHARMACOPHORE_FEATURES>  (1) 
9
1 1 acceptor
1 2 acceptor
1 3 acceptor
1 4 acceptor
1 5 cation
3 3 4 20 anion
5 5 6 7 10 11 rings
6 12 16 17 21 22 24 rings
6 9 14 15 18 19 23 rings

>  <PUBCHEM_HEAVY_ATOM_COUNT>  (1) 
26

>  <PUBCHEM_ATOM_DEF_STEREO_COUNT>  (1) 
0

>  <PUBCHEM_ATOM_UDEF_STEREO_COUNT>  (1) 
0

>  <PUBCHEM_BOND_DEF_STEREO_COUNT>  (1) 
0

>  <PUBCHEM_BOND_UDEF_STEREO_COUNT>  (1) 
0

>  <PUBCHEM_ISOTOPIC_ATOM_COUNT>  (1) 
0

>  <PUBCHEM_COMPONENT_COUNT>  (1) 
1

>  <PUBCHEM_CACTVS_TAUTO_COUNT>  (1) 
1

>  <PUBCHEM_CONFORMER_ID>  (1) 
0000482500000002

>  <PUBCHEM_MMFF94_ENERGY>  (1) 
102.3641

>  <PUBCHEM_FEATURE_SELFOVERLAP>  (1) 
45.73

>  <PUBCHEM_SHAPE_FINGERPRINT>  (1) 
10366900 7 17775011202180996914
10906281 52 18340505433592066796
10930396 42 18119218866480744816
11578080 2 17826244165746791581
11646440 116 18338248136600135299
12011746 2 18271805743833806770
12035758 1 18262791986353857401
12467345 10 15840692127961955743
12788726 201 18335133150954106120
13149001 5 18265049326681096527
13726171 33 17532358769861514797
14142880 1 18270131118910684184
14170010 4 18341325695785193041
14347332 77 18197216941223012422
14787075 74 18131630092998538457
14790565 3 18334865999999620821
14955137 171 18194428738558877315
15324884 4 17913225414551516158
1601671 61 18335699425781829227
17357779 13 18273495680178306875
17492 54 18113897156696734183
17980427 23 17774461450371945641
18769570 83 17313099748443426813
20197701 30 12540695925119524137
20510252 161 18337111172804744950
20600515 1 18267324155734363646
20715895 44 17603860062206462839
21285901 2 18201440237845401639
21304303 64 18114471114915462589
21330990 113 18336539426647882745
229495 10 14476119956362120613
23352939 185 18413671326724435272
23402539 116 18411697729470605878
23419403 2 18057591273470225792
23557571 272 18412267220917201068
23558518 356 17612303057414488699
23559900 14 18129095791790073712
283562 15 18337953381072900785
3178227 256 18188506760932546075
350125 39 18047477716579046602
465052 167 12391505442972889159
469060 322 18261966162531802473
5364581 5 8789734998745199566
7226269 152 18259984889907352478
7495541 125 17531822362974183035
81228 2 18268169611662634562

>  <PUBCHEM_SHAPE_MULTIPOLES>  (1) 
506.61
10.25
2.95
1.87
4.14
1.41
0.77
-1.21
-3.61
-1.12
0.09
-0.76
0.73
0.11

>  <PUBCHEM_SHAPE_SELFOVERLAP>  (1) 
1097.905

>  <PUBCHEM_SHAPE_VOLUME>  (1) 
279.6

>  <PUBCHEM_COORDINATE_TYPE>  (1) 
2
5
10

$$$$
