18468
     RDKit          3D

 17 17  0  0  1  0  0  0  0  0999 V2000
   -0.3175    1.2910   -1.0759 O   0  0  0  0  0  0  0  0  0  0  0  0
    1.1766   -0.4732    1.6309 O   0  0  0  0  0  0  0  0  0  0  0  0
   -0.9510   -1.6057   -1.1003 O   0  0  0  0  0  0  0  0  0  0  0  0
    3.0304   -0.0571   -0.4198 O   0  0  0  0  0  0  0  0  0  0  0  0
    1.3811    2.0645    0.3862 O   0  0  0  0  0  0  0  0  0  0  0  0
   -3.3385    0.0799    0.5147 O   0  0  0  0  0  0  0  0  0  0  0  0
    0.8855   -0.9443    0.3164 C   0  0  0  0  0  0  0  0  0  0  0  0
   -0.6240   -0.8581    0.0697 C   0  0  0  0  0  0  0  0  0  0  0  0
    1.6394   -0.0940   -0.7124 C   0  0  0  0  0  0  0  0  0  0  0  0
   -1.0839    0.6042   -0.0760 C   0  0  0  0  0  0  0  0  0  0  0  0
    1.0855    1.3303   -0.7989 C   0  0  0  0  0  0  0  0  0  0  0  0
   -2.5510    0.7117   -0.4783 C   0  0  0  0  0  0  0  0  0  0  0  0
    0.5117   -1.2485    2.6162 C   0  0  0  0  0  0  0  0  0  0  0  0
   -0.5907   -2.9712   -0.9584 C   0  0  0  0  0  0  0  0  0  0  0  0
    3.6010   -1.3585   -0.4351 C   0  0  0  0  0  0  0  0  0  0  0  0
    0.8714    3.3879    0.3162 C   0  0  0  0  0  0  0  0  0  0  0  0
   -4.7261    0.1412    0.2047 C   0  0  0  0  0  0  0  0  0  0  0  0
  1 10  1  0
  1 11  1  0
  2  7  1  0
  2 13  1  0
  3  8  1  0
  3 14  1  0
  4  9  1  0
  4 15  1  0
  5 11  1  0
  5 16  1  0
  6 12  1  0
  6 17  1  0
  7  8  1  0
  7  9  1  0
  8 10  1  0
  9 11  1  0
 10 12  1  0
M  END
>  <PUBCHEM_COMPOUND_CID>  (1) 
18468

>  <PUBCHEM_CONFORMER_RMSD>  (1) 
0.8

>  <PUBCHEM_CONFORMER_DIVERSEORDER>  (1) 
8
7
25
14
48
55
52
40
10
46
15
2
49
53
59
22
33
42
38
47
56
31
12
28
43
39
30
1
23
24
17
29
11
37
50
35
5
9
18
36
16
41
51
57
60
44
58
4
54
6
13
27
3
20
34
19
45
32
26
21

>  <PUBCHEM_MMFF94_PARTIAL_CHARGES>  (1) 
17
1 -0.56
10 0.28
11 0.56
12 0.28
13 0.28
14 0.28
15 0.28
16 0.28
17 0.28
2 -0.56
3 -0.56
4 -0.56
5 -0.56
6 -0.56
7 0.28
8 0.28
9 0.28

>  <PUBCHEM_EFFECTIVE_ROTOR_COUNT>  (1) 
7.2

>  <PUBCHEM_PHARMACOPHORE_FEATURES>  (1) 
7
1 1 acceptor
1 2 acceptor
1 3 acceptor
1 4 acceptor
1 5 acceptor
1 6 acceptor
6 1 7 8 9 10 11 rings

>  <PUBCHEM_HEAVY_ATOM_COUNT>  (1) 
17

>  <PUBCHEM_ATOM_DEF_STEREO_COUNT>  (1) 
2

>  <PUBCHEM_ATOM_UDEF_STEREO_COUNT>  (1) 
3

>  <PUBCHEM_BOND_DEF_STEREO_COUNT>  (1) 
0

>  <PUBCHEM_BOND_UDEF_STEREO_COUNT>  (1) 
0

>  <PUBCHEM_ISOTOPIC_ATOM_COUNT>  (1) 
0

>  <PUBCHEM_COMPONENT_COUNT>  (1) 
1

>  <PUBCHEM_CACTVS_TAUTO_COUNT>  (1) 
1

>  <PUBCHEM_CONFORMER_ID>  (1) 
0000482400000008

>  <PUBCHEM_MMFF94_ENERGY>  (1) 
67.7929

>  <PUBCHEM_FEATURE_SELFOVERLAP>  (1) 
35.574

>  <PUBCHEM_SHAPE_FINGERPRINT>  (1) 
11680611 10 18048282769480555683
12423570 1 13516561345565127826
12507560 14 18272374148211129876
12654903 92 18343582953705947614
13380536 305 18342462560147534557
14648413 74 18198061576189050100
14993402 34 18412548686665738655
16945 1 18339918337390770028
193761 8 18052819444465988902
20233049 118 18262798454374547661
20511035 2 17900002682723751055
20671657 1 18268719487556655077
21501502 16 18051970613142348572
22112679 90 18119216610989833002
22344851 341 18118957229250572481
23402539 116 18130499722062213854
23419403 2 16386853603810290991
23558518 356 17540811028601185112
2748010 2 18118407482063509759
298252 57 18410584993242678374
3060560 45 18341327817056075559
528886 8 18341894060811796558
589210 1 18053661665983095350
68250623 7 18053103109886673902
7364860 26 18270118044856252476
7832392 63 18269836582822212732
9999458 23 16878237436522811207

>  <PUBCHEM_SHAPE_MULTIPOLES>  (1) 
314.64
4.97
2.82
1.47
4.61
1.17
-1.13
-0.47
0.26
-0.96
0.3
-0.39
-0.73
-0.1

>  <PUBCHEM_SHAPE_SELFOVERLAP>  (1) 
616.347

>  <PUBCHEM_SHAPE_VOLUME>  (1) 
188.8

>  <PUBCHEM_COORDINATE_TYPE>  (1) 
2
5
10

$$$$
