18477
     RDKit          3D

  6  5  0  0  0  0  0  0  0  0999 V2000
   -2.0182    0.7845    0.0001 O   0  0  0  0  0  0  0  0  0  0  0  0
   -1.1338   -1.2326    0.0001 O   0  0  0  0  0  0  0  0  0  0  0  0
   -1.0519    0.0057   -0.0002 N   0  0  0  0  0  0  0  0  0  0  0  0
    1.2650   -0.2850   -0.0001 C   0  0  0  0  0  0  0  0  0  0  0  0
    2.6931    0.1526    0.0001 C   0  0  0  0  0  0  0  0  0  0  0  0
    0.2460    0.5749    0.0000 C   0  0  0  0  0  0  0  0  0  0  0  0
  1  3  1  0
  2  3  2  0
  3  6  1  0
  4  5  1  0
  4  6  2  0
M  CHG  2   1  -1   3   1
M  END
>  <PUBCHEM_COMPOUND_CID>  (1) 
18477

>  <PUBCHEM_CONFORMER_RMSD>  (1) 
0.4

>  <PUBCHEM_CONFORMER_DIVERSEORDER>  (1) 
1

>  <PUBCHEM_MMFF94_PARTIAL_CHARGES>  (1) 
8
1 -0.52
11 0.15
2 -0.52
3 0.84
4 -0.29
5 0.14
6 0.05
7 0.15

>  <PUBCHEM_EFFECTIVE_ROTOR_COUNT>  (1) 
1

>  <PUBCHEM_PHARMACOPHORE_FEATURES>  (1) 
4
1 1 acceptor
1 1 anion
1 2 acceptor
1 5 hydrophobe

>  <PUBCHEM_HEAVY_ATOM_COUNT>  (1) 
6

>  <PUBCHEM_ATOM_DEF_STEREO_COUNT>  (1) 
0

>  <PUBCHEM_ATOM_UDEF_STEREO_COUNT>  (1) 
0

>  <PUBCHEM_BOND_DEF_STEREO_COUNT>  (1) 
0

>  <PUBCHEM_BOND_UDEF_STEREO_COUNT>  (1) 
1

>  <PUBCHEM_ISOTOPIC_ATOM_COUNT>  (1) 
0

>  <PUBCHEM_COMPONENT_COUNT>  (1) 
1

>  <PUBCHEM_CACTVS_TAUTO_COUNT>  (1) 
2

>  <PUBCHEM_CONFORMER_ID>  (1) 
0000482D00000001

>  <PUBCHEM_MMFF94_ENERGY>  (1) 
10.0472

>  <PUBCHEM_FEATURE_SELFOVERLAP>  (1) 
20.376

>  <PUBCHEM_SHAPE_FINGERPRINT>  (1) 
139733 1 9295300438471612384
14390081 3 18201433701269212480
16714656 1 18335422335396918268
20096714 4 18407760322085046928
21040471 1 18338798905488202208
29004967 10 17203615904014468026
5460574 1 9223229645957089760

>  <PUBCHEM_SHAPE_MULTIPOLES>  (1) 
106.76
3.14
0.94
0.57
1.17
0.16
0
-0.29
0
-0.37
0
0.08
-0.01
0

>  <PUBCHEM_SHAPE_SELFOVERLAP>  (1) 
194.682

>  <PUBCHEM_SHAPE_VOLUME>  (1) 
68.8

>  <PUBCHEM_COORDINATE_TYPE>  (1) 
2
5
10

$$$$
