1848
     RDKit          3D

 31 33  0  0  1  0  0  0  0  0999 V2000
   -1.1548    0.0203   -0.4190 O   0  0  0  0  0  0  0  0  0  0  0  0
   -2.3696    3.2700    0.8169 O   0  0  0  0  0  0  0  0  0  0  0  0
    2.6580    3.0019   -0.0801 O   0  0  0  0  0  0  0  0  0  0  0  0
    0.2480    3.7913    0.3894 O   0  0  0  0  0  0  0  0  0  0  0  0
    3.2279   -1.5682   -1.2818 O   0  0  0  0  0  0  0  0  0  0  0  0
   -7.3635   -0.5136   -0.0473 O   0  0  0  0  0  0  0  0  0  0  0  0
   -1.9052    0.9358    0.3945 C   0  0  0  0  0  0  0  0  0  0  0  0
   -1.6661    2.3840   -0.0362 C   0  0  0  0  0  0  0  0  0  0  0  0
    0.1830    0.3049   -0.4846 C   0  0  0  0  0  0  0  0  0  0  0  0
    0.7203    1.5701   -0.2369 C   0  0  0  0  0  0  0  0  0  0  0  0
    1.0266   -0.7457   -0.8491 C   0  0  0  0  0  0  0  0  0  0  0  0
   -0.1887    2.6886    0.0819 C   0  0  0  0  0  0  0  0  0  0  0  0
    2.9391    0.7215   -0.6650 C   0  0  0  0  0  0  0  0  0  0  0  0
    2.0996    1.7804   -0.3180 C   0  0  0  0  0  0  0  0  0  0  0  0
   -3.3671    0.5478    0.2761 C   0  0  0  0  0  0  0  0  0  0  0  0
    2.4035   -0.5378   -0.9347 C   0  0  0  0  0  0  0  0  0  0  0  0
    0.4630   -2.1015   -1.1385 C   0  0  0  0  0  0  0  0  0  0  0  0
    4.4170    0.9359   -0.7570 C   0  0  0  0  0  0  0  0  0  0  0  0
   -4.0617    0.1073    1.4006 C   0  0  0  0  0  0  0  0  0  0  0  0
   -4.0104    0.6332   -0.9569 C   0  0  0  0  0  0  0  0  0  0  0  0
    0.3898   -2.9766    0.0865 C   0  0  0  0  0  0  0  0  0  0  0  0
    5.1260    0.6845    0.5493 C   0  0  0  0  0  0  0  0  0  0  0  0
   -5.4058   -0.2497    1.2917 C   0  0  0  0  0  0  0  0  0  0  0  0
   -5.3544    0.2763   -1.0659 C   0  0  0  0  0  0  0  0  0  0  0  0
   -0.4783   -3.9738    0.3433 C   0  0  0  0  0  0  0  0  0  0  0  0
   -6.0522   -0.1651    0.0585 C   0  0  0  0  0  0  0  0  0  0  0  0
    6.1125   -0.1970    0.8019 C   0  0  0  0  0  0  0  0  0  0  0  0
   -0.4948   -4.8100    1.5913 C   0  0  0  0  0  0  0  0  0  0  0  0
   -1.5507   -4.3255   -0.6535 C   0  0  0  0  0  0  0  0  0  0  0  0
    6.7776   -0.3965    2.1341 C   0  0  0  0  0  0  0  0  0  0  0  0
    6.6316   -1.0929   -0.2913 C   0  0  0  0  0  0  0  0  0  0  0  0
  1  7  1  0
  1  9  1  0
  2  8  1  0
  3 14  1  0
  4 12  2  0
  5 16  1  0
  6 26  1  0
  7  8  1  0
  7 15  1  0
  8 12  1  0
  9 10  2  0
  9 11  1  0
 10 12  1  0
 10 14  1  0
 11 16  2  0
 11 17  1  0
 13 14  2  0
 13 16  1  0
 13 18  1  0
 15 19  2  0
 15 20  1  0
 17 21  1  0
 18 22  1  0
 19 23  1  0
 20 24  2  0
 21 25  2  3
 22 27  2  3
 23 26  2  0
 24 26  1  0
 25 28  1  0
 25 29  1  0
 27 30  1  0
 27 31  1  0
M  END
>  <PUBCHEM_COMPOUND_CID>  (1) 
1848

>  <PUBCHEM_CONFORMER_RMSD>  (1) 
0.8

>  <PUBCHEM_CONFORMER_DIVERSEORDER>  (1) 
2
245
171
163
155
131
58
145
267
195
199
151
13
211
273
138
134
72
182
68
49
115
83
95
28
229
270
192
55
193
181
223
5
45
43
250
200
174
254
71
81
78
172
239
214
221
159
217
21
233
119
158
197
98
209
69
183
240
253
227
224
162
80
201
280
157
263
275
276
107
156
32
88
61
247
231
103
87
79
22
259
180
9
207
64
141
220
48
24
243
154
35
99
52
235
76
228
255
90
97
150
198
82
271
252
37
53
203
31
187
184
204
110
137
56
179
256
38
116
152
105
265
125
91
18
128
129
208
189
266
122
167
60
113
284
101
47
215
173
93
84
188
39
168
244
135
178
139
202
130
140
120
262
34
230
177
219
161
153
166
226
190
100
241
261
246
109
73
23
272
196
94
191
210
65
212
59
63
12
176
127
54
283
236
185
77
40
70
29
92
41
164
249
136
170
117
194
51
89
86
20
282
19
169
25
74
132
147
242
218
206
50
260
10
1
257
133
269
102
104
237
268
160
42
175
216
121
8
205
279
85
16
213
148
4
248
146
96
238
142
66
251
46
36
232
281
144
62
27
222
165
57
67
11
112
234
278
149
126
6
75
124
118
225
17
258
33
186
44
123
7
30
111
277
264
114
3
15
26
274
106
143
108
14

>  <PUBCHEM_MMFF94_PARTIAL_CHARGES>  (1) 
41
1 -0.36
10 0.09
11 -0.14
12 0.42
13 -0.14
14 0.08
15 -0.14
16 0.08
17 0.28
18 0.28
19 -0.15
2 -0.68
20 -0.15
21 -0.29
22 -0.29
23 -0.15
24 -0.15
25 -0.28
26 0.08
27 -0.28
28 0.14
29 0.14
3 -0.53
30 0.14
31 0.14
38 0.15
39 0.15
4 -0.57
40 0.4
41 0.15
42 0.15
43 0.45
44 0.15
45 0.15
46 0.45
5 -0.53
59 0.45
6 -0.53
7 0.42
8 0.34
9 0.08

>  <PUBCHEM_EFFECTIVE_ROTOR_COUNT>  (1) 
5.6

>  <PUBCHEM_PHARMACOPHORE_FEATURES>  (1) 
12
1 1 acceptor
1 2 acceptor
1 2 donor
1 3 donor
1 4 acceptor
1 5 donor
1 6 donor
3 25 28 29 hydrophobe
3 27 30 31 hydrophobe
6 1 7 8 9 10 12 rings
6 15 19 20 23 24 26 rings
6 9 10 11 13 14 16 rings

>  <PUBCHEM_HEAVY_ATOM_COUNT>  (1) 
31

>  <PUBCHEM_ATOM_DEF_STEREO_COUNT>  (1) 
0

>  <PUBCHEM_ATOM_UDEF_STEREO_COUNT>  (1) 
2

>  <PUBCHEM_BOND_DEF_STEREO_COUNT>  (1) 
0

>  <PUBCHEM_BOND_UDEF_STEREO_COUNT>  (1) 
0

>  <PUBCHEM_ISOTOPIC_ATOM_COUNT>  (1) 
0

>  <PUBCHEM_COMPONENT_COUNT>  (1) 
1

>  <PUBCHEM_CACTVS_TAUTO_COUNT>  (1) 
282

>  <PUBCHEM_CONFORMER_ID>  (1) 
0000073800000002

>  <PUBCHEM_MMFF94_ENERGY>  (1) 
79.4419

>  <PUBCHEM_FEATURE_SELFOVERLAP>  (1) 
60.933

>  <PUBCHEM_SHAPE_FINGERPRINT>  (1) 
10074138 170 18268127925111363418
10319688 67 18270662252184402434
10906281 52 18200888382288377860
10930396 42 18193810787634007128
1100329 8 18339079414266030958
11135926 11 18337104546060857549
11578080 2 16485832813491011146
11607047 403 15545684547047300579
11719270 70 18408038489921368831
12035758 1 18341052998983235570
12156800 1 17910927443501711651
12166972 35 17894353289139166692
12236239 1 17346888840624945757
12838863 1 18411408531958080339
13140716 1 18197495341155645324
13383668 90 14345791608806048315
13692114 37 18058722641013588791
13782708 43 17822291335830057025
13862211 1 18413108368075512885
13911987 19 18190200016864629917
13947930 73 17896898722987219955
14705955 166 17703496711173994480
14725015 67 18411412899702528400
14866123 147 18335976562678697026
15042514 8 18338519750231980230
15183329 4 12973601123369768632
15475509 84 17758407648250833811
16728300 4 17606659367492991906
18603816 31 16081079416279075266
20028762 73 18201441393408083431
21267235 1 18342182142123474324
21304304 249 18409450272026787438
21781051 124 18042424545494217442
21792965 215 16197311105112555186
22223350 30 18126841835644174378
22311459 1 18412548721816943188
22956985 138 17827917326445529154
23559900 14 17531529900991607193
23569917 315 18413396440238834015
283562 15 18268717121040237448
3178227 256 18336839666742514787
3383291 50 18409444770237381434
392239 28 18340215162812614227
5104073 3 18057609750567330456
5171179 24 17840318713689308670
5486654 2 18411709806575218213
57527295 17 18123724523782539517
58260988 393 16056610823894583633
6004065 56 18271525398887117241
9896288 288 18052814750789849872

>  <PUBCHEM_SHAPE_MULTIPOLES>  (1) 
602.75
14.18
4.75
1.31
2.49
4.85
-0.37
-0.28
-3.76
-1.06
-0.95
0.56
0.55
-0.09

>  <PUBCHEM_SHAPE_SELFOVERLAP>  (1) 
1293.8

>  <PUBCHEM_SHAPE_VOLUME>  (1) 
333.7

>  <PUBCHEM_COORDINATE_TYPE>  (1) 
2
5
10

$$$$
