18492
     RDKit          3D

 17 17  0  0  0  0  0  0  0  0999 V2000
   -3.7586    0.6115   -1.1072 O   0  0  0  0  0  0  0  0  0  0  0  0
   -1.6029   -0.8411   -1.6036 O   0  0  0  0  0  0  0  0  0  0  0  0
   -0.7732   -0.6699    0.5501 N   0  0  0  0  0  0  0  0  0  0  0  0
    0.3203   -1.4272    0.2458 N   0  0  0  0  0  0  0  0  0  0  0  0
   -2.8875    0.4344    0.0076 C   0  0  0  0  0  0  0  0  0  0  0  0
   -2.4399    1.8216    0.5207 C   0  0  0  0  0  0  0  0  0  0  0  0
   -3.6950   -0.2856    1.1111 C   0  0  0  0  0  0  0  0  0  0  0  0
   -1.6956   -0.4239   -0.4489 C   0  0  0  0  0  0  0  0  0  0  0  0
   -1.6982    2.6710   -0.5071 C   0  0  0  0  0  0  0  0  0  0  0  0
   -4.2821   -1.6259    0.6760 C   0  0  0  0  0  0  0  0  0  0  0  0
    1.5804   -0.8225    0.1729 C   0  0  0  0  0  0  0  0  0  0  0  0
    2.6718   -1.5209   -0.3582 C   0  0  0  0  0  0  0  0  0  0  0  0
    1.7647    0.4879    0.6310 C   0  0  0  0  0  0  0  0  0  0  0  0
    4.1022    0.3872    0.0287 C   0  0  0  0  0  0  0  0  0  0  0  0
    3.9279   -0.9184   -0.4299 C   0  0  0  0  0  0  0  0  0  0  0  0
    3.0206    1.0905    0.5592 C   0  0  0  0  0  0  0  0  0  0  0  0
    5.4451    1.0313   -0.0483 C   0  0  0  0  0  0  0  0  0  0  0  0
  1  5  1  0
  2  8  2  0
  3  4  1  0
  3  8  1  0
  4 11  1  0
  5  6  1  0
  5  7  1  0
  5  8  1  0
  6  9  1  0
  7 10  1  0
 11 12  2  0
 11 13  1  0
 12 15  1  0
 13 16  2  0
 14 15  2  0
 14 16  1  0
 14 17  1  0
M  END
>  <PUBCHEM_COMPOUND_CID>  (1) 
18492

>  <PUBCHEM_CONFORMER_RMSD>  (1) 
0.8

>  <PUBCHEM_CONFORMER_DIVERSEORDER>  (1) 
1
30
12
17
5
20
16
41
9
33
23
11
36
4
39
24
27
2
8
22
29
13
7
14
32
25
10
28
15
38
19
21
6
18
35
26
34
40
31
37
3

>  <PUBCHEM_MMFF94_PARTIAL_CHARGES>  (1) 
20
1 -0.68
11 0.1
12 -0.15
13 -0.15
14 -0.14
15 -0.15
16 -0.15
17 0.14
2 -0.57
28 0.4
29 0.37
3 -0.41
30 0.4
31 0.15
32 0.15
33 0.15
34 0.15
4 -0.52
5 0.34
8 0.57

>  <PUBCHEM_EFFECTIVE_ROTOR_COUNT>  (1) 
6

>  <PUBCHEM_PHARMACOPHORE_FEATURES>  (1) 
8
1 1 acceptor
1 1 donor
1 10 hydrophobe
1 2 acceptor
1 3 donor
1 4 donor
1 9 hydrophobe
6 11 12 13 14 15 16 rings

>  <PUBCHEM_HEAVY_ATOM_COUNT>  (1) 
17

>  <PUBCHEM_ATOM_DEF_STEREO_COUNT>  (1) 
0

>  <PUBCHEM_ATOM_UDEF_STEREO_COUNT>  (1) 
0

>  <PUBCHEM_BOND_DEF_STEREO_COUNT>  (1) 
0

>  <PUBCHEM_BOND_UDEF_STEREO_COUNT>  (1) 
0

>  <PUBCHEM_ISOTOPIC_ATOM_COUNT>  (1) 
0

>  <PUBCHEM_COMPONENT_COUNT>  (1) 
1

>  <PUBCHEM_CACTVS_TAUTO_COUNT>  (1) 
2

>  <PUBCHEM_CONFORMER_ID>  (1) 
0000483C00000001

>  <PUBCHEM_MMFF94_ENERGY>  (1) 
42.5061

>  <PUBCHEM_FEATURE_SELFOVERLAP>  (1) 
42.18

>  <PUBCHEM_SHAPE_FINGERPRINT>  (1) 
10498660 4 18187922833298515148
10608611 8 18411135792870535568
10670039 82 18188788188575004444
10922523 26 18200876167184765612
11315181 36 12396297067523084350
11715629 250 18271799112567799536
12346177 29 9222939349355060177
12403814 3 18202845457214261559
12507557 5 17748825241358463316
12596602 18 17313093194803803472
12916748 109 18409173220813358256
13081056 2 18413393142045626896
13214271 11 18407758144979596735
14787075 74 18042692891103713083
15196674 1 18411702045780550984
17802600 8 18341886368688860648
18186145 218 16917061179299179850
20279233 1 8790887388743479650
20645477 56 18131345345541428658
20645477 70 17845948346778698366
21652331 79 18411982455288822064
22182937 141 18125728885412596553
22854114 59 17821449062319986962
23402539 116 18261385684901040598
23402655 69 18130787837285288448
23557571 272 18334299794228425507
4028521 119 18336254652941064437
5104073 3 18340769239326523554
5281201 14 18272379629143125182
77779 3 18412549781945754386

>  <PUBCHEM_SHAPE_MULTIPOLES>  (1) 
328.15
9.89
2.02
1
5.29
0.88
-0.16
0.46
0.51
-0.95
-0.11
-0.71
-0.05
0.69

>  <PUBCHEM_SHAPE_SELFOVERLAP>  (1) 
662.768

>  <PUBCHEM_SHAPE_VOLUME>  (1) 
192.7

>  <PUBCHEM_COORDINATE_TYPE>  (1) 
2
5
10

$$$$
