18496
     RDKit          3D

 10 10  0  0  0  0  0  0  0  0999 V2000
    2.6588   -1.2144    0.0005 O   0  0  0  0  0  0  0  0  0  0  0  0
    2.8616    1.0495    0.0008 O   0  0  0  0  0  0  0  0  0  0  0  0
   -1.3807   -1.2013    0.0001 N   0  0  0  0  0  0  0  0  0  0  0  0
   -3.4567   -0.0323    0.0004 N   0  0  0  0  0  0  0  0  0  0  0  0
    0.6880    0.0499   -0.0010 C   0  0  0  0  0  0  0  0  0  0  0  0
   -0.0253    1.2433   -0.0006 C   0  0  0  0  0  0  0  0  0  0  0  0
   -1.4156    1.2159    0.0001 C   0  0  0  0  0  0  0  0  0  0  0  0
   -2.0398   -0.0210    0.0004 C   0  0  0  0  0  0  0  0  0  0  0  0
   -0.0305   -1.1349   -0.0004 C   0  0  0  0  0  0  0  0  0  0  0  0
    2.1403    0.0451   -0.0003 C   0  0  0  0  0  0  0  0  0  0  0  0
  1 10  1  0
  2 10  2  0
  3  8  2  0
  3  9  1  0
  4  8  1  0
  5  6  1  0
  5  9  2  0
  5 10  1  0
  6  7  2  0
  7  8  1  0
M  END
>  <PUBCHEM_COMPOUND_CID>  (1) 
18496

>  <PUBCHEM_CONFORMER_RMSD>  (1) 
0.4

>  <PUBCHEM_CONFORMER_DIVERSEORDER>  (1) 
1
2

>  <PUBCHEM_MMFF94_PARTIAL_CHARGES>  (1) 
16
1 -0.65
10 0.63
11 0.15
12 0.15
13 0.15
14 0.4
15 0.4
16 0.5
2 -0.57
3 -0.62
4 -0.9
5 0.09
6 -0.15
7 -0.15
8 0.41
9 0.16

>  <PUBCHEM_EFFECTIVE_ROTOR_COUNT>  (1) 
1

>  <PUBCHEM_PHARMACOPHORE_FEATURES>  (1) 
6
1 1 acceptor
1 2 acceptor
1 4 donor
3 1 2 10 anion
3 3 4 8 cation
6 3 5 6 7 8 9 rings

>  <PUBCHEM_HEAVY_ATOM_COUNT>  (1) 
10

>  <PUBCHEM_ATOM_DEF_STEREO_COUNT>  (1) 
0

>  <PUBCHEM_ATOM_UDEF_STEREO_COUNT>  (1) 
0

>  <PUBCHEM_BOND_DEF_STEREO_COUNT>  (1) 
0

>  <PUBCHEM_BOND_UDEF_STEREO_COUNT>  (1) 
0

>  <PUBCHEM_ISOTOPIC_ATOM_COUNT>  (1) 
0

>  <PUBCHEM_COMPONENT_COUNT>  (1) 
1

>  <PUBCHEM_CACTVS_TAUTO_COUNT>  (1) 
3

>  <PUBCHEM_CONFORMER_ID>  (1) 
0000484000000001

>  <PUBCHEM_MMFF94_ENERGY>  (1) 
33.7538

>  <PUBCHEM_FEATURE_SELFOVERLAP>  (1) 
30.503

>  <PUBCHEM_SHAPE_FINGERPRINT>  (1) 
10219947 1 18411422808555349131
10857977 72 18337664321220849377
12032990 46 18409175402440791523
12897270 3 18410858780433391260
12932764 1 17275096241156762224
14325111 11 18410856538339240773
16945 1 18338517542196517477
193761 8 17545882625105692041
21040471 1 18410856516753511076
23235685 24 18411132550186025269
23402655 69 18195790896712579717
23552423 10 18260831488296703358
2748010 2 18265894657485006349
29004967 10 18041002864137573344
369184 2 18411134731786669112
5084963 1 18341610361094566168

>  <PUBCHEM_SHAPE_MULTIPOLES>  (1) 
184.09
4.23
1.39
0.58
0.03
0.01
0
-0.07
0
-0.18
0
0.01
0.01
0

>  <PUBCHEM_SHAPE_SELFOVERLAP>  (1) 
386.798

>  <PUBCHEM_SHAPE_VOLUME>  (1) 
103.2

>  <PUBCHEM_COORDINATE_TYPE>  (1) 
2
5
10

$$$$
