18490
     RDKit          3D

 16 16  0  0  0  0  0  0  0  0999 V2000
   -3.4548   -0.4655    1.1044 O   0  0  0  0  0  0  0  0  0  0  0  0
   -1.2172    0.8579    1.5997 O   0  0  0  0  0  0  0  0  0  0  0  0
   -0.3947    0.6279   -0.5513 N   0  0  0  0  0  0  0  0  0  0  0  0
    0.7415    1.3198   -0.2477 N   0  0  0  0  0  0  0  0  0  0  0  0
   -2.5723   -0.3457   -0.0091 C   0  0  0  0  0  0  0  0  0  0  0  0
   -2.2074   -1.7594   -0.5152 C   0  0  0  0  0  0  0  0  0  0  0  0
   -3.3330    0.4163   -1.1175 C   0  0  0  0  0  0  0  0  0  0  0  0
   -1.3322    0.4418    0.4465 C   0  0  0  0  0  0  0  0  0  0  0  0
   -1.5199   -2.6471    0.5180 C   0  0  0  0  0  0  0  0  0  0  0  0
   -3.8399    1.7912   -0.6896 C   0  0  0  0  0  0  0  0  0  0  0  0
    1.9631    0.6412   -0.1693 C   0  0  0  0  0  0  0  0  0  0  0  0
    3.0928    1.2759    0.3615 C   0  0  0  0  0  0  0  0  0  0  0  0
    2.0696   -0.6804   -0.6198 C   0  0  0  0  0  0  0  0  0  0  0  0
    4.3102    0.5996    0.4405 C   0  0  0  0  0  0  0  0  0  0  0  0
    3.2869   -1.3568   -0.5407 C   0  0  0  0  0  0  0  0  0  0  0  0
    4.4072   -0.7167   -0.0106 C   0  0  0  0  0  0  0  0  0  0  0  0
  1  5  1  0
  2  8  2  0
  3  4  1  0
  3  8  1  0
  4 11  1  0
  5  6  1  0
  5  7  1  0
  5  8  1  0
  6  9  1  0
  7 10  1  0
 11 12  2  0
 11 13  1  0
 12 14  1  0
 13 15  2  0
 14 16  2  0
 15 16  1  0
M  END
>  <PUBCHEM_COMPOUND_CID>  (1) 
18490

>  <PUBCHEM_CONFORMER_RMSD>  (1) 
0.8

>  <PUBCHEM_CONFORMER_DIVERSEORDER>  (1) 
1
39
33
28
10
41
16
8
42
12
37
43
46
23
31
34
21
24
5
36
14
38
45
18
40
6
27
29
25
19
13
35
17
22
9
15
20
3
30
4
7
2
44
26
32
11

>  <PUBCHEM_MMFF94_PARTIAL_CHARGES>  (1) 
20
1 -0.68
11 0.1
12 -0.15
13 -0.15
14 -0.15
15 -0.15
16 -0.15
2 -0.57
27 0.4
28 0.37
29 0.4
3 -0.41
30 0.15
31 0.15
32 0.15
33 0.15
34 0.15
4 -0.52
5 0.34
8 0.57

>  <PUBCHEM_EFFECTIVE_ROTOR_COUNT>  (1) 
6

>  <PUBCHEM_PHARMACOPHORE_FEATURES>  (1) 
8
1 1 acceptor
1 1 donor
1 10 hydrophobe
1 2 acceptor
1 3 donor
1 4 donor
1 9 hydrophobe
6 11 12 13 14 15 16 rings

>  <PUBCHEM_HEAVY_ATOM_COUNT>  (1) 
16

>  <PUBCHEM_ATOM_DEF_STEREO_COUNT>  (1) 
0

>  <PUBCHEM_ATOM_UDEF_STEREO_COUNT>  (1) 
0

>  <PUBCHEM_BOND_DEF_STEREO_COUNT>  (1) 
0

>  <PUBCHEM_BOND_UDEF_STEREO_COUNT>  (1) 
0

>  <PUBCHEM_ISOTOPIC_ATOM_COUNT>  (1) 
0

>  <PUBCHEM_COMPONENT_COUNT>  (1) 
1

>  <PUBCHEM_CACTVS_TAUTO_COUNT>  (1) 
2

>  <PUBCHEM_CONFORMER_ID>  (1) 
0000483A00000001

>  <PUBCHEM_MMFF94_ENERGY>  (1) 
39.917

>  <PUBCHEM_FEATURE_SELFOVERLAP>  (1) 
42.18

>  <PUBCHEM_SHAPE_FINGERPRINT>  (1) 
10366900 7 17346594184224493466
10922523 26 18260267455874282765
11132069 177 18412820309414726898
11370993 70 18411973650653422590
11615757 297 14405182902322651802
12346177 29 18410566323177968567
12500047 106 18410284822209745492
12592029 89 18187928305703756067
13296908 3 18259987088914718676
13544592 145 18266743489257254182
14577589 140 18187085053035685071
15375358 24 18413383229076517510
17834072 14 18412538804098984148
18186145 218 18341056237209163251
19050596 39 17918278666580379760
19107657 46 18411702110268389998
200 152 17632567236760031428
20201158 50 18343584036185594070
20279233 1 18411135835830621756
20528008 55 18273209798718059846
20645477 56 18334572456227936373
20645477 70 18201152148893270734
21665056 4 18260545636891145699
22169311 21 18341044198674366856
22485316 2 18334572439147793588
22959321 105 18339922726720654932
23402539 116 18339070502478443597
23559900 14 18343015571989699010
26918003 58 18272082795157648480
57005193 9 18342167852313612630
58051976 100 17967533480258574783
69090 78 18411132541743803383
8809292 202 18409171047328233034
9709674 26 18343022207139639406

>  <PUBCHEM_SHAPE_MULTIPOLES>  (1) 
307.57
8.49
2.02
1.02
4.06
0.98
-0.17
-0.79
0.47
-1.07
-0.03
-0.61
-0.06
0.78

>  <PUBCHEM_SHAPE_SELFOVERLAP>  (1) 
620.66

>  <PUBCHEM_SHAPE_VOLUME>  (1) 
179.6

>  <PUBCHEM_COORDINATE_TYPE>  (1) 
2
5
10

$$$$
