1849
     RDKit          3D

 31 33  0  0  0  0  0  0  0  0999 V2000
    1.0627   -0.1306   -0.2231 O   0  0  0  0  0  0  0  0  0  0  0  0
   -2.8989   -2.7388   -0.4709 O   0  0  0  0  0  0  0  0  0  0  0  0
   -3.1909    1.7358    1.1329 O   0  0  0  0  0  0  0  0  0  0  0  0
    1.7681    3.3272    0.8414 O   0  0  0  0  0  0  0  0  0  0  0  0
   -0.9758    3.0858    1.2271 O   0  0  0  0  0  0  0  0  0  0  0  0
    7.2420    0.8620   -0.9091 O   0  0  0  0  0  0  0  0  0  0  0  0
   -0.9127   -1.4172   -0.3414 C   0  0  0  0  0  0  0  0  0  0  0  0
   -0.2915   -0.2090   -0.0240 C   0  0  0  0  0  0  0  0  0  0  0  0
   -3.0424   -0.4935    0.3346 C   0  0  0  0  0  0  0  0  0  0  0  0
   -1.0450    0.8532    0.4707 C   0  0  0  0  0  0  0  0  0  0  0  0
   -2.2888   -1.5581   -0.1613 C   0  0  0  0  0  0  0  0  0  0  0  0
   -2.4235    0.7161    0.6522 C   0  0  0  0  0  0  0  0  0  0  0  0
   -0.1106   -2.5626   -0.8728 C   0  0  0  0  0  0  0  0  0  0  0  0
   -4.5180   -0.6526    0.5248 C   0  0  0  0  0  0  0  0  0  0  0  0
   -0.3658    2.1169    0.7951 C   0  0  0  0  0  0  0  0  0  0  0  0
    1.7102    1.0533    0.0928 C   0  0  0  0  0  0  0  0  0  0  0  0
    1.0991    2.1537    0.5682 C   0  0  0  0  0  0  0  0  0  0  0  0
    0.4175   -3.4611    0.2165 C   0  0  0  0  0  0  0  0  0  0  0  0
   -5.3095   -0.2637   -0.6976 C   0  0  0  0  0  0  0  0  0  0  0  0
    3.1596    1.0033   -0.1690 C   0  0  0  0  0  0  0  0  0  0  0  0
    1.7016   -3.7313    0.5196 C   0  0  0  0  0  0  0  0  0  0  0  0
   -6.2290    0.7135   -0.8148 C   0  0  0  0  0  0  0  0  0  0  0  0
    4.0378    0.5976    0.8363 C   0  0  0  0  0  0  0  0  0  0  0  0
    3.6544    1.3616   -1.4234 C   0  0  0  0  0  0  0  0  0  0  0  0
    2.1595   -4.6410    1.6240 C   0  0  0  0  0  0  0  0  0  0  0  0
    2.8188   -3.1135   -0.2787 C   0  0  0  0  0  0  0  0  0  0  0  0
   -6.9840    1.0486   -2.0696 C   0  0  0  0  0  0  0  0  0  0  0  0
   -6.5843    1.5709    0.3709 C   0  0  0  0  0  0  0  0  0  0  0  0
    5.4096    0.5504    0.5875 C   0  0  0  0  0  0  0  0  0  0  0  0
    5.0260    1.3143   -1.6723 C   0  0  0  0  0  0  0  0  0  0  0  0
    5.9038    0.9086   -0.6668 C   0  0  0  0  0  0  0  0  0  0  0  0
  1  8  1  0
  1 16  1  0
  2 11  1  0
  3 12  1  0
  4 17  1  0
  5 15  2  0
  6 31  1  0
  7  8  2  0
  7 11  1  0
  7 13  1  0
  8 10  1  0
  9 11  2  0
  9 12  1  0
  9 14  1  0
 10 12  2  0
 10 15  1  0
 13 18  1  0
 14 19  1  0
 15 17  1  0
 16 17  2  0
 16 20  1  0
 18 21  2  3
 19 22  2  3
 20 23  2  0
 20 24  1  0
 21 25  1  0
 21 26  1  0
 22 27  1  0
 22 28  1  0
 23 29  1  0
 24 30  2  0
 29 31  2  0
 30 31  1  0
M  END
>  <PUBCHEM_COMPOUND_CID>  (1) 
1849

>  <PUBCHEM_CONFORMER_RMSD>  (1) 
0.8

>  <PUBCHEM_CONFORMER_DIVERSEORDER>  (1) 
1
24
14
35
16
31
28
44
32
38
39
19
22
4
33
46
10
37
43
13
9
18
27
47
25
8
26
30
36
40
34
7
21
20
15
23
6
29
5
45
17
2
3
41
12
42
11

>  <PUBCHEM_MMFF94_PARTIAL_CHARGES>  (1) 
41
1 -0.16
10 0.09
11 0.08
12 0.08
13 0.28
14 0.28
15 0.47
16 0.05
17 0.09
18 -0.29
19 -0.29
2 -0.53
20 0.03
21 -0.28
22 -0.28
23 -0.15
24 -0.15
25 0.14
26 0.14
27 0.14
28 0.14
29 -0.15
3 -0.53
30 -0.15
31 0.08
36 0.15
37 0.15
38 0.45
39 0.45
4 -0.53
40 0.15
41 0.15
48 0.45
5 -0.57
55 0.15
56 0.15
57 0.45
6 -0.53
7 -0.14
8 0.08
9 -0.14

>  <PUBCHEM_EFFECTIVE_ROTOR_COUNT>  (1) 
5

>  <PUBCHEM_PHARMACOPHORE_FEATURES>  (1) 
11
1 1 acceptor
1 2 donor
1 3 donor
1 4 donor
1 5 acceptor
1 6 donor
3 21 25 26 hydrophobe
3 22 27 28 hydrophobe
6 1 8 10 15 16 17 rings
6 20 23 24 29 30 31 rings
6 7 8 9 10 11 12 rings

>  <PUBCHEM_HEAVY_ATOM_COUNT>  (1) 
31

>  <PUBCHEM_ATOM_DEF_STEREO_COUNT>  (1) 
0

>  <PUBCHEM_ATOM_UDEF_STEREO_COUNT>  (1) 
0

>  <PUBCHEM_BOND_DEF_STEREO_COUNT>  (1) 
0

>  <PUBCHEM_BOND_UDEF_STEREO_COUNT>  (1) 
0

>  <PUBCHEM_ISOTOPIC_ATOM_COUNT>  (1) 
0

>  <PUBCHEM_COMPONENT_COUNT>  (1) 
1

>  <PUBCHEM_CACTVS_TAUTO_COUNT>  (1) 
126

>  <PUBCHEM_CONFORMER_ID>  (1) 
0000073900000001

>  <PUBCHEM_MMFF94_ENERGY>  (1) 
84.3499

>  <PUBCHEM_FEATURE_SELFOVERLAP>  (1) 
55.85

>  <PUBCHEM_SHAPE_FINGERPRINT>  (1) 
10675989 125 18411981381668895568
10693767 8 17917707968316579367
10906281 52 18338809931307574425
1100329 8 18198344154866861018
11135609 187 18409164419993280704
11135926 11 18410295787809793777
11578080 2 17750223717228028903
12236239 1 18041281066723867604
12788726 201 17845940628310751025
12838862 33 18341034286322637296
13140716 1 18126852817944362129
13540713 5 17984143665318323137
14117953 113 18333733507813221468
14400156 260 17984159067092516073
14790565 3 18337960119850630137
14931854 50 18343030982153016068
15183329 4 18411134741010191205
15420108 30 17557447400150189313
15927050 60 18339641243397635583
20771845 171 18113338587299062718
21279426 13 18271524316133670813
21360443 120 18333737914297114182
21859007 373 18263904644608546525
22122407 14 16588601884184534381
22311459 1 18411981355920067497
22393880 68 18129933615893509343
22440779 20 16450976211752408514
23559900 14 17986953140254154184
23576562 1 18118685654385158397
25147074 1 18058173817649994617
3004659 81 18336548317478306452
3178227 256 18339377356437687361
3298306 158 18410571820657115847
335352 9 18343303708186827533
3411729 13 18261392213293976875
4058900 60 18187091645526031235
484989 97 18196932395797897719
5265222 85 18117568537860145076
5385378 56 18337395946216274691
59755656 215 18343303656351392278

>  <PUBCHEM_SHAPE_MULTIPOLES>  (1) 
602.75
14.44
4.46
1.32
7.76
5.43
-0.29
-8.4
-6.05
-3.25
1.52
0.13
-0.33
-1.15

>  <PUBCHEM_SHAPE_SELFOVERLAP>  (1) 
1301.688

>  <PUBCHEM_SHAPE_VOLUME>  (1) 
331.9

>  <PUBCHEM_COORDINATE_TYPE>  (1) 
2
5
10

$$$$
