18502
     RDKit          3D

  9  9  0  0  0  0  0  0  0  0999 V2000
    3.4171    0.0002   -0.0797 O   0  0  0  0  0  0  0  0  0  0  0  0
    1.1123   -0.0003   -0.5280 N   0  0  0  0  0  0  0  0  0  0  0  0
    0.2630    0.0021    0.6712 C   0  0  0  0  0  0  0  0  0  0  0  0
   -0.5920    1.2699    0.6805 C   0  0  0  0  0  0  0  0  0  0  0  0
   -0.5888   -1.2677    0.6821 C   0  0  0  0  0  0  0  0  0  0  0  0
   -1.6742    1.2605   -0.3988 C   0  0  0  0  0  0  0  0  0  0  0  0
   -1.6715   -1.2626   -0.3968 C   0  0  0  0  0  0  0  0  0  0  0  0
   -2.5276   -0.0019   -0.3305 C   0  0  0  0  0  0  0  0  0  0  0  0
    2.2616   -0.0002   -0.3001 C   0  0  0  0  0  0  0  0  0  0  0  0
  1  9  2  0
  2  3  1  0
  2  9  2  0
  3  4  1  0
  3  5  1  0
  4  6  1  0
  5  7  1  0
  6  8  1  0
  7  8  1  0
M  END
>  <PUBCHEM_COMPOUND_CID>  (1) 
18502

>  <PUBCHEM_CONFORMER_RMSD>  (1) 
0.4

>  <PUBCHEM_CONFORMER_DIVERSEORDER>  (1) 
1
14
20
6
21
2
16
7
4
8
17
15
3
9
13
24
10
12
11
18
19
23
22
5

>  <PUBCHEM_MMFF94_PARTIAL_CHARGES>  (1) 
4
1 -0.49
2 -0.55
3 0.25
9 0.79

>  <PUBCHEM_EFFECTIVE_ROTOR_COUNT>  (1) 
2.2

>  <PUBCHEM_PHARMACOPHORE_FEATURES>  (1) 
2
1 2 acceptor
6 3 4 5 6 7 8 rings

>  <PUBCHEM_HEAVY_ATOM_COUNT>  (1) 
9

>  <PUBCHEM_ATOM_DEF_STEREO_COUNT>  (1) 
0

>  <PUBCHEM_ATOM_UDEF_STEREO_COUNT>  (1) 
0

>  <PUBCHEM_BOND_DEF_STEREO_COUNT>  (1) 
0

>  <PUBCHEM_BOND_UDEF_STEREO_COUNT>  (1) 
0

>  <PUBCHEM_ISOTOPIC_ATOM_COUNT>  (1) 
0

>  <PUBCHEM_COMPONENT_COUNT>  (1) 
1

>  <PUBCHEM_CACTVS_TAUTO_COUNT>  (1) 
1

>  <PUBCHEM_CONFORMER_ID>  (1) 
0000484600000001

>  <PUBCHEM_MMFF94_ENERGY>  (1) 
3.5654

>  <PUBCHEM_FEATURE_SELFOVERLAP>  (1) 
10.148

>  <PUBCHEM_SHAPE_FINGERPRINT>  (1) 
11062470 55 16056883528611242091
12716758 59 18412537691554703050
12897270 3 18273213097200241196
13024252 1 17822298997777386819
16714656 1 18410855464776537501
20201158 50 18131632287673981582
20653085 51 16732703860945417334
21040471 1 18194385720097387737
21293036 1 18410564094379877925
23552423 10 18189051065488137072
29004967 10 16630527349151172338
369184 2 18412547608713213218
5084963 1 14924231559443252879

>  <PUBCHEM_SHAPE_MULTIPOLES>  (1) 
174.37
3.78
1.35
0.85
3.03
0
0.08
0
-0.84
-0.79
0.11
-0.09
0
0

>  <PUBCHEM_SHAPE_SELFOVERLAP>  (1) 
342.497

>  <PUBCHEM_SHAPE_VOLUME>  (1) 
102.4

>  <PUBCHEM_COORDINATE_TYPE>  (1) 
2
5
10

$$$$
