18526
     RDKit          3D

 20 22  0  0  0  0  0  0  0  0999 V2000
    4.7676    0.9835    0.7671 O   0  0  0  0  0  0  0  0  0  0  0  0
   -2.2709   -1.8233    0.2100 N   0  0  0  0  0  0  0  0  0  0  0  0
    2.5385   -0.4967   -0.3189 N   0  0  0  0  0  0  0  0  0  0  0  0
   -0.8553   -2.3865    0.1736 C   0  0  0  0  0  0  0  0  0  0  0  0
    1.6249   -1.7011   -0.0697 C   0  0  0  0  0  0  0  0  0  0  0  0
    0.1607   -1.2744   -0.0638 C   0  0  0  0  0  0  0  0  0  0  0  0
   -2.4053   -0.7831    1.3630 C   0  0  0  0  0  0  0  0  0  0  0  0
   -2.5565   -1.0048   -1.0853 C   0  0  0  0  0  0  0  0  0  0  0  0
    3.9867   -0.9924   -0.4000 C   0  0  0  0  0  0  0  0  0  0  0  0
    2.3999    0.4724    0.8607 C   0  0  0  0  0  0  0  0  0  0  0  0
   -2.4054    0.5563    0.7052 C   0  0  0  0  0  0  0  0  0  0  0  0
   -2.4911    0.4306   -0.6827 C   0  0  0  0  0  0  0  0  0  0  0  0
   -3.2631   -2.9579    0.3740 C   0  0  0  0  0  0  0  0  0  0  0  0
    2.0943    0.1501   -1.6294 C   0  0  0  0  0  0  0  0  0  0  0  0
    4.9572    0.1785   -0.3941 C   0  0  0  0  0  0  0  0  0  0  0  0
    3.4630    1.5578    0.7929 C   0  0  0  0  0  0  0  0  0  0  0  0
   -2.3558    1.8015    1.3084 C   0  0  0  0  0  0  0  0  0  0  0  0
   -2.5292    1.5472   -1.5005 C   0  0  0  0  0  0  0  0  0  0  0  0
   -2.3869    2.9344    0.4924 C   0  0  0  0  0  0  0  0  0  0  0  0
   -2.4731    2.8080   -0.9028 C   0  0  0  0  0  0  0  0  0  0  0  0
  1 15  1  0
  1 16  1  0
  2  4  1  0
  2  7  1  0
  2  8  1  0
  2 13  1  0
  3  5  1  0
  3  9  1  0
  3 10  1  0
  3 14  1  0
  4  6  1  0
  5  6  1  0
  7 11  1  0
  8 12  1  0
  9 15  1  0
 10 16  1  0
 11 12  2  0
 11 17  1  0
 12 18  1  0
 17 19  2  0
 18 20  2  0
 19 20  1  0
M  CHG  2   2   1   3   1
M  END
>  <PUBCHEM_COMPOUND_CID>  (1) 
18526

>  <PUBCHEM_CONFORMER_RMSD>  (1) 
0.8

>  <PUBCHEM_CONFORMER_DIVERSEORDER>  (1) 
2
4
9
7
11
3
1
6
10
8
5

>  <PUBCHEM_MMFF94_PARTIAL_CHARGES>  (1) 
23
1 -0.56
10 0.5
11 -0.14
12 -0.14
13 0.5
14 0.5
15 0.28
16 0.28
17 -0.15
18 -0.15
19 -0.15
2 -1.01
20 -0.15
3 -1.01
4 0.5
45 0.15
46 0.15
47 0.15
48 0.15
5 0.5
7 0.65
8 0.65
9 0.5

>  <PUBCHEM_EFFECTIVE_ROTOR_COUNT>  (1) 
5.8

>  <PUBCHEM_PHARMACOPHORE_FEATURES>  (1) 
6
1 1 acceptor
1 2 cation
1 3 cation
5 2 7 8 11 12 rings
6 1 3 9 10 15 16 rings
6 11 12 17 18 19 20 rings

>  <PUBCHEM_HEAVY_ATOM_COUNT>  (1) 
20

>  <PUBCHEM_ATOM_DEF_STEREO_COUNT>  (1) 
0

>  <PUBCHEM_ATOM_UDEF_STEREO_COUNT>  (1) 
0

>  <PUBCHEM_BOND_DEF_STEREO_COUNT>  (1) 
0

>  <PUBCHEM_BOND_UDEF_STEREO_COUNT>  (1) 
0

>  <PUBCHEM_ISOTOPIC_ATOM_COUNT>  (1) 
0

>  <PUBCHEM_COMPONENT_COUNT>  (1) 
1

>  <PUBCHEM_CACTVS_TAUTO_COUNT>  (1) 
1

>  <PUBCHEM_CONFORMER_ID>  (1) 
0000485E00000002

>  <PUBCHEM_MMFF94_ENERGY>  (1) 
75.3691

>  <PUBCHEM_FEATURE_SELFOVERLAP>  (1) 
30.521

>  <PUBCHEM_SHAPE_FINGERPRINT>  (1) 
10165383 225 17834152699592745541
10498660 4 18409720789898172268
10646746 165 18412826885215320438
10670039 82 18192445262996344204
11045515 52 18122332747639962575
11595378 159 18189037841695393978
12173636 292 18267592308202829461
12403259 226 18199185264393671658
12500047 106 18263641771229211532
12596602 18 17388234983376702496
128993 33 18191886547025640061
14123250 116 18058448699398504489
14142880 1 18187927231956683165
14251751 93 18410009923197269346
14251757 17 18130234761672742346
14251764 30 14619357906432711245
14251764 38 18271799142881127440
17357779 13 18198045079451885343
18186145 218 18130794438829363982
18981168 100 18338803307908873351
192875 21 17604144964250713470
20510252 161 18337669823148113779
21095088 737 18200294598289991117
21279426 13 18270971125221646094
21524375 3 18046913675962115643
21623110 236 18196095670873988441
22182937 141 18270970050567043049
22749437 52 18410005520782119556
22956985 138 16170034614124417050
2306618 200 18409167731597364083
23227448 37 18342460322570072817
23402539 116 18198056074521378983
23419403 2 17909811469648670703
23557571 272 18338518654719991975
23559900 14 18057324990663694670
23845131 108 18049174263653493985
27216 239 18261963955219013361
350125 39 18265062340379320843
4028521 119 18341040839867646733
469060 322 18115322184048920283
474 4 17690557486349579913
526903 126 18341039723482286553
574716 61 13182451270059400320
633830 44 13614248126598261778
7399639 24 18130513053746942646
81228 2 18262537973530360491
9981440 41 18337936918521667827

>  <PUBCHEM_SHAPE_MULTIPOLES>  (1) 
395.76
8.39
3.22
1.33
11.01
0.09
-0.17
1.69
0.24
-3.75
0.25
-0.47
0.46
0.84

>  <PUBCHEM_SHAPE_SELFOVERLAP>  (1) 
815.559

>  <PUBCHEM_SHAPE_VOLUME>  (1) 
229.6

>  <PUBCHEM_COORDINATE_TYPE>  (1) 
2
5
10

$$$$
