18530
     RDKit          3D

  7  6  0  0  0  0  0  0  0  0999 V2000
    2.0186   -0.8077   -0.0004 O   0  0  0  0  0  0  0  0  0  0  0  0
   -0.2371   -0.2369    0.0000 N   0  0  0  0  0  0  0  0  0  0  0  0
    1.1326    0.0519    0.0000 C   0  0  0  0  0  0  0  0  0  0  0  0
   -0.6756   -1.6319    0.0004 C   0  0  0  0  0  0  0  0  0  0  0  0
    1.5280    1.5109    0.0001 C   0  0  0  0  0  0  0  0  0  0  0  0
   -1.2343    0.7122    0.0006 C   0  0  0  0  0  0  0  0  0  0  0  0
   -2.5323    0.4014   -0.0006 C   0  0  0  0  0  0  0  0  0  0  0  0
  1  3  2  0
  2  3  1  0
  2  4  1  0
  2  6  1  0
  3  5  1  0
  6  7  2  0
M  END
>  <PUBCHEM_COMPOUND_CID>  (1) 
18530

>  <PUBCHEM_CONFORMER_RMSD>  (1) 
0.4

>  <PUBCHEM_CONFORMER_DIVERSEORDER>  (1) 
1
3
4
5
6
7
8
9
10
2

>  <PUBCHEM_MMFF94_PARTIAL_CHARGES>  (1) 
10
1 -0.57
14 0.15
15 0.15
16 0.15
2 -0.47
3 0.57
4 0.3
5 0.06
6 -0.04
7 -0.3

>  <PUBCHEM_EFFECTIVE_ROTOR_COUNT>  (1) 
2

>  <PUBCHEM_PHARMACOPHORE_FEATURES>  (1) 
1
1 1 acceptor

>  <PUBCHEM_HEAVY_ATOM_COUNT>  (1) 
7

>  <PUBCHEM_ATOM_DEF_STEREO_COUNT>  (1) 
0

>  <PUBCHEM_ATOM_UDEF_STEREO_COUNT>  (1) 
0

>  <PUBCHEM_BOND_DEF_STEREO_COUNT>  (1) 
0

>  <PUBCHEM_BOND_UDEF_STEREO_COUNT>  (1) 
0

>  <PUBCHEM_ISOTOPIC_ATOM_COUNT>  (1) 
0

>  <PUBCHEM_COMPONENT_COUNT>  (1) 
1

>  <PUBCHEM_CACTVS_TAUTO_COUNT>  (1) 
1

>  <PUBCHEM_CONFORMER_ID>  (1) 
0000486200000001

>  <PUBCHEM_MMFF94_ENERGY>  (1) 
19.2215

>  <PUBCHEM_FEATURE_SELFOVERLAP>  (1) 
5.074

>  <PUBCHEM_SHAPE_FINGERPRINT>  (1) 
16714656 1 18335144146012017414
20096714 4 18410293622576694321
21040471 1 18410575127623463777
23552423 10 18261672700422518886
24536 1 18266723856819182412
29004967 10 18265055734376189098
5084963 1 18201433640996985593
5460574 1 9223221949317621089

>  <PUBCHEM_SHAPE_MULTIPOLES>  (1) 
133.21
2.9
1.53
0.59
0.59
0.25
0
-0.63
0
-0.21
0
0.03
-0.02
0

>  <PUBCHEM_SHAPE_SELFOVERLAP>  (1) 
244.95

>  <PUBCHEM_SHAPE_VOLUME>  (1) 
85.8

>  <PUBCHEM_COORDINATE_TYPE>  (1) 
2
5
10

$$$$
