18539
     RDKit          3D

 15 17  0  0  0  0  0  0  0  0999 V2000
   -0.0282   -1.1823   -0.0249 N   0  0  0  0  0  0  0  0  0  0  0  0
    2.4741   -2.3931   -0.0439 N   0  0  0  0  0  0  0  0  0  0  0  0
   -3.9236    0.4519   -0.3355 C   0  0  0  0  0  0  0  0  0  0  0  0
   -3.7419   -0.8894    0.3655 C   0  0  0  0  0  0  0  0  0  0  0  0
   -2.8005    1.4143    0.0487 C   0  0  0  0  0  0  0  0  0  0  0  0
   -2.4294   -1.5388   -0.0672 C   0  0  0  0  0  0  0  0  0  0  0  0
   -1.4368    0.7822   -0.0022 C   0  0  0  0  0  0  0  0  0  0  0  0
   -1.2542   -0.5985   -0.0106 C   0  0  0  0  0  0  0  0  0  0  0  0
   -0.2928    1.5799    0.0228 C   0  0  0  0  0  0  0  0  0  0  0  0
    0.9820    1.0004    0.0156 C   0  0  0  0  0  0  0  0  0  0  0  0
    1.0689   -0.4039   -0.0097 C   0  0  0  0  0  0  0  0  0  0  0  0
    2.3352   -0.9824   -0.0181 C   0  0  0  0  0  0  0  0  0  0  0  0
    2.1486    1.7841    0.0343 C   0  0  0  0  0  0  0  0  0  0  0  0
    3.4958   -0.2051   -0.0008 C   0  0  0  0  0  0  0  0  0  0  0  0
    3.4028    1.1807    0.0259 C   0  0  0  0  0  0  0  0  0  0  0  0
  1  8  2  0
  1 11  1  0
  2 12  1  0
  3  4  1  0
  3  5  1  0
  4  6  1  0
  5  7  1  0
  6  8  1  0
  7  8  1  0
  7  9  2  0
  9 10  1  0
 10 11  2  0
 10 13  1  0
 11 12  1  0
 12 14  2  0
 13 15  2  0
 14 15  1  0
M  END
>  <PUBCHEM_COMPOUND_CID>  (1) 
18539

>  <PUBCHEM_CONFORMER_RMSD>  (1) 
0.4

>  <PUBCHEM_CONFORMER_DIVERSEORDER>  (1) 
1

>  <PUBCHEM_MMFF94_PARTIAL_CHARGES>  (1) 
18
1 -0.62
11 0.31
12 0.1
13 -0.15
14 -0.15
15 -0.15
2 -0.9
24 0.15
25 0.15
26 0.15
27 0.15
28 0.4
29 0.4
5 0.14
6 0.14
7 -0.14
8 0.17
9 -0.15

>  <PUBCHEM_EFFECTIVE_ROTOR_COUNT>  (1) 
0.8

>  <PUBCHEM_PHARMACOPHORE_FEATURES>  (1) 
6
1 1 acceptor
1 2 cation
1 2 donor
6 1 7 8 9 10 11 rings
6 10 11 12 13 14 15 rings
6 3 4 5 6 7 8 rings

>  <PUBCHEM_HEAVY_ATOM_COUNT>  (1) 
15

>  <PUBCHEM_ATOM_DEF_STEREO_COUNT>  (1) 
0

>  <PUBCHEM_ATOM_UDEF_STEREO_COUNT>  (1) 
0

>  <PUBCHEM_BOND_DEF_STEREO_COUNT>  (1) 
0

>  <PUBCHEM_BOND_UDEF_STEREO_COUNT>  (1) 
0

>  <PUBCHEM_ISOTOPIC_ATOM_COUNT>  (1) 
0

>  <PUBCHEM_COMPONENT_COUNT>  (1) 
1

>  <PUBCHEM_CACTVS_TAUTO_COUNT>  (1) 
1

>  <PUBCHEM_CONFORMER_ID>  (1) 
0000486B00000001

>  <PUBCHEM_MMFF94_ENERGY>  (1) 
46.9782

>  <PUBCHEM_FEATURE_SELFOVERLAP>  (1) 
30.501

>  <PUBCHEM_SHAPE_FINGERPRINT>  (1) 
10608611 8 18409726266166454741
10616163 171 18339927133399707927
10922523 26 18260827090192111829
10967382 1 18411136943700088302
10980938 120 18411419531294946194
11132069 177 18411693322385370808
11471102 20 18411133653908224444
12032990 46 18410580586568932631
12932764 1 17489298732919877889
13140716 1 18267022764952096913
13221675 6 18411419531068060367
13296908 3 18408042905342668083
13380535 21 18409738360614615917
13380535 76 18408884074671836938
13897977 150 18410852174546992565
14144814 61 18411419501145779201
14325111 11 18410573993878847585
14576447 43 17985531493769029583
15196674 1 18410573998041640769
15219456 202 18409729569038113589
15442244 35 18267867168470682648
15536298 74 18343021090621786604
16945 1 18339920544813919436
17834074 16 18410294717946244663
17844478 74 18113621192210744837
18186145 218 17822289050670175983
193761 8 15456495904233134644
19591789 44 15451166258141333133
200 152 18059568118484170117
20201158 50 18410012143320821210
20510252 161 18272373053385022097
20559304 39 18411418397671409002
20645477 70 18341046337689724775
21267235 1 18411146835010121775
21501502 16 18411419492423923705
21501925 9 18410564076936251570
221490 88 18408613569089319890
2334 1 18410575097563805057
23402539 116 18340758334045842700
23402655 69 18341325626538618221
23463225 33 18410293596812048412
23559900 14 18340199679529429946
2748010 2 18410292501605924573
3312278 4 18412266168048872161
335352 9 18050568443621819765
34934 24 18412254056114405815
5104073 3 18410573985193702113
528886 8 18411412934119736592
53812653 166 18271521000376648944
69090 78 18341608226954742951
7364860 26 18342457019845600262
8809292 202 18260552276572754611
9709674 26 18410016558632045671

>  <PUBCHEM_SHAPE_MULTIPOLES>  (1) 
298.73
6.63
2.04
0.62
1.78
0.35
0
0.21
0
-0.63
0
0.08
-0.02
0.13

>  <PUBCHEM_SHAPE_SELFOVERLAP>  (1) 
660.148

>  <PUBCHEM_SHAPE_VOLUME>  (1) 
159.3

>  <PUBCHEM_COORDINATE_TYPE>  (1) 
2
5
10

$$$$
