18545
     RDKit          3D

  9  9  0  0  0  0  0  0  0  0999 V2000
   -1.9576   -0.2051   -1.4932 Cl  0  0  0  0  0  0  0  0  0  0  0  0
   -1.9575   -0.2046    1.4929 Cl  0  0  0  0  0  0  0  0  0  0  0  0
    0.6901   -2.6374    0.0009 Cl  0  0  0  0  0  0  0  0  0  0  0  0
    2.8643    0.4728   -0.0004 Cl  0  0  0  0  0  0  0  0  0  0  0  0
   -0.1421    2.3061    0.0010 O   0  0  0  0  0  0  0  0  0  0  0  0
   -0.9542   -0.1162   -0.0003 C   0  0  0  0  0  0  0  0  0  0  0  0
    0.3437   -0.9058    0.0001 C   0  0  0  0  0  0  0  0  0  0  0  0
   -0.0230    1.0989   -0.0005 C   0  0  0  0  0  0  0  0  0  0  0  0
    1.1364    0.1914   -0.0005 C   0  0  0  0  0  0  0  0  0  0  0  0
  1  6  1  0
  2  6  1  0
  3  7  1  0
  4  9  1  0
  5  8  2  0
  6  7  1  0
  6  8  1  0
  7  9  2  0
  8  9  1  0
M  END
>  <PUBCHEM_COMPOUND_CID>  (1) 
18545

>  <PUBCHEM_CONFORMER_RMSD>  (1) 
0.4

>  <PUBCHEM_CONFORMER_DIVERSEORDER>  (1) 
1

>  <PUBCHEM_MMFF94_PARTIAL_CHARGES>  (1) 
8
1 -0.29
2 -0.29
3 -0.14
4 -0.14
5 -0.57
6 0.77
8 0.59
9 0.07

>  <PUBCHEM_EFFECTIVE_ROTOR_COUNT>  (1) 
0.2

>  <PUBCHEM_PHARMACOPHORE_FEATURES>  (1) 
2
1 5 acceptor
4 6 7 8 9 rings

>  <PUBCHEM_HEAVY_ATOM_COUNT>  (1) 
9

>  <PUBCHEM_ATOM_DEF_STEREO_COUNT>  (1) 
0

>  <PUBCHEM_ATOM_UDEF_STEREO_COUNT>  (1) 
0

>  <PUBCHEM_BOND_DEF_STEREO_COUNT>  (1) 
0

>  <PUBCHEM_BOND_UDEF_STEREO_COUNT>  (1) 
0

>  <PUBCHEM_ISOTOPIC_ATOM_COUNT>  (1) 
0

>  <PUBCHEM_COMPONENT_COUNT>  (1) 
1

>  <PUBCHEM_CACTVS_TAUTO_COUNT>  (1) 
1

>  <PUBCHEM_CONFORMER_ID>  (1) 
0000487100000001

>  <PUBCHEM_MMFF94_ENERGY>  (1) 
2.9401

>  <PUBCHEM_FEATURE_SELFOVERLAP>  (1) 
10.148

>  <PUBCHEM_SHAPE_FINGERPRINT>  (1) 
12423570 1 11452739017647417299
137420 1 9775617686387115787
20711978 78 18122922940111856899
23552423 10 18049993407604228966
29004967 10 18262815015641405185
5084963 1 18057880444964910189
68250623 7 17908415862437542085

>  <PUBCHEM_SHAPE_MULTIPOLES>  (1) 
186.83
2.85
2.13
1.16
1.14
0.85
0
-0.32
0
0.58
0
-1.05
0.07
0

>  <PUBCHEM_SHAPE_SELFOVERLAP>  (1) 
342.391

>  <PUBCHEM_SHAPE_VOLUME>  (1) 
121.5

>  <PUBCHEM_COORDINATE_TYPE>  (1) 
2
5
10

$$$$
