18557
     RDKit          3D

 28 31  0  0  1  0  0  0  0  0999 V2000
   -3.4496   -0.4108    1.3452 O   0  0  0  0  0  0  0  0  0  0  0  0
   -0.9785    1.5174   -0.4809 O   0  0  0  0  0  0  0  0  0  0  0  0
   -1.7104    0.8459   -2.5634 O   0  0  0  0  0  0  0  0  0  0  0  0
    0.8474    3.3529    0.6682 N   0  0  0  0  0  0  0  0  0  0  0  0
   -3.8033   -0.4705   -0.0468 C   0  0  0  0  0  0  0  0  0  0  0  0
   -2.8221   -1.3562   -0.7898 C   0  0  0  0  0  0  0  0  0  0  0  0
   -1.3928   -0.7880   -0.7886 C   0  0  0  0  0  0  0  0  0  0  0  0
   -5.2348   -0.9753   -0.0985 C   0  0  0  0  0  0  0  0  0  0  0  0
   -5.8123   -0.3698    1.1562 C   0  0  0  0  0  0  0  0  0  0  0  0
   -4.6535   -0.4887    2.1231 C   0  0  0  0  0  0  0  0  0  0  0  0
    1.3355    4.1764    1.7740 C   0  0  0  0  0  0  0  0  0  0  0  0
    1.8600    3.4847   -0.3791 C   0  0  0  0  0  0  0  0  0  0  0  0
   -0.4451   -1.7093   -1.5784 C   0  0  0  0  0  0  0  0  0  0  0  0
    2.8209    3.8490    1.8122 C   0  0  0  0  0  0  0  0  0  0  0  0
    3.1663    3.3978    0.3964 C   0  0  0  0  0  0  0  0  0  0  0  0
   -0.4755    3.7575    0.2161 C   0  0  0  0  0  0  0  0  0  0  0  0
   -1.3836    0.6020   -1.4088 C   0  0  0  0  0  0  0  0  0  0  0  0
    1.0079   -1.5124   -1.2156 C   0  0  0  0  0  0  0  0  0  0  0  0
   -0.9439    2.8754   -0.9302 C   0  0  0  0  0  0  0  0  0  0  0  0
    1.6247   -2.2448   -0.1882 C   0  0  0  0  0  0  0  0  0  0  0  0
    1.7270   -0.5652   -1.9454 C   0  0  0  0  0  0  0  0  0  0  0  0
    2.9902   -2.0133    0.1028 C   0  0  0  0  0  0  0  0  0  0  0  0
    0.9164   -3.2019    0.5567 C   0  0  0  0  0  0  0  0  0  0  0  0
    3.0699   -0.3379   -1.6594 C   0  0  0  0  0  0  0  0  0  0  0  0
    3.6988   -1.0565   -0.6421 C   0  0  0  0  0  0  0  0  0  0  0  0
    3.6071   -2.7456    1.1302 C   0  0  0  0  0  0  0  0  0  0  0  0
    1.5453   -3.9202    1.5740 C   0  0  0  0  0  0  0  0  0  0  0  0
    2.8882   -3.6924    1.8603 C   0  0  0  0  0  0  0  0  0  0  0  0
  1  5  1  0
  1 10  1  0
  2 17  1  0
  2 19  1  0
  3 17  2  0
  4 11  1  0
  4 12  1  0
  4 16  1  0
  5  6  1  0
  5  8  1  0
  6  7  1  0
  7 13  1  0
  7 17  1  0
  8  9  1  0
  9 10  1  0
 11 14  1  0
 12 15  1  0
 13 18  1  0
 14 15  1  0
 16 19  1  0
 18 20  1  0
 18 21  2  0
 20 22  2  0
 20 23  1  0
 21 24  1  0
 22 25  1  0
 22 26  1  0
 23 27  2  0
 24 25  2  0
 26 28  2  0
 27 28  1  0
M  END
>  <PUBCHEM_COMPOUND_CID>  (1) 
18557

>  <PUBCHEM_CONFORMER_RMSD>  (1) 
1.2

>  <PUBCHEM_CONFORMER_DIVERSEORDER>  (1) 
1
136
104
11
14
109
64
36
19
28
139
76
72
69
166
37
57
155
93
122
10
130
128
27
159
29
46
39
15
131
77
120
103
58
73
96
16
88
44
98
108
161
62
95
168
111
172
99
80
9
12
105
127
8
147
140
50
163
21
56
18
152
160
142
144
30
118
137
92
86
17
114
49
100
74
135
154
151
91
102
48
47
101
78
97
66
13
33
3
35
112
53
82
132
150
174
22
43
110
41
20
141
164
34
84
85
171
138
63
42
145
149
113
167
4
81
68
61
59
107
117
60
170
65
148
55
106
45
115
83
119
129
51
25
54
87
125
70
75
121
134
123
165
169
40
23
153
116
89
38
143
157
156
158
6
71
31
5
24
2
133
32
52
124
94
26
90
173
126
146
67
79
7
162

>  <PUBCHEM_MMFF94_PARTIAL_CHARGES>  (1) 
28
1 -0.56
10 0.28
11 0.27
12 0.27
13 0.14
16 0.27
17 0.66
18 -0.14
19 0.28
2 -0.43
21 -0.15
23 -0.15
24 -0.15
25 -0.15
26 -0.15
27 -0.15
28 -0.15
3 -0.57
4 -0.81
5 0.28
53 0.15
54 0.15
55 0.15
56 0.15
57 0.15
58 0.15
59 0.15
7 0.06

>  <PUBCHEM_EFFECTIVE_ROTOR_COUNT>  (1) 
11

>  <PUBCHEM_PHARMACOPHORE_FEATURES>  (1) 
7
1 1 acceptor
1 3 acceptor
1 4 cation
5 1 5 8 9 10 rings
5 4 11 12 14 15 rings
6 18 20 21 22 24 25 rings
6 20 22 23 26 27 28 rings

>  <PUBCHEM_HEAVY_ATOM_COUNT>  (1) 
28

>  <PUBCHEM_ATOM_DEF_STEREO_COUNT>  (1) 
0

>  <PUBCHEM_ATOM_UDEF_STEREO_COUNT>  (1) 
2

>  <PUBCHEM_BOND_DEF_STEREO_COUNT>  (1) 
0

>  <PUBCHEM_BOND_UDEF_STEREO_COUNT>  (1) 
0

>  <PUBCHEM_ISOTOPIC_ATOM_COUNT>  (1) 
0

>  <PUBCHEM_COMPONENT_COUNT>  (1) 
1

>  <PUBCHEM_CACTVS_TAUTO_COUNT>  (1) 
1

>  <PUBCHEM_CONFORMER_ID>  (1) 
0000487D00000001

>  <PUBCHEM_MMFF94_ENERGY>  (1) 
62.2748

>  <PUBCHEM_FEATURE_SELFOVERLAP>  (1) 
35.549

>  <PUBCHEM_SHAPE_FINGERPRINT>  (1) 
10258939 38 16226058785744643311
11421498 54 18265064531102792202
11552529 35 17613149672472467275
12156800 1 15302464328773103204
12160290 23 17546168498129051229
12788726 201 18120389669584812111
13009979 54 17974286517774345806
13140716 1 18190462855704163534
133893 2 17984386837370311205
15420108 30 17916587695074941237
15475509 84 18119248350655218849
16112460 7 17912635011156739464
16120349 306 17766538515310503720
19319366 153 18188783845988450126
22223350 30 17900552473472734570
23419403 2 18261380140604781373
23558518 356 17620194668847061095
23559900 14 17386005027392306967
244849 19 17968918869911448247
3411729 13 18128825320688509877
35225 105 16818595269818868249
352729 6 17618222806501049759
392239 28 18337377332060213370
4058900 60 18120111716566128477
4616759 239 17178522622376979186
57527306 92 17846510218483818256
7288768 16 17765990984368659312
79837 15 17545881993740238187

>  <PUBCHEM_SHAPE_MULTIPOLES>  (1) 
553.64
8.36
6.41
2.15
12.5
5.51
-0.03
-3.52
-3.62
-8.03
-3.99
-0.03
-0.18
0.26

>  <PUBCHEM_SHAPE_SELFOVERLAP>  (1) 
1175.45

>  <PUBCHEM_SHAPE_VOLUME>  (1) 
311.6

>  <PUBCHEM_COORDINATE_TYPE>  (1) 
2
5
10

$$$$
