18565
     RDKit          3D

 28 29  0  0  1  0  0  0  0  0999 V2000
    0.7394   -1.3923   -0.1064 O   0  0  0  0  0  0  0  0  0  0  0  0
   -1.1686   -0.5569    1.5652 O   0  0  0  0  0  0  0  0  0  0  0  0
   -1.1158   -2.2063   -1.1944 O   0  0  0  0  0  0  0  0  0  0  0  0
    3.5163   -1.0061   -0.6015 N   0  0  0  0  0  0  0  0  0  0  0  0
    4.6504   -0.6374    0.2377 C   0  0  0  0  0  0  0  0  0  0  0  0
   -1.3091   -0.1889    0.1778 C   0  0  0  0  0  0  0  0  0  0  0  0
    2.9555   -2.2896   -0.1754 C   0  0  0  0  0  0  0  0  0  0  0  0
    4.1629   -0.0965    1.5807 C   0  0  0  0  0  0  0  0  0  0  0  0
    3.9153   -1.0686   -2.0087 C   0  0  0  0  0  0  0  0  0  0  0  0
    1.5237   -2.4385   -0.6644 C   0  0  0  0  0  0  0  0  0  0  0  0
   -2.7899   -0.0853   -0.1950 C   0  0  0  0  0  0  0  0  0  0  0  0
   -0.5878    1.1363   -0.0784 C   0  0  0  0  0  0  0  0  0  0  0  0
    3.3044    1.1550    1.3936 C   0  0  0  0  0  0  0  0  0  0  0  0
   -0.5904   -1.3842   -0.4532 C   0  0  0  0  0  0  0  0  0  0  0  0
    4.4396    0.2734   -2.4908 C   0  0  0  0  0  0  0  0  0  0  0  0
   -3.2065   -0.3961   -1.4896 C   0  0  0  0  0  0  0  0  0  0  0  0
   -0.5172    2.0981    0.9294 C   0  0  0  0  0  0  0  0  0  0  0  0
   -3.7231    0.3194    0.7595 C   0  0  0  0  0  0  0  0  0  0  0  0
   -0.0004    1.3821   -1.3196 C   0  0  0  0  0  0  0  0  0  0  0  0
    2.7860    1.6792    2.7234 C   0  0  0  0  0  0  0  0  0  0  0  0
   -1.7812   -1.8058    1.8166 C   0  0  0  0  0  0  0  0  0  0  0  0
   -4.5561   -0.3019   -1.8295 C   0  0  0  0  0  0  0  0  0  0  0  0
    0.1403    3.3059    0.6960 C   0  0  0  0  0  0  0  0  0  0  0  0
   -5.0726    0.4135    0.4195 C   0  0  0  0  0  0  0  0  0  0  0  0
    0.6573    2.5900   -1.5528 C   0  0  0  0  0  0  0  0  0  0  0  0
   -5.4891    0.1028   -0.8751 C   0  0  0  0  0  0  0  0  0  0  0  0
    0.7276    3.5518   -0.5449 C   0  0  0  0  0  0  0  0  0  0  0  0
   -1.6108   -2.1529    3.2801 C   0  0  0  0  0  0  0  0  0  0  0  0
  1 10  1  0
  1 14  1  0
  2  6  1  0
  2 21  1  0
  3 14  2  0
  4  5  1  0
  4  7  1  0
  4  9  1  0
  5  8  1  0
  6 11  1  0
  6 12  1  0
  6 14  1  0
  7 10  1  0
  8 13  1  0
  9 15  1  0
 11 16  2  0
 11 18  1  0
 12 17  2  0
 12 19  1  0
 13 20  1  0
 16 22  1  0
 17 23  1  0
 18 24  2  0
 19 25  2  0
 21 28  1  0
 22 26  2  0
 23 27  2  0
 24 26  1  0
 25 27  1  0
M  END
>  <PUBCHEM_COMPOUND_CID>  (1) 
18565

>  <PUBCHEM_CONFORMER_RMSD>  (1) 
1.2

>  <PUBCHEM_CONFORMER_DIVERSEORDER>  (1) 
1
21
80
74
32
6
11
70
66
54
69
83
43
62
36
41
27
58
35
86
5
88
76
30
79
72
50
24
77
26
47
55
56
19
13
65
81
18
34
52
44
16
40
42
25
31
73
82
85
3
87
57
17
53
78
61
7
23
49
60
29
8
39
48
84
75
12
63
71
46
68
37
67
2
28
9
38
64
15
20
45
33
10
59
51
14
22
4

>  <PUBCHEM_MMFF94_PARTIAL_CHARGES>  (1) 
33
1 -0.43
10 0.28
11 -0.14
12 -0.14
14 0.66
16 -0.15
17 -0.15
18 -0.15
19 -0.15
2 -0.56
21 0.28
22 -0.15
23 -0.15
24 -0.15
25 -0.15
26 -0.15
27 -0.15
3 -0.57
4 -0.81
44 0.15
45 0.15
46 0.15
47 0.15
5 0.27
53 0.15
54 0.15
55 0.15
56 0.15
57 0.15
58 0.15
6 0.63
7 0.27
9 0.27

>  <PUBCHEM_EFFECTIVE_ROTOR_COUNT>  (1) 
13

>  <PUBCHEM_PHARMACOPHORE_FEATURES>  (1) 
6
1 2 acceptor
1 20 hydrophobe
1 3 acceptor
1 4 cation
6 11 16 18 22 24 26 rings
6 12 17 19 23 25 27 rings

>  <PUBCHEM_HEAVY_ATOM_COUNT>  (1) 
28

>  <PUBCHEM_ATOM_DEF_STEREO_COUNT>  (1) 
0

>  <PUBCHEM_ATOM_UDEF_STEREO_COUNT>  (1) 
0

>  <PUBCHEM_BOND_DEF_STEREO_COUNT>  (1) 
0

>  <PUBCHEM_BOND_UDEF_STEREO_COUNT>  (1) 
0

>  <PUBCHEM_ISOTOPIC_ATOM_COUNT>  (1) 
0

>  <PUBCHEM_COMPONENT_COUNT>  (1) 
1

>  <PUBCHEM_CACTVS_TAUTO_COUNT>  (1) 
1

>  <PUBCHEM_CONFORMER_ID>  (1) 
0000488500000001

>  <PUBCHEM_MMFF94_ENERGY>  (1) 
73.9298

>  <PUBCHEM_FEATURE_SELFOVERLAP>  (1) 
30.446

>  <PUBCHEM_SHAPE_FINGERPRINT>  (1) 
10366900 7 18338243657007702970
10906281 52 18119275920361632357
12035758 1 18114181960452499689
12156800 1 12982074295508166224
12403259 226 18055346930020758518
12467345 10 16845563240631742125
12553582 1 18336841826599563044
12596599 1 16917078732867682046
12788726 201 18114744820095867944
13149001 5 18114470045452703611
13402501 40 18272357669107378504
13911987 19 18261973880656774655
14170010 4 18412536618614816789
14251739 40 17418087758435115481
14787075 74 18113626672752791751
14955137 171 18129681741636269015
15840311 113 17489314045248662465
15848702 151 17418086615905080693
17349148 13 18261117348239721229
1813 80 18335696130972545445
18785283 64 18043540606142596933
19930381 70 17988349391366881458
20600515 1 17894352155177602900
20691752 17 18115588127981030017
21304253 335 18059581231114659961
22182313 1 18194379152987378085
23419403 2 17971782053676676203
23558518 356 17685221573146087022
23559900 14 17822298916458696018
3380486 77 17313935325614432352
3493558 16 15841002052691337569
35225 105 16980998673950301640
404807 14 16842219458315957023
70251023 43 18053105012663583967
81228 2 18046360634097189660
9981440 41 17333069323746770249

>  <PUBCHEM_SHAPE_MULTIPOLES>  (1) 
553.64
9.28
3.24
2.57
2.27
1.84
-1.07
-1.81
2.5
-1.38
-0.46
-1.18
-0.51
1.23

>  <PUBCHEM_SHAPE_SELFOVERLAP>  (1) 
1141.634

>  <PUBCHEM_SHAPE_VOLUME>  (1) 
317.8

>  <PUBCHEM_COORDINATE_TYPE>  (1) 
2
5
10

$$$$
