18592
     RDKit          3D

  4  3  0  0  0  0  0  0  0  0999 V2000
   -1.8891   -0.4559    0.0000 Cl  0  0  0  0  0  0  0  0  0  0  0  0
   -0.5744    0.6289    0.0000 C   0  0  0  0  0  0  0  0  0  0  0  0
    0.6275    0.1509    0.0000 C   0  0  0  0  0  0  0  0  0  0  0  0
    1.8360   -0.3239    0.0000 C   0  0  0  0  0  0  0  0  0  0  0  0
  1  2  1  0
  2  3  2  0
  3  4  2  0
M  END
>  <PUBCHEM_COMPOUND_CID>  (1) 
18592

>  <PUBCHEM_CONFORMER_RMSD>  (1) 
0.4

>  <PUBCHEM_CONFORMER_DIVERSEORDER>  (1) 
1

>  <PUBCHEM_MMFF94_PARTIAL_CHARGES>  (1) 
7
1 -0.14
2 0.05
3 -0.13
4 -0.24
5 0.15
6 0.15
7 0.15

>  <PUBCHEM_EFFECTIVE_ROTOR_COUNT>  (1) 
0

>  <PUBCHEM_PHARMACOPHORE_FEATURES>  (1) 
1
1 4 hydrophobe

>  <PUBCHEM_HEAVY_ATOM_COUNT>  (1) 
4

>  <PUBCHEM_ATOM_DEF_STEREO_COUNT>  (1) 
0

>  <PUBCHEM_ATOM_UDEF_STEREO_COUNT>  (1) 
0

>  <PUBCHEM_BOND_DEF_STEREO_COUNT>  (1) 
0

>  <PUBCHEM_BOND_UDEF_STEREO_COUNT>  (1) 
0

>  <PUBCHEM_ISOTOPIC_ATOM_COUNT>  (1) 
0

>  <PUBCHEM_COMPONENT_COUNT>  (1) 
1

>  <PUBCHEM_CACTVS_TAUTO_COUNT>  (1) 
1

>  <PUBCHEM_CONFORMER_ID>  (1) 
000048A000000001

>  <PUBCHEM_MMFF94_ENERGY>  (1) 
0.6867

>  <PUBCHEM_FEATURE_SELFOVERLAP>  (1) 
5.074

>  <PUBCHEM_SHAPE_FINGERPRINT>  (1) 
139733 1 18410856521006195908
20096714 4 9439401332706552534
21015797 1 17981883356551814900
29004967 10 18410857689232051843
5460574 1 18410856551118452743

>  <PUBCHEM_SHAPE_MULTIPOLES>  (1) 
84.19
2.58
0.81
0.63
0.1
0.02
0
-0.62
0
0.11
0
0.02
0
0

>  <PUBCHEM_SHAPE_SELFOVERLAP>  (1) 
138.876

>  <PUBCHEM_SHAPE_VOLUME>  (1) 
58.2

>  <PUBCHEM_COORDINATE_TYPE>  (1) 
2
5
10

$$$$
