18603
     RDKit          3D

  8  7  0  0  0  0  0  0  0  0999 V2000
    0.6703    2.2348    0.2803 Br  0  0  0  0  0  0  0  0  0  0  0  0
   -0.6680   -2.2294    0.2900 Br  0  0  0  0  0  0  0  0  0  0  0  0
    2.3699   -0.4924   -0.9896 O   0  0  0  0  0  0  0  0  0  0  0  0
   -2.3768    0.4755   -0.9895 O   0  0  0  0  0  0  0  0  0  0  0  0
    0.5814    0.3491    0.3511 C   0  0  0  0  0  0  0  0  0  0  0  0
   -0.5790   -0.3434    0.3533 C   0  0  0  0  0  0  0  0  0  0  0  0
    1.9520   -0.2770    0.3519 C   0  0  0  0  0  0  0  0  0  0  0  0
   -1.9496    0.2827    0.3525 C   0  0  0  0  0  0  0  0  0  0  0  0
  1  5  1  0
  2  6  1  0
  3  7  1  0
  4  8  1  0
  5  6  2  0
  5  7  1  0
  6  8  1  0
M  END
>  <PUBCHEM_COMPOUND_CID>  (1) 
18603

>  <PUBCHEM_CONFORMER_RMSD>  (1) 
0.4

>  <PUBCHEM_CONFORMER_DIVERSEORDER>  (1) 
1
4
3
2
5

>  <PUBCHEM_MMFF94_PARTIAL_CHARGES>  (1) 
10
1 -0.11
13 0.4
14 0.4
2 -0.11
3 -0.68
4 -0.68
5 -0.03
6 -0.03
7 0.42
8 0.42

>  <PUBCHEM_EFFECTIVE_ROTOR_COUNT>  (1) 
2

>  <PUBCHEM_PHARMACOPHORE_FEATURES>  (1) 
6
1 1 hydrophobe
1 2 hydrophobe
1 3 acceptor
1 3 donor
1 4 acceptor
1 4 donor

>  <PUBCHEM_HEAVY_ATOM_COUNT>  (1) 
8

>  <PUBCHEM_ATOM_DEF_STEREO_COUNT>  (1) 
0

>  <PUBCHEM_ATOM_UDEF_STEREO_COUNT>  (1) 
0

>  <PUBCHEM_BOND_DEF_STEREO_COUNT>  (1) 
0

>  <PUBCHEM_BOND_UDEF_STEREO_COUNT>  (1) 
1

>  <PUBCHEM_ISOTOPIC_ATOM_COUNT>  (1) 
0

>  <PUBCHEM_COMPONENT_COUNT>  (1) 
1

>  <PUBCHEM_CACTVS_TAUTO_COUNT>  (1) 
1

>  <PUBCHEM_CONFORMER_ID>  (1) 
000048AB00000001

>  <PUBCHEM_MMFF94_ENERGY>  (1) 
11.8787

>  <PUBCHEM_FEATURE_SELFOVERLAP>  (1) 
30.446

>  <PUBCHEM_SHAPE_FINGERPRINT>  (1) 
15310529 11 17022913362438221930
161256 15 17832722535380793035
16714656 1 18337118873311815594
20711978 78 17342118213626015026
21040471 1 18334569135822272387
22082395 3 18338526231142230186
23211744 25 17754474661203825826
23552423 10 17974287925974473082
24536 1 18058733657292596025
29004967 10 18202568384278284120
5084963 1 18201995556016165497

>  <PUBCHEM_SHAPE_MULTIPOLES>  (1) 
164.78
2.88
2.26
0.89
0.01
0
0.12
0
0.47
-0.01
-0.02
0
0
0.56

>  <PUBCHEM_SHAPE_SELFOVERLAP>  (1) 
280.237

>  <PUBCHEM_SHAPE_VOLUME>  (1) 
113.7

>  <PUBCHEM_COORDINATE_TYPE>  (1) 
2
5
10

$$$$
