18613
     RDKit          3D

  8  7  0  0  0  0  0  0  0  0999 V2000
   -4.1822    0.1801    0.0006 O   0  0  0  0  0  0  0  0  0  0  0  0
    4.1641   -0.1767    0.0006 O   0  0  0  0  0  0  0  0  0  0  0  0
   -0.6386   -0.3329   -0.0001 C   0  0  0  0  0  0  0  0  0  0  0  0
    0.6527    0.3197   -0.0005 C   0  0  0  0  0  0  0  0  0  0  0  0
   -1.7922    0.3470   -0.0002 C   0  0  0  0  0  0  0  0  0  0  0  0
    1.8064   -0.3592   -0.0003 C   0  0  0  0  0  0  0  0  0  0  0  0
   -3.0882   -0.3683   -0.0001 C   0  0  0  0  0  0  0  0  0  0  0  0
    3.0780    0.3902    0.0001 C   0  0  0  0  0  0  0  0  0  0  0  0
  1  7  2  0
  2  8  2  0
  3  4  1  0
  3  5  2  0
  4  6  2  0
  5  7  1  0
  6  8  1  0
M  END
>  <PUBCHEM_COMPOUND_CID>  (1) 
18613

>  <PUBCHEM_CONFORMER_RMSD>  (1) 
0.6

>  <PUBCHEM_CONFORMER_DIVERSEORDER>  (1) 
1
2
3
4

>  <PUBCHEM_MMFF94_PARTIAL_CHARGES>  (1) 
14
1 -0.57
10 0.15
11 0.15
12 0.15
13 0.06
14 0.06
2 -0.57
3 -0.15
4 -0.15
5 -0.14
6 -0.14
7 0.5
8 0.5
9 0.15

>  <PUBCHEM_EFFECTIVE_ROTOR_COUNT>  (1) 
3

>  <PUBCHEM_PHARMACOPHORE_FEATURES>  (1) 
2
1 1 acceptor
1 2 acceptor

>  <PUBCHEM_HEAVY_ATOM_COUNT>  (1) 
8

>  <PUBCHEM_ATOM_DEF_STEREO_COUNT>  (1) 
0

>  <PUBCHEM_ATOM_UDEF_STEREO_COUNT>  (1) 
0

>  <PUBCHEM_BOND_DEF_STEREO_COUNT>  (1) 
0

>  <PUBCHEM_BOND_UDEF_STEREO_COUNT>  (1) 
2

>  <PUBCHEM_ISOTOPIC_ATOM_COUNT>  (1) 
0

>  <PUBCHEM_COMPONENT_COUNT>  (1) 
1

>  <PUBCHEM_CACTVS_TAUTO_COUNT>  (1) 
1

>  <PUBCHEM_CONFORMER_ID>  (1) 
000048B500000001

>  <PUBCHEM_MMFF94_ENERGY>  (1) 
5.8684

>  <PUBCHEM_FEATURE_SELFOVERLAP>  (1) 
10.149

>  <PUBCHEM_SHAPE_FINGERPRINT>  (1) 
11062470 55 18410575088963333953
12932764 1 18339343228152584551
14325111 11 18410575076089040035
190213 19 15770060540059121922
20719005 15 18410575097806560587
5460574 1 9223231844827267074

>  <PUBCHEM_SHAPE_MULTIPOLES>  (1) 
152.9
7.49
0.7
0.59
0.12
0
0
-0.03
0
-0.01
0
0
0
0

>  <PUBCHEM_SHAPE_SELFOVERLAP>  (1) 
286.352

>  <PUBCHEM_SHAPE_VOLUME>  (1) 
94.2

>  <PUBCHEM_COORDINATE_TYPE>  (1) 
2
5
10

$$$$
