18610
     RDKit          3D

 10  9  0  0  0  0  0  0  0  0999 V2000
    0.5344   -0.4960    0.0017 O   0  0  0  0  0  0  0  0  0  0  0  0
   -0.5345    0.4962   -0.0020 O   0  0  0  0  0  0  0  0  0  0  0  0
    1.8339    1.4153    0.0044 O   0  0  0  0  0  0  0  0  0  0  0  0
   -1.8337   -1.4153   -0.0031 O   0  0  0  0  0  0  0  0  0  0  0  0
    2.8575   -0.7896    0.0074 C   0  0  0  0  0  0  0  0  0  0  0  0
   -2.8577    0.7895   -0.0077 C   0  0  0  0  0  0  0  0  0  0  0  0
    4.2097   -0.0982   -0.0087 C   0  0  0  0  0  0  0  0  0  0  0  0
   -4.2097    0.0980    0.0082 C   0  0  0  0  0  0  0  0  0  0  0  0
    1.7142    0.1978    0.0035 C   0  0  0  0  0  0  0  0  0  0  0  0
   -1.7141   -0.1977   -0.0037 C   0  0  0  0  0  0  0  0  0  0  0  0
  1  2  1  0
  1  9  1  0
  2 10  1  0
  3  9  2  0
  4 10  2  0
  5  7  1  0
  5  9  1  0
  6  8  1  0
  6 10  1  0
M  END
>  <PUBCHEM_COMPOUND_CID>  (1) 
18610

>  <PUBCHEM_CONFORMER_RMSD>  (1) 
0.6

>  <PUBCHEM_CONFORMER_DIVERSEORDER>  (1) 
1
34
65
27
79
40
10
20
5
73
28
55
29
72
15
14
36
18
42
66
70
4
69
9
76
31
37
11
62
6
74
7
24
3
16
53
67
41
59
46
39
75
78
61
22
71
32
17
8
54
25
43
60
13
63
21
12
33
19
30
38
2
48
23
50
64
51
47
56
26
49
35
45
58
57
77
68
52
44

>  <PUBCHEM_MMFF94_PARTIAL_CHARGES>  (1) 
8
1 -0.15
10 0.66
2 -0.15
3 -0.57
4 -0.57
5 0.06
6 0.06
9 0.66

>  <PUBCHEM_EFFECTIVE_ROTOR_COUNT>  (1) 
5

>  <PUBCHEM_PHARMACOPHORE_FEATURES>  (1) 
4
1 3 acceptor
1 4 acceptor
1 7 hydrophobe
1 8 hydrophobe

>  <PUBCHEM_HEAVY_ATOM_COUNT>  (1) 
10

>  <PUBCHEM_ATOM_DEF_STEREO_COUNT>  (1) 
0

>  <PUBCHEM_ATOM_UDEF_STEREO_COUNT>  (1) 
0

>  <PUBCHEM_BOND_DEF_STEREO_COUNT>  (1) 
0

>  <PUBCHEM_BOND_UDEF_STEREO_COUNT>  (1) 
0

>  <PUBCHEM_ISOTOPIC_ATOM_COUNT>  (1) 
0

>  <PUBCHEM_COMPONENT_COUNT>  (1) 
1

>  <PUBCHEM_CACTVS_TAUTO_COUNT>  (1) 
1

>  <PUBCHEM_CONFORMER_ID>  (1) 
000048B200000001

>  <PUBCHEM_MMFF94_ENERGY>  (1) 
1.9023

>  <PUBCHEM_FEATURE_SELFOVERLAP>  (1) 
20.298

>  <PUBCHEM_SHAPE_FINGERPRINT>  (1) 
11062470 55 15554444089406903897
12932764 1 17168410640751001603
14325111 11 18410855490192939361
17834076 25 17632577145713533944
190213 19 15864075351238965583
20201158 50 18343304742851777150
20645477 70 18200032837704072078
20719005 15 18410575080378758570
23402539 116 18059848446768111229
23402655 69 18342449297494512845

>  <PUBCHEM_SHAPE_MULTIPOLES>  (1) 
182.32
7.68
1.09
0.58
0
0
0
0
0
0
0
0
0
0

>  <PUBCHEM_SHAPE_SELFOVERLAP>  (1) 
338.44

>  <PUBCHEM_SHAPE_VOLUME>  (1) 
114.8

>  <PUBCHEM_COORDINATE_TYPE>  (1) 
2
5
10

$$$$
