18630
     RDKit          3D

  7  6  0  0  0  0  0  0  0  0999 V2000
   -2.4135   -0.8711    0.0077 O   0  0  0  0  0  0  0  0  0  0  0  0
    1.3108    1.2353    0.0151 O   0  0  0  0  0  0  0  0  0  0  0  0
   -1.2373   -0.1493   -0.0014 C   0  0  0  0  0  0  0  0  0  0  0  0
   -0.0330   -0.7411    0.0007 C   0  0  0  0  0  0  0  0  0  0  0  0
    1.2573    0.0085   -0.0064 C   0  0  0  0  0  0  0  0  0  0  0  0
   -1.3983    1.3401   -0.0113 C   0  0  0  0  0  0  0  0  0  0  0  0
    2.5139   -0.8224   -0.0043 C   0  0  0  0  0  0  0  0  0  0  0  0
  1  3  1  0
  2  5  2  0
  3  4  2  0
  3  6  1  0
  4  5  1  0
  5  7  1  0
M  END
>  <PUBCHEM_COMPOUND_CID>  (1) 
18630

>  <PUBCHEM_CONFORMER_RMSD>  (1) 
0.4

>  <PUBCHEM_CONFORMER_DIVERSEORDER>  (1) 
3
1
2

>  <PUBCHEM_MMFF94_PARTIAL_CHARGES>  (1) 
9
1 -0.53
15 0.45
2 -0.57
3 -0.06
4 -0.14
5 0.49
6 0.14
7 0.06
8 0.15

>  <PUBCHEM_EFFECTIVE_ROTOR_COUNT>  (1) 
1

>  <PUBCHEM_PHARMACOPHORE_FEATURES>  (1) 
2
1 1 donor
1 2 acceptor

>  <PUBCHEM_HEAVY_ATOM_COUNT>  (1) 
7

>  <PUBCHEM_ATOM_DEF_STEREO_COUNT>  (1) 
0

>  <PUBCHEM_ATOM_UDEF_STEREO_COUNT>  (1) 
0

>  <PUBCHEM_BOND_DEF_STEREO_COUNT>  (1) 
0

>  <PUBCHEM_BOND_UDEF_STEREO_COUNT>  (1) 
1

>  <PUBCHEM_ISOTOPIC_ATOM_COUNT>  (1) 
0

>  <PUBCHEM_COMPONENT_COUNT>  (1) 
1

>  <PUBCHEM_CACTVS_TAUTO_COUNT>  (1) 
5

>  <PUBCHEM_CONFORMER_ID>  (1) 
000048C600000003

>  <PUBCHEM_MMFF94_ENERGY>  (1) 
12.2344

>  <PUBCHEM_FEATURE_SELFOVERLAP>  (1) 
10.148

>  <PUBCHEM_SHAPE_FINGERPRINT>  (1) 
16714656 1 18192435164789174260
20096714 4 18410012100365860440
21040471 1 17978228257741766373
23552423 10 18260270741503190910
24536 1 18338220626812390700
29004967 10 16558752291147447626
5084963 1 18344146990170030722
5460574 1 9295289439113316230

>  <PUBCHEM_SHAPE_MULTIPOLES>  (1) 
132.32
3.21
1.3
0.59
0.59
0.32
0
-0.63
0
-0.29
0
0.02
0
0.01

>  <PUBCHEM_SHAPE_SELFOVERLAP>  (1) 
245.459

>  <PUBCHEM_SHAPE_VOLUME>  (1) 
83.8

>  <PUBCHEM_COORDINATE_TYPE>  (1) 
2
5
10

$$$$
