18637
     RDKit          3D

 16 16  0  0  0  0  0  0  0  0999 V2000
    2.2224    0.6235    0.0606 O   0  0  0  0  0  0  0  0  0  0  0  0
    5.6430   -0.0893    0.0039 O   0  0  0  0  0  0  0  0  0  0  0  0
    4.5458    1.8106    0.1603 O   0  0  0  0  0  0  0  0  0  0  0  0
   -3.7382   -1.5954   -0.1370 O   0  0  0  0  0  0  0  0  0  0  0  0
   -5.5199    0.3431    0.9946 O   0  0  0  0  0  0  0  0  0  0  0  0
    4.5512    0.5489    0.0559 N   0  0  0  0  0  0  0  0  0  0  0  0
   -1.2062   -0.4026   -0.0278 N   0  0  0  0  0  0  0  0  0  0  0  0
   -2.3632    0.2946    0.0285 N   0  0  0  0  0  0  0  0  0  0  0  0
   -4.8299    1.4087   -0.9579 N   0  0  0  0  0  0  0  0  0  0  0  0
    1.1912   -0.2371   -0.0117 C   0  0  0  0  0  0  0  0  0  0  0  0
    1.5938   -1.5270   -0.1191 C   0  0  0  0  0  0  0  0  0  0  0  0
    3.3412   -0.1449   -0.0032 C   0  0  0  0  0  0  0  0  0  0  0  0
    3.0082   -1.4748   -0.1144 C   0  0  0  0  0  0  0  0  0  0  0  0
   -0.1443    0.3344    0.0356 C   0  0  0  0  0  0  0  0  0  0  0  0
   -3.5496   -0.3938   -0.0336 C   0  0  0  0  0  0  0  0  0  0  0  0
   -4.7454    0.5012    0.0653 C   0  0  0  0  0  0  0  0  0  0  0  0
  1 10  1  0
  1 12  1  0
  2  6  1  0
  3  6  2  0
  4 15  2  0
  5 16  2  0
  6 12  1  0
  7  8  1  0
  7 14  2  0
  8 15  1  0
  9 16  1  0
 10 11  2  0
 10 14  1  0
 11 13  1  0
 12 13  2  0
 15 16  1  0
M  CHG  2   2  -1   6   1
M  END
>  <PUBCHEM_COMPOUND_CID>  (1) 
18637

>  <PUBCHEM_CONFORMER_RMSD>  (1) 
0.6

>  <PUBCHEM_CONFORMER_DIVERSEORDER>  (1) 
1
10
17
14
6
4
11
9
18
8
3
13
15
5
2
19
12
16
7

>  <PUBCHEM_MMFF94_PARTIAL_CHARGES>  (1) 
22
1 -0.28
10 0.05
11 -0.15
12 0.22
13 -0.15
14 0.47
15 0.63
16 0.63
17 0.15
18 0.15
19 0.06
2 -0.52
20 0.37
21 0.37
22 0.37
3 -0.52
4 -0.57
5 -0.57
6 0.96
7 -0.51
8 -0.37
9 -0.8

>  <PUBCHEM_EFFECTIVE_ROTOR_COUNT>  (1) 
5

>  <PUBCHEM_PHARMACOPHORE_FEATURES>  (1) 
10
1 1 acceptor
1 2 acceptor
1 2 anion
1 3 acceptor
1 4 acceptor
1 5 acceptor
1 7 acceptor
1 8 donor
1 9 donor
5 1 10 11 12 13 rings

>  <PUBCHEM_HEAVY_ATOM_COUNT>  (1) 
16

>  <PUBCHEM_ATOM_DEF_STEREO_COUNT>  (1) 
0

>  <PUBCHEM_ATOM_UDEF_STEREO_COUNT>  (1) 
0

>  <PUBCHEM_BOND_DEF_STEREO_COUNT>  (1) 
0

>  <PUBCHEM_BOND_UDEF_STEREO_COUNT>  (1) 
1

>  <PUBCHEM_ISOTOPIC_ATOM_COUNT>  (1) 
0

>  <PUBCHEM_COMPONENT_COUNT>  (1) 
1

>  <PUBCHEM_CACTVS_TAUTO_COUNT>  (1) 
4

>  <PUBCHEM_CONFORMER_ID>  (1) 
000048CD00000001

>  <PUBCHEM_MMFF94_ENERGY>  (1) 
21.2355

>  <PUBCHEM_FEATURE_SELFOVERLAP>  (1) 
50.848

>  <PUBCHEM_SHAPE_FINGERPRINT>  (1) 
10014705 185 18335134281247644045
11287383 113 18260270767214823209
13675066 3 18040440966978588591
14123238 8 17676488349986792735
15048467 5 18272090491570491281
15242433 33 18344146977596553463
15375358 24 18334014986394126971
17834072 33 18130784594305340335
17834076 25 17632859715927997579
20279233 1 17822301170915015243
20645477 56 18260825986844387581
20645477 70 18200877266406938366
21709351 56 18410005580594956204
22485316 2 18409165498156510135
23402539 116 17967245407890441526
23402655 69 18201718448641568599
23557571 272 17386286493620294972
23559900 14 18342457019903908394
2916195 48 18040995159219640217
300161 21 18411693279773236359
3545911 37 18411703179619976187
4214541 1 18410855469340556127
42788 4 18410575093258294761
449060 50 18410294709477564551
5104073 3 18410009948693078883
542803 24 18410573993746660491
77779 3 18411700972017530439

>  <PUBCHEM_SHAPE_MULTIPOLES>  (1) 
280
13.12
1.4
0.67
4.73
0.11
0
-3.52
0.54
-0.56
-0.11
0.53
-0.07
0.35

>  <PUBCHEM_SHAPE_SELFOVERLAP>  (1) 
585.695

>  <PUBCHEM_SHAPE_VOLUME>  (1) 
158.4

>  <PUBCHEM_COORDINATE_TYPE>  (1) 
2
5
10

$$$$
