18631
     RDKit          3D

 13 14  0  0  0  0  0  0  0  0999 V2000
   -2.6564    1.1389    0.0004 O   0  0  0  0  0  0  0  0  0  0  0  0
   -3.0283   -1.5340    0.0000 O   0  0  0  0  0  0  0  0  0  0  0  0
   -0.3265    1.4227   -0.0001 N   0  0  0  0  0  0  0  0  0  0  0  0
   -1.8616   -1.8607    0.0001 N   0  0  0  0  0  0  0  0  0  0  0  0
    0.8166    0.6556   -0.0001 C   0  0  0  0  0  0  0  0  0  0  0  0
    0.4141   -0.6818   -0.0001 C   0  0  0  0  0  0  0  0  0  0  0  0
   -1.0088   -0.6895   -0.0002 C   0  0  0  0  0  0  0  0  0  0  0  0
   -1.4348    0.6186   -0.0002 C   0  0  0  0  0  0  0  0  0  0  0  0
    2.1623    1.0393   -0.0001 C   0  0  0  0  0  0  0  0  0  0  0  0
    1.4015   -1.6870    0.0000 C   0  0  0  0  0  0  0  0  0  0  0  0
   -0.3534    2.8710    0.0000 C   0  0  0  0  0  0  0  0  0  0  0  0
    3.1238    0.0248    0.0001 C   0  0  0  0  0  0  0  0  0  0  0  0
    2.7515   -1.3180    0.0002 C   0  0  0  0  0  0  0  0  0  0  0  0
  1  8  1  0
  2  4  2  0
  3  5  1  0
  3  8  1  0
  3 11  1  0
  4  7  1  0
  5  6  2  0
  5  9  1  0
  6  7  1  0
  6 10  1  0
  7  8  2  0
  9 12  2  0
 10 13  2  0
 12 13  1  0
M  END
>  <PUBCHEM_COMPOUND_CID>  (1) 
18631

>  <PUBCHEM_CONFORMER_RMSD>  (1) 
0.4

>  <PUBCHEM_CONFORMER_DIVERSEORDER>  (1) 
1
2

>  <PUBCHEM_MMFF94_PARTIAL_CHARGES>  (1) 
17
1 -0.51
10 -0.15
11 0.26
12 -0.15
13 -0.15
14 0.15
15 0.15
19 0.15
2 -0.16
20 0.15
21 0.45
3 0.05
4 -0.09
5 -0.15
7 0.25
8 -0.09
9 -0.15

>  <PUBCHEM_EFFECTIVE_ROTOR_COUNT>  (1) 
1

>  <PUBCHEM_PHARMACOPHORE_FEATURES>  (1) 
4
1 1 donor
1 3 cation
5 3 5 6 7 8 rings
6 5 6 9 10 12 13 rings

>  <PUBCHEM_HEAVY_ATOM_COUNT>  (1) 
13

>  <PUBCHEM_ATOM_DEF_STEREO_COUNT>  (1) 
0

>  <PUBCHEM_ATOM_UDEF_STEREO_COUNT>  (1) 
0

>  <PUBCHEM_BOND_DEF_STEREO_COUNT>  (1) 
0

>  <PUBCHEM_BOND_UDEF_STEREO_COUNT>  (1) 
0

>  <PUBCHEM_ISOTOPIC_ATOM_COUNT>  (1) 
0

>  <PUBCHEM_COMPONENT_COUNT>  (1) 
1

>  <PUBCHEM_CACTVS_TAUTO_COUNT>  (1) 
3

>  <PUBCHEM_CONFORMER_ID>  (1) 
000048C700000001

>  <PUBCHEM_MMFF94_ENERGY>  (1) 
25.3752

>  <PUBCHEM_FEATURE_SELFOVERLAP>  (1) 
20.389

>  <PUBCHEM_SHAPE_FINGERPRINT>  (1) 
10967382 1 18194402195180413447
12382932 28 18412823568909744008
12423570 1 16022571859543748908
12524768 44 18269278971439306766
13140716 1 18410854339215596506
16945 1 18266459798077281828
193761 8 18122343484646407714
19973954 147 18339081484693462150
20588541 1 18270120097818685532
20645477 70 17760638570882588231
20871998 184 18201718427193171079
21040471 1 17978510828341111520
21501502 16 18410013221547516506
2334 1 18338516447016721794
23402539 116 18198327473535903117
23463225 33 18408886247914628654
23552423 10 18260832604961709678
23559900 14 18270398275357914710
241688 4 18410011043898871016
2748010 2 18411697724821612838
3312278 4 18410014321117030160
528886 8 18411694361909744802
7364860 26 17981044429206468417
8809292 202 18335144137670489890

>  <PUBCHEM_SHAPE_MULTIPOLES>  (1) 
245.83
4.1
2.46
0.59
0.42
0.88
0
-1.24
0
-0.93
0
0.06
0.01
0

>  <PUBCHEM_SHAPE_SELFOVERLAP>  (1) 
539.347

>  <PUBCHEM_SHAPE_VOLUME>  (1) 
134.4

>  <PUBCHEM_COORDINATE_TYPE>  (1) 
2
5
10

$$$$
