18643
     RDKit          3D

 13 12  0  0  0  0  0  0  0  0999 V2000
   -1.2067   -0.0037    0.2161 N   0  0  0  0  0  0  0  0  0  0  0  0
    2.4266    0.6470   -0.2998 N   0  0  0  0  0  0  0  0  0  0  0  0
    4.7375    0.7271   -0.4501 N   0  0  0  0  0  0  0  0  0  0  0  0
    3.8370   -1.0005    0.7329 N   0  0  0  0  0  0  0  0  0  0  0  0
   -1.2541   -1.3663   -0.3005 C   0  0  0  0  0  0  0  0  0  0  0  0
   -2.4043    0.7396   -0.1796 C   0  0  0  0  0  0  0  0  0  0  0  0
   -0.0034    0.6846   -0.2548 C   0  0  0  0  0  0  0  0  0  0  0  0
   -2.4786   -2.0972    0.2442 C   0  0  0  0  0  0  0  0  0  0  0  0
   -2.3474    2.1646    0.3648 C   0  0  0  0  0  0  0  0  0  0  0  0
    1.2449   -0.0504    0.2121 C   0  0  0  0  0  0  0  0  0  0  0  0
   -2.5398   -3.5296   -0.2634 C   0  0  0  0  0  0  0  0  0  0  0  0
   -3.5916    2.9527   -0.0148 C   0  0  0  0  0  0  0  0  0  0  0  0
    3.5798    0.1321   -0.0070 C   0  0  0  0  0  0  0  0  0  0  0  0
  1  5  1  0
  1  6  1  0
  1  7  1  0
  2 10  1  0
  2 13  2  3
  3 13  1  0
  4 13  1  0
  5  8  1  0
  6  9  1  0
  7 10  1  0
  8 11  1  0
  9 12  1  0
M  END
>  <PUBCHEM_COMPOUND_CID>  (1) 
18643

>  <PUBCHEM_CONFORMER_RMSD>  (1) 
0.8

>  <PUBCHEM_CONFORMER_DIVERSEORDER>  (1) 
1
38
19
12
36
6
20
14
37
22
29
39
3
26
18
30
33
9
27
15
13
31
25
28
2
23
32
21
16
17
11
7
35
10
24
34
8
4
5

>  <PUBCHEM_MMFF94_PARTIAL_CHARGES>  (1) 
13
1 -0.81
10 0.25
13 0.55
2 -0.7
3 -0.85
32 0.4
33 0.4
34 0.4
35 0.4
4 -0.85
5 0.27
6 0.27
7 0.27

>  <PUBCHEM_EFFECTIVE_ROTOR_COUNT>  (1) 
7

>  <PUBCHEM_PHARMACOPHORE_FEATURES>  (1) 
6
1 1 cation
1 11 hydrophobe
1 12 hydrophobe
1 3 donor
1 4 donor
4 2 3 4 13 cation

>  <PUBCHEM_HEAVY_ATOM_COUNT>  (1) 
13

>  <PUBCHEM_ATOM_DEF_STEREO_COUNT>  (1) 
0

>  <PUBCHEM_ATOM_UDEF_STEREO_COUNT>  (1) 
0

>  <PUBCHEM_BOND_DEF_STEREO_COUNT>  (1) 
0

>  <PUBCHEM_BOND_UDEF_STEREO_COUNT>  (1) 
0

>  <PUBCHEM_ISOTOPIC_ATOM_COUNT>  (1) 
0

>  <PUBCHEM_COMPONENT_COUNT>  (1) 
1

>  <PUBCHEM_CACTVS_TAUTO_COUNT>  (1) 
2

>  <PUBCHEM_CONFORMER_ID>  (1) 
000048D300000001

>  <PUBCHEM_MMFF94_ENERGY>  (1) 
23.8846

>  <PUBCHEM_FEATURE_SELFOVERLAP>  (1) 
30.502

>  <PUBCHEM_SHAPE_FINGERPRINT>  (1) 
11357001 24 18336833077999120371
12500047 106 18340764854049031296
13380535 76 18199183992919620311
14178342 30 18336528491871793066
14965852 173 18410574015453735504
1741750 31 18269837531978453617
17539 30 18270389616244767527
18342897 69 18337951306588080426
18522853 266 18410579466020480934
19021347 4 18339646612364094587
20524608 308 18412826876140219055
20645477 56 18411986831839670505
20645477 70 16629974213831065004
20711985 344 18338502153814194275
20871998 184 18201724006482347647
20871998 22 17836080452935564723
21426921 1 18339082691294442284
21499 59 18121493562643745637
21524375 3 18056189173107413005
22943178 12 18060423525708890486
23402539 116 18342166770503931445
23557571 272 18201729465586351268
23598291 2 18041292061897915020
3071541 12 17331967123458429617
474229 33 18337676322303856257
53777708 50 18334016129314129676
573450 72 18334282172510172066
58051976 100 18409449206558140252
6049 1 17845650481763336856
68521 5 18339361989097449167
77188 2 17834958946996348775
88987 49 18338254703257010660

>  <PUBCHEM_SHAPE_MULTIPOLES>  (1) 
247.61
7.74
3.47
0.69
10.14
1.67
-0.02
-2.02
0.01
-6.37
0.07
0.1
0.03
-0.49

>  <PUBCHEM_SHAPE_SELFOVERLAP>  (1) 
454.881

>  <PUBCHEM_SHAPE_VOLUME>  (1) 
157.5

>  <PUBCHEM_COORDINATE_TYPE>  (1) 
2
5
10

$$$$
