18649
     RDKit          3D

 10 10  0  0  0  0  0  0  0  0999 V2000
    1.9645   -0.0805    0.1879 O   0  0  0  0  0  0  0  0  0  0  0  0
   -0.3817    0.3469    0.2205 N   0  0  0  0  0  0  0  0  0  0  0  0
   -3.1438   -0.5232   -0.1736 C   0  0  0  0  0  0  0  0  0  0  0  0
   -2.0200   -1.5053    0.1366 C   0  0  0  0  0  0  0  0  0  0  0  0
   -2.7971    0.8659    0.3502 C   0  0  0  0  0  0  0  0  0  0  0  0
   -0.6695   -0.9767   -0.3496 C   0  0  0  0  0  0  0  0  0  0  0  0
   -1.4221    1.3193   -0.1426 C   0  0  0  0  0  0  0  0  0  0  0  0
    0.9328    0.8172   -0.2161 C   0  0  0  0  0  0  0  0  0  0  0  0
    3.2459    0.3653   -0.2364 C   0  0  0  0  0  0  0  0  0  0  0  0
    4.2911   -0.6288    0.2230 C   0  0  0  0  0  0  0  0  0  0  0  0
  1  8  1  0
  1  9  1  0
  2  6  1  0
  2  7  1  0
  2  8  1  0
  3  4  1  0
  3  5  1  0
  4  6  1  0
  5  7  1  0
  9 10  1  0
M  END
>  <PUBCHEM_COMPOUND_CID>  (1) 
18649

>  <PUBCHEM_CONFORMER_RMSD>  (1) 
0.6

>  <PUBCHEM_CONFORMER_DIVERSEORDER>  (1) 
1
11
15
16
18
4
19
6
3
7
9
14
8
13
12
5
17
2
10

>  <PUBCHEM_MMFF94_PARTIAL_CHARGES>  (1) 
6
1 -0.56
2 -0.81
6 0.27
7 0.27
8 0.55
9 0.28

>  <PUBCHEM_EFFECTIVE_ROTOR_COUNT>  (1) 
4.2

>  <PUBCHEM_PHARMACOPHORE_FEATURES>  (1) 
3
1 1 acceptor
1 2 cation
6 2 3 4 5 6 7 rings

>  <PUBCHEM_HEAVY_ATOM_COUNT>  (1) 
10

>  <PUBCHEM_ATOM_DEF_STEREO_COUNT>  (1) 
0

>  <PUBCHEM_ATOM_UDEF_STEREO_COUNT>  (1) 
0

>  <PUBCHEM_BOND_DEF_STEREO_COUNT>  (1) 
0

>  <PUBCHEM_BOND_UDEF_STEREO_COUNT>  (1) 
0

>  <PUBCHEM_ISOTOPIC_ATOM_COUNT>  (1) 
0

>  <PUBCHEM_COMPONENT_COUNT>  (1) 
1

>  <PUBCHEM_CACTVS_TAUTO_COUNT>  (1) 
1

>  <PUBCHEM_CONFORMER_ID>  (1) 
000048D900000001

>  <PUBCHEM_MMFF94_ENERGY>  (1) 
5.0337

>  <PUBCHEM_FEATURE_SELFOVERLAP>  (1) 
15.223

>  <PUBCHEM_SHAPE_FINGERPRINT>  (1) 
11062470 55 12751236999742889856
12932764 1 17458333144203046628
13024252 1 15285357319302801749
13690532 89 18408320008111256199
14325111 11 18411983555027186196
14577589 140 18131913771093024846
190213 19 17894911841055865616
20201158 50 18202285796794507846
20279233 1 17489872631045623886
20645464 45 17846785095931728917
20871998 184 18129948995644089951
22485316 2 18335697239622162282
23402539 116 18130781266333420589
23463225 33 18335983078138153958
23552423 10 18044376260369442341
3248919 1 17489318481348485340
369184 2 15482675684312678525
75552 356 18411420626374411159

>  <PUBCHEM_SHAPE_MULTIPOLES>  (1) 
194.94
6.61
1.37
0.65
6.65
0.11
0.01
0.98
-0.4
-0.81
0.01
-0.02
0
-0.19

>  <PUBCHEM_SHAPE_SELFOVERLAP>  (1) 
366.269

>  <PUBCHEM_SHAPE_VOLUME>  (1) 
120.8

>  <PUBCHEM_COORDINATE_TYPE>  (1) 
2
5
10

$$$$
