18654
     RDKit          3D

 19 19  0  0  1  0  0  0  0  0999 V2000
    4.8604   -3.3804   -0.0932 Cl  0  0  0  0  0  0  0  0  0  0  0  0
    4.0970    3.9053   -0.4126 Cl  0  0  0  0  0  0  0  0  0  0  0  0
   -5.1838    1.6002    0.2753 O   0  0  0  0  0  0  0  0  0  0  0  0
   -5.9685   -0.5133    0.0171 O   0  0  0  0  0  0  0  0  0  0  0  0
    2.8103    0.0981   -0.0124 N   0  0  0  0  0  0  0  0  0  0  0  0
   -2.8055   -0.4564    0.7281 C   0  0  0  0  0  0  0  0  0  0  0  0
   -3.6323   -0.0444   -0.5009 C   0  0  0  0  0  0  0  0  0  0  0  0
   -1.3170   -0.3096    0.5318 C   0  0  0  0  0  0  0  0  0  0  0  0
    1.4187   -0.0396    0.1709 C   0  0  0  0  0  0  0  0  0  0  0  0
    3.5935   -1.0013   -0.5399 C   0  0  0  0  0  0  0  0  0  0  0  0
    3.4732    1.3458    0.3114 C   0  0  0  0  0  0  0  0  0  0  0  0
   -0.7024    0.8886    0.8609 C   0  0  0  0  0  0  0  0  0  0  0  0
   -0.5892   -1.3754    0.0256 C   0  0  0  0  0  0  0  0  0  0  0  0
    0.6739    1.0245    0.6792 C   0  0  0  0  0  0  0  0  0  0  0  0
    0.7871   -1.2395   -0.1561 C   0  0  0  0  0  0  0  0  0  0  0  0
   -3.6691   -1.1375   -1.5716 C   0  0  0  0  0  0  0  0  0  0  0  0
   -5.0474    0.2895   -0.0559 C   0  0  0  0  0  0  0  0  0  0  0  0
    3.9065   -2.0185    0.5462 C   0  0  0  0  0  0  0  0  0  0  0  0
    3.2948    2.3637   -0.8041 C   0  0  0  0  0  0  0  0  0  0  0  0
  1 18  1  0
  2 19  1  0
  3 17  1  0
  4 17  2  0
  5  9  1  0
  5 10  1  0
  5 11  1  0
  6  7  1  0
  6  8  1  0
  7 16  1  0
  7 17  1  0
  8 12  2  0
  8 13  1  0
  9 14  2  0
  9 15  1  0
 10 18  1  0
 11 19  1  0
 12 14  1  0
 13 15  2  0
M  END
>  <PUBCHEM_COMPOUND_CID>  (1) 
18654

>  <PUBCHEM_CONFORMER_RMSD>  (1) 
0.8

>  <PUBCHEM_CONFORMER_DIVERSEORDER>  (1) 
3
157
36
27
137
133
156
69
151
101
48
74
174
91
182
105
168
46
107
124
134
189
30
72
147
129
88
106
119
169
148
192
95
160
11
99
25
61
165
49
17
67
128
122
120
110
125
116
115
183
10
154
76
53
175
51
126
21
32
77
185
176
117
123
47
86
20
54
180
15
139
130
143
45
136
155
31
62
145
108
179
118
79
44
71
149
184
121
12
104
167
141
152
191
173
166
22
177
43
6
50
178
103
33
164
96
83
190
89
81
63
140
65
161
181
171
111
146
114
97
170
94
24
131
93
80
92
52
56
132
186
109
172
57
9
39
144
8
85
59
16
14
37
187
162
163
112
7
138
142
55
34
113
82
70
2
98
26
150
100
29
135
90
75
23
78
66
13
40
38
58
41
87
60
153
42
28
68
5
35
188
1
102
64
159
18
73
158
4
84
19
127

>  <PUBCHEM_MMFF94_PARTIAL_CHARGES>  (1) 
23
1 -0.29
10 0.37
11 0.37
12 -0.15
13 -0.15
14 -0.15
15 -0.15
17 0.66
18 0.29
19 0.29
2 -0.29
27 0.15
28 0.15
29 0.15
3 -0.65
30 0.15
38 0.5
4 -0.57
5 -0.84
6 0.14
7 0.06
8 -0.14
9 0.1

>  <PUBCHEM_EFFECTIVE_ROTOR_COUNT>  (1) 
8

>  <PUBCHEM_PHARMACOPHORE_FEATURES>  (1) 
6
1 16 hydrophobe
1 3 acceptor
1 4 acceptor
1 5 cation
3 3 4 17 anion
6 8 9 12 13 14 15 rings

>  <PUBCHEM_HEAVY_ATOM_COUNT>  (1) 
19

>  <PUBCHEM_ATOM_DEF_STEREO_COUNT>  (1) 
0

>  <PUBCHEM_ATOM_UDEF_STEREO_COUNT>  (1) 
1

>  <PUBCHEM_BOND_DEF_STEREO_COUNT>  (1) 
0

>  <PUBCHEM_BOND_UDEF_STEREO_COUNT>  (1) 
0

>  <PUBCHEM_ISOTOPIC_ATOM_COUNT>  (1) 
0

>  <PUBCHEM_COMPONENT_COUNT>  (1) 
1

>  <PUBCHEM_CACTVS_TAUTO_COUNT>  (1) 
1

>  <PUBCHEM_CONFORMER_ID>  (1) 
000048DE00000003

>  <PUBCHEM_MMFF94_ENERGY>  (1) 
51.8856

>  <PUBCHEM_FEATURE_SELFOVERLAP>  (1) 
30.504

>  <PUBCHEM_SHAPE_FINGERPRINT>  (1) 
10062212 137 18060128839223425511
10411042 1 18193276287559823290
10595046 47 18341329011172950149
12236239 1 18059852831660837907
12293681 160 17771362047790647320
12616971 3 18202279191477775959
12730499 353 18264498449669306040
12788726 201 17561097898918414353
13167823 11 18412539912422547231
13760787 5 18343310275017353611
13955234 65 18409168839983620538
15196674 1 18412825776992536297
17844677 252 18408611340317512033
17959699 21 18411138056445316905
1813 80 18198070175299659190
18186145 218 17530962484034152211
18222031 100 18200599073629201934
18335252 98 18190746530395122355
200 152 18202279156801571891
20612939 158 18410855456218400845
20645477 56 17676768772701771115
20645477 70 18407760326644109322
21033648 29 16732972133667550461
21267235 1 18270968938128685323
21709351 56 18338229350270653999
23402539 116 17988352668443096615
23402655 69 18130790087753335953
23532345 1 18335985380303915256
23559900 14 18408885140209010850
25147074 1 18059028197976858128
268830 7 18334005103874760905
3004659 81 18059859445741460990
5104073 3 18187086182680728001
5281201 14 18260827081444038749
59755656 215 18409173234057489124
6025842 7 18410294748454153558
633830 44 18261386754611667515
67856867 119 18343013428595446032
7364860 26 18411423934427572512
77188 2 18265052424027171972
90127 26 17967818232543661553
9841814 1 18040704837121795442
9971528 1 18340481176123389042
9981440 41 17977101589811173632

>  <PUBCHEM_SHAPE_MULTIPOLES>  (1) 
378.03
12.09
3.36
0.95
11.38
1.42
0.17
-0.27
1.54
-8.13
0.53
0.38
-0.03
-1.01

>  <PUBCHEM_SHAPE_SELFOVERLAP>  (1) 
741.794

>  <PUBCHEM_SHAPE_VOLUME>  (1) 
228.8

>  <PUBCHEM_COORDINATE_TYPE>  (1) 
2
5
10

$$$$
