18652
     RDKit          3D

 12 12  0  0  0  0  0  0  0  0999 V2000
    2.2234   -1.1397   -0.3690 O   0  0  0  0  0  0  0  0  0  0  0  0
   -2.9483    0.6672    0.2501 O   0  0  0  0  0  0  0  0  0  0  0  0
    2.1933    2.2714   -0.7569 N   0  0  0  0  0  0  0  0  0  0  0  0
    0.7097    0.6311    0.1963 C   0  0  0  0  0  0  0  0  0  0  0  0
    0.9500   -0.6811   -0.2117 C   0  0  0  0  0  0  0  0  0  0  0  0
    1.8425    1.5640    0.4708 C   0  0  0  0  0  0  0  0  0  0  0  0
   -0.6004    1.0842    0.3514 C   0  0  0  0  0  0  0  0  0  0  0  0
   -1.6701    0.2254    0.0983 C   0  0  0  0  0  0  0  0  0  0  0  0
   -0.1198   -1.5398   -0.4647 C   0  0  0  0  0  0  0  0  0  0  0  0
   -1.4298   -1.0866   -0.3097 C   0  0  0  0  0  0  0  0  0  0  0  0
    2.8437   -1.7326    0.7701 C   0  0  0  0  0  0  0  0  0  0  0  0
   -3.9942   -0.2637   -0.0248 C   0  0  0  0  0  0  0  0  0  0  0  0
  1  5  1  0
  1 11  1  0
  2  8  1  0
  2 12  1  0
  3  6  1  0
  4  5  2  0
  4  6  1  0
  4  7  1  0
  5  9  1  0
  7  8  2  0
  8 10  1  0
  9 10  2  0
M  END
>  <PUBCHEM_COMPOUND_CID>  (1) 
18652

>  <PUBCHEM_CONFORMER_RMSD>  (1) 
0.6

>  <PUBCHEM_CONFORMER_DIVERSEORDER>  (1) 
1
5
7
3
2
6
4

>  <PUBCHEM_MMFF94_PARTIAL_CHARGES>  (1) 
17
1 -0.36
10 -0.15
11 0.28
12 0.28
15 0.15
16 0.15
17 0.15
18 0.36
19 0.36
2 -0.36
3 -0.99
4 -0.14
5 0.08
6 0.41
7 -0.15
8 0.08
9 -0.15

>  <PUBCHEM_EFFECTIVE_ROTOR_COUNT>  (1) 
3

>  <PUBCHEM_PHARMACOPHORE_FEATURES>  (1) 
5
1 1 acceptor
1 2 acceptor
1 3 cation
1 3 donor
6 4 5 7 8 9 10 rings

>  <PUBCHEM_HEAVY_ATOM_COUNT>  (1) 
12

>  <PUBCHEM_ATOM_DEF_STEREO_COUNT>  (1) 
0

>  <PUBCHEM_ATOM_UDEF_STEREO_COUNT>  (1) 
0

>  <PUBCHEM_BOND_DEF_STEREO_COUNT>  (1) 
0

>  <PUBCHEM_BOND_UDEF_STEREO_COUNT>  (1) 
0

>  <PUBCHEM_ISOTOPIC_ATOM_COUNT>  (1) 
0

>  <PUBCHEM_COMPONENT_COUNT>  (1) 
1

>  <PUBCHEM_CACTVS_TAUTO_COUNT>  (1) 
1

>  <PUBCHEM_CONFORMER_ID>  (1) 
000048DC00000001

>  <PUBCHEM_MMFF94_ENERGY>  (1) 
48.3125

>  <PUBCHEM_FEATURE_SELFOVERLAP>  (1) 
25.371

>  <PUBCHEM_SHAPE_FINGERPRINT>  (1) 
12032990 46 18126570024428833758
12644460 14 18334305274669979752
12932764 1 17385716976973120251
13380535 21 18267314311838268763
13380535 76 18268145533827923282
14325111 11 18341332266784625017
14344429 50 18409737235475823806
14897335 6 18270675501546235789
14993402 34 18340773632967563158
15219459 52 18413390929662871694
16945 1 18269278971576541159
193761 8 18196650919829605054
20511035 2 18272362126719065374
20645477 70 18412260632469316295
20671657 1 18339928215805092060
20871998 22 18055638321765699702
21040471 1 18199465652395425097
21501502 16 18269270321691911031
21501925 9 18342165653306051483
22959321 4 18410573990079752491
23463225 33 18412260636078149891
23552423 10 18337106881805479086
241688 4 17406288632874786258
2748010 2 18341054137149757071
5084963 1 18130505236847700899
528862 383 18409164437204408696
53812653 166 17915456310036178841
53812654 25 17846486041675091647
68250623 7 18338796848267887475
7364860 26 18272932747826806304

>  <PUBCHEM_SHAPE_MULTIPOLES>  (1) 
230.23
4.83
2.05
0.76
3.53
0.37
-0.01
-0.39
-0.42
-1.84
0.13
-0.26
0.01
-0.52

>  <PUBCHEM_SHAPE_SELFOVERLAP>  (1) 
470.576

>  <PUBCHEM_SHAPE_VOLUME>  (1) 
134.7

>  <PUBCHEM_COORDINATE_TYPE>  (1) 
2
5
10

$$$$
