18656
     RDKit          3D

 27 29  0  0  0  0  0  0  0  0999 V2000
   -0.2160    1.2427   -0.9246 S   0  0  0  0  0  0  0  0  0  0  0  0
   -4.8531    1.6676    0.1368 N   0  0  0  0  0  0  0  0  0  0  0  0
   -2.0571   -0.7203   -0.5169 N   0  0  0  0  0  0  0  0  0  0  0  0
    0.0508   -1.3683   -0.2400 N   0  0  0  0  0  0  0  0  0  0  0  0
    5.7065    0.4781   -0.4197 N   0  0  0  0  0  0  0  0  0  0  0  0
   -3.7221    0.8087    0.4646 C   0  0  0  0  0  0  0  0  0  0  0  0
   -3.1989    0.1243   -0.7950 C   0  0  0  0  0  0  0  0  0  0  0  0
   -2.1237   -2.0479   -0.1794 C   0  0  0  0  0  0  0  0  0  0  0  0
   -5.6832    1.9018    1.3200 C   0  0  0  0  0  0  0  0  0  0  0  0
   -4.3901    2.9410   -0.4179 C   0  0  0  0  0  0  0  0  0  0  0  0
   -0.7383   -0.3610   -0.5398 C   0  0  0  0  0  0  0  0  0  0  0  0
   -0.7952   -2.4292   -0.0120 C   0  0  0  0  0  0  0  0  0  0  0  0
   -3.1988   -2.9212   -0.0115 C   0  0  0  0  0  0  0  0  0  0  0  0
   -4.9056    2.6350    2.3999 C   0  0  0  0  0  0  0  0  0  0  0  0
   -5.5603    3.8200   -0.8259 C   0  0  0  0  0  0  0  0  0  0  0  0
   -0.5036   -3.7568    0.3441 C   0  0  0  0  0  0  0  0  0  0  0  0
   -2.8902   -4.2385    0.3431 C   0  0  0  0  0  0  0  0  0  0  0  0
   -1.5672   -4.6510    0.5181 C   0  0  0  0  0  0  0  0  0  0  0  0
    1.5558    1.0136   -0.7735 C   0  0  0  0  0  0  0  0  0  0  0  0
    4.3126    0.6573   -0.5383 C   0  0  0  0  0  0  0  0  0  0  0  0
    2.1842    1.2247    0.4539 C   0  0  0  0  0  0  0  0  0  0  0  0
    2.3059    0.6245   -1.8833 C   0  0  0  0  0  0  0  0  0  0  0  0
    6.4138    0.6783    0.8072 C   0  0  0  0  0  0  0  0  0  0  0  0
    3.5625    1.0465    0.5715 C   0  0  0  0  0  0  0  0  0  0  0  0
    3.6843    0.4463   -1.7657 C   0  0  0  0  0  0  0  0  0  0  0  0
    7.9112    0.4692    0.6076 C   0  0  0  0  0  0  0  0  0  0  0  0
    8.7159    0.7149    1.8764 C   0  0  0  0  0  0  0  0  0  0  0  0
  1 11  1  0
  1 19  1  0
  2  6  1  0
  2  9  1  0
  2 10  1  0
  3  7  1  0
  3  8  1  0
  3 11  1  0
  4 11  2  0
  4 12  1  0
  5 20  1  0
  5 23  1  0
  6  7  1  0
  8 12  2  0
  8 13  1  0
  9 14  1  0
 10 15  1  0
 12 16  1  0
 13 17  2  0
 16 18  2  0
 17 18  1  0
 19 21  2  0
 19 22  1  0
 20 24  2  0
 20 25  1  0
 21 24  1  0
 22 25  2  0
 23 26  1  0
 26 27  1  0
M  END
>  <PUBCHEM_COMPOUND_CID>  (1) 
18656

>  <PUBCHEM_CONFORMER_RMSD>  (1) 
1

>  <PUBCHEM_CONFORMER_DIVERSEORDER>  (1) 
1
26
54
52
71
9
14
70
75
59
12
8
49
2
41
64
18
53
67
73
55
24
27
4
10
42
74
31
60
38
40
29
51
17
23
57
35
48
28
50
43
11
19
36
46
16
25
72
68
62
45
21
63
30
44
34
15
3
69
5
76
47
32
65
37
33
77
79
7
13
66
56
20
39
6
22
78
80
61
58

>  <PUBCHEM_MMFF94_PARTIAL_CHARGES>  (1) 
32
1 -0.16
10 0.27
11 0.24
12 0.23
13 -0.15
16 -0.15
17 -0.15
18 -0.15
19 0.1
2 -0.81
20 0.1
21 -0.15
22 -0.15
23 0.37
24 -0.15
25 -0.15
3 0.05
36 0.15
4 -0.57
43 0.15
44 0.15
45 0.15
46 0.15
47 0.15
5 -0.87
50 0.15
51 0.15
52 0.4
6 0.27
7 0.26
8 -0.15
9 0.27

>  <PUBCHEM_EFFECTIVE_ROTOR_COUNT>  (1) 
10

>  <PUBCHEM_PHARMACOPHORE_FEATURES>  (1) 
8
1 2 cation
1 27 hydrophobe
1 5 cation
1 5 donor
3 3 4 11 cation
5 3 4 8 11 12 rings
6 19 20 21 22 24 25 rings
6 8 12 13 16 17 18 rings

>  <PUBCHEM_HEAVY_ATOM_COUNT>  (1) 
27

>  <PUBCHEM_ATOM_DEF_STEREO_COUNT>  (1) 
0

>  <PUBCHEM_ATOM_UDEF_STEREO_COUNT>  (1) 
0

>  <PUBCHEM_BOND_DEF_STEREO_COUNT>  (1) 
0

>  <PUBCHEM_BOND_UDEF_STEREO_COUNT>  (1) 
0

>  <PUBCHEM_ISOTOPIC_ATOM_COUNT>  (1) 
0

>  <PUBCHEM_COMPONENT_COUNT>  (1) 
1

>  <PUBCHEM_CACTVS_TAUTO_COUNT>  (1) 
1

>  <PUBCHEM_CONFORMER_ID>  (1) 
000048E000000001

>  <PUBCHEM_MMFF94_ENERGY>  (1) 
58.0653

>  <PUBCHEM_FEATURE_SELFOVERLAP>  (1) 
40.704

>  <PUBCHEM_SHAPE_FINGERPRINT>  (1) 
10319926 262 18269263725154777800
11135609 201 17916317043885724537
11136131 41 17971469594584658051
11497681 19 12324825543084079792
11796584 16 18410857673112726118
12107183 9 18260827099214666756
12422481 6 17823134514792541541
12616971 3 17385444354151003428
12788726 201 17830754392730252127
12988421 55 18340211769978835081
13540713 5 17825399728121564708
13726171 33 17977980035019664212
14790565 3 18265059024569226693
14866123 147 18336266846548630331
15021287 119 17095241445169390348
15160629 35 18125975253552886208
15230672 131 18262524689639989638
15326921 28 18263351508639435753
15420108 30 18262230015879988399
15439362 3 18194116313810129855
15537594 2 17385991876655620546
15927050 60 18410576145758385087
16991971 28 9150588207325061161
17913733 40 18194704591818594777
21033648 29 18338248046369561501
21424621 283 18129953268846613609
21756936 100 18342172267919443839
23522609 53 17676786352752605100
23559900 14 17903064882800095814
23929065 36 18198610215596661035
255183 313 18260831479596246373
2838139 119 16773792580379838008
312425 54 18410001162197091834
397830 11 18123735707988017808
4073 2 18342740750159948890
5104073 3 18265049314228743896
5385378 56 18121792630007012585
559249 180 17968647332930488318
563151 248 18186522086181976568
58260988 114 16371296644149188971
59755656 520 18409166597509674805
6009941 240 18272931631573179112
6058803 2 17681286769217969228
6679774 75 17532678770352134730
6691757 9 18410288120718170485
7226269 152 18131349683190002712
79837 15 18336560382162532995
9953998 17 18337941373531459496
9981440 41 18262810558272772481

>  <PUBCHEM_SHAPE_MULTIPOLES>  (1) 
539.57
17.41
5.13
1.53
36.21
6.18
-0.34
-15.58
-8.96
-11.55
-0.96
0.53
-1.1
-0.3

>  <PUBCHEM_SHAPE_SELFOVERLAP>  (1) 
1116.229

>  <PUBCHEM_SHAPE_VOLUME>  (1) 
311.5

>  <PUBCHEM_COORDINATE_TYPE>  (1) 
2
5
10

$$$$
