18655
     RDKit          3D

 27 29  0  0  0  0  0  0  0  0999 V2000
    0.2880   -1.4098   -0.8552 S   0  0  0  0  0  0  0  0  0  0  0  0
   -5.6306   -1.1752   -0.3620 O   0  0  0  0  0  0  0  0  0  0  0  0
    4.9452   -1.3421    0.2009 N   0  0  0  0  0  0  0  0  0  0  0  0
    1.9378    0.7356   -0.5641 N   0  0  0  0  0  0  0  0  0  0  0  0
   -0.2213    1.1981   -0.3103 N   0  0  0  0  0  0  0  0  0  0  0  0
    3.7391   -0.5761    0.4885 C   0  0  0  0  0  0  0  0  0  0  0  0
    3.1534   -0.0125   -0.8030 C   0  0  0  0  0  0  0  0  0  0  0  0
    1.8801    2.0799   -0.2989 C   0  0  0  0  0  0  0  0  0  0  0  0
    4.6030   -2.6813   -0.2820 C   0  0  0  0  0  0  0  0  0  0  0  0
    5.7944   -1.4335    1.3902 C   0  0  0  0  0  0  0  0  0  0  0  0
    0.6583    0.2541   -0.5601 C   0  0  0  0  0  0  0  0  0  0  0  0
    0.5220    2.3441   -0.1445 C   0  0  0  0  0  0  0  0  0  0  0  0
    2.8690    3.0575   -0.1842 C   0  0  0  0  0  0  0  0  0  0  0  0
    5.8499   -3.4680   -0.6489 C   0  0  0  0  0  0  0  0  0  0  0  0
    5.0896   -2.1767    2.5123 C   0  0  0  0  0  0  0  0  0  0  0  0
    0.1077    3.6559    0.1415 C   0  0  0  0  0  0  0  0  0  0  0  0
    2.4389    4.3575    0.1009 C   0  0  0  0  0  0  0  0  0  0  0  0
    1.0832    4.6535    0.2610 C   0  0  0  0  0  0  0  0  0  0  0  0
   -1.4974   -1.3393   -0.7064 C   0  0  0  0  0  0  0  0  0  0  0  0
   -2.2813   -1.0819   -1.8311 C   0  0  0  0  0  0  0  0  0  0  0  0
   -2.1025   -1.5414    0.5342 C   0  0  0  0  0  0  0  0  0  0  0  0
   -4.2753   -1.2288   -0.4749 C   0  0  0  0  0  0  0  0  0  0  0  0
   -3.6701   -1.0268   -1.7153 C   0  0  0  0  0  0  0  0  0  0  0  0
   -3.4913   -1.4861    0.6499 C   0  0  0  0  0  0  0  0  0  0  0  0
   -6.1613   -0.7360    0.8874 C   0  0  0  0  0  0  0  0  0  0  0  0
   -7.5039   -0.0645    0.6426 C   0  0  0  0  0  0  0  0  0  0  0  0
   -8.1244    0.4439    1.9315 C   0  0  0  0  0  0  0  0  0  0  0  0
  1 11  1  0
  1 19  1  0
  2 22  1  0
  2 25  1  0
  3  6  1  0
  3  9  1  0
  3 10  1  0
  4  7  1  0
  4  8  1  0
  4 11  1  0
  5 11  2  0
  5 12  1  0
  6  7  1  0
  8 12  2  0
  8 13  1  0
  9 14  1  0
 10 15  1  0
 12 16  1  0
 13 17  2  0
 16 18  2  0
 17 18  1  0
 19 20  2  0
 19 21  1  0
 20 23  1  0
 21 24  2  0
 22 23  2  0
 22 24  1  0
 25 26  1  0
 26 27  1  0
M  END
>  <PUBCHEM_COMPOUND_CID>  (1) 
18655

>  <PUBCHEM_CONFORMER_RMSD>  (1) 
1

>  <PUBCHEM_CONFORMER_DIVERSEORDER>  (1) 
1
19
81
29
54
69
36
18
43
30
70
27
50
7
49
42
8
47
45
13
9
65
78
55
31
20
73
87
39
15
22
26
53
24
52
76
82
32
66
60
80
35
51
23
34
79
33
83
58
68
71
17
38
14
59
28
56
25
46
16
75
67
84
6
11
63
5
37
86
62
85
74
44
40
77
3
2
4
21
61
41
48
72
64
10
12
57

>  <PUBCHEM_MMFF94_PARTIAL_CHARGES>  (1) 
31
1 -0.16
10 0.27
11 0.24
12 0.23
13 -0.15
16 -0.15
17 -0.15
18 -0.15
19 0.1
2 -0.36
20 -0.15
21 -0.15
22 0.08
23 -0.15
24 -0.15
25 0.28
3 -0.81
36 0.15
4 0.05
43 0.15
44 0.15
45 0.15
46 0.15
47 0.15
48 0.15
49 0.15
5 -0.57
6 0.27
7 0.26
8 -0.15
9 0.27

>  <PUBCHEM_EFFECTIVE_ROTOR_COUNT>  (1) 
10

>  <PUBCHEM_PHARMACOPHORE_FEATURES>  (1) 
7
1 2 acceptor
1 27 hydrophobe
1 3 cation
3 4 5 11 cation
5 4 5 8 11 12 rings
6 19 20 21 22 23 24 rings
6 8 12 13 16 17 18 rings

>  <PUBCHEM_HEAVY_ATOM_COUNT>  (1) 
27

>  <PUBCHEM_ATOM_DEF_STEREO_COUNT>  (1) 
0

>  <PUBCHEM_ATOM_UDEF_STEREO_COUNT>  (1) 
0

>  <PUBCHEM_BOND_DEF_STEREO_COUNT>  (1) 
0

>  <PUBCHEM_BOND_UDEF_STEREO_COUNT>  (1) 
0

>  <PUBCHEM_ISOTOPIC_ATOM_COUNT>  (1) 
0

>  <PUBCHEM_COMPONENT_COUNT>  (1) 
1

>  <PUBCHEM_CACTVS_TAUTO_COUNT>  (1) 
1

>  <PUBCHEM_CONFORMER_ID>  (1) 
000048DF00000001

>  <PUBCHEM_MMFF94_ENERGY>  (1) 
56.8394

>  <PUBCHEM_FEATURE_SELFOVERLAP>  (1) 
35.629

>  <PUBCHEM_SHAPE_FINGERPRINT>  (1) 
10411042 1 18339925918398528654
11265709 11 18411128131181538604
11370993 144 18189338047293565611
11399510 152 17976834400011903403
11456790 92 18187934945949743985
11991303 11 17611748899333073332
12107183 9 18343024398110796275
12422481 6 17988645129740298631
12553582 1 18413103983747347302
12788726 201 18334573491837235730
13140716 1 18341046329179294356
13540713 5 17913760889129192455
13673619 4 17749107773007820823
13757389 114 17618804457586512636
13782708 43 17822290228014162811
13785724 45 18342184327945310398
14767858 380 8214140751022861067
14955137 171 18410295800141535359
15042514 8 18196089941767183300
15420108 30 17628061610725664476
15840311 113 17346597452658215027
1813 80 18341885286805540342
19301679 30 18194401096128631234
20832881 197 18260829310505665483
21344244 181 13190343426726193104
21344244 78 18201428225080181680
21421861 104 18263632026238989600
22033318 11 18127435409448055329
22122407 14 18269011889931928561
22849341 161 18412831282554930304
24771293 8 18129926997354219802
249057 25 17917144014158137111
27425 322 10737588123717493778
2838139 119 18413389835733452325
345986 75 18043232579667513378
3552219 110 18114463375911526276
3680242 22 18342466971511899673
376196 1 16836853146152171932
394071 54 18341320193747672522
4058900 60 17758404354517378212
5104073 3 18265900336191660955
513202 73 18056194670972020854
5385378 56 18194398025100225464
57724786 102 18265897046014635965
6058803 2 17841141466256033391
613672 6 18338780248831465238
6327066 14 10519686918056984458
79837 15 17476632088933883952
9841814 1 18339360868263738572

>  <PUBCHEM_SHAPE_MULTIPOLES>  (1) 
538.68
16.6
5.06
1.53
25.4
7.34
-0.52
-13.19
-9.09
-8.27
-0.17
0.36
-1.01
-1.55

>  <PUBCHEM_SHAPE_SELFOVERLAP>  (1) 
1116.733

>  <PUBCHEM_SHAPE_VOLUME>  (1) 
311.5

>  <PUBCHEM_COORDINATE_TYPE>  (1) 
2
5
10

$$$$
