18661
     RDKit          3D

 14 14  0  0  0  0  0  0  0  0999 V2000
    2.7425   -1.6898   -0.0018 O   0  0  0  0  0  0  0  0  0  0  0  0
    2.0833    2.3365   -0.0001 O   0  0  0  0  0  0  0  0  0  0  0  0
    3.5024    0.6616    0.0007 O   0  0  0  0  0  0  0  0  0  0  0  0
    2.3304    1.1073    0.0001 N   0  0  0  0  0  0  0  0  0  0  0  0
   -2.5349    0.3124   -0.0002 C   0  0  0  0  0  0  0  0  0  0  0  0
   -1.0944   -0.2256    0.0002 C   0  0  0  0  0  0  0  0  0  0  0  0
   -3.2759   -0.1865    1.2592 C   0  0  0  0  0  0  0  0  0  0  0  0
   -3.2767   -0.1892   -1.2579 C   0  0  0  0  0  0  0  0  0  0  0  0
   -2.6259    1.8553   -0.0018 C   0  0  0  0  0  0  0  0  0  0  0  0
   -0.0609    0.6773   -0.0001 C   0  0  0  0  0  0  0  0  0  0  0  0
   -0.9083   -1.5852    0.0005 C   0  0  0  0  0  0  0  0  0  0  0  0
    1.2454    0.1881    0.0000 C   0  0  0  0  0  0  0  0  0  0  0  0
    0.3979   -2.0745    0.0008 C   0  0  0  0  0  0  0  0  0  0  0  0
    1.4749   -1.1878    0.0004 C   0  0  0  0  0  0  0  0  0  0  0  0
  1 14  1  0
  2  4  1  0
  3  4  2  0
  4 12  1  0
  5  6  1  0
  5  7  1  0
  5  8  1  0
  5  9  1  0
  6 10  2  0
  6 11  1  0
 10 12  1  0
 11 13  2  0
 12 14  2  0
 13 14  1  0
M  CHG  2   2  -1   4   1
M  END
>  <PUBCHEM_COMPOUND_CID>  (1) 
18661

>  <PUBCHEM_CONFORMER_RMSD>  (1) 
0.6

>  <PUBCHEM_CONFORMER_DIVERSEORDER>  (1) 
1
2

>  <PUBCHEM_MMFF94_PARTIAL_CHARGES>  (1) 
15
1 -0.53
10 -0.15
11 -0.15
12 0.13
13 -0.15
14 0.08
2 -0.52
24 0.15
25 0.15
26 0.15
27 0.45
3 -0.52
4 0.91
5 0.14
6 -0.14

>  <PUBCHEM_EFFECTIVE_ROTOR_COUNT>  (1) 
2

>  <PUBCHEM_PHARMACOPHORE_FEATURES>  (1) 
6
1 1 donor
1 2 acceptor
1 2 anion
1 3 acceptor
4 5 7 8 9 hydrophobe
6 6 10 11 12 13 14 rings

>  <PUBCHEM_HEAVY_ATOM_COUNT>  (1) 
14

>  <PUBCHEM_ATOM_DEF_STEREO_COUNT>  (1) 
0

>  <PUBCHEM_ATOM_UDEF_STEREO_COUNT>  (1) 
0

>  <PUBCHEM_BOND_DEF_STEREO_COUNT>  (1) 
0

>  <PUBCHEM_BOND_UDEF_STEREO_COUNT>  (1) 
0

>  <PUBCHEM_ISOTOPIC_ATOM_COUNT>  (1) 
0

>  <PUBCHEM_COMPONENT_COUNT>  (1) 
1

>  <PUBCHEM_CACTVS_TAUTO_COUNT>  (1) 
4

>  <PUBCHEM_CONFORMER_ID>  (1) 
000048E500000001

>  <PUBCHEM_MMFF94_ENERGY>  (1) 
52.6628

>  <PUBCHEM_FEATURE_SELFOVERLAP>  (1) 
30.527

>  <PUBCHEM_SHAPE_FINGERPRINT>  (1) 
10608611 8 18334858264773693149
10967382 1 18410575101895747588
11471102 20 18338232665911592149
11471102 22 18261692418722616979
12932764 1 17775562039988695561
13380535 21 18337686320159637066
13380535 76 18338510941090506230
13897977 150 18338515343178458775
14144814 61 18411136930920779056
14250199 8 18412259515302734421
14325111 11 18410575063362393701
14648413 74 18192715536128140433
14897335 6 18340759438068890742
15219456 202 18260553294806674403
15775835 57 18202568375846786825
16945 1 18410856585441352294
17844478 74 18114758078759793361
18186145 218 18201445765515504436
19973954 147 18337393738555605145
20645477 70 18339917113678687631
20715346 28 17894915135295879127
21501502 16 18339074883181171605
21524375 3 18269834370987927594
21639500 275 18339345444524690069
2334 1 18338517439133308520
23402655 69 18341601578456327277
23552423 10 18340481150084514295
25 1 18336549317646010534
2748010 2 18265049141643698212
5084963 1 18059283284611055171
528886 8 18411132563007597802
63268167 104 18342175540193971433
7364860 26 18342740667870118902
77492 1 17703789206635436355
7832392 63 17981322292368806209
81228 2 17475228480119496826

>  <PUBCHEM_SHAPE_MULTIPOLES>  (1) 
265.52
5.35
2.1
0.84
0.21
0.21
0
1.26
0
-1.04
0
0.82
-0.08
0

>  <PUBCHEM_SHAPE_SELFOVERLAP>  (1) 
555.394

>  <PUBCHEM_SHAPE_VOLUME>  (1) 
152.3

>  <PUBCHEM_COORDINATE_TYPE>  (1) 
2
5
10

$$$$
