18672
     RDKit          3D

 21 20  0  0  1  0  0  0  0  0999 V2000
   -2.4147   -2.6023    0.0823 S   0  0  0  0  0  0  0  0  0  0  0  0
   -1.9082   -4.0895   -0.3501 O   0  0  0  0  0  0  0  0  0  0  0  0
   -3.6519   -2.3053   -0.6081 O   0  0  0  0  0  0  0  0  0  0  0  0
   -2.2801   -2.4569    1.5164 O   0  0  0  0  0  0  0  0  0  0  0  0
   -1.1028   -1.6904   -0.6970 C   0  0  0  0  0  0  0  0  0  0  0  0
   -1.9815    1.9954    0.5435 C   0  0  0  0  0  0  0  0  0  0  0  0
   -1.4670   -0.1954   -0.7617 C   0  0  0  0  0  0  0  0  0  0  0  0
   -1.5574    0.5070    0.6015 C   0  0  0  0  0  0  0  0  0  0  0  0
    0.2511   -1.9515   -0.0204 C   0  0  0  0  0  0  0  0  0  0  0  0
    1.4203   -1.2605   -0.7383 C   0  0  0  0  0  0  0  0  0  0  0  0
    2.7988   -1.5555   -0.1037 C   0  0  0  0  0  0  0  0  0  0  0  0
   -0.9685    2.9059   -0.1877 C   0  0  0  0  0  0  0  0  0  0  0  0
   -3.3988    2.1318   -0.0566 C   0  0  0  0  0  0  0  0  0  0  0  0
    3.0414   -0.8104    1.2290 C   0  0  0  0  0  0  0  0  0  0  0  0
    3.9490   -1.2709   -1.0961 C   0  0  0  0  0  0  0  0  0  0  0  0
    0.4599    2.8059    0.3606 C   0  0  0  0  0  0  0  0  0  0  0  0
   -3.9627    3.5446    0.0211 C   0  0  0  0  0  0  0  0  0  0  0  0
    1.4562    3.6955   -0.3879 C   0  0  0  0  0  0  0  0  0  0  0  0
    4.3257   -1.1832    1.9573 C   0  0  0  0  0  0  0  0  0  0  0  0
    4.1111    0.2043   -1.4393 C   0  0  0  0  0  0  0  0  0  0  0  0
    2.8799    3.5813    0.1351 C   0  0  0  0  0  0  0  0  0  0  0  0
  1  2  1  0
  1  3  2  0
  1  4  2  0
  1  5  1  0
  5  7  1  0
  5  9  1  0
  6  8  1  0
  6 12  1  0
  6 13  1  0
  7  8  1  0
  9 10  1  0
 10 11  1  0
 11 14  1  0
 11 15  1  0
 12 16  1  0
 13 17  1  0
 14 19  1  0
 15 20  1  0
 16 18  1  0
 18 21  1  0
M  END
>  <PUBCHEM_COMPOUND_CID>  (1) 
18672

>  <PUBCHEM_CONFORMER_RMSD>  (1) 
1.4

>  <PUBCHEM_CONFORMER_DIVERSEORDER>  (1) 
1
33
40
6
21
16
39
34
35
37
14
38
26
18
10
29
30
22
25
23
3
32
13
28
31
27
19
17
24
36
4
7
20
12
8
5
9
2
11
15

>  <PUBCHEM_MMFF94_PARTIAL_CHARGES>  (1) 
6
1 1.38
2 -0.68
3 -0.65
4 -0.65
5 0.11
54 0.5

>  <PUBCHEM_EFFECTIVE_ROTOR_COUNT>  (1) 
13

>  <PUBCHEM_PHARMACOPHORE_FEATURES>  (1) 
13
1 17 hydrophobe
1 19 hydrophobe
1 2 acceptor
1 20 hydrophobe
1 21 hydrophobe
1 3 acceptor
1 4 acceptor
3 12 16 18 hydrophobe
3 6 12 13 hydrophobe
4 1 2 3 4 anion
4 6 7 8 13 hydrophobe
5 6 12 13 16 18 hydrophobe
5 9 10 11 14 15 hydrophobe

>  <PUBCHEM_HEAVY_ATOM_COUNT>  (1) 
21

>  <PUBCHEM_ATOM_DEF_STEREO_COUNT>  (1) 
0

>  <PUBCHEM_ATOM_UDEF_STEREO_COUNT>  (1) 
2

>  <PUBCHEM_BOND_DEF_STEREO_COUNT>  (1) 
0

>  <PUBCHEM_BOND_UDEF_STEREO_COUNT>  (1) 
0

>  <PUBCHEM_ISOTOPIC_ATOM_COUNT>  (1) 
0

>  <PUBCHEM_COMPONENT_COUNT>  (1) 
1

>  <PUBCHEM_CACTVS_TAUTO_COUNT>  (1) 
1

>  <PUBCHEM_CONFORMER_ID>  (1) 
000048F000000001

>  <PUBCHEM_MMFF94_ENERGY>  (1) 
19.7996

>  <PUBCHEM_FEATURE_SELFOVERLAP>  (1) 
72.449

>  <PUBCHEM_SHAPE_FINGERPRINT>  (1) 
10090160 65 17902795154991800677
10498660 4 18267875982091889748
1100329 8 18339646637654389733
11578080 2 17389067291634192070
12788726 201 18334582373107157795
13140716 1 18411971456262855064
14790565 3 18051990116252080300
15006816 218 17691975181643770276
19930381 70 17547577436248668270
20600515 1 18197761246717925624
20642791 35 18195538205440414070
20905425 154 18054237788870511820
21421861 104 18192155012567556017
21524375 3 17696188102132321351
22113638 7 18265050232745155260
23227448 37 18413109441833044220
23419403 2 17900228056959331511
23557571 272 18273208695302199282
23558518 356 18263075664353690345
23598288 3 18334864904450767595
266924 87 18123470750479828213
3187 122 18122592137609377256
3524813 1 17698706027047068864
44154327 71 18122351172727623044
59755656 215 17181919481746179359
81228 2 18413390916947210235

>  <PUBCHEM_SHAPE_MULTIPOLES>  (1) 
418.41
7.61
5.81
1.26
3.35
1.49
0.33
1.33
0.41
-3.81
-0.15
1.42
-0.41
-0.4

>  <PUBCHEM_SHAPE_SELFOVERLAP>  (1) 
765.12

>  <PUBCHEM_SHAPE_VOLUME>  (1) 
267.3

>  <PUBCHEM_COORDINATE_TYPE>  (1) 
2
5
10

$$$$
