18680
     RDKit          3D

 17 16  0  0  0  0  0  0  0  0999 V2000
   -0.0997   -2.8498   -2.0328 S   0  0  0  0  0  0  0  0  0  0  0  0
    0.5411   -3.8179    1.2681 S   0  0  0  0  0  0  0  0  0  0  0  0
    0.0113   -2.3864    0.0391 P   0  0  0  0  0  0  0  0  0  0  0  0
   -1.4406   -1.7861    0.4850 O   0  0  0  0  0  0  0  0  0  0  0  0
    0.9290   -1.0457    0.2115 O   0  0  0  0  0  0  0  0  0  0  0  0
   -4.0636    0.7804   -0.3207 C   0  0  0  0  0  0  0  0  0  0  0  0
    4.4099    0.3169   -0.1345 C   0  0  0  0  0  0  0  0  0  0  0  0
   -5.4018    1.1811    0.3065 C   0  0  0  0  0  0  0  0  0  0  0  0
    5.0619    1.6772    0.1296 C   0  0  0  0  0  0  0  0  0  0  0  0
   -3.3686   -0.3665    0.4113 C   0  0  0  0  0  0  0  0  0  0  0  0
    2.9133    0.2907    0.1715 C   0  0  0  0  0  0  0  0  0  0  0  0
   -6.1090    2.3125   -0.4406 C   0  0  0  0  0  0  0  0  0  0  0  0
    6.5547    1.7101   -0.2001 C   0  0  0  0  0  0  0  0  0  0  0  0
   -2.0290   -0.7071   -0.2281 C   0  0  0  0  0  0  0  0  0  0  0  0
    2.3168   -1.0887   -0.0746 C   0  0  0  0  0  0  0  0  0  0  0  0
   -7.3949    2.7217    0.2618 C   0  0  0  0  0  0  0  0  0  0  0  0
    7.1692    3.0577    0.1471 C   0  0  0  0  0  0  0  0  0  0  0  0
  1  3  1  0
  2  3  2  0
  3  4  1  0
  3  5  1  0
  4 14  1  0
  5 15  1  0
  6  8  1  0
  6 10  1  0
  7  9  1  0
  7 11  1  0
  8 12  1  0
  9 13  1  0
 10 14  1  0
 11 15  1  0
 12 16  1  0
 13 17  1  0
M  END
>  <PUBCHEM_COMPOUND_CID>  (1) 
18680

>  <PUBCHEM_CONFORMER_RMSD>  (1) 
1

>  <PUBCHEM_CONFORMER_DIVERSEORDER>  (1) 
1
182
12
67
190
20
296
23
176
245
10
266
294
61
172
28
243
281
103
24
30
125
195
267
240
282
187
5
148
117
52
19
253
280
98
56
209
101
212
198
283
142
295
285
38
112
235
178
15
255
14
200
196
104
41
263
22
162
289
174
68
232
158
72
191
275
74
234
6
290
227
258
231
48
47
272
201
265
246
213
254
292
66
119
90
44
274
177
291
214
244
169
136
77
120
257
91
249
159
85
175
269
270
25
189
35
116
248
205
261
95
76
233
239
202
110
4
157
203
170
46
211
252
106
88
171
276
135
168
297
230
89
9
260
277
151
279
81
29
100
223
163
173
139
156
34
204
185
58
141
288
32
217
69
97
140
73
273
130
7
228
219
218
251
78
59
222
210
45
220
18
113
83
137
128
165
40
215
64
206
107
236
2
167
80
126
256
179
132
111
3
186
82
226
127
17
180
60
16
194
287
166
207
188
134
250
123
154
278
262
63
105
221
161
259
13
84
50
94
241
193
129
216
43
286
138
31
268
225
79
124
264
155
39
27
237
271
86
147
114
21
224
293
65
49
108
55
199
149
115
92
284
42
143
70
181
144
184
33
51
192
93
118
62
197
71
160
109
121
54
150
242
57
229
122
183
146
8
145
37
53
133
11
131
36
26
247
75
99
96
164
208
152
238
87
153
102

>  <PUBCHEM_MMFF94_PARTIAL_CHARGES>  (1) 
8
1 -0.43
14 0.28
15 0.28
2 -0.68
3 1.47
4 -0.55
44 0.18
5 -0.55

>  <PUBCHEM_EFFECTIVE_ROTOR_COUNT>  (1) 
12

>  <PUBCHEM_PHARMACOPHORE_FEATURES>  (1) 
4
1 16 hydrophobe
1 17 hydrophobe
4 6 8 10 12 hydrophobe
4 7 9 11 13 hydrophobe

>  <PUBCHEM_HEAVY_ATOM_COUNT>  (1) 
17

>  <PUBCHEM_ATOM_DEF_STEREO_COUNT>  (1) 
0

>  <PUBCHEM_ATOM_UDEF_STEREO_COUNT>  (1) 
0

>  <PUBCHEM_BOND_DEF_STEREO_COUNT>  (1) 
0

>  <PUBCHEM_BOND_UDEF_STEREO_COUNT>  (1) 
0

>  <PUBCHEM_ISOTOPIC_ATOM_COUNT>  (1) 
0

>  <PUBCHEM_COMPONENT_COUNT>  (1) 
1

>  <PUBCHEM_CACTVS_TAUTO_COUNT>  (1) 
1

>  <PUBCHEM_CONFORMER_ID>  (1) 
000048F800000001

>  <PUBCHEM_MMFF94_ENERGY>  (1) 
-1.2083

>  <PUBCHEM_FEATURE_SELFOVERLAP>  (1) 
20.3

>  <PUBCHEM_SHAPE_FINGERPRINT>  (1) 
10753850 27 9943805577667443525
13955234 65 17898852344970771371
14123256 34 9799690406924736237
14251764 30 9871747983640253257
14251764 75 18409446977238212649
14774955 27 18339920408086986255
15803439 3 16702303472697242924
167882 2 18059584559778099342
1768 4 18341341041730495689
20526848 3 18410576184228077841
20621476 66 18336548313251826436
23523787 8 16128651950991053860
270888 7 18410291410747820585
2838139 119 18270677687932528972
465052 167 8430305857692314721
5283384 27 18040988519733184973
59682541 52 17131561535628901036
6327066 14 18413669123337406877
636775 8 8141821512547884144
77188 2 17399229755366787378
7970288 3 9655577404797576672

>  <PUBCHEM_SHAPE_MULTIPOLES>  (1) 
349.66
18.8
4.66
1.08
1.18
2
-0.41
-33.12
0.53
-0.81
0.35
0.13
1.23
-0.08

>  <PUBCHEM_SHAPE_SELFOVERLAP>  (1) 
598.072

>  <PUBCHEM_SHAPE_VOLUME>  (1) 
235.8

>  <PUBCHEM_COORDINATE_TYPE>  (1) 
2
5
10

$$$$
