18686
     RDKit          3D

 11 11  0  0  0  0  0  0  0  0999 V2000
    1.8965   -0.2656    0.2982 O   0  0  0  0  0  0  0  0  0  0  0  0
    1.0489    1.4456   -1.0018 O   0  0  0  0  0  0  0  0  0  0  0  0
   -0.4247    0.0307    0.2744 C   0  0  0  0  0  0  0  0  0  0  0  0
   -1.3937    1.2101    0.3820 C   0  0  0  0  0  0  0  0  0  0  0  0
   -0.9726   -1.0621   -0.6461 C   0  0  0  0  0  0  0  0  0  0  0  0
   -2.7889    0.7573    0.8043 C   0  0  0  0  0  0  0  0  0  0  0  0
   -2.3689   -1.5096   -0.2217 C   0  0  0  0  0  0  0  0  0  0  0  0
   -3.3311   -0.3300   -0.1185 C   0  0  0  0  0  0  0  0  0  0  0  0
    0.9049    0.5060   -0.2313 C   0  0  0  0  0  0  0  0  0  0  0  0
    3.2257    0.0800   -0.1039 C   0  0  0  0  0  0  0  0  0  0  0  0
    4.2038   -0.8624    0.5645 C   0  0  0  0  0  0  0  0  0  0  0  0
  1  9  1  0
  1 10  1  0
  2  9  2  0
  3  4  1  0
  3  5  1  0
  3  9  1  0
  4  6  1  0
  5  7  1  0
  6  8  1  0
  7  8  1  0
 10 11  1  0
M  END
>  <PUBCHEM_COMPOUND_CID>  (1) 
18686

>  <PUBCHEM_CONFORMER_RMSD>  (1) 
0.6

>  <PUBCHEM_CONFORMER_DIVERSEORDER>  (1) 
1
23
3
41
14
10
42
2
24
12
30
11
8
4
15
13
18
19
7
36
32
6
37
33
25
27
26
20
35
29
21
39
40
22
5
34
38
31
9
28
17
16

>  <PUBCHEM_MMFF94_PARTIAL_CHARGES>  (1) 
5
1 -0.43
10 0.28
2 -0.57
3 0.06
9 0.66

>  <PUBCHEM_EFFECTIVE_ROTOR_COUNT>  (1) 
4.2

>  <PUBCHEM_PHARMACOPHORE_FEATURES>  (1) 
2
1 2 acceptor
6 3 4 5 6 7 8 rings

>  <PUBCHEM_HEAVY_ATOM_COUNT>  (1) 
11

>  <PUBCHEM_ATOM_DEF_STEREO_COUNT>  (1) 
0

>  <PUBCHEM_ATOM_UDEF_STEREO_COUNT>  (1) 
0

>  <PUBCHEM_BOND_DEF_STEREO_COUNT>  (1) 
0

>  <PUBCHEM_BOND_UDEF_STEREO_COUNT>  (1) 
0

>  <PUBCHEM_ISOTOPIC_ATOM_COUNT>  (1) 
0

>  <PUBCHEM_COMPONENT_COUNT>  (1) 
1

>  <PUBCHEM_CACTVS_TAUTO_COUNT>  (1) 
1

>  <PUBCHEM_CONFORMER_ID>  (1) 
000048FE00000001

>  <PUBCHEM_MMFF94_ENERGY>  (1) 
6.2737

>  <PUBCHEM_FEATURE_SELFOVERLAP>  (1) 
10.148

>  <PUBCHEM_SHAPE_FINGERPRINT>  (1) 
11062470 55 15410896253657648259
11769659 78 18338229474471517678
124424 183 17275099505474247826
12932764 1 18040427785439166072
13024252 1 16008749100391914905
13690532 89 18408038520223354255
14144814 61 18411139134323384874
14325111 11 18272936007274382872
14577589 140 18335140856246462067
14993402 34 18334295361716486294
16945 1 18342471330565704917
18186145 218 14418137305471668804
18511873 20 18335422369935861707
20645464 45 16702306758421101915
207724 885 18187366540575550695
20871998 184 17774724263652289239
22485316 2 18187640293681176090
23402539 116 17774993584309239549
23463225 33 18337108973697372710
23552423 10 18119249703770403213
369184 2 15770061622691586935
5084963 1 18334293201706742765
75552 356 18272933829673203251

>  <PUBCHEM_SHAPE_MULTIPOLES>  (1) 
214.64
6.33
1.38
0.84
5.05
0.08
0.04
1.47
-1.22
-0.61
0.12
0.06
-0.11
-0.64

>  <PUBCHEM_SHAPE_SELFOVERLAP>  (1) 
416.432

>  <PUBCHEM_SHAPE_VOLUME>  (1) 
129.1

>  <PUBCHEM_COORDINATE_TYPE>  (1) 
2
5
10

$$$$
