18682
     RDKit          3D

 10  9  0  0  0  0  0  0  0  0999 V2000
    0.0153   -1.7173   -1.3006 S   0  0  0  0  0  0  0  0  0  0  0  0
   -0.0641    1.7548   -1.8619 S   0  0  0  0  0  0  0  0  0  0  0  0
   -0.0316    0.2798   -0.5684 P   0  0  0  0  0  0  0  0  0  0  0  0
   -1.2667    0.3651    0.5000 O   0  0  0  0  0  0  0  0  0  0  0  0
    1.1997    0.4260    0.4977 O   0  0  0  0  0  0  0  0  0  0  0  0
   -2.6094    0.2832    0.0516 C   0  0  0  0  0  0  0  0  0  0  0  0
    2.5441    0.4104    0.0469 C   0  0  0  0  0  0  0  0  0  0  0  0
   -3.5350    0.3897    1.2447 C   0  0  0  0  0  0  0  0  0  0  0  0
    3.4654    0.5625    1.2384 C   0  0  0  0  0  0  0  0  0  0  0  0
    0.2824   -2.7542    0.1516 C   0  0  0  0  0  0  0  0  0  0  0  0
  1  3  1  0
  1 10  1  0
  2  3  2  0
  3  4  1  0
  3  5  1  0
  4  6  1  0
  5  7  1  0
  6  8  1  0
  7  9  1  0
M  END
>  <PUBCHEM_COMPOUND_CID>  (1) 
18682

>  <PUBCHEM_CONFORMER_RMSD>  (1) 
0.6

>  <PUBCHEM_CONFORMER_DIVERSEORDER>  (1) 
1
17
25
24
20
19
8
11
7
22
15
23
16
6
12
10
9
21
5
14
2
4
18
3
13

>  <PUBCHEM_MMFF94_PARTIAL_CHARGES>  (1) 
8
1 -0.48
10 0.23
2 -0.68
3 1.47
4 -0.55
5 -0.55
6 0.28
7 0.28

>  <PUBCHEM_EFFECTIVE_ROTOR_COUNT>  (1) 
5

>  <PUBCHEM_PHARMACOPHORE_FEATURES>  (1) 
0

>  <PUBCHEM_HEAVY_ATOM_COUNT>  (1) 
10

>  <PUBCHEM_ATOM_DEF_STEREO_COUNT>  (1) 
0

>  <PUBCHEM_ATOM_UDEF_STEREO_COUNT>  (1) 
0

>  <PUBCHEM_BOND_DEF_STEREO_COUNT>  (1) 
0

>  <PUBCHEM_BOND_UDEF_STEREO_COUNT>  (1) 
0

>  <PUBCHEM_ISOTOPIC_ATOM_COUNT>  (1) 
0

>  <PUBCHEM_COMPONENT_COUNT>  (1) 
1

>  <PUBCHEM_CACTVS_TAUTO_COUNT>  (1) 
1

>  <PUBCHEM_CONFORMER_ID>  (1) 
000048FA00000001

>  <PUBCHEM_MMFF94_ENERGY>  (1) 
-0.3657

>  <PUBCHEM_FEATURE_SELFOVERLAP>  (1) 
0

>  <PUBCHEM_SHAPE_FINGERPRINT>  (1) 
10219947 1 18260835899133118917
15502708 68 18342175505707924715
170605 34 16558761083087985969
18380122 1 18188206477243837389
20653085 51 15410612648572474064
20711978 78 17771058289773693391
20871998 184 17969204686388263012
21061003 4 17623290463904413134
23382010 3 12247378103933392769
23552449 11 17983305824356803591
3250762 1 17685487646243428420
528862 383 18128811950017551966

>  <PUBCHEM_SHAPE_MULTIPOLES>  (1) 
205.61
4.63
2.21
1.61
0.41
1.77
-0.39
-1.53
3.67
-0.27
-1.01
0.04
-0.46
0.12

>  <PUBCHEM_SHAPE_SELFOVERLAP>  (1) 
328.66

>  <PUBCHEM_SHAPE_VOLUME>  (1) 
146.8

>  <PUBCHEM_COORDINATE_TYPE>  (1) 
2
5
10

$$$$
