18697
     RDKit          3D

 24 27  0  0  1  0  0  0  0  0999 V2000
   -6.4011   -1.4572   -0.6595 Cl  0  0  0  0  0  0  0  0  0  0  0  0
    1.5054    0.4455   -0.4707 N   0  0  0  0  0  0  0  0  0  0  0  0
    1.0613    3.3529    0.8269 N   0  0  0  0  0  0  0  0  0  0  0  0
   -0.3583    3.0664   -0.8566 N   0  0  0  0  0  0  0  0  0  0  0  0
   -0.5679   -0.5030    0.5137 C   0  0  0  0  0  0  0  0  0  0  0  0
    0.0440   -1.7288    1.2159 C   0  0  0  0  0  0  0  0  0  0  0  0
    0.1888   -0.1250   -0.7680 C   0  0  0  0  0  0  0  0  0  0  0  0
    1.4471   -1.4702    1.7608 C   0  0  0  0  0  0  0  0  0  0  0  0
    2.5312   -1.4412    0.7065 C   0  0  0  0  0  0  0  0  0  0  0  0
    2.5552   -0.4639   -0.3149 C   0  0  0  0  0  0  0  0  0  0  0  0
   -2.0418   -0.7450    0.2176 C   0  0  0  0  0  0  0  0  0  0  0  0
    1.7835    1.7900   -0.9559 C   0  0  0  0  0  0  0  0  0  0  0  0
    3.5872   -2.3665    0.8156 C   0  0  0  0  0  0  0  0  0  0  0  0
    3.6687   -0.4449   -1.1808 C   0  0  0  0  0  0  0  0  0  0  0  0
   -2.4171   -1.3227   -0.9909 C   0  0  0  0  0  0  0  0  0  0  0  0
   -3.0025   -0.3856    1.1576 C   0  0  0  0  0  0  0  0  0  0  0  0
    0.7943    2.7413   -0.3515 C   0  0  0  0  0  0  0  0  0  0  0  0
    4.7080   -1.3690   -1.0610 C   0  0  0  0  0  0  0  0  0  0  0  0
    4.6646   -2.3341   -0.0654 C   0  0  0  0  0  0  0  0  0  0  0  0
   -3.7672   -1.5434   -1.2627 C   0  0  0  0  0  0  0  0  0  0  0  0
   -4.3528   -0.6063    0.8859 C   0  0  0  0  0  0  0  0  0  0  0  0
   -4.7352   -1.1853   -0.3242 C   0  0  0  0  0  0  0  0  0  0  0  0
   -0.0165    4.1447    1.1075 C   0  0  0  0  0  0  0  0  0  0  0  0
   -0.8790    3.9513    0.0541 C   0  0  0  0  0  0  0  0  0  0  0  0
  1 22  1  0
  2  7  1  0
  2 10  1  0
  2 12  1  0
  3 17  1  0
  3 23  1  0
  4 17  2  0
  4 24  1  0
  5  6  1  0
  5  7  1  0
  5 11  1  0
  6  8  1  0
  8  9  1  0
  9 10  2  0
  9 13  1  0
 10 14  1  0
 11 15  2  0
 11 16  1  0
 12 17  1  0
 13 19  2  0
 14 18  2  0
 15 20  1  0
 16 21  2  0
 18 19  1  0
 20 22  2  0
 21 22  1  0
 23 24  2  0
M  END
>  <PUBCHEM_COMPOUND_CID>  (1) 
18697

>  <PUBCHEM_CONFORMER_RMSD>  (1) 
0.8

>  <PUBCHEM_CONFORMER_DIVERSEORDER>  (1) 
1
16
17
34
7
15
26
10
2
37
14
32
13
23
5
11
38
31
21
28
33
25
20
35
8
3
22
36
27
4
18
39
24
9
29
6
12
19
30

>  <PUBCHEM_MMFF94_PARTIAL_CHARGES>  (1) 
34
1 -0.18
10 0.1
11 -0.14
12 0.55
13 -0.15
14 -0.15
15 -0.15
16 -0.15
17 0.01
18 -0.15
19 -0.15
2 -0.84
20 -0.15
21 -0.15
22 0.18
23 -0.3
24 0.08
3 0.03
34 0.15
35 0.15
36 0.15
37 0.15
38 0.15
39 0.15
4 -0.57
40 0.15
41 0.15
42 0.27
43 0.15
44 0.15
5 0.14
7 0.37
8 0.14
9 -0.14

>  <PUBCHEM_EFFECTIVE_ROTOR_COUNT>  (1) 
4

>  <PUBCHEM_PHARMACOPHORE_FEATURES>  (1) 
7
1 2 cation
1 3 donor
3 3 4 17 cation
5 3 4 17 23 24 rings
6 11 15 16 20 21 22 rings
6 9 10 13 14 18 19 rings
7 2 5 6 7 8 9 10 rings

>  <PUBCHEM_HEAVY_ATOM_COUNT>  (1) 
24

>  <PUBCHEM_ATOM_DEF_STEREO_COUNT>  (1) 
0

>  <PUBCHEM_ATOM_UDEF_STEREO_COUNT>  (1) 
1

>  <PUBCHEM_BOND_DEF_STEREO_COUNT>  (1) 
0

>  <PUBCHEM_BOND_UDEF_STEREO_COUNT>  (1) 
0

>  <PUBCHEM_ISOTOPIC_ATOM_COUNT>  (1) 
0

>  <PUBCHEM_COMPONENT_COUNT>  (1) 
1

>  <PUBCHEM_CACTVS_TAUTO_COUNT>  (1) 
1

>  <PUBCHEM_CONFORMER_ID>  (1) 
0000490900000001

>  <PUBCHEM_MMFF94_ENERGY>  (1) 
74.9716

>  <PUBCHEM_FEATURE_SELFOVERLAP>  (1) 
35.534

>  <PUBCHEM_SHAPE_FINGERPRINT>  (1) 
10165383 225 16744853675007519801
104564 63 18191873322937263336
1100329 8 18265900146569963105
11578080 2 17916287373776766672
12166972 35 18131627920420306619
12236239 1 18343867723418868515
12516196 113 18411416215464571406
12553582 1 18409729547511081782
12788726 201 18337117748373619670
13009979 54 17846230981021759659
13134695 92 18411139181430979333
13533116 47 18192996139791323703
13540713 5 17826240588893718770
13583140 156 18120100739183185575
13590594 115 18410864239732944337
13631057 29 18336831884340824238
13911987 19 17968397700904815102
13965767 371 17266693580456261459
14681490 219 18409730698451430692
14955137 171 18338814367798327155
15420108 30 17554588962197085192
17349148 13 17775568663145167191
17980427 26 17766827695374316340
1813 80 18272375256265466311
18222031 100 18342174466415685359
18335252 114 18411125928332808173
18681886 176 18270956950980678211
20775438 99 17762032730093983423
20832881 197 18334012787639812243
21041028 32 18336555923374367977
21344244 78 18270948142112686569
21641784 216 17968961690329331188
221357 26 18187077356697247967
22620623 9 17982750579801571582
23419403 2 13425538859665070482
23559900 14 18268142231731731131
283562 15 18262238790361154162
345986 75 18116420466978718730
474 4 17907011030422762249
6438718 38 18052274898479242024
70251023 43 18341338803746305878
7164475 11 18192435165248415414
7471813 234 18411698789883967837
9971528 1 18343016726581677043

>  <PUBCHEM_SHAPE_MULTIPOLES>  (1) 
480.84
9.69
4.41
1.38
8.69
7.56
-0.18
-10.38
2.55
-1.47
-0.83
-0.1
-0.26
-0.83

>  <PUBCHEM_SHAPE_SELFOVERLAP>  (1) 
1041.033

>  <PUBCHEM_SHAPE_VOLUME>  (1) 
263.1

>  <PUBCHEM_COORDINATE_TYPE>  (1) 
2
5
10

$$$$
