18699
     RDKit          3D

 11 10  0  0  0  0  0  0  0  0999 V2000
   -1.7388    1.4130   -1.0019 O   0  0  0  0  0  0  0  0  0  0  0  0
   -1.9072    1.0701    1.2213 O   0  0  0  0  0  0  0  0  0  0  0  0
    1.7189    0.1087   -0.0407 C   0  0  0  0  0  0  0  0  0  0  0  0
    0.5217   -0.5691   -0.7810 C   0  0  0  0  0  0  0  0  0  0  0  0
   -0.8912   -0.6943   -0.1347 C   0  0  0  0  0  0  0  0  0  0  0  0
    1.5007    1.6026    0.2298 C   0  0  0  0  0  0  0  0  0  0  0  0
    2.9589   -0.0275   -0.9588 C   0  0  0  0  0  0  0  0  0  0  0  0
    2.0622   -0.6062    1.2794 C   0  0  0  0  0  0  0  0  0  0  0  0
   -1.8049   -1.4739   -1.1106 C   0  0  0  0  0  0  0  0  0  0  0  0
   -0.8673   -1.4925    1.1791 C   0  0  0  0  0  0  0  0  0  0  0  0
   -1.5530    0.6691    0.1181 C   0  0  0  0  0  0  0  0  0  0  0  0
  1 11  1  0
  2 11  2  0
  3  4  1  0
  3  6  1  0
  3  7  1  0
  3  8  1  0
  4  5  1  0
  5  9  1  0
  5 10  1  0
  5 11  1  0
M  END
>  <PUBCHEM_COMPOUND_CID>  (1) 
18699

>  <PUBCHEM_CONFORMER_RMSD>  (1) 
0.6

>  <PUBCHEM_CONFORMER_DIVERSEORDER>  (1) 
1
5
3
4
2

>  <PUBCHEM_MMFF94_PARTIAL_CHARGES>  (1) 
5
1 -0.65
11 0.66
2 -0.57
29 0.5
5 0.06

>  <PUBCHEM_EFFECTIVE_ROTOR_COUNT>  (1) 
3

>  <PUBCHEM_PHARMACOPHORE_FEATURES>  (1) 
5
1 1 acceptor
1 2 acceptor
3 1 2 11 anion
3 5 9 10 hydrophobe
4 3 6 7 8 hydrophobe

>  <PUBCHEM_HEAVY_ATOM_COUNT>  (1) 
11

>  <PUBCHEM_ATOM_DEF_STEREO_COUNT>  (1) 
0

>  <PUBCHEM_ATOM_UDEF_STEREO_COUNT>  (1) 
0

>  <PUBCHEM_BOND_DEF_STEREO_COUNT>  (1) 
0

>  <PUBCHEM_BOND_UDEF_STEREO_COUNT>  (1) 
0

>  <PUBCHEM_ISOTOPIC_ATOM_COUNT>  (1) 
0

>  <PUBCHEM_COMPONENT_COUNT>  (1) 
1

>  <PUBCHEM_CACTVS_TAUTO_COUNT>  (1) 
1

>  <PUBCHEM_CONFORMER_ID>  (1) 
0000490B00000001

>  <PUBCHEM_MMFF94_ENERGY>  (1) 
35.4396

>  <PUBCHEM_FEATURE_SELFOVERLAP>  (1) 
25.434

>  <PUBCHEM_SHAPE_FINGERPRINT>  (1) 
12423570 1 11593737115965138903
12932764 1 18334295366322748244
13024252 1 17386008403072635607
14817 1 11891628874751082025
15310529 11 17385735655437932296
15775835 57 18261391105112877485
16945 1 18272080552884085021
18511873 20 17899963946645985794
19973954 147 17988362671369038448
20082192 1 17845940744153392274
20653085 51 16271652178431057105
207724 885 18270134396144544072
21040471 1 18059296435452580472
21922407 69 17096095821243074548
23235685 24 18129673988634847792
23552423 10 18339920544961567230
24536 1 17918270973993382440
369184 2 18113890593802134835
5084963 1 18411412912528725509
8030462 33 18113891706388685646

>  <PUBCHEM_SHAPE_MULTIPOLES>  (1) 
214.64
3.52
1.63
1.33
1.53
0.29
0.17
0.14
-0.44
-0.67
0.09
-0.07
-0.25
-0.19

>  <PUBCHEM_SHAPE_SELFOVERLAP>  (1) 
406.149

>  <PUBCHEM_SHAPE_VOLUME>  (1) 
135.3

>  <PUBCHEM_COORDINATE_TYPE>  (1) 
2
5
10

$$$$
