18696
     RDKit          3D

 16 18  0  0  0  0  0  0  0  0999 V2000
   -0.1085    1.1726    0.6751 C   0  0  0  0  0  0  0  0  0  0  0  0
   -0.2994    2.4064   -0.1980 C   0  0  0  0  0  0  0  0  0  0  0  0
    1.1992    0.4480    0.3893 C   0  0  0  0  0  0  0  0  0  0  0  0
   -1.1309    0.0833    0.3839 C   0  0  0  0  0  0  0  0  0  0  0  0
    0.9479   -0.8875    0.0015 C   0  0  0  0  0  0  0  0  0  0  0  0
   -0.4817   -1.1112   -0.0019 C   0  0  0  0  0  0  0  0  0  0  0  0
   -0.2698    2.0190   -1.6692 C   0  0  0  0  0  0  0  0  0  0  0  0
   -1.6022    3.1071    0.1594 C   0  0  0  0  0  0  0  0  0  0  0  0
    2.4918    0.9372    0.4863 C   0  0  0  0  0  0  0  0  0  0  0  0
   -2.5115    0.1541    0.4750 C   0  0  0  0  0  0  0  0  0  0  0  0
    1.9948   -1.7426   -0.3022 C   0  0  0  0  0  0  0  0  0  0  0  0
   -1.2159   -2.2452   -0.3092 C   0  0  0  0  0  0  0  0  0  0  0  0
    3.5464    0.0753    0.1803 C   0  0  0  0  0  0  0  0  0  0  0  0
   -3.2510   -0.9887    0.1649 C   0  0  0  0  0  0  0  0  0  0  0  0
    3.3005   -1.2513   -0.2110 C   0  0  0  0  0  0  0  0  0  0  0  0
   -2.6096   -2.1765   -0.2241 C   0  0  0  0  0  0  0  0  0  0  0  0
  1  2  1  0
  1  3  1  0
  1  4  1  0
  2  7  1  0
  2  8  1  0
  3  5  2  0
  3  9  1  0
  4  6  2  0
  4 10  1  0
  5  6  1  0
  5 11  1  0
  6 12  1  0
  9 13  2  0
 10 14  2  0
 11 15  2  0
 12 16  2  0
 13 15  1  0
 14 16  1  0
M  END
>  <PUBCHEM_COMPOUND_CID>  (1) 
18696

>  <PUBCHEM_CONFORMER_RMSD>  (1) 
0.6

>  <PUBCHEM_CONFORMER_DIVERSEORDER>  (1) 
1

>  <PUBCHEM_MMFF94_PARTIAL_CHARGES>  (1) 
19
1 0.29
10 -0.15
11 -0.15
12 -0.15
13 -0.15
14 -0.15
15 -0.15
16 -0.15
25 0.15
26 0.15
27 0.15
28 0.15
29 0.15
3 -0.14
30 0.15
31 0.15
32 0.15
4 -0.14
9 -0.15

>  <PUBCHEM_EFFECTIVE_ROTOR_COUNT>  (1) 
1.2

>  <PUBCHEM_PHARMACOPHORE_FEATURES>  (1) 
4
3 2 7 8 hydrophobe
5 1 3 4 5 6 rings
6 3 5 9 11 13 15 rings
6 4 6 10 12 14 16 rings

>  <PUBCHEM_HEAVY_ATOM_COUNT>  (1) 
16

>  <PUBCHEM_ATOM_DEF_STEREO_COUNT>  (1) 
0

>  <PUBCHEM_ATOM_UDEF_STEREO_COUNT>  (1) 
0

>  <PUBCHEM_BOND_DEF_STEREO_COUNT>  (1) 
0

>  <PUBCHEM_BOND_UDEF_STEREO_COUNT>  (1) 
0

>  <PUBCHEM_ISOTOPIC_ATOM_COUNT>  (1) 
0

>  <PUBCHEM_COMPONENT_COUNT>  (1) 
1

>  <PUBCHEM_CACTVS_TAUTO_COUNT>  (1) 
1

>  <PUBCHEM_CONFORMER_ID>  (1) 
0000490800000001

>  <PUBCHEM_MMFF94_ENERGY>  (1) 
57.2241

>  <PUBCHEM_FEATURE_SELFOVERLAP>  (1) 
20.459

>  <PUBCHEM_SHAPE_FINGERPRINT>  (1) 
1 1 17256525747546072541
10967382 1 17979916338781642530
11132069 177 18343295994277643594
11322862 65 18050854320781688189
12035759 4 18045529596675422804
12138202 97 17972589987979254692
12730499 353 17182218020559573589
13132413 78 18126007302145303541
13140716 1 18339078327697470690
13380535 76 17761771763141992409
14181834 199 17680146566753649300
14614273 12 18046062662087726661
14817 1 8626031356939922405
15490181 7 17684084686670592832
16945 1 18413389838830686968
17357779 13 18265312028423841501
193761 8 17979073778031133139
19591789 44 17835529219541910201
19868273 325 18335700576205128726
20510252 161 18272369715920990168
20559304 39 17906738355649197323
20645477 70 17544179937172991767
21029758 27 18263093265208686419
21041028 32 18191324838839896713
21267235 1 18341623666893284178
21501502 16 18264772060840349000
21524375 3 17539976065504812977
22721475 48 18413674616779841882
2334 1 18123751117238535378
23388829 49 18264777725491158564
23402539 116 18339068367547244878
23419403 2 15397872731626576667
23463225 33 18339643450909702538
23552423 10 17763463215926764303
23557571 272 18410860962498200558
23559900 14 17695628451695510966
238 59 16601226167662487957
25 1 17257651119251500700
2748010 2 18341328997697600578
3071541 158 18118116098744927263
34934 24 18339350963468143875
6992083 37 18270695254475448283
7364860 26 17763181745128749121
81228 2 18261393321300184648
90316 7 18262497261260899560

>  <PUBCHEM_SHAPE_MULTIPOLES>  (1) 
329.27
4.7
3.08
0.89
1.94
1.42
-0.25
-2.09
0.37
-1.65
-0.54
-0.04
0.38
0.1

>  <PUBCHEM_SHAPE_SELFOVERLAP>  (1) 
729.852

>  <PUBCHEM_SHAPE_VOLUME>  (1) 
168.9

>  <PUBCHEM_COORDINATE_TYPE>  (1) 
2
5
10

$$$$
