18702
     RDKit          3D

 28 30  0  0  1  0  0  0  0  0999 V2000
    0.7432    1.8085   -1.7426 O   0  0  0  0  0  0  0  0  0  0  0  0
    4.7655    0.8355    0.6281 O   0  0  0  0  0  0  0  0  0  0  0  0
    3.4667    1.9620   -1.5367 O   0  0  0  0  0  0  0  0  0  0  0  0
   -5.1952    1.8474   -0.1203 O   0  0  0  0  0  0  0  0  0  0  0  0
   -4.5673   -0.3518   -1.6875 O   0  0  0  0  0  0  0  0  0  0  0  0
    0.3247   -4.5989   -0.1419 O   0  0  0  0  0  0  0  0  0  0  0  0
    0.2671   -2.2864   -0.3959 N   0  0  0  0  0  0  0  0  0  0  0  0
   -0.7397   -2.0049    0.6096 C   0  0  0  0  0  0  0  0  0  0  0  0
   -0.1421   -1.9760    2.0347 C   0  0  0  0  0  0  0  0  0  0  0  0
    0.4981   -0.6683    2.5188 C   0  0  0  0  0  0  0  0  0  0  0  0
   -1.5418   -0.7716    0.1835 C   0  0  0  0  0  0  0  0  0  0  0  0
    1.2837    0.0511    1.4542 C   0  0  0  0  0  0  0  0  0  0  0  0
    0.6145    0.6343    0.3577 C   0  0  0  0  0  0  0  0  0  0  0  0
   -0.8718    0.5364    0.2612 C   0  0  0  0  0  0  0  0  0  0  0  0
    2.6803    0.1286    1.5317 C   0  0  0  0  0  0  0  0  0  0  0  0
    1.3590    1.2715   -0.6475 C   0  0  0  0  0  0  0  0  0  0  0  0
   -2.7758   -0.9819   -0.3106 C   0  0  0  0  0  0  0  0  0  0  0  0
   -1.5015    1.7236    0.3514 C   0  0  0  0  0  0  0  0  0  0  0  0
    3.4077    0.7737    0.5317 C   0  0  0  0  0  0  0  0  0  0  0  0
    2.7490    1.3422   -0.5563 C   0  0  0  0  0  0  0  0  0  0  0  0
   -3.7752   -0.0098   -0.8112 C   0  0  0  0  0  0  0  0  0  0  0  0
    0.7087   -3.5639   -0.6803 C   0  0  0  0  0  0  0  0  0  0  0  0
   -2.9118    2.0077    0.3801 C   0  0  0  0  0  0  0  0  0  0  0  0
   -3.9181    1.3091   -0.1519 C   0  0  0  0  0  0  0  0  0  0  0  0
    1.7356   -3.5750   -1.7808 C   0  0  0  0  0  0  0  0  0  0  0  0
    5.3162    1.9633    1.3052 C   0  0  0  0  0  0  0  0  0  0  0  0
    3.8971    1.1558   -2.6307 C   0  0  0  0  0  0  0  0  0  0  0  0
   -5.8766    1.4377    1.0464 C   0  0  0  0  0  0  0  0  0  0  0  0
  1 16  1  0
  2 19  1  0
  2 26  1  0
  3 20  1  0
  3 27  1  0
  4 24  1  0
  4 28  1  0
  5 21  2  0
  6 22  2  0
  7  8  1  0
  7 22  1  0
  8  9  1  0
  8 11  1  0
  9 10  1  0
 10 12  1  0
 11 14  1  0
 11 17  2  0
 12 13  2  0
 12 15  1  0
 13 14  1  0
 13 16  1  0
 14 18  2  0
 15 19  2  0
 16 20  2  0
 17 21  1  0
 18 23  1  0
 19 20  1  0
 21 24  1  0
 22 25  1  0
 23 24  2  0
M  END
>  <PUBCHEM_COMPOUND_CID>  (1) 
18702

>  <PUBCHEM_CONFORMER_RMSD>  (1) 
0.8

>  <PUBCHEM_CONFORMER_DIVERSEORDER>  (1) 
1
14
19
8
4
7
15
16
9
20
18
3
2
5
6
17
12
10
13
11

>  <PUBCHEM_MMFF94_PARTIAL_CHARGES>  (1) 
33
1 -0.53
10 0.14
11 -0.14
12 -0.14
13 0.03
14 -0.03
15 -0.15
16 0.08
17 -0.14
18 -0.15
19 0.08
2 -0.36
20 0.08
21 0.54
22 0.57
23 -0.15
24 0.09
25 0.06
26 0.28
27 0.28
28 0.28
3 -0.36
34 0.37
35 0.15
36 0.15
37 0.15
38 0.15
39 0.45
4 -0.36
5 -0.57
6 -0.57
7 -0.73
8 0.44

>  <PUBCHEM_EFFECTIVE_ROTOR_COUNT>  (1) 
5.6

>  <PUBCHEM_PHARMACOPHORE_FEATURES>  (1) 
10
1 1 donor
1 2 acceptor
1 3 acceptor
1 4 acceptor
1 5 acceptor
1 6 acceptor
1 7 donor
6 12 13 15 16 19 20 rings
7 11 14 17 18 21 23 24 rings
7 8 9 10 11 12 13 14 rings

>  <PUBCHEM_HEAVY_ATOM_COUNT>  (1) 
28

>  <PUBCHEM_ATOM_DEF_STEREO_COUNT>  (1) 
1

>  <PUBCHEM_ATOM_UDEF_STEREO_COUNT>  (1) 
0

>  <PUBCHEM_BOND_DEF_STEREO_COUNT>  (1) 
0

>  <PUBCHEM_BOND_UDEF_STEREO_COUNT>  (1) 
0

>  <PUBCHEM_ISOTOPIC_ATOM_COUNT>  (1) 
0

>  <PUBCHEM_COMPONENT_COUNT>  (1) 
1

>  <PUBCHEM_CACTVS_TAUTO_COUNT>  (1) 
36

>  <PUBCHEM_CONFORMER_ID>  (1) 
0000490E00000001

>  <PUBCHEM_MMFF94_ENERGY>  (1) 
121.7147

>  <PUBCHEM_FEATURE_SELFOVERLAP>  (1) 
50.773

>  <PUBCHEM_SHAPE_FINGERPRINT>  (1) 
10721379 63 17843975740512112598
11370993 70 18272366507991700854
12236239 1 18259976085198359865
12422481 6 17975382773647684898
12788726 201 17683812381665850242
133893 2 17979377277626206507
15163728 17 18335717056079306215
16752209 62 18266738167581874827
17980427 23 17389365324612343124
17980427 26 17128697354787941280
1813 80 17760084017220640883
20511986 3 17751901757093769572
20691752 17 17896603877703040751
21033648 29 18058717143560542752
21781055 127 18269012920345004904
22149856 69 18267887033881643017
22907989 373 17757847997058558407
23366157 5 18118683223549602011
23419403 2 17323011776890303139
23559900 14 18270961219940170014
23598288 3 17899140687478368474
298252 57 18337101379931488762
404807 14 17123684454256248814
474 4 17894628136991440449
5081480 168 17907859505406477599
59755656 215 18267022756372978069
9981440 41 18410290337153820115

>  <PUBCHEM_SHAPE_MULTIPOLES>  (1) 
536.03
9.17
3.79
2.02
5.25
5.47
-0.13
-8.53
-0.71
-1.27
-1.09
-1.74
0.13
-0.15

>  <PUBCHEM_SHAPE_SELFOVERLAP>  (1) 
1150.358

>  <PUBCHEM_SHAPE_VOLUME>  (1) 
292.4

>  <PUBCHEM_COORDINATE_TYPE>  (1) 
2
5
10

$$$$
