18713
     RDKit          3D

  9  8  0  0  1  0  0  0  0  0999 V2000
   -2.7971   -0.5240   -0.3642 O   0  0  0  0  0  0  0  0  0  0  0  0
    2.2294   -1.5613    0.3349 O   0  0  0  0  0  0  0  0  0  0  0  0
    2.9757    0.3325   -0.6639 O   0  0  0  0  0  0  0  0  0  0  0  0
    0.8549    1.7832    0.1516 N   0  0  0  0  0  0  0  0  0  0  0  0
   -0.3824   -0.3592   -0.1403 C   0  0  0  0  0  0  0  0  0  0  0  0
    0.8212    0.3601    0.4880 C   0  0  0  0  0  0  0  0  0  0  0  0
   -1.7451    0.2198    0.2330 C   0  0  0  0  0  0  0  0  0  0  0  0
    2.1148   -0.2538   -0.0204 C   0  0  0  0  0  0  0  0  0  0  0  0
   -4.0716    0.0027   -0.0187 C   0  0  0  0  0  0  0  0  0  0  0  0
  1  7  1  0
  1  9  1  0
  2  8  1  0
  3  8  2  0
  4  6  1  0
  5  6  1  0
  5  7  1  0
  6  8  1  0
M  END
>  <PUBCHEM_COMPOUND_CID>  (1) 
18713

>  <PUBCHEM_CONFORMER_RMSD>  (1) 
0.6

>  <PUBCHEM_CONFORMER_DIVERSEORDER>  (1) 
1
39
46
28
37
29
6
10
48
18
45
47
24
9
21
22
23
42
11
8
2
7
27
3
44
4
15
30
12
13
41
34
32
40
5
20
26
31
17
35
36
25
19
33
16
43
38
14

>  <PUBCHEM_MMFF94_PARTIAL_CHARGES>  (1) 
11
1 -0.56
15 0.36
16 0.36
2 -0.65
20 0.5
3 -0.57
4 -0.99
6 0.33
7 0.28
8 0.66
9 0.28

>  <PUBCHEM_EFFECTIVE_ROTOR_COUNT>  (1) 
4

>  <PUBCHEM_PHARMACOPHORE_FEATURES>  (1) 
6
1 1 acceptor
1 2 acceptor
1 3 acceptor
1 4 cation
1 4 donor
3 2 3 8 anion

>  <PUBCHEM_HEAVY_ATOM_COUNT>  (1) 
9

>  <PUBCHEM_ATOM_DEF_STEREO_COUNT>  (1) 
0

>  <PUBCHEM_ATOM_UDEF_STEREO_COUNT>  (1) 
1

>  <PUBCHEM_BOND_DEF_STEREO_COUNT>  (1) 
0

>  <PUBCHEM_BOND_UDEF_STEREO_COUNT>  (1) 
0

>  <PUBCHEM_ISOTOPIC_ATOM_COUNT>  (1) 
0

>  <PUBCHEM_COMPONENT_COUNT>  (1) 
1

>  <PUBCHEM_CACTVS_TAUTO_COUNT>  (1) 
1

>  <PUBCHEM_CONFORMER_ID>  (1) 
0000491900000001

>  <PUBCHEM_MMFF94_ENERGY>  (1) 
10.6553

>  <PUBCHEM_FEATURE_SELFOVERLAP>  (1) 
30.505

>  <PUBCHEM_SHAPE_FINGERPRINT>  (1) 
11062470 55 17704071802419178835
12932764 1 18341886411886161119
14325111 11 18410854382582058859
14390081 3 12973601140591485111
20651381 32 18261107448456128815
21293036 1 18411425033158608524
23552423 10 18196646513456500759
29004967 10 18335424564785488984

>  <PUBCHEM_SHAPE_MULTIPOLES>  (1) 
162.63
5.74
1.18
0.68
4.85
0.19
0
-0.78
0.62
-0.74
-0.1
-0.1
0
-0.2

>  <PUBCHEM_SHAPE_SELFOVERLAP>  (1) 
298.04

>  <PUBCHEM_SHAPE_VOLUME>  (1) 
103.7

>  <PUBCHEM_COORDINATE_TYPE>  (1) 
2
5
10

$$$$
