18715
     RDKit          3D

 25 28  0  0  1  0  0  0  0  0999 V2000
   -3.2699    1.0258    0.3908 N   0  0  0  0  0  0  0  0  0  0  0  0
    2.3273   -0.2809   -1.6133 N   0  0  0  0  0  0  0  0  0  0  0  0
    0.9254    0.1931    1.1527 C   0  0  0  0  0  0  0  0  0  0  0  0
   -0.4185    0.9256    1.0046 C   0  0  0  0  0  0  0  0  0  0  0  0
   -2.8010    1.0574    1.7759 C   0  0  0  0  0  0  0  0  0  0  0  0
   -1.4778    0.3047    1.9054 C   0  0  0  0  0  0  0  0  0  0  0  0
   -3.5081   -0.3591   -0.0397 C   0  0  0  0  0  0  0  0  0  0  0  0
   -4.4807    1.8449    0.2391 C   0  0  0  0  0  0  0  0  0  0  0  0
   -3.9523   -0.4136   -1.5022 C   0  0  0  0  0  0  0  0  0  0  0  0
   -4.9567    1.8626   -1.2143 C   0  0  0  0  0  0  0  0  0  0  0  0
   -5.1860    0.4501   -1.7398 C   0  0  0  0  0  0  0  0  0  0  0  0
    0.7899   -1.2816    0.8141 C   0  0  0  0  0  0  0  0  0  0  0  0
    2.0766    0.9846    0.5175 C   0  0  0  0  0  0  0  0  0  0  0  0
    0.7600   -1.7468   -0.5085 C   0  0  0  0  0  0  0  0  0  0  0  0
    2.7024    0.7345   -0.7335 C   0  0  0  0  0  0  0  0  0  0  0  0
    0.9654   -0.7908   -1.6442 C   0  0  0  0  0  0  0  0  0  0  0  0
    0.6310   -2.2118    1.8587 C   0  0  0  0  0  0  0  0  0  0  0  0
    2.5396    2.0676    1.3142 C   0  0  0  0  0  0  0  0  0  0  0  0
    0.5895   -3.1167   -0.7662 C   0  0  0  0  0  0  0  0  0  0  0  0
    3.7825    1.5872   -1.0872 C   0  0  0  0  0  0  0  0  0  0  0  0
    3.2442   -0.7640   -2.6419 C   0  0  0  0  0  0  0  0  0  0  0  0
    0.4600   -3.5709    1.5943 C   0  0  0  0  0  0  0  0  0  0  0  0
    3.5956    2.8829    0.9241 C   0  0  0  0  0  0  0  0  0  0  0  0
    0.4389   -4.0236    0.2806 C   0  0  0  0  0  0  0  0  0  0  0  0
    4.2224    2.6386   -0.2810 C   0  0  0  0  0  0  0  0  0  0  0  0
  1  5  1  0
  1  7  1  0
  1  8  1  0
  2 15  1  0
  2 16  1  0
  2 21  1  0
  3  4  1  0
  3 12  1  0
  3 13  1  0
  4  6  1  0
  5  6  1  0
  7  9  1  0
  8 10  1  0
  9 11  1  0
 10 11  1  0
 12 14  2  0
 12 17  1  0
 13 15  2  0
 13 18  1  0
 14 16  1  0
 14 19  1  0
 15 20  1  0
 17 22  2  0
 18 23  2  0
 19 24  2  0
 20 25  2  0
 22 24  1  0
 23 25  1  0
M  END
>  <PUBCHEM_COMPOUND_CID>  (1) 
18715

>  <PUBCHEM_CONFORMER_RMSD>  (1) 
0.8

>  <PUBCHEM_CONFORMER_DIVERSEORDER>  (1) 
1
5
31
40
4
50
47
46
37
35
28
24
39
8
34
44
36
32
30
20
12
16
18
11
48
43
29
38
49
45
23
41
9
3
42
33
26
27
7
6
22
17
25
15
2
21
10
19
13
14

>  <PUBCHEM_MMFF94_PARTIAL_CHARGES>  (1) 
28
1 -0.81
12 -0.14
13 -0.14
14 -0.14
15 0.1
16 0.51
17 -0.15
18 -0.15
19 -0.15
2 -0.84
20 -0.15
21 0.37
22 -0.15
23 -0.15
24 -0.15
25 -0.15
3 0.29
45 0.15
46 0.15
47 0.15
48 0.15
5 0.27
52 0.15
53 0.15
54 0.15
55 0.15
7 0.27
8 0.27

>  <PUBCHEM_EFFECTIVE_ROTOR_COUNT>  (1) 
5.8

>  <PUBCHEM_PHARMACOPHORE_FEATURES>  (1) 
6
1 1 cation
1 2 cation
6 1 7 8 9 10 11 rings
6 12 14 17 19 22 24 rings
6 13 15 18 20 23 25 rings
7 2 3 12 13 14 15 16 rings

>  <PUBCHEM_HEAVY_ATOM_COUNT>  (1) 
25

>  <PUBCHEM_ATOM_DEF_STEREO_COUNT>  (1) 
0

>  <PUBCHEM_ATOM_UDEF_STEREO_COUNT>  (1) 
1

>  <PUBCHEM_BOND_DEF_STEREO_COUNT>  (1) 
0

>  <PUBCHEM_BOND_UDEF_STEREO_COUNT>  (1) 
0

>  <PUBCHEM_ISOTOPIC_ATOM_COUNT>  (1) 
0

>  <PUBCHEM_COMPONENT_COUNT>  (1) 
1

>  <PUBCHEM_CACTVS_TAUTO_COUNT>  (1) 
1

>  <PUBCHEM_CONFORMER_ID>  (1) 
0000491B00000001

>  <PUBCHEM_MMFF94_ENERGY>  (1) 
76.8614

>  <PUBCHEM_FEATURE_SELFOVERLAP>  (1) 
30.463

>  <PUBCHEM_SHAPE_FINGERPRINT>  (1) 
105312 117 18189346821489907844
10688039 33 17401212660167765906
10721379 63 18195242218191229449
10764073 3 13842193275971986778
10928967 22 14692277466094797645
10930396 42 18266162956863452530
121448 382 18269273637263933659
12633257 1 14346066551284823813
12730499 353 18336000679188381769
12741549 16 11330183010661480174
12788726 201 17248090247098812238
13134695 92 17900254200198603442
14251757 17 17703515513881094751
14957384 54 17387140968974885476
15163728 17 18114189648101373157
15842332 3 17772754875498039217
17974551 9 13768213851599827525
17980427 23 18122321515783441291
20197701 30 18337380638805008866
20567600 347 18408317813351540515
21120745 212 17040075343443039590
21285901 2 17695085669832156639
21304303 282 17977078460816431898
21304303 94 17775560949204321911
22182313 1 18124902263094967434
22393880 68 18341611495351002525
22907989 373 17622467337896391580
23559900 14 16916216634331535733
238 59 18339656550359450011
24941158 1 17828451740387485119
3493558 16 16600947458554954277
394222 165 18336809940704647227
404807 78 17754155799218396663
4280585 95 17198841635458693654
4409770 3 17910117141991442770
44802255 64 17100356390911620526
469060 322 17825681203610153299
495365 180 17604995819337575163
633830 44 18128279846598391809
6669772 16 18413107290671561866
6823239 73 15625923366726166479
7471813 234 17762060943248145946
81228 2 17544508660789059562

>  <PUBCHEM_SHAPE_MULTIPOLES>  (1) 
504.53
8.76
4.01
2.24
9.89
3.61
-0.44
-9.04
-4.51
-2.67
1.21
-0.16
0.41
0.56

>  <PUBCHEM_SHAPE_SELFOVERLAP>  (1) 
1074.452

>  <PUBCHEM_SHAPE_VOLUME>  (1) 
277.6

>  <PUBCHEM_COORDINATE_TYPE>  (1) 
2
5
10

$$$$
