18721
     RDKit          3D

 29 31  0  0  0  0  0  0  0  0999 V2000
    0.1367    0.6571   -0.5041 O   0  0  0  0  0  0  0  0  0  0  0  0
   -3.8206   -2.1412   -0.4507 O   0  0  0  0  0  0  0  0  0  0  0  0
   -4.1954    2.5851   -0.7304 O   0  0  0  0  0  0  0  0  0  0  0  0
   -1.3881   -3.1170   -0.3308 O   0  0  0  0  0  0  0  0  0  0  0  0
    6.4570    0.7596   -0.3610 O   0  0  0  0  0  0  0  0  0  0  0  0
   -3.8672   -1.9736    1.8838 O   0  0  0  0  0  0  0  0  0  0  0  0
   -4.2359    2.6843    1.6080 O   0  0  0  0  0  0  0  0  0  0  0  0
    6.6288   -0.2860    1.7264 O   0  0  0  0  0  0  0  0  0  0  0  0
   -1.8093   -0.7960   -0.4716 C   0  0  0  0  0  0  0  0  0  0  0  0
   -1.2216    0.4665   -0.5288 C   0  0  0  0  0  0  0  0  0  0  0  0
    0.9583   -0.4560   -0.4104 C   0  0  0  0  0  0  0  0  0  0  0  0
   -3.1992   -0.9303   -0.5012 C   0  0  0  0  0  0  0  0  0  0  0  0
   -0.9408   -1.9796   -0.3813 C   0  0  0  0  0  0  0  0  0  0  0  0
    2.4003   -0.1380   -0.3974 C   0  0  0  0  0  0  0  0  0  0  0  0
    0.5132   -1.7214   -0.3555 C   0  0  0  0  0  0  0  0  0  0  0  0
   -2.0228    1.6052   -0.6166 C   0  0  0  0  0  0  0  0  0  0  0  0
   -3.4116    1.4753   -0.6462 C   0  0  0  0  0  0  0  0  0  0  0  0
   -3.9983    0.2104   -0.5885 C   0  0  0  0  0  0  0  0  0  0  0  0
    3.3229   -1.0368   -0.9381 C   0  0  0  0  0  0  0  0  0  0  0  0
    2.8479    1.0644    0.1558 C   0  0  0  0  0  0  0  0  0  0  0  0
    4.6848   -0.7354   -0.9256 C   0  0  0  0  0  0  0  0  0  0  0  0
    4.2099    1.3659    0.1683 C   0  0  0  0  0  0  0  0  0  0  0  0
    5.1284    0.4660   -0.3726 C   0  0  0  0  0  0  0  0  0  0  0  0
   -4.1188   -2.5785    0.8500 C   0  0  0  0  0  0  0  0  0  0  0  0
   -4.5599    3.1259    0.5136 C   0  0  0  0  0  0  0  0  0  0  0  0
   -4.7983   -3.9147    0.7988 C   0  0  0  0  0  0  0  0  0  0  0  0
   -5.4186    4.3394    0.3143 C   0  0  0  0  0  0  0  0  0  0  0  0
    7.1334    0.3146    0.7870 C   0  0  0  0  0  0  0  0  0  0  0  0
    8.5846    0.6848    0.7044 C   0  0  0  0  0  0  0  0  0  0  0  0
  1 10  1  0
  1 11  1  0
  2 12  1  0
  2 24  1  0
  3 17  1  0
  3 25  1  0
  4 13  2  0
  5 23  1  0
  5 28  1  0
  6 24  2  0
  7 25  2  0
  8 28  2  0
  9 10  2  0
  9 12  1  0
  9 13  1  0
 10 16  1  0
 11 14  1  0
 11 15  2  0
 12 18  2  0
 13 15  1  0
 14 19  2  0
 14 20  1  0
 16 17  2  0
 17 18  1  0
 19 21  1  0
 20 22  2  0
 21 23  2  0
 22 23  1  0
 24 26  1  0
 25 27  1  0
 28 29  1  0
M  END
>  <PUBCHEM_COMPOUND_CID>  (1) 
18721

>  <PUBCHEM_CONFORMER_RMSD>  (1) 
0.8

>  <PUBCHEM_CONFORMER_DIVERSEORDER>  (1) 
1
41
52
10
8
43
49
54
53
6
44
11
27
22
32
46
30
34
7
40
45
36
39
21
50
25
18
19
33
38
56
15
48
35
60
26
23
29
58
24
31
20
57
47
51
14
2
55
5
4
12
13
59
3
37
16
28
9
17
42

>  <PUBCHEM_MMFF94_PARTIAL_CHARGES>  (1) 
36
1 -0.16
10 0.08
11 0.05
12 0.08
13 0.47
14 0.03
15 -0.14
16 -0.15
17 0.08
18 -0.15
19 -0.15
2 -0.23
20 -0.15
21 -0.15
22 -0.15
23 0.08
24 0.66
25 0.66
26 0.06
27 0.06
28 0.66
29 0.06
3 -0.23
30 0.15
31 0.15
32 0.15
33 0.15
34 0.15
35 0.15
36 0.15
4 -0.57
5 -0.23
6 -0.57
7 -0.57
8 -0.57
9 0.09

>  <PUBCHEM_EFFECTIVE_ROTOR_COUNT>  (1) 
7

>  <PUBCHEM_PHARMACOPHORE_FEATURES>  (1) 
8
1 1 acceptor
1 4 acceptor
1 6 acceptor
1 7 acceptor
1 8 acceptor
6 1 9 10 11 13 15 rings
6 14 19 20 21 22 23 rings
6 9 10 12 16 17 18 rings

>  <PUBCHEM_HEAVY_ATOM_COUNT>  (1) 
29

>  <PUBCHEM_ATOM_DEF_STEREO_COUNT>  (1) 
0

>  <PUBCHEM_ATOM_UDEF_STEREO_COUNT>  (1) 
0

>  <PUBCHEM_BOND_DEF_STEREO_COUNT>  (1) 
0

>  <PUBCHEM_BOND_UDEF_STEREO_COUNT>  (1) 
0

>  <PUBCHEM_ISOTOPIC_ATOM_COUNT>  (1) 
0

>  <PUBCHEM_COMPONENT_COUNT>  (1) 
1

>  <PUBCHEM_CACTVS_TAUTO_COUNT>  (1) 
1

>  <PUBCHEM_CONFORMER_ID>  (1) 
0000492100000001

>  <PUBCHEM_MMFF94_ENERGY>  (1) 
96.1577

>  <PUBCHEM_FEATURE_SELFOVERLAP>  (1) 
40.628

>  <PUBCHEM_SHAPE_FINGERPRINT>  (1) 
10290309 65 18131361791030150414
10319688 45 18125719243322059631
10319926 262 18338782508036244264
10411042 1 18050285066687435447
10835480 77 18130782335875618836
11135609 187 18192420880630626069
11315181 36 18040431135687594124
12107183 9 18047463436081722186
12120059 9 11819540594359448680
12236239 1 17385999611860156398
12390115 104 18342188725912602661
13073987 5 18409446986392961374
13140716 1 18192153702924686471
13540713 4 18200329713953588471
13540713 5 18195225742945134551
13631057 29 18261670484430644179
14790565 3 17764597521201046117
15021287 119 17095241428248042564
15778101 99 18411703145112947756
16087824 20 18411981361717936719
17844677 252 18337677532904404524
21033648 144 18264199232082514925
21033648 29 17988912384565569720
21130935 74 18408035209679594146
21236236 1 18411419514310158629
21279426 13 18129952156982268806
21756936 100 18272083869063366773
23081809 10 17603589651698431052
23522609 53 17750255689545121460
23559900 14 18342166800088810172
23569943 247 16517344641192420362
23845131 108 18119257156493489473
249057 25 17749394814578379164
283562 15 18336545006280190623
3663271 9 18186514420034657064
4073 2 18410014312886025646
5104073 3 18335984173386697218
58260988 114 16443640085545750483
5969126 39 18270674389941322359
636775 72 18201431463903222016
6698420 124 17984715419933914033
9896288 288 18408325497074842235

>  <PUBCHEM_SHAPE_MULTIPOLES>  (1) 
549.85
17.94
4.08
1.14
35.28
0.77
0.4
6.93
6.06
-11.92
1.13
-0.05
-0.14
0.83

>  <PUBCHEM_SHAPE_SELFOVERLAP>  (1) 
1198.917

>  <PUBCHEM_SHAPE_VOLUME>  (1) 
293.4

>  <PUBCHEM_COORDINATE_TYPE>  (1) 
2
5
10

$$$$
