18736
     RDKit          3D

 16 18  0  0  1  0  0  0  0  0999 V2000
    0.7830   -1.1405   -0.5525 O   0  0  0  0  0  0  0  0  0  0  0  0
    2.3867   -2.6453   -0.0119 O   0  0  0  0  0  0  0  0  0  0  0  0
   -2.3877   -0.8660    0.4247 N   0  0  0  0  0  0  0  0  0  0  0  0
    0.2003    0.1711   -0.3062 C   0  0  0  0  0  0  0  0  0  0  0  0
   -1.0126    0.3137   -1.2727 C   0  0  0  0  0  0  0  0  0  0  0  0
   -1.8894    0.3233    1.1395 C   0  0  0  0  0  0  0  0  0  0  0  0
   -0.3458    0.2162    1.1502 C   0  0  0  0  0  0  0  0  0  0  0  0
   -1.7612    1.6325   -1.0110 C   0  0  0  0  0  0  0  0  0  0  0  0
   -2.0223   -0.8299   -1.0023 C   0  0  0  0  0  0  0  0  0  0  0  0
   -2.2851    1.6334    0.4295 C   0  0  0  0  0  0  0  0  0  0  0  0
    1.2726    1.2382   -0.5724 C   0  0  0  0  0  0  0  0  0  0  0  0
   -3.8113   -1.1067    0.6203 C   0  0  0  0  0  0  0  0  0  0  0  0
    2.5532    0.8931    0.1293 C   0  0  0  0  0  0  0  0  0  0  0  0
    1.9991   -1.4830   -0.0568 C   0  0  0  0  0  0  0  0  0  0  0  0
    2.8642   -0.3814    0.3975 C   0  0  0  0  0  0  0  0  0  0  0  0
    3.4563    2.0313    0.4947 C   0  0  0  0  0  0  0  0  0  0  0  0
  1  4  1  0
  1 14  1  0
  2 14  2  0
  3  6  1  0
  3  9  1  0
  3 12  1  0
  4  5  1  0
  4  7  1  0
  4 11  1  0
  5  8  1  0
  5  9  1  0
  6  7  1  0
  6 10  1  0
  8 10  1  0
 11 13  1  0
 13 15  2  0
 13 16  1  0
 14 15  1  0
M  END
>  <PUBCHEM_COMPOUND_CID>  (1) 
18736

>  <PUBCHEM_CONFORMER_RMSD>  (1) 
0.6

>  <PUBCHEM_CONFORMER_DIVERSEORDER>  (1) 
4
3
1
2

>  <PUBCHEM_MMFF94_PARTIAL_CHARGES>  (1) 
13
1 -0.43
11 0.14
12 0.27
13 -0.28
14 0.71
15 -0.14
16 0.14
2 -0.57
3 -0.81
32 0.15
4 0.28
6 0.27
9 0.27

>  <PUBCHEM_EFFECTIVE_ROTOR_COUNT>  (1) 
1.4

>  <PUBCHEM_PHARMACOPHORE_FEATURES>  (1) 
4
1 2 acceptor
1 3 cation
6 1 4 11 13 14 15 rings
8 3 4 5 6 7 8 9 10 rings

>  <PUBCHEM_HEAVY_ATOM_COUNT>  (1) 
16

>  <PUBCHEM_ATOM_DEF_STEREO_COUNT>  (1) 
1

>  <PUBCHEM_ATOM_UDEF_STEREO_COUNT>  (1) 
2

>  <PUBCHEM_BOND_DEF_STEREO_COUNT>  (1) 
0

>  <PUBCHEM_BOND_UDEF_STEREO_COUNT>  (1) 
0

>  <PUBCHEM_ISOTOPIC_ATOM_COUNT>  (1) 
0

>  <PUBCHEM_COMPONENT_COUNT>  (1) 
1

>  <PUBCHEM_CACTVS_TAUTO_COUNT>  (1) 
1

>  <PUBCHEM_CONFORMER_ID>  (1) 
0000493000000004

>  <PUBCHEM_MMFF94_ENERGY>  (1) 
46.0506

>  <PUBCHEM_FEATURE_SELFOVERLAP>  (1) 
20.298

>  <PUBCHEM_SHAPE_FINGERPRINT>  (1) 
10608611 8 18336260150367444740
10863032 1 18412265004355522889
11471102 22 18408326579421755682
12423570 1 12759357936986241159
12696612 119 18409736144691215660
12932764 1 18339653256224924884
13024252 1 14779537998571732509
13140716 1 18265329512919269888
13380536 127 17203619163488431633
13538477 17 17346316033162138023
13693222 15 18114179769676371392
14223421 5 18410296916811309747
14252887 29 18114475555821846211
14648413 74 18265606589965643764
14787075 74 17268633509572311201
15207287 21 17604987198794789490
15219456 202 18334852805537794685
15309172 13 18264766743639493332
15375462 189 17988924530506430683
15375462 6 18410576201365326752
15775835 57 18059860631136675128
16945 1 18337392767602683661
17841504 4 18338802191396835002
200 152 18271512178582057007
204376 136 18122621919255927264
20525323 117 18410004468377890933
21501502 16 18335425629573524181
21524375 3 18128253592133042000
22445834 79 18343024363086432706
22802520 49 18189609454059923492
22854114 111 18343582971065288264
23236772 104 17630887299020073508
23388829 49 18266177425405135245
23402539 116 17750783531849769179
23493267 7 16916527894236492033
23557571 272 17675924304695456813
23559900 14 18339355249845381946
2748010 2 18335135341455667916
3286 77 18333731304046786746
369184 2 18412825759406485097
69090 78 18263921043309828829
7364860 26 18272375248229114190
74978 22 18269554927493668868
81228 2 17531252712523815141

>  <PUBCHEM_SHAPE_MULTIPOLES>  (1) 
312.55
5.4
2.09
1.13
0.46
0.42
0.05
0.08
-1.14
1.13
0.08
-0.57
-0.16
0.34

>  <PUBCHEM_SHAPE_SELFOVERLAP>  (1) 
667.083

>  <PUBCHEM_SHAPE_VOLUME>  (1) 
171.9

>  <PUBCHEM_COORDINATE_TYPE>  (1) 
2
5
10

$$$$
