18747
     RDKit          3D

 11 11  0  0  0  0  0  0  0  0999 V2000
    0.8612   -2.7396   -0.0002 Cl  0  0  0  0  0  0  0  0  0  0  0  0
    0.8612    2.7396    0.0001 Cl  0  0  0  0  0  0  0  0  0  0  0  0
   -3.3988    0.0000    0.0002 O   0  0  0  0  0  0  0  0  0  0  0  0
    3.3433   -0.0001   -0.0001 N   0  0  0  0  0  0  0  0  0  0  0  0
    0.7524    0.0000    0.0003 C   0  0  0  0  0  0  0  0  0  0  0  0
   -2.0375    0.0000   -0.0002 C   0  0  0  0  0  0  0  0  0  0  0  0
    0.0548   -1.2080    0.0003 C   0  0  0  0  0  0  0  0  0  0  0  0
    0.0549    1.2081    0.0000 C   0  0  0  0  0  0  0  0  0  0  0  0
   -1.3401   -1.2079    0.0000 C   0  0  0  0  0  0  0  0  0  0  0  0
   -1.3401    1.2079   -0.0003 C   0  0  0  0  0  0  0  0  0  0  0  0
    2.1887    0.0000    0.0000 C   0  0  0  0  0  0  0  0  0  0  0  0
  1  7  1  0
  2  8  1  0
  3  6  1  0
  4 11  3  0
  5  7  2  0
  5  8  1  0
  5 11  1  0
  6  9  2  0
  6 10  1  0
  7  9  1  0
  8 10  2  0
M  END
>  <PUBCHEM_COMPOUND_CID>  (1) 
18747

>  <PUBCHEM_CONFORMER_RMSD>  (1) 
0.4

>  <PUBCHEM_CONFORMER_DIVERSEORDER>  (1) 
1

>  <PUBCHEM_MMFF94_PARTIAL_CHARGES>  (1) 
14
1 -0.18
10 -0.15
11 0.48
12 0.15
13 0.15
14 0.45
2 -0.18
3 -0.53
4 -0.56
5 0.07
6 0.08
7 0.18
8 0.18
9 -0.15

>  <PUBCHEM_EFFECTIVE_ROTOR_COUNT>  (1) 
0

>  <PUBCHEM_PHARMACOPHORE_FEATURES>  (1) 
3
1 3 donor
1 4 acceptor
6 5 6 7 8 9 10 rings

>  <PUBCHEM_HEAVY_ATOM_COUNT>  (1) 
11

>  <PUBCHEM_ATOM_DEF_STEREO_COUNT>  (1) 
0

>  <PUBCHEM_ATOM_UDEF_STEREO_COUNT>  (1) 
0

>  <PUBCHEM_BOND_DEF_STEREO_COUNT>  (1) 
0

>  <PUBCHEM_BOND_UDEF_STEREO_COUNT>  (1) 
0

>  <PUBCHEM_ISOTOPIC_ATOM_COUNT>  (1) 
0

>  <PUBCHEM_COMPONENT_COUNT>  (1) 
1

>  <PUBCHEM_CACTVS_TAUTO_COUNT>  (1) 
2

>  <PUBCHEM_CONFORMER_ID>  (1) 
0000493B00000001

>  <PUBCHEM_MMFF94_ENERGY>  (1) 
21.5383

>  <PUBCHEM_FEATURE_SELFOVERLAP>  (1) 
15.223

>  <PUBCHEM_SHAPE_FINGERPRINT>  (1) 
10219947 1 18410576184206361787
12423570 1 17031329239322903277
161256 15 18053110527348149398
16945 1 18410573985399364485
193761 8 17689998938257303108
20511035 2 17972608954501871711
20588541 1 18334861597562670355
20645476 183 17750815404971177094
21501502 16 17979356352471706426
2334 1 17978511167479926159
23402539 116 18271513243908123654
23402655 69 18195508317850107261
23463225 33 18334853862500767130
23552423 10 17901947774723053860
241688 4 17905893578341680875
2748010 2 18120654901131872159
5084963 1 18059012907597586003
528886 8 18411414024920142962
53812653 166 18342171125020624577

>  <PUBCHEM_SHAPE_MULTIPOLES>  (1) 
219.26
3.56
2.69
0.61
0.3
0
0
0
0
-0.92
0
-0.01
0
0

>  <PUBCHEM_SHAPE_SELFOVERLAP>  (1) 
444.874

>  <PUBCHEM_SHAPE_VOLUME>  (1) 
128.7

>  <PUBCHEM_COORDINATE_TYPE>  (1) 
2
5
10

$$$$
