18743
     RDKit          3D

  8  8  0  0  0  0  0  0  0  0999 V2000
    0.9030    0.0000   -0.0106 N   0  0  0  0  0  0  0  0  0  0  0  0
    0.1250    1.2611   -0.4039 C   0  0  0  0  0  0  0  0  0  0  0  0
    0.1252   -1.2612   -0.4035 C   0  0  0  0  0  0  0  0  0  0  0  0
   -1.2869    1.2580    0.1682 C   0  0  0  0  0  0  0  0  0  0  0  0
   -1.2870   -1.2580    0.1681 C   0  0  0  0  0  0  0  0  0  0  0  0
   -2.0529    0.0000   -0.2168 C   0  0  0  0  0  0  0  0  0  0  0  0
    1.2437    0.0002    1.4794 C   0  0  0  0  0  0  0  0  0  0  0  0
    2.2299   -0.0001   -0.7810 C   0  0  0  0  0  0  0  0  0  0  0  0
  1  2  1  0
  1  3  1  0
  1  7  1  0
  1  8  1  0
  2  4  1  0
  3  5  1  0
  4  6  1  0
  5  6  1  0
M  CHG  1   1   1
M  END
>  <PUBCHEM_COMPOUND_CID>  (1) 
18743

>  <PUBCHEM_CONFORMER_RMSD>  (1) 
0.4

>  <PUBCHEM_CONFORMER_DIVERSEORDER>  (1) 
1
2
3

>  <PUBCHEM_MMFF94_PARTIAL_CHARGES>  (1) 
5
1 -1.01
2 0.5
3 0.5
7 0.5
8 0.5

>  <PUBCHEM_EFFECTIVE_ROTOR_COUNT>  (1) 
1.2

>  <PUBCHEM_PHARMACOPHORE_FEATURES>  (1) 
2
1 1 cation
6 1 2 3 4 5 6 rings

>  <PUBCHEM_HEAVY_ATOM_COUNT>  (1) 
8

>  <PUBCHEM_ATOM_DEF_STEREO_COUNT>  (1) 
0

>  <PUBCHEM_ATOM_UDEF_STEREO_COUNT>  (1) 
0

>  <PUBCHEM_BOND_DEF_STEREO_COUNT>  (1) 
0

>  <PUBCHEM_BOND_UDEF_STEREO_COUNT>  (1) 
0

>  <PUBCHEM_ISOTOPIC_ATOM_COUNT>  (1) 
0

>  <PUBCHEM_COMPONENT_COUNT>  (1) 
1

>  <PUBCHEM_CACTVS_TAUTO_COUNT>  (1) 
1

>  <PUBCHEM_CONFORMER_ID>  (1) 
0000493700000001

>  <PUBCHEM_MMFF94_ENERGY>  (1) 
15.4707

>  <PUBCHEM_FEATURE_SELFOVERLAP>  (1) 
10.148

>  <PUBCHEM_SHAPE_FINGERPRINT>  (1) 
137420 1 14972693401915359438
15310529 11 16515680039905112005
16714656 1 18410584980304652372
18185500 45 18040704905044621659
21040471 1 18267017254683252477
21922407 69 16950000313883408673
23235685 24 18410858720335582061
23552423 10 18188500068592672718
24536 1 18341887545456911845
29004967 10 15913333450983945134
5084963 1 18267860575738126647
5943 1 16472129625495266944

>  <PUBCHEM_SHAPE_MULTIPOLES>  (1) 
159.66
2.5
1.42
1.02
0.22
0
-0.34
0
0.25
-0.46
0.1
0.51
0
0

>  <PUBCHEM_SHAPE_SELFOVERLAP>  (1) 
298.32

>  <PUBCHEM_SHAPE_VOLUME>  (1) 
101.3

>  <PUBCHEM_COORDINATE_TYPE>  (1) 
2
5
10

$$$$
