18749
     RDKit          3D

 12 12  0  0  0  0  0  0  0  0999 V2000
    1.9211    2.6985   -0.0008 Cl  0  0  0  0  0  0  0  0  0  0  0  0
    1.8013   -2.7383    0.0006 Cl  0  0  0  0  0  0  0  0  0  0  0  0
    3.0902   -0.0470   -0.0011 O   0  0  0  0  0  0  0  0  0  0  0  0
   -3.0661   -1.1697   -0.0024 O   0  0  0  0  0  0  0  0  0  0  0  0
   -3.2117    1.0985    0.0005 O   0  0  0  0  0  0  0  0  0  0  0  0
   -1.0640    0.0442    0.0012 C   0  0  0  0  0  0  0  0  0  0  0  0
   -0.3933   -1.1787    0.0007 C   0  0  0  0  0  0  0  0  0  0  0  0
   -0.3402    1.2366    0.0008 C   0  0  0  0  0  0  0  0  0  0  0  0
    1.7250   -0.0170   -0.0001 C   0  0  0  0  0  0  0  0  0  0  0  0
    1.0543    1.2060    0.0002 C   0  0  0  0  0  0  0  0  0  0  0  0
    1.0013   -1.2094    0.0001 C   0  0  0  0  0  0  0  0  0  0  0  0
   -2.5178    0.0762    0.0002 C   0  0  0  0  0  0  0  0  0  0  0  0
  1 10  1  0
  2 11  1  0
  3  9  1  0
  4 12  1  0
  5 12  2  0
  6  7  2  0
  6  8  1  0
  6 12  1  0
  7 11  1  0
  8 10  2  0
  9 10  1  0
  9 11  2  0
M  END
>  <PUBCHEM_COMPOUND_CID>  (1) 
18749

>  <PUBCHEM_CONFORMER_RMSD>  (1) 
0.4

>  <PUBCHEM_CONFORMER_DIVERSEORDER>  (1) 
1
2

>  <PUBCHEM_MMFF94_PARTIAL_CHARGES>  (1) 
16
1 -0.18
10 0.18
11 0.18
12 0.63
13 0.15
14 0.15
15 0.45
16 0.5
2 -0.18
3 -0.53
4 -0.65
5 -0.57
6 0.09
7 -0.15
8 -0.15
9 0.08

>  <PUBCHEM_EFFECTIVE_ROTOR_COUNT>  (1) 
1

>  <PUBCHEM_PHARMACOPHORE_FEATURES>  (1) 
5
1 3 donor
1 4 acceptor
1 5 acceptor
3 4 5 12 anion
6 6 7 8 9 10 11 rings

>  <PUBCHEM_HEAVY_ATOM_COUNT>  (1) 
12

>  <PUBCHEM_ATOM_DEF_STEREO_COUNT>  (1) 
0

>  <PUBCHEM_ATOM_UDEF_STEREO_COUNT>  (1) 
0

>  <PUBCHEM_BOND_DEF_STEREO_COUNT>  (1) 
0

>  <PUBCHEM_BOND_UDEF_STEREO_COUNT>  (1) 
0

>  <PUBCHEM_ISOTOPIC_ATOM_COUNT>  (1) 
0

>  <PUBCHEM_COMPONENT_COUNT>  (1) 
1

>  <PUBCHEM_CACTVS_TAUTO_COUNT>  (1) 
3

>  <PUBCHEM_CONFORMER_ID>  (1) 
0000493D00000001

>  <PUBCHEM_MMFF94_ENERGY>  (1) 
29.4452

>  <PUBCHEM_FEATURE_SELFOVERLAP>  (1) 
25.429

>  <PUBCHEM_SHAPE_FINGERPRINT>  (1) 
1 1 18338516447122171598
13380535 76 17979915231096882900
13380536 305 18338806727014129404
14325111 11 18338799043143725825
14648413 74 18408324371787531513
16945 1 18410855451554103428
17990270 104 18409728430798213059
193761 8 17689998264263929258
20201158 50 18408039589564683483
20645477 70 18410851101433111143
20711985 365 17760366591492149028
20871998 22 17981890739812100054
21040471 1 18050287273640716096
2334 1 17978510059272933700
23402655 69 18268414760470828205
23552423 10 18411138052065414327
241688 4 17906173949606748528
2748010 2 18120661493843367990
5084963 1 18202004381831119393
528886 8 18411413999176557035
53812653 166 18341889680150720600
63268167 104 18338802204213002865
7364860 26 18413107255847326818
81228 2 17402899925279471482

>  <PUBCHEM_SHAPE_MULTIPOLES>  (1) 
233.09
4.24
2.7
0.6
2.76
0.11
0
-0.15
0
-2.12
0
-0.04
0
0

>  <PUBCHEM_SHAPE_SELFOVERLAP>  (1) 
476.268

>  <PUBCHEM_SHAPE_VOLUME>  (1) 
137.7

>  <PUBCHEM_COORDINATE_TYPE>  (1) 
2
5
10

$$$$
