18760
     RDKit          3D

 22 26  0  0  0  0  0  0  0  0999 V2000
   -1.5614    3.3193    0.0006 O   0  0  0  0  0  0  0  0  0  0  0  0
   -1.7491   -0.1389    0.0011 C   0  0  0  0  0  0  0  0  0  0  0  0
   -0.9603    0.9870    0.0010 C   0  0  0  0  0  0  0  0  0  0  0  0
   -3.0988    0.1486   -0.0002 C   0  0  0  0  0  0  0  0  0  0  0  0
   -3.3210    1.6281   -0.0015 C   0  0  0  0  0  0  0  0  0  0  0  0
    0.4390    0.8978    0.0012 C   0  0  0  0  0  0  0  0  0  0  0  0
   -1.2359   -1.4279    0.0017 C   0  0  0  0  0  0  0  0  0  0  0  0
    1.0387   -0.4014    0.0015 C   0  0  0  0  0  0  0  0  0  0  0  0
   -1.8844    2.1463   -0.0005 C   0  0  0  0  0  0  0  0  0  0  0  0
   -4.0235   -0.8804   -0.0010 C   0  0  0  0  0  0  0  0  0  0  0  0
    0.1695   -1.5401    0.0020 C   0  0  0  0  0  0  0  0  0  0  0  0
    2.4759   -0.5098    0.0007 C   0  0  0  0  0  0  0  0  0  0  0  0
   -2.1737   -2.4795    0.0011 C   0  0  0  0  0  0  0  0  0  0  0  0
    1.2602    2.0347    0.0007 C   0  0  0  0  0  0  0  0  0  0  0  0
   -3.5536   -2.2009   -0.0004 C   0  0  0  0  0  0  0  0  0  0  0  0
    3.2639    0.6703    0.0000 C   0  0  0  0  0  0  0  0  0  0  0  0
    2.6464    1.9210    0.0002 C   0  0  0  0  0  0  0  0  0  0  0  0
   -5.4872   -0.6057   -0.0029 C   0  0  0  0  0  0  0  0  0  0  0  0
    3.1840   -1.7393    0.0001 C   0  0  0  0  0  0  0  0  0  0  0  0
    4.6677    0.5980   -0.0013 C   0  0  0  0  0  0  0  0  0  0  0  0
    4.5806   -1.7985   -0.0016 C   0  0  0  0  0  0  0  0  0  0  0  0
    5.3231   -0.6287   -0.0023 C   0  0  0  0  0  0  0  0  0  0  0  0
  1  9  2  0
  2  3  1  0
  2  4  2  0
  2  7  1  0
  3  6  2  0
  3  9  1  0
  4  5  1  0
  4 10  1  0
  5  9  1  0
  6  8  1  0
  6 14  1  0
  7 11  1  0
  7 13  2  0
  8 11  2  0
  8 12  1  0
 10 15  2  0
 10 18  1  0
 12 16  2  0
 12 19  1  0
 13 15  1  0
 14 17  2  0
 16 17  1  0
 16 20  1  0
 19 21  2  0
 20 22  2  0
 21 22  1  0
M  END
>  <PUBCHEM_COMPOUND_CID>  (1) 
18760

>  <PUBCHEM_CONFORMER_RMSD>  (1) 
0.6

>  <PUBCHEM_CONFORMER_DIVERSEORDER>  (1) 
1

>  <PUBCHEM_MMFF94_PARTIAL_CHARGES>  (1) 
25
1 -0.57
10 -0.14
11 -0.15
13 -0.15
14 -0.15
15 -0.15
17 -0.15
18 0.14
19 -0.15
20 -0.15
21 -0.15
22 -0.15
25 0.15
26 0.15
27 0.15
28 0.15
29 0.15
3 0.09
33 0.15
34 0.15
35 0.15
36 0.15
4 -0.14
5 0.2
9 0.42

>  <PUBCHEM_EFFECTIVE_ROTOR_COUNT>  (1) 
0.2

>  <PUBCHEM_PHARMACOPHORE_FEATURES>  (1) 
6
1 1 acceptor
5 2 3 4 5 9 rings
6 12 16 19 20 21 22 rings
6 2 3 6 7 8 11 rings
6 2 4 7 10 13 15 rings
6 6 8 12 14 16 17 rings

>  <PUBCHEM_HEAVY_ATOM_COUNT>  (1) 
22

>  <PUBCHEM_ATOM_DEF_STEREO_COUNT>  (1) 
0

>  <PUBCHEM_ATOM_UDEF_STEREO_COUNT>  (1) 
0

>  <PUBCHEM_BOND_DEF_STEREO_COUNT>  (1) 
0

>  <PUBCHEM_BOND_UDEF_STEREO_COUNT>  (1) 
0

>  <PUBCHEM_ISOTOPIC_ATOM_COUNT>  (1) 
0

>  <PUBCHEM_COMPONENT_COUNT>  (1) 
1

>  <PUBCHEM_CACTVS_TAUTO_COUNT>  (1) 
2

>  <PUBCHEM_CONFORMER_ID>  (1) 
0000494800000001

>  <PUBCHEM_MMFF94_ENERGY>  (1) 
79.9905

>  <PUBCHEM_FEATURE_SELFOVERLAP>  (1) 
30.701

>  <PUBCHEM_SHAPE_FINGERPRINT>  (1) 
10319926 262 18196913523774942458
10411042 1 18194402419062843779
10493431 412 18054517902685721409
10616163 171 18411983559354126942
10693767 8 18057019510941025535
10967382 1 18338517555107708673
11578080 2 17531787105118327796
12107183 9 17686897216335487154
12236239 1 17749107789944920966
12403259 226 18412820304682403512
12553582 1 18337941368128703051
13140716 1 18339368564549889795
138480 1 15384154631863973541
13862211 1 18411980304201413719
14341114 176 18410298020765604242
14790565 3 17763751992095339873
14866123 147 17191798078298667218
15042514 8 18194117417991193130
15131766 46 14619360109623937442
15196674 1 18410573963956293444
15256400 18 18411982425424335634
15352361 1 18411136965185500278
15442244 35 18410011001255094362
15536298 74 18341612659197390586
16945 1 18338516339922133729
17492 89 18410293605777386858
17804303 29 18412829075063267324
1813 80 17385722512975124652
19141452 34 18272934968351668471
19591789 44 18265615373063085186
200 152 18059853986948758255
20028762 73 18201995560238326199
20510252 161 18343021047482411337
20775438 99 16689586719391648895
21236236 1 18341895147913159025
21267235 1 18410019844202710971
21279426 13 18265330616899951519
21792934 111 18412256251702700057
221490 88 18263931101769639338
2334 1 18194683893838327855
23366157 5 18041840748455265444
23402539 116 18343858940220914775
23557571 272 18201164265264823334
23559900 14 18339918337475367376
2748010 2 18267580385246813877
3004659 81 18260267435116916318
335352 9 18410855443444210677
34934 24 18268143343473782063
350125 39 18410577262575904145
3545911 37 18411419527226832174
4214541 1 18410573951071359072
474 4 17241336905611567540
5104073 3 18412543193692620568
559249 180 18262512568709029946
59755656 215 18409166580488405511
9709674 26 18341336613028187446

>  <PUBCHEM_SHAPE_MULTIPOLES>  (1) 
446.88
9.96
2.88
0.61
3.18
0.89
0
-3.38
-0.01
-1.01
0
0.01
-0.01
0

>  <PUBCHEM_SHAPE_SELFOVERLAP>  (1) 
1043.4

>  <PUBCHEM_SHAPE_VOLUME>  (1) 
230.6

>  <PUBCHEM_COORDINATE_TYPE>  (1) 
2
5
10

$$$$
