18778
     RDKit          3D

 20 21  0  0  1  0  0  0  0  0999 V2000
   -2.0040   -0.9235   -2.2979 Br  0  0  0  0  0  0  0  0  0  0  0  0
   -2.4457   -1.9887    0.1540 F   0  0  0  0  0  0  0  0  0  0  0  0
    1.7588   -0.0291   -1.0934 O   0  0  0  0  0  0  0  0  0  0  0  0
    4.1493    1.5461   -0.0086 O   0  0  0  0  0  0  0  0  0  0  0  0
   -0.6383   -0.6594    1.6003 O   0  0  0  0  0  0  0  0  0  0  0  0
   -0.7391    3.1096   -0.1643 O   0  0  0  0  0  0  0  0  0  0  0  0
   -4.1982    0.0975    0.1066 O   0  0  0  0  0  0  0  0  0  0  0  0
   -0.1875    0.8475   -0.1351 N   0  0  0  0  0  0  0  0  0  0  0  0
   -2.4227    1.5719    0.0801 N   0  0  0  0  0  0  0  0  0  0  0  0
    1.2158    1.0617   -0.3360 C   0  0  0  0  0  0  0  0  0  0  0  0
    1.9930    1.1391    0.9680 C   0  0  0  0  0  0  0  0  0  0  0  0
    2.9562   -0.5058   -0.4496 C   0  0  0  0  0  0  0  0  0  0  0  0
    3.3291    0.5438    0.5880 C   0  0  0  0  0  0  0  0  0  0  0  0
   -0.6255   -0.5080    0.1810 C   0  0  0  0  0  0  0  0  0  0  0  0
    2.6477   -1.8644    0.1662 C   0  0  0  0  0  0  0  0  0  0  0  0
   -2.0189   -0.7965   -0.3445 C   0  0  0  0  0  0  0  0  0  0  0  0
   -1.0759    1.9268   -0.0735 C   0  0  0  0  0  0  0  0  0  0  0  0
    2.3111   -2.8991   -0.8951 C   0  0  0  0  0  0  0  0  0  0  0  0
   -2.9928    0.3064   -0.0214 C   0  0  0  0  0  0  0  0  0  0  0  0
   -1.0123   -1.9758    1.9751 C   0  0  0  0  0  0  0  0  0  0  0  0
  1 16  1  0
  2 16  1  0
  3 10  1  0
  3 12  1  0
  4 13  1  0
  5 14  1  0
  5 20  1  0
  6 17  2  0
  7 19  2  0
  8 10  1  0
  8 14  1  0
  8 17  1  0
  9 17  1  0
  9 19  1  0
 10 11  1  0
 11 13  1  0
 12 13  1  0
 12 15  1  0
 14 16  1  0
 15 18  1  0
 16 19  1  0
M  END
>  <PUBCHEM_COMPOUND_CID>  (1) 
18778

>  <PUBCHEM_CONFORMER_RMSD>  (1) 
0.6

>  <PUBCHEM_CONFORMER_DIVERSEORDER>  (1) 
10
28
41
33
13
7
37
21
20
36
34
15
43
16
40
38
31
27
42
9
30
39
12
32
26
17
2
11
25
4
35
19
22
23
18
6
1
29
5
14
8
3
24

>  <PUBCHEM_MMFF94_PARTIAL_CHARGES>  (1) 
19
1 -0.23
10 0.58
12 0.28
13 0.28
14 0.58
16 0.63
17 0.69
19 0.57
2 -0.34
20 0.28
29 0.4
3 -0.56
33 0.37
4 -0.68
5 -0.56
6 -0.57
7 -0.57
8 -0.66
9 -0.49

>  <PUBCHEM_EFFECTIVE_ROTOR_COUNT>  (1) 
4.8

>  <PUBCHEM_PHARMACOPHORE_FEATURES>  (1) 
11
1 1 hydrophobe
1 18 hydrophobe
1 3 acceptor
1 4 acceptor
1 4 donor
1 5 acceptor
1 6 acceptor
1 7 acceptor
1 9 donor
5 3 10 11 12 13 rings
6 8 9 14 16 17 19 rings

>  <PUBCHEM_HEAVY_ATOM_COUNT>  (1) 
20

>  <PUBCHEM_ATOM_DEF_STEREO_COUNT>  (1) 
3

>  <PUBCHEM_ATOM_UDEF_STEREO_COUNT>  (1) 
2

>  <PUBCHEM_BOND_DEF_STEREO_COUNT>  (1) 
0

>  <PUBCHEM_BOND_UDEF_STEREO_COUNT>  (1) 
0

>  <PUBCHEM_ISOTOPIC_ATOM_COUNT>  (1) 
0

>  <PUBCHEM_COMPONENT_COUNT>  (1) 
1

>  <PUBCHEM_CACTVS_TAUTO_COUNT>  (1) 
3

>  <PUBCHEM_CONFORMER_ID>  (1) 
0000495A0000000A

>  <PUBCHEM_MMFF94_ENERGY>  (1) 
53.1861

>  <PUBCHEM_FEATURE_SELFOVERLAP>  (1) 
55.823

>  <PUBCHEM_SHAPE_FINGERPRINT>  (1) 
10906281 52 18262249926847602320
10922523 26 18268426832768854380
10967382 1 18411699889437735132
11578080 2 16987123142246799025
13140716 1 18192151722701975320
13544592 271 18263640843468731456
14115302 16 17676777555804519932
14251745 187 18410851079662421018
15375358 24 18334856164439519112
15490181 7 17756136796040928668
15775835 57 17988925604216287886
15852999 172 17822832274039500670
16945 1 18412260618961811629
18186145 218 17822854165223901999
19049666 15 18267586806117432864
19930381 70 18339360756342245103
20510252 161 18338234869135538777
20905425 154 16607168984875749172
21501502 16 18341890741165930496
21524375 3 17762341305949906093
22344851 262 18130504257632210621
22802520 49 18410301280503357498
23402539 116 18262222404944810072
23419403 2 14073503043476986553
23557571 272 17896898727424221930
23558518 356 18262803934726456272
23559900 14 18410852127961793664
2748010 2 17903638823643594032
34934 24 18341323457506170149
69090 78 18201714033837123053
7364860 26 18271526399546055318
81228 2 18334867081977951384
8809292 202 18334017194218099394
9709674 26 18338520746590539798

>  <PUBCHEM_SHAPE_MULTIPOLES>  (1) 
370.95
5.83
2.72
1.47
1.31
0.03
0.06
-0.06
0.4
0.68
0.09
-0.68
0.91
0.33

>  <PUBCHEM_SHAPE_SELFOVERLAP>  (1) 
760.409

>  <PUBCHEM_SHAPE_VOLUME>  (1) 
218.7

>  <PUBCHEM_COORDINATE_TYPE>  (1) 
2
5
10

$$$$
