18783
     RDKit          3D

 18 17  0  0  0  0  0  0  0  0999 V2000
   -4.1031   -1.6768    0.6391 O   0  0  0  0  0  0  0  0  0  0  0  0
   -5.3736    0.1363   -0.0523 N   0  0  0  0  0  0  0  0  0  0  0  0
    2.2188    0.3535    0.0337 C   0  0  0  0  0  0  0  0  0  0  0  0
    3.5237   -0.4304    0.2067 C   0  0  0  0  0  0  0  0  0  0  0  0
    0.9675   -0.5053    0.2332 C   0  0  0  0  0  0  0  0  0  0  0  0
    4.7745    0.4087   -0.0647 C   0  0  0  0  0  0  0  0  0  0  0  0
   -0.3379    0.2632    0.0019 C   0  0  0  0  0  0  0  0  0  0  0  0
    6.0448   -0.4370    0.0499 C   0  0  0  0  0  0  0  0  0  0  0  0
   -1.6267   -0.5382    0.2083 C   0  0  0  0  0  0  0  0  0  0  0  0
    7.2980    0.4069   -0.1894 C   0  0  0  0  0  0  0  0  0  0  0  0
   -2.8957    0.2600   -0.0977 C   0  0  0  0  0  0  0  0  0  0  0  0
    8.5685   -0.4300   -0.0416 C   0  0  0  0  0  0  0  0  0  0  0  0
   -4.1669   -0.5250    0.2013 C   0  0  0  0  0  0  0  0  0  0  0  0
   -5.4245    1.4981   -0.5698 C   0  0  0  0  0  0  0  0  0  0  0  0
   -6.6735   -0.4881    0.1825 C   0  0  0  0  0  0  0  0  0  0  0  0
    9.8173    0.4128   -0.2459 C   0  0  0  0  0  0  0  0  0  0  0  0
   -5.4464    2.5171    0.5506 C   0  0  0  0  0  0  0  0  0  0  0  0
   -7.1646   -1.2259   -1.0458 C   0  0  0  0  0  0  0  0  0  0  0  0
  1 13  2  0
  2 13  1  0
  2 14  1  0
  2 15  1  0
  3  4  1  0
  3  5  1  0
  4  6  1  0
  5  7  1  0
  6  8  1  0
  7  9  1  0
  8 10  1  0
  9 11  1  0
 10 12  1  0
 11 13  1  0
 12 16  1  0
 14 17  1  0
 15 18  1  0
M  END
>  <PUBCHEM_COMPOUND_CID>  (1) 
18783

>  <PUBCHEM_CONFORMER_RMSD>  (1) 
1.4

>  <PUBCHEM_CONFORMER_DIVERSEORDER>  (1) 
1
47
4
28
6
25
27
43
40
15
46
29
34
12
21
44
33
31
38
5
10
2
16
20
24
42
3
37
9
36
17
7
13
14
8
45
30
35
41
39
18
32
11
23
26
19
22

>  <PUBCHEM_MMFF94_PARTIAL_CHARGES>  (1) 
6
1 -0.57
11 0.06
13 0.57
14 0.3
15 0.3
2 -0.66

>  <PUBCHEM_EFFECTIVE_ROTOR_COUNT>  (1) 
13

>  <PUBCHEM_PHARMACOPHORE_FEATURES>  (1) 
2
1 1 acceptor
1 16 hydrophobe

>  <PUBCHEM_HEAVY_ATOM_COUNT>  (1) 
18

>  <PUBCHEM_ATOM_DEF_STEREO_COUNT>  (1) 
0

>  <PUBCHEM_ATOM_UDEF_STEREO_COUNT>  (1) 
0

>  <PUBCHEM_BOND_DEF_STEREO_COUNT>  (1) 
0

>  <PUBCHEM_BOND_UDEF_STEREO_COUNT>  (1) 
0

>  <PUBCHEM_ISOTOPIC_ATOM_COUNT>  (1) 
0

>  <PUBCHEM_COMPONENT_COUNT>  (1) 
1

>  <PUBCHEM_CACTVS_TAUTO_COUNT>  (1) 
1

>  <PUBCHEM_CONFORMER_ID>  (1) 
0000495F00000001

>  <PUBCHEM_MMFF94_ENERGY>  (1) 
7.4216

>  <PUBCHEM_FEATURE_SELFOVERLAP>  (1) 
10.148

>  <PUBCHEM_SHAPE_FINGERPRINT>  (1) 
10066227 49 17845661335789779014
11315181 36 17967816059442833097
12091667 2 18412545414333156011
13533116 47 16298655115601720000
13885169 127 18410856542845087744
14123256 10 16272210786673643326
14251764 18 18113052723440405274
14251764 46 17894630361557496739
14428016 248 17531256067584142852
14729087 3 18410572864619011856
15183329 4 17967247594171207192
15716309 27 11600005452976510872
17093844 174 18260831501112916913
18006028 8 16773798095860930024
21150785 3 18272651259522160110
21315763 28 18412544327405938108
22224240 67 15863789513461686442
23521765 1 18342176674687829594
246663 6 15554732183582403870
33684 2 18186800288145849522
4325135 7 17749107799141523734
444735 82 18336829805904798140
5758199 1 17458345239236952770
59567204 34 18341332184964949753
67123 10 18413388757216262086
8209 1 18334012800788289262

>  <PUBCHEM_SHAPE_MULTIPOLES>  (1) 
359.58
30.24
1.44
0.74
50.22
0.71
-0.05
0.98
-3.81
-3.61
0.1
-0.61
-0.04
-0.5

>  <PUBCHEM_SHAPE_SELFOVERLAP>  (1) 
654.786

>  <PUBCHEM_SHAPE_VOLUME>  (1) 
229.7

>  <PUBCHEM_COORDINATE_TYPE>  (1) 
2
5
10

$$$$
