1878
     RDKit          3D

 27 30  0  0  1  0  0  0  0  0999 V2000
    2.1785   -1.2057    0.3076 O   0  0  0  0  0  0  0  0  0  0  0  0
   -2.5748   -1.7733    0.0236 O   0  0  0  0  0  0  0  0  0  0  0  0
   -0.6851    2.6771    0.1484 O   0  0  0  0  0  0  0  0  0  0  0  0
   -3.2086    2.2579   -0.1319 O   0  0  0  0  0  0  0  0  0  0  0  0
    0.1677    4.7962    0.1983 O   0  0  0  0  0  0  0  0  0  0  0  0
    2.3655   -2.5958    0.0049 C   0  0  0  0  0  0  0  0  0  0  0  0
    1.2730   -3.4431    0.6579 C   0  0  0  0  0  0  0  0  0  0  0  0
   -0.2288   -1.5004    0.1895 C   0  0  0  0  0  0  0  0  0  0  0  0
   -0.1029   -3.0032    0.1905 C   0  0  0  0  0  0  0  0  0  0  0  0
    0.9151   -0.6744    0.2429 C   0  0  0  0  0  0  0  0  0  0  0  0
   -1.5041   -0.9152    0.1079 C   0  0  0  0  0  0  0  0  0  0  0  0
   -1.6446    0.4732    0.0786 C   0  0  0  0  0  0  0  0  0  0  0  0
   -4.1483    0.0626   -0.2579 C   0  0  0  0  0  0  0  0  0  0  0  0
    0.8004    0.7366    0.2544 C   0  0  0  0  0  0  0  0  0  0  0  0
   -3.7888   -1.2035    0.5221 C   0  0  0  0  0  0  0  0  0  0  0  0
   -0.4952    1.2752    0.1652 C   0  0  0  0  0  0  0  0  0  0  0  0
   -3.0104    1.0486   -0.0866 C   0  0  0  0  0  0  0  0  0  0  0  0
    3.7227   -2.9782    0.6132 C   0  0  0  0  0  0  0  0  0  0  0  0
    2.4463   -2.7783   -1.5178 C   0  0  0  0  0  0  0  0  0  0  0  0
    1.9350    1.6922    0.3381 C   0  0  0  0  0  0  0  0  0  0  0  0
   -4.3962   -0.1494   -1.7499 C   0  0  0  0  0  0  0  0  0  0  0  0
   -4.8670   -2.2788    0.4402 C   0  0  0  0  0  0  0  0  0  0  0  0
    3.3605    1.2277    0.4482 C   0  0  0  0  0  0  0  0  0  0  0  0
    1.6958    3.0119    0.3192 C   0  0  0  0  0  0  0  0  0  0  0  0
    0.3517    3.5851    0.2182 C   0  0  0  0  0  0  0  0  0  0  0  0
    3.9970    1.0511   -0.9243 C   0  0  0  0  0  0  0  0  0  0  0  0
    5.4455    0.6041   -0.8006 C   0  0  0  0  0  0  0  0  0  0  0  0
  1  6  1  0
  1 10  1  0
  2 11  1  0
  2 15  1  0
  3 16  1  0
  3 25  1  0
  4 17  2  0
  5 25  2  0
  6  7  1  0
  6 18  1  0
  6 19  1  0
  7  9  1  0
  8  9  1  0
  8 10  2  0
  8 11  1  0
 10 14  1  0
 11 12  2  0
 12 16  1  0
 12 17  1  0
 13 15  1  0
 13 17  1  0
 13 21  1  0
 14 16  2  0
 14 20  1  0
 15 22  1  0
 20 23  1  0
 20 24  2  0
 23 26  1  0
 24 25  1  0
 26 27  1  0
M  END
>  <PUBCHEM_COMPOUND_CID>  (1) 
1878

>  <PUBCHEM_CONFORMER_RMSD>  (1) 
0.8

>  <PUBCHEM_CONFORMER_DIVERSEORDER>  (1) 
1
3
4
2
5
6

>  <PUBCHEM_MMFF94_PARTIAL_CHARGES>  (1) 
21
1 -0.36
10 0.08
11 0.08
12 0.09
13 0.06
14 0.03
15 0.28
16 0.08
17 0.42
2 -0.36
20 -0.17
23 0.14
24 -0.14
25 0.71
3 -0.23
4 -0.57
48 0.15
5 -0.57
6 0.28
8 -0.14
9 0.14

>  <PUBCHEM_EFFECTIVE_ROTOR_COUNT>  (1) 
3.4

>  <PUBCHEM_PHARMACOPHORE_FEATURES>  (1) 
10
1 1 acceptor
1 2 acceptor
1 27 hydrophobe
1 4 acceptor
1 5 acceptor
3 6 18 19 hydrophobe
6 1 6 7 8 9 10 rings
6 2 11 12 13 15 17 rings
6 3 14 16 20 24 25 rings
6 8 10 11 12 14 16 rings

>  <PUBCHEM_HEAVY_ATOM_COUNT>  (1) 
27

>  <PUBCHEM_ATOM_DEF_STEREO_COUNT>  (1) 
0

>  <PUBCHEM_ATOM_UDEF_STEREO_COUNT>  (1) 
2

>  <PUBCHEM_BOND_DEF_STEREO_COUNT>  (1) 
0

>  <PUBCHEM_BOND_UDEF_STEREO_COUNT>  (1) 
0

>  <PUBCHEM_ISOTOPIC_ATOM_COUNT>  (1) 
0

>  <PUBCHEM_COMPONENT_COUNT>  (1) 
1

>  <PUBCHEM_CACTVS_TAUTO_COUNT>  (1) 
2

>  <PUBCHEM_CONFORMER_ID>  (1) 
0000075600000001

>  <PUBCHEM_MMFF94_ENERGY>  (1) 
89.685

>  <PUBCHEM_FEATURE_SELFOVERLAP>  (1) 
50.825

>  <PUBCHEM_SHAPE_FINGERPRINT>  (1) 
10319926 262 17330807164773174186
10411042 1 18338797814846876611
10693767 8 18131059446279503238
10967382 1 18410853274021469802
1100329 8 18050569835328393026
11578080 2 17314214584240338678
11963148 33 18045778146481237411
12035758 1 18196093472240649192
12553582 1 18340199782096753728
12788726 201 17689987939220637235
13140716 1 18337953364014396675
138480 1 18410570673889934673
14790565 3 18265626548689932304
15927050 60 17476082805270921380
16945 1 18194393613935963537
19591789 44 17905611356204483139
19930381 70 18410009978942049827
20028762 73 17912644901864840119
20642791 35 18051703139547837684
20691752 17 17313109605145522282
20905425 154 18270407066659928804
21197605 99 17545331134548289955
221490 88 18408887317478043307
23184049 29 18123469380305547942
2334 1 18410855460223198451
23558518 356 18046634395634539744
23559900 14 18123460588697962514
23566358 2 18339645538326995358
238 59 17977344482853882839
266924 87 18337954476685583588
2748010 2 18410849941353766339
283562 15 18341059540831026000
3178227 256 18120390992524014451
3298306 158 18336824302906109630
335352 9 18267025144574968845
350125 39 17904207275365387713
352729 6 17978226389641781569
3886686 26 10799295894560004260
59755656 215 18263361559284563879
6138700 20 18411987966612785590
7364860 26 18411979169691614211
9709674 26 18124875655614865127

>  <PUBCHEM_SHAPE_MULTIPOLES>  (1) 
526.3
8.3
5.06
0.95
2.4
1.91
0.36
-2.14
1.93
-2.57
-0.69
0.01
-0.31
0.28

>  <PUBCHEM_SHAPE_SELFOVERLAP>  (1) 
1145.336

>  <PUBCHEM_SHAPE_VOLUME>  (1) 
287.3

>  <PUBCHEM_COORDINATE_TYPE>  (1) 
2
5
10

$$$$
