18800
     RDKit          3D

 20 22  0  0  0  0  0  0  0  0999 V2000
   -1.4316    0.9470    1.0964 S   0  0  0  0  0  0  0  0  0  0  0  0
    4.2233    1.6405   -0.4525 N   0  0  0  0  0  0  0  0  0  0  0  0
    3.7987   -4.1327    0.3950 N   0  0  0  0  0  0  0  0  0  0  0  0
    2.4177    0.3813   -0.0900 C   0  0  0  0  0  0  0  0  0  0  0  0
    3.4913   -0.4544   -0.5071 C   0  0  0  0  0  0  0  0  0  0  0  0
    2.9035    1.6902   -0.0639 C   0  0  0  0  0  0  0  0  0  0  0  0
    3.4475   -1.9202   -0.6808 C   0  0  0  0  0  0  0  0  0  0  0  0
    4.5875    0.3486   -0.7227 C   0  0  0  0  0  0  0  0  0  0  0  0
    1.0751    0.1489    0.2690 C   0  0  0  0  0  0  0  0  0  0  0  0
    2.1107    2.7829    0.3049 C   0  0  0  0  0  0  0  0  0  0  0  0
    0.2703    1.2321    0.6401 C   0  0  0  0  0  0  0  0  0  0  0  0
    3.8213   -2.6884    0.6002 C   0  0  0  0  0  0  0  0  0  0  0  0
    0.7821    2.5281    0.6570 C   0  0  0  0  0  0  0  0  0  0  0  0
   -2.0980    0.2049   -0.4195 C   0  0  0  0  0  0  0  0  0  0  0  0
   -3.5567   -0.1370   -0.2902 C   0  0  0  0  0  0  0  0  0  0  0  0
   -4.5148    0.8056   -0.6398 C   0  0  0  0  0  0  0  0  0  0  0  0
   -3.9279   -1.3908    0.1775 C   0  0  0  0  0  0  0  0  0  0  0  0
   -5.8679    0.4887   -0.5198 C   0  0  0  0  0  0  0  0  0  0  0  0
   -5.2811   -1.7076    0.2975 C   0  0  0  0  0  0  0  0  0  0  0  0
   -6.2511   -0.7678   -0.0512 C   0  0  0  0  0  0  0  0  0  0  0  0
  1 11  1  0
  1 14  1  0
  2  6  1  0
  2  8  1  0
  3 12  1  0
  4  5  1  0
  4  6  2  0
  4  9  1  0
  5  7  1  0
  5  8  2  0
  6 10  1  0
  7 12  1  0
  9 11  2  0
 10 13  2  0
 11 13  1  0
 14 15  1  0
 15 16  2  0
 15 17  1  0
 16 18  1  0
 17 19  2  0
 18 20  2  0
 19 20  1  0
M  END
>  <PUBCHEM_COMPOUND_CID>  (1) 
18800

>  <PUBCHEM_CONFORMER_RMSD>  (1) 
0.8

>  <PUBCHEM_CONFORMER_DIVERSEORDER>  (1) 
1
24
28
21
40
25
3
37
9
14
36
31
42
17
18
23
15
10
13
4
2
41
16
29
32
38
19
8
11
22
30
26
7
34
6
12
27
35
5
20
33
39

>  <PUBCHEM_MMFF94_PARTIAL_CHARGES>  (1) 
31
1 -0.33
10 -0.15
11 0.1
12 0.27
13 -0.15
14 0.37
15 -0.14
16 -0.15
17 -0.15
18 -0.15
19 -0.15
2 0.03
20 -0.15
23 0.15
24 0.27
25 0.15
26 0.15
29 0.15
3 -0.99
32 0.36
33 0.36
34 0.15
35 0.15
36 0.15
37 0.15
38 0.15
5 -0.18
6 -0.15
7 0.18
8 -0.3
9 -0.15

>  <PUBCHEM_EFFECTIVE_ROTOR_COUNT>  (1) 
5

>  <PUBCHEM_PHARMACOPHORE_FEATURES>  (1) 
7
1 2 cation
1 2 donor
1 3 cation
1 3 donor
5 2 4 5 6 8 rings
6 15 16 17 18 19 20 rings
6 4 6 9 10 11 13 rings

>  <PUBCHEM_HEAVY_ATOM_COUNT>  (1) 
20

>  <PUBCHEM_ATOM_DEF_STEREO_COUNT>  (1) 
0

>  <PUBCHEM_ATOM_UDEF_STEREO_COUNT>  (1) 
0

>  <PUBCHEM_BOND_DEF_STEREO_COUNT>  (1) 
0

>  <PUBCHEM_BOND_UDEF_STEREO_COUNT>  (1) 
0

>  <PUBCHEM_ISOTOPIC_ATOM_COUNT>  (1) 
0

>  <PUBCHEM_COMPONENT_COUNT>  (1) 
1

>  <PUBCHEM_CACTVS_TAUTO_COUNT>  (1) 
1

>  <PUBCHEM_CONFORMER_ID>  (1) 
0000497000000001

>  <PUBCHEM_MMFF94_ENERGY>  (1) 
35.0504

>  <PUBCHEM_FEATURE_SELFOVERLAP>  (1) 
35.614

>  <PUBCHEM_SHAPE_FINGERPRINT>  (1) 
10670039 82 13262672570113971878
11719270 70 18409726301295897856
11796584 16 17775010115348101213
12107183 9 18053672369659035665
12617007 42 17095527326545416924
12730499 353 18264213667493956880
12788726 201 17560531637502769281
13073987 5 18342740711157519185
13533116 47 18411981360515247339
13540713 5 18123768465323892824
13955234 65 18199464535699102265
13968360 50 18260553355600809476
14251757 17 18261398892120921771
14341114 176 18340775935460378317
14576447 43 18413395324021011932
14866123 147 17908706133866315585
15183329 4 18272937090355507025
15342816 4 18271537394625371100
15537594 2 18131353054612255471
17349148 13 16845577534805305125
17492 89 18196653986963918070
17844677 252 18340212981275637429
19427546 62 17978791543230716208
200 152 17846503660000523417
20369508 70 17988923400792979264
20567600 247 18271239521416323975
20567600 70 18335696105788421394
20645477 70 18343025501315803518
21033650 10 16516247301853166437
21065198 57 18339360876959375813
21267235 1 18202294601941636484
21279426 13 18336262319947901975
21285901 2 17749104474515012228
21315764 119 17895192161118942887
21478907 32 18267304218559966088
221357 26 18411415138087202085
2215653 11 18412537731005948477
23557571 272 17676480670865291189
23559900 14 18339358686014689929
23622692 118 18195530290633364754
239999 70 18059865008156768996
25222932 49 18200030797177816975
2871803 45 18412832391089340708
3004659 81 18261111838108163398
3014965 18 18411412891908444575
33824 294 18341332279680186808
3421961 26 18413102849311101616
345986 75 17703792487821652737
351380 3 17632581569329505981
3680242 22 18341900628160021243
4073 2 18261959677679532475
4214541 1 18412263956847960077
444735 86 18121205735273767219
46194498 28 17895195562058418957
465052 167 17988933296254828053
4990 188 18187079585579623857
5104073 3 18131352973345584689
5281201 14 18261392282361516037
54040823 5 18343868827103624628
556388 4 18410294666681242642
59682541 52 18336816542559491359
6433294 58 18409450305880708194
77779 3 18338797931301090605
7970288 3 18122342368124612314
88748 71 18337675191746502859
960060 61 18186527600408404700
9841814 1 16702014305307588456

>  <PUBCHEM_SHAPE_MULTIPOLES>  (1) 
405.48
13.87
3.27
0.89
17.13
2.35
0.06
6.21
-2.4
-5.28
0.78
-0.06
-0.05
-0.09

>  <PUBCHEM_SHAPE_SELFOVERLAP>  (1) 
861.718

>  <PUBCHEM_SHAPE_VOLUME>  (1) 
228.5

>  <PUBCHEM_COORDINATE_TYPE>  (1) 
2
5
10

$$$$
