18813
     RDKit          3D

 20 21  0  0  0  0  0  0  0  0999 V2000
    2.1827   -2.0115   -1.2803 O   0  0  0  0  0  0  0  0  0  0  0  0
    3.5142   -2.3692    0.6962 O   0  0  0  0  0  0  0  0  0  0  0  0
   -2.7860    0.5771   -1.2873 O   0  0  0  0  0  0  0  0  0  0  0  0
   -4.8291   -1.6711    1.6908 O   0  0  0  0  0  0  0  0  0  0  0  0
   -4.7623   -1.2819   -0.5546 O   0  0  0  0  0  0  0  0  0  0  0  0
    1.7218    2.8217   -0.3828 C   0  0  0  0  0  0  0  0  0  0  0  0
    2.2223    1.4349   -0.0612 C   0  0  0  0  0  0  0  0  0  0  0  0
    0.3507    3.1435    0.2244 C   0  0  0  0  0  0  0  0  0  0  0  0
    2.3848   -0.8631   -0.5784 C   0  0  0  0  0  0  0  0  0  0  0  0
    1.9048    0.3861   -0.9142 C   0  0  0  0  0  0  0  0  0  0  0  0
    3.1451   -1.0675    0.5503 C   0  0  0  0  0  0  0  0  0  0  0  0
    2.9935    1.2415    1.0885 C   0  0  0  0  0  0  0  0  0  0  0  0
    3.4672   -0.0338    1.4055 C   0  0  0  0  0  0  0  0  0  0  0  0
    2.9015   -2.9613   -0.4672 C   0  0  0  0  0  0  0  0  0  0  0  0
   -0.7424    2.2430   -0.2845 C   0  0  0  0  0  0  0  0  0  0  0  0
   -1.4909    1.4630    0.5120 C   0  0  0  0  0  0  0  0  0  0  0  0
   -2.5599    0.5804    0.0739 C   0  0  0  0  0  0  0  0  0  0  0  0
   -3.2516   -0.1622    0.9571 C   0  0  0  0  0  0  0  0  0  0  0  0
   -2.0192   -0.3911   -1.9612 C   0  0  0  0  0  0  0  0  0  0  0  0
   -4.3470   -1.0784    0.5731 C   0  0  0  0  0  0  0  0  0  0  0  0
  1  9  1  0
  1 14  1  0
  2 11  1  0
  2 14  1  0
  3 17  1  0
  3 19  1  0
  4 20  1  0
  5 20  2  0
  6  7  1  0
  6  8  1  0
  7 10  1  0
  7 12  2  0
  8 15  1  0
  9 10  2  0
  9 11  1  0
 11 13  2  0
 12 13  1  0
 15 16  2  0
 16 17  1  0
 17 18  2  0
 18 20  1  0
M  END
>  <PUBCHEM_COMPOUND_CID>  (1) 
18813

>  <PUBCHEM_CONFORMER_RMSD>  (1) 
0.8

>  <PUBCHEM_CONFORMER_DIVERSEORDER>  (1) 
1
35
63
50
28
71
5
40
30
59
64
42
54
62
21
27
8
20
32
61
31
38
52
24
51
13
3
10
23
25
29
57
39
14
58
18
11
7
60
45
6
9
48
44
46
67
16
49
26
17
4
43
12
36
69
33
37
15
34
66
19
2
70
22
65
55
47
68
56
53
41

>  <PUBCHEM_MMFF94_PARTIAL_CHARGES>  (1) 
27
1 -0.36
10 -0.15
11 0.08
12 -0.15
13 -0.15
14 0.56
15 -0.29
16 -0.15
17 0.08
18 -0.14
19 0.28
2 -0.36
20 0.71
25 0.15
26 0.15
27 0.15
3 -0.36
30 0.15
31 0.15
32 0.15
36 0.5
4 -0.65
5 -0.57
6 0.14
7 -0.14
8 0.14
9 0.08

>  <PUBCHEM_EFFECTIVE_ROTOR_COUNT>  (1) 
6.6

>  <PUBCHEM_PHARMACOPHORE_FEATURES>  (1) 
8
1 1 acceptor
1 2 acceptor
1 3 acceptor
1 4 acceptor
1 5 acceptor
3 4 5 20 anion
5 1 2 9 11 14 rings
6 7 9 10 11 12 13 rings

>  <PUBCHEM_HEAVY_ATOM_COUNT>  (1) 
20

>  <PUBCHEM_ATOM_DEF_STEREO_COUNT>  (1) 
0

>  <PUBCHEM_ATOM_UDEF_STEREO_COUNT>  (1) 
0

>  <PUBCHEM_BOND_DEF_STEREO_COUNT>  (1) 
0

>  <PUBCHEM_BOND_UDEF_STEREO_COUNT>  (1) 
2

>  <PUBCHEM_ISOTOPIC_ATOM_COUNT>  (1) 
0

>  <PUBCHEM_COMPONENT_COUNT>  (1) 
1

>  <PUBCHEM_CACTVS_TAUTO_COUNT>  (1) 
1

>  <PUBCHEM_CONFORMER_ID>  (1) 
0000497D00000001

>  <PUBCHEM_MMFF94_ENERGY>  (1) 
49.9088

>  <PUBCHEM_FEATURE_SELFOVERLAP>  (1) 
40.814

>  <PUBCHEM_SHAPE_FINGERPRINT>  (1) 
10764073 3 11892724169707794108
114674 6 18334017223898197266
11595378 159 16271940324093261443
12363563 72 18261394407916198624
12400797 245 18342454824906432676
12553582 1 18342455975709787188
12596599 1 18270413667702877219
12596602 18 16773235231553672883
128993 33 9439109996685487764
13140716 1 17909823576549983536
13464513 79 18271251603232946868
13533116 47 18268999842432481923
14251705 54 18410576162705151464
14251757 5 16541322544845889479
14341114 328 16414622904052234208
14848160 33 18334852844387497289
14863182 85 18337116782169514956
15375462 189 18060136595617844377
15422964 175 18409729551721432197
15635459 17 18261679275996149073
19930381 70 18410013217490452515
20291156 8 18339646641880414884
20645477 70 18190455146506632457
21864079 5 9511166435192570889
2255824 54 18122629623863254045
392239 28 17273102874448194496
6433294 58 18119254106270787091
6669772 16 18050300451386968716
7808743 9 10878833607760960954

>  <PUBCHEM_SHAPE_MULTIPOLES>  (1) 
382.24
8.67
3.35
1.42
8.74
0.54
0.14
-6.22
-2.64
-2.38
0.16
0.55
-0.41
0.75

>  <PUBCHEM_SHAPE_SELFOVERLAP>  (1) 
806.279

>  <PUBCHEM_SHAPE_VOLUME>  (1) 
213.7

>  <PUBCHEM_COORDINATE_TYPE>  (1) 
2
5
10

$$$$
