18814
     RDKit          3D

  8  8  0  0  1  0  0  0  0  0999 V2000
   -1.7598    1.1431   -0.8718 N   0  0  0  0  0  0  0  0  0  0  0  0
    2.5670    0.5890   -0.0105 N   0  0  0  0  0  0  0  0  0  0  0  0
   -1.2410    0.6883    0.4206 C   0  0  0  0  0  0  0  0  0  0  0  0
    1.1756    0.2461   -0.3041 C   0  0  0  0  0  0  0  0  0  0  0  0
    0.2390    1.0663    0.5946 C   0  0  0  0  0  0  0  0  0  0  0  0
   -1.4385   -0.8256    0.5765 C   0  0  0  0  0  0  0  0  0  0  0  0
    0.9595   -1.2570   -0.0987 C   0  0  0  0  0  0  0  0  0  0  0  0
   -0.5018   -1.6503   -0.3066 C   0  0  0  0  0  0  0  0  0  0  0  0
  1  3  1  0
  2  4  1  0
  3  5  1  0
  3  6  1  0
  4  5  1  0
  4  7  1  0
  6  8  1  0
  7  8  1  0
M  END
>  <PUBCHEM_COMPOUND_CID>  (1) 
18814

>  <PUBCHEM_CONFORMER_RMSD>  (1) 
0.4

>  <PUBCHEM_CONFORMER_DIVERSEORDER>  (1) 
2
1
5
4
3
6

>  <PUBCHEM_MMFF94_PARTIAL_CHARGES>  (1) 
8
1 -0.99
19 0.36
2 -0.99
20 0.36
21 0.36
22 0.36
3 0.27
4 0.27

>  <PUBCHEM_EFFECTIVE_ROTOR_COUNT>  (1) 
1.2

>  <PUBCHEM_PHARMACOPHORE_FEATURES>  (1) 
5
1 1 cation
1 1 donor
1 2 cation
1 2 donor
6 3 4 5 6 7 8 rings

>  <PUBCHEM_HEAVY_ATOM_COUNT>  (1) 
8

>  <PUBCHEM_ATOM_DEF_STEREO_COUNT>  (1) 
0

>  <PUBCHEM_ATOM_UDEF_STEREO_COUNT>  (1) 
2

>  <PUBCHEM_BOND_DEF_STEREO_COUNT>  (1) 
0

>  <PUBCHEM_BOND_UDEF_STEREO_COUNT>  (1) 
0

>  <PUBCHEM_ISOTOPIC_ATOM_COUNT>  (1) 
0

>  <PUBCHEM_COMPONENT_COUNT>  (1) 
1

>  <PUBCHEM_CACTVS_TAUTO_COUNT>  (1) 
1

>  <PUBCHEM_CONFORMER_ID>  (1) 
0000497E00000002

>  <PUBCHEM_MMFF94_ENERGY>  (1) 
-5.2771

>  <PUBCHEM_FEATURE_SELFOVERLAP>  (1) 
25.371

>  <PUBCHEM_SHAPE_FINGERPRINT>  (1) 
12423570 1 8471433609714712969
16714656 1 18194976350824861802
18185500 45 17115794869076932118
21040471 1 18411703149344267032
23235685 24 18342179933798036545
23552423 10 18334868246462311958
241688 4 16394653156934965435
24536 1 18128258878493868050
29004967 10 18271258186853186040
5084963 1 18115890558245355370

>  <PUBCHEM_SHAPE_MULTIPOLES>  (1) 
154.67
2.4
1.65
0.81
0.98
0.44
0.03
-0.54
0.13
-0.27
0.09
-0.23
-0.11
0.22

>  <PUBCHEM_SHAPE_SELFOVERLAP>  (1) 
295.857

>  <PUBCHEM_SHAPE_VOLUME>  (1) 
94.4

>  <PUBCHEM_COORDINATE_TYPE>  (1) 
2
5
10

$$$$
