18820
     RDKit          3D

 13 14  0  0  1  0  0  0  0  0999 V2000
   -0.6810    2.7484    0.1386 Cl  0  0  0  0  0  0  0  0  0  0  0  0
   -0.6786   -2.7489    0.1386 Cl  0  0  0  0  0  0  0  0  0  0  0  0
   -2.7802   -0.0011    0.2826 Cl  0  0  0  0  0  0  0  0  0  0  0  0
   -0.7242   -0.0004    2.3035 Cl  0  0  0  0  0  0  0  0  0  0  0  0
    2.5070    1.7265    0.2236 Cl  0  0  0  0  0  0  0  0  0  0  0  0
    2.5085   -1.7245    0.2236 Cl  0  0  0  0  0  0  0  0  0  0  0  0
   -0.2301    1.1172   -0.2585 C   0  0  0  0  0  0  0  0  0  0  0  0
   -0.2291   -1.1175   -0.2586 C   0  0  0  0  0  0  0  0  0  0  0  0
   -0.9929   -0.0005    0.5196 C   0  0  0  0  0  0  0  0  0  0  0  0
    1.1991    0.6732    0.0283 C   0  0  0  0  0  0  0  0  0  0  0  0
    1.1997   -0.6720    0.0283 C   0  0  0  0  0  0  0  0  0  0  0  0
   -0.5494    0.6752   -1.6847 C   0  0  0  0  0  0  0  0  0  0  0  0
   -0.5487   -0.6756   -1.6848 C   0  0  0  0  0  0  0  0  0  0  0  0
  1  7  1  0
  2  8  1  0
  3  9  1  0
  4  9  1  0
  5 10  1  0
  6 11  1  0
  7  9  1  0
  7 10  1  0
  7 12  1  0
  8  9  1  0
  8 11  1  0
  8 13  1  0
 10 11  2  0
 12 13  2  0
M  END
>  <PUBCHEM_COMPOUND_CID>  (1) 
18820

>  <PUBCHEM_CONFORMER_RMSD>  (1) 
0.4

>  <PUBCHEM_CONFORMER_DIVERSEORDER>  (1) 
1

>  <PUBCHEM_MMFF94_PARTIAL_CHARGES>  (1) 
13
1 -0.29
12 -0.29
13 -0.29
14 0.15
15 0.15
2 -0.29
3 -0.29
4 -0.29
5 -0.14
6 -0.14
7 0.57
8 0.57
9 0.58

>  <PUBCHEM_EFFECTIVE_ROTOR_COUNT>  (1) 
0.2

>  <PUBCHEM_PHARMACOPHORE_FEATURES>  (1) 
1
7 7 8 9 10 11 12 13 rings

>  <PUBCHEM_HEAVY_ATOM_COUNT>  (1) 
13

>  <PUBCHEM_ATOM_DEF_STEREO_COUNT>  (1) 
0

>  <PUBCHEM_ATOM_UDEF_STEREO_COUNT>  (1) 
2

>  <PUBCHEM_BOND_DEF_STEREO_COUNT>  (1) 
0

>  <PUBCHEM_BOND_UDEF_STEREO_COUNT>  (1) 
0

>  <PUBCHEM_ISOTOPIC_ATOM_COUNT>  (1) 
0

>  <PUBCHEM_COMPONENT_COUNT>  (1) 
1

>  <PUBCHEM_CACTVS_TAUTO_COUNT>  (1) 
1

>  <PUBCHEM_CONFORMER_ID>  (1) 
0000498400000001

>  <PUBCHEM_MMFF94_ENERGY>  (1) 
68.745

>  <PUBCHEM_FEATURE_SELFOVERLAP>  (1) 
5.074

>  <PUBCHEM_SHAPE_FINGERPRINT>  (1) 
12423570 1 11252853468552653443
13024252 1 15143175154014660764
137420 1 15232409958430091604
15557651 10 17461690030401353469
16945 1 18410856555365927790
22344851 12 11034474641138616031
22344851 262 17972320886914041347
23419403 2 17750504088260766423
2748010 2 18264199227909074172
369184 2 18047454897496709792
5084963 1 17845095064887003738
528886 8 18123455344210155800
54276843 12 17559952108801615466
68250623 7 17258490046665185159

>  <PUBCHEM_SHAPE_MULTIPOLES>  (1) 
278.75
2.72
2.65
1.53
0.87
0
0.24
0
0.46
0.37
0.08
-0.56
0
0

>  <PUBCHEM_SHAPE_SELFOVERLAP>  (1) 
555.791

>  <PUBCHEM_SHAPE_VOLUME>  (1) 
170.5

>  <PUBCHEM_COORDINATE_TYPE>  (1) 
2
5
10

$$$$
