18826
     RDKit          3D

 18 18  0  0  0  0  0  0  0  0999 V2000
    1.5132    1.9197    0.0986 O   0  0  0  0  0  0  0  0  0  0  0  0
   -2.9496   -0.2486   -0.5064 O   0  0  0  0  0  0  0  0  0  0  0  0
   -2.5922   -0.7326    1.7258 O   0  0  0  0  0  0  0  0  0  0  0  0
    2.7523   -2.5168    0.2327 C   0  0  0  0  0  0  0  0  0  0  0  0
    3.0850   -1.0529    0.5416 C   0  0  0  0  0  0  0  0  0  0  0  0
    1.4747   -2.7472   -0.5809 C   0  0  0  0  0  0  0  0  0  0  0  0
    3.2572   -0.2021   -0.7179 C   0  0  0  0  0  0  0  0  0  0  0  0
    0.1980   -2.3197    0.1485 C   0  0  0  0  0  0  0  0  0  0  0  0
    3.7600    1.2172   -0.4373 C   0  0  0  0  0  0  0  0  0  0  0  0
   -1.0387   -2.5796   -0.7182 C   0  0  0  0  0  0  0  0  0  0  0  0
    2.8758    2.0431    0.4933 C   0  0  0  0  0  0  0  0  0  0  0  0
   -1.1704    2.1707   -0.8753 C   0  0  0  0  0  0  0  0  0  0  0  0
   -2.3431   -2.4529    0.0597 C   0  0  0  0  0  0  0  0  0  0  0  0
   -0.7840    2.4899    0.5718 C   0  0  0  0  0  0  0  0  0  0  0  0
   -2.6852    2.0935   -1.0953 C   0  0  0  0  0  0  0  0  0  0  0  0
    0.6813    2.8888    0.7265 C   0  0  0  0  0  0  0  0  0  0  0  0
   -3.4092    1.0823   -0.2118 C   0  0  0  0  0  0  0  0  0  0  0  0
   -2.6252   -1.0529    0.5447 C   0  0  0  0  0  0  0  0  0  0  0  0
  1 11  1  0
  1 16  1  0
  2 17  1  0
  2 18  1  0
  3 18  2  0
  4  5  1  0
  4  6  1  0
  5  7  1  0
  6  8  1  0
  7  9  1  0
  8 10  1  0
  9 11  1  0
 10 13  1  0
 12 14  1  0
 12 15  1  0
 13 18  1  0
 14 16  1  0
 15 17  1  0
M  END
>  <PUBCHEM_COMPOUND_CID>  (1) 
18826

>  <PUBCHEM_CONFORMER_RMSD>  (1) 
0.6

>  <PUBCHEM_CONFORMER_DIVERSEORDER>  (1) 
1
81
50
95
88
61
96
72
100
103
45
62
43
89
65
58
63
94
59
78
40
97
68
18
67
92
25
85
64
99
13
66
29
19
101
37
32
75
74
46
8
102
80
17
69
86
9
55
35
93
30
23
54
5
28
91
6
16
49
98
83
90
38
60
26
87
79
71
77
70
76
84
36
12
11
51
3
42
44
31
82
52
33
56
22
47
53
73
21
57
7
27
24
10
39
20
14
34
2
15
4
41
48

>  <PUBCHEM_MMFF94_PARTIAL_CHARGES>  (1) 
8
1 -0.56
11 0.28
13 0.06
16 0.28
17 0.28
18 0.66
2 -0.43
3 -0.57

>  <PUBCHEM_EFFECTIVE_ROTOR_COUNT>  (1) 
3.2

>  <PUBCHEM_PHARMACOPHORE_FEATURES>  (1) 
2
1 1 acceptor
1 3 acceptor

>  <PUBCHEM_HEAVY_ATOM_COUNT>  (1) 
18

>  <PUBCHEM_ATOM_DEF_STEREO_COUNT>  (1) 
0

>  <PUBCHEM_ATOM_UDEF_STEREO_COUNT>  (1) 
0

>  <PUBCHEM_BOND_DEF_STEREO_COUNT>  (1) 
0

>  <PUBCHEM_BOND_UDEF_STEREO_COUNT>  (1) 
0

>  <PUBCHEM_ISOTOPIC_ATOM_COUNT>  (1) 
0

>  <PUBCHEM_COMPONENT_COUNT>  (1) 
1

>  <PUBCHEM_CACTVS_TAUTO_COUNT>  (1) 
1

>  <PUBCHEM_CONFORMER_ID>  (1) 
0000498A00000001

>  <PUBCHEM_MMFF94_ENERGY>  (1) 
15.339

>  <PUBCHEM_FEATURE_SELFOVERLAP>  (1) 
10.149

>  <PUBCHEM_SHAPE_FINGERPRINT>  (1) 
10616163 171 18336265725350851116
10708813 3 18127144184204219179
10759866 29 18113344098543554014
107951 10 17458060435555332897
11615756 56 18122905322113875543
12038231 1 17546442740217252222
12539773 59 16767305264423358121
12553582 1 17980769242425992952
12596599 1 17703242800606097158
12838863 1 17833235681057473871
13122387 1 16969983662977421894
13402501 40 18410293639788140613
1420 336 17402614047829367994
14251705 54 18409451379669192936
14251740 79 17905652987791859324
14251745 187 17909544300738680536
14251757 5 17977124662470530652
14617045 38 18336839648898344877
14765038 42 17911829030104009008
15635459 17 18413108355258890388
19930381 70 18268143154938397775
20621476 7 18266190602517780123
20905425 154 18410295843127651134
238 59 18124282073895952565
3014063 31 18267294529319208527
3524813 1 18268996564586412160
539174 4 18055945257556084811
59345606 82 18339358668665625718

>  <PUBCHEM_SHAPE_MULTIPOLES>  (1) 
352.82
6.42
4.55
1.05
1.38
0.26
-0.11
-0.43
0.34
0.35
0.01
-0.41
-0.12
0.68

>  <PUBCHEM_SHAPE_SELFOVERLAP>  (1) 
667.188

>  <PUBCHEM_SHAPE_VOLUME>  (1) 
215.9

>  <PUBCHEM_COORDINATE_TYPE>  (1) 
2
5
10

$$$$
