18832
     RDKit          3D

 26 28  0  0  1  0  0  0  0  0999 V2000
    1.5364   -0.4584   -0.9709 O   0  0  0  0  0  0  0  0  0  0  0  0
    1.8993   -1.7951    0.8743 O   0  0  0  0  0  0  0  0  0  0  0  0
   -0.9442    1.1737   -0.4648 N   0  0  0  0  0  0  0  0  0  0  0  0
    2.0682    0.6655   -0.2628 C   0  0  0  0  0  0  0  0  0  0  0  0
    1.1746    0.9395    0.9698 C   0  0  0  0  0  0  0  0  0  0  0  0
    2.0760    1.8812   -1.2149 C   0  0  0  0  0  0  0  0  0  0  0  0
   -0.3375    0.7334    0.7939 C   0  0  0  0  0  0  0  0  0  0  0  0
    0.7516    2.2305   -1.8944 C   0  0  0  0  0  0  0  0  0  0  0  0
   -0.4414    2.4526   -0.9630 C   0  0  0  0  0  0  0  0  0  0  0  0
    3.5219    0.3828    0.1501 C   0  0  0  0  0  0  0  0  0  0  0  0
   -2.4027    1.1821   -0.3409 C   0  0  0  0  0  0  0  0  0  0  0  0
   -2.9197   -0.1757    0.1359 C   0  0  0  0  0  0  0  0  0  0  0  0
    4.0525    0.9969    1.2818 C   0  0  0  0  0  0  0  0  0  0  0  0
    4.3016   -0.4856   -0.6094 C   0  0  0  0  0  0  0  0  0  0  0  0
    1.5126   -1.6333   -0.2749 C   0  0  0  0  0  0  0  0  0  0  0  0
   -4.4235   -0.1875    0.2464 C   0  0  0  0  0  0  0  0  0  0  0  0
    5.3714    0.7405    1.6565 C   0  0  0  0  0  0  0  0  0  0  0  0
    5.6206   -0.7419   -0.2348 C   0  0  0  0  0  0  0  0  0  0  0  0
    0.9267   -2.7109   -1.1567 C   0  0  0  0  0  0  0  0  0  0  0  0
    6.1555   -0.1288    0.8982 C   0  0  0  0  0  0  0  0  0  0  0  0
   -5.0213    0.1786    1.4429 C   0  0  0  0  0  0  0  0  0  0  0  0
   -5.1841   -0.5644   -0.8502 C   0  0  0  0  0  0  0  0  0  0  0  0
    0.8826   -4.0591   -0.4591 C   0  0  0  0  0  0  0  0  0  0  0  0
   -6.4123    0.1678    1.5452 C   0  0  0  0  0  0  0  0  0  0  0  0
   -6.5753   -0.5753   -0.7478 C   0  0  0  0  0  0  0  0  0  0  0  0
   -7.1894   -0.2092    0.4498 C   0  0  0  0  0  0  0  0  0  0  0  0
  1  4  1  0
  1 15  1  0
  2 15  2  0
  3  7  1  0
  3  9  1  0
  3 11  1  0
  4  5  1  0
  4  6  1  0
  4 10  1  0
  5  7  1  0
  6  8  1  0
  8  9  1  0
 10 13  2  0
 10 14  1  0
 11 12  1  0
 12 16  1  0
 13 17  1  0
 14 18  2  0
 15 19  1  0
 16 21  2  0
 16 22  1  0
 17 20  2  0
 18 20  1  0
 19 23  1  0
 21 24  1  0
 22 25  2  0
 24 26  2  0
 25 26  1  0
M  END
>  <PUBCHEM_COMPOUND_CID>  (1) 
18832

>  <PUBCHEM_CONFORMER_RMSD>  (1) 
1

>  <PUBCHEM_CONFORMER_DIVERSEORDER>  (1) 
1
81
93
35
79
61
72
92
118
115
6
138
23
68
103
101
83
9
96
134
56
136
142
73
44
116
102
108
137
80
100
32
120
112
132
58
33
21
104
97
113
131
124
125
37
88
47
43
70
99
139
4
46
90
71
98
121
53
117
7
15
122
128
77
49
89
2
67
123
39
62
111
86
133
30
110
36
107
74
25
82
60
141
130
94
105
87
129
109
78
10
38
50
57
13
135
41
59
11
40
65
106
45
34
24
127
114
119
8
16
26
95
19
3
42
51
31
76
14
48
27
52
17
84
85
63
64
54
20
75
126
66
29
28
140
12
18
69
55
5
22
91

>  <PUBCHEM_MMFF94_PARTIAL_CHARGES>  (1) 
32
1 -0.43
10 -0.14
11 0.27
12 0.14
13 -0.15
14 -0.15
15 0.66
16 -0.14
17 -0.15
18 -0.15
19 0.06
2 -0.57
20 -0.15
21 -0.15
22 -0.15
24 -0.15
25 -0.15
26 -0.15
3 -0.81
4 0.42
41 0.15
42 0.15
43 0.15
44 0.15
47 0.15
48 0.15
49 0.15
53 0.15
54 0.15
55 0.15
7 0.27
9 0.27

>  <PUBCHEM_EFFECTIVE_ROTOR_COUNT>  (1) 
8.4

>  <PUBCHEM_PHARMACOPHORE_FEATURES>  (1) 
6
1 2 acceptor
1 23 hydrophobe
1 3 cation
6 10 13 14 17 18 20 rings
6 16 21 22 24 25 26 rings
7 3 4 5 6 7 8 9 rings

>  <PUBCHEM_HEAVY_ATOM_COUNT>  (1) 
26

>  <PUBCHEM_ATOM_DEF_STEREO_COUNT>  (1) 
0

>  <PUBCHEM_ATOM_UDEF_STEREO_COUNT>  (1) 
1

>  <PUBCHEM_BOND_DEF_STEREO_COUNT>  (1) 
0

>  <PUBCHEM_BOND_UDEF_STEREO_COUNT>  (1) 
0

>  <PUBCHEM_ISOTOPIC_ATOM_COUNT>  (1) 
0

>  <PUBCHEM_COMPONENT_COUNT>  (1) 
1

>  <PUBCHEM_CACTVS_TAUTO_COUNT>  (1) 
1

>  <PUBCHEM_CONFORMER_ID>  (1) 
0000499000000001

>  <PUBCHEM_MMFF94_ENERGY>  (1) 
73.7265

>  <PUBCHEM_FEATURE_SELFOVERLAP>  (1) 
30.446

>  <PUBCHEM_SHAPE_FINGERPRINT>  (1) 
10076449 9 18341339899569322734
10165383 225 18271806857174738216
10906281 52 17969523574566684349
11421498 54 16415203325642705514
11646440 116 18335146401297447425
11719270 70 18409729564769909927
11796584 16 15647054867187991625
11963148 33 17967526891526679370
12035758 1 18341314657772289264
12236239 1 16702583830977219657
12293681 25 17751670695820694658
12516196 113 17989205958470544921
12596602 18 17060622200814338187
12633257 1 17895477028750883123
12778500 126 16916519042504041379
13464513 79 18408324384614294180
13836976 161 18409172133764853823
14117953 113 18407760326728272055
14178342 30 18264774246784270996
14840074 17 18410852178926252327
14849402 71 17631444738652567056
14863182 85 18336838519448534070
14910700 183 18337382829618112274
15183329 4 12973878204531521569
15849732 13 18113898286816432628
15927050 60 17760377986347074980
16728300 4 17461412773573456994
18222031 100 18113900463943326012
1979834 28 18410864247921627139
20028762 73 18272087218853229262
20511986 3 17846774084363536765
21267235 1 18040157305362630768
21304304 249 18186800262445026970
21315763 178 18131350800555998439
21315764 119 14273726340478609177
21521721 280 18343302608680305816
21623969 137 18335991921771365187
22079108 93 17775275089213577776
22224240 67 18201712977090519530
22956985 138 17827633652635577554
23559900 14 17095808844930839661
25222932 49 17603586378496112723
3004659 81 16950564397671558605
3737641 26 18200035010614314079
4340502 62 17989203750646019986
439807 62 16009041631052341873
463206 1 18341612681025979983
465052 167 17822013112154145344
5104073 3 18194960747124390560
563151 248 17703784829948172854
5758199 1 18060136565631753130
58260988 647 16700916903353157046
59755656 215 18114179705199309403
7495541 125 16877948273454641141
8863177 126 16661788737436808337

>  <PUBCHEM_SHAPE_MULTIPOLES>  (1) 
518.35
15.98
2.63
1.5
19.47
2.46
0.08
1.3
5.89
-1.76
-1.25
-0.14
-0.52
0.13

>  <PUBCHEM_SHAPE_SELFOVERLAP>  (1) 
1092.502

>  <PUBCHEM_SHAPE_VOLUME>  (1) 
287

>  <PUBCHEM_COORDINATE_TYPE>  (1) 
2
5
10

$$$$
