18844
     RDKit          3D

 12 12  0  0  0  0  0  0  0  0999 V2000
    1.9682   -2.2614   -0.1163 Cl  0  0  0  0  0  0  0  0  0  0  0  0
   -3.4066    0.9052    0.0891 Cl  0  0  0  0  0  0  0  0  0  0  0  0
   -0.6744    2.1140    0.1374 O   0  0  0  0  0  0  0  0  0  0  0  0
    1.8908    1.6452   -0.9967 O   0  0  0  0  0  0  0  0  0  0  0  0
    2.6448    0.6654    0.9106 O   0  0  0  0  0  0  0  0  0  0  0  0
    0.5138    0.0457    0.0171 C   0  0  0  0  0  0  0  0  0  0  0  0
   -0.6891    0.7504    0.0629 C   0  0  0  0  0  0  0  0  0  0  0  0
    0.5036   -1.3472   -0.0580 C   0  0  0  0  0  0  0  0  0  0  0  0
   -1.9021    0.0624    0.0335 C   0  0  0  0  0  0  0  0  0  0  0  0
   -0.7094   -2.0352   -0.0872 C   0  0  0  0  0  0  0  0  0  0  0  0
   -1.9122   -1.3303   -0.0416 C   0  0  0  0  0  0  0  0  0  0  0  0
    1.7725    0.7858    0.0493 C   0  0  0  0  0  0  0  0  0  0  0  0
  1  8  1  0
  2  9  1  0
  3  7  1  0
  4 12  1  0
  5 12  2  0
  6  7  2  0
  6  8  1  0
  6 12  1  0
  7  9  1  0
  8 10  2  0
  9 11  2  0
 10 11  1  0
M  END
>  <PUBCHEM_COMPOUND_CID>  (1) 
18844

>  <PUBCHEM_CONFORMER_RMSD>  (1) 
0.4

>  <PUBCHEM_CONFORMER_DIVERSEORDER>  (1) 
1
2

>  <PUBCHEM_MMFF94_PARTIAL_CHARGES>  (1) 
16
1 -0.18
10 -0.15
11 -0.15
12 0.63
13 0.15
14 0.15
15 0.45
16 0.5
2 -0.18
3 -0.53
4 -0.65
5 -0.57
6 0.09
7 0.08
8 0.18
9 0.18

>  <PUBCHEM_EFFECTIVE_ROTOR_COUNT>  (1) 
1

>  <PUBCHEM_PHARMACOPHORE_FEATURES>  (1) 
5
1 3 donor
1 4 acceptor
1 5 acceptor
3 4 5 12 anion
6 6 7 8 9 10 11 rings

>  <PUBCHEM_HEAVY_ATOM_COUNT>  (1) 
12

>  <PUBCHEM_ATOM_DEF_STEREO_COUNT>  (1) 
0

>  <PUBCHEM_ATOM_UDEF_STEREO_COUNT>  (1) 
0

>  <PUBCHEM_BOND_DEF_STEREO_COUNT>  (1) 
0

>  <PUBCHEM_BOND_UDEF_STEREO_COUNT>  (1) 
0

>  <PUBCHEM_ISOTOPIC_ATOM_COUNT>  (1) 
0

>  <PUBCHEM_COMPONENT_COUNT>  (1) 
1

>  <PUBCHEM_CACTVS_TAUTO_COUNT>  (1) 
4

>  <PUBCHEM_CONFORMER_ID>  (1) 
0000499C00000001

>  <PUBCHEM_MMFF94_ENERGY>  (1) 
32.7653

>  <PUBCHEM_FEATURE_SELFOVERLAP>  (1) 
25.429

>  <PUBCHEM_SHAPE_FINGERPRINT>  (1) 
11206711 2 18123467456371287359
11680986 33 18410577240753044610
12423570 1 10790875017905394179
12524768 44 18339358569939614479
13380535 21 18338532901300417267
13380535 220 17978519624122917060
13380535 76 18410848880539276011
161256 15 18266741272785012702
16945 1 18124033696111570271
193761 8 18411139142929585399
20511035 2 18341894069444065519
21040471 1 18340207491599979755
21501502 16 18412260640457987399
2334 1 18411702118837381311
23463225 33 18335133228384622474
23552423 10 18335423482153426638
23559900 14 18200887279125646764
241688 4 17831864542701441256
2748010 2 18411426107011559535
5084963 1 17914609462913121331
528862 383 18335134246212834835
528886 8 18411695508708184897
53812653 166 18201153351536769961
53812653 8 17902802095241810196
66348 1 17905888076335742947
7364860 26 18201155443117452822

>  <PUBCHEM_SHAPE_MULTIPOLES>  (1) 
233.09
3.84
2.41
0.72
1.59
0.44
-0.02
-0.6
0.24
-0.85
-0.19
-0.22
-0.14
-0.05

>  <PUBCHEM_SHAPE_SELFOVERLAP>  (1) 
477.569

>  <PUBCHEM_SHAPE_VOLUME>  (1) 
136.4

>  <PUBCHEM_COORDINATE_TYPE>  (1) 
2
5
10

$$$$
