18840
     RDKit          3D

  8  8  0  0  0  0  0  0  0  0999 V2000
    2.4065   -0.7147   -0.2273 O   0  0  0  0  0  0  0  0  0  0  0  0
    1.4819    1.0989    0.7984 O   0  0  0  0  0  0  0  0  0  0  0  0
    0.1217   -0.3197   -0.6111 C   0  0  0  0  0  0  0  0  0  0  0  0
   -0.7903    0.8723   -0.9109 C   0  0  0  0  0  0  0  0  0  0  0  0
   -0.6903   -1.2625    0.2859 C   0  0  0  0  0  0  0  0  0  0  0  0
   -1.8337    0.8446    0.1960 C   0  0  0  0  0  0  0  0  0  0  0  0
   -2.0780   -0.6399    0.3968 C   0  0  0  0  0  0  0  0  0  0  0  0
    1.3822    0.1211    0.0722 C   0  0  0  0  0  0  0  0  0  0  0  0
  1  8  1  0
  2  8  2  0
  3  4  1  0
  3  5  1  0
  3  8  1  0
  4  6  1  0
  5  7  1  0
  6  7  1  0
M  END
>  <PUBCHEM_COMPOUND_CID>  (1) 
18840

>  <PUBCHEM_CONFORMER_RMSD>  (1) 
0.4

>  <PUBCHEM_CONFORMER_DIVERSEORDER>  (1) 
1
2
3
4

>  <PUBCHEM_MMFF94_PARTIAL_CHARGES>  (1) 
5
1 -0.65
18 0.5
2 -0.57
3 0.06
8 0.66

>  <PUBCHEM_EFFECTIVE_ROTOR_COUNT>  (1) 
2

>  <PUBCHEM_PHARMACOPHORE_FEATURES>  (1) 
4
1 1 acceptor
1 2 acceptor
3 1 2 8 anion
5 3 4 5 6 7 rings

>  <PUBCHEM_HEAVY_ATOM_COUNT>  (1) 
8

>  <PUBCHEM_ATOM_DEF_STEREO_COUNT>  (1) 
0

>  <PUBCHEM_ATOM_UDEF_STEREO_COUNT>  (1) 
0

>  <PUBCHEM_BOND_DEF_STEREO_COUNT>  (1) 
0

>  <PUBCHEM_BOND_UDEF_STEREO_COUNT>  (1) 
0

>  <PUBCHEM_ISOTOPIC_ATOM_COUNT>  (1) 
0

>  <PUBCHEM_COMPONENT_COUNT>  (1) 
1

>  <PUBCHEM_CACTVS_TAUTO_COUNT>  (1) 
1

>  <PUBCHEM_CONFORMER_ID>  (1) 
0000499800000001

>  <PUBCHEM_MMFF94_ENERGY>  (1) 
8.3991

>  <PUBCHEM_FEATURE_SELFOVERLAP>  (1) 
20.353

>  <PUBCHEM_SHAPE_FINGERPRINT>  (1) 
10857977 72 18114743862191157857
137420 1 15004800322710124765
16714656 1 18040443161121347079
20096714 4 18060133236805316480
20645464 45 18342444950934595290
21040471 1 17970340421648686117
23552423 10 17894636958680205846
24536 1 18338501049638210364
29004967 10 17846504681949298254
369184 2 12679176089916440958
5084963 1 18335140877668512101

>  <PUBCHEM_SHAPE_MULTIPOLES>  (1) 
152.9
2.78
1.25
0.85
0.68
0.05
0.04
0.15
-0.35
-0.24
-0.05
0.02
-0.15
0.28

>  <PUBCHEM_SHAPE_SELFOVERLAP>  (1) 
303.534

>  <PUBCHEM_SHAPE_VOLUME>  (1) 
92.4

>  <PUBCHEM_COORDINATE_TYPE>  (1) 
2
5
10

$$$$
