18850
     RDKit          3D

  6  5  0  0  0  0  0  0  0  0999 V2000
   -1.0298    0.4106    0.6477 C   0  0  0  0  0  0  0  0  0  0  0  0
   -0.0265   -0.5838    0.1060 C   0  0  0  0  0  0  0  0  0  0  0  0
   -1.7642    1.1642   -0.4546 C   0  0  0  0  0  0  0  0  0  0  0  0
    1.3447   -0.1766   -0.1722 C   0  0  0  0  0  0  0  0  0  0  0  0
   -0.4070   -1.8483   -0.1478 C   0  0  0  0  0  0  0  0  0  0  0  0
    1.8828    1.0338    0.0208 C   0  0  0  0  0  0  0  0  0  0  0  0
  1  2  1  0
  1  3  1  0
  2  4  1  0
  2  5  2  0
  4  6  2  0
M  END
>  <PUBCHEM_COMPOUND_CID>  (1) 
18850

>  <PUBCHEM_CONFORMER_RMSD>  (1) 
0.4

>  <PUBCHEM_CONFORMER_DIVERSEORDER>  (1) 
2
6
1
4
3
5

>  <PUBCHEM_MMFF94_PARTIAL_CHARGES>  (1) 
10
1 0.14
12 0.15
13 0.15
14 0.15
15 0.15
16 0.15
2 -0.14
4 -0.15
5 -0.3
6 -0.3

>  <PUBCHEM_EFFECTIVE_ROTOR_COUNT>  (1) 
2

>  <PUBCHEM_PHARMACOPHORE_FEATURES>  (1) 
3
1 3 hydrophobe
1 5 hydrophobe
1 6 hydrophobe

>  <PUBCHEM_HEAVY_ATOM_COUNT>  (1) 
6

>  <PUBCHEM_ATOM_DEF_STEREO_COUNT>  (1) 
0

>  <PUBCHEM_ATOM_UDEF_STEREO_COUNT>  (1) 
0

>  <PUBCHEM_BOND_DEF_STEREO_COUNT>  (1) 
0

>  <PUBCHEM_BOND_UDEF_STEREO_COUNT>  (1) 
0

>  <PUBCHEM_ISOTOPIC_ATOM_COUNT>  (1) 
0

>  <PUBCHEM_COMPONENT_COUNT>  (1) 
1

>  <PUBCHEM_CACTVS_TAUTO_COUNT>  (1) 
1

>  <PUBCHEM_CONFORMER_ID>  (1) 
000049A200000002

>  <PUBCHEM_MMFF94_ENERGY>  (1) 
5.5801

>  <PUBCHEM_FEATURE_SELFOVERLAP>  (1) 
15.223

>  <PUBCHEM_SHAPE_FINGERPRINT>  (1) 
16714656 1 18195818589558708779
20096714 4 18409732820212396592
21040471 1 18410575080542314864
23552449 1 18123747827219740008
24536 1 17560816462648805392
29004967 10 17472984995499490675
5943 1 11050811979151568007

>  <PUBCHEM_SHAPE_MULTIPOLES>  (1) 
123.48
2.23
1.68
0.73
0.41
0.63
-0.03
-1.18
0.16
-0.32
0.16
-0.13
-0.06
0.11

>  <PUBCHEM_SHAPE_SELFOVERLAP>  (1) 
220.832

>  <PUBCHEM_SHAPE_VOLUME>  (1) 
81.4

>  <PUBCHEM_COORDINATE_TYPE>  (1) 
2
5
10

$$$$
