18858
     RDKit          3D

 26 29  0  0  1  0  0  0  0  0999 V2000
    5.1575   -0.4675   -0.2811 N   0  0  0  0  0  0  0  0  0  0  0  0
   -5.2219   -0.0313    0.3349 N   0  0  0  0  0  0  0  0  0  0  0  0
    2.7508    1.0987    0.4376 N   0  0  0  0  0  0  0  0  0  0  0  0
   -2.4787    0.6935   -0.5142 N   0  0  0  0  0  0  0  0  0  0  0  0
    3.9334   -0.3865   -1.2183 C   0  0  0  0  0  0  0  0  0  0  0  0
    4.6249   -0.4185    1.1670 C   0  0  0  0  0  0  0  0  0  0  0  0
   -3.9980   -0.2938    1.2384 C   0  0  0  0  0  0  0  0  0  0  0  0
   -4.7534   -0.2038   -1.1259 C   0  0  0  0  0  0  0  0  0  0  0  0
    3.1668    0.9304   -0.9580 C   0  0  0  0  0  0  0  0  0  0  0  0
    3.8477    0.8991    1.3896 C   0  0  0  0  0  0  0  0  0  0  0  0
   -2.8758    0.7133    0.8976 C   0  0  0  0  0  0  0  0  0  0  0  0
   -3.6197    0.8022   -1.4294 C   0  0  0  0  0  0  0  0  0  0  0  0
    3.0343   -1.6230   -1.0172 C   0  0  0  0  0  0  0  0  0  0  0  0
    3.7481   -1.6556    1.4473 C   0  0  0  0  0  0  0  0  0  0  0  0
   -3.5276   -1.7532    1.0759 C   0  0  0  0  0  0  0  0  0  0  0  0
   -4.3074   -1.6602   -1.3670 C   0  0  0  0  0  0  0  0  0  0  0  0
    2.6288   -1.8926    0.4324 C   0  0  0  0  0  0  0  0  0  0  0  0
   -3.2775   -2.1898   -0.3682 C   0  0  0  0  0  0  0  0  0  0  0  0
    5.9904   -1.7400   -0.5396 C   0  0  0  0  0  0  0  0  0  0  0  0
    6.1525    0.6810   -0.5543 C   0  0  0  0  0  0  0  0  0  0  0  0
   -5.8219    1.3686    0.5798 C   0  0  0  0  0  0  0  0  0  0  0  0
   -6.3848   -0.9899    0.6701 C   0  0  0  0  0  0  0  0  0  0  0  0
    2.0951    2.3867    0.6451 C   0  0  0  0  0  0  0  0  0  0  0  0
   -1.4703    1.7077   -0.7978 C   0  0  0  0  0  0  0  0  0  0  0  0
    0.8371    2.5440   -0.2118 C   0  0  0  0  0  0  0  0  0  0  0  0
   -0.2303    1.4808    0.0670 C   0  0  0  0  0  0  0  0  0  0  0  0
  1  5  1  0
  1  6  1  0
  1 19  1  0
  1 20  1  0
  2  7  1  0
  2  8  1  0
  2 21  1  0
  2 22  1  0
  3  9  1  0
  3 10  1  0
  3 23  1  0
  4 11  1  0
  4 12  1  0
  4 24  1  0
  5  9  1  0
  5 13  1  0
  6 10  1  0
  6 14  1  0
  7 11  1  0
  7 15  1  0
  8 12  1  0
  8 16  1  0
 13 17  1  0
 14 17  1  0
 15 18  1  0
 16 18  1  0
 23 25  1  0
 24 26  1  0
 25 26  1  0
M  CHG  2   1   1   2   1
M  END
>  <PUBCHEM_COMPOUND_CID>  (1) 
18858

>  <PUBCHEM_CONFORMER_RMSD>  (1) 
0.8

>  <PUBCHEM_CONFORMER_DIVERSEORDER>  (1) 
3
323
360
272
35
188
287
280
295
142
316
293
361
111
275
8
271
363
201
244
4
310
279
308
143
36
366
61
322
353
204
7
325
25
195
170
176
338
54
347
97
159
342
362
21
312
349
230
164
314
245
202
352
207
63
82
341
252
192
123
113
291
71
184
180
218
292
242
161
43
89
156
65
46
331
348
340
18
210
267
315
365
303
173
333
50
149
187
219
209
51
138
355
253
238
336
93
356
265
354
236
150
296
297
14
162
364
359
26
255
107
294
90
163
198
226
146
134
334
225
264
74
206
231
284
335
135
52
91
189
211
155
345
117
351
208
136
223
224
85
73
282
358
276
48
262
122
257
144
256
319
166
165
309
199
75
330
288
194
203
115
169
182
44
79
339
227
154
329
2
59
239
332
205
109
249
174
260
120
125
306
200
320
31
17
232
168
127
273
311
47
102
80
22
278
229
11
153
277
196
64
92
350
302
62
222
12
213
298
101
193
186
241
191
24
121
263
235
27
321
324
281
60
234
110
37
190
167
197
217
28
105
160
212
171
357
96
5
214
337
152
49
250
94
84
177
285
215
128
53
228
118
158
183
270
299
34
87
39
343
56
283
258
172
130
9
178
19
269
243
307
10
103
175
100
148
221
259
30
68
300
32
95
139
78
274
33
328
29
70
45
289
286
55
88
98
133
112
346
116
23
248
58
305
179
76
16
13
261
83
66
147
20
145
240
119
67
42
268
344
41
326
237
38
318
99
327
246
1
86
137
57
15
301
304
72
6
220
317
108
251
106
77
151
181
157
132
104
69
131
40
313
81
140
290
124
254
247
126
129
216
266
233
185
114
141

>  <PUBCHEM_MMFF94_PARTIAL_CHARGES>  (1) 
18
1 -1.01
10 0.27
11 0.27
12 0.27
19 0.5
2 -1.01
20 0.5
21 0.5
22 0.5
23 0.27
24 0.27
3 -0.81
4 -0.81
5 0.5
6 0.5
7 0.5
8 0.5
9 0.27

>  <PUBCHEM_EFFECTIVE_ROTOR_COUNT>  (1) 
7.8

>  <PUBCHEM_PHARMACOPHORE_FEATURES>  (1) 
8
1 1 cation
1 2 cation
1 3 cation
1 4 cation
6 1 3 5 6 9 10 rings
6 1 5 6 13 14 17 rings
6 2 4 7 8 11 12 rings
6 2 7 8 15 16 18 rings

>  <PUBCHEM_HEAVY_ATOM_COUNT>  (1) 
26

>  <PUBCHEM_ATOM_DEF_STEREO_COUNT>  (1) 
0

>  <PUBCHEM_ATOM_UDEF_STEREO_COUNT>  (1) 
4

>  <PUBCHEM_BOND_DEF_STEREO_COUNT>  (1) 
0

>  <PUBCHEM_BOND_UDEF_STEREO_COUNT>  (1) 
0

>  <PUBCHEM_ISOTOPIC_ATOM_COUNT>  (1) 
0

>  <PUBCHEM_COMPONENT_COUNT>  (1) 
1

>  <PUBCHEM_CACTVS_TAUTO_COUNT>  (1) 
1

>  <PUBCHEM_CONFORMER_ID>  (1) 
000049AA00000003

>  <PUBCHEM_MMFF94_ENERGY>  (1) 
81.3746

>  <PUBCHEM_FEATURE_SELFOVERLAP>  (1) 
43.87

>  <PUBCHEM_SHAPE_FINGERPRINT>  (1) 
10447042 23 18040712550809017074
10670039 82 9583247183921561274
10928967 22 18335421278766846466
11135609 149 13480506732062263744
12516196 113 18342176674192386264
12596602 18 16271637987843319139
12633257 1 18342740727930966071
12778500 126 14836135325209448726
13224815 77 18187365423884157626
13402501 40 18335706048041294018
13464513 79 18343301466577629320
13533116 47 18199749305601309921
13685833 64 18334581265390126097
13914758 101 18059850650640514293
14251751 18 18040150712603454268
14251764 30 17417544497423942254
14617045 38 18260832592098062867
14840074 17 18341895199247019159
15183329 4 18261391127268319473
15188451 53 16701725147172455373
15361156 5 18335143124158350621
15537594 2 18335422365461845178
15799311 1 18336844055571577421
15880784 105 17489583506341872603
17857418 61 18412824694275759725
1813 80 17603304873401824717
20403669 9 18408885135412545529
20775530 9 17825938222663415394
21521721 280 17846776356718072456
23522609 53 18194151609715166532
23559900 14 18336541719991912353
239999 70 18412546535646947164
3004659 81 17967817145621451836
314173 41 18408604777280767380
339767 52 18342737411963077150
341906 21 13254799066047020481
351380 3 18410012130425259316
3633792 109 18201430347712098605
3680242 22 18335139730960133003
3737641 26 17702112365820458166
404807 78 16951426470849326570
439807 62 17749107777365987539
46194498 28 17240769531230070852
463206 1 18334857263771928915
474 4 9943807793939269669
508706 21 18186513319943046559
559249 180 18342177748493171497
960060 61 17822294608331665220

>  <PUBCHEM_SHAPE_MULTIPOLES>  (1) 
515.14
16.6
2.52
1.43
2.2
0.15
-0.02
-4.91
-0.27
-0.45
-0.03
0.08
-0.23
0.09

>  <PUBCHEM_SHAPE_SELFOVERLAP>  (1) 
1042.686

>  <PUBCHEM_SHAPE_VOLUME>  (1) 
295

>  <PUBCHEM_COORDINATE_TYPE>  (1) 
2
5
10

$$$$
