18874
     RDKit          3D

 16 18  0  0  0  0  0  0  0  0999 V2000
    0.5637   -0.1245   -1.5672 S   0  0  0  0  0  0  0  0  0  0  0  0
   -1.8072    2.2050    0.0022 O   0  0  0  0  0  0  0  0  0  0  0  0
    0.5681   -0.1272    1.0119 N   0  0  0  0  0  0  0  0  0  0  0  0
   -0.2123   -0.1502   -0.0433 C   0  0  0  0  0  0  0  0  0  0  0  0
   -1.6549   -0.1946   -0.0027 C   0  0  0  0  0  0  0  0  0  0  0  0
    2.0948   -0.0770   -0.7758 C   0  0  0  0  0  0  0  0  0  0  0  0
    1.8946   -0.0844    0.6079 C   0  0  0  0  0  0  0  0  0  0  0  0
   -2.4072    0.9804    0.0189 C   0  0  0  0  0  0  0  0  0  0  0  0
    3.3806   -0.0357   -1.3389 C   0  0  0  0  0  0  0  0  0  0  0  0
    3.0230   -0.0487    1.4560 C   0  0  0  0  0  0  0  0  0  0  0  0
   -2.2973   -1.4330    0.0155 C   0  0  0  0  0  0  0  0  0  0  0  0
    4.4801   -0.0011   -0.4773 C   0  0  0  0  0  0  0  0  0  0  0  0
    4.3059   -0.0075    0.9022 C   0  0  0  0  0  0  0  0  0  0  0  0
   -3.8001    0.9168    0.0587 C   0  0  0  0  0  0  0  0  0  0  0  0
   -3.6902   -1.4965    0.0552 C   0  0  0  0  0  0  0  0  0  0  0  0
   -4.4416   -0.3217    0.0768 C   0  0  0  0  0  0  0  0  0  0  0  0
  1  4  1  0
  1  6  1  0
  2  8  1  0
  3  4  2  0
  3  7  1  0
  4  5  1  0
  5  8  2  0
  5 11  1  0
  6  7  2  0
  6  9  1  0
  7 10  1  0
  8 14  1  0
  9 12  2  0
 10 13  2  0
 11 15  2  0
 12 13  1  0
 14 16  2  0
 15 16  1  0
M  END
>  <PUBCHEM_COMPOUND_CID>  (1) 
18874

>  <PUBCHEM_CONFORMER_RMSD>  (1) 
0.6

>  <PUBCHEM_CONFORMER_DIVERSEORDER>  (1) 
1
3
2
4

>  <PUBCHEM_MMFF94_PARTIAL_CHARGES>  (1) 
25
1 -0.08
10 -0.15
11 -0.15
12 -0.15
13 -0.15
14 -0.15
15 -0.15
16 -0.15
17 0.15
18 0.15
19 0.15
2 -0.53
20 0.15
21 0.15
22 0.15
23 0.15
24 0.15
25 0.45
3 -0.57
4 0.33
5 0.05
6 0.04
7 0.23
8 0.08
9 -0.15

>  <PUBCHEM_EFFECTIVE_ROTOR_COUNT>  (1) 
1

>  <PUBCHEM_PHARMACOPHORE_FEATURES>  (1) 
5
1 2 donor
1 3 acceptor
5 1 3 4 6 7 rings
6 5 8 11 14 15 16 rings
6 6 7 9 10 12 13 rings

>  <PUBCHEM_HEAVY_ATOM_COUNT>  (1) 
16

>  <PUBCHEM_ATOM_DEF_STEREO_COUNT>  (1) 
0

>  <PUBCHEM_ATOM_UDEF_STEREO_COUNT>  (1) 
0

>  <PUBCHEM_BOND_DEF_STEREO_COUNT>  (1) 
0

>  <PUBCHEM_BOND_UDEF_STEREO_COUNT>  (1) 
0

>  <PUBCHEM_ISOTOPIC_ATOM_COUNT>  (1) 
0

>  <PUBCHEM_COMPONENT_COUNT>  (1) 
1

>  <PUBCHEM_CACTVS_TAUTO_COUNT>  (1) 
4

>  <PUBCHEM_CONFORMER_ID>  (1) 
000049BA00000001

>  <PUBCHEM_MMFF94_ENERGY>  (1) 
41.4953

>  <PUBCHEM_FEATURE_SELFOVERLAP>  (1) 
25.443

>  <PUBCHEM_SHAPE_FINGERPRINT>  (1) 
11132069 177 18272090500408137621
11471102 20 15841552977079084074
11615757 297 16732985331716837604
12236239 1 17675925400138931407
13296908 3 17632860819444572146
13581323 91 18408601457001625959
13583140 156 18127947785881529250
13760787 5 16081089277381710374
14289901 80 18410298003749220002
14386348 63 17704076200312878031
15219456 202 17489871522522048623
15309172 13 15864073169395676986
15375358 24 17561363976236641711
15653759 3 18131069341873024602
18175812 5 17775566467920577733
18186145 218 15719395031767358730
19026448 4 18131915953305500662
19026448 5 18040716969924267102
19049666 15 17702112360828943815
19422 9 17894629232171060626
200 152 16588020225579579495
20279233 1 17704074001321368535
204376 136 16200145538808802318
20645477 70 16271932562791906572
21065201 7 18413109433364389722
22094290 60 18412548708061330089
22646028 1 17675922105561463794
22854114 59 16917068875495471615
2297311 6 18342469144021214917
23048698 100 17022623074215012996
23175994 123 16988849388556140113
23402539 116 18412256242748625551
23402655 69 16298379162892693774
23557571 272 18201729418130707781
23559900 14 18271532987867664694
26918003 58 16630809910902672226
2838139 119 14835576717995453187
3268164 11 18340476807946541965
474 4 17024885994047616788
573450 72 18187639189436737763
602551 16 18342174530982775430
633830 44 14476973306218332956
69090 78 16702296875501128167
77492 1 17676209073954242375

>  <PUBCHEM_SHAPE_MULTIPOLES>  (1) 
322.27
9.02
1.23
1.22
0.82
0.24
-0.09
-0.28
0.84
-1.32
-0.1
1.05
-0.06
0.87

>  <PUBCHEM_SHAPE_SELFOVERLAP>  (1) 
706.613

>  <PUBCHEM_SHAPE_VOLUME>  (1) 
175

>  <PUBCHEM_COORDINATE_TYPE>  (1) 
2
5
10

$$$$
