18884
     RDKit          3D

 22 23  0  0  0  0  0  0  0  0999 V2000
    5.8738   -0.5045   -0.9251 O   0  0  0  0  0  0  0  0  0  0  0  0
    4.3004   -1.7824   -1.7678 O   0  0  0  0  0  0  0  0  0  0  0  0
   -2.0974   -0.2974   -0.4929 N   0  0  0  0  0  0  0  0  0  0  0  0
    0.7162    1.6009    1.9924 N   0  0  0  0  0  0  0  0  0  0  0  0
    4.6728   -0.8574   -1.0069 N   0  0  0  0  0  0  0  0  0  0  0  0
   -0.8908   -0.9841   -0.0247 C   0  0  0  0  0  0  0  0  0  0  0  0
   -2.9837   -1.2366   -1.1773 C   0  0  0  0  0  0  0  0  0  0  0  0
   -1.7412    0.8101   -1.3774 C   0  0  0  0  0  0  0  0  0  0  0  0
   -0.0029   -0.0263    0.6650 C   0  0  0  0  0  0  0  0  0  0  0  0
   -3.4273   -2.3413   -0.2200 C   0  0  0  0  0  0  0  0  0  0  0  0
   -2.9978    1.5471   -1.8375 C   0  0  0  0  0  0  0  0  0  0  0  0
    1.4048    0.0952    0.4972 C   0  0  0  0  0  0  0  0  0  0  0  0
   -4.1610   -1.7622    0.9902 C   0  0  0  0  0  0  0  0  0  0  0  0
   -3.7820    2.0988   -0.6464 C   0  0  0  0  0  0  0  0  0  0  0  0
    1.8310    1.1231    1.3410 C   0  0  0  0  0  0  0  0  0  0  0  0
   -0.3969    0.9123    1.5906 C   0  0  0  0  0  0  0  0  0  0  0  0
    2.3605   -0.5727   -0.2940 C   0  0  0  0  0  0  0  0  0  0  0  0
    3.1702    1.5181    1.4336 C   0  0  0  0  0  0  0  0  0  0  0  0
   -4.6371   -2.8582    1.9304 C   0  0  0  0  0  0  0  0  0  0  0  0
   -5.0157    2.8644   -1.0977 C   0  0  0  0  0  0  0  0  0  0  0  0
    3.7037   -0.1883   -0.2120 C   0  0  0  0  0  0  0  0  0  0  0  0
    4.1003    0.8412    0.6392 C   0  0  0  0  0  0  0  0  0  0  0  0
  1  5  1  0
  2  5  2  0
  3  6  1  0
  3  7  1  0
  3  8  1  0
  4 15  1  0
  4 16  1  0
  5 21  1  0
  6  9  1  0
  7 10  1  0
  8 11  1  0
  9 12  1  0
  9 16  2  0
 10 13  1  0
 11 14  1  0
 12 15  2  0
 12 17  1  0
 13 19  1  0
 14 20  1  0
 15 18  1  0
 17 21  2  0
 18 22  2  0
 21 22  1  0
M  CHG  2   1  -1   5   1
M  END
>  <PUBCHEM_COMPOUND_CID>  (1) 
18884

>  <PUBCHEM_CONFORMER_RMSD>  (1) 
0.8

>  <PUBCHEM_CONFORMER_DIVERSEORDER>  (1) 
3
36
24
8
11
61
63
21
33
59
42
51
53
50
43
62
22
1
64
25
17
14
49
32
15
41
54
7
23
55
57
19
20
65
18
44
5
9
29
52
35
2
30
39
47
27
37
46
34
60
40
48
58
38
13
28
4
45
10
26
31
12
16
56
6

>  <PUBCHEM_MMFF94_PARTIAL_CHARGES>  (1) 
20
1 -0.52
15 -0.15
16 -0.3
17 -0.15
18 -0.15
2 -0.52
21 0.13
22 -0.15
3 -0.81
37 0.15
38 0.27
39 0.15
4 0.03
40 0.15
47 0.15
5 0.91
6 0.45
7 0.27
8 0.27
9 -0.18

>  <PUBCHEM_EFFECTIVE_ROTOR_COUNT>  (1) 
9

>  <PUBCHEM_PHARMACOPHORE_FEATURES>  (1) 
10
1 1 acceptor
1 1 anion
1 19 hydrophobe
1 2 acceptor
1 20 hydrophobe
1 3 cation
1 4 cation
1 4 donor
5 4 9 12 15 16 rings
6 12 15 17 18 21 22 rings

>  <PUBCHEM_HEAVY_ATOM_COUNT>  (1) 
22

>  <PUBCHEM_ATOM_DEF_STEREO_COUNT>  (1) 
0

>  <PUBCHEM_ATOM_UDEF_STEREO_COUNT>  (1) 
0

>  <PUBCHEM_BOND_DEF_STEREO_COUNT>  (1) 
0

>  <PUBCHEM_BOND_UDEF_STEREO_COUNT>  (1) 
0

>  <PUBCHEM_ISOTOPIC_ATOM_COUNT>  (1) 
0

>  <PUBCHEM_COMPONENT_COUNT>  (1) 
1

>  <PUBCHEM_CACTVS_TAUTO_COUNT>  (1) 
1

>  <PUBCHEM_CONFORMER_ID>  (1) 
000049C400000003

>  <PUBCHEM_MMFF94_ENERGY>  (1) 
39.7803

>  <PUBCHEM_FEATURE_SELFOVERLAP>  (1) 
50.917

>  <PUBCHEM_SHAPE_FINGERPRINT>  (1) 
10165383 225 18191867825733026965
11370993 144 18059302058213929683
11796584 16 18262514776675940298
12422481 6 15768679493462483583
12553582 1 17203615878492720830
12623949 98 17556028222638874103
12714826 92 18410009957456930051
13135754 10 18186809097635463699
13673619 4 18267316485197566619
14251764 30 18189345739111209387
14341114 328 15864639328165149685
15475509 84 16271107967847522554
15806764 133 18342455980078704729
15842332 3 16443884099543612705
17349148 13 13973672966916701077
1813 80 18044941409794693911
18186145 218 18412818080094591816
20645477 70 17561071514944454908
20871999 31 18187364337336481710
21756936 100 16298393422521739604
21792961 116 18271534104870469446
21864079 5 14852435537725178006
22079108 93 15068919515768249724
221357 26 17559374904274362117
22182313 1 18272076245079607104
23557571 272 18336536209385068313
23559900 14 17917418823055479800
268830 7 15625939906138834722
4058900 60 17831861249295923273
4098825 35 18333739031025398196
46194498 28 18190748716285400452
4921388 177 18260541221695868317
5104073 3 18115566232628256120
5161694 15 18130493172010604245
5281201 14 18340764940022399252
56616090 163 18336543794740061245
6049 1 18270950371153480105
621550 5 18338243790035333041
6287921 2 18049435143465902525

>  <PUBCHEM_SHAPE_MULTIPOLES>  (1) 
426.07
11.27
2.8
1.9
4.96
0.01
-0.28
1.74
2.83
-5.99
-0.1
0.39
-0.01
3.59

>  <PUBCHEM_SHAPE_SELFOVERLAP>  (1) 
882.399

>  <PUBCHEM_SHAPE_VOLUME>  (1) 
246.7

>  <PUBCHEM_COORDINATE_TYPE>  (1) 
2
5
10

$$$$
