18898
     RDKit          3D

  9  9  0  0  0  0  0  0  0  0999 V2000
   -0.3921    1.4167    0.0001 O   0  0  0  0  0  0  0  0  0  0  0  0
   -0.8292   -2.0928    0.0000 O   0  0  0  0  0  0  0  0  0  0  0  0
    2.0371   -1.1771   -0.0003 O   0  0  0  0  0  0  0  0  0  0  0  0
    0.0826    0.1436    0.0004 C   0  0  0  0  0  0  0  0  0  0  0  0
   -0.9552   -0.7591    0.0004 C   0  0  0  0  0  0  0  0  0  0  0  0
    1.4951   -0.0358   -0.0001 C   0  0  0  0  0  0  0  0  0  0  0  0
   -2.1441    0.0087   -0.0001 C   0  0  0  0  0  0  0  0  0  0  0  0
   -1.7480    1.3259   -0.0004 C   0  0  0  0  0  0  0  0  0  0  0  0
    2.4539    1.1700    0.0001 C   0  0  0  0  0  0  0  0  0  0  0  0
  1  4  1  0
  1  8  1  0
  2  5  1  0
  3  6  2  0
  4  5  2  0
  4  6  1  0
  5  7  1  0
  6  9  1  0
  7  8  2  0
M  END
>  <PUBCHEM_COMPOUND_CID>  (1) 
18898

>  <PUBCHEM_CONFORMER_RMSD>  (1) 
0.4

>  <PUBCHEM_CONFORMER_DIVERSEORDER>  (1) 
1
3
2
4

>  <PUBCHEM_MMFF94_PARTIAL_CHARGES>  (1) 
12
1 -0.28
10 0.15
11 0.15
15 0.45
2 -0.51
3 -0.57
4 0.05
5 0.06
6 0.59
7 -0.15
8 -0.01
9 0.06

>  <PUBCHEM_EFFECTIVE_ROTOR_COUNT>  (1) 
1

>  <PUBCHEM_PHARMACOPHORE_FEATURES>  (1) 
4
1 1 acceptor
1 2 donor
1 3 acceptor
5 1 4 5 7 8 rings

>  <PUBCHEM_HEAVY_ATOM_COUNT>  (1) 
9

>  <PUBCHEM_ATOM_DEF_STEREO_COUNT>  (1) 
0

>  <PUBCHEM_ATOM_UDEF_STEREO_COUNT>  (1) 
0

>  <PUBCHEM_BOND_DEF_STEREO_COUNT>  (1) 
0

>  <PUBCHEM_BOND_UDEF_STEREO_COUNT>  (1) 
0

>  <PUBCHEM_ISOTOPIC_ATOM_COUNT>  (1) 
0

>  <PUBCHEM_COMPONENT_COUNT>  (1) 
1

>  <PUBCHEM_CACTVS_TAUTO_COUNT>  (1) 
5

>  <PUBCHEM_CONFORMER_ID>  (1) 
000049D200000001

>  <PUBCHEM_MMFF94_ENERGY>  (1) 
8.6286

>  <PUBCHEM_FEATURE_SELFOVERLAP>  (1) 
20.297

>  <PUBCHEM_SHAPE_FINGERPRINT>  (1) 
12897270 3 18339363101304042316
14325111 11 18410855426122130629
16945 1 18338517567992824933
18185500 45 18192150610178435590
21040471 1 18410856538217830528
23552423 10 18333170570101252854
2748010 2 18337392643127909237
29004967 10 18188497989548608361
369184 2 18411133636580668617
5084963 1 18058161730894481633

>  <PUBCHEM_SHAPE_MULTIPOLES>  (1) 
167.61
3.09
1.72
0.58
1.18
0.41
0
-0.55
0
-0.21
0
-0.01
-0.02
0

>  <PUBCHEM_SHAPE_SELFOVERLAP>  (1) 
348.892

>  <PUBCHEM_SHAPE_VOLUME>  (1) 
97.1

>  <PUBCHEM_COORDINATE_TYPE>  (1) 
2
5
10

$$$$
