18908
     RDKit          3D

 10 10  0  0  0  0  0  0  0  0999 V2000
    3.9080   -0.6430    0.7256 Cl  0  0  0  0  0  0  0  0  0  0  0  0
    2.4823    0.6842   -1.7768 Cl  0  0  0  0  0  0  0  0  0  0  0  0
    2.2708    0.6078    0.3107 P   0  0  0  0  0  0  0  0  0  0  0  0
    1.0723   -0.4814    0.4124 O   0  0  0  0  0  0  0  0  0  0  0  0
   -0.2582   -0.2573    0.2355 C   0  0  0  0  0  0  0  0  0  0  0  0
   -0.8038    0.9877    0.5488 C   0  0  0  0  0  0  0  0  0  0  0  0
   -1.0768   -1.2730   -0.2587 C   0  0  0  0  0  0  0  0  0  0  0  0
   -2.1677    1.2171    0.3681 C   0  0  0  0  0  0  0  0  0  0  0  0
   -2.4408   -1.0436   -0.4395 C   0  0  0  0  0  0  0  0  0  0  0  0
   -2.9862    0.2015   -0.1260 C   0  0  0  0  0  0  0  0  0  0  0  0
  1  3  1  0
  2  3  1  0
  3  4  1  0
  4  5  1  0
  5  6  2  0
  5  7  1  0
  6  8  1  0
  7  9  2  0
  8 10  2  0
  9 10  1  0
M  END
>  <PUBCHEM_COMPOUND_CID>  (1) 
18908

>  <PUBCHEM_CONFORMER_RMSD>  (1) 
0.4

>  <PUBCHEM_CONFORMER_DIVERSEORDER>  (1) 
1
6
8
4
3
7
5
2

>  <PUBCHEM_MMFF94_PARTIAL_CHARGES>  (1) 
15
1 -0.21
10 -0.15
11 0.15
12 0.15
13 0.15
14 0.15
15 0.15
2 -0.21
3 0.52
4 -0.18
5 0.08
6 -0.15
7 -0.15
8 -0.15
9 -0.15

>  <PUBCHEM_EFFECTIVE_ROTOR_COUNT>  (1) 
2

>  <PUBCHEM_PHARMACOPHORE_FEATURES>  (1) 
1
6 5 6 7 8 9 10 rings

>  <PUBCHEM_HEAVY_ATOM_COUNT>  (1) 
10

>  <PUBCHEM_ATOM_DEF_STEREO_COUNT>  (1) 
0

>  <PUBCHEM_ATOM_UDEF_STEREO_COUNT>  (1) 
0

>  <PUBCHEM_BOND_DEF_STEREO_COUNT>  (1) 
0

>  <PUBCHEM_BOND_UDEF_STEREO_COUNT>  (1) 
0

>  <PUBCHEM_ISOTOPIC_ATOM_COUNT>  (1) 
0

>  <PUBCHEM_COMPONENT_COUNT>  (1) 
1

>  <PUBCHEM_CACTVS_TAUTO_COUNT>  (1) 
1

>  <PUBCHEM_CONFORMER_ID>  (1) 
000049DC00000001

>  <PUBCHEM_MMFF94_ENERGY>  (1) 
22.9259

>  <PUBCHEM_FEATURE_SELFOVERLAP>  (1) 
5.074

>  <PUBCHEM_SHAPE_FINGERPRINT>  (1) 
12716758 59 17988374679939134751
12897270 3 18130794476877388861
12932764 1 18341059604658819200
13024252 1 15574711374826262985
14325111 11 18342170068532236960
15775835 57 18187654630050174596
16945 1 18272375282409380985
20201158 50 17060340725478781646
20279233 1 16774079570267785228
20645464 45 17418371393822366315
20645476 183 18115317798586981182
20653085 51 16877652470456202365
23402539 116 17774424019473309421
23552423 10 18336828580825742683
3248919 1 17821728377117883074
369184 2 18341326768762197673
5084963 1 17968087633934383400

>  <PUBCHEM_SHAPE_MULTIPOLES>  (1) 
207.52
5.75
1.3
1.12
3.34
0.03
0.51
0.39
-0.1
-0.39
0.02
0.95
-0.22
-0.81

>  <PUBCHEM_SHAPE_SELFOVERLAP>  (1) 
387.957

>  <PUBCHEM_SHAPE_VOLUME>  (1) 
133

>  <PUBCHEM_COORDINATE_TYPE>  (1) 
2
5
10

$$$$
