18901
     RDKit          3D

 27 30  0  0  0  0  0  0  0  0999 V2000
    0.6731   -1.5596   -1.9121 Si  0  0  0  0  0  4  0  0  0  0  0  0
    0.7922    1.5470   -1.8781 Si  0  0  0  0  0  4  0  0  0  0  0  0
   -1.9499    0.0940   -1.6806 Si  0  0  0  0  0  4  0  0  0  0  0  0
    1.3897   -0.0298   -2.0495 O   0  0  0  0  0  0  0  0  0  0  0  0
   -0.9987   -1.3038   -1.8043 O   0  0  0  0  0  0  0  0  0  0  0  0
   -0.8935    1.4174   -1.7617 O   0  0  0  0  0  0  0  0  0  0  0  0
    1.2211   -2.2611   -0.2556 C   0  0  0  0  0  0  0  0  0  0  0  0
    1.4045    2.1740   -0.2144 C   0  0  0  0  0  0  0  0  0  0  0  0
   -2.6679    0.0931    0.0570 C   0  0  0  0  0  0  0  0  0  0  0  0
    1.1355   -2.6947   -3.3036 C   0  0  0  0  0  0  0  0  0  0  0  0
    1.3302    2.6692   -3.2532 C   0  0  0  0  0  0  0  0  0  0  0  0
   -3.2478    0.1653   -3.0073 C   0  0  0  0  0  0  0  0  0  0  0  0
    2.4985   -1.9707    0.2886 C   0  0  0  0  0  0  0  0  0  0  0  0
    0.6333    3.0668    0.5732 C   0  0  0  0  0  0  0  0  0  0  0  0
   -4.0674    0.1428    0.2830 C   0  0  0  0  0  0  0  0  0  0  0  0
    0.3774   -3.1065    0.5098 C   0  0  0  0  0  0  0  0  0  0  0  0
    2.6600    1.7775    0.3137 C   0  0  0  0  0  0  0  0  0  0  0  0
   -1.8365    0.0429    1.2053 C   0  0  0  0  0  0  0  0  0  0  0  0
    2.9054   -2.4915    1.5168 C   0  0  0  0  0  0  0  0  0  0  0  0
    1.0875    3.5326    1.8071 C   0  0  0  0  0  0  0  0  0  0  0  0
   -4.6004    0.1428    1.5720 C   0  0  0  0  0  0  0  0  0  0  0  0
    0.7845   -3.6271    1.7382 C   0  0  0  0  0  0  0  0  0  0  0  0
    3.1141    2.2432    1.5478 C   0  0  0  0  0  0  0  0  0  0  0  0
   -2.3697    0.0428    2.4943 C   0  0  0  0  0  0  0  0  0  0  0  0
    2.0485   -3.3196    2.2417 C   0  0  0  0  0  0  0  0  0  0  0  0
    2.3277    3.1207    2.2944 C   0  0  0  0  0  0  0  0  0  0  0  0
   -3.7516    0.0927    2.6776 C   0  0  0  0  0  0  0  0  0  0  0  0
  1  4  1  0
  1  5  1  0
  1  7  1  0
  1 10  1  0
  2  4  1  0
  2  6  1  0
  2  8  1  0
  2 11  1  0
  3  5  1  0
  3  6  1  0
  3  9  1  0
  3 12  1  0
  7 13  2  0
  7 16  1  0
  8 14  2  0
  8 17  1  0
  9 15  2  0
  9 18  1  0
 13 19  1  0
 14 20  1  0
 15 21  1  0
 16 22  2  0
 17 23  2  0
 18 24  2  0
 19 25  2  0
 20 26  2  0
 21 27  2  0
 22 25  1  0
 23 26  1  0
 24 27  1  0
M  END
>  <PUBCHEM_COMPOUND_CID>  (1) 
18901

>  <PUBCHEM_CONFORMER_RMSD>  (1) 
0.8

>  <PUBCHEM_CONFORMER_DIVERSEORDER>  (1) 
1
2

>  <PUBCHEM_MMFF94_PARTIAL_CHARGES>  (1) 
42
1 0.9
10 -0.08
11 -0.08
12 -0.08
13 -0.15
14 -0.15
15 -0.15
16 -0.15
17 -0.15
18 -0.15
19 -0.15
2 0.9
20 -0.15
21 -0.15
22 -0.15
23 -0.15
24 -0.15
25 -0.15
26 -0.15
27 -0.15
3 0.9
37 0.15
38 0.15
39 0.15
4 -0.59
40 0.15
41 0.15
42 0.15
43 0.15
44 0.15
45 0.15
46 0.15
47 0.15
48 0.15
49 0.15
5 -0.59
50 0.15
51 0.15
6 -0.59
7 -0.22
8 -0.22
9 -0.22

>  <PUBCHEM_EFFECTIVE_ROTOR_COUNT>  (1) 
4.2

>  <PUBCHEM_PHARMACOPHORE_FEATURES>  (1) 
4
6 1 2 3 4 5 6 rings
6 7 13 16 19 22 25 rings
6 8 14 17 20 23 26 rings
6 9 15 18 21 24 27 rings

>  <PUBCHEM_HEAVY_ATOM_COUNT>  (1) 
27

>  <PUBCHEM_ATOM_DEF_STEREO_COUNT>  (1) 
0

>  <PUBCHEM_ATOM_UDEF_STEREO_COUNT>  (1) 
0

>  <PUBCHEM_BOND_DEF_STEREO_COUNT>  (1) 
0

>  <PUBCHEM_BOND_UDEF_STEREO_COUNT>  (1) 
0

>  <PUBCHEM_ISOTOPIC_ATOM_COUNT>  (1) 
0

>  <PUBCHEM_COMPONENT_COUNT>  (1) 
1

>  <PUBCHEM_CACTVS_TAUTO_COUNT>  (1) 
1

>  <PUBCHEM_CONFORMER_ID>  (1) 
000049D500000001

>  <PUBCHEM_MMFF94_ENERGY>  (1) 
50.2635

>  <PUBCHEM_FEATURE_SELFOVERLAP>  (1) 
20.3

>  <PUBCHEM_SHAPE_FINGERPRINT>  (1) 
11578080 2 17968662618813871501
12156800 1 17255713178467470648
12160290 23 17329990707909203501
12539773 59 17268302466605052850
12788726 201 17260730859989723224
133893 2 18409158926924892343
13583140 156 18342465872158416961
14955137 171 17987537947469860998
17974551 9 18045792178460451409
20600515 1 17467356616751314676
23419403 2 18043514050169674205
23559900 14 16588606248456440327
25222932 49 14657205050639032120
3380486 77 16600718193343241557
3493558 16 14691475849050560188
35225 105 17477222981311179488
394222 165 17984391248449508247
469060 322 17480252883112652451
57527306 92 17839783341488208452

>  <PUBCHEM_SHAPE_MULTIPOLES>  (1) 
592.68
5.54
4.83
4.01
6.11
0.67
-1.37
-0.66
3.53
-5.77
2.1
0.58
-0.07
0.06

>  <PUBCHEM_SHAPE_SELFOVERLAP>  (1) 
1218.378

>  <PUBCHEM_SHAPE_VOLUME>  (1) 
339.7

>  <PUBCHEM_COORDINATE_TYPE>  (1) 
2
5
10

$$$$
