18920
     RDKit          3D

 11 11  0  0  0  0  0  0  0  0999 V2000
    0.1348   -0.3414    0.0542 N   0  0  0  0  0  0  0  0  0  0  0  0
   -1.1829   -0.7885    0.4154 N   0  0  0  0  0  0  0  0  0  0  0  0
    2.6069    1.1504   -0.6241 C   0  0  0  0  0  0  0  0  0  0  0  0
    3.2576   -0.2159   -0.4171 C   0  0  0  0  0  0  0  0  0  0  0  0
    1.7523    1.5670    0.5690 C   0  0  0  0  0  0  0  0  0  0  0  0
    2.2992   -1.4035   -0.4245 C   0  0  0  0  0  0  0  0  0  0  0  0
    0.3194    1.0237    0.5558 C   0  0  0  0  0  0  0  0  0  0  0  0
    1.1141   -1.3117    0.5417 C   0  0  0  0  0  0  0  0  0  0  0  0
   -2.1421    0.1051   -0.2096 C   0  0  0  0  0  0  0  0  0  0  0  0
   -3.5671   -0.3466    0.1004 C   0  0  0  0  0  0  0  0  0  0  0  0
   -4.5921    0.5615   -0.5612 C   0  0  0  0  0  0  0  0  0  0  0  0
  1  2  1  0
  1  7  1  0
  1  8  1  0
  2  9  1  0
  3  4  1  0
  3  5  1  0
  4  6  1  0
  5  7  1  0
  6  8  1  0
  9 10  1  0
 10 11  1  0
M  END
>  <PUBCHEM_COMPOUND_CID>  (1) 
18920

>  <PUBCHEM_CONFORMER_RMSD>  (1) 
0.6

>  <PUBCHEM_CONFORMER_DIVERSEORDER>  (1) 
1
36
20
3
5
16
9
6
24
27
12
26
10
13
25
21
14
18
11
2
35
23
28
22
4
32
15
7
33
8
30
19
34
31
17
29

>  <PUBCHEM_MMFF94_PARTIAL_CHARGES>  (1) 
6
1 -0.54
2 -0.63
24 0.36
7 0.27
8 0.27
9 0.27

>  <PUBCHEM_EFFECTIVE_ROTOR_COUNT>  (1) 
4.4

>  <PUBCHEM_PHARMACOPHORE_FEATURES>  (1) 
3
1 11 hydrophobe
1 2 donor
7 1 3 4 5 6 7 8 rings

>  <PUBCHEM_HEAVY_ATOM_COUNT>  (1) 
11

>  <PUBCHEM_ATOM_DEF_STEREO_COUNT>  (1) 
0

>  <PUBCHEM_ATOM_UDEF_STEREO_COUNT>  (1) 
0

>  <PUBCHEM_BOND_DEF_STEREO_COUNT>  (1) 
0

>  <PUBCHEM_BOND_UDEF_STEREO_COUNT>  (1) 
0

>  <PUBCHEM_ISOTOPIC_ATOM_COUNT>  (1) 
0

>  <PUBCHEM_COMPONENT_COUNT>  (1) 
1

>  <PUBCHEM_CACTVS_TAUTO_COUNT>  (1) 
1

>  <PUBCHEM_CONFORMER_ID>  (1) 
000049E800000001

>  <PUBCHEM_MMFF94_ENERGY>  (1) 
12.6016

>  <PUBCHEM_FEATURE_SELFOVERLAP>  (1) 
15.223

>  <PUBCHEM_SHAPE_FINGERPRINT>  (1) 
11031198 65 18337114552500843383
11471102 20 18411698781267594492
12654215 9 18409729573412384040
12932764 1 17917987321853225177
14251717 144 18342457027966153535
14325111 11 18409166653639589995
14911166 2 18411709785522452726
14993402 34 17703794716693433542
15775835 57 18341053020289221388
17834072 33 18343015619413791511
18186145 218 18260267417509636207
20201158 50 18410579474388927618
20606313 2 18411419514125594108
20645477 70 18342175540473968719
20820808 20 18334297599705722800
23402655 69 18413669097942071477
2748010 2 17909281509054135200
276578 36 15357693080754896457
3060560 45 18202282493869796646
522135 26 18341611499661696207
93112 12 18342736338711733751

>  <PUBCHEM_SHAPE_MULTIPOLES>  (1) 
216.41
6.93
1.51
0.81
8.26
0.08
0.01
0.59
1.78
-1.16
-0.13
-0.12
0.06
0.23

>  <PUBCHEM_SHAPE_SELFOVERLAP>  (1) 
403.527

>  <PUBCHEM_SHAPE_VOLUME>  (1) 
132.5

>  <PUBCHEM_COORDINATE_TYPE>  (1) 
2
5
10

$$$$
