18921
     RDKit          3D

  6  6  0  0  0  0  0  0  0  0999 V2000
    2.7804   -0.0176   -0.0001 I   0  0  0  0  0  0  0  0  0  0  0  0
   -0.2272    1.4301    0.0001 S   0  0  0  0  0  0  0  0  0  0  0  0
   -0.0875   -1.1353    0.0001 C   0  0  0  0  0  0  0  0  0  0  0  0
   -1.4759   -0.8150   -0.0001 C   0  0  0  0  0  0  0  0  0  0  0  0
    0.7034   -0.0074    0.0000 C   0  0  0  0  0  0  0  0  0  0  0  0
   -1.6932    0.5452   -0.0001 C   0  0  0  0  0  0  0  0  0  0  0  0
  1  5  1  0
  2  5  1  0
  2  6  1  0
  3  4  1  0
  3  5  2  0
  4  6  2  0
M  END
>  <PUBCHEM_COMPOUND_CID>  (1) 
18921

>  <PUBCHEM_CONFORMER_RMSD>  (1) 
0.4

>  <PUBCHEM_CONFORMER_DIVERSEORDER>  (1) 
1

>  <PUBCHEM_MMFF94_PARTIAL_CHARGES>  (1) 
9
1 -0.03
2 -0.08
3 -0.15
4 -0.15
5 0.07
6 -0.11
7 0.15
8 0.15
9 0.15

>  <PUBCHEM_EFFECTIVE_ROTOR_COUNT>  (1) 
0

>  <PUBCHEM_PHARMACOPHORE_FEATURES>  (1) 
2
1 1 hydrophobe
5 2 3 4 5 6 rings

>  <PUBCHEM_HEAVY_ATOM_COUNT>  (1) 
6

>  <PUBCHEM_ATOM_DEF_STEREO_COUNT>  (1) 
0

>  <PUBCHEM_ATOM_UDEF_STEREO_COUNT>  (1) 
0

>  <PUBCHEM_BOND_DEF_STEREO_COUNT>  (1) 
0

>  <PUBCHEM_BOND_UDEF_STEREO_COUNT>  (1) 
0

>  <PUBCHEM_ISOTOPIC_ATOM_COUNT>  (1) 
0

>  <PUBCHEM_COMPONENT_COUNT>  (1) 
1

>  <PUBCHEM_CACTVS_TAUTO_COUNT>  (1) 
1

>  <PUBCHEM_CONFORMER_ID>  (1) 
000049E900000001

>  <PUBCHEM_MMFF94_ENERGY>  (1) 
2.3692

>  <PUBCHEM_FEATURE_SELFOVERLAP>  (1) 
10.148

>  <PUBCHEM_SHAPE_FINGERPRINT>  (1) 
14390081 3 18343579642650152664
16714656 1 18411139130044196292
20096714 4 18194403294723670266
21040471 1 18194682566377058688
23552423 10 18260552195342824590
29004967 10 18339648935566985434
369184 2 18409725162559878050
5460574 1 9295292737790487938

>  <PUBCHEM_SHAPE_MULTIPOLES>  (1) 
139.26
3.26
1.37
0.68
2.45
0.2
0
-0.09
0
-0.36
0
0.12
0.02
0

>  <PUBCHEM_SHAPE_SELFOVERLAP>  (1) 
247.708

>  <PUBCHEM_SHAPE_VOLUME>  (1) 
93.2

>  <PUBCHEM_COORDINATE_TYPE>  (1) 
2
5
10

$$$$
