18935
     RDKit          3D

 13 13  0  0  0  0  0  0  0  0999 V2000
    3.0841   -0.6737    1.2417 O   0  0  0  0  0  0  0  0  0  0  0  0
    2.6246   -0.0761    0.0074 C   0  0  0  0  0  0  0  0  0  0  0  0
    1.1367    0.0267   -0.0002 C   0  0  0  0  0  0  0  0  0  0  0  0
   -3.1341    0.3206   -0.0225 C   0  0  0  0  0  0  0  0  0  0  0  0
   -1.6464    0.2182   -0.0141 C   0  0  0  0  0  0  0  0  0  0  0  0
    0.5239    1.2773   -0.0798 C   0  0  0  0  0  0  0  0  0  0  0  0
    0.3578   -1.1283    0.0725 C   0  0  0  0  0  0  0  0  0  0  0  0
   -0.8676    1.3731   -0.0867 C   0  0  0  0  0  0  0  0  0  0  0  0
   -1.0338   -1.0324    0.0655 C   0  0  0  0  0  0  0  0  0  0  0  0
    3.3728    1.2788   -0.0780 C   0  0  0  0  0  0  0  0  0  0  0  0
    3.1167   -0.9894   -1.1379 C   0  0  0  0  0  0  0  0  0  0  0  0
   -3.7689   -0.2174    1.2740 C   0  0  0  0  0  0  0  0  0  0  0  0
   -3.7658   -0.3773   -1.2419 C   0  0  0  0  0  0  0  0  0  0  0  0
  1  2  1  0
  2  3  1  0
  2 10  1  0
  2 11  1  0
  3  6  2  0
  3  7  1  0
  4  5  1  0
  4 12  1  0
  4 13  1  0
  5  8  2  0
  5  9  1  0
  6  8  1  0
  7  9  2  0
M  END
>  <PUBCHEM_COMPOUND_CID>  (1) 
18935

>  <PUBCHEM_CONFORMER_RMSD>  (1) 
0.6

>  <PUBCHEM_CONFORMER_DIVERSEORDER>  (1) 
1
4
3
2

>  <PUBCHEM_MMFF94_PARTIAL_CHARGES>  (1) 
14
1 -0.68
15 0.15
16 0.15
17 0.15
18 0.15
2 0.42
3 -0.14
31 0.4
4 0.14
5 -0.14
6 -0.15
7 -0.15
8 -0.15
9 -0.15

>  <PUBCHEM_EFFECTIVE_ROTOR_COUNT>  (1) 
2

>  <PUBCHEM_PHARMACOPHORE_FEATURES>  (1) 
5
1 1 acceptor
1 1 donor
3 2 10 11 hydrophobe
3 4 12 13 hydrophobe
6 3 5 6 7 8 9 rings

>  <PUBCHEM_HEAVY_ATOM_COUNT>  (1) 
13

>  <PUBCHEM_ATOM_DEF_STEREO_COUNT>  (1) 
0

>  <PUBCHEM_ATOM_UDEF_STEREO_COUNT>  (1) 
0

>  <PUBCHEM_BOND_DEF_STEREO_COUNT>  (1) 
0

>  <PUBCHEM_BOND_UDEF_STEREO_COUNT>  (1) 
0

>  <PUBCHEM_ISOTOPIC_ATOM_COUNT>  (1) 
0

>  <PUBCHEM_COMPONENT_COUNT>  (1) 
1

>  <PUBCHEM_CACTVS_TAUTO_COUNT>  (1) 
1

>  <PUBCHEM_CONFORMER_ID>  (1) 
000049F700000001

>  <PUBCHEM_MMFF94_ENERGY>  (1) 
39.7161

>  <PUBCHEM_FEATURE_SELFOVERLAP>  (1) 
25.371

>  <PUBCHEM_SHAPE_FINGERPRINT>  (1) 
10219947 1 18411983563511508861
11132069 177 18201431467659007763
11206711 2 18261672558767823813
11401426 45 18340192042950860245
11769659 78 16988837263768576351
12032990 46 18337119998640856275
124424 183 17748816406826655707
12932764 1 17894349994587402927
13296908 3 18040718077809590737
13581323 91 16370732551670993603
13760787 19 16660649535609885539
13760787 5 18407759235590105541
14144814 61 18334859406934086313
14289901 80 16056587802970226395
14325111 11 18410575076157754749
14993402 34 18343579676756553741
15309172 13 18412831278592603755
15653759 3 17240769510139985329
16945 1 18409167692641919439
17844478 74 17967820448577812077
18186145 218 18040439879782105173
18522853 295 18408326562321170106
190213 19 16588021316348278845
19026448 4 16298102086109927129
19026448 5 16702305650224548557
19422 9 17489872630781847239
200 152 18271239521885569175
20279233 1 17894345600972885905
20281475 54 17988925578283025327
20645476 183 17241059785209708454
20645477 70 18336538339762700455
23402539 116 18271796900559428532
23402655 69 18343297055197973197
23559900 14 16732975402127015456
2748010 2 18119814856894380179
3248919 1 18131349725933407734
3286 77 16773789269244239334
57812782 119 16732698354908184773
581208 293 18202278100313262270
633830 44 18410018706273364853
7364860 26 18343587373913344124
8030462 33 17822016359107171004

>  <PUBCHEM_SHAPE_MULTIPOLES>  (1) 
261.66
6.84
1.33
1.05
1.5
0.19
-0.04
-0.44
0.08
-0.59
0.11
0.36
-0.21
-0.01

>  <PUBCHEM_SHAPE_SELFOVERLAP>  (1) 
532.162

>  <PUBCHEM_SHAPE_VOLUME>  (1) 
154.2

>  <PUBCHEM_COORDINATE_TYPE>  (1) 
2
5
10

$$$$
