18944
     RDKit          3D

 17 17  0  0  0  0  0  0  0  0999 V2000
    2.3385    0.2744   -0.0627 O   0  0  0  0  0  0  0  0  0  0  0  0
    5.8084   -0.0475   -0.3256 O   0  0  0  0  0  0  0  0  0  0  0  0
    4.4644    1.6556   -0.6879 O   0  0  0  0  0  0  0  0  0  0  0  0
   -4.7078   -1.7190   -0.6881 O   0  0  0  0  0  0  0  0  0  0  0  0
    4.6442    0.4486   -0.3513 N   0  0  0  0  0  0  0  0  0  0  0  0
   -2.7811    0.1462   -0.0878 N   0  0  0  0  0  0  0  0  0  0  0  0
   -4.1012    0.4076    0.0194 N   0  0  0  0  0  0  0  0  0  0  0  0
   -6.3160   -0.1728   -0.1427 N   0  0  0  0  0  0  0  0  0  0  0  0
    1.4310   -0.6539    0.3032 C   0  0  0  0  0  0  0  0  0  0  0  0
    2.0164   -1.8506    0.5946 C   0  0  0  0  0  0  0  0  0  0  0  0
    0.0314   -0.3496    0.3580 C   0  0  0  0  0  0  0  0  0  0  0  0
    3.5474   -0.3431   -0.0056 C   0  0  0  0  0  0  0  0  0  0  0  0
    3.4030   -1.6515    0.3935 C   0  0  0  0  0  0  0  0  0  0  0  0
   -0.4743    0.8650    0.0986 C   0  0  0  0  0  0  0  0  0  0  0  0
   -1.9459    1.0969    0.2172 C   0  0  0  0  0  0  0  0  0  0  0  0
   -2.3511    2.4831    0.6706 C   0  0  0  0  0  0  0  0  0  0  0  0
   -5.0073   -0.5895   -0.3032 C   0  0  0  0  0  0  0  0  0  0  0  0
  1  9  1  0
  1 12  1  0
  2  5  1  0
  3  5  2  0
  4 17  2  0
  5 12  1  0
  6  7  1  0
  6 15  2  0
  7 17  1  0
  8 17  1  0
  9 10  2  0
  9 11  1  0
 10 13  1  0
 11 14  2  0
 12 13  2  0
 14 15  1  0
 15 16  1  0
M  CHG  2   2  -1   5   1
M  END
>  <PUBCHEM_COMPOUND_CID>  (1) 
18944

>  <PUBCHEM_CONFORMER_RMSD>  (1) 
0.6

>  <PUBCHEM_CONFORMER_DIVERSEORDER>  (1) 
1
7
9
6
4
8
2
3
5

>  <PUBCHEM_MMFF94_PARTIAL_CHARGES>  (1) 
24
1 -0.28
10 -0.15
11 -0.11
12 0.22
13 -0.15
14 -0.14
15 0.37
16 0.06
17 0.69
18 0.15
19 0.15
2 -0.52
20 0.15
21 0.15
25 0.37
26 0.37
27 0.37
3 -0.52
4 -0.57
5 0.96
6 -0.51
7 -0.37
8 -0.8
9 0.09

>  <PUBCHEM_EFFECTIVE_ROTOR_COUNT>  (1) 
5

>  <PUBCHEM_PHARMACOPHORE_FEATURES>  (1) 
9
1 1 acceptor
1 2 acceptor
1 2 anion
1 3 acceptor
1 4 acceptor
1 6 acceptor
1 7 donor
1 8 donor
5 1 9 10 12 13 rings

>  <PUBCHEM_HEAVY_ATOM_COUNT>  (1) 
17

>  <PUBCHEM_ATOM_DEF_STEREO_COUNT>  (1) 
0

>  <PUBCHEM_ATOM_UDEF_STEREO_COUNT>  (1) 
0

>  <PUBCHEM_BOND_DEF_STEREO_COUNT>  (1) 
0

>  <PUBCHEM_BOND_UDEF_STEREO_COUNT>  (1) 
2

>  <PUBCHEM_ISOTOPIC_ATOM_COUNT>  (1) 
0

>  <PUBCHEM_COMPONENT_COUNT>  (1) 
1

>  <PUBCHEM_CACTVS_TAUTO_COUNT>  (1) 
3

>  <PUBCHEM_CONFORMER_ID>  (1) 
00004A0000000001

>  <PUBCHEM_MMFF94_ENERGY>  (1) 
35.6509

>  <PUBCHEM_FEATURE_SELFOVERLAP>  (1) 
45.821

>  <PUBCHEM_SHAPE_FINGERPRINT>  (1) 
10912923 1 18338518538623610465
10968037 39 18410011053163999583
11045515 52 18187079542867789277
11089746 13 11891336477741329654
11806522 49 18408322189812269649
12107183 9 17545882624836673915
12714333 28 16660641856450829783
12916754 54 18191022309416503450
13167823 11 18338514132103527171
13533116 47 15647319819937327880
14123256 10 18408604772747942478
14251718 22 18411136947995049111
14528608 73 18334861636317668068
14576447 43 18410569600000612302
15242433 33 18410290307505688951
15501527 24 18409450318680421612
15527383 91 11384111942980352354
167882 2 17170410755603267181
17834072 33 18409166605978231388
19489759 90 13839982209918157285
200 152 18335137583803148993
20279233 1 15792021042940774600
20645477 70 18261389980137797370
21054139 6 18408599292665708574
21267235 1 18411987931783607062
2297311 6 17632865213307074177
23035841 295 18272653446056269511
23402539 116 18410289207740528943
23402655 69 18335416816601241741
23557571 272 17775291521226007377
23559900 14 18338509858964593225
238078 22 18342457084428384827
351380 3 18202559601481971351
4325135 7 18409448080970753495
4463277 17 18411700976819003929
474 4 17894639188285177828
474229 33 18411700997539784623
5104073 3 18338797793133910560
53777708 50 18195810652459087746
5486654 2 18411982485569974959
58051976 378 18410299107566669762
7062679 117 18411983576670931679
7495541 125 17775279482775081210

>  <PUBCHEM_SHAPE_MULTIPOLES>  (1) 
306.45
13.22
1.89
0.72
5.9
0.41
-0.03
-1.63
2.76
0.29
-0.21
-0.05
0.01
-1.29

>  <PUBCHEM_SHAPE_SELFOVERLAP>  (1) 
632.159

>  <PUBCHEM_SHAPE_VOLUME>  (1) 
176.2

>  <PUBCHEM_COORDINATE_TYPE>  (1) 
2
5
10

$$$$
