18946
     RDKit          3D

 18 19  0  0  0  0  0  0  0  0999 V2000
   -5.2687    2.1215   -0.4953 Cl  0  0  0  0  0  0  0  0  0  0  0  0
    5.2493    2.1432    0.4874 Cl  0  0  0  0  0  0  0  0  0  0  0  0
   -0.5020   -2.2380    1.4185 O   0  0  0  0  0  0  0  0  0  0  0  0
    0.5339   -2.2409   -1.4072 O   0  0  0  0  0  0  0  0  0  0  0  0
   -1.7291   -0.5767    0.2362 C   0  0  0  0  0  0  0  0  0  0  0  0
    1.7490   -0.5662   -0.2312 C   0  0  0  0  0  0  0  0  0  0  0  0
   -0.5884   -1.4476    0.4710 C   0  0  0  0  0  0  0  0  0  0  0  0
    0.5939   -1.4616   -0.4674 C   0  0  0  0  0  0  0  0  0  0  0  0
   -1.7447    0.2675   -0.8738 C   0  0  0  0  0  0  0  0  0  0  0  0
    1.7286    0.2816    0.8599 C   0  0  0  0  0  0  0  0  0  0  0  0
   -2.8084   -0.5870    1.1199 C   0  0  0  0  0  0  0  0  0  0  0  0
    2.8175   -0.6031   -1.1070 C   0  0  0  0  0  0  0  0  0  0  0  0
   -2.8394    1.1019   -1.1002 C   0  0  0  0  0  0  0  0  0  0  0  0
    2.8175    1.1242    1.0836 C   0  0  0  0  0  0  0  0  0  0  0  0
   -3.9032    0.2472    0.8936 C   0  0  0  0  0  0  0  0  0  0  0  0
    3.9065    0.2394   -0.8834 C   0  0  0  0  0  0  0  0  0  0  0  0
   -3.9187    1.0917   -0.2166 C   0  0  0  0  0  0  0  0  0  0  0  0
    3.9065    1.1031    0.2121 C   0  0  0  0  0  0  0  0  0  0  0  0
  1 17  1  0
  2 18  1  0
  3  7  2  0
  4  8  2  0
  5  7  1  0
  5  9  2  0
  5 11  1  0
  6  8  1  0
  6 10  2  0
  6 12  1  0
  7  8  1  0
  9 13  1  0
 10 14  1  0
 11 15  2  0
 12 16  2  0
 13 17  2  0
 14 18  2  0
 15 17  1  0
 16 18  1  0
M  END
>  <PUBCHEM_COMPOUND_CID>  (1) 
18946

>  <PUBCHEM_CONFORMER_RMSD>  (1) 
0.6

>  <PUBCHEM_CONFORMER_DIVERSEORDER>  (1) 
1
8
16
13
9
12
10
15
14
3
7
11
2
4
6
5

>  <PUBCHEM_MMFF94_PARTIAL_CHARGES>  (1) 
26
1 -0.18
10 -0.15
11 -0.15
12 -0.15
13 -0.15
14 -0.15
15 -0.15
16 -0.15
17 0.18
18 0.18
19 0.15
2 -0.18
20 0.15
21 0.15
22 0.15
23 0.15
24 0.15
25 0.15
26 0.15
3 -0.57
4 -0.57
5 0.09
6 0.09
7 0.48
8 0.48
9 -0.15

>  <PUBCHEM_EFFECTIVE_ROTOR_COUNT>  (1) 
3

>  <PUBCHEM_PHARMACOPHORE_FEATURES>  (1) 
4
1 3 acceptor
1 4 acceptor
6 5 9 11 13 15 17 rings
6 6 10 12 14 16 18 rings

>  <PUBCHEM_HEAVY_ATOM_COUNT>  (1) 
18

>  <PUBCHEM_ATOM_DEF_STEREO_COUNT>  (1) 
0

>  <PUBCHEM_ATOM_UDEF_STEREO_COUNT>  (1) 
0

>  <PUBCHEM_BOND_DEF_STEREO_COUNT>  (1) 
0

>  <PUBCHEM_BOND_UDEF_STEREO_COUNT>  (1) 
0

>  <PUBCHEM_ISOTOPIC_ATOM_COUNT>  (1) 
0

>  <PUBCHEM_COMPONENT_COUNT>  (1) 
1

>  <PUBCHEM_CACTVS_TAUTO_COUNT>  (1) 
1

>  <PUBCHEM_CONFORMER_ID>  (1) 
00004A0200000001

>  <PUBCHEM_MMFF94_ENERGY>  (1) 
45.578

>  <PUBCHEM_FEATURE_SELFOVERLAP>  (1) 
20.298

>  <PUBCHEM_SHAPE_FINGERPRINT>  (1) 
10498660 4 18413670210027604929
11046707 91 9295300451462210752
11132069 177 17530971254821438421
11543360 7 17275096228730712109
122479 349 18336547217639013846
12403259 415 18410587183586068675
12596602 18 15719683146484271732
12633257 1 14779269717323254672
12730499 353 18342465798843311687
12788726 201 16302359541035568530
12892183 10 15647323100717347757
13103583 49 12901823861820825221
13544653 18 7781518105205960778
14123255 352 18410853278406517072
14252887 29 8358247134051503726
14341114 328 16153434951660684077
15061688 2 18410570690911580583
15342816 4 12535340160677370694
17834072 32 18335419101287018564
17870717 6 11815907759841710729
1813 80 8646489686377730714
18186145 218 17989492922040757170
18219364 16 18271535293858712899
192875 21 16917071023501463250
193927 3 8358265868857286088
19862831 5 15769775757957664807
200 152 14836413548943246218
20281475 54 9295288373729331235
20388580 30 12031492316056051075
20645477 56 18335142041915957104
20645477 70 17560537152757800414
20871999 31 13614522965417749651
21618674 25 18114460047000706633
231179 274 18411702088740559152
23402655 69 17346602980154205920
23403322 49 10087651398226823697
23557571 272 18115890575889643095
23559900 14 17823147726091247990
25 1 18131357392655863378
27216 239 18265332991658078856
2838139 119 18340476807472047828
2916195 48 18411696625373769344
3060560 45 17703506588939118694
3082319 5 15697999638891153280
4028521 119 18272370862745894585
427121 178 17749959851537804651
474 4 18272931626434433105
5104073 3 17968382226300561521
633830 44 18339073800701648807
7364860 26 17827635851415791603
7808743 9 18041850635195713492
90316 7 15791730772319337669

>  <PUBCHEM_SHAPE_MULTIPOLES>  (1) 
362.43
10.06
2.18
1.29
0.12
0.14
0
-9.06
-0.04
-0.04
0
0.02
0.27
1.49

>  <PUBCHEM_SHAPE_SELFOVERLAP>  (1) 
768.516

>  <PUBCHEM_SHAPE_VOLUME>  (1) 
204.4

>  <PUBCHEM_COORDINATE_TYPE>  (1) 
2
5
10

$$$$
