18945
     RDKit          3D

 13 13  0  0  0  0  0  0  0  0999 V2000
    3.5510   -1.1262   -0.0456 F   0  0  0  0  0  0  0  0  0  0  0  0
   -1.3072    2.7849   -0.2940 O   0  0  0  0  0  0  0  0  0  0  0  0
   -2.3240    0.9931    0.4638 O   0  0  0  0  0  0  0  0  0  0  0  0
   -1.2906    1.5868    0.0750 N   0  0  0  0  0  0  0  0  0  0  0  0
   -2.4726   -2.3897   -1.0525 N   0  0  0  0  0  0  0  0  0  0  0  0
    0.0095   -0.4572    0.4515 C   0  0  0  0  0  0  0  0  0  0  0  0
   -0.0582    0.8775    0.0516 C   0  0  0  0  0  0  0  0  0  0  0  0
    1.2287   -1.1341    0.4190 C   0  0  0  0  0  0  0  0  0  0  0  0
   -1.2058   -1.1907    0.9200 C   0  0  0  0  0  0  0  0  0  0  0  0
    1.0933    1.5353   -0.3808 C   0  0  0  0  0  0  0  0  0  0  0  0
    2.3803   -0.4762   -0.0135 C   0  0  0  0  0  0  0  0  0  0  0  0
    2.3124    0.8585   -0.4134 C   0  0  0  0  0  0  0  0  0  0  0  0
   -1.9168   -1.8622   -0.1812 C   0  0  0  0  0  0  0  0  0  0  0  0
  1 11  1  0
  2  4  1  0
  3  4  2  0
  4  7  1  0
  5 13  3  0
  6  7  2  0
  6  8  1  0
  6  9  1  0
  7 10  1  0
  8 11  2  0
  9 13  1  0
 10 12  2  0
 11 12  1  0
M  CHG  2   2  -1   4   1
M  END
>  <PUBCHEM_COMPOUND_CID>  (1) 
18945

>  <PUBCHEM_CONFORMER_RMSD>  (1) 
0.6

>  <PUBCHEM_CONFORMER_DIVERSEORDER>  (1) 
2
1
3

>  <PUBCHEM_MMFF94_PARTIAL_CHARGES>  (1) 
16
1 -0.19
10 -0.15
11 0.19
12 -0.15
13 0.36
14 0.15
17 0.15
18 0.15
2 -0.52
3 -0.52
4 0.91
5 -0.56
6 -0.14
7 0.13
8 -0.15
9 0.34

>  <PUBCHEM_EFFECTIVE_ROTOR_COUNT>  (1) 
2

>  <PUBCHEM_PHARMACOPHORE_FEATURES>  (1) 
5
1 2 acceptor
1 2 anion
1 3 acceptor
1 5 acceptor
6 6 7 8 10 11 12 rings

>  <PUBCHEM_HEAVY_ATOM_COUNT>  (1) 
13

>  <PUBCHEM_ATOM_DEF_STEREO_COUNT>  (1) 
0

>  <PUBCHEM_ATOM_UDEF_STEREO_COUNT>  (1) 
0

>  <PUBCHEM_BOND_DEF_STEREO_COUNT>  (1) 
0

>  <PUBCHEM_BOND_UDEF_STEREO_COUNT>  (1) 
0

>  <PUBCHEM_ISOTOPIC_ATOM_COUNT>  (1) 
0

>  <PUBCHEM_COMPONENT_COUNT>  (1) 
1

>  <PUBCHEM_CACTVS_TAUTO_COUNT>  (1) 
1

>  <PUBCHEM_CONFORMER_ID>  (1) 
00004A0100000002

>  <PUBCHEM_MMFF94_ENERGY>  (1) 
41.3498

>  <PUBCHEM_FEATURE_SELFOVERLAP>  (1) 
25.453

>  <PUBCHEM_SHAPE_FINGERPRINT>  (1) 
1 1 17544755625523736893
11206711 2 18262529211559271308
12138202 97 18195532493392412358
12202030 40 16844753974483354374
16945 1 18338232652868532112
17775402 16 17756994780071739293
193761 8 18336551607101306816
20645476 183 16955107447037857366
20645477 70 17182489604432089605
20871998 184 18340217288473252915
21040471 1 18191027790016540208
21501502 16 18410015468079247376
2334 1 18192438677977496352
23419403 2 17110377412241899672
23552423 10 18187372081347087130
23559900 14 18125441905168656790
241688 4 18336829800485406025
2748010 2 18264776630263747128
3060560 45 17759232999404751565
53812654 25 18118107079329644442
6338986 31 18196923577238444078
81228 2 18408884057391617849

>  <PUBCHEM_SHAPE_MULTIPOLES>  (1) 
238.56
3.88
2.6
0.8
0.9
1.22
-0.02
-2.07
-0.68
-1.21
-0.34
-0.31
-0.23
-0.55

>  <PUBCHEM_SHAPE_SELFOVERLAP>  (1) 
503.505

>  <PUBCHEM_SHAPE_VOLUME>  (1) 
132.5

>  <PUBCHEM_COORDINATE_TYPE>  (1) 
2
5
10

$$$$
