18943
     RDKit          3D

 13 13  0  0  0  0  0  0  0  0999 V2000
    0.7720   -0.2596   -0.0098 O   0  0  0  0  0  0  0  0  0  0  0  0
   -4.2482    0.7042   -0.0055 O   0  0  0  0  0  0  0  0  0  0  0  0
    4.2575   -0.5118    0.0097 O   0  0  0  0  0  0  0  0  0  0  0  0
    2.6790   -2.0433   -0.0118 O   0  0  0  0  0  0  0  0  0  0  0  0
    3.0318   -0.8276   -0.0006 N   0  0  0  0  0  0  0  0  0  0  0  0
    0.0469    0.8534   -0.0051 C   0  0  0  0  0  0  0  0  0  0  0  0
    0.7605    1.9879    0.0082 C   0  0  0  0  0  0  0  0  0  0  0  0
    2.0595    0.1742    0.0014 C   0  0  0  0  0  0  0  0  0  0  0  0
    2.1060    1.5490    0.0127 C   0  0  0  0  0  0  0  0  0  0  0  0
   -1.4241    0.7729   -0.0148 C   0  0  0  0  0  0  0  0  0  0  0  0
   -2.1204   -0.3726   -0.0045 C   0  0  0  0  0  0  0  0  0  0  0  0
   -3.6108   -0.3464   -0.0051 C   0  0  0  0  0  0  0  0  0  0  0  0
   -4.3096   -1.6802    0.0251 C   0  0  0  0  0  0  0  0  0  0  0  0
  1  6  1  0
  1  8  1  0
  2 12  2  0
  3  5  1  0
  4  5  2  0
  5  8  1  0
  6  7  2  0
  6 10  1  0
  7  9  1  0
  8  9  2  0
 10 11  2  0
 11 12  1  0
 12 13  1  0
M  CHG  2   3  -1   5   1
M  END
>  <PUBCHEM_COMPOUND_CID>  (1) 
18943

>  <PUBCHEM_CONFORMER_RMSD>  (1) 
0.6

>  <PUBCHEM_CONFORMER_DIVERSEORDER>  (1) 
1
6
5
2
4
3

>  <PUBCHEM_MMFF94_PARTIAL_CHARGES>  (1) 
17
1 -0.28
10 -0.11
11 -0.14
12 0.49
13 0.06
14 0.15
15 0.15
16 0.15
17 0.15
2 -0.57
3 -0.52
4 -0.52
5 0.96
6 0.09
7 -0.15
8 0.22
9 -0.15

>  <PUBCHEM_EFFECTIVE_ROTOR_COUNT>  (1) 
3

>  <PUBCHEM_PHARMACOPHORE_FEATURES>  (1) 
6
1 1 acceptor
1 2 acceptor
1 3 acceptor
1 3 anion
1 4 acceptor
5 1 6 7 8 9 rings

>  <PUBCHEM_HEAVY_ATOM_COUNT>  (1) 
13

>  <PUBCHEM_ATOM_DEF_STEREO_COUNT>  (1) 
0

>  <PUBCHEM_ATOM_UDEF_STEREO_COUNT>  (1) 
0

>  <PUBCHEM_BOND_DEF_STEREO_COUNT>  (1) 
0

>  <PUBCHEM_BOND_UDEF_STEREO_COUNT>  (1) 
1

>  <PUBCHEM_ISOTOPIC_ATOM_COUNT>  (1) 
0

>  <PUBCHEM_COMPONENT_COUNT>  (1) 
1

>  <PUBCHEM_CACTVS_TAUTO_COUNT>  (1) 
2

>  <PUBCHEM_CONFORMER_ID>  (1) 
000049FF00000001

>  <PUBCHEM_MMFF94_ENERGY>  (1) 
24.6102

>  <PUBCHEM_FEATURE_SELFOVERLAP>  (1) 
30.539

>  <PUBCHEM_SHAPE_FINGERPRINT>  (1) 
11769659 78 18412542128530135245
11806522 49 18409449202326515112
12032990 46 18410857650572058292
12932764 1 17488460952742197589
13296908 3 18336826485250545093
14251717 144 18410291432143581218
14252887 29 17918281935056013606
14325111 11 18338797922515788805
15442244 35 18412548674113516241
15477762 27 18409449206452638390
177051 138 18342175604866433003
17834074 16 18335422434571816091
18186145 218 17604140510949726505
19422 9 18411423951148642093
20201158 50 18334860510725091002
20281407 28 18409169891728530529
20281475 54 18409170986908235269
20645477 70 18411133662809577431
20871998 22 18200319801548201430
21501925 9 18412820291960629208
221490 88 18190749823912143907
22485316 2 18409727344165945963
23402539 116 16081082645725189804
23463225 33 18413672404866279855
5104073 3 18411982498718491897
581208 293 18337387257133398928
7364860 26 18268709579256903224
83771 10 18410009918670193164
8809292 202 18187931707017232443
94968 8 18408325488494969474

>  <PUBCHEM_SHAPE_MULTIPOLES>  (1) 
239.08
7.96
1.84
0.58
4.85
0.16
0
3.61
0.03
-0.78
0
0.05
-0.03
0.02

>  <PUBCHEM_SHAPE_SELFOVERLAP>  (1) 
496.661

>  <PUBCHEM_SHAPE_VOLUME>  (1) 
137.3

>  <PUBCHEM_COORDINATE_TYPE>  (1) 
2
5
10

$$$$
