18953
     RDKit          3D

 19 20  0  0  0  0  0  0  0  0999 V2000
   -1.4194    1.1945   -0.0315 N   0  0  0  0  0  0  0  0  0  0  0  0
    0.7003    2.2064    0.0089 N   0  0  0  0  0  0  0  0  0  0  0  0
    1.4008    1.0475   -0.0002 N   0  0  0  0  0  0  0  0  0  0  0  0
   -1.1246    3.5738    0.0025 N   0  0  0  0  0  0  0  0  0  0  0  0
   -3.5952    0.0636   -0.0192 C   0  0  0  0  0  0  0  0  0  0  0  0
   -2.8648    1.3769   -0.0496 C   0  0  0  0  0  0  0  0  0  0  0  0
   -3.9178   -0.5695   -1.2127 C   0  0  0  0  0  0  0  0  0  0  0  0
   -3.9392   -0.5016    1.2022 C   0  0  0  0  0  0  0  0  0  0  0  0
   -4.5958   -1.7882   -1.1843 C   0  0  0  0  0  0  0  0  0  0  0  0
   -4.6172   -1.7202    1.2305 C   0  0  0  0  0  0  0  0  0  0  0  0
   -4.9454   -2.3636    0.0373 C   0  0  0  0  0  0  0  0  0  0  0  0
    3.6150    0.0688    0.0085 C   0  0  0  0  0  0  0  0  0  0  0  0
   -0.6838    2.2669   -0.0083 C   0  0  0  0  0  0  0  0  0  0  0  0
    4.9796    0.3067    0.0261 C   0  0  0  0  0  0  0  0  0  0  0  0
    3.1075   -1.2198   -0.0161 C   0  0  0  0  0  0  0  0  0  0  0  0
    5.8611   -0.7742    0.0190 C   0  0  0  0  0  0  0  0  0  0  0  0
    3.9891   -2.3007   -0.0231 C   0  0  0  0  0  0  0  0  0  0  0  0
    2.6838    1.2108    0.0155 C   0  0  0  0  0  0  0  0  0  0  0  0
    5.3659   -2.0780   -0.0055 C   0  0  0  0  0  0  0  0  0  0  0  0
  1  6  1  0
  1 13  2  0
  2  3  1  0
  2 13  1  0
  3 18  2  0
  4 13  1  0
  5  6  1  0
  5  7  2  0
  5  8  1  0
  7  9  1  0
  8 10  2  0
  9 11  2  0
 10 11  1  0
 12 14  2  0
 12 15  1  0
 12 18  1  0
 14 16  1  0
 15 17  2  0
 16 19  2  0
 17 19  1  0
M  END
>  <PUBCHEM_COMPOUND_CID>  (1) 
18953

>  <PUBCHEM_CONFORMER_RMSD>  (1) 
0.6

>  <PUBCHEM_CONFORMER_DIVERSEORDER>  (1) 
1
63
64
48
44
42
10
89
45
34
50
31
68
32
52
54
60
41
25
51
82
65
17
28
2
14
27
77
62
19
37
22
39
36
81
78
85
59
11
53
87
16
72
23
67
7
71
55
86
75
70
66
8
76
84
15
6
90
43
73
47
30
5
58
79
26
57
9
61
13
80
29
35
3
4
88
83
38
56
24
69
46
21
49
12
74
40
18
33
20

>  <PUBCHEM_MMFF94_PARTIAL_CHARGES>  (1) 
33
1 -0.7
10 -0.15
11 -0.15
12 0.09
13 0.55
14 -0.15
15 -0.15
16 -0.15
17 -0.15
18 0.3
19 -0.15
2 -0.41
22 0.15
23 0.15
24 0.15
25 0.15
26 0.15
27 0.15
28 0.15
29 0.15
3 -0.49
30 0.15
31 0.06
32 0.15
33 0.4
34 0.4
35 0.4
4 -0.85
5 -0.14
6 0.39
7 -0.15
8 -0.15
9 -0.15

>  <PUBCHEM_EFFECTIVE_ROTOR_COUNT>  (1) 
5

>  <PUBCHEM_PHARMACOPHORE_FEATURES>  (1) 
6
1 2 donor
1 3 acceptor
1 4 donor
4 1 2 4 13 cation
6 12 14 15 16 17 19 rings
6 5 7 8 9 10 11 rings

>  <PUBCHEM_HEAVY_ATOM_COUNT>  (1) 
19

>  <PUBCHEM_ATOM_DEF_STEREO_COUNT>  (1) 
0

>  <PUBCHEM_ATOM_UDEF_STEREO_COUNT>  (1) 
0

>  <PUBCHEM_BOND_DEF_STEREO_COUNT>  (1) 
0

>  <PUBCHEM_BOND_UDEF_STEREO_COUNT>  (1) 
1

>  <PUBCHEM_ISOTOPIC_ATOM_COUNT>  (1) 
0

>  <PUBCHEM_COMPONENT_COUNT>  (1) 
1

>  <PUBCHEM_CACTVS_TAUTO_COUNT>  (1) 
3

>  <PUBCHEM_CONFORMER_ID>  (1) 
00004A0900000001

>  <PUBCHEM_MMFF94_ENERGY>  (1) 
52.0715

>  <PUBCHEM_FEATURE_SELFOVERLAP>  (1) 
30.502

>  <PUBCHEM_SHAPE_FINGERPRINT>  (1) 
12596602 18 17060340768339128562
12633257 1 15984820484349486309
13103583 49 17703522042473971273
13544653 18 18409168822229166813
13911882 115 17917152685407230182
13941219 33 18339090302504089809
1420 369 18412547617208299686
14251764 75 9583513248207635806
14848178 5 18334852831349725030
14848178 96 8718835270794252159
14866123 147 18339926988109220473
14950920 106 16702016517321422587
15188451 53 16558178428283475663
15352361 1 18410011048125259675
15537594 2 18270970153461615950
17780758 139 17917997152854200145
17857418 61 18413668019514909398
17870717 6 17240758519572018675
193927 3 18187651331430641665
20261772 1 17988918977256064126
20281389 69 10375866377421562558
20403669 9 18413112762138156727
20621476 21 17844540916060505654
21054139 6 18040716927613190290
221490 88 18410573964283756880
22620623 9 17096069313042956965
22950370 63 18411425028731967153
23424784 1240 18199760158809976990
235170 7 16587738746065594527
23559900 14 18410000031577142552
2838139 119 8790888462654173498
3004659 81 18040711489282409244
312425 54 17988925560971268419
314194 84 18268432502094302689
3246872 21 18340760546039539518
329604 57 18334297578378572870
3421961 26 18268710678599778073
351380 3 18413389855989716879
4259306 186 18335136518276745757
46194498 28 17169548734555411965
5104073 3 18199463278080442472
5365585 94 18259994772759275027
559249 180 18413106139952564293
6431902 208 18409166614732131442
7062679 13 18409446994402244594
7970288 3 18339359794285303943

>  <PUBCHEM_SHAPE_MULTIPOLES>  (1) 
371.09
14.88
3.24
0.92
6.87
1.49
0.01
-12.15
0.13
-0.98
-0.02
-1.38
-0.37
0.04

>  <PUBCHEM_SHAPE_SELFOVERLAP>  (1) 
781.659

>  <PUBCHEM_SHAPE_VOLUME>  (1) 
204

>  <PUBCHEM_COORDINATE_TYPE>  (1) 
2
5
10

$$$$
