18969
     RDKit          3D

 26 28  0  0  0  0  0  0  0  0999 V2000
   -0.9706   -0.0632    0.1497 O   0  0  0  0  0  0  0  0  0  0  0  0
    3.0454   -0.4568    0.1549 O   0  0  0  0  0  0  0  0  0  0  0  0
   -3.3523   -3.2946   -0.5248 O   0  0  0  0  0  0  0  0  0  0  0  0
    1.3830    0.7835    1.1335 O   0  0  0  0  0  0  0  0  0  0  0  0
    6.2382    1.3572   -0.0636 N   0  0  0  0  0  0  0  0  0  0  0  0
   -0.4343   -1.3226    0.1369 C   0  0  0  0  0  0  0  0  0  0  0  0
   -1.1986   -2.4630   -0.0878 C   0  0  0  0  0  0  0  0  0  0  0  0
   -3.1915   -0.9298   -0.3050 C   0  0  0  0  0  0  0  0  0  0  0  0
   -2.3299    0.0798   -0.0674 C   0  0  0  0  0  0  0  0  0  0  0  0
    0.9381   -1.4337    0.3627 C   0  0  0  0  0  0  0  0  0  0  0  0
   -2.6429   -2.3167   -0.3243 C   0  0  0  0  0  0  0  0  0  0  0  0
   -2.7506    1.4867   -0.0168 C   0  0  0  0  0  0  0  0  0  0  0  0
   -0.5974   -3.7246   -0.0883 C   0  0  0  0  0  0  0  0  0  0  0  0
    5.3202    0.2515   -0.2088 C   0  0  0  0  0  0  0  0  0  0  0  0
    1.5421   -2.6910    0.3624 C   0  0  0  0  0  0  0  0  0  0  0  0
    3.9551    0.6344    0.3371 C   0  0  0  0  0  0  0  0  0  0  0  0
    0.7753   -3.8346    0.1372 C   0  0  0  0  0  0  0  0  0  0  0  0
   -4.6649   -0.8084   -0.5669 C   0  0  0  0  0  0  0  0  0  0  0  0
    1.7653   -0.2581    0.6017 C   0  0  0  0  0  0  0  0  0  0  0  0
   -3.1555    2.0511    1.1932 C   0  0  0  0  0  0  0  0  0  0  0  0
   -2.7453    2.2593   -1.1786 C   0  0  0  0  0  0  0  0  0  0  0  0
    5.7461    2.5492   -0.7667 C   0  0  0  0  0  0  0  0  0  0  0  0
    7.5745    1.0044   -0.5607 C   0  0  0  0  0  0  0  0  0  0  0  0
   -3.5552    3.3867    1.2413 C   0  0  0  0  0  0  0  0  0  0  0  0
   -3.1448    3.5949   -1.1304 C   0  0  0  0  0  0  0  0  0  0  0  0
   -3.5497    4.1585    0.0796 C   0  0  0  0  0  0  0  0  0  0  0  0
  1  6  1  0
  1  9  1  0
  2 16  1  0
  2 19  1  0
  3 11  2  0
  4 19  2  0
  5 14  1  0
  5 22  1  0
  5 23  1  0
  6  7  2  0
  6 10  1  0
  7 11  1  0
  7 13  1  0
  8  9  2  0
  8 11  1  0
  8 18  1  0
  9 12  1  0
 10 15  2  0
 10 19  1  0
 12 20  2  0
 12 21  1  0
 13 17  2  0
 14 16  1  0
 15 17  1  0
 20 24  1  0
 21 25  2  0
 24 26  2  0
 25 26  1  0
M  END
>  <PUBCHEM_COMPOUND_CID>  (1) 
18969

>  <PUBCHEM_CONFORMER_RMSD>  (1) 
0.8

>  <PUBCHEM_CONFORMER_DIVERSEORDER>  (1) 
1
23
36
4
17
15
10
34
2
19
9
5
11
26
21
12
22
28
20
33
6
31
29
18
16
35
13
27
8
14
3
30
25
32
24
7

>  <PUBCHEM_MMFF94_PARTIAL_CHARGES>  (1) 
34
1 -0.16
10 0.09
11 0.47
12 0.03
13 -0.15
14 0.27
15 -0.15
16 0.28
17 -0.15
18 0.14
19 0.63
2 -0.43
20 -0.15
21 -0.15
22 0.27
23 0.27
24 -0.15
25 -0.15
26 -0.15
27 0.15
3 -0.57
30 0.15
33 0.15
37 0.15
38 0.15
4 -0.57
45 0.15
46 0.15
47 0.15
5 -0.81
6 0.08
7 0.09
8 -0.12
9 0.05

>  <PUBCHEM_EFFECTIVE_ROTOR_COUNT>  (1) 
6

>  <PUBCHEM_PHARMACOPHORE_FEATURES>  (1) 
7
1 1 acceptor
1 3 acceptor
1 4 acceptor
1 5 cation
6 1 6 7 8 9 11 rings
6 12 20 21 24 25 26 rings
6 6 7 10 13 15 17 rings

>  <PUBCHEM_HEAVY_ATOM_COUNT>  (1) 
26

>  <PUBCHEM_ATOM_DEF_STEREO_COUNT>  (1) 
0

>  <PUBCHEM_ATOM_UDEF_STEREO_COUNT>  (1) 
0

>  <PUBCHEM_BOND_DEF_STEREO_COUNT>  (1) 
0

>  <PUBCHEM_BOND_UDEF_STEREO_COUNT>  (1) 
0

>  <PUBCHEM_ISOTOPIC_ATOM_COUNT>  (1) 
0

>  <PUBCHEM_COMPONENT_COUNT>  (1) 
1

>  <PUBCHEM_CACTVS_TAUTO_COUNT>  (1) 
1

>  <PUBCHEM_CONFORMER_ID>  (1) 
00004A1900000001

>  <PUBCHEM_MMFF94_ENERGY>  (1) 
79.537

>  <PUBCHEM_FEATURE_SELFOVERLAP>  (1) 
35.557

>  <PUBCHEM_SHAPE_FINGERPRINT>  (1) 
10165383 225 18271535217029739433
10411042 1 17834114530145572195
10615611 76 17531545255683865748
10670039 82 18410852192227995648
10871710 139 18410570700013244333
10937287 8 18338797788812510056
11135609 187 18265039238246504333
12107183 9 18190167998426841586
12390115 104 18340495482269204592
12422481 6 17679288682049833776
12788726 201 18264759020835004691
12954195 1 18343022224440613090
13140716 1 18194122043771412299
13911987 19 18263625399368163999
14251757 5 18266741466591265138
14251764 75 18053672377922442089
14508225 48 17765984387367893599
14713325 29 18335710476152661099
14790565 3 18337674122858562050
15021287 119 17168140153393066972
15183329 4 18333731334855090022
15575132 122 18187358844173849069
20642791 178 18266168427844841570
21033650 10 18191047745088517550
21279426 13 18200319806423651374
21307412 95 13148981426860422885
21796203 349 17540005048630709011
22122407 14 15719389551367900110
23558518 356 18263077713696941507
23559900 14 18056757865948697400
283562 15 18409726300827107427
350125 39 18411981360488958185
469060 322 18335999644138004841
474 4 17478317640380330409
5252454 2 18270115695683403713
5283173 99 18341899623706723408
550186 7 18272096053821990158
57527452 28 15286210630726206875
57724786 102 17763467218752323785
6034566 193 18338237046799930697
6327066 14 18189892028828434765
6700243 42 17335103347322587022
7808743 9 18410291389441880320

>  <PUBCHEM_SHAPE_MULTIPOLES>  (1) 
506.61
12.55
5.61
0.97
28.12
0.26
-0.05
-12.77
2.41
-5.34
0.36
-0.53
-0.64
-1.3

>  <PUBCHEM_SHAPE_SELFOVERLAP>  (1) 
1095.172

>  <PUBCHEM_SHAPE_VOLUME>  (1) 
279.2

>  <PUBCHEM_COORDINATE_TYPE>  (1) 
2
5
10

$$$$
