18975
     RDKit          3D

 30 32  0  0  0  0  0  0  0  0999 V2000
   -2.1187   -1.6594    0.2350 O   0  0  0  0  0  0  0  0  0  0  0  0
    1.6138   -0.1337    0.1708 O   0  0  0  0  0  0  0  0  0  0  0  0
   -0.8537    0.0138    1.1833 O   0  0  0  0  0  0  0  0  0  0  0  0
    4.8196   -2.5492   -0.5054 O   0  0  0  0  0  0  0  0  0  0  0  0
   -4.7240    0.7812   -0.6926 N   0  0  0  0  0  0  0  0  0  0  0  0
   -5.9061   -0.0771   -0.5822 C   0  0  0  0  0  0  0  0  0  0  0  0
   -4.6337    1.6688    0.4693 C   0  0  0  0  0  0  0  0  0  0  0  0
   -3.5163   -0.0204   -0.8233 C   0  0  0  0  0  0  0  0  0  0  0  0
   -6.0571   -0.9001   -1.8576 C   0  0  0  0  0  0  0  0  0  0  0  0
   -5.7917   -0.9801    0.6427 C   0  0  0  0  0  0  0  0  0  0  0  0
   -3.4034    2.5601    0.3330 C   0  0  0  0  0  0  0  0  0  0  0  0
   -5.9045    2.5043    0.5969 C   0  0  0  0  0  0  0  0  0  0  0  0
   -3.3045   -0.8775    0.4143 C   0  0  0  0  0  0  0  0  0  0  0  0
    0.1842   -1.9938    0.4234 C   0  0  0  0  0  0  0  0  0  0  0  0
    1.4638   -1.4943    0.1782 C   0  0  0  0  0  0  0  0  0  0  0  0
   -0.9447   -1.1038    0.6618 C   0  0  0  0  0  0  0  0  0  0  0  0
    2.5222   -2.3686   -0.0466 C   0  0  0  0  0  0  0  0  0  0  0  0
    3.9865   -0.3288   -0.2999 C   0  0  0  0  0  0  0  0  0  0  0  0
    2.8703    0.3926   -0.0732 C   0  0  0  0  0  0  0  0  0  0  0  0
    3.8609   -1.8150   -0.3013 C   0  0  0  0  0  0  0  0  0  0  0  0
   -0.0313   -3.3718    0.4427 C   0  0  0  0  0  0  0  0  0  0  0  0
    2.3105   -3.7499   -0.0288 C   0  0  0  0  0  0  0  0  0  0  0  0
    2.8650    1.8617   -0.0537 C   0  0  0  0  0  0  0  0  0  0  0  0
    1.0304   -4.2483    0.2170 C   0  0  0  0  0  0  0  0  0  0  0  0
    5.3671    0.2085   -0.5446 C   0  0  0  0  0  0  0  0  0  0  0  0
    2.6313    2.5746   -1.2302 C   0  0  0  0  0  0  0  0  0  0  0  0
    3.0936    2.5451    1.1411 C   0  0  0  0  0  0  0  0  0  0  0  0
    2.6266    3.9693   -1.2119 C   0  0  0  0  0  0  0  0  0  0  0  0
    3.0887    3.9399    1.1592 C   0  0  0  0  0  0  0  0  0  0  0  0
    2.8552    4.6519   -0.0174 C   0  0  0  0  0  0  0  0  0  0  0  0
  1 13  1  0
  1 16  1  0
  2 15  1  0
  2 19  1  0
  3 16  2  0
  4 20  2  0
  5  6  1  0
  5  7  1  0
  5  8  1  0
  6  9  1  0
  6 10  1  0
  7 11  1  0
  7 12  1  0
  8 13  1  0
 14 15  2  0
 14 16  1  0
 14 21  1  0
 15 17  1  0
 17 20  1  0
 17 22  2  0
 18 19  2  0
 18 20  1  0
 18 25  1  0
 19 23  1  0
 21 24  2  0
 22 24  1  0
 23 26  2  0
 23 27  1  0
 26 28  1  0
 27 29  2  0
 28 30  2  0
 29 30  1  0
M  END
>  <PUBCHEM_COMPOUND_CID>  (1) 
18975

>  <PUBCHEM_CONFORMER_RMSD>  (1) 
1

>  <PUBCHEM_CONFORMER_DIVERSEORDER>  (1) 
4
49
13
37
25
36
44
18
43
11
19
17
38
50
15
42
30
12
1
3
22
20
51
21
2
48
8
33
35
39
34
40
45
26
16
31
47
32
6
10
14
29
28
24
23
27
7
41
9
5
46

>  <PUBCHEM_MMFF94_PARTIAL_CHARGES>  (1) 
34
1 -0.43
13 0.28
14 0.09
15 0.08
16 0.63
17 0.09
18 -0.12
19 0.05
2 -0.16
20 0.47
21 -0.15
22 -0.15
23 0.03
24 -0.15
25 0.14
26 -0.15
27 -0.15
28 -0.15
29 -0.15
3 -0.57
30 -0.15
4 -0.57
49 0.15
5 -0.81
50 0.15
51 0.15
55 0.15
56 0.15
57 0.15
58 0.15
59 0.15
6 0.27
7 0.27
8 0.27

>  <PUBCHEM_EFFECTIVE_ROTOR_COUNT>  (1) 
8

>  <PUBCHEM_PHARMACOPHORE_FEATURES>  (1) 
9
1 2 acceptor
1 3 acceptor
1 4 acceptor
1 5 cation
3 6 9 10 hydrophobe
3 7 11 12 hydrophobe
6 14 15 17 21 22 24 rings
6 2 15 17 18 19 20 rings
6 23 26 27 28 29 30 rings

>  <PUBCHEM_HEAVY_ATOM_COUNT>  (1) 
30

>  <PUBCHEM_ATOM_DEF_STEREO_COUNT>  (1) 
0

>  <PUBCHEM_ATOM_UDEF_STEREO_COUNT>  (1) 
0

>  <PUBCHEM_BOND_DEF_STEREO_COUNT>  (1) 
0

>  <PUBCHEM_BOND_UDEF_STEREO_COUNT>  (1) 
0

>  <PUBCHEM_ISOTOPIC_ATOM_COUNT>  (1) 
0

>  <PUBCHEM_COMPONENT_COUNT>  (1) 
1

>  <PUBCHEM_CACTVS_TAUTO_COUNT>  (1) 
1

>  <PUBCHEM_CONFORMER_ID>  (1) 
00004A1F00000004

>  <PUBCHEM_MMFF94_ENERGY>  (1) 
120.7625

>  <PUBCHEM_FEATURE_SELFOVERLAP>  (1) 
45.706

>  <PUBCHEM_SHAPE_FINGERPRINT>  (1) 
10439779 11 18410566267601863266
10483366 6 18262819419017242316
10937287 8 18193555794591686151
12166972 35 18272088266603196450
12769317 202 18410006632920082450
12925494 130 18337110073773840929
13590594 115 17977108950609496225
1361 2 18337105799769483461
13617811 41 18195230339019213165
13944108 23 18262525771275266780
13965767 371 17826776321333319884
14068700 675 18130503029508876080
14251764 38 18409733997334265445
14466204 15 18336821997062397264
14468879 13 17971759027739765737
14848178 96 18337389460610150089
14849402 71 18409453591704262692
15003188 100 18336541707164584687
15082195 135 18267564859509751373
15320467 1 18337956697110186113
15326921 28 17407382007717802080
16988056 13 18338228272181530900
1768 85 18338527451266227619
17844677 252 18412550882058788275
18681886 176 18270674273545019674
19319366 153 18270950371285355607
20567600 299 18411419471165637900
20715895 44 18338226193311767128
21133410 127 17897160432435446189
21860390 5 18271252620913388902
22149856 69 18266192789495066851
23522609 53 17845951705938489465
23559900 14 18410570673995624731
245318 6 17824273806740197437
24771293 8 18271231743536409130
283562 15 17976829688623000818
4015057 19 18190181192128862763
44317340 157 18412260654144313949
508180 173 18340785753639384376
508706 21 17603579687153193757
53794403 172 18263368160306315820
6086070 43 17971167271862845263
6371009 1 18338502131985903825
6443956 14 18338522932997548620
9981440 41 18120650494321399345

>  <PUBCHEM_SHAPE_MULTIPOLES>  (1) 
588.93
13.48
6.01
1.1
20.18
2.05
0.2
4.76
2.6
-7.22
-0.46
0.53
0.49
-0.33

>  <PUBCHEM_SHAPE_SELFOVERLAP>  (1) 
1263.718

>  <PUBCHEM_SHAPE_VOLUME>  (1) 
327.5

>  <PUBCHEM_COORDINATE_TYPE>  (1) 
2
5
10

$$$$
