18971
     RDKit          3D

 28 30  0  0  0  0  0  0  0  0999 V2000
   -1.0594    0.0120   -0.1905 O   0  0  0  0  0  0  0  0  0  0  0  0
    0.5636   -1.7610    0.1032 O   0  0  0  0  0  0  0  0  0  0  0  0
   -4.8814    1.2166    0.5235 O   0  0  0  0  0  0  0  0  0  0  0  0
    0.0019   -3.6817   -1.0345 O   0  0  0  0  0  0  0  0  0  0  0  0
    4.1952   -1.1953    0.4128 N   0  0  0  0  0  0  0  0  0  0  0  0
    2.7708   -0.9387    0.5642 C   0  0  0  0  0  0  0  0  0  0  0  0
    4.5587   -1.2816   -1.0038 C   0  0  0  0  0  0  0  0  0  0  0  0
    4.9829   -0.1518    1.0738 C   0  0  0  0  0  0  0  0  0  0  0  0
    1.9542   -2.0450   -0.0846 C   0  0  0  0  0  0  0  0  0  0  0  0
   -2.0580   -0.9139   -0.0515 C   0  0  0  0  0  0  0  0  0  0  0  0
   -3.3812   -0.5614    0.1935 C   0  0  0  0  0  0  0  0  0  0  0  0
   -1.7017   -2.2582   -0.1647 C   0  0  0  0  0  0  0  0  0  0  0  0
   -2.6158    1.8431    0.1480 C   0  0  0  0  0  0  0  0  0  0  0  0
   -1.3803    1.3537   -0.0798 C   0  0  0  0  0  0  0  0  0  0  0  0
   -3.7291    0.8631    0.3069 C   0  0  0  0  0  0  0  0  0  0  0  0
    6.0306   -1.6176   -1.1735 C   0  0  0  0  0  0  0  0  0  0  0  0
    4.6237   -0.0426    2.5459 C   0  0  0  0  0  0  0  0  0  0  0  0
   -0.3243   -2.6590   -0.4205 C   0  0  0  0  0  0  0  0  0  0  0  0
   -4.3598   -1.5501    0.3280 C   0  0  0  0  0  0  0  0  0  0  0  0
   -0.2031    2.2169   -0.2467 C   0  0  0  0  0  0  0  0  0  0  0  0
   -2.6755   -3.2480   -0.0317 C   0  0  0  0  0  0  0  0  0  0  0  0
   -4.0025   -2.8942    0.2142 C   0  0  0  0  0  0  0  0  0  0  0  0
   -3.0022    3.2903    0.2507 C   0  0  0  0  0  0  0  0  0  0  0  0
    0.5579    2.5820    0.8643 C   0  0  0  0  0  0  0  0  0  0  0  0
    0.1547    2.6722   -1.5161 C   0  0  0  0  0  0  0  0  0  0  0  0
    1.6753    3.4017    0.7061 C   0  0  0  0  0  0  0  0  0  0  0  0
    1.2723    3.4918   -1.6742 C   0  0  0  0  0  0  0  0  0  0  0  0
    2.0325    3.8565   -0.5630 C   0  0  0  0  0  0  0  0  0  0  0  0
  1 10  1  0
  1 14  1  0
  2  9  1  0
  2 18  1  0
  3 15  2  0
  4 18  2  0
  5  6  1  0
  5  7  1  0
  5  8  1  0
  6  9  1  0
  7 16  1  0
  8 17  1  0
 10 11  2  0
 10 12  1  0
 11 15  1  0
 11 19  1  0
 12 18  1  0
 12 21  2  0
 13 14  2  0
 13 15  1  0
 13 23  1  0
 14 20  1  0
 19 22  2  0
 20 24  2  0
 20 25  1  0
 21 22  1  0
 24 26  1  0
 25 27  2  0
 26 28  2  0
 27 28  1  0
M  END
>  <PUBCHEM_COMPOUND_CID>  (1) 
18971

>  <PUBCHEM_CONFORMER_RMSD>  (1) 
1

>  <PUBCHEM_CONFORMER_DIVERSEORDER>  (1) 
1
26
23
38
35
28
8
30
34
37
2
15
19
29
27
18
16
31
36
39
4
3
25
24
12
41
5
40
21
32
10
33
13
9
6
7
14
17
22
11
20

>  <PUBCHEM_MMFF94_PARTIAL_CHARGES>  (1) 
34
1 -0.16
10 0.08
11 0.09
12 0.09
13 -0.12
14 0.05
15 0.47
18 0.63
19 -0.15
2 -0.43
20 0.03
21 -0.15
22 -0.15
23 0.14
24 -0.15
25 -0.15
26 -0.15
27 -0.15
28 -0.15
3 -0.57
4 -0.57
43 0.15
44 0.15
45 0.15
49 0.15
5 -0.81
50 0.15
51 0.15
52 0.15
53 0.15
6 0.27
7 0.27
8 0.27
9 0.28

>  <PUBCHEM_EFFECTIVE_ROTOR_COUNT>  (1) 
8

>  <PUBCHEM_PHARMACOPHORE_FEATURES>  (1) 
7
1 1 acceptor
1 3 acceptor
1 4 acceptor
1 5 cation
6 1 10 11 13 14 15 rings
6 10 11 12 19 21 22 rings
6 20 24 25 26 27 28 rings

>  <PUBCHEM_HEAVY_ATOM_COUNT>  (1) 
28

>  <PUBCHEM_ATOM_DEF_STEREO_COUNT>  (1) 
0

>  <PUBCHEM_ATOM_UDEF_STEREO_COUNT>  (1) 
0

>  <PUBCHEM_BOND_DEF_STEREO_COUNT>  (1) 
0

>  <PUBCHEM_BOND_UDEF_STEREO_COUNT>  (1) 
0

>  <PUBCHEM_ISOTOPIC_ATOM_COUNT>  (1) 
0

>  <PUBCHEM_COMPONENT_COUNT>  (1) 
1

>  <PUBCHEM_CACTVS_TAUTO_COUNT>  (1) 
1

>  <PUBCHEM_CONFORMER_ID>  (1) 
00004A1B00000001

>  <PUBCHEM_MMFF94_ENERGY>  (1) 
76.9563

>  <PUBCHEM_FEATURE_SELFOVERLAP>  (1) 
35.55

>  <PUBCHEM_SHAPE_FINGERPRINT>  (1) 
10006869 2 17977940190465107515
10369192 42 17557966615205957680
10670039 82 18335426712828852142
10675989 125 14883672057528183670
1100329 8 18411146822673638289
11112241 14 16915063383635323816
11513181 2 17915743278861591510
11963148 33 17036970880662214667
12156800 1 16340654268700537272
12422481 6 18268729340918111811
12553582 1 18335133146912164548
13140716 1 18338807818352495707
13402501 40 18201438009506363174
14020679 6 17895772733249359643
14117953 113 18265335001713446796
14790565 3 17691692186212486649
14955137 171 18194991611023136403
15297060 5 18127429864655376396
1813 80 17822562889248158720
18336668 15 18113626689879537220
19591789 44 18267592492785917093
20600515 1 18270696255097736244
20642791 178 18335434473312438205
20905425 154 17981903143513575341
21033648 29 17846203475935509234
21421861 104 18120098530836532289
23366157 5 17825105063083788660
23557571 272 18270690770593115646
23559900 14 18339919415549042889
338550 245 18119528984008743740
350125 39 18338240470241676281
4409770 3 17681531667957936852
6287921 2 18126275587683312002
6823239 73 18343869926968836248

>  <PUBCHEM_SHAPE_MULTIPOLES>  (1) 
547.77
9.91
5.56
1.31
7.86
2.45
0.28
-5.61
1.85
-0.83
-1.44
2.01
0.4
0.02

>  <PUBCHEM_SHAPE_SELFOVERLAP>  (1) 
1173.559

>  <PUBCHEM_SHAPE_VOLUME>  (1) 
304.4

>  <PUBCHEM_COORDINATE_TYPE>  (1) 
2
5
10

$$$$
