18989
     RDKit          2D

 30 31  0  0  1  0  0  0  0  0999 V2000
    0.0000    0.0000    0.0000 S   0  0  0  0  0  0  0  0  0  0  0  0
    0.0000    0.0000    0.0000 P   0  0  0  0  0  0  0  0  0  0  0  0
    0.0000    0.0000    0.0000 P   0  0  0  0  0  0  0  0  0  0  0  0
    0.0000    0.0000    0.0000 P   0  0  0  0  0  0  0  0  0  0  0  0
    0.0000    0.0000    0.0000 O   0  0  0  0  0  0  0  0  0  0  0  0
    0.0000    0.0000    0.0000 O   0  0  0  0  0  0  0  0  0  0  0  0
    0.0000    0.0000    0.0000 O   0  0  0  0  0  0  0  0  0  0  0  0
    0.0000    0.0000    0.0000 O   0  0  0  0  0  0  0  0  0  0  0  0
    0.0000    0.0000    0.0000 O   0  0  0  0  0  0  0  0  0  0  0  0
    0.0000    0.0000    0.0000 O   0  0  0  0  0  0  0  0  0  0  0  0
    0.0000    0.0000    0.0000 O   0  0  0  0  0  0  0  0  0  0  0  0
    0.0000    0.0000    0.0000 O   0  0  0  0  0  0  0  0  0  0  0  0
    0.0000    0.0000    0.0000 O   0  0  0  0  0  0  0  0  0  0  0  0
    0.0000    0.0000    0.0000 O   0  0  0  0  0  0  0  0  0  0  0  0
    0.0000    0.0000    0.0000 N   0  0  0  0  0  0  0  0  0  0  0  0
    0.0000    0.0000    0.0000 N   0  0  0  0  0  0  0  0  0  0  0  0
    0.0000    0.0000    0.0000 N   0  0  0  0  0  0  0  0  0  0  0  0
    0.0000    0.0000    0.0000 N   0  0  0  0  0  0  0  0  0  0  0  0
    0.0000    0.0000    0.0000 C   0  0  0  0  0  0  0  0  0  0  0  0
    0.0000    0.0000    0.0000 C   0  0  0  0  0  0  0  0  0  0  0  0
    0.0000    0.0000    0.0000 C   0  0  0  0  0  0  0  0  0  0  0  0
    0.0000    0.0000    0.0000 C   0  0  0  0  0  0  0  0  0  0  0  0
    0.0000    0.0000    0.0000 C   0  0  0  0  0  0  0  0  0  0  0  0
    0.0000    0.0000    0.0000 C   0  0  0  0  0  0  0  0  0  0  0  0
    0.0000    0.0000    0.0000 C   0  0  0  0  0  0  0  0  0  0  0  0
    0.0000    0.0000    0.0000 C   0  0  0  0  0  0  0  0  0  0  0  0
    0.0000    0.0000    0.0000 C   0  0  0  0  0  0  0  0  0  0  0  0
    0.0000    0.0000    0.0000 C   0  0  0  0  0  0  0  0  0  0  0  0
    0.0000    0.0000    0.0000 C   0  0  0  0  0  0  0  0  0  0  0  0
    0.0000    0.0000    0.0000 C   0  0  0  0  0  0  0  0  0  0  0  0
  1 20  1  0
  1 23  1  0
  2  5  1  0
  2  6  1  0
  2  7  1  0
  2  8  2  0
  3  6  1  0
  3  9  1  0
  3 10  1  0
  3 11  2  0
  4  9  1  0
  4 12  1  0
  4 13  1  0
  4 14  2  0
  5 24  1  0
 15 19  1  0
 15 21  1  0
 15 23  2  0
 16 27  2  0
 16 29  1  0
 17 28  1  0
 17 29  2  0
 18 27  1  0
 19 20  2  0
 19 25  1  0
 20 22  1  0
 21 26  1  0
 22 24  1  0
 26 27  1  0
 26 28  2  0
 29 30  1  0
M  CHG  2  13  -1  15   1
M  END
>  <PUBCHEM_COMPOUND_CID>  (1) 
18989

>  <PUBCHEM_CONFORMER_RMSD>  (1) 
1.2

>  <PUBCHEM_CONFORMER_DIVERSEORDER>  (1) 
180
102
264
119
225
184
141
189
85
3
82
110
198
8
161
33
37
234
140
265
35
282
93
40
288
287
192
23
292
27
217
211
9
63
250
185
289
172
130
58
104
87
193
261
165
214
13
207
171
269
188
43
262
131
293
96
136
242
252
42
126
223
107
206
237
178
162
1
209
276
156
194
2
204
256
10
197
286
4
191
115
88
32
12
203
60
100
277
101
196
201
202
285
255
294
69
249
135
291
105
280
259
270
45
208
159
38
150
230
29
72
138
80
263
183
187
53
44
245
247
231
113
57
169
125
243
260
11
272
149
56
205
179
251
151
254
48
268
109
215
31
20
71
81
278
275
160
235
227
200
283
116
97
258
199
273
182
220
144
120
195
95
7
271
124
68
28
59
134
186
170
62
50
226
164
133
142
267
84
128
5
213
284
146
236
232
290
244
177
54
224
106
181
175
118
73
77
246
296
91
74
117
15
248
21
34
157
281
153
238
216
212
114
257
266
218
253
19
241
295
240
274
55
22
76
89
221
16
52
121
143
222
163
137
154
67
108
176
66
92
147
173
65
168
139
239
233
190
167
70
18
17
14
25
228
148
279
46
155
36
79
166
49
6
219
112
94
132
47
30
158
229
111
64
61
122
75
145
78
26
129
24
123
39
83
103
98
174
51
90
152
41
210
86
127
99

>  <PUBCHEM_MMFF94_PARTIAL_CHARGES>  (1) 
37
1 -0.08
10 -0.77
11 -0.7
12 -0.77
13 -0.95
14 -0.95
15 -0.18
16 -0.62
17 -0.62
18 -0.9
19 0.15
2 1.51
20 -0.14
21 0.66
22 0.18
23 0.22
24 0.28
25 0.18
26 -0.14
27 0.41
28 0.16
29 0.48
3 1.51
30 0.14
35 0.15
4 1.44
41 0.15
42 0.4
43 0.4
47 0.5
48 0.5
49 0.5
5 -0.55
6 -0.54
7 -0.77
8 -0.7
9 -0.54

>  <PUBCHEM_EFFECTIVE_ROTOR_COUNT>  (1) 
10

>  <PUBCHEM_PHARMACOPHORE_FEATURES>  (1) 
13
1 10 acceptor
1 11 acceptor
1 12 acceptor
1 13 acceptor
1 14 acceptor
1 18 donor
1 7 acceptor
1 8 acceptor
3 16 17 29 cation
3 16 18 27 cation
4 4 12 13 14 anion
5 1 15 19 20 23 rings
6 16 17 26 27 28 29 rings

>  <PUBCHEM_HEAVY_ATOM_COUNT>  (1) 
30

>  <PUBCHEM_ATOM_DEF_STEREO_COUNT>  (1) 
0

>  <PUBCHEM_ATOM_UDEF_STEREO_COUNT>  (1) 
0

>  <PUBCHEM_BOND_DEF_STEREO_COUNT>  (1) 
0

>  <PUBCHEM_BOND_UDEF_STEREO_COUNT>  (1) 
0

>  <PUBCHEM_ISOTOPIC_ATOM_COUNT>  (1) 
0

>  <PUBCHEM_COMPONENT_COUNT>  (1) 
1

>  <PUBCHEM_CACTVS_TAUTO_COUNT>  (1) 
3

$$$$
