18980
     RDKit          3D

 11 12  0  0  0  0  0  0  0  0999 V2000
    2.0515   -0.0053   -0.0007 N   0  0  0  0  0  0  0  0  0  0  0  0
    1.6706   -2.3660    0.0010 N   0  0  0  0  0  0  0  0  0  0  0  0
    1.6997    2.3172   -0.0001 N   0  0  0  0  0  0  0  0  0  0  0  0
   -0.1359   -0.6786    0.0000 C   0  0  0  0  0  0  0  0  0  0  0  0
   -0.1537    0.7051    0.0004 C   0  0  0  0  0  0  0  0  0  0  0  0
    1.2778   -1.0589   -0.0002 C   0  0  0  0  0  0  0  0  0  0  0  0
    1.2401    1.1149   -0.0002 C   0  0  0  0  0  0  0  0  0  0  0  0
   -1.2963   -1.4240   -0.0006 C   0  0  0  0  0  0  0  0  0  0  0  0
   -1.3300    1.4238    0.0007 C   0  0  0  0  0  0  0  0  0  0  0  0
   -2.5036   -0.7192   -0.0005 C   0  0  0  0  0  0  0  0  0  0  0  0
   -2.5202    0.6909    0.0002 C   0  0  0  0  0  0  0  0  0  0  0  0
  1  6  2  0
  1  7  1  0
  2  6  1  0
  3  7  2  0
  4  5  2  0
  4  6  1  0
  4  8  1  0
  5  7  1  0
  5  9  1  0
  8 10  2  0
  9 11  2  0
 10 11  1  0
M  END
>  <PUBCHEM_COMPOUND_CID>  (1) 
18980

>  <PUBCHEM_CONFORMER_RMSD>  (1) 
0.4

>  <PUBCHEM_CONFORMER_DIVERSEORDER>  (1) 
1

>  <PUBCHEM_MMFF94_PARTIAL_CHARGES>  (1) 
18
1 -0.66
10 -0.15
11 -0.15
12 0.15
13 0.15
14 0.15
15 0.15
16 0.4
17 0.4
18 0.4
2 -0.85
3 -0.85
4 0.09
5 0.09
6 0.41
7 0.57
8 -0.15
9 -0.15

>  <PUBCHEM_EFFECTIVE_ROTOR_COUNT>  (1) 
0

>  <PUBCHEM_PHARMACOPHORE_FEATURES>  (1) 
6
1 2 donor
1 3 donor
3 1 2 6 cation
3 1 3 7 cation
5 1 4 5 6 7 rings
6 4 5 8 9 10 11 rings

>  <PUBCHEM_HEAVY_ATOM_COUNT>  (1) 
11

>  <PUBCHEM_ATOM_DEF_STEREO_COUNT>  (1) 
0

>  <PUBCHEM_ATOM_UDEF_STEREO_COUNT>  (1) 
0

>  <PUBCHEM_BOND_DEF_STEREO_COUNT>  (1) 
0

>  <PUBCHEM_BOND_UDEF_STEREO_COUNT>  (1) 
0

>  <PUBCHEM_ISOTOPIC_ATOM_COUNT>  (1) 
0

>  <PUBCHEM_COMPONENT_COUNT>  (1) 
1

>  <PUBCHEM_CACTVS_TAUTO_COUNT>  (1) 
2

>  <PUBCHEM_CONFORMER_ID>  (1) 
00004A2400000001

>  <PUBCHEM_MMFF94_ENERGY>  (1) 
34.7318

>  <PUBCHEM_FEATURE_SELFOVERLAP>  (1) 
30.588

>  <PUBCHEM_SHAPE_FINGERPRINT>  (1) 
12423570 1 15392348966013663196
12524768 44 18334857238207612789
12897270 3 18338236093153128069
16945 1 18410575084789679461
17990270 104 18410854326346752299
18185500 45 18193838141499648339
193761 8 18410855460291679109
19973954 147 18410857642272319489
21040471 1 17906172111313474048
23552423 10 18408887355968750839
241688 4 17906452125795387738
2748010 2 18049445034600764727
5084963 1 18202003269466270689
528886 8 18051127287538994081
7364860 26 18343019991046835818

>  <PUBCHEM_SHAPE_MULTIPOLES>  (1) 
211.43
3.18
2.22
0.59
0.93
0.05
0
0
0
-1.04
0
0.04
0
0

>  <PUBCHEM_SHAPE_SELFOVERLAP>  (1) 
469.851

>  <PUBCHEM_SHAPE_VOLUME>  (1) 
110.5

>  <PUBCHEM_COORDINATE_TYPE>  (1) 
2
5
10

$$$$
