18992
     RDKit          3D

 12 13  0  0  0  0  0  0  0  0999 V2000
    1.0573   -2.6501    0.0033 O   0  0  0  0  0  0  0  0  0  0  0  0
    1.0239    1.3796    0.0009 N   0  0  0  0  0  0  0  0  0  0  0  0
    2.2446   -0.6941   -0.0025 N   0  0  0  0  0  0  0  0  0  0  0  0
   -0.2171    0.7220    0.0004 C   0  0  0  0  0  0  0  0  0  0  0  0
   -0.2278   -0.6883   -0.0004 C   0  0  0  0  0  0  0  0  0  0  0  0
   -1.4548    1.3842    0.0006 C   0  0  0  0  0  0  0  0  0  0  0  0
   -1.4304   -1.4064   -0.0012 C   0  0  0  0  0  0  0  0  0  0  0  0
    1.0719   -1.4231    0.0002 C   0  0  0  0  0  0  0  0  0  0  0  0
    1.0774    2.8344    0.0011 C   0  0  0  0  0  0  0  0  0  0  0  0
    2.1540    0.5966   -0.0016 C   0  0  0  0  0  0  0  0  0  0  0  0
   -2.6557    0.6685    0.0001 C   0  0  0  0  0  0  0  0  0  0  0  0
   -2.6433   -0.7232   -0.0009 C   0  0  0  0  0  0  0  0  0  0  0  0
  1  8  2  0
  2  4  1  0
  2  9  1  0
  2 10  1  0
  3  8  1  0
  3 10  2  0
  4  5  2  0
  4  6  1  0
  5  7  1  0
  5  8  1  0
  6 11  2  0
  7 12  2  0
 11 12  1  0
M  END
>  <PUBCHEM_COMPOUND_CID>  (1) 
18992

>  <PUBCHEM_CONFORMER_RMSD>  (1) 
0.4

>  <PUBCHEM_CONFORMER_DIVERSEORDER>  (1) 
1

>  <PUBCHEM_MMFF94_PARTIAL_CHARGES>  (1) 
17
1 -0.57
10 0.44
11 -0.15
12 -0.15
13 0.15
14 0.15
18 0.06
19 0.15
2 -0.52
20 0.15
3 -0.66
4 0.1
5 0.09
6 -0.15
7 -0.15
8 0.69
9 0.37

>  <PUBCHEM_EFFECTIVE_ROTOR_COUNT>  (1) 
0

>  <PUBCHEM_PHARMACOPHORE_FEATURES>  (1) 
4
1 1 acceptor
1 3 donor
6 2 3 4 5 8 10 rings
6 4 5 6 7 11 12 rings

>  <PUBCHEM_HEAVY_ATOM_COUNT>  (1) 
12

>  <PUBCHEM_ATOM_DEF_STEREO_COUNT>  (1) 
0

>  <PUBCHEM_ATOM_UDEF_STEREO_COUNT>  (1) 
0

>  <PUBCHEM_BOND_DEF_STEREO_COUNT>  (1) 
0

>  <PUBCHEM_BOND_UDEF_STEREO_COUNT>  (1) 
0

>  <PUBCHEM_ISOTOPIC_ATOM_COUNT>  (1) 
0

>  <PUBCHEM_COMPONENT_COUNT>  (1) 
1

>  <PUBCHEM_CACTVS_TAUTO_COUNT>  (1) 
1

>  <PUBCHEM_CONFORMER_ID>  (1) 
00004A3000000001

>  <PUBCHEM_MMFF94_ENERGY>  (1) 
38.1897

>  <PUBCHEM_FEATURE_SELFOVERLAP>  (1) 
20.322

>  <PUBCHEM_SHAPE_FINGERPRINT>  (1) 
10967382 1 18410574002426272359
11471102 20 18410289220820616093
12423570 1 15303406541132748510
12524768 44 18055073164241123903
13380535 76 17908699884351101020
16945 1 18410573989694338277
17990270 104 18410292488837275003
18185500 45 18339361851141452939
193761 8 17762338419815596966
20871998 184 16613932716695952804
21040471 1 17906172111223783776
22802520 49 17261342673939175788
2334 1 17978228592949454661
23463225 33 18335133160007998138
23552423 10 18409729603476927839
23559900 14 18270974428141206742
241688 4 17978230452459258657
2748010 2 18122905326461070719
2897 32 18338236071546461701
5084963 1 18059017318439302225
528886 8 18411132571428668867
63268167 104 18338237050988863873
66348 1 18267867172734020769

>  <PUBCHEM_SHAPE_MULTIPOLES>  (1) 
231.12
3.32
2.64
0.59
1.09
0.08
0
0.33
0
-1.12
0
0.03
0.02
0

>  <PUBCHEM_SHAPE_SELFOVERLAP>  (1) 
502.005

>  <PUBCHEM_SHAPE_VOLUME>  (1) 
124.6

>  <PUBCHEM_COORDINATE_TYPE>  (1) 
2
5
10

$$$$
