1900
     RDKit          3D

 21 24  0  0  1  0  0  0  0  0999 V2000
    5.4437    0.1652   -0.0889 O   0  0  0  0  0  0  0  0  0  0  0  0
    3.8436   -1.5664    1.4836 O   0  0  0  0  0  0  0  0  0  0  0  0
    3.3859    2.1121   -0.7719 O   0  0  0  0  0  0  0  0  0  0  0  0
    4.1094   -0.1525   -0.4827 C   0  0  0  0  0  0  0  0  0  0  0  0
    3.7283   -1.5278    0.0604 C   0  0  0  0  0  0  0  0  0  0  0  0
    3.1761    0.9482    0.0318 C   0  0  0  0  0  0  0  0  0  0  0  0
    2.3046   -1.8949   -0.3581 C   0  0  0  0  0  0  0  0  0  0  0  0
    1.7147    0.5609   -0.0135 C   0  0  0  0  0  0  0  0  0  0  0  0
    1.3104   -0.7697   -0.1739 C   0  0  0  0  0  0  0  0  0  0  0  0
   -0.0632   -1.0778   -0.2023 C   0  0  0  0  0  0  0  0  0  0  0  0
    0.7297    1.5421    0.1683 C   0  0  0  0  0  0  0  0  0  0  0  0
   -1.0758   -0.1002   -0.0411 C   0  0  0  0  0  0  0  0  0  0  0  0
   -0.6415    1.2327    0.1525 C   0  0  0  0  0  0  0  0  0  0  0  0
   -2.4879   -0.3847   -0.0588 C   0  0  0  0  0  0  0  0  0  0  0  0
   -1.5799    2.2533    0.3287 C   0  0  0  0  0  0  0  0  0  0  0  0
   -3.4107    0.6784    0.1218 C   0  0  0  0  0  0  0  0  0  0  0  0
   -2.9437    1.9807    0.3134 C   0  0  0  0  0  0  0  0  0  0  0  0
   -3.0375   -1.6779   -0.2467 C   0  0  0  0  0  0  0  0  0  0  0  0
   -4.7947    0.4348    0.1107 C   0  0  0  0  0  0  0  0  0  0  0  0
   -4.4163   -1.9067   -0.2562 C   0  0  0  0  0  0  0  0  0  0  0  0
   -5.2951   -0.8497   -0.0772 C   0  0  0  0  0  0  0  0  0  0  0  0
  1  4  1  0
  2  5  1  0
  3  6  1  0
  4  5  1  0
  4  6  1  0
  5  7  1  0
  6  8  1  0
  7  9  1  0
  8  9  2  0
  8 11  1  0
  9 10  1  0
 10 12  2  0
 11 13  2  0
 12 13  1  0
 12 14  1  0
 13 15  1  0
 14 16  2  0
 14 18  1  0
 15 17  2  0
 16 17  1  0
 16 19  1  0
 18 20  2  0
 19 21  2  0
 20 21  1  0
M  END
>  <PUBCHEM_COMPOUND_CID>  (1) 
1900

>  <PUBCHEM_CONFORMER_RMSD>  (1) 
0.6

>  <PUBCHEM_CONFORMER_DIVERSEORDER>  (1) 
2
5
6
4
3
1

>  <PUBCHEM_MMFF94_PARTIAL_CHARGES>  (1) 
28
1 -0.68
10 -0.15
11 -0.15
15 -0.15
17 -0.15
18 -0.15
19 -0.15
2 -0.68
20 -0.15
21 -0.15
27 0.15
28 0.15
29 0.4
3 -0.68
30 0.4
31 0.4
32 0.15
33 0.15
34 0.15
35 0.15
36 0.15
37 0.15
4 0.28
5 0.28
6 0.42
7 0.14
8 -0.14
9 -0.14

>  <PUBCHEM_EFFECTIVE_ROTOR_COUNT>  (1) 
0.8

>  <PUBCHEM_PHARMACOPHORE_FEATURES>  (1) 
10
1 1 acceptor
1 1 donor
1 2 acceptor
1 2 donor
1 3 acceptor
1 3 donor
6 12 13 14 15 16 17 rings
6 14 16 18 19 20 21 rings
6 4 5 6 7 8 9 rings
6 8 9 10 11 12 13 rings

>  <PUBCHEM_HEAVY_ATOM_COUNT>  (1) 
21

>  <PUBCHEM_ATOM_DEF_STEREO_COUNT>  (1) 
0

>  <PUBCHEM_ATOM_UDEF_STEREO_COUNT>  (1) 
3

>  <PUBCHEM_BOND_DEF_STEREO_COUNT>  (1) 
0

>  <PUBCHEM_BOND_UDEF_STEREO_COUNT>  (1) 
0

>  <PUBCHEM_ISOTOPIC_ATOM_COUNT>  (1) 
0

>  <PUBCHEM_COMPONENT_COUNT>  (1) 
1

>  <PUBCHEM_CACTVS_TAUTO_COUNT>  (1) 
1

>  <PUBCHEM_CONFORMER_ID>  (1) 
0000076C00000002

>  <PUBCHEM_MMFF94_ENERGY>  (1) 
66.4578

>  <PUBCHEM_FEATURE_SELFOVERLAP>  (1) 
50.823

>  <PUBCHEM_SHAPE_FINGERPRINT>  (1) 
10062212 137 18413384345826140551
10616163 171 18341898493344724535
10906281 52 18200329753493678813
10967382 1 18340487871518369973
11045515 52 18113897174162161421
11578080 2 17532072934901674252
11806522 49 18409450288573387446
12107183 9 17760929541376986154
12236239 1 18260268534164151486
12403259 226 18411695461448493280
12553582 1 18200865275063638367
12839892 36 18269541759161583762
13140716 1 18269833129673957056
13167823 11 18409166606105065715
13224815 77 18342458131714440323
13288520 33 18342741814594543589
13544653 18 18335426798326725235
13862211 1 18341609343509349703
14178342 30 18124586484262053418
14341114 176 18411706452105695270
14787075 74 18336829787552881667
15196674 1 18412265003991331085
15442244 35 18338799992125425682
15536298 74 18342739619586634868
15788980 27 17458061543113335559
15927050 60 17335621298291606845
17349148 13 18260547831170436851
17492 89 18411420566192991974
17804303 29 18272933834432537209
17857418 61 18411414016583357363
1813 80 17748833994554190117
18681886 176 18342738542414922416
19141452 34 18273498988120945231
200 152 18343581850168234751
20261772 1 17775000219443115279
20281475 54 18412262809326417897
20645477 70 18409731763798329870
21267235 1 18412272734916899551
21421861 104 18044374928908897915
21501502 16 18410860936211711096
221490 88 18265057014666800923
23402539 116 18411414020873063135
23557571 272 17846225410016438948
23559900 14 18341891866077954000
25147074 1 18336560330258986760
2871803 45 18409165523815388295
3004659 81 18334575741444868375
312423 11 18336277772570326156
335352 9 18412825785994090189
350125 39 18412263956510272028
3545911 37 18411702075591945557
4214541 1 18411420575056538061
474 4 17677341644336050012
4921388 177 16371017351279562979
5104073 3 18412827984405247705
5283173 99 18187916224050748109
5312544 6 18191029104329611892
67856867 119 18336262439985940028
77779 3 18411421708901355095
9709674 26 18411146800655911582
9981440 41 17325492597330184336

>  <PUBCHEM_SHAPE_MULTIPOLES>  (1) 
414.56
10.58
2.33
0.74
0.17
0.33
0.1
-2.72
-0.03
-0.39
0.02
0.41
-0.08
-0.76

>  <PUBCHEM_SHAPE_SELFOVERLAP>  (1) 
933.038

>  <PUBCHEM_SHAPE_VOLUME>  (1) 
218

>  <PUBCHEM_COORDINATE_TYPE>  (1) 
2
5
10

$$$$
