19007
     RDKit          3D

 24 25  0  0  1  0  0  0  0  0999 V2000
    0.9313    0.1018   -0.1865 O   0  0  0  0  0  0  0  0  0  0  0  0
   -0.1406   -0.1919    1.8308 O   0  0  0  0  0  0  0  0  0  0  0  0
    4.6219    0.0847    0.1570 N   0  0  0  0  0  0  0  0  0  0  0  0
   -2.2927    1.2339    0.1641 C   0  0  0  0  0  0  0  0  0  0  0  0
   -3.5124    1.3535   -0.7595 C   0  0  0  0  0  0  0  0  0  0  0  0
   -1.4661    2.5269    0.1479 C   0  0  0  0  0  0  0  0  0  0  0  0
   -1.4303    0.0374   -0.2335 C   0  0  0  0  0  0  0  0  0  0  0  0
   -4.3624    2.5745   -0.4155 C   0  0  0  0  0  0  0  0  0  0  0  0
   -2.3196    3.7459    0.4905 C   0  0  0  0  0  0  0  0  0  0  0  0
   -3.5356    3.8565   -0.4240 C   0  0  0  0  0  0  0  0  0  0  0  0
    3.3126    0.1929   -0.5345 C   0  0  0  0  0  0  0  0  0  0  0  0
   -2.2027   -1.2726   -0.1913 C   0  0  0  0  0  0  0  0  0  0  0  0
   -0.1669   -0.0277    0.6178 C   0  0  0  0  0  0  0  0  0  0  0  0
    4.7506   -1.2684    0.8698 C   0  0  0  0  0  0  0  0  0  0  0  0
    5.7785    0.2091   -0.8440 C   0  0  0  0  0  0  0  0  0  0  0  0
    2.1967    0.0347    0.4793 C   0  0  0  0  0  0  0  0  0  0  0  0
    4.7770    1.1939    1.2063 C   0  0  0  0  0  0  0  0  0  0  0  0
    4.6012   -2.3818   -0.1437 C   0  0  0  0  0  0  0  0  0  0  0  0
    5.7204    1.5684   -1.5061 C   0  0  0  0  0  0  0  0  0  0  0  0
   -1.9333   -2.2715   -1.1271 C   0  0  0  0  0  0  0  0  0  0  0  0
   -3.1800   -1.4753    0.7831 C   0  0  0  0  0  0  0  0  0  0  0  0
   -2.6412   -3.4728   -1.0885 C   0  0  0  0  0  0  0  0  0  0  0  0
   -3.8878   -2.6767    0.8218 C   0  0  0  0  0  0  0  0  0  0  0  0
   -3.6184   -3.6754   -0.1141 C   0  0  0  0  0  0  0  0  0  0  0  0
  1 13  1  0
  1 16  1  0
  2 13  2  0
  3 11  1  0
  3 14  1  0
  3 15  1  0
  3 17  1  0
  4  5  1  0
  4  6  1  0
  4  7  1  0
  5  8  1  0
  6  9  1  0
  7 12  1  0
  7 13  1  0
  8 10  1  0
  9 10  1  0
 11 16  1  0
 12 20  2  0
 12 21  1  0
 14 18  1  0
 15 19  1  0
 20 22  1  0
 21 23  2  0
 22 24  2  0
 23 24  1  0
M  CHG  1   3   1
M  END
>  <PUBCHEM_COMPOUND_CID>  (1) 
19007

>  <PUBCHEM_CONFORMER_RMSD>  (1) 
1

>  <PUBCHEM_CONFORMER_DIVERSEORDER>  (1) 
1
291
238
20
159
232
104
165
275
298
211
270
280
24
96
69
242
37
186
295
90
32
191
38
161
100
204
127
299
31
185
36
246
182
233
51
281
53
219
203
68
7
89
297
285
88
179
255
57
14
75
195
8
166
43
209
235
81
105
163
189
130
241
114
283
83
30
227
217
248
282
55
259
95
208
11
170
293
221
286
245
99
115
198
303
79
236
44
94
131
301
23
269
48
225
91
210
21
87
244
135
261
97
93
169
73
109
194
266
76
4
220
200
133
54
276
149
41
300
17
178
199
136
10
247
33
92
46
16
294
47
151
123
171
59
252
192
292
3
148
70
274
77
119
213
174
183
72
124
122
226
197
144
121
273
64
277
139
71
50
304
128
228
155
147
134
284
154
196
18
140
63
6
215
222
22
268
207
65
110
224
85
205
45
9
78
143
138
267
167
146
249
34
278
107
117
188
129
271
187
118
264
142
272
239
27
231
15
102
265
162
61
101
145
279
168
223
42
150
116
56
52
173
229
2
113
141
263
172
176
289
152
74
60
177
175
29
66
86
80
25
164
13
234
260
108
180
26
240
82
230
12
262
49
98
237
35
126
290
184
218
112
137
288
120
201
40
67
62
111
125
28
206
156
287
302
153
202
160
214
251
5
106
253
157
256
254
216
257
58
132
296
84
193
258
39
103
243
181
158
250
212
19
190

>  <PUBCHEM_MMFF94_PARTIAL_CHARGES>  (1) 
21
1 -0.43
11 0.5
12 -0.14
13 0.66
14 0.5
15 0.5
16 0.28
17 0.5
2 -0.57
20 -0.15
21 -0.15
22 -0.15
23 -0.15
24 -0.15
3 -1.01
54 0.15
55 0.15
56 0.15
57 0.15
58 0.15
7 0.2

>  <PUBCHEM_EFFECTIVE_ROTOR_COUNT>  (1) 
10.2

>  <PUBCHEM_PHARMACOPHORE_FEATURES>  (1) 
4
1 2 acceptor
1 3 cation
6 12 20 21 22 23 24 rings
6 4 5 6 8 9 10 rings

>  <PUBCHEM_HEAVY_ATOM_COUNT>  (1) 
24

>  <PUBCHEM_ATOM_DEF_STEREO_COUNT>  (1) 
0

>  <PUBCHEM_ATOM_UDEF_STEREO_COUNT>  (1) 
1

>  <PUBCHEM_BOND_DEF_STEREO_COUNT>  (1) 
0

>  <PUBCHEM_BOND_UDEF_STEREO_COUNT>  (1) 
0

>  <PUBCHEM_ISOTOPIC_ATOM_COUNT>  (1) 
0

>  <PUBCHEM_COMPONENT_COUNT>  (1) 
1

>  <PUBCHEM_CACTVS_TAUTO_COUNT>  (1) 
1

>  <PUBCHEM_CONFORMER_ID>  (1) 
00004A3F00000001

>  <PUBCHEM_MMFF94_ENERGY>  (1) 
67.7109

>  <PUBCHEM_FEATURE_SELFOVERLAP>  (1) 
20.297

>  <PUBCHEM_SHAPE_FINGERPRINT>  (1) 
10254770 206 17327449230154843466
10369192 42 16553384707826494912
10411042 1 18122062276480298631
10595046 47 18261114114814993574
11056379 131 18411145765811087750
11101153 10 18045789146266489564
11315621 246 18057054712255138894
11405975 8 18335977559300312250
11796584 16 18269556049377471014
11991303 11 18261104116030889149
12107183 9 17974000653409202034
12553582 1 18195802092531887234
12616971 3 17240757351277546024
12643181 29 18123754150272229190
12714826 92 18131634520962192330
12788726 201 18261670488461926258
13167823 11 18335420162782094730
13583140 156 17989193855352613002
13690498 29 18270972357323079854
14251757 5 18341330015742038937
14508225 48 18125989706392123623
14713325 29 18410581673676005379
14790565 3 17978510836762864809
15042514 8 18410013247886987075
15250474 111 18334283250526656738
15463212 79 18187920643007105873
16087824 20 18409728457944616765
17492 89 18410012143959761282
17539 30 18341320189410377055
17818456 19 18193272997345595920
17844677 252 18410017667308283276
1813 80 18053958517370285839
19427546 20 18335425702693710492
20101258 96 18265903638620312033
21033650 10 18191052091384431076
21065198 57 18411697647976405584
2132832 1 18042687393408866412
21426921 1 18410293635572294605
22224240 67 18270968921961744545
22393880 68 18341619209576626046
23557571 272 18341902908528738020
23559900 14 18270956826958824466
23598288 3 18408887343247483303
249057 3 18122058703056764074
255183 451 17693938901333428999
268830 7 17095240324536346852
3759504 43 18267579118347675101
4058900 60 17906173945697747529
44062 13 18341049632045678494
4409770 3 18410289208225864591
497634 4 17702403899257115584
5104073 3 18410849950386852338
531348 171 18338243674319330454
59755656 520 18263354786152371221
633830 44 17458349607160735314
6898599 12 18407762529640793597
70251023 43 17905597063060204803
7164475 11 18336829804959714660
7237137 82 18335704987221204508
7399639 24 17912626201935637376
9981440 41 18049725123036781929

>  <PUBCHEM_SHAPE_MULTIPOLES>  (1) 
477.19
12.59
4.84
1.19
21.02
0.4
0.05
0.62
-1.79
-8.72
-0.65
0.64
-0.12
-0.31

>  <PUBCHEM_SHAPE_SELFOVERLAP>  (1) 
964.701

>  <PUBCHEM_SHAPE_VOLUME>  (1) 
278.5

>  <PUBCHEM_COORDINATE_TYPE>  (1) 
2
5
10

$$$$
