19001
     RDKit          3D

  8  7  0  0  1  0  0  0  0  0999 V2000
    2.1855    1.5381    0.8235 S   0  0  0  0  0  0  0  0  0  0  0  0
   -3.0369    0.9331    0.2663 S   0  0  0  0  0  0  0  0  0  0  0  0
    1.5804   -1.4960    0.1854 O   0  0  0  0  0  0  0  0  0  0  0  0
   -1.1988   -1.5486    0.3464 O   0  0  0  0  0  0  0  0  0  0  0  0
    0.8007   -0.5284   -0.5150 C   0  0  0  0  0  0  0  0  0  0  0  0
   -0.5432   -0.2893    0.2024 C   0  0  0  0  0  0  0  0  0  0  0  0
    1.6622    0.7272   -0.7212 C   0  0  0  0  0  0  0  0  0  0  0  0
   -1.4499    0.6640   -0.5878 C   0  0  0  0  0  0  0  0  0  0  0  0
  1  7  1  0
  2  8  1  0
  3  5  1  0
  4  6  1  0
  5  6  1  0
  5  7  1  0
  6  8  1  0
M  END
>  <PUBCHEM_COMPOUND_CID>  (1) 
19001

>  <PUBCHEM_CONFORMER_RMSD>  (1) 
0.6

>  <PUBCHEM_CONFORMER_DIVERSEORDER>  (1) 
3
2
16
44
27
37
41
35
42
34
43
18
14
32
38
26
9
8
6
29
11
28
10
45
24
5
25
36
33
39
17
15
30
40
23
12
13
7
20
1
19
4
22
21
31

>  <PUBCHEM_MMFF94_PARTIAL_CHARGES>  (1) 
12
1 -0.41
15 0.4
16 0.4
17 0.18
18 0.18
2 -0.41
3 -0.68
4 -0.68
5 0.28
6 0.28
7 0.23
8 0.23

>  <PUBCHEM_EFFECTIVE_ROTOR_COUNT>  (1) 
3

>  <PUBCHEM_PHARMACOPHORE_FEATURES>  (1) 
4
1 3 acceptor
1 3 donor
1 4 acceptor
1 4 donor

>  <PUBCHEM_HEAVY_ATOM_COUNT>  (1) 
8

>  <PUBCHEM_ATOM_DEF_STEREO_COUNT>  (1) 
0

>  <PUBCHEM_ATOM_UDEF_STEREO_COUNT>  (1) 
2

>  <PUBCHEM_BOND_DEF_STEREO_COUNT>  (1) 
0

>  <PUBCHEM_BOND_UDEF_STEREO_COUNT>  (1) 
0

>  <PUBCHEM_ISOTOPIC_ATOM_COUNT>  (1) 
0

>  <PUBCHEM_COMPONENT_COUNT>  (1) 
1

>  <PUBCHEM_CACTVS_TAUTO_COUNT>  (1) 
1

>  <PUBCHEM_CONFORMER_ID>  (1) 
00004A3900000003

>  <PUBCHEM_MMFF94_ENERGY>  (1) 
13.6307

>  <PUBCHEM_FEATURE_SELFOVERLAP>  (1) 
20.306

>  <PUBCHEM_SHAPE_FINGERPRINT>  (1) 
14390081 3 18273214226840274745
21040471 1 18334582351462885989
23211744 41 17843124972273655660
23235685 24 18334858337519274452
24536 1 17749390420304679718
5084963 1 17532664438029514293

>  <PUBCHEM_SHAPE_MULTIPOLES>  (1) 
160.6
3.85
1.68
0.89
1.82
0.21
-0.04
-1.88
0.48
-0.49
0.36
-0.2
-0.15
0.27

>  <PUBCHEM_SHAPE_SELFOVERLAP>  (1) 
271.159

>  <PUBCHEM_SHAPE_VOLUME>  (1) 
111

>  <PUBCHEM_COORDINATE_TYPE>  (1) 
2
5
10

$$$$
