19026
     RDKit          3D

 16 18  0  0  0  0  0  0  0  0999 V2000
    4.6185    0.1533   -0.6349 N   0  0  0  0  0  0  0  0  0  0  0  0
   -2.0133   -2.0095   -0.0673 N   0  0  0  0  0  0  0  0  0  0  0  0
    1.8231    0.1968    0.2621 C   0  0  0  0  0  0  0  0  0  0  0  0
    2.8704    1.1872    0.7870 C   0  0  0  0  0  0  0  0  0  0  0  0
    2.5118   -1.0865   -0.2194 C   0  0  0  0  0  0  0  0  0  0  0  0
    0.7754   -0.1100    1.3283 C   0  0  0  0  0  0  0  0  0  0  0  0
    3.9814    1.4110   -0.2385 C   0  0  0  0  0  0  0  0  0  0  0  0
    3.6378   -0.7731   -1.2047 C   0  0  0  0  0  0  0  0  0  0  0  0
   -0.4976   -0.6337    0.7214 C   0  0  0  0  0  0  0  0  0  0  0  0
   -1.5897    0.1491    0.3040 C   0  0  0  0  0  0  0  0  0  0  0  0
   -0.7648   -1.9472    0.4909 C   0  0  0  0  0  0  0  0  0  0  0  0
   -2.5410   -0.7442   -0.1934 C   0  0  0  0  0  0  0  0  0  0  0  0
   -1.8820    1.5275    0.2917 C   0  0  0  0  0  0  0  0  0  0  0  0
   -3.7749   -0.3263   -0.7044 C   0  0  0  0  0  0  0  0  0  0  0  0
   -3.1124    1.9599   -0.2163 C   0  0  0  0  0  0  0  0  0  0  0  0
   -4.0428    1.0456   -0.7064 C   0  0  0  0  0  0  0  0  0  0  0  0
  1  7  1  0
  1  8  1  0
  2 11  1  0
  2 12  1  0
  3  4  1  0
  3  5  1  0
  3  6  1  0
  4  7  1  0
  5  8  1  0
  6  9  1  0
  9 10  1  0
  9 11  2  0
 10 12  2  0
 10 13  1  0
 12 14  1  0
 13 15  2  0
 14 16  2  0
 15 16  1  0
M  END
>  <PUBCHEM_COMPOUND_CID>  (1) 
19026

>  <PUBCHEM_CONFORMER_RMSD>  (1) 
0.6

>  <PUBCHEM_CONFORMER_DIVERSEORDER>  (1) 
1
11
17
14
12
4
6
13
21
18
15
5
22
3
20
16
2
19
10
9
7
8

>  <PUBCHEM_MMFF94_PARTIAL_CHARGES>  (1) 
19
1 -0.9
11 -0.3
12 -0.15
13 -0.15
14 -0.15
15 -0.15
16 -0.15
2 0.03
28 0.36
29 0.15
30 0.27
31 0.15
32 0.15
33 0.15
34 0.15
6 0.18
7 0.27
8 0.27
9 -0.18

>  <PUBCHEM_EFFECTIVE_ROTOR_COUNT>  (1) 
3.2

>  <PUBCHEM_PHARMACOPHORE_FEATURES>  (1) 
7
1 1 cation
1 1 donor
1 2 cation
1 2 donor
5 2 9 10 11 12 rings
6 1 3 4 5 7 8 rings
6 10 12 13 14 15 16 rings

>  <PUBCHEM_HEAVY_ATOM_COUNT>  (1) 
16

>  <PUBCHEM_ATOM_DEF_STEREO_COUNT>  (1) 
0

>  <PUBCHEM_ATOM_UDEF_STEREO_COUNT>  (1) 
0

>  <PUBCHEM_BOND_DEF_STEREO_COUNT>  (1) 
0

>  <PUBCHEM_BOND_UDEF_STEREO_COUNT>  (1) 
0

>  <PUBCHEM_ISOTOPIC_ATOM_COUNT>  (1) 
0

>  <PUBCHEM_COMPONENT_COUNT>  (1) 
1

>  <PUBCHEM_CACTVS_TAUTO_COUNT>  (1) 
1

>  <PUBCHEM_CONFORMER_ID>  (1) 
00004A5200000001

>  <PUBCHEM_MMFF94_ENERGY>  (1) 
17.8115

>  <PUBCHEM_FEATURE_SELFOVERLAP>  (1) 
35.613

>  <PUBCHEM_SHAPE_FINGERPRINT>  (1) 
10498660 4 18187918444153201045
10608611 8 18341048618290848568
10646746 165 18408039632867751796
11046707 91 12031792461139435512
11370993 70 18341893000345297262
12173636 292 18408598154504091527
12186901 62 18408888434322098599
12670546 177 18060414737720623495
14123260 362 17603874415828890356
15309172 13 14418134023731494048
15775835 57 17822006488845160809
15885798 251 10735869599927434159
16945 1 18339059550601592755
17134986 127 18047744906499552205
18186145 218 18271807886843133129
193927 3 12895065275540325141
19862831 5 18343019973671859456
200 152 16558753407907425450
20300324 65 18343299288528030973
20361792 2 14692572126050776986
20510252 161 18410576231925918483
20645476 183 17967531289778274811
20645477 56 18409449219147896208
20645477 70 17418382398061328950
20671657 53 15195279815948393650
20871999 31 18341325695379323215
21501925 9 9799397932462427395
21524375 3 18115020784476407931
21637258 2 15194987402402006973
22646028 28 12751237008369864700
22802520 49 18272933846911088491
22854114 59 12829490346029737536
23402539 116 18410282627871860332
23402655 69 18343585122901951700
23557571 272 18265337394005104674
23559900 14 18272087176483349698
25 1 18339926995838986947
2748010 2 17906711950554200139
2838139 119 16372663217101711365
3472631 163 18040714796328288477
4028521 119 18334853909449962893
42 15 9511466627884579860
474 4 17240486965653276988
5161694 15 18272938193655381812
5281201 14 18342465841539640964
633830 44 18341608158150967741
93112 12 18413672413540564820
9709674 26 18342741853233652430
9882013 296 11819290952550804560

>  <PUBCHEM_SHAPE_MULTIPOLES>  (1) 
319.31
8.37
1.92
1.01
3.86
0.07
-0.04
-2.63
3.08
-0.84
-0.04
0.39
0.05
0.46

>  <PUBCHEM_SHAPE_SELFOVERLAP>  (1) 
687.852

>  <PUBCHEM_SHAPE_VOLUME>  (1) 
173.9

>  <PUBCHEM_COORDINATE_TYPE>  (1) 
2
5
10

$$$$
