1902
     RDKit          3D

 23 25  0  0  0  0  0  0  0  0999 V2000
   -7.0985    2.0415    0.1607 Cl  0  0  0  0  0  0  0  0  0  0  0  0
    3.7516   -2.4790    0.1336 O   0  0  0  0  0  0  0  0  0  0  0  0
    5.4061    1.9101    0.0503 O   0  0  0  0  0  0  0  0  0  0  0  0
    1.0413   -1.2279   -0.0763 N   0  0  0  0  0  0  0  0  0  0  0  0
    3.1026    1.6041   -0.0701 N   0  0  0  0  0  0  0  0  0  0  0  0
    4.6032   -0.2899    0.0956 N   0  0  0  0  0  0  0  0  0  0  0  0
    0.7257    0.9763   -0.1845 N   0  0  0  0  0  0  0  0  0  0  0  0
    2.2827   -0.6613   -0.0268 C   0  0  0  0  0  0  0  0  0  0  0  0
    2.0608    0.6870   -0.0945 C   0  0  0  0  0  0  0  0  0  0  0  0
    0.1370   -0.2018   -0.1710 C   0  0  0  0  0  0  0  0  0  0  0  0
    3.5715   -1.2657    0.0741 C   0  0  0  0  0  0  0  0  0  0  0  0
    4.4386    1.1408    0.0271 C   0  0  0  0  0  0  0  0  0  0  0  0
    0.7514   -2.6450   -0.0363 C   0  0  0  0  0  0  0  0  0  0  0  0
    2.8248    3.0332   -0.1441 C   0  0  0  0  0  0  0  0  0  0  0  0
   -1.2349   -0.5146   -0.2381 C   0  0  0  0  0  0  0  0  0  0  0  0
    5.9716   -0.7868    0.1975 C   0  0  0  0  0  0  0  0  0  0  0  0
   -2.2292    0.3075    0.1843 C   0  0  0  0  0  0  0  0  0  0  0  0
   -3.6704    0.0085    0.0989 C   0  0  0  0  0  0  0  0  0  0  0  0
   -4.5836    1.0480    0.1644 C   0  0  0  0  0  0  0  0  0  0  0  0
   -4.0821   -1.3062   -0.0443 C   0  0  0  0  0  0  0  0  0  0  0  0
   -5.9469    0.7647    0.0842 C   0  0  0  0  0  0  0  0  0  0  0  0
   -5.4455   -1.5895   -0.1244 C   0  0  0  0  0  0  0  0  0  0  0  0
   -6.3779   -0.5540   -0.0602 C   0  0  0  0  0  0  0  0  0  0  0  0
  1 21  1  0
  2 11  2  0
  3 12  2  0
  4  8  1  0
  4 10  1  0
  4 13  1  0
  5  9  1  0
  5 12  1  0
  5 14  1  0
  6 11  1  0
  6 12  1  0
  6 16  1  0
  7  9  1  0
  7 10  2  0
  8  9  2  0
  8 11  1  0
 10 15  1  0
 15 17  2  0
 17 18  1  0
 18 19  2  0
 18 20  1  0
 19 21  1  0
 20 22  2  0
 21 23  2  0
 22 23  1  0
M  END
>  <PUBCHEM_COMPOUND_CID>  (1) 
1902

>  <PUBCHEM_CONFORMER_RMSD>  (1) 
0.6

>  <PUBCHEM_CONFORMER_DIVERSEORDER>  (1) 
3
5
1
6
4
2

>  <PUBCHEM_MMFF94_PARTIAL_CHARGES>  (1) 
29
1 -0.18
10 0.14
11 0.71
12 0.69
13 0.26
14 0.3
15 -0.11
16 0.3
17 -0.18
18 0.03
19 -0.15
2 -0.57
20 -0.15
21 0.18
22 -0.15
23 -0.15
3 -0.57
30 0.15
34 0.15
35 0.15
36 0.15
37 0.15
38 0.15
4 0.05
5 -0.42
6 -0.42
7 -0.57
8 -0.24
9 0.29

>  <PUBCHEM_EFFECTIVE_ROTOR_COUNT>  (1) 
2

>  <PUBCHEM_PHARMACOPHORE_FEATURES>  (1) 
6
1 2 acceptor
1 3 acceptor
3 4 7 10 cation
5 4 7 8 9 10 rings
6 18 19 20 21 22 23 rings
6 5 6 8 9 11 12 rings

>  <PUBCHEM_HEAVY_ATOM_COUNT>  (1) 
23

>  <PUBCHEM_ATOM_DEF_STEREO_COUNT>  (1) 
0

>  <PUBCHEM_ATOM_UDEF_STEREO_COUNT>  (1) 
0

>  <PUBCHEM_BOND_DEF_STEREO_COUNT>  (1) 
0

>  <PUBCHEM_BOND_UDEF_STEREO_COUNT>  (1) 
1

>  <PUBCHEM_ISOTOPIC_ATOM_COUNT>  (1) 
0

>  <PUBCHEM_COMPONENT_COUNT>  (1) 
1

>  <PUBCHEM_CACTVS_TAUTO_COUNT>  (1) 
1

>  <PUBCHEM_CONFORMER_ID>  (1) 
0000076E00000003

>  <PUBCHEM_MMFF94_ENERGY>  (1) 
54.8792

>  <PUBCHEM_FEATURE_SELFOVERLAP>  (1) 
30.561

>  <PUBCHEM_SHAPE_FINGERPRINT>  (1) 
10411042 1 17978228262992223834
10595046 47 18340767139330166471
10835480 77 18409162204502228157
10937287 8 16886972167158332436
11045977 3 18114467841585880714
11089746 13 17632287974303453185
11578080 2 13769366153044880084
11719270 70 18273210872223221718
12107183 9 17764030164610387203
12236239 1 18131350825703446511
12403259 415 17967524658253395853
13073987 5 18408888447570952131
13167372 99 18341334405536297073
13167823 11 18411697699553384599
13785724 45 17908707233141092366
14251764 18 18334290994446928656
14341114 176 18410297999554518365
14528608 73 18412265068769242607
14933364 13 18409732859278643309
15183329 4 18409728435562555401
15196674 1 18411138051812200167
15250474 111 18200016452319786255
15475509 35 16443611404070626658
17834072 33 18413388761068319095
17844677 252 18411144640898921049
18681886 176 18271801345792733138
19427546 62 18263083382905500810
200 152 18272931618466789299
20028762 73 18272650130352671022
20281389 69 18261394408903018725
20511986 3 18272076206783259481
20645477 70 18411138008947410582
21267235 1 18411985724660994926
21315763 129 18409729564964952301
21315763 28 18411417319998757423
21709351 56 18410848867801742903
23402539 116 18411978070717783855
23536379 177 18410855456371238947
23559900 14 18341324535938464081
239999 70 18271813384744735214
29717793 49 17846501396030096876
300161 21 18408038495033552367
3004659 81 18410012117593111626
335352 9 18410576198067378958
34797466 226 17560812073108008477
350125 39 18410011026714019196
3545911 37 18410576167807246757
4073 2 18041285460454455883
4214541 1 18410856551862251253
42630746 31 18413389834973822910
5104073 3 18334579049266090707
542803 24 18410009936324718539
59755656 215 18409452453342750702
67856867 119 18340767130460988385
8272917 22 18412829062342019430
9971528 1 17894632565092043445
9995097 60 18336261250406320541
9999458 23 18114462349034638134

>  <PUBCHEM_SHAPE_MULTIPOLES>  (1) 
443.54
17.23
2.57
0.61
15.81
0.45
0
4.04
-0.9
-1.54
0.03
0.09
0
-0.4

>  <PUBCHEM_SHAPE_SELFOVERLAP>  (1) 
956.66

>  <PUBCHEM_SHAPE_VOLUME>  (1) 
246.6

>  <PUBCHEM_COORDINATE_TYPE>  (1) 
2
5
10

$$$$
