19023
     RDKit          3D

 10  9  0  0  0  0  0  0  0  0999 V2000
   -0.7147   -1.5586   -0.9470 O   0  0  0  0  0  0  0  0  0  0  0  0
    2.0638    0.0845   -1.2155 O   0  0  0  0  0  0  0  0  0  0  0  0
    0.2906    0.1752    0.4203 C   0  0  0  0  0  0  0  0  0  0  0  0
   -0.7471    1.1909   -0.0835 C   0  0  0  0  0  0  0  0  0  0  0  0
   -0.0949   -1.2643    0.0745 C   0  0  0  0  0  0  0  0  0  0  0  0
    1.6595    0.5372   -0.1444 C   0  0  0  0  0  0  0  0  0  0  0  0
   -2.1174    0.9323    0.4766 C   0  0  0  0  0  0  0  0  0  0  0  0
    0.3702   -2.3321    1.0320 C   0  0  0  0  0  0  0  0  0  0  0  0
    2.4983    1.4977    0.6593 C   0  0  0  0  0  0  0  0  0  0  0  0
   -3.2083    0.7372   -0.2724 C   0  0  0  0  0  0  0  0  0  0  0  0
  1  5  2  0
  2  6  2  0
  3  4  1  0
  3  5  1  0
  3  6  1  0
  4  7  1  0
  5  8  1  0
  6  9  1  0
  7 10  2  0
M  END
>  <PUBCHEM_COMPOUND_CID>  (1) 
19023

>  <PUBCHEM_CONFORMER_RMSD>  (1) 
0.6

>  <PUBCHEM_CONFORMER_DIVERSEORDER>  (1) 
1
56
28
41
30
55
59
16
23
33
58
53
39
50
9
19
48
47
37
12
60
57
34
46
3
44
49
35
51
32
45
8
54
31
25
36
26
27
20
42
11
17
13
18
40
15
43
4
29
24
52
22
10
7
14
6
5
21
2
38

>  <PUBCHEM_MMFF94_PARTIAL_CHARGES>  (1) 
13
1 -0.57
10 -0.3
14 0.15
2 -0.57
21 0.15
22 0.15
3 0.12
4 0.14
5 0.45
6 0.45
7 -0.29
8 0.06
9 0.06

>  <PUBCHEM_EFFECTIVE_ROTOR_COUNT>  (1) 
4

>  <PUBCHEM_PHARMACOPHORE_FEATURES>  (1) 
4
1 1 acceptor
1 10 hydrophobe
1 2 acceptor
1 3 anion

>  <PUBCHEM_HEAVY_ATOM_COUNT>  (1) 
10

>  <PUBCHEM_ATOM_DEF_STEREO_COUNT>  (1) 
0

>  <PUBCHEM_ATOM_UDEF_STEREO_COUNT>  (1) 
0

>  <PUBCHEM_BOND_DEF_STEREO_COUNT>  (1) 
0

>  <PUBCHEM_BOND_UDEF_STEREO_COUNT>  (1) 
0

>  <PUBCHEM_ISOTOPIC_ATOM_COUNT>  (1) 
0

>  <PUBCHEM_COMPONENT_COUNT>  (1) 
1

>  <PUBCHEM_CACTVS_TAUTO_COUNT>  (1) 
5

>  <PUBCHEM_CONFORMER_ID>  (1) 
00004A4F00000001

>  <PUBCHEM_MMFF94_ENERGY>  (1) 
11.9625

>  <PUBCHEM_FEATURE_SELFOVERLAP>  (1) 
20.297

>  <PUBCHEM_SHAPE_FINGERPRINT>  (1) 
1 1 18336263427368982023
12138202 97 18129099090288085476
12897270 3 18339645534169489541
14128692 85 17836367047096619099
15775835 57 18410571773322707337
16945 1 18059588944237223924
19021347 11 18262520269168471779
20653091 64 17830180103872810739
21040471 1 18335990843132959568
23552423 10 17900829249559843113
23552449 11 17974566888727404145
5084963 1 18261404290625539924
528862 383 18042957684121647010
54338 74 17757531311834368472
6333449 129 17986390198821594992
81228 2 17904209470035881323

>  <PUBCHEM_SHAPE_MULTIPOLES>  (1) 
194.06
3.56
2.1
0.98
1.64
1.35
-0.09
-2.23
-0.12
-0.44
0.49
-0.28
0.21
-0.04

>  <PUBCHEM_SHAPE_SELFOVERLAP>  (1) 
365.387

>  <PUBCHEM_SHAPE_VOLUME>  (1) 
120.5

>  <PUBCHEM_COORDINATE_TYPE>  (1) 
2
5
10

$$$$
