19028
     RDKit          3D

 24 27  0  0  0  0  0  0  0  0999 V2000
    1.7167   -1.0579   -0.0860 N   0  0  0  0  0  0  0  0  0  0  0  0
   -4.7161    1.2280   -1.7007 N   0  0  0  0  0  0  0  0  0  0  0  0
   -1.2145   -1.0338   -0.1384 C   0  0  0  0  0  0  0  0  0  0  0  0
   -0.3671   -0.3114   -1.1911 C   0  0  0  0  0  0  0  0  0  0  0  0
   -0.4121   -2.1904    0.4673 C   0  0  0  0  0  0  0  0  0  0  0  0
    0.9925    0.1016   -0.6236 C   0  0  0  0  0  0  0  0  0  0  0  0
    0.9488   -1.7148    0.9802 C   0  0  0  0  0  0  0  0  0  0  0  0
   -2.5271   -1.5311   -0.7375 C   0  0  0  0  0  0  0  0  0  0  0  0
    3.0343   -0.6555    0.4056 C   0  0  0  0  0  0  0  0  0  0  0  0
   -3.5412   -0.4385   -0.8721 C   0  0  0  0  0  0  0  0  0  0  0  0
    3.8921   -0.0898   -0.7268 C   0  0  0  0  0  0  0  0  0  0  0  0
   -4.4921   -0.0668    0.1022 C   0  0  0  0  0  0  0  0  0  0  0  0
   -3.6904    0.3614   -1.9674 C   0  0  0  0  0  0  0  0  0  0  0  0
   -5.2245    0.9894   -0.4437 C   0  0  0  0  0  0  0  0  0  0  0  0
    5.2619    0.3083   -0.2376 C   0  0  0  0  0  0  0  0  0  0  0  0
   -4.8131   -0.5160    1.3986 C   0  0  0  0  0  0  0  0  0  0  0  0
   -6.2662    1.6214    0.2448 C   0  0  0  0  0  0  0  0  0  0  0  0
   -5.8527    0.1066    2.0991 C   0  0  0  0  0  0  0  0  0  0  0  0
    5.4709    1.5981    0.2268 C   0  0  0  0  0  0  0  0  0  0  0  0
    6.2902   -0.6217   -0.2605 C   0  0  0  0  0  0  0  0  0  0  0  0
   -6.5667    1.1588    1.5291 C   0  0  0  0  0  0  0  0  0  0  0  0
    6.7380    1.9667    0.6790 C   0  0  0  0  0  0  0  0  0  0  0  0
    7.5573   -0.2534    0.1917 C   0  0  0  0  0  0  0  0  0  0  0  0
    7.7811    1.0409    0.6614 C   0  0  0  0  0  0  0  0  0  0  0  0
  1  6  1  0
  1  7  1  0
  1  9  1  0
  2 13  1  0
  2 14  1  0
  3  4  1  0
  3  5  1  0
  3  8  1  0
  4  6  1  0
  5  7  1  0
  8 10  1  0
  9 11  1  0
 10 12  1  0
 10 13  2  0
 11 15  1  0
 12 14  2  0
 12 16  1  0
 14 17  1  0
 15 19  2  0
 15 20  1  0
 16 18  2  0
 17 21  2  0
 18 21  1  0
 19 22  1  0
 20 23  2  0
 22 24  2  0
 23 24  1  0
M  END
>  <PUBCHEM_COMPOUND_CID>  (1) 
19028

>  <PUBCHEM_CONFORMER_RMSD>  (1) 
0.8

>  <PUBCHEM_CONFORMER_DIVERSEORDER>  (1) 
1
29
112
22
44
68
27
24
107
33
23
76
88
15
53
3
74
117
9
102
79
62
72
98
45
51
92
42
11
101
82
18
104
58
31
113
54
99
34
6
116
41
50
21
83
115
60
40
43
66
2
8
109
55
52
25
47
19
80
114
10
71
7
35
106
16
46
91
108
64
14
67
38
39
75
97
56
90
105
63
78
94
4
96
100
32
48
36
86
85
87
84
59
69
73
95
93
28
61
30
12
20
26
70
89
37
17
103
111
5
49
81
13
77
57
65
110

>  <PUBCHEM_MMFF94_PARTIAL_CHARGES>  (1) 
31
1 -0.81
10 -0.18
11 0.14
13 -0.3
14 -0.15
15 -0.14
16 -0.15
17 -0.15
18 -0.15
19 -0.15
2 0.03
20 -0.15
21 -0.15
22 -0.15
23 -0.15
24 -0.15
40 0.15
41 0.27
42 0.15
43 0.15
44 0.15
45 0.15
46 0.15
47 0.15
48 0.15
49 0.15
50 0.15
6 0.27
7 0.27
8 0.18
9 0.27

>  <PUBCHEM_EFFECTIVE_ROTOR_COUNT>  (1) 
6.2

>  <PUBCHEM_PHARMACOPHORE_FEATURES>  (1) 
7
1 1 cation
1 2 cation
1 2 donor
5 2 10 12 13 14 rings
6 1 3 4 5 6 7 rings
6 12 14 16 17 18 21 rings
6 15 19 20 22 23 24 rings

>  <PUBCHEM_HEAVY_ATOM_COUNT>  (1) 
24

>  <PUBCHEM_ATOM_DEF_STEREO_COUNT>  (1) 
0

>  <PUBCHEM_ATOM_UDEF_STEREO_COUNT>  (1) 
0

>  <PUBCHEM_BOND_DEF_STEREO_COUNT>  (1) 
0

>  <PUBCHEM_BOND_UDEF_STEREO_COUNT>  (1) 
0

>  <PUBCHEM_ISOTOPIC_ATOM_COUNT>  (1) 
0

>  <PUBCHEM_COMPONENT_COUNT>  (1) 
1

>  <PUBCHEM_CACTVS_TAUTO_COUNT>  (1) 
1

>  <PUBCHEM_CONFORMER_ID>  (1) 
00004A5400000001

>  <PUBCHEM_MMFF94_ENERGY>  (1) 
43.2579

>  <PUBCHEM_FEATURE_SELFOVERLAP>  (1) 
35.615

>  <PUBCHEM_SHAPE_FINGERPRINT>  (1) 
10 15 17313109669506585325
10066227 112 18060136539957024600
10391435 84 10015566299750926820
10670039 82 16272208549233053121
10883706 142 18201721760320024426
11200772 48 14979953687884430429
11315181 36 16774075189875994229
11456790 92 18335695023888861640
11646440 116 18187366532592797548
12082328 90 17203608202943058063
12616971 3 17458628964444444726
13167372 99 18202003222928661568
13668630 136 9799687095615506313
13690498 29 15051151520049160461
13782708 43 10809609421191926844
14251752 14 15195566788609810798
14849402 71 15792312500012169980
14856354 85 16370732555839737419
15021287 119 16443346524104300878
15183329 4 15769776844848141578
15348495 7 17822296854958146808
15352257 5 12973601136560632448
15716309 27 13262397760688523335
17780758 139 15574432112111215733
17913733 40 18113623360847768875
18222031 100 10519985941953380030
2026 5 9439403523620902401
20281389 69 18408884044691260438
20505436 4 17989204799283432623
21150785 3 17203601618652581255
21424621 283 18202006503534557242
21756936 100 18273496776075761111
22224240 67 18040436594670557883
22393880 68 13613944592532265447
23081809 10 17418086620659133654
23198884 109 17203608190147768055
23559900 14 12103553186901285814
23576562 1 15122926526381947288
2838139 119 17989203759157268800
3004659 81 13398625052716265002
3009799 131 14333408943588032970
328310 630 17846221106712760312
3633792 109 17203618073764432126
4093350 32 18337389349679895090
44555599 121 17704076213789027024
44880568 143 12823296784151537858
504843 32 17917146203547811279
5104073 3 17096651101060300808
5364581 5 17532383147720989013
5385378 56 18040994004374890306
59682541 35 18040723575921488099
6328613 192 17632859741444893000
7226269 152 18342174466341650432
9953998 17 17676212368901086017

>  <PUBCHEM_SHAPE_MULTIPOLES>  (1) 
483.95
23.03
1.77
1.51
23.23
0.04
0
13.1
5.62
0.36
0.32
-2.98
0.14
0.22

>  <PUBCHEM_SHAPE_SELFOVERLAP>  (1) 
1045.303

>  <PUBCHEM_SHAPE_VOLUME>  (1) 
264.3

>  <PUBCHEM_COORDINATE_TYPE>  (1) 
2
5
10

$$$$
