19031
     RDKit          3D

 25 28  0  0  0  0  0  0  0  0999 V2000
    5.8196   -1.8352   -1.0189 O   0  0  0  0  0  0  0  0  0  0  0  0
   -2.6812   -1.1597    0.3298 N   0  0  0  0  0  0  0  0  0  0  0  0
    3.1414    2.7525    0.3373 N   0  0  0  0  0  0  0  0  0  0  0  0
    0.1414   -0.5063    0.7779 C   0  0  0  0  0  0  0  0  0  0  0  0
   -0.9423    0.5700    0.6541 C   0  0  0  0  0  0  0  0  0  0  0  0
   -0.4855   -1.8191    1.2594 C   0  0  0  0  0  0  0  0  0  0  0  0
   -2.1128    0.0853   -0.2039 C   0  0  0  0  0  0  0  0  0  0  0  0
   -1.6707   -2.2248    0.3809 C   0  0  0  0  0  0  0  0  0  0  0  0
    1.2581   -0.0552    1.7153 C   0  0  0  0  0  0  0  0  0  0  0  0
    2.2088    0.8925    1.0531 C   0  0  0  0  0  0  0  0  0  0  0  0
   -3.8303   -1.5821   -0.4707 C   0  0  0  0  0  0  0  0  0  0  0  0
    3.3760    0.5339    0.3460 C   0  0  0  0  0  0  0  0  0  0  0  0
    2.0787    2.2503    1.0392 C   0  0  0  0  0  0  0  0  0  0  0  0
   -4.9220   -0.5453   -0.4759 C   0  0  0  0  0  0  0  0  0  0  0  0
    3.9503    1.7270   -0.0980 C   0  0  0  0  0  0  0  0  0  0  0  0
    4.0128   -0.6832    0.0321 C   0  0  0  0  0  0  0  0  0  0  0  0
    5.1342    1.7638   -0.8433 C   0  0  0  0  0  0  0  0  0  0  0  0
   -5.9096   -0.5879    0.4983 C   0  0  0  0  0  0  0  0  0  0  0  0
   -4.9256    0.4383   -1.4549 C   0  0  0  0  0  0  0  0  0  0  0  0
    5.1976   -0.6617   -0.7126 C   0  0  0  0  0  0  0  0  0  0  0  0
    5.7480    0.5442   -1.1425 C   0  0  0  0  0  0  0  0  0  0  0  0
   -6.9214    0.3724    0.4933 C   0  0  0  0  0  0  0  0  0  0  0  0
   -5.9373    1.3988   -1.4599 C   0  0  0  0  0  0  0  0  0  0  0  0
   -6.9351    1.3657   -0.4858 C   0  0  0  0  0  0  0  0  0  0  0  0
    5.2067   -3.0344   -0.5503 C   0  0  0  0  0  0  0  0  0  0  0  0
  1 20  1  0
  1 25  1  0
  2  7  1  0
  2  8  1  0
  2 11  1  0
  3 13  1  0
  3 15  1  0
  4  5  1  0
  4  6  1  0
  4  9  1  0
  5  7  1  0
  6  8  1  0
  9 10  1  0
 10 12  1  0
 10 13  2  0
 11 14  1  0
 12 15  2  0
 12 16  1  0
 14 18  2  0
 14 19  1  0
 15 17  1  0
 16 20  2  0
 17 21  2  0
 18 22  1  0
 19 23  2  0
 20 21  1  0
 22 24  2  0
 23 24  1  0
M  END
>  <PUBCHEM_COMPOUND_CID>  (1) 
19031

>  <PUBCHEM_CONFORMER_RMSD>  (1) 
0.8

>  <PUBCHEM_CONFORMER_DIVERSEORDER>  (1) 
1
25
48
69
51
47
113
4
99
92
110
68
67
53
93
111
60
70
44
42
83
122
103
89
123
62
85
56
18
90
52
24
20
64
81
91
116
84
23
3
14
41
63
28
46
112
121
94
117
72
119
118
76
21
88
82
49
36
29
87
8
7
102
71
106
19
26
109
54
15
120
58
96
27
98
32
37
40
38
6
105
61
74
45
73
43
34
79
35
33
22
65
114
115
2
101
86
10
104
108
5
66
78
39
9
57
77
13
97
12
59
31
30
17
80
95
50
100
55
11
75
107
16

>  <PUBCHEM_MMFF94_PARTIAL_CHARGES>  (1) 
31
1 -0.36
10 -0.18
11 0.41
13 -0.3
14 -0.14
15 -0.15
16 -0.15
17 -0.15
18 -0.15
19 -0.15
2 -0.81
20 0.08
21 -0.15
22 -0.15
23 -0.15
24 -0.15
25 0.28
3 0.03
39 0.15
40 0.27
41 0.15
42 0.15
43 0.15
44 0.15
45 0.15
46 0.15
47 0.15
48 0.15
7 0.27
8 0.27
9 0.18

>  <PUBCHEM_EFFECTIVE_ROTOR_COUNT>  (1) 
6.2

>  <PUBCHEM_PHARMACOPHORE_FEATURES>  (1) 
8
1 1 acceptor
1 2 cation
1 3 cation
1 3 donor
5 3 10 12 13 15 rings
6 12 15 16 17 20 21 rings
6 14 18 19 22 23 24 rings
6 2 4 5 6 7 8 rings

>  <PUBCHEM_HEAVY_ATOM_COUNT>  (1) 
25

>  <PUBCHEM_ATOM_DEF_STEREO_COUNT>  (1) 
0

>  <PUBCHEM_ATOM_UDEF_STEREO_COUNT>  (1) 
0

>  <PUBCHEM_BOND_DEF_STEREO_COUNT>  (1) 
0

>  <PUBCHEM_BOND_UDEF_STEREO_COUNT>  (1) 
0

>  <PUBCHEM_ISOTOPIC_ATOM_COUNT>  (1) 
0

>  <PUBCHEM_COMPONENT_COUNT>  (1) 
1

>  <PUBCHEM_CACTVS_TAUTO_COUNT>  (1) 
1

>  <PUBCHEM_CONFORMER_ID>  (1) 
00004A5700000001

>  <PUBCHEM_MMFF94_ENERGY>  (1) 
60.3868

>  <PUBCHEM_FEATURE_SELFOVERLAP>  (1) 
40.689

>  <PUBCHEM_SHAPE_FINGERPRINT>  (1) 
10 15 9295281729831571510
10378564 45 18412260636373698356
10613725 11 17846500331226334331
10670039 82 18041273279885123301
10721379 63 17676759865456961258
10904742 90 10662946699378040954
11135609 201 12108083227143552158
11497681 19 18199746020526952159
11720765 8 18272365370036877632
11724838 91 10737291268282716264
11796584 16 16988284282434229622
12390115 104 18334011714435844275
12516196 113 9439404636227428131
12596602 18 12612745792574752885
12670543 26 18341894086850352683
12730499 353 17967534570953772410
12954195 1 18201723890803307617
13533116 47 18272090496097248624
13782708 43 15194710368527131327
14117953 113 17988085487587514014
14251732 16 8502368932266585661
14251751 18 13039183723876004089
14251752 14 17203611458923919785
14341114 328 13479131302390992297
146900 427 12612759020720421166
14848160 23 11455895762891369073
14848178 5 12031792504574502601
14931854 50 18337125475568626246
14933364 13 18260551134633374653
15119646 104 16916793937380098575
15183329 4 17775008985729529937
15188451 53 13182746922348659700
15475509 8 18040159487132099693
15575132 122 17385995144957259381
16760501 71 8214134149484112310
17857418 61 13183028436233510989
18222031 100 14476971116001251232
18335252 114 18341041948591844317
190975 80 8502362339829610773
20465049 17 18186802444087589738
20567600 234 7853566907298017390
21033648 29 18114740559187578424
21279426 13 18410291411064026387
21315764 119 18334018280581172358
21458453 9 7853271125943779237
21987483 16 10231456498597040469
22061861 79 18202001044857756373
221357 26 18411136922579134436
2215653 11 18273495684394133462
22224240 67 9007051353954140244
22289505 5 18411701019610460260
23559900 14 18272083950150514456
23929065 36 13973413374978089107
29717793 49 17489874847106615800
3004659 81 18408887318031632306
3014965 18 18343019969292678007
3459 83 18130793330469215627
3729539 64 18340206297699805027
38570 142 18260268517253405443
3882209 13 17687455772791578562
4058900 60 18041559119033494275
4098825 35 18409450314411834598
4340502 62 10665227051300119008
46194498 28 18186523220143338316
53794403 172 17314520429057328420
59682541 52 18343301448859657782
59755656 215 18336263453529318991
6004065 56 9583220748603257461
633830 44 18263066864134466691
6443934 186 9295279543635267006
8988823 20 16343696652024332554
960060 61 18201722894549703478
9658208 31 17386010610601651506
9689198 14 17458350723646536157

>  <PUBCHEM_SHAPE_MULTIPOLES>  (1) 
498.66
18.85
2.59
1.32
14.63
0.49
0.03
-2.19
-7.65
-3.12
-0.09
-0.04
-0.12
1.54

>  <PUBCHEM_SHAPE_SELFOVERLAP>  (1) 
1080.469

>  <PUBCHEM_SHAPE_VOLUME>  (1) 
273.9

>  <PUBCHEM_COORDINATE_TYPE>  (1) 
2
5
10

$$$$
