19033
     RDKit          3D

 26 29  0  0  1  0  0  0  0  0999 V2000
   -1.7679    0.1515   -2.0131 O   0  0  0  0  0  0  0  0  0  0  0  0
    1.8578   -0.8435   -0.0328 N   0  0  0  0  0  0  0  0  0  0  0  0
    0.4962   -0.9816   -0.5485 C   0  0  0  0  0  0  0  0  0  0  0  0
   -0.3666    0.2033   -0.0853 C   0  0  0  0  0  0  0  0  0  0  0  0
   -1.8470    0.1446   -0.5748 C   0  0  0  0  0  0  0  0  0  0  0  0
    2.6705   -2.0134   -0.3876 C   0  0  0  0  0  0  0  0  0  0  0  0
    2.4811    0.3862   -0.5531 C   0  0  0  0  0  0  0  0  0  0  0  0
    4.0207   -1.9474    0.3337 C   0  0  0  0  0  0  0  0  0  0  0  0
    3.9379    0.5250   -0.1744 C   0  0  0  0  0  0  0  0  0  0  0  0
    4.6863   -0.6018    0.2075 C   0  0  0  0  0  0  0  0  0  0  0  0
   -2.6908    1.3673   -0.1782 C   0  0  0  0  0  0  0  0  0  0  0  0
   -2.5248   -1.1452   -0.0894 C   0  0  0  0  0  0  0  0  0  0  0  0
    4.5672    1.7739   -0.2643 C   0  0  0  0  0  0  0  0  0  0  0  0
    6.0419   -0.4568    0.5293 C   0  0  0  0  0  0  0  0  0  0  0  0
   -3.9751    1.4545   -0.6544 C   0  0  0  0  0  0  0  0  0  0  0  0
   -2.7424   -1.3019    1.2575 C   0  0  0  0  0  0  0  0  0  0  0  0
   -2.1215    2.3160    0.6335 C   0  0  0  0  0  0  0  0  0  0  0  0
   -2.8834   -2.0861   -1.0232 C   0  0  0  0  0  0  0  0  0  0  0  0
    5.9198    1.9064    0.0489 C   0  0  0  0  0  0  0  0  0  0  0  0
    6.6558    0.7928    0.4474 C   0  0  0  0  0  0  0  0  0  0  0  0
   -4.7405    2.5639   -0.2951 C   0  0  0  0  0  0  0  0  0  0  0  0
   -3.3577   -2.4735    1.6985 C   0  0  0  0  0  0  0  0  0  0  0  0
   -2.8869    3.4254    0.9930 C   0  0  0  0  0  0  0  0  0  0  0  0
   -3.4986   -3.2577   -0.5823 C   0  0  0  0  0  0  0  0  0  0  0  0
   -4.1964    3.5492    0.5287 C   0  0  0  0  0  0  0  0  0  0  0  0
   -3.7358   -3.4514    0.7786 C   0  0  0  0  0  0  0  0  0  0  0  0
  1  5  1  0
  2  3  1  0
  2  6  1  0
  2  7  1  0
  3  4  1  0
  4  5  1  0
  5 11  1  0
  5 12  1  0
  6  8  1  0
  7  9  1  0
  8 10  1  0
  9 10  2  0
  9 13  1  0
 10 14  1  0
 11 15  2  0
 11 17  1  0
 12 16  2  0
 12 18  1  0
 13 19  2  0
 14 20  2  0
 15 21  1  0
 16 22  1  0
 17 23  2  0
 18 24  2  0
 19 20  1  0
 21 25  2  0
 22 26  2  0
 23 25  1  0
 24 26  1  0
M  END
>  <PUBCHEM_COMPOUND_CID>  (1) 
19033

>  <PUBCHEM_CONFORMER_RMSD>  (1) 
0.8

>  <PUBCHEM_CONFORMER_DIVERSEORDER>  (1) 
1
46
44
15
28
7
42
32
2
27
25
16
40
39
11
14
8
38
9
22
20
45
17
12
35
37
29
26
6
24
31
23
34
10
3
43
5
36
13
4
21
30
19
41
33
18

>  <PUBCHEM_MMFF94_PARTIAL_CHARGES>  (1) 
40
1 -0.68
10 -0.14
11 -0.14
12 -0.14
13 -0.15
14 -0.15
15 -0.15
16 -0.15
17 -0.15
18 -0.15
19 -0.15
2 -0.81
20 -0.15
21 -0.15
22 -0.15
23 -0.15
24 -0.15
25 -0.15
26 -0.15
3 0.27
37 0.15
38 0.15
39 0.4
40 0.15
41 0.15
42 0.15
43 0.15
44 0.15
45 0.15
46 0.15
47 0.15
48 0.15
49 0.15
5 0.57
50 0.15
51 0.15
6 0.27
7 0.41
8 0.14
9 -0.14

>  <PUBCHEM_EFFECTIVE_ROTOR_COUNT>  (1) 
5.8

>  <PUBCHEM_PHARMACOPHORE_FEATURES>  (1) 
7
1 1 acceptor
1 1 donor
1 2 cation
6 11 15 17 21 23 25 rings
6 12 16 18 22 24 26 rings
6 2 6 7 8 9 10 rings
6 9 10 13 14 19 20 rings

>  <PUBCHEM_HEAVY_ATOM_COUNT>  (1) 
26

>  <PUBCHEM_ATOM_DEF_STEREO_COUNT>  (1) 
0

>  <PUBCHEM_ATOM_UDEF_STEREO_COUNT>  (1) 
0

>  <PUBCHEM_BOND_DEF_STEREO_COUNT>  (1) 
0

>  <PUBCHEM_BOND_UDEF_STEREO_COUNT>  (1) 
0

>  <PUBCHEM_ISOTOPIC_ATOM_COUNT>  (1) 
0

>  <PUBCHEM_COMPONENT_COUNT>  (1) 
1

>  <PUBCHEM_CACTVS_TAUTO_COUNT>  (1) 
1

>  <PUBCHEM_CONFORMER_ID>  (1) 
00004A5900000001

>  <PUBCHEM_MMFF94_ENERGY>  (1) 
83.6642

>  <PUBCHEM_FEATURE_SELFOVERLAP>  (1) 
35.544

>  <PUBCHEM_SHAPE_FINGERPRINT>  (1) 
10291535 26 18342454833702023881
10319688 45 18053097612292514687
10411042 1 18052253192406176415
10595046 47 18337105769962681438
10906281 52 17845945009167083409
11056379 131 18340496654642549390
11101153 10 18046350996460174764
11315181 36 18040711519779580230
11370993 144 18335701573059820654
11405975 8 18336263436486814282
11552529 35 18408880771684062038
12107183 9 18120928400845418778
12403259 118 18410566315162773928
12616971 3 16515692130596675334
12633257 1 18042957688965064938
12788726 201 18119547658415673399
12925494 130 18412539907695316976
12930653 34 18411422799691725398
13073987 5 18409725201815918552
13583140 156 17917705812369226138
14178342 30 18261120659643786230
14565420 104 17623309182237261153
14674994 50 16127230381973803895
14844126 61 18337954592807936755
15357212 105 18196401189536791788
15420108 30 14460374657794482434
15463212 79 18114176376910553793
16087824 20 18412824691309867847
17844677 252 18411986892696628382
20101258 96 18271243953717020073
20197701 30 18117560614077811917
21033648 144 18334848377806425292
21033648 29 18059278942842081792
21065198 57 18338238159285910230
21130935 74 18336536172049213818
21236236 1 18335700571920853839
21859007 373 17316471799971296284
22224240 67 18266187120127965553
22956985 138 16893429654961949131
23559900 14 18264757934608906181
2747138 104 18118133699785163866
283562 15 18262233425952678963
3633792 109 18116981205720406069
4073 2 18334860502973971962
4258327 124 17822305590795377821
497634 4 18113895004775668556
5104073 3 18261384543178121386
5171179 24 17843669209344966009
5309563 4 17979637058876416779
5924683 9 18334857255271755755
5969126 39 18271236248830567071
6004065 56 17977947109990490947
6371380 46 17834121836016155918
9981440 41 18058728001279791551

>  <PUBCHEM_SHAPE_MULTIPOLES>  (1) 
524.22
14.27
4.3
1.14
22.94
0.46
0.02
4.31
1.93
-7.62
0.99
-1.08
-0.33
0.06

>  <PUBCHEM_SHAPE_SELFOVERLAP>  (1) 
1143.722

>  <PUBCHEM_SHAPE_VOLUME>  (1) 
283.2

>  <PUBCHEM_COORDINATE_TYPE>  (1) 
2
5
10

$$$$
