19036
     RDKit          3D

 44 49  0  0  0  0  0  0  0  0999 V2000
    3.8508    2.3214   -0.3871 Cl  0  0  0  0  0  0  0  0  0  0  0  0
   -3.8481   -2.3217   -0.3869 Cl  0  0  0  0  0  0  0  0  0  0  0  0
    7.2197    1.2798    0.8221 O   0  0  0  0  0  0  0  0  0  0  0  0
   -7.2214   -1.2795    0.8221 O   0  0  0  0  0  0  0  0  0  0  0  0
    8.8515   -0.4075    0.5545 N   0  0  0  0  0  0  0  0  0  0  0  0
   -8.8532    0.4078    0.5542 N   0  0  0  0  0  0  0  0  0  0  0  0
    8.7424   -1.7161    0.1479 N   0  0  0  0  0  0  0  0  0  0  0  0
   -8.7442    1.7164    0.1475 N   0  0  0  0  0  0  0  0  0  0  0  0
    5.3004   -0.7841    0.0317 N   0  0  0  0  0  0  0  0  0  0  0  0
   -5.2950    0.7834    0.0309 N   0  0  0  0  0  0  0  0  0  0  0  0
    4.8962   -0.4349   -1.1003 N   0  0  0  0  0  0  0  0  0  0  0  0
   -4.8934    0.4345   -1.1004 N   0  0  0  0  0  0  0  0  0  0  0  0
    7.4233   -2.0226   -0.0743 C   0  0  0  0  0  0  0  0  0  0  0  0
   -7.4250    2.0228   -0.0746 C   0  0  0  0  0  0  0  0  0  0  0  0
    6.6408   -0.9523    0.1241 C   0  0  0  0  0  0  0  0  0  0  0  0
   -6.6427    0.9524    0.1238 C   0  0  0  0  0  0  0  0  0  0  0  0
    7.5682    0.1428    0.5503 C   0  0  0  0  0  0  0  0  0  0  0  0
   -7.5700   -0.1425    0.5501 C   0  0  0  0  0  0  0  0  0  0  0  0
   10.0746    0.1823    0.8016 C   0  0  0  0  0  0  0  0  0  0  0  0
  -10.0763   -0.1820    0.8015 C   0  0  0  0  0  0  0  0  0  0  0  0
    7.0274   -3.4054   -0.4517 C   0  0  0  0  0  0  0  0  0  0  0  0
   -7.0291    3.4055   -0.4523 C   0  0  0  0  0  0  0  0  0  0  0  0
    0.7224   -0.0593   -1.0901 C   0  0  0  0  0  0  0  0  0  0  0  0
   -0.7196    0.0588   -1.0902 C   0  0  0  0  0  0  0  0  0  0  0  0
   10.1578    1.5485    1.1079 C   0  0  0  0  0  0  0  0  0  0  0  0
  -10.1596   -1.5482    1.1077 C   0  0  0  0  0  0  0  0  0  0  0  0
   11.2542   -0.5748    0.7513 C   0  0  0  0  0  0  0  0  0  0  0  0
  -11.2560    0.5750    0.7510 C   0  0  0  0  0  0  0  0  0  0  0  0
    3.4981   -0.2885   -1.0900 C   0  0  0  0  0  0  0  0  0  0  0  0
   -3.4999    0.2886   -1.0902 C   0  0  0  0  0  0  0  0  0  0  0  0
    1.5134    1.0462   -0.7774 C   0  0  0  0  0  0  0  0  0  0  0  0
   -1.5107   -1.0466   -0.7773 C   0  0  0  0  0  0  0  0  0  0  0  0
    1.3215   -1.2796   -1.4028 C   0  0  0  0  0  0  0  0  0  0  0  0
   -1.3187    1.2792   -1.4030 C   0  0  0  0  0  0  0  0  0  0  0  0
    2.9037    0.9314   -0.7775 C   0  0  0  0  0  0  0  0  0  0  0  0
   -2.9009   -0.9318   -0.7775 C   0  0  0  0  0  0  0  0  0  0  0  0
    2.7115   -1.3944   -1.4028 C   0  0  0  0  0  0  0  0  0  0  0  0
   -2.7087    1.3940   -1.4031 C   0  0  0  0  0  0  0  0  0  0  0  0
   11.3937    2.1448    1.3581 C   0  0  0  0  0  0  0  0  0  0  0  0
  -11.3955   -2.1444    1.3580 C   0  0  0  0  0  0  0  0  0  0  0  0
   12.4901    0.0216    1.0016 C   0  0  0  0  0  0  0  0  0  0  0  0
  -12.4919   -0.0213    1.0014 C   0  0  0  0  0  0  0  0  0  0  0  0
   12.5598    1.3814    1.3051 C   0  0  0  0  0  0  0  0  0  0  0  0
  -12.5615   -1.3811    1.3049 C   0  0  0  0  0  0  0  0  0  0  0  0
  1 35  1  0
  2 36  1  0
  3 17  2  0
  4 18  2  0
  5  7  1  0
  5 17  1  0
  5 19  1  0
  6  8  1  0
  6 18  1  0
  6 20  1  0
  7 13  1  0
  8 14  1  0
  9 11  2  0
  9 15  1  0
 10 12  2  0
 10 16  1  0
 11 29  1  0
 12 30  1  0
 13 15  2  0
 13 21  1  0
 14 16  2  0
 14 22  1  0
 15 17  1  0
 16 18  1  0
 19 25  2  0
 19 27  1  0
 20 26  2  0
 20 28  1  0
 23 24  1  0
 23 31  2  0
 23 33  1  0
 24 32  2  0
 24 34  1  0
 25 39  1  0
 26 40  1  0
 27 41  2  0
 28 42  2  0
 29 35  2  0
 29 37  1  0
 30 36  2  0
 30 38  1  0
 31 35  1  0
 32 36  1  0
 33 37  2  0
 34 38  2  0
 39 43  2  0
 40 44  2  0
 41 43  1  0
 42 44  1  0
M  END
>  <PUBCHEM_COMPOUND_CID>  (1) 
19036

>  <PUBCHEM_CONFORMER_RMSD>  (1) 
1

>  <PUBCHEM_CONFORMER_DIVERSEORDER>  (1) 
5
4
11
40
17
42
30
22
12
19
46
7
44
45
29
25
32
6
26
9
48
38
31
13
1
49
2
16
24
43
28
27
37
20
35
47
33
15
18
34
10
21
3
14
39
41
23
36
8

>  <PUBCHEM_MMFF94_PARTIAL_CHARGES>  (1) 
60
1 -0.18
10 -0.17
11 -0.18
12 -0.18
13 -0.04
14 -0.04
15 0.19
16 0.19
17 0.62
18 0.62
19 0.12
2 -0.18
20 0.12
21 0.14
22 0.14
25 -0.15
26 -0.15
27 -0.15
28 -0.15
29 0.18
3 -0.57
30 0.18
31 -0.15
32 -0.15
33 -0.15
34 -0.15
35 0.18
36 0.18
37 -0.15
38 -0.15
39 -0.15
4 -0.57
40 -0.15
41 -0.15
42 -0.15
43 -0.15
44 -0.15
45 0.4
46 0.4
5 -0.16
53 0.15
54 0.15
55 0.15
56 0.15
57 0.15
58 0.15
59 0.15
6 -0.16
60 0.15
61 0.15
62 0.15
63 0.15
64 0.15
65 0.15
66 0.15
67 0.15
68 0.15
7 -0.52
8 -0.52
9 -0.17

>  <PUBCHEM_EFFECTIVE_ROTOR_COUNT>  (1) 
7

>  <PUBCHEM_PHARMACOPHORE_FEATURES>  (1) 
10
1 3 acceptor
1 4 acceptor
1 7 donor
1 8 donor
5 5 7 13 15 17 rings
5 6 8 14 16 18 rings
6 19 25 27 39 41 43 rings
6 20 26 28 40 42 44 rings
6 23 29 31 33 35 37 rings
6 24 30 32 34 36 38 rings

>  <PUBCHEM_HEAVY_ATOM_COUNT>  (1) 
44

>  <PUBCHEM_ATOM_DEF_STEREO_COUNT>  (1) 
0

>  <PUBCHEM_ATOM_UDEF_STEREO_COUNT>  (1) 
0

>  <PUBCHEM_BOND_DEF_STEREO_COUNT>  (1) 
0

>  <PUBCHEM_BOND_UDEF_STEREO_COUNT>  (1) 
0

>  <PUBCHEM_ISOTOPIC_ATOM_COUNT>  (1) 
0

>  <PUBCHEM_COMPONENT_COUNT>  (1) 
1

>  <PUBCHEM_CACTVS_TAUTO_COUNT>  (1) 
6

>  <PUBCHEM_CONFORMER_ID>  (1) 
00004A5C00000005

>  <PUBCHEM_MMFF94_ENERGY>  (1) 
154.6597

>  <PUBCHEM_FEATURE_SELFOVERLAP>  (1) 
50.75

>  <PUBCHEM_SHAPE_FINGERPRINT>  (1) 
10533779 47 17917155996294518847
10580692 12 18410573972266549259
11061554 47 14405194941474672755
11409948 8 18410855464428410478
11411753 29 15647048287239832327
11534866 41 17967816024741067794
11828042 206 10159686998660642042
12498461 61 18040436621068226235
12664476 115 17775284955244073729
13740195 50 18410857664454050763
15065858 18 18334574594746687935
15247644 1 15646772284246654720
15706992 2 16774080682558806772
16728433 110 18261109686345554804
16992610 120 12463569582525268781
1754911 235 10231751184839703815
19315958 150 17775288231508094790
20105231 36 17821729399420657618
20580484 106 18259982673740982411
21102433 48 16877941641956760091
21360443 89 17821729451529678469
21792961 116 12685093684153408805
21895431 317 16009022857375731554
3092352 35 16877659047406893266
3986486 107 8358266938921516431
3991529 128 17417813963561491760
4339292 15 15936408945003771599
44575985 110 10737278048331187922
57828716 8 16081084896351363323
6523845 18 16008746918158183967

>  <PUBCHEM_SHAPE_MULTIPOLES>  (1) 
857.65
59.33
2.59
1.41
0.13
0
0.06
0.01
-41.4
0
0.08
0
0
4.05

>  <PUBCHEM_SHAPE_SELFOVERLAP>  (1) 
1887.545

>  <PUBCHEM_SHAPE_VOLUME>  (1) 
463.3

>  <PUBCHEM_COORDINATE_TYPE>  (1) 
2
5
10

$$$$
