1903
     RDKit          3D

 30 34  0  0  1  0  0  0  0  0999 V2000
    7.8539    0.4799   -0.5332 Cl  0  0  0  0  0  0  0  0  0  0  0  0
    2.0964   -1.9169    0.3068 S   0  0  0  0  0  0  0  0  0  0  0  0
   -4.6288    0.4155   -0.8592 P   0  0  0  0  0  0  0  0  0  0  0  0
   -2.1763   -1.2039    1.4833 O   0  0  0  0  0  0  0  0  0  0  0  0
   -3.2594   -0.4233   -1.1472 O   0  0  0  0  0  0  0  0  0  0  0  0
   -1.5729   -3.5463   -0.6761 O   0  0  0  0  0  0  0  0  0  0  0  0
   -4.5991    0.3581    0.7740 O   0  0  0  0  0  0  0  0  0  0  0  0
   -5.8155   -0.3726   -1.3707 O   0  0  0  0  0  0  0  0  0  0  0  0
   -4.4106    1.8488   -1.2913 O   0  0  0  0  0  0  0  0  0  0  0  0
   -0.1851   -0.4363    0.4365 N   0  0  0  0  0  0  0  0  0  0  0  0
    1.6754    0.7590    0.1286 N   0  0  0  0  0  0  0  0  0  0  0  0
   -1.8254    1.3558    0.4720 N   0  0  0  0  0  0  0  0  0  0  0  0
   -0.7685    3.5349    0.1720 N   0  0  0  0  0  0  0  0  0  0  0  0
    1.5936    3.7888   -0.1151 N   0  0  0  0  0  0  0  0  0  0  0  0
   -3.1302   -1.7300   -0.5975 C   0  0  0  0  0  0  0  0  0  0  0  0
   -3.3820   -1.7374    0.9064 C   0  0  0  0  0  0  0  0  0  0  0  0
   -1.6685   -2.1248   -0.6732 C   0  0  0  0  0  0  0  0  0  0  0  0
   -1.0773   -1.5812    0.6320 C   0  0  0  0  0  0  0  0  0  0  0  0
   -4.5796   -0.9284    1.3806 C   0  0  0  0  0  0  0  0  0  0  0  0
   -0.5780    0.8723    0.3718 C   0  0  0  0  0  0  0  0  0  0  0  0
    1.1784   -0.4503    0.2853 C   0  0  0  0  0  0  0  0  0  0  0  0
    0.5886    1.5954    0.1805 C   0  0  0  0  0  0  0  0  0  0  0  0
    0.4628    2.9772    0.0795 C   0  0  0  0  0  0  0  0  0  0  0  0
   -1.8205    2.7019    0.3597 C   0  0  0  0  0  0  0  0  0  0  0  0
    3.7368   -1.2341    0.0674 C   0  0  0  0  0  0  0  0  0  0  0  0
    4.4977   -0.8721    1.1722 C   0  0  0  0  0  0  0  0  0  0  0  0
    4.2324   -1.0728   -1.2207 C   0  0  0  0  0  0  0  0  0  0  0  0
    5.7738   -0.3406    0.9861 C   0  0  0  0  0  0  0  0  0  0  0  0
    5.5085   -0.5414   -1.4070 C   0  0  0  0  0  0  0  0  0  0  0  0
    6.2794   -0.1752   -0.3035 C   0  0  0  0  0  0  0  0  0  0  0  0
  1 30  1  0
  2 21  1  0
  2 25  1  0
  3  5  1  0
  3  7  1  0
  3  8  1  0
  3  9  2  0
  4 16  1  0
  4 18  1  0
  5 15  1  0
  6 17  1  0
  7 19  1  0
 10 18  1  0
 10 20  1  0
 10 21  1  0
 11 21  2  0
 11 22  1  0
 12 20  1  0
 12 24  2  0
 13 23  2  0
 13 24  1  0
 14 23  1  0
 15 16  1  0
 15 17  1  0
 16 19  1  0
 17 18  1  0
 20 22  2  0
 22 23  1  0
 25 26  2  0
 25 27  1  0
 26 28  1  0
 27 29  2  0
 28 30  2  0
 29 30  1  0
M  CHG  1   8  -1
M  END
>  <PUBCHEM_COMPOUND_CID>  (1) 
1903

>  <PUBCHEM_CONFORMER_RMSD>  (1) 
0.8

>  <PUBCHEM_CONFORMER_DIVERSEORDER>  (1) 
1
114
47
219
149
209
128
137
46
81
194
126
214
10
105
67
192
142
143
57
164
174
38
118
216
154
151
193
206
103
79
87
41
190
69
4
13
218
49
122
71
217
183
130
134
169
125
133
185
153
102
199
19
124
99
21
43
208
22
156
175
148
173
159
11
187
88
75
127
203
150
205
160
42
176
141
3
85
157
23
37
61
92
144
17
167
108
74
195
201
94
76
106
147
166
5
63
186
184
78
93
113
180
132
77
191
170
139
168
215
86
123
200
101
2
16
210
111
18
91
89
68
107
135
197
39
202
140
211
34
44
162
90
97
189
196
53
31
182
59
146
112
62
27
171
40
110
117
24
188
204
29
52
20
178
83
121
51
54
116
33
82
158
95
100
155
14
165
15
30
120
181
98
198
172
131
7
9
96
32
55
119
12
64
138
177
115
28
25
129
179
109
36
58
8
207
152
48
70
65
136
145
73
213
66
35
161
212
56
45
163
104
60
26
50
80
84
6
72

>  <PUBCHEM_MMFF94_PARTIAL_CHARGES>  (1) 
38
1 -0.18
10 0.05
11 -0.57
12 -0.57
13 -0.62
14 -0.9
15 0.28
16 0.28
17 0.28
18 0.54
19 0.28
2 -0.16
20 0.11
21 0.24
22 0.23
23 0.41
24 0.47
25 0.1
26 -0.15
27 -0.15
28 -0.15
29 -0.15
3 1.44
30 0.18
37 0.4
38 0.15
39 0.4
4 -0.56
40 0.4
41 0.15
42 0.15
43 0.15
44 0.15
5 -0.55
6 -0.68
7 -0.55
8 -0.95
9 -0.95

>  <PUBCHEM_EFFECTIVE_ROTOR_COUNT>  (1) 
4.2

>  <PUBCHEM_PHARMACOPHORE_FEATURES>  (1) 
15
1 14 cation
1 14 donor
1 4 acceptor
1 6 acceptor
1 6 donor
1 8 acceptor
1 9 acceptor
3 10 11 21 cation
3 10 12 20 cation
3 12 13 24 cation
5 10 11 20 21 22 rings
5 4 15 16 17 18 rings
6 12 13 20 22 23 24 rings
6 25 26 27 28 29 30 rings
6 3 5 7 15 16 19 rings

>  <PUBCHEM_HEAVY_ATOM_COUNT>  (1) 
30

>  <PUBCHEM_ATOM_DEF_STEREO_COUNT>  (1) 
0

>  <PUBCHEM_ATOM_UDEF_STEREO_COUNT>  (1) 
4

>  <PUBCHEM_BOND_DEF_STEREO_COUNT>  (1) 
0

>  <PUBCHEM_BOND_UDEF_STEREO_COUNT>  (1) 
0

>  <PUBCHEM_ISOTOPIC_ATOM_COUNT>  (1) 
0

>  <PUBCHEM_COMPONENT_COUNT>  (1) 
1

>  <PUBCHEM_CACTVS_TAUTO_COUNT>  (1) 
3

>  <PUBCHEM_CONFORMER_ID>  (1) 
0000076F00000001

>  <PUBCHEM_MMFF94_ENERGY>  (1) 
70.1389

>  <PUBCHEM_FEATURE_SELFOVERLAP>  (1) 
76.97

>  <PUBCHEM_SHAPE_FINGERPRINT>  (1) 
10165383 225 17385719172097151543
10669705 176 18336835209115022974
10670039 82 18263377910794304726
10675989 125 16674984685057127173
10906281 52 18340218392174223003
11014199 57 17983291826668652086
12166972 35 17458350758459780190
12236239 1 17676487238170901794
12516196 113 18412265055932053682
12553582 1 18411421726081692090
12788726 201 18335416821059662002
13140716 1 18267588094396943819
13911987 19 18336818732529179999
14251757 5 18335423477942842478
14674994 50 17274525642004069167
14790565 3 17547859546918644408
14840074 17 17989768899570274782
15849732 13 18060425724801204915
16087824 20 18338238142623551473
17980427 23 16988572328805829153
18336668 15 18113904874721752204
19319366 153 17822282449142717986
20511986 3 17894619332687979666
20600515 1 17987538015946341240
20642791 35 18410847798407847944
20775438 99 16977257427055560751
21033648 29 17846489310034649451
21236236 1 18270402681007891008
21792961 116 18113338587489194226
23557571 272 18202008690495674492
23558518 356 17543905707214785227
23559900 14 18341043125149321264
23576562 1 18263356061778640791
24771750 20 17973739261214433532
314173 85 18343585144413529658
3178227 256 18336275578807383027
335352 9 18410289216815981165
34934 24 18335978684017709138
4280585 95 18411692223327326156
484989 97 18191295178403145999
504579 68 18041291993959458814
5283173 99 18186794743206329860
57527295 17 17968362516669720867
70251023 43 17764019569001018235
7226269 152 18333449833212004258
7237137 82 18260268533985083100

>  <PUBCHEM_SHAPE_MULTIPOLES>  (1) 
566.83
14.26
3.4
1.23
18.74
2.61
-0.08
-2.33
-2.98
-1.9
-0.08
-0.41
-0.35
0.26

>  <PUBCHEM_SHAPE_SELFOVERLAP>  (1) 
1219.863

>  <PUBCHEM_SHAPE_VOLUME>  (1) 
314.2

>  <PUBCHEM_COORDINATE_TYPE>  (1) 
2
5
10

$$$$
