19047
     RDKit          3D

 16 17  0  0  1  0  0  0  0  0999 V2000
    2.7986    0.2203    0.6440 N   0  0  0  0  0  0  0  0  0  0  0  0
    0.1702    1.0275   -0.2038 N   0  0  0  0  0  0  0  0  0  0  0  0
   -3.9360   -0.2816   -0.0097 N   0  0  0  0  0  0  0  0  0  0  0  0
    1.6224   -0.4599    1.2073 C   0  0  0  0  0  0  0  0  0  0  0  0
    2.5615    0.5134   -0.7779 C   0  0  0  0  0  0  0  0  0  0  0  0
    0.4413    0.5383    1.1540 C   0  0  0  0  0  0  0  0  0  0  0  0
    1.3909    1.5226   -0.8528 C   0  0  0  0  0  0  0  0  0  0  0  0
    1.3126   -1.7915    0.4912 C   0  0  0  0  0  0  0  0  0  0  0  0
    2.3053   -0.7621   -1.6080 C   0  0  0  0  0  0  0  0  0  0  0  0
    1.2211   -1.6714   -1.0298 C   0  0  0  0  0  0  0  0  0  0  0  0
   -0.8810    2.0404   -0.2044 C   0  0  0  0  0  0  0  0  0  0  0  0
    4.0551   -0.4736    0.8981 C   0  0  0  0  0  0  0  0  0  0  0  0
   -2.1891    1.4441    0.3182 C   0  0  0  0  0  0  0  0  0  0  0  0
   -2.6799    0.2585   -0.5156 C   0  0  0  0  0  0  0  0  0  0  0  0
   -3.7741   -0.7647    1.3628 C   0  0  0  0  0  0  0  0  0  0  0  0
   -4.4189   -1.3603   -0.8737 C   0  0  0  0  0  0  0  0  0  0  0  0
  1  4  1  0
  1  5  1  0
  1 12  1  0
  2  6  1  0
  2  7  1  0
  2 11  1  0
  3 14  1  0
  3 15  1  0
  3 16  1  0
  4  6  1  0
  4  8  1  0
  5  7  1  0
  5  9  1  0
  8 10  1  0
  9 10  1  0
 11 13  1  0
 13 14  1  0
M  END
>  <PUBCHEM_COMPOUND_CID>  (1) 
19047

>  <PUBCHEM_CONFORMER_RMSD>  (1) 
0.6

>  <PUBCHEM_CONFORMER_DIVERSEORDER>  (1) 
3
137
150
119
9
27
101
151
105
1
69
149
26
97
8
162
94
90
28
145
73
25
118
32
116
163
133
23
120
161
61
99
51
24
2
164
157
30
158
11
142
85
13
66
106
109
156
60
148
12
129
108
36
154
47
20
91
64
131
39
146
155
31
98
152
87
6
16
54
17
107
130
19
110
42
103
86
111
59
113
43
15
134
79
89
10
138
83
35
123
57
112
82
55
4
63
136
143
75
7
140
48
88
18
44
78
76
104
38
124
135
165
5
117
125
34
121
65
62
33
132
50
37
71
144
96
114
160
22
72
81
29
67
147
115
70
45
122
139
14
56
93
159
84
74
41
21
141
58
68
128
49
102
153
40
92
52
95
126
53
127
46
100
80
77

>  <PUBCHEM_MMFF94_PARTIAL_CHARGES>  (1) 
12
1 -0.81
11 0.27
12 0.27
14 0.27
15 0.27
16 0.27
2 -0.81
3 -0.81
4 0.27
5 0.27
6 0.27
7 0.27

>  <PUBCHEM_EFFECTIVE_ROTOR_COUNT>  (1) 
5.4

>  <PUBCHEM_PHARMACOPHORE_FEATURES>  (1) 
5
1 1 cation
1 2 cation
1 3 cation
6 1 2 4 5 6 7 rings
6 1 4 5 8 9 10 rings

>  <PUBCHEM_HEAVY_ATOM_COUNT>  (1) 
16

>  <PUBCHEM_ATOM_DEF_STEREO_COUNT>  (1) 
0

>  <PUBCHEM_ATOM_UDEF_STEREO_COUNT>  (1) 
2

>  <PUBCHEM_BOND_DEF_STEREO_COUNT>  (1) 
0

>  <PUBCHEM_BOND_UDEF_STEREO_COUNT>  (1) 
0

>  <PUBCHEM_ISOTOPIC_ATOM_COUNT>  (1) 
0

>  <PUBCHEM_COMPONENT_COUNT>  (1) 
1

>  <PUBCHEM_CACTVS_TAUTO_COUNT>  (1) 
1

>  <PUBCHEM_CONFORMER_ID>  (1) 
00004A6700000003

>  <PUBCHEM_MMFF94_ENERGY>  (1) 
31.4064

>  <PUBCHEM_FEATURE_SELFOVERLAP>  (1) 
26.97

>  <PUBCHEM_SHAPE_FINGERPRINT>  (1) 
10064457 181 16415197926947812439
10618630 7 18342459218773832437
10759866 29 17169003338001739158
10980938 120 11023833842277522605
11067466 332 18343584057496640356
12553582 1 18339652221638946901
12596599 1 18200608006955410155
13134695 92 12973600024047797902
13296908 3 18131072576236775101
13464513 79 18272086166617545455
13705890 14 16732987547904313481
14178342 30 18195246615863486416
14181834 199 16154002257269859398
14252887 29 18131357414151616983
15375358 24 18339350890944108749
15757776 16 18186516605176069149
16945 1 18041857112016730704
17041 50 11819284325643016142
18186145 218 10881400954621510303
200 152 18113049437558471049
20279233 1 18060131003881381965
20442098 301 18272094859836879389
20645477 70 18337951328843392149
20671657 53 18040998466555565181
21069387 34 16371006256867301704
21730867 7 17632293458364578507
22892500 29 14490191630928753766
23402539 116 18040992900045568168
23419403 2 14855491196688039488
23557571 272 18264200310093347412
25 1 8790891799907286729
2871803 45 18410290298672888663
4175511 335 16950281801729268291
449060 23 18413113857475960837
74978 22 9006759991435271385

>  <PUBCHEM_SHAPE_MULTIPOLES>  (1) 
314.33
7.18
1.88
1.4
6.35
0.18
0
-2.64
-0.4
0.34
0.31
-0.38
-0.33
-0.19

>  <PUBCHEM_SHAPE_SELFOVERLAP>  (1) 
621.933

>  <PUBCHEM_SHAPE_VOLUME>  (1) 
186.1

>  <PUBCHEM_COORDINATE_TYPE>  (1) 
2
5
10

$$$$
