19056
     RDKit          3D

 25 28  0  0  1  0  0  0  0  0999 V2000
   -3.7359    0.1816    2.4184 Br  0  0  0  0  0  0  0  0  0  0  0  0
    2.9677   -3.0111   -0.1276 F   0  0  0  0  0  0  0  0  0  0  0  0
   -4.7681    1.7907   -0.4110 O   0  0  0  0  0  0  0  0  0  0  0  0
    6.0967    0.5150    1.1151 O   0  0  0  0  0  0  0  0  0  0  0  0
   -1.3752   -0.8611    0.2271 C   0  0  0  0  0  0  0  0  0  0  0  0
   -2.2724    0.3399   -0.1525 C   0  0  0  0  0  0  0  0  0  0  0  0
    0.0315   -0.7856   -0.3825 C   0  0  0  0  0  0  0  0  0  0  0  0
    0.7264    0.5284    0.0912 C   0  0  0  0  0  0  0  0  0  0  0  0
    2.2018    0.6726   -0.4506 C   0  0  0  0  0  0  0  0  0  0  0  0
   -3.6202   -0.1042    0.4777 C   0  0  0  0  0  0  0  0  0  0  0  0
   -1.5982    1.6210    0.3697 C   0  0  0  0  0  0  0  0  0  0  0  0
   -0.1622    1.7757   -0.1657 C   0  0  0  0  0  0  0  0  0  0  0  0
   -2.2409   -2.0753   -0.1019 C   0  0  0  0  0  0  0  0  0  0  0  0
    0.8778   -1.9984    0.0191 C   0  0  0  0  0  0  0  0  0  0  0  0
   -3.6838   -1.6237    0.2022 C   0  0  0  0  0  0  0  0  0  0  0  0
    2.9786   -0.6254   -0.1829 C   0  0  0  0  0  0  0  0  0  0  0  0
   -2.4598    0.4805   -1.6964 C   0  0  0  0  0  0  0  0  0  0  0  0
    2.2815   -1.9124   -0.5606 C   0  0  0  0  0  0  0  0  0  0  0  0
    2.8788    1.8625    0.2908 C   0  0  0  0  0  0  0  0  0  0  0  0
    2.2336    0.9484   -1.9713 C   0  0  0  0  0  0  0  0  0  0  0  0
   -4.8294    0.6221   -0.0320 C   0  0  0  0  0  0  0  0  0  0  0  0
    4.3921    1.8885    0.1481 C   0  0  0  0  0  0  0  0  0  0  0  0
    4.2186   -0.6603    0.3338 C   0  0  0  0  0  0  0  0  0  0  0  0
    4.9818    0.5804    0.6010 C   0  0  0  0  0  0  0  0  0  0  0  0
   -6.1208   -0.1497   -0.0591 C   0  0  0  0  0  0  0  0  0  0  0  0
  1 10  1  0
  2 18  1  0
  3 21  2  0
  4 24  2  0
  5  6  1  0
  5  7  1  0
  5 13  1  0
  6 10  1  0
  6 11  1  0
  6 17  1  0
  7  8  1  0
  7 14  1  0
  8  9  1  0
  8 12  1  0
  9 16  1  0
  9 19  1  0
  9 20  1  0
 10 15  1  0
 10 21  1  0
 11 12  1  0
 13 15  1  0
 14 18  1  0
 16 18  1  0
 16 23  2  0
 19 22  1  0
 21 25  1  0
 22 24  1  0
 23 24  1  0
M  END
>  <PUBCHEM_COMPOUND_CID>  (1) 
19056

>  <PUBCHEM_CONFORMER_RMSD>  (1) 
0.6

>  <PUBCHEM_CONFORMER_DIVERSEORDER>  (1) 
1
68
47
150
83
89
117
66
135
56
119
120
104
102
80
35
57
138
148
27
139
118
36
74
147
44
65
23
123
78
127
70
71
82
101
91
142
113
42
140
103
33
93
48
73
34
67
114
98
49
157
132
99
41
144
25
88
107
141
59
15
115
45
76
156
145
40
64
133
116
11
75
79
30
128
63
126
90
154
4
109
146
95
52
121
110
53
84
143
18
28
9
137
124
125
46
108
85
32
20
136
87
100
72
151
21
62
58
86
81
3
97
94
16
17
152
155
6
153
31
60
7
50
38
129
24
10
122
112
51
158
12
131
55
134
14
19
106
2
26
111
13
29
54
96
105
77
92
39
69
149
22
130
5
43
8
61
37

>  <PUBCHEM_MMFF94_PARTIAL_CHARGES>  (1) 
14
1 -0.23
10 0.29
16 -0.28
18 0.48
2 -0.34
21 0.45
22 0.06
23 -0.14
24 0.49
25 0.06
3 -0.57
4 -0.57
50 0.15
9 0.14

>  <PUBCHEM_EFFECTIVE_ROTOR_COUNT>  (1) 
2.8

>  <PUBCHEM_PHARMACOPHORE_FEATURES>  (1) 
7
1 1 hydrophobe
1 3 acceptor
1 4 acceptor
5 5 6 10 13 15 rings
6 5 6 7 8 11 12 rings
6 7 8 9 14 16 18 rings
6 9 16 19 22 23 24 rings

>  <PUBCHEM_HEAVY_ATOM_COUNT>  (1) 
25

>  <PUBCHEM_ATOM_DEF_STEREO_COUNT>  (1) 
2

>  <PUBCHEM_ATOM_UDEF_STEREO_COUNT>  (1) 
5

>  <PUBCHEM_BOND_DEF_STEREO_COUNT>  (1) 
0

>  <PUBCHEM_BOND_UDEF_STEREO_COUNT>  (1) 
0

>  <PUBCHEM_ISOTOPIC_ATOM_COUNT>  (1) 
0

>  <PUBCHEM_COMPONENT_COUNT>  (1) 
1

>  <PUBCHEM_CACTVS_TAUTO_COUNT>  (1) 
4

>  <PUBCHEM_CONFORMER_ID>  (1) 
00004A7000000001

>  <PUBCHEM_MMFF94_ENERGY>  (1) 
83.5839

>  <PUBCHEM_FEATURE_SELFOVERLAP>  (1) 
35.613

>  <PUBCHEM_SHAPE_FINGERPRINT>  (1) 
10 15 18260827137790381456
10366900 7 16845572023934879907
10906281 52 18188226372059957436
11089746 13 17346593097281516288
11132069 177 18408610274748865199
11578080 2 16952515893931038366
11796584 16 15719393936329068368
12107183 9 17624143702402316555
12236239 1 17561082488754700847
12403814 3 17749387092216637549
12422481 6 18260542312533217380
12553582 1 18267044849837852621
12596602 18 17561085804480159107
12633257 1 16950563324066533734
12670546 56 17846223215483297217
12788726 201 17059781018352523489
13140716 1 18196087965781455776
13224815 77 18413113874196803155
13533116 47 18130787824363606307
13583140 156 18130223860824004041
13675066 3 18113907065086078657
14223421 5 18338515231947113652
14341114 176 18410857642609851810
14341114 328 18059859501829366624
14790565 3 18048606116426212380
15163728 17 14906801981488411635
15196674 1 18410856594047182622
15375358 24 18408605863885946011
15536298 74 18342462508555426286
15788980 27 17894912961773558033
16945 1 18340497693913312788
17349148 13 18186801417769675620
17980427 23 18115303518173851484
1813 80 16950568761458220886
19784866 9 18411979174308094658
200 152 18202278104898217357
20511986 3 18130773547823560667
20645477 70 18341050722550530135
20715895 44 18190454970460719301
21033648 29 18262217980765011544
21267235 1 18411428284211741006
21279426 13 18194118521782074717
21421861 104 18042114376336725466
21452121 103 18410853231346291794
21859007 373 17460297868518894645
22149856 69 18268171837294438611
22182313 1 18042117674375411774
23402539 116 18271236218158841940
23559900 14 18341329994652285174
26918003 58 17821730550197346065
296302 2 18131350816897299014
335352 9 18411418410841459662
34797466 226 14979677744672920976
34934 24 18341889692993567231
350125 39 18409728504546178844
3545911 37 18411138038916755302
3633792 109 18270676468747379229
3680242 22 18335981965599057194
392239 28 18272089435230108960
42630746 31 18342458136384071118
4340502 62 18341895207588916647
460360 51 18267042569426522473
474 4 18343585178783850064
5104073 3 18336272236969490083
59755656 215 18410015408092201790
633830 44 17988650752417121748
9709674 26 18410580577968994271

>  <PUBCHEM_SHAPE_MULTIPOLES>  (1) 
501.42
11.69
2.28
1.31
0.06
0.9
0.22
-2.22
2.67
-1.05
-0.15
0.64
-0.31
0.28

>  <PUBCHEM_SHAPE_SELFOVERLAP>  (1) 
1064.723

>  <PUBCHEM_SHAPE_VOLUME>  (1) 
286.3

>  <PUBCHEM_COORDINATE_TYPE>  (1) 
2
5
10

$$$$
