19051
     RDKit          3D

  6  5  0  0  0  0  0  0  0  0999 V2000
    1.1943    1.3068   -0.0002 O   0  0  0  0  0  0  0  0  0  0  0  0
   -0.6705   -0.0660   -0.0001 N   0  0  0  0  0  0  0  0  0  0  0  0
   -1.1486   -1.3745   -0.0003 N   0  0  0  0  0  0  0  0  0  0  0  0
    0.6962    0.1787   -0.0003 C   0  0  0  0  0  0  0  0  0  0  0  0
   -1.6655    0.9929    0.0004 C   0  0  0  0  0  0  0  0  0  0  0  0
    1.5942   -1.0378    0.0005 C   0  0  0  0  0  0  0  0  0  0  0  0
  1  4  2  0
  2  3  1  0
  2  4  1  0
  2  5  1  0
  4  6  1  0
M  END
>  <PUBCHEM_COMPOUND_CID>  (1) 
19051

>  <PUBCHEM_CONFORMER_RMSD>  (1) 
0.4

>  <PUBCHEM_CONFORMER_DIVERSEORDER>  (1) 
1
2

>  <PUBCHEM_MMFF94_PARTIAL_CHARGES>  (1) 
8
1 -0.57
13 0.36
14 0.36
2 -0.35
3 -0.73
4 0.57
5 0.3
6 0.06

>  <PUBCHEM_EFFECTIVE_ROTOR_COUNT>  (1) 
1

>  <PUBCHEM_PHARMACOPHORE_FEATURES>  (1) 
2
1 1 acceptor
1 3 donor

>  <PUBCHEM_HEAVY_ATOM_COUNT>  (1) 
6

>  <PUBCHEM_ATOM_DEF_STEREO_COUNT>  (1) 
0

>  <PUBCHEM_ATOM_UDEF_STEREO_COUNT>  (1) 
0

>  <PUBCHEM_BOND_DEF_STEREO_COUNT>  (1) 
0

>  <PUBCHEM_BOND_UDEF_STEREO_COUNT>  (1) 
0

>  <PUBCHEM_ISOTOPIC_ATOM_COUNT>  (1) 
0

>  <PUBCHEM_COMPONENT_COUNT>  (1) 
1

>  <PUBCHEM_CACTVS_TAUTO_COUNT>  (1) 
1

>  <PUBCHEM_CONFORMER_ID>  (1) 
00004A6B00000001

>  <PUBCHEM_MMFF94_ENERGY>  (1) 
9.1707

>  <PUBCHEM_FEATURE_SELFOVERLAP>  (1) 
10.148

>  <PUBCHEM_SHAPE_FINGERPRINT>  (1) 
139733 1 9294701204703150178
16714656 1 17977953384377638166
20096714 4 18410013204256942489
21015797 1 9222414912035557316
21040471 1 18338797805976678373
24536 1 18338782507292477613
29004967 10 18118131272785321218

>  <PUBCHEM_SHAPE_MULTIPOLES>  (1) 
107.65
2.17
1.44
0.57
0.16
0.09
0
-0.01
0
0
0
-0.01
0
0

>  <PUBCHEM_SHAPE_SELFOVERLAP>  (1) 
191.438

>  <PUBCHEM_SHAPE_VOLUME>  (1) 
71.2

>  <PUBCHEM_COORDINATE_TYPE>  (1) 
2
5
10

$$$$
