19062
     RDKit          3D

 17 18  0  0  0  0  0  0  0  0999 V2000
    3.7576   -1.6141   -0.3724 O   0  0  0  0  0  0  0  0  0  0  0  0
   -0.6153    0.3456   -0.5917 N   0  0  0  0  0  0  0  0  0  0  0  0
    4.8968    0.8865    0.2349 N   0  0  0  0  0  0  0  0  0  0  0  0
   -1.1894    0.0958    0.4942 N   0  0  0  0  0  0  0  0  0  0  0  0
    2.9643   -0.5101   -0.2748 C   0  0  0  0  0  0  0  0  0  0  0  0
    3.5085    0.7389    0.0250 C   0  0  0  0  0  0  0  0  0  0  0  0
    0.7685    0.4772   -0.3843 C   0  0  0  0  0  0  0  0  0  0  0  0
    1.5907   -0.6412   -0.4801 C   0  0  0  0  0  0  0  0  0  0  0  0
    2.6793    1.8566    0.1198 C   0  0  0  0  0  0  0  0  0  0  0  0
    1.3060    1.7254   -0.0855 C   0  0  0  0  0  0  0  0  0  0  0  0
   -2.5663   -0.0351    0.2884 C   0  0  0  0  0  0  0  0  0  0  0  0
   -3.1109   -1.2839   -0.0113 C   0  0  0  0  0  0  0  0  0  0  0  0
   -3.3953    1.0829    0.3823 C   0  0  0  0  0  0  0  0  0  0  0  0
   -4.4843   -1.4147   -0.2175 C   0  0  0  0  0  0  0  0  0  0  0  0
   -4.7687    0.9520    0.1762 C   0  0  0  0  0  0  0  0  0  0  0  0
   -5.3130   -0.2969   -0.1238 C   0  0  0  0  0  0  0  0  0  0  0  0
    3.9715   -2.3651    0.8207 C   0  0  0  0  0  0  0  0  0  0  0  0
  1  5  1  0
  1 17  1  0
  2  4  2  0
  2  7  1  0
  3  6  1  0
  4 11  1  0
  5  6  2  0
  5  8  1  0
  6  9  1  0
  7  8  2  0
  7 10  1  0
  9 10  2  0
 11 12  2  0
 11 13  1  0
 12 14  1  0
 13 15  2  0
 14 16  2  0
 15 16  1  0
M  END
>  <PUBCHEM_COMPOUND_CID>  (1) 
19062

>  <PUBCHEM_CONFORMER_RMSD>  (1) 
0.6

>  <PUBCHEM_CONFORMER_DIVERSEORDER>  (1) 
2
4
3
5
1

>  <PUBCHEM_MMFF94_PARTIAL_CHARGES>  (1) 
27
1 -0.36
10 -0.15
11 0.18
12 -0.15
13 -0.15
14 -0.15
15 -0.15
16 -0.15
17 0.28
18 0.15
19 0.15
2 -0.18
20 0.15
21 0.15
22 0.15
23 0.4
24 0.4
25 0.15
26 0.15
27 0.15
3 -0.9
4 -0.18
5 0.08
6 0.1
7 0.18
8 -0.15
9 -0.15

>  <PUBCHEM_EFFECTIVE_ROTOR_COUNT>  (1) 
3

>  <PUBCHEM_PHARMACOPHORE_FEATURES>  (1) 
5
1 1 acceptor
1 3 cation
1 3 donor
6 11 12 13 14 15 16 rings
6 5 6 7 8 9 10 rings

>  <PUBCHEM_HEAVY_ATOM_COUNT>  (1) 
17

>  <PUBCHEM_ATOM_DEF_STEREO_COUNT>  (1) 
0

>  <PUBCHEM_ATOM_UDEF_STEREO_COUNT>  (1) 
0

>  <PUBCHEM_BOND_DEF_STEREO_COUNT>  (1) 
0

>  <PUBCHEM_BOND_UDEF_STEREO_COUNT>  (1) 
0

>  <PUBCHEM_ISOTOPIC_ATOM_COUNT>  (1) 
0

>  <PUBCHEM_COMPONENT_COUNT>  (1) 
1

>  <PUBCHEM_CACTVS_TAUTO_COUNT>  (1) 
2

>  <PUBCHEM_CONFORMER_ID>  (1) 
00004A7600000002

>  <PUBCHEM_MMFF94_ENERGY>  (1) 
67.4267

>  <PUBCHEM_FEATURE_SELFOVERLAP>  (1) 
25.371

>  <PUBCHEM_SHAPE_FINGERPRINT>  (1) 
10616163 171 18198908195980060495
10912923 1 18060142046310625097
11405975 8 18412548695725132745
12107183 9 17908146477677803601
12236239 1 17775287183340381636
13073987 5 18410577275645084881
13167823 11 18413107277533478263
13533116 47 18411135844658283963
13675066 3 17968103023197954305
14341114 176 18341339937216388041
15196674 1 18411702080082215023
15442244 35 18339646637575099513
17492 89 18338237184312945027
17834072 33 18340770432900338501
1813 80 17168146732211891189
18186145 218 17821443578057966227
200 152 18060136561779884141
20281475 54 18333733502748055252
20645477 70 18411702058575918606
21065198 48 18343304755842089737
21065198 57 18410294735447997125
21267235 1 18342187690577356479
22224240 67 18339350985934614592
22485316 2 18409449189151488887
22646028 1 18343301470445192311
23402539 116 18273492369613362981
23557571 272 14548751585748444441
23559900 14 18342174466299160105
239999 70 18272941531335607438
26918003 58 18412262869666937169
300161 21 18413102875017731605
3004659 81 18335704901659494350
33824 294 18408603682427831002
3421961 26 18339358557614037818
351380 180 18412544323416828485
3545911 37 18341052994899472241
42 15 18410577283987092877
4214541 1 18412546501002268229
5104073 3 18342179964363747363
5374978 207 17775565329606479987
542803 24 17676209095587522981
573450 72 18201436952786003611
633830 44 17022625286392286765
67856867 119 18270113642478006816
69090 78 18411981390638047111
77779 3 18411984680524876093
960060 61 17967824825139041462
9709674 26 18337115678136209443
9971528 1 18040155115024177812
9981440 41 17253996862571897953

>  <PUBCHEM_SHAPE_MULTIPOLES>  (1) 
329.04
11.68
1.96
0.73
5.83
0.49
0.02
2.11
0.77
-1.76
0.24
-0.12
0.09
-0.48

>  <PUBCHEM_SHAPE_SELFOVERLAP>  (1) 
704.258

>  <PUBCHEM_SHAPE_VOLUME>  (1) 
182.9

>  <PUBCHEM_COORDINATE_TYPE>  (1) 
2
5
10

$$$$
