19060
     RDKit          3D

 24 26  0  0  1  0  0  0  0  0999 V2000
    5.2702    0.6104    0.4838 O   0  0  0  0  0  0  0  0  0  0  0  0
   -2.1519    1.9273   -0.2920 O   0  0  0  0  0  0  0  0  0  0  0  0
   -1.3053    1.5623    1.8263 O   0  0  0  0  0  0  0  0  0  0  0  0
    1.3261   -0.9836    0.5465 N   0  0  0  0  0  0  0  0  0  0  0  0
   -1.5583   -0.2794    0.2716 C   0  0  0  0  0  0  0  0  0  0  0  0
   -0.9870   -1.1432    1.4251 C   0  0  0  0  0  0  0  0  0  0  0  0
   -0.5604   -0.3426   -0.9132 C   0  0  0  0  0  0  0  0  0  0  0  0
    0.4851   -0.8485    1.7391 C   0  0  0  0  0  0  0  0  0  0  0  0
    0.8896   -0.0590   -0.5040 C   0  0  0  0  0  0  0  0  0  0  0  0
    2.7313   -0.7532    0.8811 C   0  0  0  0  0  0  0  0  0  0  0  0
    3.6065   -0.9294   -0.3572 C   0  0  0  0  0  0  0  0  0  0  0  0
    5.0723   -0.7167   -0.0321 C   0  0  0  0  0  0  0  0  0  0  0  0
   -2.9839   -0.7341   -0.0835 C   0  0  0  0  0  0  0  0  0  0  0  0
   -1.6450    1.1662    0.7195 C   0  0  0  0  0  0  0  0  0  0  0  0
    5.9852   -0.8419   -1.2396 C   0  0  0  0  0  0  0  0  0  0  0  0
    7.1571    0.0095   -0.8196 C   0  0  0  0  0  0  0  0  0  0  0  0
    6.4727    1.1453   -0.0891 C   0  0  0  0  0  0  0  0  0  0  0  0
   -3.9816   -0.7056    0.8873 C   0  0  0  0  0  0  0  0  0  0  0  0
   -3.2699   -1.1715   -1.3741 C   0  0  0  0  0  0  0  0  0  0  0  0
   -5.2747   -1.1178    0.5654 C   0  0  0  0  0  0  0  0  0  0  0  0
   -4.5630   -1.5836   -1.6960 C   0  0  0  0  0  0  0  0  0  0  0  0
   -5.5654   -1.5567   -0.7262 C   0  0  0  0  0  0  0  0  0  0  0  0
   -2.2891    3.3221   -0.0027 C   0  0  0  0  0  0  0  0  0  0  0  0
   -2.8604    4.0236   -1.2165 C   0  0  0  0  0  0  0  0  0  0  0  0
  1 12  1  0
  1 17  1  0
  2 14  1  0
  2 23  1  0
  3 14  2  0
  4  8  1  0
  4  9  1  0
  4 10  1  0
  5  6  1  0
  5  7  1  0
  5 13  1  0
  5 14  1  0
  6  8  1  0
  7  9  1  0
 10 11  1  0
 11 12  1  0
 12 15  1  0
 13 18  2  0
 13 19  1  0
 15 16  1  0
 16 17  1  0
 18 20  1  0
 19 21  2  0
 20 22  2  0
 21 22  1  0
 23 24  1  0
M  END
>  <PUBCHEM_COMPOUND_CID>  (1) 
19060

>  <PUBCHEM_CONFORMER_RMSD>  (1) 
1

>  <PUBCHEM_CONFORMER_DIVERSEORDER>  (1) 
1
116
130
79
61
66
62
42
89
69
112
37
72
113
51
80
114
38
11
63
77
73
16
82
119
50
41
121
7
122
88
105
4
46
124
125
35
44
25
81
102
3
57
129
111
107
74
110
30
78
132
101
52
65
6
128
103
92
14
117
87
56
123
95
33
86
53
96
15
54
24
23
85
47
58
97
36
21
68
48
60
106
32
34
108
26
31
8
18
70
75
67
40
45
20
27
39
84
29
115
76
5
19
131
17
127
71
109
100
9
49
99
28
13
120
22
43
98
59
90
83
126
55
2
91
118
104
64
93
12
94
10

>  <PUBCHEM_MMFF94_PARTIAL_CHARGES>  (1) 
23
1 -0.56
10 0.27
12 0.28
13 -0.14
14 0.66
17 0.28
18 -0.15
19 -0.15
2 -0.43
20 -0.15
21 -0.15
22 -0.15
23 0.28
3 -0.57
4 -0.81
44 0.15
45 0.15
46 0.15
47 0.15
48 0.15
5 0.2
8 0.27
9 0.27

>  <PUBCHEM_EFFECTIVE_ROTOR_COUNT>  (1) 
9.2

>  <PUBCHEM_PHARMACOPHORE_FEATURES>  (1) 
6
1 1 acceptor
1 3 acceptor
1 4 cation
5 1 12 15 16 17 rings
6 13 18 19 20 21 22 rings
6 4 5 6 7 8 9 rings

>  <PUBCHEM_HEAVY_ATOM_COUNT>  (1) 
24

>  <PUBCHEM_ATOM_DEF_STEREO_COUNT>  (1) 
0

>  <PUBCHEM_ATOM_UDEF_STEREO_COUNT>  (1) 
1

>  <PUBCHEM_BOND_DEF_STEREO_COUNT>  (1) 
0

>  <PUBCHEM_BOND_UDEF_STEREO_COUNT>  (1) 
0

>  <PUBCHEM_ISOTOPIC_ATOM_COUNT>  (1) 
0

>  <PUBCHEM_COMPONENT_COUNT>  (1) 
1

>  <PUBCHEM_CACTVS_TAUTO_COUNT>  (1) 
1

>  <PUBCHEM_CONFORMER_ID>  (1) 
00004A7400000001

>  <PUBCHEM_MMFF94_ENERGY>  (1) 
54.8835

>  <PUBCHEM_FEATURE_SELFOVERLAP>  (1) 
30.447

>  <PUBCHEM_SHAPE_FINGERPRINT>  (1) 
10366900 7 18408601483119810882
10670039 82 18114183008888905508
11101153 10 18262243321552073900
11315181 36 17240492429167857102
11315621 246 18202280342286626542
11524674 6 13614524073260928125
11578080 2 17772766969861946821
12236239 1 18412265034172477978
12788726 201 18334848395028453179
13288520 33 17346600794132072139
13540713 5 17825654574095220779
13911987 19 17895183424987397891
13941219 33 11023834955238281772
14347332 77 18272368625331755298
14556957 393 18259993681805986013
15348495 7 8574418817255254430
15575132 122 18411697668929139526
16994733 274 15864616281712966157
17844677 252 18412832361419948804
17980427 23 18041010513448025829
1813 80 18343310296919516487
19141452 34 10592042462185822992
19427546 20 18334574608127760709
200 152 18187361034728495339
21236236 1 18335985276850225212
21267235 1 17417530332638240823
2132832 1 18113908181809952596
21403212 168 9583252629823930659
22122407 14 14129069118724227990
221357 26 18341894117353246664
22182313 1 17487586745965543072
2297311 6 17775008994071707074
23035841 295 16988849388593563110
23402539 116 18412263943477586147
23522609 53 17130172968301720040
23559900 14 18116152353877140312
25147074 1 17751627767479645786
255183 451 17981875656578138151
283562 15 18261391118535771875
2838139 119 14562801188236186671
34797466 226 18060427949810081076
4073 2 8718536208902475604
4325135 7 17775290486523686206
4340502 62 10665219320147703809
46194498 28 18060138782573687044
497634 4 17346608464721695000
531348 171 18268712701919686678
7237137 82 18342455911327507849

>  <PUBCHEM_SHAPE_MULTIPOLES>  (1) 
471.32
15.31
2.73
1.5
26.22
4.53
0.1
-3.36
-5.15
-4.25
-0.73
-0.8
-0.25
-0.1

>  <PUBCHEM_SHAPE_SELFOVERLAP>  (1) 
982.694

>  <PUBCHEM_SHAPE_VOLUME>  (1) 
267.6

>  <PUBCHEM_COORDINATE_TYPE>  (1) 
2
5
10

$$$$
