19086
     RDKit          3D

 21 20  0  0  0  0  0  0  0  0999 V2000
   -0.0001   -0.0006    0.0017 Si  0  0  0  0  0  4  0  0  0  0  0  0
   -2.1452   -1.6143    1.6626 Si  0  0  0  0  0  4  0  0  0  0  0  0
    2.1458    1.6597    1.6150 Si  0  0  0  0  0  4  0  0  0  0  0  0
    2.1434   -1.6637   -1.6127 Si  0  0  0  0  0  4  0  0  0  0  0  0
   -2.1445    1.6151   -1.6590 Si  0  0  0  0  0  4  0  0  0  0  0  0
   -0.9633   -0.4955    1.2714 O   0  0  0  0  0  0  0  0  0  0  0  0
    0.9637    1.2686    0.4966 O   0  0  0  0  0  0  0  0  0  0  0  0
    0.9624   -1.2705   -0.4939 O   0  0  0  0  0  0  0  0  0  0  0  0
   -0.9636    0.4957   -1.2672 O   0  0  0  0  0  0  0  0  0  0  0  0
   -2.6885   -1.4230    3.4524 C   0  0  0  0  0  0  0  0  0  0  0  0
   -3.6532   -1.3995    0.5583 C   0  0  0  0  0  0  0  0  0  0  0  0
   -1.4826   -3.3584    1.4271 C   0  0  0  0  0  0  0  0  0  0  0  0
    2.6683    3.4530    1.3982 C   0  0  0  0  0  0  0  0  0  0  0  0
    1.4970    1.4393    3.3670 C   0  0  0  0  0  0  0  0  0  0  0  0
    3.6632    0.5700    1.4026 C   0  0  0  0  0  0  0  0  0  0  0  0
    3.6618   -0.5752   -1.4013 C   0  0  0  0  0  0  0  0  0  0  0  0
    1.4817   -1.4261   -3.3569 C   0  0  0  0  0  0  0  0  0  0  0  0
    2.6682   -3.4597   -1.4177 C   0  0  0  0  0  0  0  0  0  0  0  0
   -2.6804    1.4142   -3.4511 C   0  0  0  0  0  0  0  0  0  0  0  0
   -3.6569    1.4123   -0.5605 C   0  0  0  0  0  0  0  0  0  0  0  0
   -1.4774    3.3589   -1.4325 C   0  0  0  0  0  0  0  0  0  0  0  0
  1  6  1  0
  1  7  1  0
  1  8  1  0
  1  9  1  0
  2  6  1  0
  2 10  1  0
  2 11  1  0
  2 12  1  0
  3  7  1  0
  3 13  1  0
  3 14  1  0
  3 15  1  0
  4  8  1  0
  4 16  1  0
  4 17  1  0
  4 18  1  0
  5  9  1  0
  5 19  1  0
  5 20  1  0
  5 21  1  0
M  END
>  <PUBCHEM_COMPOUND_CID>  (1) 
19086

>  <PUBCHEM_CONFORMER_RMSD>  (1) 
0.8

>  <PUBCHEM_CONFORMER_DIVERSEORDER>  (1) 
1
2
3
4
5
6
7
8
9
10
11
12
13
14
15
16
17
18
19

>  <PUBCHEM_MMFF94_PARTIAL_CHARGES>  (1) 
21
1 1.19
10 -0.08
11 -0.08
12 -0.08
13 -0.08
14 -0.08
15 -0.08
16 -0.08
17 -0.08
18 -0.08
19 -0.08
2 0.54
20 -0.08
21 -0.08
3 0.54
4 0.54
5 0.54
6 -0.59
7 -0.59
8 -0.59
9 -0.59

>  <PUBCHEM_EFFECTIVE_ROTOR_COUNT>  (1) 
8

>  <PUBCHEM_PHARMACOPHORE_FEATURES>  (1) 
0

>  <PUBCHEM_HEAVY_ATOM_COUNT>  (1) 
21

>  <PUBCHEM_ATOM_DEF_STEREO_COUNT>  (1) 
0

>  <PUBCHEM_ATOM_UDEF_STEREO_COUNT>  (1) 
0

>  <PUBCHEM_BOND_DEF_STEREO_COUNT>  (1) 
0

>  <PUBCHEM_BOND_UDEF_STEREO_COUNT>  (1) 
0

>  <PUBCHEM_ISOTOPIC_ATOM_COUNT>  (1) 
0

>  <PUBCHEM_COMPONENT_COUNT>  (1) 
1

>  <PUBCHEM_CACTVS_TAUTO_COUNT>  (1) 
1

>  <PUBCHEM_CONFORMER_ID>  (1) 
00004A8E00000001

>  <PUBCHEM_MMFF94_ENERGY>  (1) 
8.6853

>  <PUBCHEM_FEATURE_SELFOVERLAP>  (1) 
0

>  <PUBCHEM_SHAPE_FINGERPRINT>  (1) 
11578080 2 18192462746953435908
11582403 64 17114311353066312137
12160290 23 17748826302726620301
12592029 89 17772723113808351988
12716301 132 18113337505104220411
12788726 201 16880797107829111630
133893 2 17632853123184840190
14022347 108 17386021614861640739
14251757 17 18195805176344091115
14817 1 11978635871261876746
14863182 85 16977055154864119583
15420108 30 17040646556960420021
17980427 23 17473263657689477443
18915476 22 18130781278506191735
20600515 1 17605830550531690805
21304303 282 16969709884961868462
22112679 90 16225763017005708926
229495 10 17346311627195787121
23419403 2 18342471338738875549
23526113 38 18268990877991767918
23557571 272 17968112914001267710
23559900 14 17398158122883167003
23598288 3 17539650966983549272
238 59 17915998287996668044
25222932 49 14293178242667599474
266924 78 17489304221819673157
298252 57 17408185591032924680
35225 105 17678426801739666375
376196 1 17762849494843794309
5845 1 14966144165705855096
68419 9 16008752402652079307
81228 2 17460627816306356495

>  <PUBCHEM_SHAPE_MULTIPOLES>  (1) 
499.76
6.01
4.11
4.1
0
0.01
-0.01
0
-0.01
0.74
0.01
-0.74
0
5.66

>  <PUBCHEM_SHAPE_SELFOVERLAP>  (1) 
858.22

>  <PUBCHEM_SHAPE_VOLUME>  (1) 
332.8

>  <PUBCHEM_COORDINATE_TYPE>  (1) 
2
5
10

$$$$
