19111
     RDKit          3D

 13 13  0  0  1  0  0  0  0  0999 V2000
   -1.3286   -0.8040    0.0340 O   0  0  0  0  0  0  0  0  0  0  0  0
   -3.2507    0.2785    0.6924 O   0  0  0  0  0  0  0  0  0  0  0  0
   -3.3005   -1.8649   -0.1385 N   0  0  0  0  0  0  0  0  0  0  0  0
    0.8941    0.0653    0.2097 C   0  0  0  0  0  0  0  0  0  0  0  0
   -0.5584    0.3518    0.3910 C   0  0  0  0  0  0  0  0  0  0  0  0
    1.3133   -0.8039   -0.7975 C   0  0  0  0  0  0  0  0  0  0  0  0
    1.8335    0.6663    1.0477 C   0  0  0  0  0  0  0  0  0  0  0  0
    2.6716   -1.0719   -0.9667 C   0  0  0  0  0  0  0  0  0  0  0  0
    3.1918    0.3985    0.8784 C   0  0  0  0  0  0  0  0  0  0  0  0
    3.6109   -0.4706   -0.1289 C   0  0  0  0  0  0  0  0  0  0  0  0
   -1.0135    1.5112   -0.4043 C   0  0  0  0  0  0  0  0  0  0  0  0
   -2.6729   -0.7033    0.2381 C   0  0  0  0  0  0  0  0  0  0  0  0
   -1.3906    2.4470   -1.0554 C   0  0  0  0  0  0  0  0  0  0  0  0
  1  5  1  0
  1 12  1  0
  2 12  2  0
  3 12  1  0
  4  5  1  0
  4  6  2  0
  4  7  1  0
  5 11  1  0
  6  8  1  0
  7  9  2  0
  8 10  2  0
  9 10  1  0
 11 13  3  0
M  END
>  <PUBCHEM_COMPOUND_CID>  (1) 
19111

>  <PUBCHEM_CONFORMER_RMSD>  (1) 
0.6

>  <PUBCHEM_CONFORMER_DIVERSEORDER>  (1) 
1
16
7
10
9
11
6
12
4
13
15
3
14
2
5
8

>  <PUBCHEM_MMFF94_PARTIAL_CHARGES>  (1) 
21
1 -0.43
10 -0.15
11 -0.2
12 0.78
13 -0.18
15 0.15
16 0.15
17 0.15
18 0.15
19 0.15
2 -0.57
20 0.37
21 0.37
22 0.18
3 -0.8
4 -0.14
5 0.62
6 -0.15
7 -0.15
8 -0.15
9 -0.15

>  <PUBCHEM_EFFECTIVE_ROTOR_COUNT>  (1) 
3

>  <PUBCHEM_PHARMACOPHORE_FEATURES>  (1) 
4
1 13 hydrophobe
1 2 acceptor
1 3 donor
6 4 6 7 8 9 10 rings

>  <PUBCHEM_HEAVY_ATOM_COUNT>  (1) 
13

>  <PUBCHEM_ATOM_DEF_STEREO_COUNT>  (1) 
0

>  <PUBCHEM_ATOM_UDEF_STEREO_COUNT>  (1) 
1

>  <PUBCHEM_BOND_DEF_STEREO_COUNT>  (1) 
0

>  <PUBCHEM_BOND_UDEF_STEREO_COUNT>  (1) 
0

>  <PUBCHEM_ISOTOPIC_ATOM_COUNT>  (1) 
0

>  <PUBCHEM_COMPONENT_COUNT>  (1) 
1

>  <PUBCHEM_CACTVS_TAUTO_COUNT>  (1) 
2

>  <PUBCHEM_CONFORMER_ID>  (1) 
00004AA700000001

>  <PUBCHEM_MMFF94_ENERGY>  (1) 
27.4294

>  <PUBCHEM_FEATURE_SELFOVERLAP>  (1) 
20.297

>  <PUBCHEM_SHAPE_FINGERPRINT>  (1) 
12138202 97 18118110377606129861
12932764 1 18336267830011212426
13380536 127 17749668493809840080
15219456 202 18201433641107826792
15501101 241 18058733635870526521
16945 1 18261107465435479416
17844478 74 18342739615397240584
18175812 5 18202566189370667215
18380122 1 18271234015020038472
20201158 50 18131354081146498294
20281407 28 18411989052358582274
20361792 2 18114184193772189503
20711985 327 18335705008933222613
20711985 344 18187642458154938601
20715346 28 18201425953311545784
21524375 3 17174888731576951277
22802520 49 18126283034988090444
228727 97 17168153325097420632
23402539 116 18114174250859654286
23557571 272 18409735024005678644
23559900 14 17909263590973588702
2748010 2 18130217156438168268
6049 1 18271804584456640720
6333449 129 18264767671141530221
77492 1 16660647310779863660
8030462 33 17240485771509729480
81228 2 18260271806903279545

>  <PUBCHEM_SHAPE_MULTIPOLES>  (1) 
250.81
5.8
1.79
1.03
0.26
0.64
-0.04
-1.86
0.49
-1.58
-0.61
0.37
0.19
0.84

>  <PUBCHEM_SHAPE_SELFOVERLAP>  (1) 
520.709

>  <PUBCHEM_SHAPE_VOLUME>  (1) 
140.9

>  <PUBCHEM_COORDINATE_TYPE>  (1) 
2
5
10

$$$$
