19128
     RDKit          3D

  8  7  0  0  0  0  0  0  0  0999 V2000
   -3.0444   -1.0215    0.1512 Cl  0  0  0  0  0  0  0  0  0  0  0  0
    1.3864    0.0287    0.1004 S   0  0  0  0  0  0  0  0  0  0  0  0
   -0.1872   -0.0631   -0.3289 O   0  0  0  0  0  0  0  0  0  0  0  0
    1.5242   -0.3188    1.5001 O   0  0  0  0  0  0  0  0  0  0  0  0
    1.9663    1.2361   -0.4520 O   0  0  0  0  0  0  0  0  0  0  0  0
   -1.0989    0.8789    0.2151 C   0  0  0  0  0  0  0  0  0  0  0  0
    1.9476   -1.3479   -0.8690 C   0  0  0  0  0  0  0  0  0  0  0  0
   -2.4940    0.6075   -0.3169 C   0  0  0  0  0  0  0  0  0  0  0  0
  1  8  1  0
  2  3  1  0
  2  4  2  0
  2  5  2  0
  2  7  1  0
  3  6  1  0
  6  8  1  0
M  END
>  <PUBCHEM_COMPOUND_CID>  (1) 
19128

>  <PUBCHEM_CONFORMER_RMSD>  (1) 
0.6

>  <PUBCHEM_CONFORMER_DIVERSEORDER>  (1) 
1
13
12
6
2
14
7
5
10
11
4
9
8
3

>  <PUBCHEM_MMFF94_PARTIAL_CHARGES>  (1) 
8
1 -0.29
2 1.38
3 -0.46
4 -0.65
5 -0.65
6 0.28
7 0.11
8 0.29

>  <PUBCHEM_EFFECTIVE_ROTOR_COUNT>  (1) 
3

>  <PUBCHEM_PHARMACOPHORE_FEATURES>  (1) 
2
1 4 acceptor
1 5 acceptor

>  <PUBCHEM_HEAVY_ATOM_COUNT>  (1) 
8

>  <PUBCHEM_ATOM_DEF_STEREO_COUNT>  (1) 
0

>  <PUBCHEM_ATOM_UDEF_STEREO_COUNT>  (1) 
0

>  <PUBCHEM_BOND_DEF_STEREO_COUNT>  (1) 
0

>  <PUBCHEM_BOND_UDEF_STEREO_COUNT>  (1) 
0

>  <PUBCHEM_ISOTOPIC_ATOM_COUNT>  (1) 
0

>  <PUBCHEM_COMPONENT_COUNT>  (1) 
1

>  <PUBCHEM_CACTVS_TAUTO_COUNT>  (1) 
1

>  <PUBCHEM_CONFORMER_ID>  (1) 
00004AB800000001

>  <PUBCHEM_MMFF94_ENERGY>  (1) 
3.129

>  <PUBCHEM_FEATURE_SELFOVERLAP>  (1) 
10.165

>  <PUBCHEM_SHAPE_FINGERPRINT>  (1) 
10857977 72 18201429329076530881
12897270 3 18409735079433785749
12932741 1 18340199700756197333
12932764 1 17530966843742488221
23235687 12 18260541199967941181
23552423 10 18337113375890989231
23552449 11 18040705948727105168
24536 1 18341886342776547557
29004967 10 17988920076493105633
3248919 1 18341886373210518789
5084963 1 18130227051662919047

>  <PUBCHEM_SHAPE_MULTIPOLES>  (1) 
152.75
4.36
1.31
0.97
2.53
0.2
0.29
0.96
-0.18
-0.15
-0.22
-0.46
0.08
0.26

>  <PUBCHEM_SHAPE_SELFOVERLAP>  (1) 
257.068

>  <PUBCHEM_SHAPE_VOLUME>  (1) 
104.9

>  <PUBCHEM_COORDINATE_TYPE>  (1) 
2
5
10

$$$$
