19138
     RDKit          3D

 18 18  0  0  0  0  0  0  0  0999 V2000
    3.2572   -0.4535   -2.2477 Br  0  0  0  0  0  0  0  0  0  0  0  0
    1.7191    1.6559    0.3587 O   0  0  0  0  0  0  0  0  0  0  0  0
   -4.6036    0.3170    0.4759 O   0  0  0  0  0  0  0  0  0  0  0  0
    0.8491   -0.4357   -0.2008 N   0  0  0  0  0  0  0  0  0  0  0  0
    3.2839   -0.0719   -0.2941 C   0  0  0  0  0  0  0  0  0  0  0  0
    4.3526    1.0237   -0.0545 C   0  0  0  0  0  0  0  0  0  0  0  0
    3.5669   -1.3982    0.4396 C   0  0  0  0  0  0  0  0  0  0  0  0
    1.8689    0.4911   -0.0077 C   0  0  0  0  0  0  0  0  0  0  0  0
    5.7993    0.6309   -0.3395 C   0  0  0  0  0  0  0  0  0  0  0  0
    3.5191   -1.2783    1.9589 C   0  0  0  0  0  0  0  0  0  0  0  0
   -0.5425   -0.2442   -0.0278 C   0  0  0  0  0  0  0  0  0  0  0  0
   -1.4071   -1.2980   -0.2718 C   0  0  0  0  0  0  0  0  0  0  0  0
   -1.0097    0.9940    0.3809 C   0  0  0  0  0  0  0  0  0  0  0  0
   -3.2657    0.1325    0.3086 C   0  0  0  0  0  0  0  0  0  0  0  0
   -2.7786   -1.1083   -0.1026 C   0  0  0  0  0  0  0  0  0  0  0  0
   -2.3812    1.1837    0.5502 C   0  0  0  0  0  0  0  0  0  0  0  0
   -5.4740   -0.4579   -0.3476 C   0  0  0  0  0  0  0  0  0  0  0  0
   -6.7538    0.3171   -0.5786 C   0  0  0  0  0  0  0  0  0  0  0  0
  1  5  1  0
  2  8  2  0
  3 14  1  0
  3 17  1  0
  4  8  1  0
  4 11  1  0
  5  6  1  0
  5  7  1  0
  5  8  1  0
  6  9  1  0
  7 10  1  0
 11 12  2  0
 11 13  1  0
 12 15  1  0
 13 16  2  0
 14 15  2  0
 14 16  1  0
 17 18  1  0
M  END
>  <PUBCHEM_COMPOUND_CID>  (1) 
19138

>  <PUBCHEM_CONFORMER_RMSD>  (1) 
0.8

>  <PUBCHEM_CONFORMER_DIVERSEORDER>  (1) 
1
33
26
22
27
18
25
4
13
28
21
17
8
12
29
20
30
10
16
9
6
24
5
11
23
15
32
19
14
3
7
2
31

>  <PUBCHEM_MMFF94_PARTIAL_CHARGES>  (1) 
18
1 -0.23
11 0.12
12 -0.15
13 -0.15
14 0.08
15 -0.15
16 -0.15
17 0.28
2 -0.57
29 0.37
3 -0.36
30 0.15
31 0.15
32 0.15
33 0.15
4 -0.55
5 0.29
8 0.57

>  <PUBCHEM_EFFECTIVE_ROTOR_COUNT>  (1) 
7

>  <PUBCHEM_PHARMACOPHORE_FEATURES>  (1) 
7
1 1 hydrophobe
1 10 hydrophobe
1 2 acceptor
1 3 acceptor
1 4 donor
1 9 hydrophobe
6 11 12 13 14 15 16 rings

>  <PUBCHEM_HEAVY_ATOM_COUNT>  (1) 
18

>  <PUBCHEM_ATOM_DEF_STEREO_COUNT>  (1) 
0

>  <PUBCHEM_ATOM_UDEF_STEREO_COUNT>  (1) 
0

>  <PUBCHEM_BOND_DEF_STEREO_COUNT>  (1) 
0

>  <PUBCHEM_BOND_UDEF_STEREO_COUNT>  (1) 
0

>  <PUBCHEM_ISOTOPIC_ATOM_COUNT>  (1) 
0

>  <PUBCHEM_COMPONENT_COUNT>  (1) 
1

>  <PUBCHEM_CACTVS_TAUTO_COUNT>  (1) 
2

>  <PUBCHEM_CONFORMER_ID>  (1) 
00004AC200000001

>  <PUBCHEM_MMFF94_ENERGY>  (1) 
53.6442

>  <PUBCHEM_FEATURE_SELFOVERLAP>  (1) 
35.522

>  <PUBCHEM_SHAPE_FINGERPRINT>  (1) 
10366900 7 16200439078380607602
11287383 113 13542456588440830575
12107183 9 17686615745384510656
12236239 1 18259703397639989770
12670546 56 17822289037658738529
12788726 201 18272374139647803401
13533116 47 18188202117947361178
13760787 19 18261110811368386690
13862211 1 18272364274888509119
14123238 8 17917994979368496269
14251764 46 17346881148153531940
15183329 4 18411413987183451925
17834076 25 16917069962296166876
17844677 252 14189579641583831555
200 152 16630530626701790613
20279233 1 17846229868556463278
20645477 70 18411702041628177494
21150785 3 18187924028106174767
21267235 1 18343312478061237070
22224240 67 16917060080209545118
23402539 116 18060133254713127789
23536379 177 17240479192015340707
23557571 272 16988571182033970417
23559900 14 17775000253718353481
300161 21 18333726940027600658
3004659 81 18114180792137245522
34934 24 18340202003074828670
3545911 37 18411420630838222484
4340502 62 17168145658797036730
474 4 17823426079365232244
5104073 3 18341054033906850091
522135 26 17748544827312261210
5374978 207 18342451539029344640
542803 24 17060626593969685321

>  <PUBCHEM_SHAPE_MULTIPOLES>  (1) 
359.65
13.56
1.38
1.3
12.39
0.01
-0.3
-0.84
-1.8
-0.64
0.25
-1.78
0.43
-0.57

>  <PUBCHEM_SHAPE_SELFOVERLAP>  (1) 
709.332

>  <PUBCHEM_SHAPE_VOLUME>  (1) 
220.2

>  <PUBCHEM_COORDINATE_TYPE>  (1) 
2
5
10

$$$$
