19135
     RDKit          3D

 32 35  0  0  1  0  0  0  0  0999 V2000
    0.8849   -2.7321   -0.3462 O   0  0  0  0  0  0  0  0  0  0  0  0
    1.9908   -3.8029    1.3746 O   0  0  0  0  0  0  0  0  0  0  0  0
   -8.3732    3.1109   -0.9797 O   0  0  0  0  0  0  0  0  0  0  0  0
   -1.1597   -1.3733   -0.1130 C   0  0  0  0  0  0  0  0  0  0  0  0
   -1.7717   -0.7312    1.1481 C   0  0  0  0  0  0  0  0  0  0  0  0
   -2.8462    0.3008    0.8065 C   0  0  0  0  0  0  0  0  0  0  0  0
   -4.0010   -0.4156    0.0427 C   0  0  0  0  0  0  0  0  0  0  0  0
   -0.1066   -2.2782    0.5547 C   0  0  0  0  0  0  0  0  0  0  0  0
   -2.2736   -2.1201   -0.8567 C   0  0  0  0  0  0  0  0  0  0  0  0
   -0.5508   -0.3002    1.9558 C   0  0  0  0  0  0  0  0  0  0  0  0
   -3.4621   -1.1964   -1.1861 C   0  0  0  0  0  0  0  0  0  0  0  0
    0.4924   -1.3952    1.6668 C   0  0  0  0  0  0  0  0  0  0  0  0
   -3.4207    0.9844    2.0488 C   0  0  0  0  0  0  0  0  0  0  0  0
   -0.4757   -0.3765   -1.0834 C   0  0  0  0  0  0  0  0  0  0  0  0
   -5.1482    0.5465   -0.2542 C   0  0  0  0  0  0  0  0  0  0  0  0
   -4.3776    2.0970    1.6315 C   0  0  0  0  0  0  0  0  0  0  0  0
   -5.3348    1.7043    0.5327 C   0  0  0  0  0  0  0  0  0  0  0  0
   -6.0960    0.2625   -1.2534 C   0  0  0  0  0  0  0  0  0  0  0  0
   -6.4164    2.5633    0.2694 C   0  0  0  0  0  0  0  0  0  0  0  0
    1.8889   -3.4926    0.1948 C   0  0  0  0  0  0  0  0  0  0  0  0
   -7.1709    1.1196   -1.4983 C   0  0  0  0  0  0  0  0  0  0  0  0
   -7.3289    2.2727   -0.7404 C   0  0  0  0  0  0  0  0  0  0  0  0
    2.8729   -3.9109   -0.8693 C   0  0  0  0  0  0  0  0  0  0  0  0
    4.2751   -3.3643   -0.6127 C   0  0  0  0  0  0  0  0  0  0  0  0
    4.3168   -1.8329   -0.6376 C   0  0  0  0  0  0  0  0  0  0  0  0
    5.7251   -1.2605   -0.4495 C   0  0  0  0  0  0  0  0  0  0  0  0
    5.7781    0.2666   -0.5478 C   0  0  0  0  0  0  0  0  0  0  0  0
    7.2006    0.7849   -0.3216 C   0  0  0  0  0  0  0  0  0  0  0  0
    7.3097    2.3119   -0.3778 C   0  0  0  0  0  0  0  0  0  0  0  0
    8.7065    2.8920   -0.1359 C   0  0  0  0  0  0  0  0  0  0  0  0
    8.7421    4.4203   -0.1484 C   0  0  0  0  0  0  0  0  0  0  0  0
   10.1301    4.9451    0.1857 C   0  0  0  0  0  0  0  0  0  0  0  0
  1  8  1  0
  1 20  1  0
  2 20  2  0
  3 22  1  0
  4  5  1  0
  4  8  1  0
  4  9  1  0
  4 14  1  0
  5  6  1  0
  5 10  1  0
  6  7  1  0
  6 13  1  0
  7 11  1  0
  7 15  1  0
  8 12  1  0
  9 11  1  0
 10 12  1  0
 13 16  1  0
 15 17  2  0
 15 18  1  0
 16 17  1  0
 17 19  1  0
 18 21  2  0
 19 22  2  0
 20 23  1  0
 21 22  1  0
 23 24  1  0
 24 25  1  0
 25 26  1  0
 26 27  1  0
 27 28  1  0
 28 29  1  0
 29 30  1  0
 30 31  1  0
 31 32  1  0
M  END
>  <PUBCHEM_COMPOUND_CID>  (1) 
19135

>  <PUBCHEM_CONFORMER_RMSD>  (1) 
1.2

>  <PUBCHEM_CONFORMER_DIVERSEORDER>  (1) 
1
106
34
76
77
53
78
27
23
46
58
101
42
83
71
92
69
87
99
17
35
16
98
84
86
74
56
72
30
95
85
41
51
93
88
66
89
62
100
48
94
75
52
25
70
28
81
91
97
54
29
31
43
15
40
63
80
18
45
102
50
55
82
5
103
79
96
104
59
26
10
57
33
8
19
73
105
21
60
44
13
38
32
14
3
2
65
39
11
90
67
4
49
12
6
68
36
7
9
24
47
37
22
61
64
20

>  <PUBCHEM_MMFF94_PARTIAL_CHARGES>  (1) 
18
1 -0.43
15 -0.14
16 0.14
17 -0.14
18 -0.15
19 -0.15
2 -0.57
20 0.66
21 -0.15
22 0.08
23 0.06
3 -0.53
52 0.15
53 0.15
54 0.15
59 0.45
7 0.14
8 0.28

>  <PUBCHEM_EFFECTIVE_ROTOR_COUNT>  (1) 
12.4

>  <PUBCHEM_PHARMACOPHORE_FEATURES>  (1) 
7
1 2 acceptor
1 3 donor
1 32 hydrophobe
5 4 5 8 10 12 rings
6 15 17 18 19 21 22 rings
6 4 5 6 7 9 11 rings
6 6 7 13 15 16 17 rings

>  <PUBCHEM_HEAVY_ATOM_COUNT>  (1) 
32

>  <PUBCHEM_ATOM_DEF_STEREO_COUNT>  (1) 
5

>  <PUBCHEM_ATOM_UDEF_STEREO_COUNT>  (1) 
0

>  <PUBCHEM_BOND_DEF_STEREO_COUNT>  (1) 
0

>  <PUBCHEM_BOND_UDEF_STEREO_COUNT>  (1) 
0

>  <PUBCHEM_ISOTOPIC_ATOM_COUNT>  (1) 
0

>  <PUBCHEM_COMPONENT_COUNT>  (1) 
1

>  <PUBCHEM_CACTVS_TAUTO_COUNT>  (1) 
9

>  <PUBCHEM_CONFORMER_ID>  (1) 
00004ABF00000001

>  <PUBCHEM_MMFF94_ENERGY>  (1) 
71.107

>  <PUBCHEM_FEATURE_SELFOVERLAP>  (1) 
35.618

>  <PUBCHEM_SHAPE_FINGERPRINT>  (1) 
10 15 12830930659788221527
10280341 67 18128809919801392112
10533779 1 18337947991876238996
10740516 88 11311764116232719813
10838868 160 18339912797336944004
11135609 127 18337384942531577134
11135609 187 18411981399375479986
11421887 103 18263633113177803244
11621639 254 17984138446711999878
117089 54 9295020063803569356
11761917 87 10807929414384587149
12124843 1 17774728662442637964
12522641 68 17988082322586903254
14415360 78 18338790243352095428
14428016 167 9295296032363161932
14930077 153 18270956822790867117
14931854 50 17775013405841630474
15082195 135 17774716455360040594
15131766 46 18336256890576665294
15183329 4 17703225105636210563
15198563 99 17338992371785784342
15685185 35 18340206418422957116
15803439 3 16629976533635969574
15840311 113 18263650554701199895
16993089 31 11743831457053017105
16994733 274 18259421922784695922
19053607 189 18270672182644123640
19246450 95 11315121947397431343
20165401 70 8718530714779746448
20609170 114 17605558975233643523
20771845 171 17273695347595813199
20771845 65 17028518458317537354
20982279 24 12247389164355428413
21033648 29 17022915514106697435
21267235 1 17273677782376232093
21298829 104 18409732889633675580
21362267 2 18043238064900679981
21792934 111 13262966131856347951
23516275 100 18407758128059548708
23522609 53 17344927213033215643
23559900 14 17272824578164072355
23569914 2 16808103867274085037
23569943 247 9223234052594049349
2748736 6 18339923814354696040
335352 9 17201057204036239581
3918712 181 18412261770862788720
393628 194 18263926721462667476
3991529 202 8790887406176634861
406291 66 9511466619727590876
5372103 7 18411418436716810180
58260988 647 10015577316152254022
6327066 14 18339926030584532382
6328613 192 18270116795701238383

>  <PUBCHEM_SHAPE_MULTIPOLES>  (1) 
640.94
27.72
5.82
1.52
45.62
1.42
0.55
49.34
-8.38
14.14
-0.29
-2.1
-0.07
0.51

>  <PUBCHEM_SHAPE_SELFOVERLAP>  (1) 
1327.208

>  <PUBCHEM_SHAPE_VOLUME>  (1) 
365

>  <PUBCHEM_COORDINATE_TYPE>  (1) 
2
5
10

$$$$
