1914
     RDKit          3D

 28 30  0  0  1  0  0  0  0  0999 V2000
   -8.0005   -2.0328    0.8400 Br  0  0  0  0  0  0  0  0  0  0  0  0
    4.2578   -1.3653   -1.1712 P   0  0  0  0  0  0  0  0  0  0  0  0
    6.0150   -0.2900    0.9289 P   0  0  0  0  0  0  0  0  0  0  0  0
    0.2224    0.0769   -0.4819 O   0  0  0  0  0  0  0  0  0  0  0  0
   -1.3542    3.2635   -0.2184 O   0  0  0  0  0  0  0  0  0  0  0  0
    1.4164    3.0316    1.1653 O   0  0  0  0  0  0  0  0  0  0  0  0
    2.9072   -0.8020   -0.4817 O   0  0  0  0  0  0  0  0  0  0  0  0
    5.4379   -0.4358   -0.5736 O   0  0  0  0  0  0  0  0  0  0  0  0
    4.1541   -0.8868   -2.7131 O   0  0  0  0  0  0  0  0  0  0  0  0
    4.4858   -2.8386   -0.9942 O   0  0  0  0  0  0  0  0  0  0  0  0
    6.6903   -1.7313    1.2108 O   0  0  0  0  0  0  0  0  0  0  0  0
    7.2845    0.6921    0.7403 O   0  0  0  0  0  0  0  0  0  0  0  0
    5.0066    0.1558    1.9462 O   0  0  0  0  0  0  0  0  0  0  0  0
   -2.0859    0.1118    0.0353 N   0  0  0  0  0  0  0  0  0  0  0  0
   -3.1895   -1.3733    1.2807 N   0  0  0  0  0  0  0  0  0  0  0  0
   -3.9247    0.9967   -1.2828 N   0  0  0  0  0  0  0  0  0  0  0  0
   -6.0368   -0.0723   -0.6894 N   0  0  0  0  0  0  0  0  0  0  0  0
   -6.1905   -1.7684    0.9919 N   0  0  0  0  0  0  0  0  0  0  0  0
   -0.6608    2.1474    0.3114 C   0  0  0  0  0  0  0  0  0  0  0  0
    0.8343    2.2784    0.1186 C   0  0  0  0  0  0  0  0  0  0  0  0
   -0.9670    0.8899   -0.4923 C   0  0  0  0  0  0  0  0  0  0  0  0
    1.2755    0.8243    0.1501 C   0  0  0  0  0  0  0  0  0  0  0  0
    2.5828    0.5751   -0.5804 C   0  0  0  0  0  0  0  0  0  0  0  0
   -3.3949    0.1930   -0.3484 C   0  0  0  0  0  0  0  0  0  0  0  0
   -2.0138   -0.8432    1.0155 C   0  0  0  0  0  0  0  0  0  0  0  0
   -4.0619   -0.7349    0.4355 C   0  0  0  0  0  0  0  0  0  0  0  0
   -5.4342   -0.8534    0.2393 C   0  0  0  0  0  0  0  0  0  0  0  0
   -5.2561    0.7915   -1.3824 C   0  0  0  0  0  0  0  0  0  0  0  0
  1 18  1  0
  2  7  1  0
  2  8  1  0
  2  9  1  0
  2 10  2  0
  3  8  1  0
  3 11  1  0
  3 12  1  0
  3 13  2  0
  4 21  1  0
  4 22  1  0
  5 19  1  0
  6 20  1  0
  7 23  1  0
 14 21  1  0
 14 24  1  0
 14 25  1  0
 15 25  2  0
 15 26  1  0
 16 24  1  0
 16 28  2  0
 17 27  2  0
 17 28  1  0
 18 27  1  0
 19 20  1  0
 19 21  1  0
 20 22  1  0
 22 23  1  0
 24 26  2  0
 26 27  1  0
M  END
>  <PUBCHEM_COMPOUND_CID>  (1) 
1914

>  <PUBCHEM_CONFORMER_RMSD>  (1) 
1.2

>  <PUBCHEM_CONFORMER_DIVERSEORDER>  (1) 
1
18
64
99
187
54
298
4
178
145
294
51
289
114
274
142
282
203
106
295
97
130
191
60
249
227
122
19
154
151
92
83
188
70
14
61
167
41
234
138
134
24
242
104
15
112
94
131
143
276
237
215
110
201
280
74
48
217
35
7
116
109
161
223
168
32
78
63
262
108
53
28
210
196
290
165
228
45
193
197
91
152
77
153
156
56
47
66
57
115
174
52
224
132
85
255
263
200
34
31
257
281
179
183
13
297
176
95
184
150
26
275
44
23
261
113
71
111
186
230
169
72
39
220
103
194
208
256
62
155
6
272
198
82
55
222
267
75
265
166
5
268
264
50
40
120
119
291
79
252
270
199
27
172
239
9
17
231
286
177
33
219
100
58
213
84
283
141
96
67
38
148
29
59
241
43
181
137
277
36
126
80
8
279
65
69
118
214
136
123
101
195
293
189
221
11
46
49
216
158
129
81
20
90
185
205
246
12
287
139
25
190
88
105
117
301
180
266
128
107
147
160
135
248
89
170
300
232
133
164
299
42
22
218
244
86
202
269
271
93
278
225
171
2
124
157
98
68
149
284
240
250
102
260
206
258
87
292
21
212
73
235
229
10
37
226
211
296
247
207
273
238
30
259
3
175
182
236
159
245
76
254
192
163
204
121
16
144
209
288
173
146
140
125
162
251
127
243
233
253
285

>  <PUBCHEM_MMFF94_PARTIAL_CHARGES>  (1) 
36
1 0.03
10 -0.7
11 -0.77
12 -0.77
13 -0.7
14 0.05
15 -0.57
16 -0.57
17 -0.62
18 -0.53
19 0.28
2 1.51
20 0.28
21 0.54
22 0.28
23 0.28
24 0.11
25 0.04
26 0.23
27 0.41
28 0.47
3 1.51
35 0.4
36 0.4
37 0.15
38 0.15
39 0.4
4 -0.56
40 0.5
41 0.5
42 0.5
5 -0.68
6 -0.68
7 -0.55
8 -0.54
9 -0.77

>  <PUBCHEM_EFFECTIVE_ROTOR_COUNT>  (1) 
8

>  <PUBCHEM_PHARMACOPHORE_FEATURES>  (1) 
18
1 10 acceptor
1 11 acceptor
1 12 acceptor
1 13 acceptor
1 18 donor
1 4 acceptor
1 5 acceptor
1 5 donor
1 6 acceptor
1 6 donor
1 9 acceptor
3 14 15 25 cation
3 14 16 24 cation
3 16 17 28 cation
4 3 11 12 13 anion
5 14 15 24 25 26 rings
5 4 19 20 21 22 rings
6 16 17 24 26 27 28 rings

>  <PUBCHEM_HEAVY_ATOM_COUNT>  (1) 
28

>  <PUBCHEM_ATOM_DEF_STEREO_COUNT>  (1) 
0

>  <PUBCHEM_ATOM_UDEF_STEREO_COUNT>  (1) 
4

>  <PUBCHEM_BOND_DEF_STEREO_COUNT>  (1) 
0

>  <PUBCHEM_BOND_UDEF_STEREO_COUNT>  (1) 
0

>  <PUBCHEM_ISOTOPIC_ATOM_COUNT>  (1) 
0

>  <PUBCHEM_COMPONENT_COUNT>  (1) 
1

>  <PUBCHEM_CACTVS_TAUTO_COUNT>  (1) 
3

>  <PUBCHEM_CONFORMER_ID>  (1) 
0000077A00000001

>  <PUBCHEM_MMFF94_ENERGY>  (1) 
3.7216

>  <PUBCHEM_FEATURE_SELFOVERLAP>  (1) 
92.003

>  <PUBCHEM_SHAPE_FINGERPRINT>  (1) 
10670039 82 16588013611899636983
11796584 16 17894349982034960250
12516196 113 18273216391350440854
13533116 47 18130234877758081393
13673619 4 18186806911491887269
13685833 64 18411705404481828187
13782708 43 18187931746194307491
14251752 14 17095236995371969327
14251757 52 12031784773586326082
14341114 328 14333127463983987367
14840074 17 17489301988732039780
14866123 147 18052829048699106689
15183329 4 16298106466971632238
15188451 53 18041273271917388378
15685185 35 15336551801037960882
17980427 23 13902186006834694337
1813 80 17774739583605682740
18335252 114 11602815826299076070
1979834 28 17632297883030128684
21267235 1 17821728377787783203
21521239 73 14562526288890679792
21781051 124 16805894008702274763
23198884 109 15502378933004262367
23559900 14 18187640353494759221
2838139 119 14418135097668523263
3004659 81 17603589612759141830
3383291 50 18335986445588395083
394071 54 17489306425755061488
5104073 3 17915741968943811210
59682541 35 18272926151237029610
59755656 520 12179850476664941673

>  <PUBCHEM_SHAPE_MULTIPOLES>  (1) 
506.27
19.66
2.61
1.5
0.68
1.15
0.39
-13.99
-3.39
-0.03
-0.3
-1.55
-0.35
2.43

>  <PUBCHEM_SHAPE_SELFOVERLAP>  (1) 
1030.805

>  <PUBCHEM_SHAPE_VOLUME>  (1) 
300.4

>  <PUBCHEM_COORDINATE_TYPE>  (1) 
2
5
10

$$$$
