19147
     RDKit          3D

 17 17  0  0  0  0  0  0  0  0999 V2000
   -5.8421   -1.3799    0.7497 O   0  0  0  0  0  0  0  0  0  0  0  0
   -6.0476   -0.5086   -1.3397 O   0  0  0  0  0  0  0  0  0  0  0  0
    3.5303   -0.2058   -0.0392 C   0  0  0  0  0  0  0  0  0  0  0  0
    2.4263    0.7798    0.3558 C   0  0  0  0  0  0  0  0  0  0  0  0
    4.9427    0.3340    0.1950 C   0  0  0  0  0  0  0  0  0  0  0  0
    0.9921    0.3272    0.0651 C   0  0  0  0  0  0  0  0  0  0  0  0
    6.0020   -0.6534   -0.2995 C   0  0  0  0  0  0  0  0  0  0  0  0
   -0.0677    1.3275    0.5333 C   0  0  0  0  0  0  0  0  0  0  0  0
    7.4146   -0.1315   -0.0370 C   0  0  0  0  0  0  0  0  0  0  0  0
   -1.4632    0.8013    0.3100 C   0  0  0  0  0  0  0  0  0  0  0  0
    8.4699   -1.1252   -0.4958 C   0  0  0  0  0  0  0  0  0  0  0  0
   -2.1058    1.0636   -0.8905 C   0  0  0  0  0  0  0  0  0  0  0  0
   -2.0806    0.0628    1.3083 C   0  0  0  0  0  0  0  0  0  0  0  0
   -3.3964    0.5764   -1.0975 C   0  0  0  0  0  0  0  0  0  0  0  0
   -3.3710   -0.4246    1.1011 C   0  0  0  0  0  0  0  0  0  0  0  0
   -4.0289   -0.1678   -0.1018 C   0  0  0  0  0  0  0  0  0  0  0  0
   -5.3744   -0.6757   -0.3174 C   0  0  0  0  0  0  0  0  0  0  0  0
  1 17  1  0
  2 17  2  0
  3  4  1  0
  3  5  1  0
  4  6  1  0
  5  7  1  0
  6  8  1  0
  7  9  1  0
  8 10  1  0
  9 11  1  0
 10 12  2  0
 10 13  1  0
 12 14  1  0
 13 15  2  0
 14 16  2  0
 15 16  1  0
 16 17  1  0
M  END
>  <PUBCHEM_COMPOUND_CID>  (1) 
19147

>  <PUBCHEM_CONFORMER_RMSD>  (1) 
0.8

>  <PUBCHEM_CONFORMER_DIVERSEORDER>  (1) 
1
80
13
29
38
57
69
39
67
60
70
56
42
72
9
77
19
7
6
10
15
23
48
24
14
49
33
74
62
41
12
46
73
54
76
28
66
8
40
27
59
31
61
20
53
78
26
68
37
50
34
65
47
3
75
4
36
25
45
71
11
30
35
22
2
51
52
16
64
17
18
32
43
55
63
79
21
5
58
44

>  <PUBCHEM_MMFF94_PARTIAL_CHARGES>  (1) 
15
1 -0.65
10 -0.14
12 -0.15
13 -0.15
14 -0.15
15 -0.15
16 0.09
17 0.63
2 -0.57
35 0.15
36 0.15
37 0.15
38 0.15
39 0.5
8 0.14

>  <PUBCHEM_EFFECTIVE_ROTOR_COUNT>  (1) 
8

>  <PUBCHEM_PHARMACOPHORE_FEATURES>  (1) 
5
1 1 acceptor
1 11 hydrophobe
1 2 acceptor
3 1 2 17 anion
6 10 12 13 14 15 16 rings

>  <PUBCHEM_HEAVY_ATOM_COUNT>  (1) 
17

>  <PUBCHEM_ATOM_DEF_STEREO_COUNT>  (1) 
0

>  <PUBCHEM_ATOM_UDEF_STEREO_COUNT>  (1) 
0

>  <PUBCHEM_BOND_DEF_STEREO_COUNT>  (1) 
0

>  <PUBCHEM_BOND_UDEF_STEREO_COUNT>  (1) 
0

>  <PUBCHEM_ISOTOPIC_ATOM_COUNT>  (1) 
0

>  <PUBCHEM_COMPONENT_COUNT>  (1) 
1

>  <PUBCHEM_CACTVS_TAUTO_COUNT>  (1) 
1

>  <PUBCHEM_CONFORMER_ID>  (1) 
00004ACB00000001

>  <PUBCHEM_MMFF94_ENERGY>  (1) 
26.3768

>  <PUBCHEM_FEATURE_SELFOVERLAP>  (1) 
25.429

>  <PUBCHEM_SHAPE_FINGERPRINT>  (1) 
10 15 13326850050557327002
10299344 5 16774079579606747516
106641 1 10952045680766012245
10968037 39 17095242523058182627
11315181 36 17167869664219824228
12091667 2 18333454218120561817
12236239 1 17060621126645389017
13073987 5 13973699282507948734
13288520 33 18408322194508137589
13668630 136 18410857659747808654
13685833 64 18131069338300737408
13885169 127 18201158754442520129
13964095 4 17312818269113570293
14123256 10 17748827414965063410
1420 363 18131634483072072164
14251764 18 14405182872537481380
14251764 46 16559031588892075062
14350574 20 18413106169542672696
14729087 3 7997970163737449430
14849402 71 15697703927173946178
15048467 5 11241971482304248518
15183329 4 16008746893026807136
15348495 7 12535329222071037494
15690457 1 17489581281601730158
15716309 27 17131833166693445204
17834072 8 16153427255553634132
17870717 6 17749111088880581707
18335252 98 13551197675954529721
19489759 90 17312822662991870444
200 152 18413669119411639673
20281389 69 9511463312766030174
20645477 56 10447930555438802457
21150785 3 17458065971952540094
21267235 1 18335706056588751273
22224240 67 14333403446224975940
22288116 15 14490763407024268203
2297311 6 18040434390867044701
23035841 295 17489587870424232382
23198884 109 15647050456219414216
23559900 14 17531528805526819060
246663 6 17847065476520064726
300161 21 13334737938617361016
3004659 81 17603302674520739956
33532 11 17703513199891059686
351380 3 17703787020428459086
5104073 3 14116978836993038678
59682541 35 15338828803192366366

>  <PUBCHEM_SHAPE_MULTIPOLES>  (1) 
338.11
21.01
1.13
1.07
36.07
0.02
0
-10.36
-3.32
-0.2
0.01
-1.45
-0.01
0.58

>  <PUBCHEM_SHAPE_SELFOVERLAP>  (1) 
671.534

>  <PUBCHEM_SHAPE_VOLUME>  (1) 
201.1

>  <PUBCHEM_COORDINATE_TYPE>  (1) 
2
5
10

$$$$
