19169
     RDKit          3D

  8  7  0  0  0  0  0  0  0  0999 V2000
   -1.7476    0.4961    0.2863 O   0  0  0  0  0  0  0  0  0  0  0  0
    1.7476   -0.4961    0.2864 O   0  0  0  0  0  0  0  0  0  0  0  0
   -0.6438   -0.3408    0.2862 C   0  0  0  0  0  0  0  0  0  0  0  0
    0.6438    0.3408    0.2860 C   0  0  0  0  0  0  0  0  0  0  0  0
   -2.5429    0.2693   -0.8586 C   0  0  0  0  0  0  0  0  0  0  0  0
    2.5430   -0.2693   -0.8585 C   0  0  0  0  0  0  0  0  0  0  0  0
   -0.7959   -1.6742    0.2861 C   0  0  0  0  0  0  0  0  0  0  0  0
    0.7958    1.6742    0.2861 C   0  0  0  0  0  0  0  0  0  0  0  0
  1  3  1  0
  1  5  1  0
  2  4  1  0
  2  6  1  0
  3  4  1  0
  3  7  2  0
  4  8  2  0
M  END
>  <PUBCHEM_COMPOUND_CID>  (1) 
19169

>  <PUBCHEM_CONFORMER_RMSD>  (1) 
0.6

>  <PUBCHEM_CONFORMER_DIVERSEORDER>  (1) 
1
3
10
8
2
7
9
6
4
5

>  <PUBCHEM_MMFF94_PARTIAL_CHARGES>  (1) 
12
1 -0.36
15 0.15
16 0.15
17 0.15
18 0.15
2 -0.36
3 0.08
4 0.08
5 0.28
6 0.28
7 -0.3
8 -0.3

>  <PUBCHEM_EFFECTIVE_ROTOR_COUNT>  (1) 
3

>  <PUBCHEM_PHARMACOPHORE_FEATURES>  (1) 
2
1 1 acceptor
1 2 acceptor

>  <PUBCHEM_HEAVY_ATOM_COUNT>  (1) 
8

>  <PUBCHEM_ATOM_DEF_STEREO_COUNT>  (1) 
0

>  <PUBCHEM_ATOM_UDEF_STEREO_COUNT>  (1) 
0

>  <PUBCHEM_BOND_DEF_STEREO_COUNT>  (1) 
0

>  <PUBCHEM_BOND_UDEF_STEREO_COUNT>  (1) 
0

>  <PUBCHEM_ISOTOPIC_ATOM_COUNT>  (1) 
0

>  <PUBCHEM_COMPONENT_COUNT>  (1) 
1

>  <PUBCHEM_CACTVS_TAUTO_COUNT>  (1) 
1

>  <PUBCHEM_CONFORMER_ID>  (1) 
00004AE100000001

>  <PUBCHEM_MMFF94_ENERGY>  (1) 
30.0376

>  <PUBCHEM_FEATURE_SELFOVERLAP>  (1) 
10.149

>  <PUBCHEM_SHAPE_FINGERPRINT>  (1) 
15310529 11 16950572085794536434
16714656 1 18334301933042835796
20096714 4 18334850649632919785
20653085 51 16444216173688085278
20711978 78 17414457269776863775
21040471 1 18260819406363600883
21293036 1 18408887338641065341
23552423 10 18117278274995088074
24536 1 18129943515001725209
29004967 10 17988933283691646530
5084963 1 18272645757974944041

>  <PUBCHEM_SHAPE_MULTIPOLES>  (1) 
152.9
3.21
1.44
0.85
0
0
0.16
0
1.18
0
-0.21
0
0
0.28

>  <PUBCHEM_SHAPE_SELFOVERLAP>  (1) 
286.804

>  <PUBCHEM_SHAPE_VOLUME>  (1) 
97.1

>  <PUBCHEM_COORDINATE_TYPE>  (1) 
2
5
10

$$$$
