19161
     RDKit          3D

 24 25  0  0  1  0  0  0  0  0999 V2000
   -1.5875    1.0544   -1.2945 O   0  0  0  0  0  0  0  0  0  0  0  0
   -0.9367   -3.3532   -0.6495 O   0  0  0  0  0  0  0  0  0  0  0  0
   -0.6800   -1.8537   -2.3336 O   0  0  0  0  0  0  0  0  0  0  0  0
    0.1236    0.6817    0.2517 N   0  0  0  0  0  0  0  0  0  0  0  0
    0.6242   -0.2370    1.1611 N   0  0  0  0  0  0  0  0  0  0  0  0
   -3.1319   -1.0641   -0.3367 C   0  0  0  0  0  0  0  0  0  0  0  0
   -1.5943   -1.0888   -0.2151 C   0  0  0  0  0  0  0  0  0  0  0  0
   -3.8016   -0.1427    0.6888 C   0  0  0  0  0  0  0  0  0  0  0  0
   -5.3256   -0.2063    0.5783 C   0  0  0  0  0  0  0  0  0  0  0  0
   -1.0114    0.3167   -0.4905 C   0  0  0  0  0  0  0  0  0  0  0  0
   -1.0279   -2.1111   -1.1881 C   0  0  0  0  0  0  0  0  0  0  0  0
   -5.9966    0.6774    1.6175 C   0  0  0  0  0  0  0  0  0  0  0  0
    0.7456    1.9657    0.0742 C   0  0  0  0  0  0  0  0  0  0  0  0
    1.6759   -1.0998    0.8110 C   0  0  0  0  0  0  0  0  0  0  0  0
    0.6701    2.5650   -1.1601 C   0  0  0  0  0  0  0  0  0  0  0  0
    1.3873    2.5369    1.1469 C   0  0  0  0  0  0  0  0  0  0  0  0
    1.2733    3.8108   -1.3325 C   0  0  0  0  0  0  0  0  0  0  0  0
    1.9902    3.7828    0.9745 C   0  0  0  0  0  0  0  0  0  0  0  0
    2.2502   -1.9355    1.7732 C   0  0  0  0  0  0  0  0  0  0  0  0
    2.1551   -1.1276   -0.5018 C   0  0  0  0  0  0  0  0  0  0  0  0
    1.9332    4.4198   -0.2652 C   0  0  0  0  0  0  0  0  0  0  0  0
    3.2950   -2.7916    1.4255 C   0  0  0  0  0  0  0  0  0  0  0  0
    3.1999   -1.9839   -0.8494 C   0  0  0  0  0  0  0  0  0  0  0  0
    3.7698   -2.8159    0.1143 C   0  0  0  0  0  0  0  0  0  0  0  0
  1 10  2  0
  2 11  1  0
  3 11  2  0
  4  5  1  0
  4 10  1  0
  4 13  1  0
  5 14  1  0
  6  7  1  0
  6  8  1  0
  7 10  1  0
  7 11  1  0
  8  9  1  0
  9 12  1  0
 13 15  2  0
 13 16  1  0
 14 19  2  0
 14 20  1  0
 15 17  1  0
 16 18  2  0
 17 21  2  0
 18 21  1  0
 19 22  1  0
 20 23  2  0
 22 24  2  0
 23 24  1  0
M  END
>  <PUBCHEM_COMPOUND_CID>  (1) 
19161

>  <PUBCHEM_CONFORMER_RMSD>  (1) 
1

>  <PUBCHEM_CONFORMER_DIVERSEORDER>  (1) 
1
123
94
116
51
59
61
91
40
126
124
78
97
4
92
99
95
110
79
80
104
62
44
71
111
75
77
68
69
81
90
89
72
66
122
120
17
98
26
16
112
57
121
65
60
28
53
56
127
84
117
88
33
125
93
7
5
13
38
47
37
113
31
128
52
25
63
82
48
100
27
6
102
85
114
87
35
23
50
108
54
55
96
49
32
18
119
115
64
118
36
12
24
21
11
86
83
19
42
29
39
22
14
43
30
70
103
76
3
107
74
20
45
15
41
9
67
58
2
73
106
109
34
101
105
46
10
8

>  <PUBCHEM_MMFF94_PARTIAL_CHARGES>  (1) 
32
1 -0.57
10 0.57
11 0.66
13 0.12
14 0.1
15 -0.15
16 -0.15
17 -0.15
18 -0.15
19 -0.15
2 -0.65
20 -0.15
21 -0.15
22 -0.15
23 -0.15
24 -0.15
3 -0.57
35 0.4
36 0.15
37 0.15
38 0.5
39 0.15
4 -0.16
40 0.15
41 0.15
42 0.15
43 0.15
44 0.15
45 0.15
46 0.15
5 -0.52
7 0.12

>  <PUBCHEM_EFFECTIVE_ROTOR_COUNT>  (1) 
9

>  <PUBCHEM_PHARMACOPHORE_FEATURES>  (1) 
10
1 1 acceptor
1 12 hydrophobe
1 2 acceptor
1 3 acceptor
1 5 donor
1 7 anion
3 2 3 11 anion
4 6 7 8 9 hydrophobe
6 13 15 16 17 18 21 rings
6 14 19 20 22 23 24 rings

>  <PUBCHEM_HEAVY_ATOM_COUNT>  (1) 
24

>  <PUBCHEM_ATOM_DEF_STEREO_COUNT>  (1) 
0

>  <PUBCHEM_ATOM_UDEF_STEREO_COUNT>  (1) 
1

>  <PUBCHEM_BOND_DEF_STEREO_COUNT>  (1) 
0

>  <PUBCHEM_BOND_UDEF_STEREO_COUNT>  (1) 
0

>  <PUBCHEM_ISOTOPIC_ATOM_COUNT>  (1) 
0

>  <PUBCHEM_COMPONENT_COUNT>  (1) 
1

>  <PUBCHEM_CACTVS_TAUTO_COUNT>  (1) 
1

>  <PUBCHEM_CONFORMER_ID>  (1) 
00004AD900000001

>  <PUBCHEM_MMFF94_ENERGY>  (1) 
77.0169

>  <PUBCHEM_FEATURE_SELFOVERLAP>  (1) 
51.051

>  <PUBCHEM_SHAPE_FINGERPRINT>  (1) 
11578080 2 17460004384660240894
11582403 64 15683727025065879666
12422481 6 18123435437543375896
12553582 1 18337943489858735178
12788726 201 17397800416066818155
12930653 34 17757564319048558691
13140716 1 18049717718027749712
133893 2 18048849047801412518
13878862 14 18336813253037224365
14022347 108 18269006301378298142
14178342 30 17834673073625103749
14466204 15 18122631548714880641
14713325 29 17547292203397639194
14739800 52 17703223052879662553
14955137 171 18268444459673774819
15042514 8 17905046945634899811
15664445 248 18270137729097597878
1601671 61 18198632029798672507
1813 80 18340491049704680099
20600515 1 18059574646597362382
20739085 24 18341901731686398539
22182313 1 17969480698277538013
22849341 161 18269289984125727289
22907989 373 17906729203363994958
23366157 5 18262232351819886439
23558518 356 17833831946929434646
23598288 3 17469583128103834538
2748010 2 18122031274820481876
3380486 145 17979031039096290368
394222 165 18197509617252280985
4409770 3 17467343427239336917
465052 167 18335150756711166739
59444896 2 17470218757325494700
6786 2 17538303012935067028
81228 2 17837192793493555888
9841814 1 18260543411770448251

>  <PUBCHEM_SHAPE_MULTIPOLES>  (1) 
466.34
7.5
5.46
1.65
13.53
5.58
0.1
-3.61
-3.8
-6.7
0.56
0
-0.31
-1.06

>  <PUBCHEM_SHAPE_SELFOVERLAP>  (1) 
974.577

>  <PUBCHEM_SHAPE_VOLUME>  (1) 
261

>  <PUBCHEM_COORDINATE_TYPE>  (1) 
2
5
10

$$$$
