19163
     RDKit          3D

 22 23  0  0  0  0  0  0  0  0999 V2000
   -2.0251   -3.3864    1.6006 Cl  0  0  0  0  0  0  0  0  0  0  0  0
   -4.2627   -2.4510    0.0433 Cl  0  0  0  0  0  0  0  0  0  0  0  0
   -1.9516   -3.5098   -1.3225 Cl  0  0  0  0  0  0  0  0  0  0  0  0
   -2.3148    3.2587   -1.6278 Cl  0  0  0  0  0  0  0  0  0  0  0  0
   -4.4980    2.0934   -0.1504 Cl  0  0  0  0  0  0  0  0  0  0  0  0
   -2.3623    3.3877    1.2956 Cl  0  0  0  0  0  0  0  0  0  0  0  0
    5.6874    0.3502    0.1294 O   0  0  0  0  0  0  0  0  0  0  0  0
   -0.5581    1.2223   -0.0345 N   0  0  0  0  0  0  0  0  0  0  0  0
   -0.4341   -1.1717    0.0720 N   0  0  0  0  0  0  0  0  0  0  0  0
   -2.5710   -0.0839   -0.0196 N   0  0  0  0  0  0  0  0  0  0  0  0
    1.5430    0.1325    0.0553 C   0  0  0  0  0  0  0  0  0  0  0  0
    0.0988    0.0567    0.0297 C   0  0  0  0  0  0  0  0  0  0  0  0
    2.1732    1.2393    0.6240 C   0  0  0  0  0  0  0  0  0  0  0  0
    2.3055   -0.9012   -0.4885 C   0  0  0  0  0  0  0  0  0  0  0  0
   -1.8926    1.0744   -0.0557 C   0  0  0  0  0  0  0  0  0  0  0  0
   -1.7767   -1.1646    0.0440 C   0  0  0  0  0  0  0  0  0  0  0  0
    4.3285    0.2788    0.1050 C   0  0  0  0  0  0  0  0  0  0  0  0
    3.5658    1.3125    0.6488 C   0  0  0  0  0  0  0  0  0  0  0  0
    3.6983   -0.8281   -0.4637 C   0  0  0  0  0  0  0  0  0  0  0  0
   -2.4550   -2.4914    0.0864 C   0  0  0  0  0  0  0  0  0  0  0  0
   -2.7041    2.3229   -0.1274 C   0  0  0  0  0  0  0  0  0  0  0  0
    6.4055   -0.7413   -0.4440 C   0  0  0  0  0  0  0  0  0  0  0  0
  1 20  1  0
  2 20  1  0
  3 20  1  0
  4 21  1  0
  5 21  1  0
  6 21  1  0
  7 17  1  0
  7 22  1  0
  8 12  2  0
  8 15  1  0
  9 12  1  0
  9 16  2  0
 10 15  2  0
 10 16  1  0
 11 12  1  0
 11 13  2  0
 11 14  1  0
 13 18  1  0
 14 19  2  0
 15 21  1  0
 16 20  1  0
 17 18  2  0
 17 19  1  0
M  END
>  <PUBCHEM_COMPOUND_CID>  (1) 
19163

>  <PUBCHEM_CONFORMER_RMSD>  (1) 
0.6

>  <PUBCHEM_CONFORMER_DIVERSEORDER>  (1) 
1
8
10
3
11
5
4
9
7
2
6

>  <PUBCHEM_MMFF94_PARTIAL_CHARGES>  (1) 
25
1 -0.29
10 -0.62
12 0.62
13 -0.15
14 -0.15
15 0.48
16 0.48
17 0.08
18 -0.15
19 -0.15
2 -0.29
20 1.01
21 1.01
22 0.28
23 0.15
24 0.15
25 0.15
26 0.15
3 -0.29
4 -0.29
5 -0.29
6 -0.29
7 -0.36
8 -0.62
9 -0.62

>  <PUBCHEM_EFFECTIVE_ROTOR_COUNT>  (1) 
4

>  <PUBCHEM_PHARMACOPHORE_FEATURES>  (1) 
6
1 7 acceptor
3 8 10 15 cation
3 8 9 12 cation
3 9 10 16 cation
6 11 13 14 17 18 19 rings
6 8 9 10 12 15 16 rings

>  <PUBCHEM_HEAVY_ATOM_COUNT>  (1) 
22

>  <PUBCHEM_ATOM_DEF_STEREO_COUNT>  (1) 
0

>  <PUBCHEM_ATOM_UDEF_STEREO_COUNT>  (1) 
0

>  <PUBCHEM_BOND_DEF_STEREO_COUNT>  (1) 
0

>  <PUBCHEM_BOND_UDEF_STEREO_COUNT>  (1) 
0

>  <PUBCHEM_ISOTOPIC_ATOM_COUNT>  (1) 
0

>  <PUBCHEM_COMPONENT_COUNT>  (1) 
1

>  <PUBCHEM_CACTVS_TAUTO_COUNT>  (1) 
1

>  <PUBCHEM_CONFORMER_ID>  (1) 
00004ADB00000001

>  <PUBCHEM_MMFF94_ENERGY>  (1) 
59.0769

>  <PUBCHEM_FEATURE_SELFOVERLAP>  (1) 
33.23

>  <PUBCHEM_SHAPE_FINGERPRINT>  (1) 
10319926 262 18340469120503429370
10411042 1 18050005790396408875
10616163 171 18411419527190376694
11405975 8 18411980244145452080
12107183 9 17974842870794806802
12160290 23 18266152033874797377
12403259 226 18127404764534293256
12403259 415 17988357174417541944
12500047 106 18338513045740331060
12553582 1 17834404788240134943
12643181 29 18197502827774694886
12730499 353 17758676651502398909
12788726 201 18335973251163596307
13004483 165 18267857475025362311
13140716 1 18194129735730389131
13681431 1 17542498788066802281
14178342 30 18261942008147146986
14508225 48 18265040513513349877
15042514 8 18336551611670204083
15463212 79 18114455669759112872
16087824 20 18409728444970102669
17844677 252 18340214080955661036
1813 80 17909005535762316999
19141452 34 17915184735328850503
19591789 44 18048880693536836355
20101258 96 18115884046948626664
20510252 161 18412543223852401601
20600515 1 17172341536596595113
20645477 56 18337674118020418604
20645477 70 17202485494708476526
21065198 57 18342174467085221504
21065201 7 18409158923099325760
21236236 1 18413388744030796719
21267235 1 18338242681586000426
21339142 126 18270116949808553023
21524375 3 18192714436732368663
221490 88 18340491192155726960
22182313 1 17846234228228058350
22182937 141 18271250421663539489
22224240 67 18339653222799467777
23402539 116 18411132580583339871
23419403 2 17345178107932481721
23557571 272 18340492252337467828
23559900 14 18199468763017546294
23598288 3 18263374740306729671
23845131 108 17907313061493124169
283562 15 18336543906082598611
3091708 16 8985514145742842009
350125 39 18340773744700126656
3545911 37 18341050718651357300
4073 2 18408326588797868826
4214541 1 18411419501499310864
4409770 3 18410005551342717527
5104073 3 18342452656522695392
559249 180 18337387150392602586
59755656 215 18341613672424693774
59755656 520 18335417903233411437
633830 44 17626104144377663493
81228 2 18335706095760304785
9709674 26 18272373053311039062

>  <PUBCHEM_SHAPE_MULTIPOLES>  (1) 
443.16
10.34
4.47
1.12
17.38
0.79
0.01
-0.19
0.61
-7.73
-0.02
-0.71
0
0.79

>  <PUBCHEM_SHAPE_SELFOVERLAP>  (1) 
883.691

>  <PUBCHEM_SHAPE_VOLUME>  (1) 
263

>  <PUBCHEM_COORDINATE_TYPE>  (1) 
2
5
10

$$$$
