19160
     RDKit          3D

  7  7  0  0  1  0  0  0  0  0999 V2000
    2.1754    1.4288   -0.4152 Cl  0  0  0  0  0  0  0  0  0  0  0  0
   -2.1903    1.4236    0.4163 Cl  0  0  0  0  0  0  0  0  0  0  0  0
    0.0100   -1.6476    0.0038 O   0  0  0  0  0  0  0  0  0  0  0  0
    0.4673   -0.4279    0.5699 C   0  0  0  0  0  0  0  0  0  0  0  0
   -0.4813   -0.4305   -0.5722 C   0  0  0  0  0  0  0  0  0  0  0  0
    1.9394   -0.1674    0.3286 C   0  0  0  0  0  0  0  0  0  0  0  0
   -1.9205   -0.1789   -0.3312 C   0  0  0  0  0  0  0  0  0  0  0  0
  1  6  1  0
  2  7  1  0
  3  4  1  0
  3  5  1  0
  4  5  1  0
  4  6  1  0
  5  7  1  0
M  END
>  <PUBCHEM_COMPOUND_CID>  (1) 
19160

>  <PUBCHEM_CONFORMER_RMSD>  (1) 
0.4

>  <PUBCHEM_CONFORMER_DIVERSEORDER>  (1) 
1
11
16
14
13
18
17
15
8
12
9
2
3
19
10
4
7
6
5

>  <PUBCHEM_MMFF94_PARTIAL_CHARGES>  (1) 
9
1 -0.29
2 -0.29
3 -0.3
4 -0.05
5 -0.05
6 0.38
7 0.38
8 0.1
9 0.1

>  <PUBCHEM_EFFECTIVE_ROTOR_COUNT>  (1) 
2.6

>  <PUBCHEM_PHARMACOPHORE_FEATURES>  (1) 
1
1 3 acceptor

>  <PUBCHEM_HEAVY_ATOM_COUNT>  (1) 
7

>  <PUBCHEM_ATOM_DEF_STEREO_COUNT>  (1) 
0

>  <PUBCHEM_ATOM_UDEF_STEREO_COUNT>  (1) 
2

>  <PUBCHEM_BOND_DEF_STEREO_COUNT>  (1) 
0

>  <PUBCHEM_BOND_UDEF_STEREO_COUNT>  (1) 
0

>  <PUBCHEM_ISOTOPIC_ATOM_COUNT>  (1) 
0

>  <PUBCHEM_COMPONENT_COUNT>  (1) 
1

>  <PUBCHEM_CACTVS_TAUTO_COUNT>  (1) 
1

>  <PUBCHEM_CONFORMER_ID>  (1) 
00004AD800000001

>  <PUBCHEM_MMFF94_ENERGY>  (1) 
9.2847

>  <PUBCHEM_FEATURE_SELFOVERLAP>  (1) 
5.074

>  <PUBCHEM_SHAPE_FINGERPRINT>  (1) 
10857977 72 14490196024289926733
14390081 3 18270114742179317632
16714656 1 18129100198315580263
20096714 4 18335414686176091606
20653085 51 18270699626567577912
21040471 1 18342731927400525546
23552449 1 17691404530845440646
29004967 10 14634871911756262754
5084963 1 18336530660276337163

>  <PUBCHEM_SHAPE_MULTIPOLES>  (1) 
141.93
3.27
1.59
0.8
0
0.23
0
1.7
0.01
0
0
0
0.04
-0.46

>  <PUBCHEM_SHAPE_SELFOVERLAP>  (1) 
248.732

>  <PUBCHEM_SHAPE_VOLUME>  (1) 
96.4

>  <PUBCHEM_COORDINATE_TYPE>  (1) 
2
5
10

$$$$
