19164
     RDKit          3D

 21 22  0  0  0  0  0  0  0  0999 V2000
    1.1404    3.3940    1.3539 Cl  0  0  0  0  0  0  0  0  0  0  0  0
    3.7763    2.2794    1.0124 Cl  0  0  0  0  0  0  0  0  0  0  0  0
    2.4205    3.3938   -1.2781 Cl  0  0  0  0  0  0  0  0  0  0  0  0
    2.4350   -3.3942   -1.2750 Cl  0  0  0  0  0  0  0  0  0  0  0  0
    3.7732   -2.2781    1.0207 Cl  0  0  0  0  0  0  0  0  0  0  0  0
    1.1316   -3.3930    1.3455 Cl  0  0  0  0  0  0  0  0  0  0  0  0
    0.2849   -1.2000   -0.7000 N   0  0  0  0  0  0  0  0  0  0  0  0
    0.2846    1.1996   -0.7005 N   0  0  0  0  0  0  0  0  0  0  0  0
    2.1496    0.0002    0.2166 N   0  0  0  0  0  0  0  0  0  0  0  0
   -1.5943   -0.0006   -1.6240 C   0  0  0  0  0  0  0  0  0  0  0  0
   -2.7388   -0.0005   -0.6677 C   0  0  0  0  0  0  0  0  0  0  0  0
   -0.2343   -0.0003   -0.9555 C   0  0  0  0  0  0  0  0  0  0  0  0
   -3.2740    1.2076   -0.2206 C   0  0  0  0  0  0  0  0  0  0  0  0
   -3.2742   -1.2085   -0.2204 C   0  0  0  0  0  0  0  0  0  0  0  0
    1.4878   -1.1220   -0.1084 C   0  0  0  0  0  0  0  0  0  0  0  0
    1.4876    1.1222   -0.1088 C   0  0  0  0  0  0  0  0  0  0  0  0
   -4.3444    1.2078    0.6737 C   0  0  0  0  0  0  0  0  0  0  0  0
   -4.3447   -1.2082    0.6739 C   0  0  0  0  0  0  0  0  0  0  0  0
    2.1562    2.4134    0.2201 C   0  0  0  0  0  0  0  0  0  0  0  0
    2.1567   -2.4129    0.2211 C   0  0  0  0  0  0  0  0  0  0  0  0
   -4.8798    0.0000    1.1208 C   0  0  0  0  0  0  0  0  0  0  0  0
  1 19  1  0
  2 19  1  0
  3 19  1  0
  4 20  1  0
  5 20  1  0
  6 20  1  0
  7 12  2  0
  7 15  1  0
  8 12  1  0
  8 16  2  0
  9 15  2  0
  9 16  1  0
 10 11  1  0
 10 12  1  0
 11 13  2  0
 11 14  1  0
 13 17  1  0
 14 18  2  0
 15 20  1  0
 16 19  1  0
 17 21  2  0
 18 21  1  0
M  END
>  <PUBCHEM_COMPOUND_CID>  (1) 
19164

>  <PUBCHEM_CONFORMER_RMSD>  (1) 
0.6

>  <PUBCHEM_CONFORMER_DIVERSEORDER>  (1) 
1
6
20
17
11
13
16
12
4
5
25
26
21
22
24
23
28
27
18
9
2
3
7
8
10
19
15
14

>  <PUBCHEM_MMFF94_PARTIAL_CHARGES>  (1) 
26
1 -0.29
10 0.29
11 -0.14
12 0.48
13 -0.15
14 -0.15
15 0.48
16 0.48
17 -0.15
18 -0.15
19 1.01
2 -0.29
20 1.01
21 -0.15
24 0.15
25 0.15
26 0.15
27 0.15
28 0.15
3 -0.29
4 -0.29
5 -0.29
6 -0.29
7 -0.62
8 -0.62
9 -0.62

>  <PUBCHEM_EFFECTIVE_ROTOR_COUNT>  (1) 
4

>  <PUBCHEM_PHARMACOPHORE_FEATURES>  (1) 
5
3 7 8 12 cation
3 7 9 15 cation
3 8 9 16 cation
6 11 13 14 17 18 21 rings
6 7 8 9 12 15 16 rings

>  <PUBCHEM_HEAVY_ATOM_COUNT>  (1) 
21

>  <PUBCHEM_ATOM_DEF_STEREO_COUNT>  (1) 
0

>  <PUBCHEM_ATOM_UDEF_STEREO_COUNT>  (1) 
0

>  <PUBCHEM_BOND_DEF_STEREO_COUNT>  (1) 
0

>  <PUBCHEM_BOND_UDEF_STEREO_COUNT>  (1) 
0

>  <PUBCHEM_ISOTOPIC_ATOM_COUNT>  (1) 
0

>  <PUBCHEM_COMPONENT_COUNT>  (1) 
1

>  <PUBCHEM_CACTVS_TAUTO_COUNT>  (1) 
1

>  <PUBCHEM_CONFORMER_ID>  (1) 
00004ADC00000001

>  <PUBCHEM_MMFF94_ENERGY>  (1) 
42.5245

>  <PUBCHEM_FEATURE_SELFOVERLAP>  (1) 
28.185

>  <PUBCHEM_SHAPE_FINGERPRINT>  (1) 
10366900 7 18194125337937351745
11578080 2 17605266294338864100
12160290 23 16972500458210327646
12422481 6 18123155019313041464
12506688 2 17971470702237950435
12553582 1 18049434851344744975
12633257 1 18198073486777135297
12714826 92 17607249749207308223
12788726 201 17039777371058445551
13140716 1 18266169724697370498
13533116 47 18410577306205942243
13583140 156 18411416224755781909
13878862 14 18338505341197431981
14022347 108 17836375843210968183
14178342 30 18117844519689682743
14466204 15 17617095807558085945
14787075 74 18114748131800834138
14790565 3 18266179629104023444
14955137 171 18272374135822340478
15295992 7 17697036203654809248
15375462 189 18042968662206170635
15475509 84 18197223542503376505
15527383 91 18335703780519828359
15842332 3 17846202410930858151
17804303 29 18117570535283642663
1813 80 17843133510611001790
18785283 64 18261111915538686180
19784866 9 18342175604655917488
201361 129 18342178920370481341
20600515 1 17758399573806646164
20645477 70 18338498782212171815
20681677 274 18334861615085398691
20739085 24 18409163295197081008
21041028 32 18270114583376252024
21065199 12 18408610262460023417
21344244 78 18130497540493180001
21524375 3 18125715948764787908
21731228 192 18122053475601146656
21756936 100 17838337741607275660
2255824 54 18408890645834617478
23557571 272 17764862503745784094
23558518 356 17478883243959168940
23559900 14 18187080629488590565
2748010 2 17907833151539863868
3091708 16 9505347858676881334
314173 41 18192157001148249063
352729 6 17471276822834459350
392239 28 17837498818819887419
4409770 3 17107624956480040164
458136 41 18262807404980747980
474 4 18265613363118727949
5104073 3 18339093635783736355
6049 1 17968089777397520789
633830 44 18056766648202717869
6442390 28 17906463468804113645
7097593 13 18341330011779082151
7364860 26 18413670214301122630
7615 1 17703209794283321223
81228 2 17261290520108796892

>  <PUBCHEM_SHAPE_MULTIPOLES>  (1) 
428.45
8.17
4.64
1.43
9.74
0
0.07
-0.01
-2.71
-6.59
-0.64
-0.27
0
0

>  <PUBCHEM_SHAPE_SELFOVERLAP>  (1) 
847.199

>  <PUBCHEM_SHAPE_VOLUME>  (1) 
250

>  <PUBCHEM_COORDINATE_TYPE>  (1) 
2
5
10

$$$$
