19177
     RDKit          3D

  9  8  0  0  1  0  0  0  0  0999 V2000
   -3.8737    0.8595    0.4460 Cl  0  0  0  0  0  0  0  0  0  0  0  0
    3.8726    0.8606   -0.4459 Cl  0  0  0  0  0  0  0  0  0  0  0  0
    0.0016   -0.2013   -0.0001 N   0  0  0  0  0  0  0  0  0  0  0  0
   -1.1962    0.6265    0.1013 C   0  0  0  0  0  0  0  0  0  0  0  0
    1.1953    0.6253   -0.1012 C   0  0  0  0  0  0  0  0  0  0  0  0
   -2.4586   -0.2259    0.2606 C   0  0  0  0  0  0  0  0  0  0  0  0
    2.4584   -0.2260   -0.2606 C   0  0  0  0  0  0  0  0  0  0  0  0
   -2.7057   -1.1593   -0.9199 C   0  0  0  0  0  0  0  0  0  0  0  0
    2.7063   -1.1594    0.9197 C   0  0  0  0  0  0  0  0  0  0  0  0
  1  6  1  0
  2  7  1  0
  3  4  1  0
  3  5  1  0
  4  6  1  0
  5  7  1  0
  6  8  1  0
  7  9  1  0
M  END
>  <PUBCHEM_COMPOUND_CID>  (1) 
19177

>  <PUBCHEM_CONFORMER_RMSD>  (1) 
0.6

>  <PUBCHEM_CONFORMER_DIVERSEORDER>  (1) 
1
43
45
44
29
10
42
38
4
46
17
21
11
47
20
48
32
2
24
5
22
18
35
26
23
6
37
14
33
15
25
12
19
7
40
30
13
41
8
34
3
16
36
9
28
31
39
27

>  <PUBCHEM_MMFF94_PARTIAL_CHARGES>  (1) 
8
1 -0.29
14 0.36
2 -0.29
3 -0.9
4 0.27
5 0.27
6 0.29
7 0.29

>  <PUBCHEM_EFFECTIVE_ROTOR_COUNT>  (1) 
4

>  <PUBCHEM_PHARMACOPHORE_FEATURES>  (1) 
2
1 3 cation
1 3 donor

>  <PUBCHEM_HEAVY_ATOM_COUNT>  (1) 
9

>  <PUBCHEM_ATOM_DEF_STEREO_COUNT>  (1) 
0

>  <PUBCHEM_ATOM_UDEF_STEREO_COUNT>  (1) 
2

>  <PUBCHEM_BOND_DEF_STEREO_COUNT>  (1) 
0

>  <PUBCHEM_BOND_UDEF_STEREO_COUNT>  (1) 
0

>  <PUBCHEM_ISOTOPIC_ATOM_COUNT>  (1) 
0

>  <PUBCHEM_COMPONENT_COUNT>  (1) 
1

>  <PUBCHEM_CACTVS_TAUTO_COUNT>  (1) 
1

>  <PUBCHEM_CONFORMER_ID>  (1) 
00004AE900000001

>  <PUBCHEM_MMFF94_ENERGY>  (1) 
2.7948

>  <PUBCHEM_FEATURE_SELFOVERLAP>  (1) 
10.148

>  <PUBCHEM_SHAPE_FINGERPRINT>  (1) 
10857977 72 16845285072811575875
11062470 55 18409733958289111177
12932764 1 18410849966865204577
14325111 11 18410576188469680482
15775835 57 18410578387492994503
20211469 26 10735876158152688569
20645477 70 17895182260439175099
22485316 2 18410571790423169379
3248919 1 18411411813012043831

>  <PUBCHEM_SHAPE_MULTIPOLES>  (1) 
183.97
7.59
1.2
0.87
0
0.15
0
-1
0
0
0
0
0.19
-0.99

>  <PUBCHEM_SHAPE_SELFOVERLAP>  (1) 
310.839

>  <PUBCHEM_SHAPE_VOLUME>  (1) 
125.1

>  <PUBCHEM_COORDINATE_TYPE>  (1) 
2
5
10

$$$$
