19195
     RDKit          3D

 14 15  0  0  0  0  0  0  0  0999 V2000
    0.8777    1.1907    0.1477 N   0  0  0  0  0  0  0  0  0  0  0  0
    0.8776   -1.1905   -0.1490 N   0  0  0  0  0  0  0  0  0  0  0  0
    2.9556   -0.0001    0.0001 N   0  0  0  0  0  0  0  0  0  0  0  0
   -1.1648    0.0001   -0.0003 C   0  0  0  0  0  0  0  0  0  0  0  0
    0.2821    0.0002   -0.0009 C   0  0  0  0  0  0  0  0  0  0  0  0
   -1.8626    1.1131   -0.4694 C   0  0  0  0  0  0  0  0  0  0  0  0
   -1.8618   -1.1130    0.4694 C   0  0  0  0  0  0  0  0  0  0  0  0
    2.2182    1.1135    0.1385 C   0  0  0  0  0  0  0  0  0  0  0  0
    2.2181   -1.1135   -0.1390 C   0  0  0  0  0  0  0  0  0  0  0  0
   -3.2575    1.1130   -0.4690 C   0  0  0  0  0  0  0  0  0  0  0  0
   -3.2567   -1.1133    0.4697 C   0  0  0  0  0  0  0  0  0  0  0  0
   -3.9545   -0.0003    0.0005 C   0  0  0  0  0  0  0  0  0  0  0  0
    2.9642    2.3942    0.2990 C   0  0  0  0  0  0  0  0  0  0  0  0
    2.9644   -2.3943   -0.2972 C   0  0  0  0  0  0  0  0  0  0  0  0
  1  5  2  0
  1  8  1  0
  2  5  1  0
  2  9  2  0
  3  8  2  0
  3  9  1  0
  4  5  1  0
  4  6  2  0
  4  7  1  0
  6 10  1  0
  7 11  2  0
  8 13  1  0
  9 14  1  0
 10 12  2  0
 11 12  1  0
M  END
>  <PUBCHEM_COMPOUND_CID>  (1) 
19195

>  <PUBCHEM_CONFORMER_RMSD>  (1) 
0.4

>  <PUBCHEM_CONFORMER_DIVERSEORDER>  (1) 
1
2
3

>  <PUBCHEM_MMFF94_PARTIAL_CHARGES>  (1) 
18
1 -0.62
10 -0.15
11 -0.15
12 -0.15
13 0.14
14 0.14
15 0.15
16 0.15
17 0.15
18 0.15
2 -0.62
25 0.15
3 -0.62
5 0.62
6 -0.15
7 -0.15
8 0.48
9 0.48

>  <PUBCHEM_EFFECTIVE_ROTOR_COUNT>  (1) 
1

>  <PUBCHEM_PHARMACOPHORE_FEATURES>  (1) 
5
3 1 2 5 cation
3 1 3 8 cation
3 2 3 9 cation
6 1 2 3 5 8 9 rings
6 4 6 7 10 11 12 rings

>  <PUBCHEM_HEAVY_ATOM_COUNT>  (1) 
14

>  <PUBCHEM_ATOM_DEF_STEREO_COUNT>  (1) 
0

>  <PUBCHEM_ATOM_UDEF_STEREO_COUNT>  (1) 
0

>  <PUBCHEM_BOND_DEF_STEREO_COUNT>  (1) 
0

>  <PUBCHEM_BOND_UDEF_STEREO_COUNT>  (1) 
0

>  <PUBCHEM_ISOTOPIC_ATOM_COUNT>  (1) 
0

>  <PUBCHEM_COMPONENT_COUNT>  (1) 
1

>  <PUBCHEM_CACTVS_TAUTO_COUNT>  (1) 
1

>  <PUBCHEM_CONFORMER_ID>  (1) 
00004AFB00000001

>  <PUBCHEM_MMFF94_ENERGY>  (1) 
36.5705

>  <PUBCHEM_FEATURE_SELFOVERLAP>  (1) 
28.155

>  <PUBCHEM_SHAPE_FINGERPRINT>  (1) 
10608611 8 18408317787571238981
10922523 26 18333449833211841885
10980938 120 18341612663323624280
11471102 20 18412259515033663388
12032990 46 18337958878699786791
12932764 1 17489299836826803689
13296908 3 18334579036017327603
13380535 21 18337962284640221647
13380535 76 18263921210312211626
14144814 61 18410576175859098361
14325111 11 18409728478195684589
14415576 193 18335705000348907180
14648413 74 18409446968711510152
15219456 202 18409166627679947105
15375462 6 18410012177749118485
15442244 35 18197220247809246720
15536298 74 18412826888777006211
15775835 57 18058451078562180557
16945 1 18413108355369497602
17804303 29 18263088716854157343
17990270 104 18410292484711106266
18186145 218 17968374550887826773
19049666 15 18335137540515950393
19973954 147 18410012113324823201
200 152 17988914557929602743
20201158 50 18410575054730462515
20279233 1 18334575763178226147
20528008 55 18335698369145755133
20645477 56 18186798067932932125
20645477 70 18341890771151756079
20671657 53 18127418851995609382
20871998 22 18056482738580722318
21501502 16 18411982459900060065
21524375 3 17912081952295936064
21730867 7 18410576205855303992
221490 88 18409175423752331586
22854114 111 18342455988710668320
22943178 12 18333448746711761795
23402655 69 18341886369026523005
23557571 272 17603580833587500429
23559900 14 18338791222029236058
2748010 2 18334576845457178839
5104073 3 18408605859860030961
581208 293 18341325694951795206
6049 1 18260562107910734675
69090 78 18411412921846920255
7364860 26 18413389839194605700
74978 22 18339081484424501851
77492 1 17060338522181644673
81539 233 18335700615371628396
8809292 202 18261118422082077283
93112 12 18410012100571621367
9709674 26 18408325514228103427

>  <PUBCHEM_SHAPE_MULTIPOLES>  (1) 
273.17
6.65
2.18
0.68
2.36
0
0
0
0
-2.26
0
0.14
0
0.8

>  <PUBCHEM_SHAPE_SELFOVERLAP>  (1) 
587.227

>  <PUBCHEM_SHAPE_VOLUME>  (1) 
147.6

>  <PUBCHEM_COORDINATE_TYPE>  (1) 
2
5
10

$$$$
