19196
     RDKit          3D

 19 21  0  0  0  0  0  0  0  0999 V2000
   -0.0018    0.2262    0.0198 N   0  0  0  0  0  0  0  0  0  0  0  0
    1.1960   -1.8437   -0.1765 N   0  0  0  0  0  0  0  0  0  0  0  0
   -1.2035   -1.8415   -0.1759 N   0  0  0  0  0  0  0  0  0  0  0  0
   -2.3706    0.2104    0.0198 C   0  0  0  0  0  0  0  0  0  0  0  0
    2.3672    0.2062    0.0189 C   0  0  0  0  0  0  0  0  0  0  0  0
   -1.1181   -0.5107   -0.0499 C   0  0  0  0  0  0  0  0  0  0  0  0
    1.1196   -0.5091   -0.0502 C   0  0  0  0  0  0  0  0  0  0  0  0
   -0.0043   -2.4429   -0.2331 C   0  0  0  0  0  0  0  0  0  0  0  0
   -2.4507    1.5170   -0.4621 C   0  0  0  0  0  0  0  0  0  0  0  0
   -3.4980   -0.4009    0.5685 C   0  0  0  0  0  0  0  0  0  0  0  0
    2.4558    1.5164   -0.4623 C   0  0  0  0  0  0  0  0  0  0  0  0
    3.4997   -0.4035    0.5682 C   0  0  0  0  0  0  0  0  0  0  0  0
   -3.6580    2.2123   -0.3952 C   0  0  0  0  0  0  0  0  0  0  0  0
   -4.7054    0.2943    0.6352 C   0  0  0  0  0  0  0  0  0  0  0  0
    3.6644    2.2095   -0.3952 C   0  0  0  0  0  0  0  0  0  0  0  0
    4.7082    0.2899    0.6353 C   0  0  0  0  0  0  0  0  0  0  0  0
   -4.7854    1.6010    0.1534 C   0  0  0  0  0  0  0  0  0  0  0  0
    4.7904    1.5964    0.1536 C   0  0  0  0  0  0  0  0  0  0  0  0
   -0.0056   -3.9274   -0.3723 C   0  0  0  0  0  0  0  0  0  0  0  0
  1  6  2  0
  1  7  1  0
  2  7  2  0
  2  8  1  0
  3  6  1  0
  3  8  2  0
  4  6  1  0
  4  9  2  0
  4 10  1  0
  5  7  1  0
  5 11  2  0
  5 12  1  0
  8 19  1  0
  9 13  1  0
 10 14  2  0
 11 15  1  0
 12 16  2  0
 13 17  2  0
 14 17  1  0
 15 18  2  0
 16 18  1  0
M  END
>  <PUBCHEM_COMPOUND_CID>  (1) 
19196

>  <PUBCHEM_CONFORMER_RMSD>  (1) 
0.6

>  <PUBCHEM_CONFORMER_DIVERSEORDER>  (1) 
1
3
2

>  <PUBCHEM_MMFF94_PARTIAL_CHARGES>  (1) 
27
1 -0.62
10 -0.15
11 -0.15
12 -0.15
13 -0.15
14 -0.15
15 -0.15
16 -0.15
17 -0.15
18 -0.15
19 0.14
2 -0.62
20 0.15
21 0.15
22 0.15
23 0.15
24 0.15
25 0.15
26 0.15
27 0.15
28 0.15
29 0.15
3 -0.62
6 0.62
7 0.62
8 0.48
9 -0.15

>  <PUBCHEM_EFFECTIVE_ROTOR_COUNT>  (1) 
2

>  <PUBCHEM_PHARMACOPHORE_FEATURES>  (1) 
6
3 1 2 7 cation
3 1 3 6 cation
3 2 3 8 cation
6 1 2 3 6 7 8 rings
6 4 9 10 13 14 17 rings
6 5 11 12 15 16 18 rings

>  <PUBCHEM_HEAVY_ATOM_COUNT>  (1) 
19

>  <PUBCHEM_ATOM_DEF_STEREO_COUNT>  (1) 
0

>  <PUBCHEM_ATOM_UDEF_STEREO_COUNT>  (1) 
0

>  <PUBCHEM_BOND_DEF_STEREO_COUNT>  (1) 
0

>  <PUBCHEM_BOND_UDEF_STEREO_COUNT>  (1) 
0

>  <PUBCHEM_ISOTOPIC_ATOM_COUNT>  (1) 
0

>  <PUBCHEM_COMPONENT_COUNT>  (1) 
1

>  <PUBCHEM_CACTVS_TAUTO_COUNT>  (1) 
1

>  <PUBCHEM_CONFORMER_ID>  (1) 
00004AFC00000001

>  <PUBCHEM_MMFF94_ENERGY>  (1) 
55.7175

>  <PUBCHEM_FEATURE_SELFOVERLAP>  (1) 
33.23

>  <PUBCHEM_SHAPE_FINGERPRINT>  (1) 
10608611 8 18118686513768506645
12173636 292 18339636870945796462
122479 349 18334860553848700890
12390115 104 18270699647894695465
12403259 118 18187358856974503953
12500047 106 18270676588726693840
12592029 89 18335986380683304906
12788726 201 17684663412297939706
12892183 10 17676207974279045729
13583140 156 17023448811679065083
138480 1 17762619482117374766
14123255 52 18411418410092152124
14252887 29 12324242733202063776
14508225 48 17479442891135708311
14790565 3 18412270544600227329
15042514 8 18120660398664429867
15188451 53 15285931329039974649
15196674 1 18408886234803237224
15342816 4 8718828725659660816
1741750 31 18341614862404798210
17834072 32 18411419535537529732
18186145 218 18201732708011989158
18222031 100 11746940905636758889
18785283 64 18264770965471415686
19784866 9 18341328881738472976
20157964 124 18266171726701250565
204376 136 18412827988510342539
20645477 56 18341053029280257688
21033648 29 18342446067537078048
212916 134 18199730540651388458
21524375 3 18408322202544197371
22950370 63 9007059088641724501
23227448 37 18341050834261819429
23402539 116 18272925046497004484
23558518 356 17830169469850472064
23559900 14 18050002191113165907
2916195 48 17917138498676590336
3091708 16 9337085178672787794
314173 85 10881395413739294972
335352 9 18411136914558646094
350125 39 18268711791465175953
394222 165 18334290925152745138
474 4 18339924818527873201
474229 33 18410293657548557299
4921388 177 15410603835521369685
5104073 3 18334295357458728833
6138700 20 18123475973698416046
633830 44 18202004274594171845
7226269 152 17988918981820180432
7364860 26 18124033433981597143
77188 2 17331119395118796167
7808743 9 18194120948465373088
7832392 63 18265049309854440772
81228 2 17693073568032592019
9709674 26 18264213500676320307
9981440 41 18409448072829329259

>  <PUBCHEM_SHAPE_MULTIPOLES>  (1) 
376.07
9.87
3.18
0.74
0.04
2.94
-0.03
-7.85
-1.78
-0.01
0.73
0
-0.04
0

>  <PUBCHEM_SHAPE_SELFOVERLAP>  (1) 
830.277

>  <PUBCHEM_SHAPE_VOLUME>  (1) 
197.5

>  <PUBCHEM_COORDINATE_TYPE>  (1) 
2
5
10

$$$$
