19193
     RDKit          3D

  8  8  0  0  0  0  0  0  0  0999 V2000
   -0.1092   -1.1999   -0.1584 N   0  0  0  0  0  0  0  0  0  0  0  0
   -0.1089    1.1997   -0.1585 N   0  0  0  0  0  0  0  0  0  0  0  0
   -2.1484    0.0002    0.2407 N   0  0  0  0  0  0  0  0  0  0  0  0
    1.9460   -0.0001   -0.5606 C   0  0  0  0  0  0  0  0  0  0  0  0
    0.4827   -0.0001   -0.2744 C   0  0  0  0  0  0  0  0  0  0  0  0
    2.7872    0.0001    0.7133 C   0  0  0  0  0  0  0  0  0  0  0  0
   -1.4247   -1.1221    0.0991 C   0  0  0  0  0  0  0  0  0  0  0  0
   -1.4245    1.1222    0.0989 C   0  0  0  0  0  0  0  0  0  0  0  0
  1  5  2  0
  1  7  1  0
  2  5  1  0
  2  8  2  0
  3  7  2  0
  3  8  1  0
  4  5  1  0
  4  6  1  0
M  END
>  <PUBCHEM_COMPOUND_CID>  (1) 
19193

>  <PUBCHEM_CONFORMER_RMSD>  (1) 
0.4

>  <PUBCHEM_CONFORMER_DIVERSEORDER>  (1) 
1
2

>  <PUBCHEM_MMFF94_PARTIAL_CHARGES>  (1) 
9
1 -0.62
14 0.15
15 0.15
2 -0.62
3 -0.62
4 0.14
5 0.48
7 0.47
8 0.47

>  <PUBCHEM_EFFECTIVE_ROTOR_COUNT>  (1) 
1

>  <PUBCHEM_PHARMACOPHORE_FEATURES>  (1) 
5
1 6 hydrophobe
3 1 2 5 cation
3 1 3 7 cation
3 2 3 8 cation
6 1 2 3 5 7 8 rings

>  <PUBCHEM_HEAVY_ATOM_COUNT>  (1) 
8

>  <PUBCHEM_ATOM_DEF_STEREO_COUNT>  (1) 
0

>  <PUBCHEM_ATOM_UDEF_STEREO_COUNT>  (1) 
0

>  <PUBCHEM_BOND_DEF_STEREO_COUNT>  (1) 
0

>  <PUBCHEM_BOND_UDEF_STEREO_COUNT>  (1) 
0

>  <PUBCHEM_ISOTOPIC_ATOM_COUNT>  (1) 
0

>  <PUBCHEM_COMPONENT_COUNT>  (1) 
1

>  <PUBCHEM_CACTVS_TAUTO_COUNT>  (1) 
3

>  <PUBCHEM_CONFORMER_ID>  (1) 
00004AF900000001

>  <PUBCHEM_MMFF94_ENERGY>  (1) 
11.9767

>  <PUBCHEM_FEATURE_SELFOVERLAP>  (1) 
28.144

>  <PUBCHEM_SHAPE_FINGERPRINT>  (1) 
10857977 72 18341326794495052258
16714656 1 18410580586526734694
20645464 45 17917706903433227154
21040471 1 18266468602533534853
23552423 10 17898576629111933860
29004967 10 16487262062289210910
369184 2 18412254039145513842
5084963 1 18270691869829988268

>  <PUBCHEM_SHAPE_MULTIPOLES>  (1) 
149.69
3.24
1.23
0.72
1.64
0
-0.02
0
-0.62
-0.55
0.01
0.28
0
0

>  <PUBCHEM_SHAPE_SELFOVERLAP>  (1) 
300.092

>  <PUBCHEM_SHAPE_VOLUME>  (1) 
85

>  <PUBCHEM_COORDINATE_TYPE>  (1) 
2
5
10

$$$$
