19197
     RDKit          3D

 10 10  0  0  0  0  0  0  0  0999 V2000
    2.1321   -1.0007    0.0002 O   0  0  0  0  0  0  0  0  0  0  0  0
   -1.6276    0.5221   -0.0001 N   0  0  0  0  0  0  0  0  0  0  0  0
    0.7488    0.8543   -0.0001 N   0  0  0  0  0  0  0  0  0  0  0  0
   -0.1516   -1.3699   -0.0001 N   0  0  0  0  0  0  0  0  0  0  0  0
   -1.3650   -0.7949   -0.0001 C   0  0  0  0  0  0  0  0  0  0  0  0
   -0.5229    1.2854   -0.0002 C   0  0  0  0  0  0  0  0  0  0  0  0
    0.8575   -0.4840   -0.0002 C   0  0  0  0  0  0  0  0  0  0  0  0
   -2.5403   -1.7122    0.0003 C   0  0  0  0  0  0  0  0  0  0  0  0
   -0.7291    2.7618    0.0002 C   0  0  0  0  0  0  0  0  0  0  0  0
    3.1980   -0.0619    0.0001 C   0  0  0  0  0  0  0  0  0  0  0  0
  1  7  1  0
  1 10  1  0
  2  5  2  0
  2  6  1  0
  3  6  2  0
  3  7  1  0
  4  5  1  0
  4  7  2  0
  5  8  1  0
  6  9  1  0
M  END
>  <PUBCHEM_COMPOUND_CID>  (1) 
19197

>  <PUBCHEM_CONFORMER_RMSD>  (1) 
0.4

>  <PUBCHEM_CONFORMER_DIVERSEORDER>  (1) 
1

>  <PUBCHEM_MMFF94_PARTIAL_CHARGES>  (1) 
10
1 -0.36
10 0.28
2 -0.62
3 -0.62
4 -0.62
5 0.48
6 0.48
7 0.7
8 0.14
9 0.14

>  <PUBCHEM_EFFECTIVE_ROTOR_COUNT>  (1) 
1

>  <PUBCHEM_PHARMACOPHORE_FEATURES>  (1) 
4
3 2 3 6 cation
3 2 4 5 cation
3 3 4 7 cation
6 2 3 4 5 6 7 rings

>  <PUBCHEM_HEAVY_ATOM_COUNT>  (1) 
10

>  <PUBCHEM_ATOM_DEF_STEREO_COUNT>  (1) 
0

>  <PUBCHEM_ATOM_UDEF_STEREO_COUNT>  (1) 
0

>  <PUBCHEM_BOND_DEF_STEREO_COUNT>  (1) 
0

>  <PUBCHEM_BOND_UDEF_STEREO_COUNT>  (1) 
0

>  <PUBCHEM_ISOTOPIC_ATOM_COUNT>  (1) 
0

>  <PUBCHEM_COMPONENT_COUNT>  (1) 
1

>  <PUBCHEM_CACTVS_TAUTO_COUNT>  (1) 
1

>  <PUBCHEM_CONFORMER_ID>  (1) 
00004AFD00000001

>  <PUBCHEM_MMFF94_ENERGY>  (1) 
24.743

>  <PUBCHEM_FEATURE_SELFOVERLAP>  (1) 
23.07

>  <PUBCHEM_SHAPE_FINGERPRINT>  (1) 
1 1 17040634990133359717
100427 49 18268986664544642849
10857977 72 18340474664530923274
12716758 59 18124880049534635742
16945 1 18266459815014512420
193761 8 17906171754836664615
20871998 184 18273496753830655222
21040471 1 17834395622768914336
23552423 10 18188495666393657926
23552449 1 18411416193899570388
241688 4 18410854390844952745
2748010 2 18339916133966961053

>  <PUBCHEM_SHAPE_MULTIPOLES>  (1) 
184.98
3.45
2.35
0.58
1.96
1.82
0
-1.87
0
-1.08
0
-0.01
0.01
0

>  <PUBCHEM_SHAPE_SELFOVERLAP>  (1) 
373.679

>  <PUBCHEM_SHAPE_VOLUME>  (1) 
106.2

>  <PUBCHEM_COORDINATE_TYPE>  (1) 
2
5
10

$$$$
