19208
     RDKit          3D

  7  7  0  0  0  0  0  0  0  0999 V2000
    0.2945   -1.1998    0.0000 N   0  0  0  0  0  0  0  0  0  0  0  0
    0.2946    1.1997    0.0000 N   0  0  0  0  0  0  0  0  0  0  0  0
   -1.7835    0.0001    0.0001 N   0  0  0  0  0  0  0  0  0  0  0  0
    0.8976    0.0000   -0.0001 C   0  0  0  0  0  0  0  0  0  0  0  0
    2.3886    0.0000    0.0001 C   0  0  0  0  0  0  0  0  0  0  0  0
   -1.0460   -1.1221    0.0000 C   0  0  0  0  0  0  0  0  0  0  0  0
   -1.0459    1.1222    0.0000 C   0  0  0  0  0  0  0  0  0  0  0  0
  1  4  2  0
  1  6  1  0
  2  4  1  0
  2  7  2  0
  3  6  2  0
  3  7  1  0
  4  5  1  0
M  END
>  <PUBCHEM_COMPOUND_CID>  (1) 
19208

>  <PUBCHEM_CONFORMER_RMSD>  (1) 
0.4

>  <PUBCHEM_CONFORMER_DIVERSEORDER>  (1) 
1

>  <PUBCHEM_MMFF94_PARTIAL_CHARGES>  (1) 
9
1 -0.62
11 0.15
12 0.15
2 -0.62
3 -0.62
4 0.48
5 0.14
6 0.47
7 0.47

>  <PUBCHEM_EFFECTIVE_ROTOR_COUNT>  (1) 
0

>  <PUBCHEM_PHARMACOPHORE_FEATURES>  (1) 
4
3 1 2 4 cation
3 1 3 6 cation
3 2 3 7 cation
6 1 2 3 4 6 7 rings

>  <PUBCHEM_HEAVY_ATOM_COUNT>  (1) 
7

>  <PUBCHEM_ATOM_DEF_STEREO_COUNT>  (1) 
0

>  <PUBCHEM_ATOM_UDEF_STEREO_COUNT>  (1) 
0

>  <PUBCHEM_BOND_DEF_STEREO_COUNT>  (1) 
0

>  <PUBCHEM_BOND_UDEF_STEREO_COUNT>  (1) 
0

>  <PUBCHEM_ISOTOPIC_ATOM_COUNT>  (1) 
0

>  <PUBCHEM_COMPONENT_COUNT>  (1) 
1

>  <PUBCHEM_CACTVS_TAUTO_COUNT>  (1) 
1

>  <PUBCHEM_CONFORMER_ID>  (1) 
00004B0800000001

>  <PUBCHEM_MMFF94_ENERGY>  (1) 
13.7563

>  <PUBCHEM_FEATURE_SELFOVERLAP>  (1) 
23.07

>  <PUBCHEM_SHAPE_FINGERPRINT>  (1) 
16714656 1 18410579487220822230
20096714 4 18266742380891810770
21040471 1 18266740177594823332
23552423 10 18260554385781498310
29004967 10 18261120689645091306

>  <PUBCHEM_SHAPE_MULTIPOLES>  (1) 
129.11
2.37
1.33
0.58
1.05
0
0
0
0
-0.34
0
0.02
0
0

>  <PUBCHEM_SHAPE_SELFOVERLAP>  (1) 
261.475

>  <PUBCHEM_SHAPE_VOLUME>  (1) 
72

>  <PUBCHEM_COORDINATE_TYPE>  (1) 
2
5
10

$$$$
