19204
     RDKit          3D

 23 25  0  0  0  0  0  0  0  0999 V2000
   -2.4048   -3.7388    0.6861 Cl  0  0  0  0  0  0  0  0  0  0  0  0
   -0.9628   -3.8845   -1.8590 Cl  0  0  0  0  0  0  0  0  0  0  0  0
    0.4075   -4.3781    0.6312 Cl  0  0  0  0  0  0  0  0  0  0  0  0
   -0.1349    0.7608    0.0311 N   0  0  0  0  0  0  0  0  0  0  0  0
    0.6906   -1.4905   -0.0595 N   0  0  0  0  0  0  0  0  0  0  0  0
   -1.6733   -1.0788   -0.0513 N   0  0  0  0  0  0  0  0  0  0  0  0
    2.1959    0.3368    0.0235 C   0  0  0  0  0  0  0  0  0  0  0  0
    0.8440   -0.1577   -0.0036 C   0  0  0  0  0  0  0  0  0  0  0  0
    4.8228    1.2961    0.0757 C   0  0  0  0  0  0  0  0  0  0  0  0
   -1.3611    0.2225    0.0040 C   0  0  0  0  0  0  0  0  0  0  0  0
   -2.4716    1.1494    0.0396 C   0  0  0  0  0  0  0  0  0  0  0  0
    2.5009    1.5859   -0.5263 C   0  0  0  0  0  0  0  0  0  0  0  0
    3.2145   -0.4290    0.5997 C   0  0  0  0  0  0  0  0  0  0  0  0
    3.8109    2.0643   -0.5004 C   0  0  0  0  0  0  0  0  0  0  0  0
    4.5246    0.0493    0.6257 C   0  0  0  0  0  0  0  0  0  0  0  0
   -0.5948   -1.8781   -0.0805 C   0  0  0  0  0  0  0  0  0  0  0  0
   -2.3340    2.4240   -0.5104 C   0  0  0  0  0  0  0  0  0  0  0  0
   -3.6799    0.7685    0.6234 C   0  0  0  0  0  0  0  0  0  0  0  0
    6.2234    1.8074    0.1040 C   0  0  0  0  0  0  0  0  0  0  0  0
   -3.4045    3.3176   -0.4764 C   0  0  0  0  0  0  0  0  0  0  0  0
   -4.7504    1.6621    0.6572 C   0  0  0  0  0  0  0  0  0  0  0  0
   -0.8504   -3.3458   -0.1411 C   0  0  0  0  0  0  0  0  0  0  0  0
   -4.6127    2.9366    0.1073 C   0  0  0  0  0  0  0  0  0  0  0  0
  1 22  1  0
  2 22  1  0
  3 22  1  0
  4  8  2  0
  4 10  1  0
  5  8  1  0
  5 16  2  0
  6 10  2  0
  6 16  1  0
  7  8  1  0
  7 12  2  0
  7 13  1  0
  9 14  2  0
  9 15  1  0
  9 19  1  0
 10 11  1  0
 11 17  2  0
 11 18  1  0
 12 14  1  0
 13 15  2  0
 16 22  1  0
 17 20  1  0
 18 21  2  0
 20 23  2  0
 21 23  1  0
M  END
>  <PUBCHEM_COMPOUND_CID>  (1) 
19204

>  <PUBCHEM_CONFORMER_RMSD>  (1) 
0.6

>  <PUBCHEM_CONFORMER_DIVERSEORDER>  (1) 
1
7
3
4
5
2
6

>  <PUBCHEM_MMFF94_PARTIAL_CHARGES>  (1) 
30
1 -0.29
10 0.62
12 -0.15
13 -0.15
14 -0.15
15 -0.15
16 0.48
17 -0.15
18 -0.15
19 0.14
2 -0.29
20 -0.15
21 -0.15
22 1.01
23 -0.15
24 0.15
25 0.15
26 0.15
27 0.15
28 0.15
29 0.15
3 -0.29
33 0.15
34 0.15
35 0.15
4 -0.62
5 -0.62
6 -0.62
8 0.62
9 -0.14

>  <PUBCHEM_EFFECTIVE_ROTOR_COUNT>  (1) 
3

>  <PUBCHEM_PHARMACOPHORE_FEATURES>  (1) 
6
3 4 5 8 cation
3 4 6 10 cation
3 5 6 16 cation
6 11 17 18 20 21 23 rings
6 4 5 6 8 10 16 rings
6 7 9 12 13 14 15 rings

>  <PUBCHEM_HEAVY_ATOM_COUNT>  (1) 
23

>  <PUBCHEM_ATOM_DEF_STEREO_COUNT>  (1) 
0

>  <PUBCHEM_ATOM_UDEF_STEREO_COUNT>  (1) 
0

>  <PUBCHEM_BOND_DEF_STEREO_COUNT>  (1) 
0

>  <PUBCHEM_BOND_UDEF_STEREO_COUNT>  (1) 
0

>  <PUBCHEM_ISOTOPIC_ATOM_COUNT>  (1) 
0

>  <PUBCHEM_COMPONENT_COUNT>  (1) 
1

>  <PUBCHEM_CACTVS_TAUTO_COUNT>  (1) 
1

>  <PUBCHEM_CONFORMER_ID>  (1) 
00004B0400000001

>  <PUBCHEM_MMFF94_ENERGY>  (1) 
62.5265

>  <PUBCHEM_FEATURE_SELFOVERLAP>  (1) 
33.23

>  <PUBCHEM_SHAPE_FINGERPRINT>  (1) 
10411042 1 17689718983699840323
10493431 412 18410012130425668592
1100329 8 18193834847640268218
11056379 131 18193847165843213374
12107183 9 18262789667614856122
12160290 23 18054537916774066111
12173636 292 18410006667263951316
12390115 104 18270696306405124345
12553582 1 17689992758032180922
12788726 201 17902528299640601870
13004483 165 17908135830459430199
13140716 1 18337392613037063275
13590594 115 17834960050983188387
138480 1 17400921899534616395
13955234 65 17905053556217212179
14178342 30 18192131902055268600
14508225 48 17766547328799393423
14790565 3 18338520742180028200
14955137 171 17759518868281244610
15042514 8 18192719057943443779
15230672 131 18336272250540778438
15664445 248 17264134956400379039
15927050 60 18411699855342650374
16087824 20 18339078328747893095
17539 30 18056189421909516047
18785283 64 18048034064951254843
19301679 30 18192998334034997594
20101258 96 17904210573905643504
204376 136 18339924822838924585
21033648 29 18341602712017184824
21049683 271 17614021593735287919
21120745 212 17760100896125304276
21202864 24 18340216296673352979
21524375 3 18342174449414767831
21756936 100 18341887515677328252
22224240 67 18342185462391644265
23419403 2 16983549721220423095
23557571 272 18128828632371902820
23558518 356 18188212112758492114
23559900 14 17687742740935287577
23929065 36 17912056624699562896
25147074 1 17751361896968720196
255183 313 18127710407524477219
283562 15 18338509863349471339
3091708 16 9340179196029833011
335352 9 18338234852646058022
350125 39 18411419557355251281
394222 165 18191581956513915699
474 4 18267583503282586905
474229 33 18409731768552025105
5104073 3 17901680267771781585
532947 4 18052259492621864342
5385378 56 18124038931587202649
59755656 520 18410008832259797436
621550 34 18045223739591521437
6327066 14 18408318869692410573
633830 44 18057041311566778405
6443956 14 17472420950123732422
6669772 16 18059017168432400502
7364860 26 17907578026055859255
7399639 24 18190191087986401457
77188 2 17329991807500464871
7808743 9 18409448133059623768
79837 15 18408328787045489203
81228 2 17908686664505048219
9981440 41 18336268938287322849

>  <PUBCHEM_SHAPE_MULTIPOLES>  (1) 
464
10.04
5.61
0.94
9.88
6.41
0.26
-12.22
-1.5
-5.3
0.73
-0.23
0.68
-0.36

>  <PUBCHEM_SHAPE_SELFOVERLAP>  (1) 
984.942

>  <PUBCHEM_SHAPE_VOLUME>  (1) 
255.7

>  <PUBCHEM_COORDINATE_TYPE>  (1) 
2
5
10

$$$$
