19211
     RDKit          3D

 12 12  0  0  0  0  0  0  0  0999 V2000
    0.8052    2.1786   -0.0006 O   0  0  0  0  0  0  0  0  0  0  0  0
   -2.9631   -1.5804    0.0000 O   0  0  0  0  0  0  0  0  0  0  0  0
    1.7711   -0.4938    0.0005 C   0  0  0  0  0  0  0  0  0  0  0  0
    0.3062   -0.1463    0.0003 C   0  0  0  0  0  0  0  0  0  0  0  0
    2.4265    0.0967    1.2558 C   0  0  0  0  0  0  0  0  0  0  0  0
    2.4383    0.0896   -1.2531 C   0  0  0  0  0  0  0  0  0  0  0  0
    1.9377   -2.0200    0.0008 C   0  0  0  0  0  0  0  0  0  0  0  0
   -0.0501    1.2987   -0.0007 C   0  0  0  0  0  0  0  0  0  0  0  0
   -0.6584   -1.0746    0.0007 C   0  0  0  0  0  0  0  0  0  0  0  0
   -2.0922   -0.7175    0.0000 C   0  0  0  0  0  0  0  0  0  0  0  0
   -1.4855    1.6523   -0.0020 C   0  0  0  0  0  0  0  0  0  0  0  0
   -2.4357    0.7167   -0.0016 C   0  0  0  0  0  0  0  0  0  0  0  0
  1  8  2  0
  2 10  2  0
  3  4  1  0
  3  5  1  0
  3  6  1  0
  3  7  1  0
  4  8  1  0
  4  9  2  0
  8 11  1  0
  9 10  1  0
 10 12  1  0
 11 12  2  0
M  END
>  <PUBCHEM_COMPOUND_CID>  (1) 
19211

>  <PUBCHEM_CONFORMER_RMSD>  (1) 
0.4

>  <PUBCHEM_CONFORMER_DIVERSEORDER>  (1) 
1
2

>  <PUBCHEM_MMFF94_PARTIAL_CHARGES>  (1) 
12
1 -0.57
10 0.54
11 -0.14
12 -0.14
2 -0.57
22 0.15
23 0.15
24 0.15
3 0.14
4 -0.12
8 0.54
9 -0.14

>  <PUBCHEM_EFFECTIVE_ROTOR_COUNT>  (1) 
1

>  <PUBCHEM_PHARMACOPHORE_FEATURES>  (1) 
4
1 1 acceptor
1 2 acceptor
4 3 5 6 7 hydrophobe
6 4 8 9 10 11 12 rings

>  <PUBCHEM_HEAVY_ATOM_COUNT>  (1) 
12

>  <PUBCHEM_ATOM_DEF_STEREO_COUNT>  (1) 
0

>  <PUBCHEM_ATOM_UDEF_STEREO_COUNT>  (1) 
0

>  <PUBCHEM_BOND_DEF_STEREO_COUNT>  (1) 
0

>  <PUBCHEM_BOND_UDEF_STEREO_COUNT>  (1) 
0

>  <PUBCHEM_ISOTOPIC_ATOM_COUNT>  (1) 
0

>  <PUBCHEM_COMPONENT_COUNT>  (1) 
1

>  <PUBCHEM_CACTVS_TAUTO_COUNT>  (1) 
1

>  <PUBCHEM_CONFORMER_ID>  (1) 
00004B0B00000001

>  <PUBCHEM_MMFF94_ENERGY>  (1) 
32.7927

>  <PUBCHEM_FEATURE_SELFOVERLAP>  (1) 
20.297

>  <PUBCHEM_SHAPE_FINGERPRINT>  (1) 
10857977 72 18340757208706401833
11206711 2 18408042926922883109
12382932 28 18339913827527175968
12423570 1 12469515753934259528
12524768 44 18127971914617576847
12716758 59 18193833734952756521
12932764 1 17917711292415335831
14128692 85 18339935903685626349
161256 15 18267590293536100589
16945 1 18410855477550689057
17990270 104 18410292540239518115
20645477 70 18051689142946473647
20653091 64 18114177604923215904
21040471 1 18050567343915142656
22802520 49 17986123911054984662
2334 1 18410575050419781351
23552423 10 18115594738004315370
23559900 14 17911518689295783750
241688 4 18266179430964783064
2748010 2 18340484452576819863
369184 2 18130213848938738971
5084963 1 17975136435523836016

>  <PUBCHEM_SHAPE_MULTIPOLES>  (1) 
235.22
3.98
2
0.88
0.56
0.13
0
-1.06
0.01
0.37
0
-0.67
0.08
0

>  <PUBCHEM_SHAPE_SELFOVERLAP>  (1) 
488.146

>  <PUBCHEM_SHAPE_VOLUME>  (1) 
134.9

>  <PUBCHEM_COORDINATE_TYPE>  (1) 
2
5
10

$$$$
