19212
     RDKit          3D

 33 36  0  0  1  0  0  0  0  0999 V2000
   -0.0073    0.4117    1.4008 O   0  0  0  0  0  0  0  0  0  0  0  0
    5.2559    3.5117   -0.9996 O   0  0  0  0  0  0  0  0  0  0  0  0
    6.7346    1.6978    0.4784 O   0  0  0  0  0  0  0  0  0  0  0  0
    4.7106   -2.4481    1.7629 O   0  0  0  0  0  0  0  0  0  0  0  0
   -5.4104   -1.6352   -1.5525 O   0  0  0  0  0  0  0  0  0  0  0  0
   -8.3216    1.4386    1.0797 O   0  0  0  0  0  0  0  0  0  0  0  0
   -0.4985   -0.8861   -0.6137 C   0  0  0  0  0  0  0  0  0  0  0  0
    0.2612   -0.8451    0.7382 C   0  0  0  0  0  0  0  0  0  0  0  0
   -1.9682   -0.8602   -0.1194 C   0  0  0  0  0  0  0  0  0  0  0  0
    2.3064    0.1793   -0.4249 C   0  0  0  0  0  0  0  0  0  0  0  0
    3.8314   -0.0267   -0.7833 C   0  0  0  0  0  0  0  0  0  0  0  0
    1.7609   -0.8878    0.5371 C   0  0  0  0  0  0  0  0  0  0  0  0
   -0.0971    0.3474   -1.4400 C   0  0  0  0  0  0  0  0  0  0  0  0
   -0.4796   -1.9107    1.5601 C   0  0  0  0  0  0  0  0  0  0  0  0
    1.4187    0.3717   -1.6936 C   0  0  0  0  0  0  0  0  0  0  0  0
   -1.9547   -1.7796    1.1235 C   0  0  0  0  0  0  0  0  0  0  0  0
    4.6313   -0.4096    0.4923 C   0  0  0  0  0  0  0  0  0  0  0  0
   -3.0345   -1.2537   -1.1334 C   0  0  0  0  0  0  0  0  0  0  0  0
   -0.2135   -2.1773   -1.4289 C   0  0  0  0  0  0  0  0  0  0  0  0
    4.4559    1.2636   -1.3883 C   0  0  0  0  0  0  0  0  0  0  0  0
    2.5429   -1.7305    1.2281 C   0  0  0  0  0  0  0  0  0  0  0  0
    4.7706    0.7450    1.5009 C   0  0  0  0  0  0  0  0  0  0  0  0
    4.0246   -1.1574   -1.8304 C   0  0  0  0  0  0  0  0  0  0  0  0
    4.0176   -1.6129    1.1836 C   0  0  0  0  0  0  0  0  0  0  0  0
    4.5957    2.4095   -0.3811 C   0  0  0  0  0  0  0  0  0  0  0  0
    5.3871    1.9861    0.8565 C   0  0  0  0  0  0  0  0  0  0  0  0
   -4.4753   -1.1956   -0.5643 C   0  0  0  0  0  0  0  0  0  0  0  0
   -2.9106   -0.3633   -2.3794 C   0  0  0  0  0  0  0  0  0  0  0  0
   -4.9430    0.1953   -0.1034 C   0  0  0  0  0  0  0  0  0  0  0  0
   -6.3922    0.2260    0.3882 C   0  0  0  0  0  0  0  0  0  0  0  0
   -6.9273    1.6153    0.7920 C   0  0  0  0  0  0  0  0  0  0  0  0
   -6.8131    2.6315   -0.3463 C   0  0  0  0  0  0  0  0  0  0  0  0
   -6.2584    2.1495    2.0603 C   0  0  0  0  0  0  0  0  0  0  0  0
  1  8  1  0
  2 25  1  0
  3 26  1  0
  4 24  2  0
  5 27  1  0
  6 31  1  0
  7  8  1  0
  7  9  1  0
  7 13  1  0
  7 19  1  0
  8 12  1  0
  8 14  1  0
  9 16  1  0
  9 18  1  0
 10 11  1  0
 10 12  1  0
 10 15  1  0
 11 17  1  0
 11 20  1  0
 11 23  1  0
 12 21  2  0
 13 15  1  0
 14 16  1  0
 17 22  1  0
 17 24  1  0
 18 27  1  0
 18 28  1  0
 20 25  1  0
 21 24  1  0
 22 26  1  0
 25 26  1  0
 27 29  1  0
 29 30  1  0
 30 31  1  0
 31 32  1  0
 31 33  1  0
M  END
>  <PUBCHEM_COMPOUND_CID>  (1) 
19212

>  <PUBCHEM_CONFORMER_RMSD>  (1) 
1

>  <PUBCHEM_CONFORMER_DIVERSEORDER>  (1) 
2
1
5
6
4
7
3
8

>  <PUBCHEM_MMFF94_PARTIAL_CHARGES>  (1) 
22
1 -0.68
10 0.14
12 -0.28
17 0.06
2 -0.68
21 -0.14
24 0.49
25 0.28
26 0.28
27 0.28
3 -0.68
31 0.28
4 -0.57
5 -0.68
51 0.15
58 0.4
6 -0.68
66 0.4
67 0.4
68 0.4
77 0.4
8 0.42

>  <PUBCHEM_EFFECTIVE_ROTOR_COUNT>  (1) 
6.8

>  <PUBCHEM_PHARMACOPHORE_FEATURES>  (1) 
17
1 1 acceptor
1 1 donor
1 2 acceptor
1 2 donor
1 28 hydrophobe
1 3 acceptor
1 3 donor
1 4 acceptor
1 5 acceptor
1 5 donor
1 6 acceptor
1 6 donor
3 31 32 33 hydrophobe
5 7 8 9 14 16 rings
6 10 11 12 17 21 24 rings
6 11 17 20 22 25 26 rings
6 7 8 10 12 13 15 rings

>  <PUBCHEM_HEAVY_ATOM_COUNT>  (1) 
33

>  <PUBCHEM_ATOM_DEF_STEREO_COUNT>  (1) 
10

>  <PUBCHEM_ATOM_UDEF_STEREO_COUNT>  (1) 
0

>  <PUBCHEM_BOND_DEF_STEREO_COUNT>  (1) 
0

>  <PUBCHEM_BOND_UDEF_STEREO_COUNT>  (1) 
0

>  <PUBCHEM_ISOTOPIC_ATOM_COUNT>  (1) 
0

>  <PUBCHEM_COMPONENT_COUNT>  (1) 
1

>  <PUBCHEM_CACTVS_TAUTO_COUNT>  (1) 
5

>  <PUBCHEM_CONFORMER_ID>  (1) 
00004B0C00000002

>  <PUBCHEM_MMFF94_ENERGY>  (1) 
118.8102

>  <PUBCHEM_FEATURE_SELFOVERLAP>  (1) 
86.416

>  <PUBCHEM_SHAPE_FINGERPRINT>  (1) 
10 15 15647055992738246599
10076449 9 16661215715743327554
10319926 262 14273448155336207111
10554248 39 17916293962282712527
10693767 8 11455901234522157180
10906281 52 17968948616385551996
11456790 92 18041268882123319360
11475781 23 15769769105406823403
11578080 2 18115595992435121776
11646440 116 17167858677461450796
12035758 1 16515399689967187787
12236239 1 18413382150744736159
12422481 6 17676489398307116149
12788726 201 17847064376143306752
13533116 47 18113894936483939938
13690498 29 16486399045179138575
13782708 43 11314305049202296721
14211702 104 11025793168093889425
14849402 71 18262522614996543061
15081414 286 17530682121564624718
15082195 135 16845299345215079272
15183329 4 18272087206295082317
15188451 53 11674880017986434833
15238133 3 18131625677614032371
15392192 104 16661510509365403259
15475509 35 12324235092339595724
1577012 14 18413386536660232335
15840311 113 18335422331682245261
16994733 274 18130500959319263560
17913733 40 17312819360415254163
18222031 100 11455893559151425975
19958102 18 15123799461483785573
20511986 3 17275379932610995542
21033648 29 18130215060240972464
21130935 74 18113054935375729579
21424621 283 18411983568154694523
21521239 73 11384108640187379509
21781051 124 13984662508342326440
21781055 127 18334860572184572052
21792934 111 16950835926289554029
22122407 14 18269281316650148105
22149856 69 17313112917409079603
22182313 1 16371823224346278406
23081809 10 18342166783135904759
23559900 14 17240482529437649110
23569914 152 12819681452965753073
24771293 8 18188488098613927204
3663271 9 18334856139060365515
3680242 22 17313377967951107812
3918712 181 17846498089655242713
392239 28 16805323336128174239
394071 54 17821723962018233108
4093350 32 18343305851386051334
4340502 62 17675922114288769554
465052 167 13406793328656376126
5104073 3 17603864554452350946
59682541 52 13614244758895684365
6328613 192 18272087193489295225

>  <PUBCHEM_SHAPE_MULTIPOLES>  (1) 
643.91
18.54
2.83
2
24.22
1.47
0.21
14.92
-4.39
-0.95
-0.31
-0.05
-0.35
-2.64

>  <PUBCHEM_SHAPE_SELFOVERLAP>  (1) 
1356.379

>  <PUBCHEM_SHAPE_VOLUME>  (1) 
360.3

>  <PUBCHEM_COORDINATE_TYPE>  (1) 
2
5
10

$$$$
