19215
     RDKit          3D

  9  8  0  0  0  0  0  0  0  0999 V2000
   -2.6771   -0.2134    1.3102 Cl  0  0  0  0  0  0  0  0  0  0  0  0
   -1.5606   -1.2965   -1.1151 Cl  0  0  0  0  0  0  0  0  0  0  0  0
   -1.6002    1.5814   -0.6848 Cl  0  0  0  0  0  0  0  0  0  0  0  0
    1.6120    1.5858   -0.6766 Cl  0  0  0  0  0  0  0  0  0  0  0  0
    2.7523   -0.2956    1.2287 Cl  0  0  0  0  0  0  0  0  0  0  0  0
    1.4458   -1.2614   -1.1508 Cl  0  0  0  0  0  0  0  0  0  0  0  0
    0.0045   -0.1179    0.8547 C   0  0  0  0  0  0  0  0  0  0  0  0
   -1.3449    0.0024    0.1030 C   0  0  0  0  0  0  0  0  0  0  0  0
    1.3681    0.0152    0.1308 C   0  0  0  0  0  0  0  0  0  0  0  0
  1  8  1  0
  2  8  1  0
  3  8  1  0
  4  9  1  0
  5  9  1  0
  6  9  1  0
  7  8  1  0
  7  9  1  0
M  END
>  <PUBCHEM_COMPOUND_CID>  (1) 
19215

>  <PUBCHEM_CONFORMER_RMSD>  (1) 
0.4

>  <PUBCHEM_CONFORMER_DIVERSEORDER>  (1) 
1

>  <PUBCHEM_MMFF94_PARTIAL_CHARGES>  (1) 
8
1 -0.29
2 -0.29
3 -0.29
4 -0.29
5 -0.29
6 -0.29
8 0.87
9 0.87

>  <PUBCHEM_EFFECTIVE_ROTOR_COUNT>  (1) 
2

>  <PUBCHEM_PHARMACOPHORE_FEATURES>  (1) 
0

>  <PUBCHEM_HEAVY_ATOM_COUNT>  (1) 
9

>  <PUBCHEM_ATOM_DEF_STEREO_COUNT>  (1) 
0

>  <PUBCHEM_ATOM_UDEF_STEREO_COUNT>  (1) 
0

>  <PUBCHEM_BOND_DEF_STEREO_COUNT>  (1) 
0

>  <PUBCHEM_BOND_UDEF_STEREO_COUNT>  (1) 
0

>  <PUBCHEM_ISOTOPIC_ATOM_COUNT>  (1) 
0

>  <PUBCHEM_COMPONENT_COUNT>  (1) 
1

>  <PUBCHEM_CACTVS_TAUTO_COUNT>  (1) 
1

>  <PUBCHEM_CONFORMER_ID>  (1) 
00004B0F00000001

>  <PUBCHEM_MMFF94_ENERGY>  (1) 
18.8645

>  <PUBCHEM_FEATURE_SELFOVERLAP>  (1) 
0

>  <PUBCHEM_SHAPE_FINGERPRINT>  (1) 
12423570 1 9259530571950876123
12932764 1 18341323449053132394
14817 1 17607809400288021925
15310529 11 18187376414779249718
15775835 57 18197501933503326192
15852999 172 17629450082672261895
16945 1 18411419509603825518
20082192 1 18343302565229232140
20645464 45 16128660768490242115
20653091 64 16877664560989827872
20711978 78 18041570220695791754
21040471 1 17489601055609944539
23235685 24 17775011188805068800
23235687 12 18341614844955923059
23552423 10 18201728361468532855
24536 1 18272092673218510208
29004967 10 18341337695185391978
3248919 1 18343029903947529779
5084963 1 18198605791526917682

>  <PUBCHEM_SHAPE_MULTIPOLES>  (1) 
196.43
3.82
1.61
1.49
0.13
0.4
0.15
-0.15
1.23
-0.02
-0.8
-0.05
-0.3
-0.05

>  <PUBCHEM_SHAPE_SELFOVERLAP>  (1) 
314.777

>  <PUBCHEM_SHAPE_VOLUME>  (1) 
133.8

>  <PUBCHEM_COORDINATE_TYPE>  (1) 
2
5
10

$$$$
