19223
     RDKit          3D

 13 12  0  0  1  0  0  0  0  0999 V2000
   -3.1167    1.0001    0.5263 O   0  0  0  0  0  0  0  0  0  0  0  0
    5.5941    0.3476   -0.1909 O   0  0  0  0  0  0  0  0  0  0  0  0
   -1.6848   -0.5392   -0.6284 C   0  0  0  0  0  0  0  0  0  0  0  0
   -3.0505   -0.3563    0.0649 C   0  0  0  0  0  0  0  0  0  0  0  0
   -0.4584   -0.2597    0.2470 C   0  0  0  0  0  0  0  0  0  0  0  0
    0.8371   -0.4022   -0.5616 C   0  0  0  0  0  0  0  0  0  0  0  0
    2.1170   -0.2053    0.2786 C   0  0  0  0  0  0  0  0  0  0  0  0
   -4.2257   -0.5786   -0.8894 C   0  0  0  0  0  0  0  0  0  0  0  0
   -3.1964   -1.2442    1.3013 C   0  0  0  0  0  0  0  0  0  0  0  0
    3.3496   -0.5007   -0.5935 C   0  0  0  0  0  0  0  0  0  0  0  0
    2.1980    1.2111    0.8605 C   0  0  0  0  0  0  0  0  0  0  0  0
    4.6670   -0.3832    0.1406 C   0  0  0  0  0  0  0  0  0  0  0  0
   -3.0303    1.9104   -0.5555 C   0  0  0  0  0  0  0  0  0  0  0  0
  1  4  1  0
  1 13  1  0
  2 12  2  0
  3  4  1  0
  3  5  1  0
  4  8  1  0
  4  9  1  0
  5  6  1  0
  6  7  1  0
  7 10  1  0
  7 11  1  0
 10 12  1  0
M  END
>  <PUBCHEM_COMPOUND_CID>  (1) 
19223

>  <PUBCHEM_CONFORMER_RMSD>  (1) 
0.8

>  <PUBCHEM_CONFORMER_DIVERSEORDER>  (1) 
2
81
31
72
53
45
74
82
27
83
57
66
61
1
44
68
7
33
34
84
47
5
77
8
51
69
79
42
63
4
62
67
48
21
24
71
18
52
26
88
87
70
39
65
46
36
85
59
23
10
75
56
14
11
60
78
28
55
41
9
58
76
29
12
49
50
19
86
43
17
80
3
22
37
25
54
13
73
40
6
15
35
38
20
30
64
32
16

>  <PUBCHEM_MMFF94_PARTIAL_CHARGES>  (1) 
7
1 -0.56
10 0.06
12 0.45
13 0.28
2 -0.57
32 0.06
4 0.28

>  <PUBCHEM_EFFECTIVE_ROTOR_COUNT>  (1) 
7

>  <PUBCHEM_PHARMACOPHORE_FEATURES>  (1) 
5
1 1 acceptor
1 11 hydrophobe
1 2 acceptor
3 4 8 9 hydrophobe
5 3 5 6 7 10 hydrophobe

>  <PUBCHEM_HEAVY_ATOM_COUNT>  (1) 
13

>  <PUBCHEM_ATOM_DEF_STEREO_COUNT>  (1) 
0

>  <PUBCHEM_ATOM_UDEF_STEREO_COUNT>  (1) 
1

>  <PUBCHEM_BOND_DEF_STEREO_COUNT>  (1) 
0

>  <PUBCHEM_BOND_UDEF_STEREO_COUNT>  (1) 
0

>  <PUBCHEM_ISOTOPIC_ATOM_COUNT>  (1) 
0

>  <PUBCHEM_COMPONENT_COUNT>  (1) 
1

>  <PUBCHEM_CACTVS_TAUTO_COUNT>  (1) 
2

>  <PUBCHEM_CONFORMER_ID>  (1) 
00004B1700000002

>  <PUBCHEM_MMFF94_ENERGY>  (1) 
32.4077

>  <PUBCHEM_FEATURE_SELFOVERLAP>  (1) 
25.409

>  <PUBCHEM_SHAPE_FINGERPRINT>  (1) 
10366900 7 18335414686244826139
10680689 15 18343586252177624726
10912923 1 17240484715264240120
124424 183 18412823573093908776
12500047 106 18186798058910188395
12916754 54 17703503415290498279
12932764 1 18272930526964879759
13533116 47 18114729440066076779
14123238 8 17917711318543647382
17802600 8 18272645766338200649
17834072 33 17560795589308206972
17834076 25 11963386345227998695
18186145 218 17346597486832940674
187816 3 18113890581845810431
190213 19 17603307055007424454
1986462 14 18272369758912620445
200 152 16988554706892474087
20279233 1 18341899592745608463
20645477 56 18341613664541796461
20645477 70 17632020732896081814
20671657 1 17273127127780549824
20828058 21 18411139126013051222
22485316 2 16805599270286122458
2306618 200 17704076175139063249
23402539 116 18341607109714548548
23557571 272 18202566168318129277
58051976 100 17417522630880528294

>  <PUBCHEM_SHAPE_MULTIPOLES>  (1) 
255.8
10.41
1.32
1
9.18
0.59
0.12
-0.11
-0.63
-1.23
0.11
-0.55
-0.12
0.58

>  <PUBCHEM_SHAPE_SELFOVERLAP>  (1) 
473.593

>  <PUBCHEM_SHAPE_VOLUME>  (1) 
162.2

>  <PUBCHEM_COORDINATE_TYPE>  (1) 
2
5
10

$$$$
