19229
     RDKit          3D

 17 17  0  0  0  0  0  0  0  0999 V2000
   -0.6849    1.0268   -0.7929 O   0  0  0  0  0  0  0  0  0  0  0  0
    5.5186    0.8328   -0.2544 O   0  0  0  0  0  0  0  0  0  0  0  0
   -3.2102    0.2781   -0.1317 N   0  0  0  0  0  0  0  0  0  0  0  0
    0.2603   -0.8621    0.2292 N   0  0  0  0  0  0  0  0  0  0  0  0
   -2.1801   -0.7511   -0.2275 C   0  0  0  0  0  0  0  0  0  0  0  0
   -3.0191    1.0862    1.0735 C   0  0  0  0  0  0  0  0  0  0  0  0
   -4.5430   -0.3265   -0.1326 C   0  0  0  0  0  0  0  0  0  0  0  0
   -0.8080   -0.0919   -0.2870 C   0  0  0  0  0  0  0  0  0  0  0  0
   -4.0785    2.1623    1.1936 C   0  0  0  0  0  0  0  0  0  0  0  0
   -4.7926   -1.1174   -1.4001 C   0  0  0  0  0  0  0  0  0  0  0  0
    1.6345   -0.4197    0.1026 C   0  0  0  0  0  0  0  0  0  0  0  0
    0.0514   -2.1924    0.8218 C   0  0  0  0  0  0  0  0  0  0  0  0
    1.9666    0.3450   -0.9827 C   0  0  0  0  0  0  0  0  0  0  0  0
    2.5224   -0.7915    1.0755 C   0  0  0  0  0  0  0  0  0  0  0  0
    3.2893    0.7710   -1.1045 C   0  0  0  0  0  0  0  0  0  0  0  0
    3.8450   -0.3654    0.9537 C   0  0  0  0  0  0  0  0  0  0  0  0
    4.2285    0.4158   -0.1364 C   0  0  0  0  0  0  0  0  0  0  0  0
  1  8  2  0
  2 17  1  0
  3  5  1  0
  3  6  1  0
  3  7  1  0
  4  8  1  0
  4 11  1  0
  4 12  1  0
  5  8  1  0
  6  9  1  0
  7 10  1  0
 11 13  2  0
 11 14  1  0
 13 15  1  0
 14 16  2  0
 15 17  2  0
 16 17  1  0
M  END
>  <PUBCHEM_COMPOUND_CID>  (1) 
19229

>  <PUBCHEM_CONFORMER_RMSD>  (1) 
0.8

>  <PUBCHEM_CONFORMER_DIVERSEORDER>  (1) 
1
8
9
22
20
11
14
10
17
21
18
19
4
5
2
3
15
7
13
16
12
6

>  <PUBCHEM_MMFF94_PARTIAL_CHARGES>  (1) 
20
1 -0.57
11 0.12
12 0.3
13 -0.15
14 -0.15
15 -0.15
16 -0.15
17 0.08
2 -0.53
3 -0.81
33 0.15
34 0.15
35 0.15
36 0.15
37 0.45
4 -0.48
5 0.33
6 0.27
7 0.27
8 0.57

>  <PUBCHEM_EFFECTIVE_ROTOR_COUNT>  (1) 
6

>  <PUBCHEM_PHARMACOPHORE_FEATURES>  (1) 
4
1 1 acceptor
1 2 donor
1 3 cation
6 11 13 14 15 16 17 rings

>  <PUBCHEM_HEAVY_ATOM_COUNT>  (1) 
17

>  <PUBCHEM_ATOM_DEF_STEREO_COUNT>  (1) 
0

>  <PUBCHEM_ATOM_UDEF_STEREO_COUNT>  (1) 
0

>  <PUBCHEM_BOND_DEF_STEREO_COUNT>  (1) 
0

>  <PUBCHEM_BOND_UDEF_STEREO_COUNT>  (1) 
0

>  <PUBCHEM_ISOTOPIC_ATOM_COUNT>  (1) 
0

>  <PUBCHEM_COMPONENT_COUNT>  (1) 
1

>  <PUBCHEM_CACTVS_TAUTO_COUNT>  (1) 
2

>  <PUBCHEM_CONFORMER_ID>  (1) 
00004B1D00000001

>  <PUBCHEM_MMFF94_ENERGY>  (1) 
58.3869

>  <PUBCHEM_FEATURE_SELFOVERLAP>  (1) 
20.297

>  <PUBCHEM_SHAPE_FINGERPRINT>  (1) 
10465860 228 18265621974343299898
10498660 4 17703228404118593681
10912923 1 18410007723889079698
11287383 113 16558746862240226702
11471102 20 17603298263451988646
11796584 16 12829478230354796672
12186901 62 17060619980226470973
12236239 1 18409444782852718335
12346645 44 18411421665914869427
124424 183 15430034366352311783
12507557 5 17458066001516307229
12916748 109 18271813440183105643
13583140 156 15502375646990284065
13675066 3 14996288015425649715
13760787 5 17822014194132456620
14252887 29 16660646220221979290
15209294 21 18411704244497981409
15309172 13 17967536769871467547
15375358 24 15791726391225991211
18186145 218 18260835856162360022
19026448 4 16702303434000357405
19141452 34 10809337832939697049
200 152 18040707078746434015
20279233 1 15574716885090001251
20300324 65 18131070450465099905
204376 136 17894353293122533362
20645477 70 17023452071512251082
21524375 3 18334012808777239970
22094290 60 17632858633701792519
22485316 2 11674876693233484672
2297311 6 17346885584923320501
23402539 116 18273213088810935644
23557571 272 17132120147491415641
26918003 58 14996280327371055188
2916195 48 17988636428648357792
3268164 11 17846207852828585933
4990 188 17489593346375672510
5281201 14 16415483757074082264
633830 44 18335995163817467919
7495541 125 15984818289478909638

>  <PUBCHEM_SHAPE_MULTIPOLES>  (1) 
328.15
10.7
1.62
1.23
0.03
0.09
0.01
2.45
0.94
1.58
-0.49
0.18
0.02
-1.81

>  <PUBCHEM_SHAPE_SELFOVERLAP>  (1) 
664.299

>  <PUBCHEM_SHAPE_VOLUME>  (1) 
194.2

>  <PUBCHEM_COORDINATE_TYPE>  (1) 
2
5
10

$$$$
