19221
     RDKit          3D

 20 21  0  0  0  0  0  0  0  0999 V2000
    1.3941   -1.3620   -0.0063 O   0  0  0  0  0  0  0  0  0  0  0  0
   -1.4095   -1.3583    0.0037 O   0  0  0  0  0  0  0  0  0  0  0  0
    3.1187   -2.0075    1.3751 O   0  0  0  0  0  0  0  0  0  0  0  0
   -3.1439   -1.9756   -1.3783 O   0  0  0  0  0  0  0  0  0  0  0  0
    3.2145    1.9997   -1.2574 N   0  0  0  0  0  0  0  0  0  0  0  0
   -3.1930    1.9921    1.2632 N   0  0  0  0  0  0  0  0  0  0  0  0
    0.6487   -2.5268    0.3644 C   0  0  0  0  0  0  0  0  0  0  0  0
   -0.6782   -2.5196   -0.3703 C   0  0  0  0  0  0  0  0  0  0  0  0
    3.2797    0.0094    0.1135 C   0  0  0  0  0  0  0  0  0  0  0  0
   -3.2887    0.0362   -0.1070 C   0  0  0  0  0  0  0  0  0  0  0  0
    2.6272   -1.2060    0.5675 C   0  0  0  0  0  0  0  0  0  0  0  0
   -2.6316   -1.2094   -0.5772 C   0  0  0  0  0  0  0  0  0  0  0  0
    4.5434    0.3601    0.5753 C   0  0  0  0  0  0  0  0  0  0  0  0
   -4.5351    0.3722   -0.5775 C   0  0  0  0  0  0  0  0  0  0  0  0
    2.6631    0.8556   -0.7941 C   0  0  0  0  0  0  0  0  0  0  0  0
   -2.6510    0.8458    0.7943 C   0  0  0  0  0  0  0  0  0  0  0  0
    5.1434    1.5297    0.1219 C   0  0  0  0  0  0  0  0  0  0  0  0
   -5.1257    1.5444   -0.1183 C   0  0  0  0  0  0  0  0  0  0  0  0
    4.4436    2.3077   -0.7862 C   0  0  0  0  0  0  0  0  0  0  0  0
   -4.4195    2.3123    0.7934 C   0  0  0  0  0  0  0  0  0  0  0  0
  1  7  1  0
  1 11  1  0
  2  8  1  0
  2 12  1  0
  3 11  2  0
  4 12  2  0
  5 15  2  0
  5 19  1  0
  6 16  2  0
  6 20  1  0
  7  8  1  0
  9 11  1  0
  9 13  2  0
  9 15  1  0
 10 12  1  0
 10 14  2  0
 10 16  1  0
 13 17  1  0
 14 18  1  0
 17 19  2  0
 18 20  2  0
M  END
>  <PUBCHEM_COMPOUND_CID>  (1) 
19221

>  <PUBCHEM_CONFORMER_RMSD>  (1) 
0.8

>  <PUBCHEM_CONFORMER_DIVERSEORDER>  (1) 
1
211
15
35
105
13
18
227
3
8
237
239
93
2
165
14
20
75
64
71
219
12
98
146
83
114
19
282
58
257
57
181
276
41
96
6
31
52
201
59
82
176
73
250
164
154
253
36
5
277
102
233
255
148
78
142
236
145
28
258
151
40
245
7
193
107
273
80
244
27
60
66
87
88
131
204
190
213
216
274
119
212
29
56
266
205
117
180
81
34
4
208
248
160
144
228
125
246
55
128
106
129
177
242
44
76
223
281
256
33
94
267
270
86
51
38
238
45
123
143
230
74
120
47
252
203
49
199
104
91
121
222
30
232
85
240
139
220
61
251
217
157
39
198
92
268
136
265
235
215
95
178
68
249
229
271
116
231
32
46
149
16
171
72
79
99
162
269
70
65
186
115
194
122
254
192
159
48
141
54
259
243
280
109
209
197
42
53
260
77
111
62
172
24
23
133
137
210
63
170
9
234
224
169
101
100
262
261
138
279
182
225
168
97
158
126
124
37
275
185
67
10
140
156
21
134
202
153
130
218
206
214
247
226
187
174
184
11
90
196
147
221
112
263
166
200
188
118
22
191
207
272
189
84
43
132
152
173
264
195
161
183
175
89
26
50
103
135
17
163
278
127
69
167
150
108
241
179
155
25
110
113

>  <PUBCHEM_MMFF94_PARTIAL_CHARGES>  (1) 
28
1 -0.43
10 0.09
11 0.63
12 0.63
13 -0.15
14 -0.15
15 0.16
16 0.16
17 -0.15
18 -0.15
19 0.16
2 -0.43
20 0.16
25 0.15
26 0.15
27 0.15
28 0.15
29 0.15
3 -0.57
30 0.15
31 0.15
32 0.15
4 -0.57
5 -0.62
6 -0.62
7 0.28
8 0.28
9 0.09

>  <PUBCHEM_EFFECTIVE_ROTOR_COUNT>  (1) 
7

>  <PUBCHEM_PHARMACOPHORE_FEATURES>  (1) 
6
1 3 acceptor
1 4 acceptor
1 5 acceptor
1 6 acceptor
6 5 9 13 15 17 19 rings
6 6 10 14 16 18 20 rings

>  <PUBCHEM_HEAVY_ATOM_COUNT>  (1) 
20

>  <PUBCHEM_ATOM_DEF_STEREO_COUNT>  (1) 
0

>  <PUBCHEM_ATOM_UDEF_STEREO_COUNT>  (1) 
0

>  <PUBCHEM_BOND_DEF_STEREO_COUNT>  (1) 
0

>  <PUBCHEM_BOND_UDEF_STEREO_COUNT>  (1) 
0

>  <PUBCHEM_ISOTOPIC_ATOM_COUNT>  (1) 
0

>  <PUBCHEM_COMPONENT_COUNT>  (1) 
1

>  <PUBCHEM_CACTVS_TAUTO_COUNT>  (1) 
1

>  <PUBCHEM_CONFORMER_ID>  (1) 
00004B1500000001

>  <PUBCHEM_MMFF94_ENERGY>  (1) 
55.2689

>  <PUBCHEM_FEATURE_SELFOVERLAP>  (1) 
30.449

>  <PUBCHEM_SHAPE_FINGERPRINT>  (1) 
10382601 240 17821722832710879162
10498660 4 18131915970121405616
10670039 82 18412272726770167940
10906281 52 17916871193872778285
11640471 11 18410578383198293542
12107183 9 18335690599819605114
12633257 1 17458615736013517098
12788726 201 18123456431085795391
13177829 73 18412542128888831472
13828863 39 15071189071356045436
1420 369 8934998165903876436
14251764 75 18341627987889055137
14739800 52 18056456556628514960
14767858 380 18200013132936904711
15163728 17 18060150824912938327
15342168 16 18408603635009078695
15475509 8 18267310833812136038
17810953 82 18336831866375477933
17834072 32 18410858745873192763
20511986 3 18338781373421611652
20715895 44 17761768469414506833
21503847 285 18335423413861237298
21864079 5 18410860957686670947
22182937 141 18188215432335402938
22849341 161 17971463002073960274
235170 7 16200158732769156532
23559900 14 17630890395634063399
245318 6 17968957399082437516
312425 83 17773890855613770516
341906 21 18131345332450895920
3472631 163 18343865498483105485
38570 142 17968961780739830836
474 4 18261391126656389779
5048184 11 18411142437053197033
5104073 3 17968085491331363402
6034566 193 17679039319884667572
6299153 45 18338510851555479226
6328613 192 18189341333329039588
633830 44 18410570660979458230
7064713 232 18410568500874288292
7808743 9 18342174504969813490
8199 26 18411984667202208747
9981440 41 18409729594750642795

>  <PUBCHEM_SHAPE_MULTIPOLES>  (1) 
378.15
12.34
3.15
1.09
0.15
0.63
0
-9.21
0.02
0
-0.01
-0.01
-0.1
-2.44

>  <PUBCHEM_SHAPE_SELFOVERLAP>  (1) 
804.867

>  <PUBCHEM_SHAPE_VOLUME>  (1) 
208.4

>  <PUBCHEM_COORDINATE_TYPE>  (1) 
2
5
10

$$$$
