19226
     RDKit          3D

 18 18  0  0  0  0  0  0  0  0999 V2000
    4.0798    0.0931   -0.3495 S   0  0  0  0  0  0  0  0  0  0  0  0
   -4.3508    0.0473   -1.2452 O   0  0  0  0  0  0  0  0  0  0  0  0
    4.9005   -0.3907    0.7516 O   0  0  0  0  0  0  0  0  0  0  0  0
    4.3322   -0.3834   -1.7026 O   0  0  0  0  0  0  0  0  0  0  0  0
   -2.5964   -0.1049    0.2721 N   0  0  0  0  0  0  0  0  0  0  0  0
   -2.4160    1.3333    0.4523 C   0  0  0  0  0  0  0  0  0  0  0  0
   -1.6912   -0.9483    1.0422 C   0  0  0  0  0  0  0  0  0  0  0  0
   -0.2496   -0.6879    0.6942 C   0  0  0  0  0  0  0  0  0  0  0  0
   -3.6788    1.9567    1.0325 C   0  0  0  0  0  0  0  0  0  0  0  0
   -2.0300    1.9931   -0.8657 C   0  0  0  0  0  0  0  0  0  0  0  0
   -3.5678   -0.6345   -0.5783 C   0  0  0  0  0  0  0  0  0  0  0  0
    0.1225   -0.5757   -0.6381 C   0  0  0  0  0  0  0  0  0  0  0  0
    0.6868   -0.5634    1.7110 C   0  0  0  0  0  0  0  0  0  0  0  0
    2.4079   -0.2070    0.0534 C   0  0  0  0  0  0  0  0  0  0  0  0
    1.4580   -0.3340   -0.9600 C   0  0  0  0  0  0  0  0  0  0  0  0
    2.0223   -0.3217    1.3890 C   0  0  0  0  0  0  0  0  0  0  0  0
   -3.6418   -2.1382   -0.6673 C   0  0  0  0  0  0  0  0  0  0  0  0
    4.2124    1.8664   -0.3918 C   0  0  0  0  0  0  0  0  0  0  0  0
  1  3  2  0
  1  4  2  0
  1 14  1  0
  1 18  1  0
  2 11  2  0
  5  6  1  0
  5  7  1  0
  5 11  1  0
  6  9  1  0
  6 10  1  0
  7  8  1  0
  8 12  2  0
  8 13  1  0
 11 17  1  0
 12 15  1  0
 13 16  2  0
 14 15  2  0
 14 16  1  0
M  END
>  <PUBCHEM_COMPOUND_CID>  (1) 
19226

>  <PUBCHEM_CONFORMER_RMSD>  (1) 
0.6

>  <PUBCHEM_CONFORMER_DIVERSEORDER>  (1) 
3
14
54
11
26
48
15
32
28
41
37
50
25
29
49
39
27
40
46
18
30
38
13
43
47
42
56
20
1
45
16
9
2
51
4
53
17
44
8
5
24
31
22
12
10
55
23
35
7
21
19
6
36
34
33
52

>  <PUBCHEM_MMFF94_PARTIAL_CHARGES>  (1) 
20
1 1.2
11 0.57
12 -0.15
13 -0.15
14 -0.01
15 -0.15
16 -0.15
17 0.06
18 0.11
2 -0.57
28 0.15
29 0.15
3 -0.65
30 0.15
31 0.15
4 -0.65
5 -0.66
6 0.3
7 0.44
8 -0.14

>  <PUBCHEM_EFFECTIVE_ROTOR_COUNT>  (1) 
5

>  <PUBCHEM_PHARMACOPHORE_FEATURES>  (1) 
5
1 2 acceptor
1 3 acceptor
1 4 acceptor
3 6 9 10 hydrophobe
6 8 12 13 14 15 16 rings

>  <PUBCHEM_HEAVY_ATOM_COUNT>  (1) 
18

>  <PUBCHEM_ATOM_DEF_STEREO_COUNT>  (1) 
0

>  <PUBCHEM_ATOM_UDEF_STEREO_COUNT>  (1) 
0

>  <PUBCHEM_BOND_DEF_STEREO_COUNT>  (1) 
0

>  <PUBCHEM_BOND_UDEF_STEREO_COUNT>  (1) 
0

>  <PUBCHEM_ISOTOPIC_ATOM_COUNT>  (1) 
0

>  <PUBCHEM_COMPONENT_COUNT>  (1) 
1

>  <PUBCHEM_CACTVS_TAUTO_COUNT>  (1) 
1

>  <PUBCHEM_CONFORMER_ID>  (1) 
00004B1A00000003

>  <PUBCHEM_MMFF94_ENERGY>  (1) 
39.9714

>  <PUBCHEM_FEATURE_SELFOVERLAP>  (1) 
25.389

>  <PUBCHEM_SHAPE_FINGERPRINT>  (1) 
10498660 4 18261384521086521781
11089746 13 17676756643962066596
11132069 177 16588303925576183250
11543360 7 18272375312490093262
12236239 1 17967527974300671527
12346177 29 8574712373732005217
12670546 177 17988365970062021620
12670546 56 18187355528843815480
12892183 10 11530771443785934644
13296908 3 15697995223728174291
13675066 3 14418138426342146866
14123260 362 17749116581737506367
14251764 38 18338237179997034592
15309172 13 16081375141614498770
15375358 24 13767916918961400027
15775835 57 18114749222300157577
1813 80 14045751455843702784
18186145 218 17604159176861705694
19026448 5 18409165498261985954
192875 21 17749110023275291445
19433438 38 17632577132443770047
19489759 90 18412821378840575802
200 152 17676199195672100775
20300324 65 18410854395313856523
204376 136 16443072702769497146
20645477 70 15698009522439109598
20871999 31 18059858380510281211
22094290 60 17988925574109240763
23402539 116 18408879672557374295
23557571 272 17989484117389475265
23559900 14 17773883004524744758
296302 2 15719388421749334479
3268164 11 18413100663193951045
3472631 163 18337953381637890669
351380 180 18333726944707787284
4028521 119 18040992955764079085
465052 167 13110101206366541381
474 4 17749956695132773148
4921388 177 18202006521226109551
5281201 14 17989212542602609844
6049 1 17203317940558029883
633830 44 17968675842875406582

>  <PUBCHEM_SHAPE_MULTIPOLES>  (1) 
351.69
9.47
1.8
1.45
4.78
0.74
0.15
1.19
-2.25
-1.73
-0.11
0.19
-0.14
-0.78

>  <PUBCHEM_SHAPE_SELFOVERLAP>  (1) 
703.068

>  <PUBCHEM_SHAPE_VOLUME>  (1) 
209.7

>  <PUBCHEM_COORDINATE_TYPE>  (1) 
2
5
10

$$$$
