19224
     RDKit          3D

 16 16  0  0  0  0  0  0  0  0999 V2000
   -3.2836    1.2312   -1.6494 Cl  0  0  0  0  0  0  0  0  0  0  0  0
   -4.1532    0.9265    1.1169 Cl  0  0  0  0  0  0  0  0  0  0  0  0
   -1.4196   -2.2888   -1.4792 O   0  0  0  0  0  0  0  0  0  0  0  0
   -1.3283    1.9269    0.6346 O   0  0  0  0  0  0  0  0  0  0  0  0
    4.7740    0.6557   -0.3383 O   0  0  0  0  0  0  0  0  0  0  0  0
   -0.6260   -0.3061    0.4810 N   0  0  0  0  0  0  0  0  0  0  0  0
   -1.1271   -1.6734    0.8217 C   0  0  0  0  0  0  0  0  0  0  0  0
    0.7324   -0.0637    0.2747 C   0  0  0  0  0  0  0  0  0  0  0  0
   -0.7902   -2.6777   -0.2652 C   0  0  0  0  0  0  0  0  0  0  0  0
   -1.5975    0.7499    0.3737 C   0  0  0  0  0  0  0  0  0  0  0  0
    1.1367    0.9440   -0.6009 C   0  0  0  0  0  0  0  0  0  0  0  0
    1.6864   -0.8298    0.9444 C   0  0  0  0  0  0  0  0  0  0  0  0
    2.4949    1.1855   -0.8069 C   0  0  0  0  0  0  0  0  0  0  0  0
    3.0447   -0.5884    0.7384 C   0  0  0  0  0  0  0  0  0  0  0  0
    3.4489    0.4192   -0.1373 C   0  0  0  0  0  0  0  0  0  0  0  0
   -2.9924    0.3889   -0.1080 C   0  0  0  0  0  0  0  0  0  0  0  0
  1 16  1  0
  2 16  1  0
  3  9  1  0
  4 10  2  0
  5 15  1  0
  6  7  1  0
  6  8  1  0
  6 10  1  0
  7  9  1  0
  8 11  2  0
  8 12  1  0
 10 16  1  0
 11 13  1  0
 12 14  2  0
 13 15  2  0
 14 15  1  0
M  END
>  <PUBCHEM_COMPOUND_CID>  (1) 
19224

>  <PUBCHEM_CONFORMER_RMSD>  (1) 
0.6

>  <PUBCHEM_CONFORMER_DIVERSEORDER>  (1) 
1
56
29
22
36
37
64
23
14
3
34
6
7
51
27
35
30
59
52
63
11
16
20
62
46
28
39
44
8
43
57
15
55
25
17
47
49
21
54
10
18
4
61
31
19
40
33
53
9
32
13
5
2
50
48
60
42
65
24
58
26
45
12
38
41

>  <PUBCHEM_MMFF94_PARTIAL_CHARGES>  (1) 
22
1 -0.29
10 0.57
11 -0.15
12 -0.15
13 -0.15
14 -0.15
15 0.08
16 0.64
2 -0.29
21 0.15
22 0.15
23 0.15
24 0.15
26 0.4
27 0.45
3 -0.68
4 -0.57
5 -0.53
6 -0.48
7 0.3
8 0.12
9 0.28

>  <PUBCHEM_EFFECTIVE_ROTOR_COUNT>  (1) 
5

>  <PUBCHEM_PHARMACOPHORE_FEATURES>  (1) 
5
1 3 acceptor
1 3 donor
1 4 acceptor
1 5 donor
6 8 11 12 13 14 15 rings

>  <PUBCHEM_HEAVY_ATOM_COUNT>  (1) 
16

>  <PUBCHEM_ATOM_DEF_STEREO_COUNT>  (1) 
0

>  <PUBCHEM_ATOM_UDEF_STEREO_COUNT>  (1) 
0

>  <PUBCHEM_BOND_DEF_STEREO_COUNT>  (1) 
0

>  <PUBCHEM_BOND_UDEF_STEREO_COUNT>  (1) 
0

>  <PUBCHEM_ISOTOPIC_ATOM_COUNT>  (1) 
0

>  <PUBCHEM_COMPONENT_COUNT>  (1) 
1

>  <PUBCHEM_CACTVS_TAUTO_COUNT>  (1) 
2

>  <PUBCHEM_CONFORMER_ID>  (1) 
00004B1800000001

>  <PUBCHEM_MMFF94_ENERGY>  (1) 
53.991

>  <PUBCHEM_FEATURE_SELFOVERLAP>  (1) 
25.372

>  <PUBCHEM_SHAPE_FINGERPRINT>  (1) 
12138202 97 18343017808992784542
12202030 40 16557091019462102502
12500047 106 18201718479186367970
13538477 17 18408878568618631114
14897335 6 18333447651505586008
14993402 34 18408600336189319524
15309172 13 18410297973737164121
15669948 3 18340485664021347898
15775835 57 18187368726671881701
15852999 172 17775293746140243518
15906896 17 18339929328381307651
16752209 62 18269822272118335175
16945 1 18201427065206837760
18186145 218 18201711851788333257
19868273 293 18335693961966113966
20645476 183 18187079572483699299
20645477 56 18410862092016823744
20871999 31 18199744906905835447
21524375 3 18335144172108901329
23402539 116 17988641874123634532
23402655 69 18260823765629176245
23419403 2 16340581868331670883
23557571 272 17844533416751778440
23559900 14 18202282529231646552
2748010 2 17685481058090591714
3250762 1 17556001830085224385
34934 24 18113893866989389488
4175511 318 18333450958377209509
633830 44 18128261090665925525
69090 78 18410012147642058347
7364860 26 17696759852742276715
7832392 63 18335140938146441176
81228 2 17977654639527419107
81539 233 18263362482644165827
90525 40 18410859888414011062

>  <PUBCHEM_SHAPE_MULTIPOLES>  (1) 
310.42
6.92
2.17
1.25
2.09
1.44
0.29
-3.27
-0.12
-0.9
0.56
-0.98
0.04
-0.54

>  <PUBCHEM_SHAPE_SELFOVERLAP>  (1) 
616.765

>  <PUBCHEM_SHAPE_VOLUME>  (1) 
185.6

>  <PUBCHEM_COORDINATE_TYPE>  (1) 
2
5
10

$$$$
