19239
     RDKit          3D

  7  6  0  0  0  0  0  0  0  0999 V2000
    0.4340    1.2448    0.7516 O   0  0  0  0  0  0  0  0  0  0  0  0
    1.3406   -0.5420   -0.4205 N   0  0  0  0  0  0  0  0  0  0  0  0
    2.6389   -0.1926   -0.1105 N   0  0  0  0  0  0  0  0  0  0  0  0
   -1.0655   -0.2914   -0.3740 C   0  0  0  0  0  0  0  0  0  0  0  0
   -2.0676    0.8472   -0.5488 C   0  0  0  0  0  0  0  0  0  0  0  0
   -1.5816   -1.3049    0.6455 C   0  0  0  0  0  0  0  0  0  0  0  0
    0.3012    0.2390    0.0566 C   0  0  0  0  0  0  0  0  0  0  0  0
  1  7  2  0
  2  3  1  0
  2  7  1  0
  4  5  1  0
  4  6  1  0
  4  7  1  0
M  END
>  <PUBCHEM_COMPOUND_CID>  (1) 
19239

>  <PUBCHEM_CONFORMER_RMSD>  (1) 
0.4

>  <PUBCHEM_CONFORMER_DIVERSEORDER>  (1) 
1
4
2
3
5

>  <PUBCHEM_MMFF94_PARTIAL_CHARGES>  (1) 
8
1 -0.57
15 0.37
16 0.36
17 0.36
2 -0.42
3 -0.73
4 0.06
7 0.57

>  <PUBCHEM_EFFECTIVE_ROTOR_COUNT>  (1) 
2

>  <PUBCHEM_PHARMACOPHORE_FEATURES>  (1) 
4
1 1 acceptor
1 2 donor
1 3 donor
3 4 5 6 hydrophobe

>  <PUBCHEM_HEAVY_ATOM_COUNT>  (1) 
7

>  <PUBCHEM_ATOM_DEF_STEREO_COUNT>  (1) 
0

>  <PUBCHEM_ATOM_UDEF_STEREO_COUNT>  (1) 
0

>  <PUBCHEM_BOND_DEF_STEREO_COUNT>  (1) 
0

>  <PUBCHEM_BOND_UDEF_STEREO_COUNT>  (1) 
0

>  <PUBCHEM_ISOTOPIC_ATOM_COUNT>  (1) 
0

>  <PUBCHEM_COMPONENT_COUNT>  (1) 
1

>  <PUBCHEM_CACTVS_TAUTO_COUNT>  (1) 
2

>  <PUBCHEM_CONFORMER_ID>  (1) 
00004B2700000001

>  <PUBCHEM_MMFF94_ENERGY>  (1) 
8.6964

>  <PUBCHEM_FEATURE_SELFOVERLAP>  (1) 
21.809

>  <PUBCHEM_SHAPE_FINGERPRINT>  (1) 
139733 1 11169911697279144166
16714656 1 17894631418288178933
21040471 1 18042389258385375965
24536 1 18043233842092186933
29004967 10 18131358522216353530
5460574 1 8574708018118208652
5943 1 8353402707405096081

>  <PUBCHEM_SHAPE_MULTIPOLES>  (1) 
128.23
2.92
1.21
0.8
1.32
0.1
-0.06
0.16
0.35
-0.6
-0.21
-0.08
-0.06
0.39

>  <PUBCHEM_SHAPE_SELFOVERLAP>  (1) 
232.139

>  <PUBCHEM_SHAPE_VOLUME>  (1) 
83.1

>  <PUBCHEM_COORDINATE_TYPE>  (1) 
2
5
10

$$$$
