1926
     RDKit          3D

 23 22  0  0  1  0  0  0  0  0999 V2000
    5.3799   -2.4053    1.1029 O   0  0  0  0  0  0  0  0  0  0  0  0
   -5.9462   -1.7145   -1.7706 O   0  0  0  0  0  0  0  0  0  0  0  0
   -4.6961    0.0168   -0.9771 O   0  0  0  0  0  0  0  0  0  0  0  0
   -1.0807    2.1003    0.7362 C   0  0  0  0  0  0  0  0  0  0  0  0
   -2.5754    2.4202    0.8300 C   0  0  0  0  0  0  0  0  0  0  0  0
   -0.5385    2.4324   -0.6560 C   0  0  0  0  0  0  0  0  0  0  0  0
   -3.1845    2.1358    2.2039 C   0  0  0  0  0  0  0  0  0  0  0  0
    0.9217    2.0983   -0.7794 C   0  0  0  0  0  0  0  0  0  0  0  0
   -4.6591    2.4899    2.3086 C   0  0  0  0  0  0  0  0  0  0  0  0
    1.8588    3.0212   -1.0468 C   0  0  0  0  0  0  0  0  0  0  0  0
    3.3395    2.8247   -1.2184 C   0  0  0  0  0  0  0  0  0  0  0  0
    5.2629   -0.4521   -0.2973 C   0  0  0  0  0  0  0  0  0  0  0  0
    4.5311   -1.3144    0.7385 C   0  0  0  0  0  0  0  0  0  0  0  0
   -2.6334   -1.6788   -0.0961 C   0  0  0  0  0  0  0  0  0  0  0  0
   -1.6210   -2.7634    0.2765 C   0  0  0  0  0  0  0  0  0  0  0  0
    4.7645    0.9633   -0.3375 C   0  0  0  0  0  0  0  0  0  0  0  0
    3.8281    1.4056   -1.1900 C   0  0  0  0  0  0  0  0  0  0  0  0
   -3.8997   -2.2548   -0.7230 C   0  0  0  0  0  0  0  0  0  0  0  0
    3.2595   -1.9085    0.2018 C   0  0  0  0  0  0  0  0  0  0  0  0
   -0.3552   -2.1652    0.8208 C   0  0  0  0  0  0  0  0  0  0  0  0
    2.0598   -1.7455    0.7790 C   0  0  0  0  0  0  0  0  0  0  0  0
    0.8469   -2.3248    0.2481 C   0  0  0  0  0  0  0  0  0  0  0  0
   -4.8628   -1.1813   -1.1542 C   0  0  0  0  0  0  0  0  0  0  0  0
  1 13  1  0
  2 23  1  0
  3 23  2  0
  4  5  1  0
  4  6  1  0
  5  7  1  0
  6  8  1  0
  7  9  1  0
  8 10  2  0
 10 11  1  0
 11 17  1  0
 12 13  1  0
 12 16  1  0
 13 19  1  0
 14 15  1  0
 14 18  1  0
 15 20  1  0
 16 17  2  0
 18 23  1  0
 19 21  2  0
 20 22  2  0
 21 22  1  0
M  END
>  <PUBCHEM_COMPOUND_CID>  (1) 
1926

>  <PUBCHEM_CONFORMER_RMSD>  (1) 
1.2

>  <PUBCHEM_CONFORMER_DIVERSEORDER>  (1) 
1
265
45
176
221
23
160
21
153
40
44
52
102
171
68
219
41
10
53
238
38
158
256
244
184
207
15
165
254
137
26
29
161
208
240
154
193
253
87
19
145
85
103
101
71
215
222
92
120
79
20
237
182
148
2
107
34
77
234
133
264
248
191
263
126
177
267
98
147
88
35
178
250
9
209
260
211
84
255
48
114
223
155
189
63
3
142
173
156
143
214
186
181
117
94
131
170
162
89
243
116
130
25
239
206
220
110
22
106
12
259
195
141
93
49
105
159
224
144
57
152
190
246
203
157
108
180
43
150
164
249
235
81
230
268
8
125
31
32
39
236
241
54
149
100
104
67
168
50
228
112
28
210
242
78
5
183
16
261
64
175
217
231
18
11
36
86
252
75
127
58
198
227
115
4
212
83
91
204
73
113
163
37
124
65
132
169
95
226
167
129
262
205
134
216
187
66
27
151
251
6
72
74
119
269
59
24
213
232
139
118
69
76
138
197
80
121
123
90
122
51
42
135
97
46
201
96
14
179
172
199
192
185
70
146
56
188
13
202
62
174
111
245
136
82
200
247
257
99
17
194
30
166
128
60
61
140
218
196
109
258
266
233
47
55
229
33
7
225

>  <PUBCHEM_MMFF94_PARTIAL_CHARGES>  (1) 
28
1 -0.68
10 -0.29
11 0.28
12 0.14
13 0.42
15 0.14
16 -0.29
17 -0.29
18 0.06
19 -0.29
2 -0.65
20 -0.29
21 -0.15
22 -0.15
23 0.66
3 -0.57
32 0.15
36 0.15
46 0.15
47 0.15
50 0.15
51 0.15
52 0.15
53 0.15
54 0.4
55 0.5
6 0.14
8 -0.29

>  <PUBCHEM_EFFECTIVE_ROTOR_COUNT>  (1) 
14

>  <PUBCHEM_PHARMACOPHORE_FEATURES>  (1) 
8
1 1 acceptor
1 1 donor
1 2 acceptor
1 3 acceptor
1 9 hydrophobe
3 2 3 23 anion
4 14 15 18 20 hydrophobe
5 4 5 6 7 8 hydrophobe

>  <PUBCHEM_HEAVY_ATOM_COUNT>  (1) 
23

>  <PUBCHEM_ATOM_DEF_STEREO_COUNT>  (1) 
0

>  <PUBCHEM_ATOM_UDEF_STEREO_COUNT>  (1) 
1

>  <PUBCHEM_BOND_DEF_STEREO_COUNT>  (1) 
0

>  <PUBCHEM_BOND_UDEF_STEREO_COUNT>  (1) 
4

>  <PUBCHEM_ISOTOPIC_ATOM_COUNT>  (1) 
0

>  <PUBCHEM_COMPONENT_COUNT>  (1) 
1

>  <PUBCHEM_CACTVS_TAUTO_COUNT>  (1) 
1

>  <PUBCHEM_CONFORMER_ID>  (1) 
0000078600000001

>  <PUBCHEM_MMFF94_ENERGY>  (1) 
7.3399

>  <PUBCHEM_FEATURE_SELFOVERLAP>  (1) 
40.653

>  <PUBCHEM_SHAPE_FINGERPRINT>  (1) 
11479125 193 14927926035162585518
12035759 4 18337674212762705393
12788726 201 18058462048177848733
13111901 25 18270975574949930041
13165054 235 18341883053517181349
14117953 113 17903913353505154772
14464042 87 18341612646143813567
14784336 7 18055066825275420837
17093844 170 18047465910151754276
21623110 236 18408326566526375649
3014063 31 18334571391123006742
338550 245 18335151881311966544
5047190 2 18337110073076911211
581034 39 17561089090077724591
7064713 232 18198909115223972096

>  <PUBCHEM_SHAPE_MULTIPOLES>  (1) 
455.72
12.66
4.81
1.7
0.98
1.03
-0.44
-3.16
1.41
0.84
-0.4
2.2
0.88
-5.39

>  <PUBCHEM_SHAPE_SELFOVERLAP>  (1) 
860.219

>  <PUBCHEM_SHAPE_VOLUME>  (1) 
280.2

>  <PUBCHEM_COORDINATE_TYPE>  (1) 
2
5
10

$$$$
