1927
     RDKit          3D

 21 20  0  0  1  0  0  0  0  0999 V2000
   -1.1007    5.2953    0.0920 O   0  0  0  0  0  0  0  0  0  0  0  0
    8.2606   -2.8159    0.3155 O   0  0  0  0  0  0  0  0  0  0  0  0
    6.3439   -3.4967   -0.7061 O   0  0  0  0  0  0  0  0  0  0  0  0
    2.5760    2.0239    0.2549 C   0  0  0  0  0  0  0  0  0  0  0  0
    3.1122    0.6425   -0.1358 C   0  0  0  0  0  0  0  0  0  0  0  0
    1.1364    2.2673   -0.2021 C   0  0  0  0  0  0  0  0  0  0  0  0
    4.5227    0.3071    0.3592 C   0  0  0  0  0  0  0  0  0  0  0  0
    0.6546    3.6699    0.1812 C   0  0  0  0  0  0  0  0  0  0  0  0
    5.0279   -1.0568   -0.1132 C   0  0  0  0  0  0  0  0  0  0  0  0
   -0.7758    3.9590   -0.2926 C   0  0  0  0  0  0  0  0  0  0  0  0
    6.4690   -1.2962    0.3355 C   0  0  0  0  0  0  0  0  0  0  0  0
   -1.7828    3.0261    0.3223 C   0  0  0  0  0  0  0  0  0  0  0  0
   -5.3494   -1.7778   -0.3368 C   0  0  0  0  0  0  0  0  0  0  0  0
   -6.3955   -2.7169    0.2751 C   0  0  0  0  0  0  0  0  0  0  0  0
   -5.4994   -0.3270    0.1354 C   0  0  0  0  0  0  0  0  0  0  0  0
   -6.2440   -4.1693   -0.1841 C   0  0  0  0  0  0  0  0  0  0  0  0
   -2.6098    2.2542   -0.3994 C   0  0  0  0  0  0  0  0  0  0  0  0
    6.9747   -2.6517   -0.0891 C   0  0  0  0  0  0  0  0  0  0  0  0
   -4.4593    0.5873   -0.4493 C   0  0  0  0  0  0  0  0  0  0  0  0
   -3.5983    1.3870    0.1994 C   0  0  0  0  0  0  0  0  0  0  0  0
   -7.2631   -5.1114    0.4380 C   0  0  0  0  0  0  0  0  0  0  0  0
  1 10  1  0
  2 18  1  0
  3 18  2  0
  4  5  1  0
  4  6  1  0
  5  7  1  0
  6  8  1  0
  7  9  1  0
  8 10  1  0
  9 11  1  0
 10 12  1  0
 11 18  1  0
 12 17  2  0
 13 14  1  0
 13 15  1  0
 14 16  1  0
 15 19  1  0
 16 21  1  0
 17 20  1  0
 19 20  2  0
M  END
>  <PUBCHEM_COMPOUND_CID>  (1) 
1927

>  <PUBCHEM_CONFORMER_RMSD>  (1) 
1.4

>  <PUBCHEM_CONFORMER_DIVERSEORDER>  (1) 
1
48
27
4
29
34
36
47
53
18
51
35
49
15
57
32
31
65
12
6
14
44
17
63
61
23
71
46
59
11
74
25
21
50
37
9
64
5
66
30
28
16
22
2
43
68
62
72
70
33
55
41
54
19
45
60
20
13
10
42
73
52
24
8
58
26
69
7
56
38
40
39
67
3

>  <PUBCHEM_MMFF94_PARTIAL_CHARGES>  (1) 
17
1 -0.68
10 0.42
11 0.06
12 -0.29
15 0.14
17 -0.15
18 0.66
19 -0.29
2 -0.65
20 -0.15
3 -0.57
37 0.15
46 0.4
47 0.15
48 0.15
49 0.15
53 0.5

>  <PUBCHEM_EFFECTIVE_ROTOR_COUNT>  (1) 
14

>  <PUBCHEM_PHARMACOPHORE_FEATURES>  (1) 
7
1 1 acceptor
1 1 donor
1 2 acceptor
1 21 hydrophobe
1 3 acceptor
3 2 3 18 anion
5 13 14 15 16 19 hydrophobe

>  <PUBCHEM_HEAVY_ATOM_COUNT>  (1) 
21

>  <PUBCHEM_ATOM_DEF_STEREO_COUNT>  (1) 
0

>  <PUBCHEM_ATOM_UDEF_STEREO_COUNT>  (1) 
1

>  <PUBCHEM_BOND_DEF_STEREO_COUNT>  (1) 
0

>  <PUBCHEM_BOND_UDEF_STEREO_COUNT>  (1) 
2

>  <PUBCHEM_ISOTOPIC_ATOM_COUNT>  (1) 
0

>  <PUBCHEM_COMPONENT_COUNT>  (1) 
1

>  <PUBCHEM_CACTVS_TAUTO_COUNT>  (1) 
1

>  <PUBCHEM_CONFORMER_ID>  (1) 
0000078700000001

>  <PUBCHEM_MMFF94_ENERGY>  (1) 
7.459

>  <PUBCHEM_FEATURE_SELFOVERLAP>  (1) 
35.577

>  <PUBCHEM_SHAPE_FINGERPRINT>  (1) 
10049733 31 18043829773812521451
10319688 140 18048600622967738365
11197282 1 18411700980428188527
11273773 46 18408597060110253535
11463208 1 17913216360898087790
117089 54 18410295851965927579
11761917 116 18411144649747423094
12174731 88 18272082851314555383
12645989 146 18410579525860528739
13533116 47 17764030564744374513
13911852 28 18339078315345669181
13955234 65 17551231101279456705
14429380 30 18410575084752821318
15152005 1 18411699932515204255
15152005 304 18338808895767983343
15803439 3 14273739559634242440
17492 89 18267020742904182705
21307412 95 18262224561609464501
229767 8 18410015476585162699
23569914 152 11459798943925270064
2748736 6 9367352496349482287
2835820 82 18121780801857347267
393628 194 9727631696401267603
5718773 13 18411134753356613523
636775 72 8717954567003799894
6441014 3 18411418410409059651
7970288 3 18410571799319130541
9980921 52 17698708531535892031

>  <PUBCHEM_SHAPE_MULTIPOLES>  (1) 
414.56
23.81
8.21
0.7
11.1
0.16
0.01
49.16
-0.94
-6.07
-0.15
-0.04
0.07
1.05

>  <PUBCHEM_SHAPE_SELFOVERLAP>  (1) 
770.953

>  <PUBCHEM_SHAPE_VOLUME>  (1) 
258.8

>  <PUBCHEM_COORDINATE_TYPE>  (1) 
2
5
10

$$$$
