19270
     RDKit          3D

 21 24  0  0  1  0  0  0  0  0999 V2000
   -5.1243   -0.9992    1.3389 O   0  0  0  0  0  0  0  0  0  0  0  0
    1.5825    0.1478   -0.2246 N   0  0  0  0  0  0  0  0  0  0  0  0
   -0.9763    1.4987    0.2354 C   0  0  0  0  0  0  0  0  0  0  0  0
   -0.1455    1.7089   -1.0730 C   0  0  0  0  0  0  0  0  0  0  0  0
    0.6547    0.4138   -1.3425 C   0  0  0  0  0  0  0  0  0  0  0  0
   -0.0159    1.1430    1.4004 C   0  0  0  0  0  0  0  0  0  0  0  0
    0.9258   -0.0238    1.0723 C   0  0  0  0  0  0  0  0  0  0  0  0
   -0.3417   -0.7110   -1.6902 C   0  0  0  0  0  0  0  0  0  0  0  0
   -1.9376    0.3066    0.0342 C   0  0  0  0  0  0  0  0  0  0  0  0
    2.5157   -0.9418   -0.4940 C   0  0  0  0  0  0  0  0  0  0  0  0
    3.6080   -0.9855    0.5263 C   0  0  0  0  0  0  0  0  0  0  0  0
   -1.6051   -0.7336   -0.8626 C   0  0  0  0  0  0  0  0  0  0  0  0
   -1.7351    2.7973    0.5894 C   0  0  0  0  0  0  0  0  0  0  0  0
    0.7870    2.9321   -1.0748 C   0  0  0  0  0  0  0  0  0  0  0  0
    4.4739    0.2890    0.6062 C   0  0  0  0  0  0  0  0  0  0  0  0
    4.8826   -1.7310    0.0787 C   0  0  0  0  0  0  0  0  0  0  0  0
    5.6869   -0.6408    0.8172 C   0  0  0  0  0  0  0  0  0  0  0  0
   -3.1273    0.1827    0.7765 C   0  0  0  0  0  0  0  0  0  0  0  0
   -2.4743   -1.8267   -1.0266 C   0  0  0  0  0  0  0  0  0  0  0  0
   -3.9785   -0.9121    0.6089 C   0  0  0  0  0  0  0  0  0  0  0  0
   -3.6551   -1.9144   -0.2960 C   0  0  0  0  0  0  0  0  0  0  0  0
  1 20  1  0
  2  5  1  0
  2  7  1  0
  2 10  1  0
  3  4  1  0
  3  6  1  0
  3  9  1  0
  3 13  1  0
  4  5  1  0
  4 14  1  0
  5  8  1  0
  6  7  1  0
  8 12  1  0
  9 12  2  0
  9 18  1  0
 10 11  1  0
 11 15  1  0
 11 16  1  0
 12 19  1  0
 15 17  1  0
 16 17  1  0
 18 20  2  0
 19 21  2  0
 20 21  1  0
M  END
>  <PUBCHEM_COMPOUND_CID>  (1) 
19270

>  <PUBCHEM_CONFORMER_RMSD>  (1) 
0.6

>  <PUBCHEM_CONFORMER_DIVERSEORDER>  (1) 
1
23
21
20
13
16
11
24
5
9
22
18
7
15
19
12
14
3
17
6
10
8
4
2

>  <PUBCHEM_MMFF94_PARTIAL_CHARGES>  (1) 
17
1 -0.53
10 0.27
12 -0.14
18 -0.15
19 -0.15
2 -0.81
20 0.08
21 -0.15
3 0.14
45 0.15
46 0.15
47 0.15
48 0.45
5 0.27
7 0.27
8 0.14
9 -0.14

>  <PUBCHEM_EFFECTIVE_ROTOR_COUNT>  (1) 
3.8

>  <PUBCHEM_PHARMACOPHORE_FEATURES>  (1) 
6
1 1 donor
1 2 cation
4 11 15 16 17 rings
6 2 3 4 5 6 7 rings
6 3 4 5 8 9 12 rings
6 9 12 18 19 20 21 rings

>  <PUBCHEM_HEAVY_ATOM_COUNT>  (1) 
21

>  <PUBCHEM_ATOM_DEF_STEREO_COUNT>  (1) 
0

>  <PUBCHEM_ATOM_UDEF_STEREO_COUNT>  (1) 
3

>  <PUBCHEM_BOND_DEF_STEREO_COUNT>  (1) 
0

>  <PUBCHEM_BOND_UDEF_STEREO_COUNT>  (1) 
0

>  <PUBCHEM_ISOTOPIC_ATOM_COUNT>  (1) 
0

>  <PUBCHEM_COMPONENT_COUNT>  (1) 
1

>  <PUBCHEM_CACTVS_TAUTO_COUNT>  (1) 
3

>  <PUBCHEM_CONFORMER_ID>  (1) 
00004B4600000001

>  <PUBCHEM_MMFF94_ENERGY>  (1) 
69.327

>  <PUBCHEM_FEATURE_SELFOVERLAP>  (1) 
31.952

>  <PUBCHEM_SHAPE_FINGERPRINT>  (1) 
10369192 42 17131827734040370352
11045515 52 17749102288471786060
11265709 11 18335424577369879205
11315181 36 11602832255582646246
11370993 144 17203052872383146386
11578080 2 18041825307631586485
12011746 2 17703497814542394061
12035758 1 18271819969477940537
12251169 10 17632296800044378627
12403814 3 18272081682550193620
12553582 1 18411146852200573527
12633257 1 17060057077080145771
12788726 201 18339382810645446848
12916754 54 18334573496052574862
13004483 165 18336253561845096354
13140716 1 18130227189481914531
13544653 18 18411414042268856038
13583140 156 17916289572915728072
14341114 176 18131071511644061354
14420673 8 17693661412170953174
14787075 74 18339358682019909402
15099037 37 18342176622552181620
15209289 33 18408602565288233770
16945 1 18202290164813210325
17349148 13 16877942694798454594
17980427 23 16558467595504544729
1813 80 18334866017062900006
19377110 9 18335126602141531314
19784866 170 17060062540558023470
19784866 240 17458071455913990739
200 152 17168141217980180706
20600515 1 18272661176754608271
21452121 71 18187091697228844300
21637258 2 17748823059768388531
22112679 90 18189633686334291268
22182313 1 17844260527071834053
23175994 123 18114179757018322719
23402539 116 18040712537560306786
23419403 2 18197472173538068213
23557571 272 18342462487502375124
23559900 14 17772190813248405374
25147074 1 17914898879679975559
2748010 2 17696217828075321725
2838139 119 10231765469653796778
3286 77 17531252793652939957
394222 165 17838922655706658117
5104073 3 18055934314560033667
56616090 284 13406798839247070971
6786 2 17182204826002906260
7970288 3 18260266369106119883
83771 10 18409443712999686118
90316 7 18341622477345351881

>  <PUBCHEM_SHAPE_MULTIPOLES>  (1) 
421.32
9.09
2.47
1.4
8.16
1.57
-0.17
-6.36
3.81
-1.05
-0.45
-0.38
0.13
-0.39

>  <PUBCHEM_SHAPE_SELFOVERLAP>  (1) 
906

>  <PUBCHEM_SHAPE_VOLUME>  (1) 
232.1

>  <PUBCHEM_COORDINATE_TYPE>  (1) 
2
5
10

$$$$
