19280
     RDKit          3D

 13 14  0  0  0  0  0  0  0  0999 V2000
    4.9485   -0.4667    0.0345 Cl  0  0  0  0  0  0  0  0  0  0  0  0
   -1.8346   -1.4398   -0.0131 O   0  0  0  0  0  0  0  0  0  0  0  0
   -3.1399    0.4820   -0.0571 N   0  0  0  0  0  0  0  0  0  0  0  0
   -0.8597    0.6973   -0.0384 N   0  0  0  0  0  0  0  0  0  0  0  0
   -4.3177   -0.0615   -0.6673 C   0  0  0  0  0  0  0  0  0  0  0  0
   -4.2374    0.1297    0.7950 C   0  0  0  0  0  0  0  0  0  0  0  0
   -1.9207   -0.2142   -0.0335 C   0  0  0  0  0  0  0  0  0  0  0  0
    0.5260    0.4197   -0.0205 C   0  0  0  0  0  0  0  0  0  0  0  0
    1.4473    1.4669   -0.0294 C   0  0  0  0  0  0  0  0  0  0  0  0
    0.9723   -0.9017    0.0055 C   0  0  0  0  0  0  0  0  0  0  0  0
    2.8149    1.1928   -0.0123 C   0  0  0  0  0  0  0  0  0  0  0  0
    2.3398   -1.1759    0.0227 C   0  0  0  0  0  0  0  0  0  0  0  0
    3.2612   -0.1286    0.0139 C   0  0  0  0  0  0  0  0  0  0  0  0
  1 13  1  0
  2  7  2  0
  3  5  1  0
  3  6  1  0
  3  7  1  0
  4  7  1  0
  4  8  1  0
  5  6  1  0
  8  9  2  0
  8 10  1  0
  9 11  1  0
 10 12  2  0
 11 13  2  0
 12 13  1  0
M  END
>  <PUBCHEM_COMPOUND_CID>  (1) 
19280

>  <PUBCHEM_CONFORMER_RMSD>  (1) 
0.6

>  <PUBCHEM_CONFORMER_DIVERSEORDER>  (1) 
1
4
7
3
6
2
5

>  <PUBCHEM_MMFF94_PARTIAL_CHARGES>  (1) 
22
1 -0.18
10 -0.15
11 -0.15
12 -0.15
13 0.18
14 0.1
15 0.1
16 0.1
17 0.1
18 0.37
19 0.15
2 -0.57
20 0.15
21 0.15
22 0.15
3 -0.36
4 -0.55
5 -0.05
6 -0.05
7 0.69
8 0.12
9 -0.15

>  <PUBCHEM_EFFECTIVE_ROTOR_COUNT>  (1) 
3.6

>  <PUBCHEM_PHARMACOPHORE_FEATURES>  (1) 
3
1 2 acceptor
1 4 donor
6 8 9 10 11 12 13 rings

>  <PUBCHEM_HEAVY_ATOM_COUNT>  (1) 
13

>  <PUBCHEM_ATOM_DEF_STEREO_COUNT>  (1) 
0

>  <PUBCHEM_ATOM_UDEF_STEREO_COUNT>  (1) 
0

>  <PUBCHEM_BOND_DEF_STEREO_COUNT>  (1) 
0

>  <PUBCHEM_BOND_UDEF_STEREO_COUNT>  (1) 
0

>  <PUBCHEM_ISOTOPIC_ATOM_COUNT>  (1) 
0

>  <PUBCHEM_COMPONENT_COUNT>  (1) 
1

>  <PUBCHEM_CACTVS_TAUTO_COUNT>  (1) 
2

>  <PUBCHEM_CONFORMER_ID>  (1) 
00004B5000000001

>  <PUBCHEM_MMFF94_ENERGY>  (1) 
42.5782

>  <PUBCHEM_FEATURE_SELFOVERLAP>  (1) 
15.223

>  <PUBCHEM_SHAPE_FINGERPRINT>  (1) 
10130415 120 18343301465770547056
11062470 55 17632577145386486267
11401426 45 18411976975432557954
11471102 20 18410008849371042556
12251169 10 18412545413795040311
124424 183 18333449850228167627
12932764 1 17096070480856893843
13380535 76 18412546517718193199
13690532 89 18410292480632293314
13922767 16 18342736334237483336
14144814 61 18412547595981402657
14251717 144 18412823577368030511
14252887 29 18130514041810440342
14325111 11 18338516455553973844
17834072 33 18059288867778259973
18186145 218 18113612413054725739
18522853 276 18343301453186383936
200 152 18131346410593078213
20201158 50 18409731746439060530
20279233 1 17894916226291451515
20645477 70 18410009910043673238
20871998 22 18199191677033071662
21119208 17 18411418410102695134
21267235 1 18411709780673714119
22485316 2 16805319989868745667
23402539 116 17846211138320337613
23402655 69 18340762659436865789
42 15 18335143089782443345
5104073 3 18339080500724004619
69090 78 18412539933907660439
8809292 202 18187369865001882202

>  <PUBCHEM_SHAPE_MULTIPOLES>  (1) 
253.57
9.08
1.27
0.69
2.69
0.05
-0.02
-0.68
-0.17
-0.65
0.01
0.33
0
-0.07

>  <PUBCHEM_SHAPE_SELFOVERLAP>  (1) 
521.407

>  <PUBCHEM_SHAPE_VOLUME>  (1) 
147.2

>  <PUBCHEM_COORDINATE_TYPE>  (1) 
2
5
10

$$$$
