19281
     RDKit          3D

 15 16  0  0  0  0  0  0  0  0999 V2000
   -2.4748   -1.4445   -0.0210 O   0  0  0  0  0  0  0  0  0  0  0  0
    4.7657    0.7511    0.0128 O   0  0  0  0  0  0  0  0  0  0  0  0
    4.3955   -1.4125    0.0331 O   0  0  0  0  0  0  0  0  0  0  0  0
   -3.8344    0.4398   -0.0509 N   0  0  0  0  0  0  0  0  0  0  0  0
   -1.5612    0.7197   -0.0362 N   0  0  0  0  0  0  0  0  0  0  0  0
    3.9812   -0.2282    0.0167 N   0  0  0  0  0  0  0  0  0  0  0  0
   -4.9978   -0.1335   -0.6616 C   0  0  0  0  0  0  0  0  0  0  0  0
   -4.9194    0.0515    0.8016 C   0  0  0  0  0  0  0  0  0  0  0  0
   -2.5958   -0.2215   -0.0342 C   0  0  0  0  0  0  0  0  0  0  0  0
   -0.1681    0.4815   -0.0230 C   0  0  0  0  0  0  0  0  0  0  0  0
    0.7232    1.5545   -0.0279 C   0  0  0  0  0  0  0  0  0  0  0  0
    0.3157   -0.8267   -0.0051 C   0  0  0  0  0  0  0  0  0  0  0  0
    2.5817    0.0111    0.0028 C   0  0  0  0  0  0  0  0  0  0  0  0
    2.0980    1.3193   -0.0150 C   0  0  0  0  0  0  0  0  0  0  0  0
    1.6906   -1.0619    0.0078 C   0  0  0  0  0  0  0  0  0  0  0  0
  1  9  2  0
  2  6  1  0
  3  6  2  0
  4  7  1  0
  4  8  1  0
  4  9  1  0
  5  9  1  0
  5 10  1  0
  6 13  1  0
  7  8  1  0
 10 11  2  0
 10 12  1  0
 11 14  1  0
 12 15  2  0
 13 14  2  0
 13 15  1  0
M  CHG  2   2  -1   6   1
M  END
>  <PUBCHEM_COMPOUND_CID>  (1) 
19281

>  <PUBCHEM_CONFORMER_RMSD>  (1) 
0.6

>  <PUBCHEM_CONFORMER_DIVERSEORDER>  (1) 
1
4
3
7
2
5
6

>  <PUBCHEM_MMFF94_PARTIAL_CHARGES>  (1) 
24
1 -0.57
10 0.12
11 -0.15
12 -0.15
13 0.13
14 -0.15
15 -0.15
16 0.1
17 0.1
18 0.1
19 0.1
2 -0.52
20 0.37
21 0.15
22 0.15
23 0.15
24 0.15
3 -0.52
4 -0.36
5 -0.55
6 0.91
7 -0.05
8 -0.05
9 0.69

>  <PUBCHEM_EFFECTIVE_ROTOR_COUNT>  (1) 
4.6

>  <PUBCHEM_PHARMACOPHORE_FEATURES>  (1) 
6
1 1 acceptor
1 2 acceptor
1 2 anion
1 3 acceptor
1 5 donor
6 10 11 12 13 14 15 rings

>  <PUBCHEM_HEAVY_ATOM_COUNT>  (1) 
15

>  <PUBCHEM_ATOM_DEF_STEREO_COUNT>  (1) 
0

>  <PUBCHEM_ATOM_UDEF_STEREO_COUNT>  (1) 
0

>  <PUBCHEM_BOND_DEF_STEREO_COUNT>  (1) 
0

>  <PUBCHEM_BOND_UDEF_STEREO_COUNT>  (1) 
0

>  <PUBCHEM_ISOTOPIC_ATOM_COUNT>  (1) 
0

>  <PUBCHEM_COMPONENT_COUNT>  (1) 
1

>  <PUBCHEM_CACTVS_TAUTO_COUNT>  (1) 
2

>  <PUBCHEM_CONFORMER_ID>  (1) 
00004B5100000001

>  <PUBCHEM_MMFF94_ENERGY>  (1) 
53.9856

>  <PUBCHEM_FEATURE_SELFOVERLAP>  (1) 
30.528

>  <PUBCHEM_SHAPE_FINGERPRINT>  (1) 
11287383 113 16443354207837449732
11401426 45 18410852183189479752
11471102 20 18410008849170562972
12032990 46 18410577245527501038
12236239 1 17917992772261643353
13690532 89 18410855443016903386
13862211 1 18410568457666165458
14115302 16 17676780832690629935
14123238 8 18272651255380050141
14252887 29 18130515149605995678
15196674 1 18338516442748355631
15242433 33 18409450297400854806
15242439 84 17894345580088873541
17834072 33 18060414763701339109
18186145 218 17676759968087431555
18522853 276 18342739611007535769
200 152 18131067143403637489
20279233 1 18113907061081352747
20645477 70 18411418376038869246
21267235 1 18411146813535174859
221490 88 18118971527349869867
22485316 2 18410571803482268006
23402539 116 17917425411472118485
23402655 69 18341043039444822797
23557571 272 17095802109830659317
23559900 14 18410575115556018690
4047638 21 13262404366865111398
42 15 18411140234067127641
42788 4 18411136931047327469
5104073 3 18339923826327268019
542803 24 17131836464853866769
69090 78 18341609334977385383
8809292 202 18187650240546086347

>  <PUBCHEM_SHAPE_MULTIPOLES>  (1) 
276.14
10.25
1.34
0.66
4.23
0.01
-0.02
-0.97
-0.19
-0.86
0.01
0.43
0.01
-0.07

>  <PUBCHEM_SHAPE_SELFOVERLAP>  (1) 
581.757

>  <PUBCHEM_SHAPE_VOLUME>  (1) 
156.2

>  <PUBCHEM_COORDINATE_TYPE>  (1) 
2
5
10

$$$$
