19286
     RDKit          3D

 25 27  0  0  1  0  0  0  0  0999 V2000
   -7.5345    2.5570   -1.4428 Cl  0  0  0  0  0  0  0  0  0  0  0  0
    2.9488   -0.6713   -0.9458 N   0  0  0  0  0  0  0  0  0  0  0  0
   -5.6907   -0.5559    0.3523 N   0  0  0  0  0  0  0  0  0  0  0  0
    2.9945    1.0380    0.6702 C   0  0  0  0  0  0  0  0  0  0  0  0
    4.3839    0.5889    0.3248 C   0  0  0  0  0  0  0  0  0  0  0  0
    2.1733    0.1097   -0.2527 C   0  0  0  0  0  0  0  0  0  0  0  0
    4.3002   -0.4189   -0.6309 C   0  0  0  0  0  0  0  0  0  0  0  0
    2.6732    0.7734    2.1432 C   0  0  0  0  0  0  0  0  0  0  0  0
    2.7769    2.5085    0.3052 C   0  0  0  0  0  0  0  0  0  0  0  0
    5.6128    1.0182    0.7981 C   0  0  0  0  0  0  0  0  0  0  0  0
    0.7084    0.1535   -0.2958 C   0  0  0  0  0  0  0  0  0  0  0  0
    5.4303   -1.0323   -1.1473 C   0  0  0  0  0  0  0  0  0  0  0  0
    2.6139   -1.7047   -1.9383 C   0  0  0  0  0  0  0  0  0  0  0  0
    6.7644    0.4125    0.2903 C   0  0  0  0  0  0  0  0  0  0  0  0
    6.6735   -0.6044   -0.6747 C   0  0  0  0  0  0  0  0  0  0  0  0
   -0.0384   -0.6093    0.4915 C   0  0  0  0  0  0  0  0  0  0  0  0
   -1.4711   -0.5956    0.4553 C   0  0  0  0  0  0  0  0  0  0  0  0
   -2.1663    0.4937   -0.0976 C   0  0  0  0  0  0  0  0  0  0  0  0
   -2.2127   -1.6714    0.9734 C   0  0  0  0  0  0  0  0  0  0  0  0
   -4.2811   -0.5690    0.3872 C   0  0  0  0  0  0  0  0  0  0  0  0
   -3.5607    0.5069   -0.1314 C   0  0  0  0  0  0  0  0  0  0  0  0
   -3.6071   -1.6582    0.9396 C   0  0  0  0  0  0  0  0  0  0  0  0
   -6.4099    0.6947    0.2099 C   0  0  0  0  0  0  0  0  0  0  0  0
   -6.4396   -1.7911    0.4721 C   0  0  0  0  0  0  0  0  0  0  0  0
   -6.6419    1.0267   -1.2557 C   0  0  0  0  0  0  0  0  0  0  0  0
  1 25  1  0
  2  6  2  0
  2  7  1  0
  2 13  1  0
  3 20  1  0
  3 23  1  0
  3 24  1  0
  4  5  1  0
  4  6  1  0
  4  8  1  0
  4  9  1  0
  5  7  2  0
  5 10  1  0
  6 11  1  0
  7 12  1  0
 10 14  2  0
 11 16  2  0
 12 15  2  0
 14 15  1  0
 16 17  1  0
 17 18  2  0
 17 19  1  0
 18 21  1  0
 19 22  2  0
 20 21  2  0
 20 22  1  0
 23 25  1  0
M  CHG  1   2   1
M  END
>  <PUBCHEM_COMPOUND_CID>  (1) 
19286

>  <PUBCHEM_CONFORMER_RMSD>  (1) 
0.8

>  <PUBCHEM_CONFORMER_DIVERSEORDER>  (1) 
1
11
15
21
8
14
19
3
10
5
12
17
7
16
9
20
6
4
18
13
2

>  <PUBCHEM_MMFF94_PARTIAL_CHARGES>  (1) 
33
1 -0.29
10 -0.15
11 -0.14
12 -0.15
13 0.35
14 -0.15
15 -0.15
16 -0.18
17 0.03
18 -0.15
19 -0.15
2 -0.04
20 0.1
21 -0.15
22 -0.15
23 0.37
24 0.37
25 0.29
3 -0.84
32 0.15
33 0.15
34 0.15
38 0.15
39 0.15
4 0.2
40 0.15
41 0.15
42 0.15
43 0.15
44 0.15
5 -0.14
6 0.32
7 0.3

>  <PUBCHEM_EFFECTIVE_ROTOR_COUNT>  (1) 
5.2

>  <PUBCHEM_PHARMACOPHORE_FEATURES>  (1) 
5
1 3 cation
3 4 8 9 hydrophobe
5 2 4 5 6 7 rings
6 17 18 19 20 21 22 rings
6 5 7 10 12 14 15 rings

>  <PUBCHEM_HEAVY_ATOM_COUNT>  (1) 
25

>  <PUBCHEM_ATOM_DEF_STEREO_COUNT>  (1) 
0

>  <PUBCHEM_ATOM_UDEF_STEREO_COUNT>  (1) 
0

>  <PUBCHEM_BOND_DEF_STEREO_COUNT>  (1) 
0

>  <PUBCHEM_BOND_UDEF_STEREO_COUNT>  (1) 
1

>  <PUBCHEM_ISOTOPIC_ATOM_COUNT>  (1) 
0

>  <PUBCHEM_COMPONENT_COUNT>  (1) 
1

>  <PUBCHEM_CACTVS_TAUTO_COUNT>  (1) 
1

>  <PUBCHEM_CONFORMER_ID>  (1) 
00004B5600000001

>  <PUBCHEM_MMFF94_ENERGY>  (1) 
100.7747

>  <PUBCHEM_FEATURE_SELFOVERLAP>  (1) 
25.462

>  <PUBCHEM_SHAPE_FINGERPRINT>  (1) 
10 15 18271521005562841760
10299344 5 15719111374651732947
10835480 77 18342736360023592320
11315181 36 18271813436441981105
11421498 54 15864058854887383812
11545043 162 18189063147173502451
11719270 70 17989489611117357790
11796584 16 18041286547461249770
12166972 35 18337396036157848025
12236239 1 16225767436437405011
12516196 113 17846222171916981632
12778500 126 17530958052081499224
12838862 33 17632284684774930722
13402501 40 18342178868862171428
13533116 47 16056888996532261534
13878862 14 17560786771804301944
14170010 4 17847061104011313864
14251764 18 15574715803164365907
14294032 229 17096644297352628925
15142383 8 18335416864310170564
15183329 4 18410856525427829225
15419008 47 18411696587115215649
1577012 14 16515402958600791327
21033648 29 18339910602017662832
21792961 116 18200881678371611540
21859007 373 18261382330711268733
220451 1 15574432137084493235
221357 26 18060137617920281384
22224240 67 17060335237212502686
23081809 10 16588015823612569851
23559900 14 18341895224805663913
3004659 81 18259986006678230568
3633792 109 17274546425746088727
4015057 19 17632291341758033587
4073 2 18263931097575399266
5385378 56 17458902622728434531
59755656 215 18408041788414021590

>  <PUBCHEM_SHAPE_MULTIPOLES>  (1) 
506.4
20.95
1.98
1.4
16.41
0.59
0.11
4.87
4.41
2.49
0.22
-0.51
-0.05
3.54

>  <PUBCHEM_SHAPE_SELFOVERLAP>  (1) 
1073.593

>  <PUBCHEM_SHAPE_VOLUME>  (1) 
287.6

>  <PUBCHEM_COORDINATE_TYPE>  (1) 
2
5
10

$$$$
