19308
     RDKit          3D

 20 19  0  0  1  0  0  0  0  0999 V2000
   -0.2934    3.1004   -0.3316 P   0  0  0  0  0  0  0  0  0  0  0  0
   -1.5755    2.1071   -0.3799 O   0  0  0  0  0  0  0  0  0  0  0  0
    0.8276    2.0536   -0.8590 O   0  0  0  0  0  0  0  0  0  0  0  0
   -0.5504    3.8718   -1.7311 O   0  0  0  0  0  0  0  0  0  0  0  0
   -3.2033    0.6347    0.6589 C   0  0  0  0  0  0  0  0  0  0  0  0
    2.6613    0.5001   -0.5118 C   0  0  0  0  0  0  0  0  0  0  0  0
   -2.7631   -0.6487   -0.0764 C   0  0  0  0  0  0  0  0  0  0  0  0
    3.6867    0.0453    0.5481 C   0  0  0  0  0  0  0  0  0  0  0  0
   -3.9708    0.3774    1.9752 C   0  0  0  0  0  0  0  0  0  0  0  0
    1.9678   -0.6608   -1.2595 C   0  0  0  0  0  0  0  0  0  0  0  0
   -3.9288   -1.5655   -0.4614 C   0  0  0  0  0  0  0  0  0  0  0  0
    4.8263   -0.8032   -0.0256 C   0  0  0  0  0  0  0  0  0  0  0  0
   -1.9841    1.5492    0.8616 C   0  0  0  0  0  0  0  0  0  0  0  0
    1.6534    1.4640    0.1356 C   0  0  0  0  0  0  0  0  0  0  0  0
   -3.4799   -2.8436   -1.1752 C   0  0  0  0  0  0  0  0  0  0  0  0
    5.8286   -1.2633    1.0366 C   0  0  0  0  0  0  0  0  0  0  0  0
   -3.1996   -0.4015    3.0321 C   0  0  0  0  0  0  0  0  0  0  0  0
    1.1792   -1.6191   -0.3775 C   0  0  0  0  0  0  0  0  0  0  0  0
   -4.6302   -3.7704   -1.5370 C   0  0  0  0  0  0  0  0  0  0  0  0
    6.9482   -2.1277    0.4778 C   0  0  0  0  0  0  0  0  0  0  0  0
  1  2  1  0
  1  3  1  0
  1  4  1  0
  2 13  1  0
  3 14  1  0
  5  7  1  0
  5  9  1  0
  5 13  1  0
  6  8  1  0
  6 10  1  0
  6 14  1  0
  7 11  1  0
  8 12  1  0
  9 17  1  0
 10 18  1  0
 11 15  1  0
 12 16  1  0
 15 19  1  0
 16 20  1  0
M  END
>  <PUBCHEM_COMPOUND_CID>  (1) 
19308

>  <PUBCHEM_CONFORMER_RMSD>  (1) 
1.4

>  <PUBCHEM_CONFORMER_DIVERSEORDER>  (1) 
1
37
39
27
47
22
21
18
9
51
50
13
7
54
41
52
6
24
26
16
10
32
49
33
36
15
45
30
35
28
53
3
29
34
44
25
46
20
42
2
31
4
43
48
17
23
12
19
40
38
8
11
14
5

>  <PUBCHEM_MMFF94_PARTIAL_CHARGES>  (1) 
7
1 0.3
13 0.28
14 0.28
2 -0.38
3 -0.38
4 -0.6
55 0.5

>  <PUBCHEM_EFFECTIVE_ROTOR_COUNT>  (1) 
14

>  <PUBCHEM_PHARMACOPHORE_FEATURES>  (1) 
7
1 17 hydrophobe
1 18 hydrophobe
1 19 hydrophobe
1 20 hydrophobe
1 4 acceptor
5 5 7 9 11 15 hydrophobe
5 6 8 10 12 16 hydrophobe

>  <PUBCHEM_HEAVY_ATOM_COUNT>  (1) 
20

>  <PUBCHEM_ATOM_DEF_STEREO_COUNT>  (1) 
0

>  <PUBCHEM_ATOM_UDEF_STEREO_COUNT>  (1) 
2

>  <PUBCHEM_BOND_DEF_STEREO_COUNT>  (1) 
0

>  <PUBCHEM_BOND_UDEF_STEREO_COUNT>  (1) 
0

>  <PUBCHEM_ISOTOPIC_ATOM_COUNT>  (1) 
0

>  <PUBCHEM_COMPONENT_COUNT>  (1) 
1

>  <PUBCHEM_CACTVS_TAUTO_COUNT>  (1) 
2

>  <PUBCHEM_CONFORMER_ID>  (1) 
00004B6C00000001

>  <PUBCHEM_MMFF94_ENERGY>  (1) 
14.6074

>  <PUBCHEM_FEATURE_SELFOVERLAP>  (1) 
35.531

>  <PUBCHEM_SHAPE_FINGERPRINT>  (1) 
12166972 35 17969214702157389879
12553582 1 18264229009228083453
12596599 1 18059030461434931975
12633257 1 17988653981725996368
14117953 113 18341609296491485583
14178342 30 17988938772733872855
14429380 30 18337389452073313830
14844126 61 18263925440734075473
14950920 106 17561078107861653616
15415430 10 18342172301751713471
18927931 339 18262806155456299638
19032999 76 18265594602690828418
19141452 34 18271533013737805313
19433438 48 18272380784251976803
20621476 91 18340188761949228890
23402539 116 18334013869744587802
7064713 232 17846512417222126921

>  <PUBCHEM_SHAPE_MULTIPOLES>  (1) 
397.83
12.69
4.17
1.88
18.16
0.42
1.24
-13.63
4.05
-3.91
-2.88
-2.4
0.13
-2.79

>  <PUBCHEM_SHAPE_SELFOVERLAP>  (1) 
714.391

>  <PUBCHEM_SHAPE_VOLUME>  (1) 
257.8

>  <PUBCHEM_COORDINATE_TYPE>  (1) 
2
5
10

$$$$
