19300
     RDKit          3D

 15 15  0  0  0  0  0  0  0  0999 V2000
   -1.6187   -2.5130   -0.3809 Cl  0  0  0  0  0  0  0  0  0  0  0  0
    0.6289    0.0967   -0.5891 N   0  0  0  0  0  0  0  0  0  0  0  0
   -0.3757    0.0851   -1.3339 N   0  0  0  0  0  0  0  0  0  0  0  0
    2.9568   -2.0723    1.2676 N   0  0  0  0  0  0  0  0  0  0  0  0
    3.3789    2.2667    0.8108 N   0  0  0  0  0  0  0  0  0  0  0  0
    1.8714   -0.0283   -1.3501 C   0  0  0  0  0  0  0  0  0  0  0  0
    3.0867   -0.0479   -0.4148 C   0  0  0  0  0  0  0  0  0  0  0  0
   -1.5404    0.2056   -0.5644 C   0  0  0  0  0  0  0  0  0  0  0  0
   -2.2020   -0.9182   -0.0691 C   0  0  0  0  0  0  0  0  0  0  0  0
   -2.0368    1.4815   -0.2967 C   0  0  0  0  0  0  0  0  0  0  0  0
   -3.3599   -0.7660    0.6937 C   0  0  0  0  0  0  0  0  0  0  0  0
   -3.1948    1.6334    0.4661 C   0  0  0  0  0  0  0  0  0  0  0  0
   -3.8563    0.5098    0.9613 C   0  0  0  0  0  0  0  0  0  0  0  0
    3.0129   -1.1801    0.5275 C   0  0  0  0  0  0  0  0  0  0  0  0
    3.2489    1.2470    0.2719 C   0  0  0  0  0  0  0  0  0  0  0  0
  1  9  1  0
  2  3  2  0
  2  6  1  0
  3  8  1  0
  4 14  3  0
  5 15  3  0
  6  7  1  0
  7 14  1  0
  7 15  1  0
  8  9  2  0
  8 10  1  0
  9 11  1  0
 10 12  2  0
 11 13  2  0
 12 13  1  0
M  END
>  <PUBCHEM_COMPOUND_CID>  (1) 
19300

>  <PUBCHEM_CONFORMER_RMSD>  (1) 
0.6

>  <PUBCHEM_CONFORMER_DIVERSEORDER>  (1) 
1
16
24
7
26
32
17
18
22
13
8
15
28
9
4
19
21
5
10
3
20
25
11
30
2
29
12
31
27
6
14
23

>  <PUBCHEM_MMFF94_PARTIAL_CHARGES>  (1) 
19
1 -0.18
10 -0.15
11 -0.15
12 -0.15
13 -0.15
14 0.36
15 0.36
19 0.15
2 -0.25
20 0.15
21 0.15
22 0.15
3 -0.18
4 -0.56
5 -0.56
6 0.25
7 0.4
8 0.18
9 0.18

>  <PUBCHEM_EFFECTIVE_ROTOR_COUNT>  (1) 
3

>  <PUBCHEM_PHARMACOPHORE_FEATURES>  (1) 
3
1 4 acceptor
1 5 acceptor
6 8 9 10 11 12 13 rings

>  <PUBCHEM_HEAVY_ATOM_COUNT>  (1) 
15

>  <PUBCHEM_ATOM_DEF_STEREO_COUNT>  (1) 
0

>  <PUBCHEM_ATOM_UDEF_STEREO_COUNT>  (1) 
0

>  <PUBCHEM_BOND_DEF_STEREO_COUNT>  (1) 
0

>  <PUBCHEM_BOND_UDEF_STEREO_COUNT>  (1) 
0

>  <PUBCHEM_ISOTOPIC_ATOM_COUNT>  (1) 
0

>  <PUBCHEM_COMPONENT_COUNT>  (1) 
1

>  <PUBCHEM_CACTVS_TAUTO_COUNT>  (1) 
1

>  <PUBCHEM_CONFORMER_ID>  (1) 
00004B6400000001

>  <PUBCHEM_MMFF94_ENERGY>  (1) 
24.599

>  <PUBCHEM_FEATURE_SELFOVERLAP>  (1) 
15.223

>  <PUBCHEM_SHAPE_FINGERPRINT>  (1) 
10799339 124 18113904810112262121
11265709 11 17552918838421125839
12251169 10 18409731767982293588
12633257 1 18271526398970932154
12932764 1 18335139782578452508
13296908 3 16950558844352412166
13533116 47 18261672584870034203
14178342 30 18115868666944864290
14289901 80 18187933910040172832
17804303 29 18191030006140641222
20361792 2 15791734121934983319
20442098 301 18334011705076074926
20528008 55 18413107281822982573
20871999 31 9727048925447775993
22169311 14 18410293566910872612
22445834 79 18187085052724760534
23559900 14 17916598535097746518
7097593 13 18335136488343804398
90316 7 18114754750239910117

>  <PUBCHEM_SHAPE_MULTIPOLES>  (1) 
290.64
7.59
2.27
1.15
1.7
0.48
0.07
-1.52
-2.61
0.36
-0.51
0.35
0.12
-0.33

>  <PUBCHEM_SHAPE_SELFOVERLAP>  (1) 
588.419

>  <PUBCHEM_SHAPE_VOLUME>  (1) 
164.6

>  <PUBCHEM_COORDINATE_TYPE>  (1) 
2
5
10

$$$$
