19313
     RDKit          3D

 12 12  0  0  0  0  0  0  0  0999 V2000
   -2.6325    2.0541    0.0651 N   0  0  0  0  0  0  0  0  0  0  0  0
   -3.8147   -0.4689    0.6516 N   0  0  0  0  0  0  0  0  0  0  0  0
    1.6410   -0.1630   -0.9489 C   0  0  0  0  0  0  0  0  0  0  0  0
    2.5753   -0.0023    0.2523 C   0  0  0  0  0  0  0  0  0  0  0  0
    0.1963   -0.2375   -0.5253 C   0  0  0  0  0  0  0  0  0  0  0  0
    4.0338    0.1083   -0.1916 C   0  0  0  0  0  0  0  0  0  0  0  0
   -0.5460    0.9299   -0.4254 C   0  0  0  0  0  0  0  0  0  0  0  0
   -0.3676   -1.4726   -0.2422 C   0  0  0  0  0  0  0  0  0  0  0  0
   -1.8829    0.8604   -0.0334 C   0  0  0  0  0  0  0  0  0  0  0  0
    4.9638    0.3092    0.9944 C   0  0  0  0  0  0  0  0  0  0  0  0
   -2.4621   -0.3756    0.2539 C   0  0  0  0  0  0  0  0  0  0  0  0
   -1.7044   -1.5421    0.1496 C   0  0  0  0  0  0  0  0  0  0  0  0
  1  9  1  0
  2 11  1  0
  3  4  1  0
  3  5  1  0
  4  6  1  0
  5  7  2  0
  5  8  1  0
  6 10  1  0
  7  9  1  0
  8 12  2  0
  9 11  2  0
 11 12  1  0
M  END
>  <PUBCHEM_COMPOUND_CID>  (1) 
19313

>  <PUBCHEM_CONFORMER_RMSD>  (1) 
0.6

>  <PUBCHEM_CONFORMER_DIVERSEORDER>  (1) 
2
7
3
8
5
1
4
6

>  <PUBCHEM_MMFF94_PARTIAL_CHARGES>  (1) 
16
1 -0.9
11 0.1
12 -0.15
19 0.15
2 -0.9
20 0.15
24 0.15
25 0.4
26 0.4
27 0.4
28 0.4
3 0.14
5 -0.14
7 -0.15
8 -0.15
9 0.1

>  <PUBCHEM_EFFECTIVE_ROTOR_COUNT>  (1) 
3

>  <PUBCHEM_PHARMACOPHORE_FEATURES>  (1) 
6
1 1 cation
1 1 donor
1 10 hydrophobe
1 2 cation
1 2 donor
6 5 7 8 9 11 12 rings

>  <PUBCHEM_HEAVY_ATOM_COUNT>  (1) 
12

>  <PUBCHEM_ATOM_DEF_STEREO_COUNT>  (1) 
0

>  <PUBCHEM_ATOM_UDEF_STEREO_COUNT>  (1) 
0

>  <PUBCHEM_BOND_DEF_STEREO_COUNT>  (1) 
0

>  <PUBCHEM_BOND_UDEF_STEREO_COUNT>  (1) 
0

>  <PUBCHEM_ISOTOPIC_ATOM_COUNT>  (1) 
0

>  <PUBCHEM_COMPONENT_COUNT>  (1) 
1

>  <PUBCHEM_CACTVS_TAUTO_COUNT>  (1) 
1

>  <PUBCHEM_CONFORMER_ID>  (1) 
00004B7100000002

>  <PUBCHEM_MMFF94_ENERGY>  (1) 
42.3173

>  <PUBCHEM_FEATURE_SELFOVERLAP>  (1) 
30.452

>  <PUBCHEM_SHAPE_FINGERPRINT>  (1) 
11132069 177 18342744030528662471
11401426 45 18411134749689335447
12119455 92 17418373580018768454
12251169 10 18408040740884768804
13024252 1 13334731323876913391
13296909 8 18261107461146047132
13897977 58 18335989774076590588
14325111 11 18339082592605140094
14577589 140 12829491458463223265
15219456 202 18130512924913208870
16945 1 18337127729887989887
17846911 113 18343023289386572841
18186145 218 16272209691604650004
200 152 14779541305548603962
20510252 161 18271530805686661561
20645464 45 18131636689989073166
20645477 56 18131631210053772020
20645477 70 14273726366211502826
20871998 184 18271533099283899039
21119208 17 11384118548587150178
22445834 79 17894342263994521026
22926399 37 15123510328422293274
23402539 116 18412255164780594447
23403322 49 11602808078737042208
23500284 214 18129948879437282312
23559900 14 18270412577351019790
2748010 2 18120674430675429375
43471831 8 18187364281481522634
6333449 129 18412825768049141397
90316 7 17822568318229343524

>  <PUBCHEM_SHAPE_MULTIPOLES>  (1) 
236.99
7.49
1.46
0.86
8.46
0.2
0
1.01
2.6
-1.44
0
0.42
-0.02
0.23

>  <PUBCHEM_SHAPE_SELFOVERLAP>  (1) 
477.849

>  <PUBCHEM_SHAPE_VOLUME>  (1) 
139.9

>  <PUBCHEM_COORDINATE_TYPE>  (1) 
2
5
10

$$$$
