19324
     RDKit          3D

 19 21  0  0  1  0  0  0  0  0999 V2000
    0.1310    0.4725    0.5804 O   0  0  0  0  0  0  0  0  0  0  0  0
   -0.7478    1.5316   -1.3149 O   0  0  0  0  0  0  0  0  0  0  0  0
    2.7936   -0.2732    1.1580 N   0  0  0  0  0  0  0  0  0  0  0  0
    2.3390   -0.1385   -0.2317 C   0  0  0  0  0  0  0  0  0  0  0  0
    1.1945    0.8717   -0.2873 C   0  0  0  0  0  0  0  0  0  0  0  0
    3.4931    0.3050   -1.1413 C   0  0  0  0  0  0  0  0  0  0  0  0
   -1.0658    1.0263   -0.0020 C   0  0  0  0  0  0  0  0  0  0  0  0
    0.5219    0.9622   -1.6325 C   0  0  0  0  0  0  0  0  0  0  0  0
    4.6778   -0.6516   -1.0370 C   0  0  0  0  0  0  0  0  0  0  0  0
    5.0816   -0.8466    0.4204 C   0  0  0  0  0  0  0  0  0  0  0  0
    3.8825   -1.2430    1.2784 C   0  0  0  0  0  0  0  0  0  0  0  0
   -1.5247    2.2034    0.8575 C   0  0  0  0  0  0  0  0  0  0  0  0
   -2.1577   -0.0303   -0.0821 C   0  0  0  0  0  0  0  0  0  0  0  0
   -1.8245    1.7728    2.2830 C   0  0  0  0  0  0  0  0  0  0  0  0
   -3.4038    0.2940   -0.6181 C   0  0  0  0  0  0  0  0  0  0  0  0
   -1.9124   -1.3228    0.3809 C   0  0  0  0  0  0  0  0  0  0  0  0
   -4.4049   -0.6746   -0.6912 C   0  0  0  0  0  0  0  0  0  0  0  0
   -2.9135   -2.2915    0.3077 C   0  0  0  0  0  0  0  0  0  0  0  0
   -4.1597   -1.9674   -0.2284 C   0  0  0  0  0  0  0  0  0  0  0  0
  1  5  1  0
  1  7  1  0
  2  7  1  0
  2  8  1  0
  3  4  1  0
  3 11  1  0
  4  5  1  0
  4  6  1  0
  5  8  1  0
  6  9  1  0
  7 12  1  0
  7 13  1  0
  9 10  1  0
 10 11  1  0
 12 14  1  0
 13 15  2  0
 13 16  1  0
 15 17  1  0
 16 18  2  0
 17 19  2  0
 18 19  1  0
M  END
>  <PUBCHEM_COMPOUND_CID>  (1) 
19324

>  <PUBCHEM_CONFORMER_RMSD>  (1) 
0.8

>  <PUBCHEM_CONFORMER_DIVERSEORDER>  (1) 
1
47
46
26
34
8
39
45
10
28
42
48
14
33
19
20
54
6
22
55
13
41
49
12
37
35
32
25
38
21
50
3
40
52
30
4
43
7
53
2
9
18
51
29
44
11
31
27
16
23
24
5
36
15
17

>  <PUBCHEM_MMFF94_PARTIAL_CHARGES>  (1) 
20
1 -0.56
11 0.27
13 -0.14
15 -0.15
16 -0.15
17 -0.15
18 -0.15
19 -0.15
2 -0.56
28 0.36
3 -0.9
38 0.15
39 0.15
4 0.27
40 0.15
41 0.15
42 0.15
5 0.28
7 0.7
8 0.28

>  <PUBCHEM_EFFECTIVE_ROTOR_COUNT>  (1) 
5.2

>  <PUBCHEM_PHARMACOPHORE_FEATURES>  (1) 
8
1 1 acceptor
1 14 hydrophobe
1 2 acceptor
1 3 cation
1 3 donor
5 1 2 5 7 8 rings
6 13 15 16 17 18 19 rings
6 3 4 6 9 10 11 rings

>  <PUBCHEM_HEAVY_ATOM_COUNT>  (1) 
19

>  <PUBCHEM_ATOM_DEF_STEREO_COUNT>  (1) 
0

>  <PUBCHEM_ATOM_UDEF_STEREO_COUNT>  (1) 
3

>  <PUBCHEM_BOND_DEF_STEREO_COUNT>  (1) 
0

>  <PUBCHEM_BOND_UDEF_STEREO_COUNT>  (1) 
0

>  <PUBCHEM_ISOTOPIC_ATOM_COUNT>  (1) 
0

>  <PUBCHEM_COMPONENT_COUNT>  (1) 
1

>  <PUBCHEM_CACTVS_TAUTO_COUNT>  (1) 
1

>  <PUBCHEM_CONFORMER_ID>  (1) 
00004B7C00000001

>  <PUBCHEM_MMFF94_ENERGY>  (1) 
33.553

>  <PUBCHEM_FEATURE_SELFOVERLAP>  (1) 
40.637

>  <PUBCHEM_SHAPE_FINGERPRINT>  (1) 
10366900 7 17775284963053389994
10465860 250 18202280338223221417
11046707 91 18408322189690898486
11315181 36 18411420601258735104
11578080 2 18189035620691848052
11796584 16 18409727383026822023
12363563 72 18059580242886780687
12553582 1 17749404637126405792
12633257 1 17775019967728895545
12824470 246 18408603673204679475
13544653 18 18269553995533257875
13583140 156 16701736030450667270
14178342 30 18129107719019547822
14289901 80 17418091005920735460
14341114 328 12103568627746240127
14576447 43 17967250931777780654
15806764 133 15554181285249654432
16752209 62 18336817624469399475
17804303 29 18410571820946973855
1798214 20 17968090958239466854
18186145 218 14201391694584037509
18222031 100 17131553954763865661
18915474 69 18040435503738243574
193927 3 18338526329768560279
19862831 5 15864070962204427628
200 152 17385723582521999828
20281475 54 18335421214959028114
20374829 77 18334851740586547327
20645477 70 16081088139415753002
20671657 53 18187645855389706589
21033648 29 15769200640921122298
21250096 35 18337105760776959695
21452121 71 18334862761261684213
22646028 28 18186799175680864994
22854114 59 15410895162899472486
23175994 123 18201998867726152889
23402539 116 17989202629981556221
23503958 8 18200599090465861474
23557571 272 17488756587862287745
23559900 14 18339915013044099192
3004659 81 17894342289748669198
3086196 2 18202286887658146233
312423 11 18272382991997490344
339767 52 18187635921362673434
3729539 64 12470015907297752912
4028521 119 11386361539075037670
59755656 520 17699580134480768345
7226269 152 18059576837558451329
81228 2 17702128927188153009

>  <PUBCHEM_SHAPE_MULTIPOLES>  (1) 
374.29
9.42
2.08
1.51
7.04
0.03
0.29
-5.72
-0.36
-2.18
0.64
0.41
0.61
-0.85

>  <PUBCHEM_SHAPE_SELFOVERLAP>  (1) 
786.986

>  <PUBCHEM_SHAPE_VOLUME>  (1) 
210.5

>  <PUBCHEM_COORDINATE_TYPE>  (1) 
2
5
10

$$$$
