19344
     RDKit          3D

 15 16  0  0  0  0  0  0  0  0999 V2000
    3.9699   -0.8760   -0.0024 F   0  0  0  0  0  0  0  0  0  0  0  0
    3.6133    0.9746   -1.0865 F   0  0  0  0  0  0  0  0  0  0  0  0
    3.5896    0.9704    1.0937 F   0  0  0  0  0  0  0  0  0  0  0  0
    0.8355    0.9868   -0.0003 N   0  0  0  0  0  0  0  0  0  0  0  0
    1.1824   -1.2085    0.0002 N   0  0  0  0  0  0  0  0  0  0  0  0
   -5.1891    0.9886   -0.0015 N   0  0  0  0  0  0  0  0  0  0  0  0
   -0.4127    0.4190   -0.0002 C   0  0  0  0  0  0  0  0  0  0  0  0
   -0.1694   -0.9516    0.0001 C   0  0  0  0  0  0  0  0  0  0  0  0
    1.7545   -0.0254   -0.0001 C   0  0  0  0  0  0  0  0  0  0  0  0
   -1.6947    0.9699   -0.0005 C   0  0  0  0  0  0  0  0  0  0  0  0
   -1.2577   -1.8403    0.0003 C   0  0  0  0  0  0  0  0  0  0  0  0
    3.2024    0.2540   -0.0014 C   0  0  0  0  0  0  0  0  0  0  0  0
   -2.7662    0.0708   -0.0004 C   0  0  0  0  0  0  0  0  0  0  0  0
   -2.5538   -1.3097    0.0001 C   0  0  0  0  0  0  0  0  0  0  0  0
   -4.1037    0.5775   -0.0011 C   0  0  0  0  0  0  0  0  0  0  0  0
  1 12  1  0
  2 12  1  0
  3 12  1  0
  4  7  1  0
  4  9  1  0
  5  8  1  0
  5  9  2  0
  6 15  3  0
  7  8  2  0
  7 10  1  0
  8 11  1  0
  9 12  1  0
 10 13  2  0
 11 14  2  0
 13 14  1  0
 13 15  1  0
M  END
>  <PUBCHEM_COMPOUND_CID>  (1) 
19344

>  <PUBCHEM_CONFORMER_RMSD>  (1) 
0.4

>  <PUBCHEM_CONFORMER_DIVERSEORDER>  (1) 
1

>  <PUBCHEM_MMFF94_PARTIAL_CHARGES>  (1) 
19
1 -0.34
10 -0.15
11 -0.15
12 1.2
13 0.07
14 -0.15
15 0.48
16 0.27
17 0.15
18 0.15
19 0.15
2 -0.34
3 -0.34
4 0.03
5 -0.57
6 -0.56
7 -0.15
8 0.23
9 0.01

>  <PUBCHEM_EFFECTIVE_ROTOR_COUNT>  (1) 
1

>  <PUBCHEM_PHARMACOPHORE_FEATURES>  (1) 
5
1 4 donor
1 6 acceptor
3 4 5 9 cation
5 4 5 7 8 9 rings
6 7 8 10 11 13 14 rings

>  <PUBCHEM_HEAVY_ATOM_COUNT>  (1) 
15

>  <PUBCHEM_ATOM_DEF_STEREO_COUNT>  (1) 
0

>  <PUBCHEM_ATOM_UDEF_STEREO_COUNT>  (1) 
0

>  <PUBCHEM_BOND_DEF_STEREO_COUNT>  (1) 
0

>  <PUBCHEM_BOND_UDEF_STEREO_COUNT>  (1) 
0

>  <PUBCHEM_ISOTOPIC_ATOM_COUNT>  (1) 
0

>  <PUBCHEM_COMPONENT_COUNT>  (1) 
1

>  <PUBCHEM_CACTVS_TAUTO_COUNT>  (1) 
2

>  <PUBCHEM_CONFORMER_ID>  (1) 
00004B9000000001

>  <PUBCHEM_MMFF94_ENERGY>  (1) 
16.0093

>  <PUBCHEM_FEATURE_SELFOVERLAP>  (1) 
25.479

>  <PUBCHEM_SHAPE_FINGERPRINT>  (1) 
10608611 8 18342734173647497856
11132069 177 18410288133613706392
11401426 45 18272363174769979465
11471102 20 18413106139087297149
12119455 92 17489864921373566743
12932764 1 15719663351222383214
13380535 76 18412546492217343295
13675066 3 18334579061670957083
13760787 19 18040438814772952386
14325111 11 18410855490419812162
14897335 6 18412260623494181639
14911166 2 18343587334488225909
14943859 89 18412262839723537331
15196674 1 18410855490277556263
15775835 57 18335139782699862379
16945 1 18410574019574596967
17846911 113 18412821378597846137
18186145 218 16877939477477513926
200 152 16558749005407704543
20279233 1 17561086921060814678
20528008 55 18343298171683442745
20645477 56 18410008866271486233
20645477 70 17703232810412122159
212847 35 18411138022027315872
23402539 116 18201710743939666701
23402655 69 18271516491452201037
23463225 33 18334573521400703746
23559900 14 18272651268813565216
2748010 2 18047471127993206549
366044 4 18411135823262503627
4047638 21 18273496771200278848
474 4 16517665899887204028
4990 188 17704356550171557837
5104073 3 18409728495106535898
528886 8 18411414012446658739
53812653 166 18342170081290577305
633830 44 17749110014906863302
6430166 295 18408318874176592965
69090 78 18272645745079622719
7364860 26 18197496229792324118

>  <PUBCHEM_SHAPE_MULTIPOLES>  (1) 
271.93
7.93
1.47
0.69
0.88
0.48
0
-2.65
-0.01
0.4
0
-0.37
-0.1
0

>  <PUBCHEM_SHAPE_SELFOVERLAP>  (1) 
599.567

>  <PUBCHEM_SHAPE_VOLUME>  (1) 
148.7

>  <PUBCHEM_COORDINATE_TYPE>  (1) 
2
5
10

$$$$
