1935
     RDKit          3D

 15 17  0  0  0  0  0  0  0  0999 V2000
    0.0175   -1.5501   -0.0295 N   0  0  0  0  0  0  0  0  0  0  0  0
    0.0127    2.6440    0.0522 N   0  0  0  0  0  0  0  0  0  0  0  0
   -3.7042    0.4482   -0.3391 C   0  0  0  0  0  0  0  0  0  0  0  0
   -2.4938    1.2997    0.0422 C   0  0  0  0  0  0  0  0  0  0  0  0
   -3.6507   -0.9029    0.3644 C   0  0  0  0  0  0  0  0  0  0  0  0
   -1.1968    0.5400   -0.0086 C   0  0  0  0  0  0  0  0  0  0  0  0
   -2.4066   -1.6755   -0.0683 C   0  0  0  0  0  0  0  0  0  0  0  0
   -1.1469   -0.8518   -0.0147 C   0  0  0  0  0  0  0  0  0  0  0  0
    0.0182    1.2248    0.0139 C   0  0  0  0  0  0  0  0  0  0  0  0
    1.2317    0.5262    0.0062 C   0  0  0  0  0  0  0  0  0  0  0  0
    1.1840   -0.8800   -0.0169 C   0  0  0  0  0  0  0  0  0  0  0  0
    2.4680    1.1948    0.0224 C   0  0  0  0  0  0  0  0  0  0  0  0
    2.3892   -1.5770   -0.0262 C   0  0  0  0  0  0  0  0  0  0  0  0
    3.6588    0.4741    0.0134 C   0  0  0  0  0  0  0  0  0  0  0  0
    3.6189   -0.9142   -0.0115 C   0  0  0  0  0  0  0  0  0  0  0  0
  1  8  2  0
  1 11  1  0
  2  9  1  0
  3  4  1  0
  3  5  1  0
  4  6  1  0
  5  7  1  0
  6  8  1  0
  6  9  2  0
  7  8  1  0
  9 10  1  0
 10 11  2  0
 10 12  1  0
 11 13  1  0
 12 14  2  0
 13 15  2  0
 14 15  1  0
M  END
>  <PUBCHEM_COMPOUND_CID>  (1) 
1935

>  <PUBCHEM_CONFORMER_RMSD>  (1) 
0.4

>  <PUBCHEM_CONFORMER_DIVERSEORDER>  (1) 
1

>  <PUBCHEM_MMFF94_PARTIAL_CHARGES>  (1) 
18
1 -0.62
11 0.31
12 -0.15
13 -0.15
14 -0.15
15 -0.15
2 -0.9
24 0.15
25 0.15
26 0.4
27 0.4
28 0.15
29 0.15
4 0.14
6 -0.14
7 0.14
8 0.17
9 0.1

>  <PUBCHEM_EFFECTIVE_ROTOR_COUNT>  (1) 
0.8

>  <PUBCHEM_PHARMACOPHORE_FEATURES>  (1) 
6
1 1 acceptor
1 2 cation
1 2 donor
6 1 6 8 9 10 11 rings
6 10 11 12 13 14 15 rings
6 3 4 5 6 7 8 rings

>  <PUBCHEM_HEAVY_ATOM_COUNT>  (1) 
15

>  <PUBCHEM_ATOM_DEF_STEREO_COUNT>  (1) 
0

>  <PUBCHEM_ATOM_UDEF_STEREO_COUNT>  (1) 
0

>  <PUBCHEM_BOND_DEF_STEREO_COUNT>  (1) 
0

>  <PUBCHEM_BOND_UDEF_STEREO_COUNT>  (1) 
0

>  <PUBCHEM_ISOTOPIC_ATOM_COUNT>  (1) 
0

>  <PUBCHEM_COMPONENT_COUNT>  (1) 
1

>  <PUBCHEM_CACTVS_TAUTO_COUNT>  (1) 
5

>  <PUBCHEM_CONFORMER_ID>  (1) 
0000078F00000001

>  <PUBCHEM_MMFF94_ENERGY>  (1) 
52.0055

>  <PUBCHEM_FEATURE_SELFOVERLAP>  (1) 
30.501

>  <PUBCHEM_SHAPE_FINGERPRINT>  (1) 
10411042 1 15672386907455982976
10608611 8 18410570690927664693
10967382 1 18410855451607006862
11132069 177 18411693296652314888
11471102 20 18411132541369198558
11806522 49 18338232790550306119
12032990 46 18410860953396796518
12382932 28 18412544288524184424
13140716 1 18338797814571764746
13221675 6 18410855464423310982
13296908 3 18409449184798642219
13380535 76 18411417297685488734
14144814 61 18411700976022250091
14325111 11 18410293609691681996
15196674 1 18410573985156738887
15219456 202 18411417319159922407
15442244 35 18194401083090131362
15536298 74 18343021099317235722
16945 1 18194680607866593063
17844478 74 18041001734803754565
18186145 218 17894345562186545238
200 152 18060128865288167215
20201158 50 18410292497337551715
20510252 161 18272652298856935752
20645477 70 18341046328962789543
21029758 11 18342730824032014153
21267235 1 18410583880772367106
21501502 16 18410576184195831682
221490 88 18263651834121451098
2334 1 18410575119059896454
23402539 116 18271795813674233382
23402655 69 18269260302071130709
23463225 33 18409167709969423254
23559900 14 18340482258565904242
2748010 2 18411417314886054270
3071541 158 18260829340586462253
3312278 4 18410014325148266433
335352 9 18050567339625229695
34934 24 18411128143333366698
5104073 3 18410292501590101123
528886 8 18411694383273843962
537710 114 18410017653822066196
53812653 166 18271239525357642832
69090 78 18343295968587032407
7364860 26 18197216073101327208
8809292 202 18260553367689665587
9709674 26 18411423920614963870

>  <PUBCHEM_SHAPE_MULTIPOLES>  (1) 
298.73
6.32
2.06
0.62
0.24
0.47
0
-0.98
0
0.08
-0.02
0.06
-0.01
0.11

>  <PUBCHEM_SHAPE_SELFOVERLAP>  (1) 
661.188

>  <PUBCHEM_SHAPE_VOLUME>  (1) 
158.8

>  <PUBCHEM_COORDINATE_TYPE>  (1) 
2
5
10

$$$$
