19388
     RDKit          3D

  8  7  0  0  0  0  0  0  0  0999 V2000
    4.0993   -0.4344   -0.1608 S   0  0  0  0  0  0  0  0  0  0  0  0
   -4.0994   -0.4343    0.1607 S   0  0  0  0  0  0  0  0  0  0  0  0
    1.3877   -0.2266    0.3488 N   0  0  0  0  0  0  0  0  0  0  0  0
   -1.3876   -0.2265   -0.3486 N   0  0  0  0  0  0  0  0  0  0  0  0
    0.7330    0.9646   -0.1978 C   0  0  0  0  0  0  0  0  0  0  0  0
   -0.7330    0.9646    0.1979 C   0  0  0  0  0  0  0  0  0  0  0  0
    2.5381   -0.3036    0.1261 C   0  0  0  0  0  0  0  0  0  0  0  0
   -2.5382   -0.3037   -0.1261 C   0  0  0  0  0  0  0  0  0  0  0  0
  1  7  2  0
  2  8  2  0
  3  5  1  0
  3  7  2  0
  4  6  1  0
  4  8  2  0
  5  6  1  0
M  END
>  <PUBCHEM_COMPOUND_CID>  (1) 
19388

>  <PUBCHEM_CONFORMER_RMSD>  (1) 
0.6

>  <PUBCHEM_CONFORMER_DIVERSEORDER>  (1) 
1
24
12
8
20
2
21
23
19
3
22
9
15
10
5
17
16
14
4
11
18
13
7
6

>  <PUBCHEM_MMFF94_PARTIAL_CHARGES>  (1) 
8
1 -0.27
2 -0.27
3 -0.55
4 -0.55
5 0.25
6 0.25
7 0.57
8 0.57

>  <PUBCHEM_EFFECTIVE_ROTOR_COUNT>  (1) 
3

>  <PUBCHEM_PHARMACOPHORE_FEATURES>  (1) 
4
1 1 acceptor
1 2 acceptor
1 3 acceptor
1 4 acceptor

>  <PUBCHEM_HEAVY_ATOM_COUNT>  (1) 
8

>  <PUBCHEM_ATOM_DEF_STEREO_COUNT>  (1) 
0

>  <PUBCHEM_ATOM_UDEF_STEREO_COUNT>  (1) 
0

>  <PUBCHEM_BOND_DEF_STEREO_COUNT>  (1) 
0

>  <PUBCHEM_BOND_UDEF_STEREO_COUNT>  (1) 
0

>  <PUBCHEM_ISOTOPIC_ATOM_COUNT>  (1) 
0

>  <PUBCHEM_COMPONENT_COUNT>  (1) 
1

>  <PUBCHEM_CACTVS_TAUTO_COUNT>  (1) 
1

>  <PUBCHEM_CONFORMER_ID>  (1) 
00004BBC00000001

>  <PUBCHEM_MMFF94_ENERGY>  (1) 
5.2144

>  <PUBCHEM_FEATURE_SELFOVERLAP>  (1) 
20.31

>  <PUBCHEM_SHAPE_FINGERPRINT>  (1) 
11062470 55 18410292514475002017
14390081 3 8646776598962151935
21119208 17 15719111361656327111
21293036 1 16805325500322225242
22485316 2 18410569591400160675
23402539 116 12685089319258912362

>  <PUBCHEM_SHAPE_MULTIPOLES>  (1) 
162.37
7.82
0.94
0.66
0
0.18
0
-2.6
0
0
0
0
-0.01
-0.02

>  <PUBCHEM_SHAPE_SELFOVERLAP>  (1) 
286.102

>  <PUBCHEM_SHAPE_VOLUME>  (1) 
106.7

>  <PUBCHEM_COORDINATE_TYPE>  (1) 
2
5
10

$$$$
