19389
     RDKit          2D

 20 20  0  0  1  0  0  0  0  0999 V2000
    0.0000    0.0000    0.0000 Cl  0  0  0  0  0  0  0  0  0  0  0  0
    0.0000    0.0000    0.0000 Cl  0  0  0  0  0  0  0  0  0  0  0  0
    0.0000    0.0000    0.0000 O   0  0  0  0  0  0  0  0  0  0  0  0
    0.0000    0.0000    0.0000 O   0  0  0  0  0  0  0  0  0  0  0  0
    0.0000    0.0000    0.0000 N   0  0  0  0  0  0  0  0  0  0  0  0
    0.0000    0.0000    0.0000 N   0  0  0  0  0  0  0  0  0  0  0  0
    0.0000    0.0000    0.0000 C   0  0  0  0  0  0  0  0  0  0  0  0
    0.0000    0.0000    0.0000 C   0  0  0  0  0  0  0  0  0  0  0  0
    0.0000    0.0000    0.0000 C   0  0  0  0  0  0  0  0  0  0  0  0
    0.0000    0.0000    0.0000 C   0  0  0  0  0  0  0  0  0  0  0  0
    0.0000    0.0000    0.0000 C   0  0  0  0  0  0  0  0  0  0  0  0
    0.0000    0.0000    0.0000 C   0  0  0  0  0  0  0  0  0  0  0  0
    0.0000    0.0000    0.0000 C   0  0  0  0  0  0  0  0  0  0  0  0
    0.0000    0.0000    0.0000 C   0  0  0  0  0  0  0  0  0  0  0  0
    0.0000    0.0000    0.0000 C   0  0  0  0  0  0  0  0  0  0  0  0
    0.0000    0.0000    0.0000 C   0  0  0  0  0  0  0  0  0  0  0  0
    0.0000    0.0000    0.0000 C   0  0  0  0  0  0  0  0  0  0  0  0
    0.0000    0.0000    0.0000 C   0  0  0  0  0  0  0  0  0  0  0  0
    0.0000    0.0000    0.0000 C   0  0  0  0  0  0  0  0  0  0  0  0
    0.0000    0.0000    0.0000 C   0  0  0  0  0  0  0  0  0  0  0  0
  1 18  1  0
  2 19  1  0
  3 20  1  0
  4 20  2  0
  5 10  1  0
  5 12  1  0
  5 13  1  0
  6 11  1  0
  7  8  1  0
  7  9  1  0
  8 11  1  0
  9 14  2  0
  9 15  1  0
 10 16  2  0
 10 17  1  0
 11 20  1  0
 12 18  1  0
 13 19  1  0
 14 16  1  0
 15 17  2  0
M  END
>  <PUBCHEM_COMPOUND_CID>  (1) 
19389

>  <PUBCHEM_CONFORMER_RMSD>  (1) 
0.8

>  <PUBCHEM_CONFORMER_DIVERSEORDER>  (1) 
16
56
164
28
96
127
142
118
55
178
166
36
267
202
206
22
123
201
67
111
120
187
113
84
189
44
185
112
81
105
228
216
181
148
53
265
177
65
124
191
231
80
45
71
46
88
89
66
241
3
246
87
69
5
128
225
212
24
184
192
211
222
43
171
221
108
153
236
31
180
139
235
79
162
114
214
151
232
75
213
269
32
250
74
39
50
101
266
77
174
145
26
38
194
76
8
240
204
6
140
223
260
83
100
125
205
104
95
227
130
217
60
252
109
19
93
264
41
245
179
57
102
175
17
4
207
251
256
268
147
195
226
233
122
155
163
20
257
98
94
263
234
117
115
242
218
90
35
132
172
131
159
61
21
85
196
54
199
18
220
78
169
91
40
144
97
249
219
254
51
86
92
73
10
42
138
160
154
262
244
247
70
116
133
106
248
156
168
15
29
2
103
200
230
182
183
68
215
238
33
99
239
165
48
210
149
62
121
261
135
253
173
47
186
72
25
188
146
152
255
59
134
193
243
229
190
63
1
49
64
30
14
119
137
34
27
7
198
9
157
209
203
161
110
58
107
208
158
237
12
129
52
224
23
150
259
37
197
176
126
258
141
136
82
167
143
170
13
11

>  <PUBCHEM_MMFF94_PARTIAL_CHARGES>  (1) 
26
1 -0.29
10 0.1
11 0.33
12 0.37
13 0.37
14 -0.15
15 -0.15
16 -0.15
17 -0.15
18 0.29
19 0.29
2 -0.29
20 0.66
3 -0.65
30 0.15
31 0.15
32 0.15
33 0.15
38 0.36
39 0.36
4 -0.57
40 0.5
5 -0.84
6 -0.99
7 0.14
9 -0.14

>  <PUBCHEM_EFFECTIVE_ROTOR_COUNT>  (1) 
9

>  <PUBCHEM_PHARMACOPHORE_FEATURES>  (1) 
7
1 3 acceptor
1 4 acceptor
1 5 cation
1 6 cation
1 6 donor
3 3 4 20 anion
6 9 10 14 15 16 17 rings

>  <PUBCHEM_HEAVY_ATOM_COUNT>  (1) 
20

>  <PUBCHEM_ATOM_DEF_STEREO_COUNT>  (1) 
0

>  <PUBCHEM_ATOM_UDEF_STEREO_COUNT>  (1) 
1

>  <PUBCHEM_BOND_DEF_STEREO_COUNT>  (1) 
0

>  <PUBCHEM_BOND_UDEF_STEREO_COUNT>  (1) 
0

>  <PUBCHEM_ISOTOPIC_ATOM_COUNT>  (1) 
0

>  <PUBCHEM_COMPONENT_COUNT>  (1) 
1

>  <PUBCHEM_CACTVS_TAUTO_COUNT>  (1) 
1

$$$$
