19384
     RDKit          3D

 26 27  0  0  0  0  0  0  0  0999 V2000
   -7.4885    1.9833   -1.2719 Cl  0  0  0  0  0  0  0  0  0  0  0  0
   -8.3492   -0.1624    0.5047 Cl  0  0  0  0  0  0  0  0  0  0  0  0
    7.1928    0.4374    0.1160 S   0  0  0  0  0  0  0  0  0  0  0  0
    0.5992    0.0578    0.5240 O   0  0  0  0  0  0  0  0  0  0  0  0
    7.8772   -0.2425   -0.9745 O   0  0  0  0  0  0  0  0  0  0  0  0
    7.4324    1.8555    0.3470 O   0  0  0  0  0  0  0  0  0  0  0  0
    0.7945   -1.0252   -1.5317 O   0  0  0  0  0  0  0  0  0  0  0  0
   -5.5247    1.5573    0.7546 O   0  0  0  0  0  0  0  0  0  0  0  0
   -4.8932   -0.6256    0.1723 N   0  0  0  0  0  0  0  0  0  0  0  0
    5.4776    0.1781   -0.0805 C   0  0  0  0  0  0  0  0  0  0  0  0
   -3.5115   -0.4530    0.2611 C   0  0  0  0  0  0  0  0  0  0  0  0
    2.7368   -0.2357   -0.3970 C   0  0  0  0  0  0  0  0  0  0  0  0
    5.0167   -0.9346   -0.7843 C   0  0  0  0  0  0  0  0  0  0  0  0
    4.5679    1.0840    0.4652 C   0  0  0  0  0  0  0  0  0  0  0  0
    3.6464   -1.1414   -0.9426 C   0  0  0  0  0  0  0  0  0  0  0  0
    3.1976    0.8770    0.3069 C   0  0  0  0  0  0  0  0  0  0  0  0
   -0.7847   -0.1148    0.4343 C   0  0  0  0  0  0  0  0  0  0  0  0
   -2.9171    0.6967   -0.2585 C   0  0  0  0  0  0  0  0  0  0  0  0
   -2.7245   -1.4315    0.8686 C   0  0  0  0  0  0  0  0  0  0  0  0
    7.5973   -0.4090    1.6271 C   0  0  0  0  0  0  0  0  0  0  0  0
   -1.5355    0.8681   -0.1709 C   0  0  0  0  0  0  0  0  0  0  0  0
   -1.3430   -1.2602    0.9563 C   0  0  0  0  0  0  0  0  0  0  0  0
    1.3082   -0.4517   -0.5613 C   0  0  0  0  0  0  0  0  0  0  0  0
   -5.5002   -1.9891    0.0764 C   0  0  0  0  0  0  0  0  0  0  0  0
   -5.7875    0.5015    0.1698 C   0  0  0  0  0  0  0  0  0  0  0  0
   -7.0851    0.3800   -0.6110 C   0  0  0  0  0  0  0  0  0  0  0  0
  1 26  1  0
  2 26  1  0
  3  5  2  0
  3  6  2  0
  3 10  1  0
  3 20  1  0
  4 17  1  0
  4 23  1  0
  7 23  2  0
  8 25  2  0
  9 11  1  0
  9 24  1  0
  9 25  1  0
 10 13  2  0
 10 14  1  0
 11 18  2  0
 11 19  1  0
 12 15  2  0
 12 16  1  0
 12 23  1  0
 13 15  1  0
 14 16  2  0
 17 21  2  0
 17 22  1  0
 18 21  1  0
 19 22  2  0
 25 26  1  0
M  END
>  <PUBCHEM_COMPOUND_CID>  (1) 
19384

>  <PUBCHEM_CONFORMER_RMSD>  (1) 
0.8

>  <PUBCHEM_CONFORMER_DIVERSEORDER>  (1) 
1
372
394
414
300
379
439
46
411
40
449
310
14
344
101
203
440
68
4
360
287
85
286
432
452
228
278
45
421
252
430
289
408
7
158
410
157
343
391
319
195
246
353
273
25
257
169
179
267
173
159
315
302
15
292
213
181
119
446
13
244
324
284
83
281
262
48
131
89
279
72
312
153
464
285
457
316
140
150
214
357
318
44
381
163
397
23
200
398
2
347
177
8
330
152
296
375
53
58
448
43
453
227
463
133
129
6
171
39
363
280
98
137
30
219
465
297
204
354
192
16
435
142
65
462
116
141
261
304
24
405
208
156
164
84
201
59
215
114
147
337
160
263
341
151
311
3
190
189
419
329
259
454
434
334
370
172
291
29
264
38
220
199
49
52
194
210
42
245
364
66
400
143
188
223
5
442
290
128
303
27
253
135
11
403
21
139
326
218
423
132
205
60
123
136
293
390
62
193
37
377
174
61
207
109
182
265
299
80
393
12
322
385
348
346
314
75
196
251
438
149
277
170
399
266
456
320
258
56
63
102
352
122
369
249
47
73
78
22
426
97
191
392
239
187
376
422
233
350
459
451
125
165
106
420
418
82
154
18
275
225
10
105
460
26
99
401
17
238
126
234
118
145
96
424
340
184
117
90
241
9
436
77
359
345
176
367
19
415
271
362
67
374
148
313
209
198
236
95
407
55
36
240
336
93
247
406
433
429
342
268
180
308
366
306
450
301
111
70
237
94
130
57
402
110
409
461
64
20
272
81
361
127
325
115
355
425
155
368
74
88
79
396
112
274
282
108
338
445
185
69
186
404
54
276
120
134
113
34
76
327
328
175
339
229
35
416
255
383
216
380
333
323
87
371
235
32
317
161
444
197
283
309
124
349
31
427
351
248
146
295
378
254
138
307
242
212
384
332
103
217
226
373
202
256
437
178
458
387
388
250
92
358
335
86
428
41
365
305
167
270
447
183
211
144
28
395
33
441
321
356
413
221
298
100
232
386
417
230
206
260
243
162
224
71
455
166
231
222
389
288
443
51
331
294
121
91
50
431
412
104
269
107
168
382

>  <PUBCHEM_MMFF94_PARTIAL_CHARGES>  (1) 
34
1 -0.29
10 -0.01
11 0.12
12 0.09
13 -0.15
14 -0.15
15 -0.15
16 -0.15
17 0.08
18 -0.15
19 -0.15
2 -0.29
20 0.11
21 -0.15
22 -0.15
23 0.63
24 0.3
25 0.57
26 0.64
27 0.15
28 0.15
29 0.15
3 1.2
30 0.15
31 0.15
32 0.15
36 0.15
37 0.15
4 -0.23
5 -0.65
6 -0.65
7 -0.57
8 -0.57
9 -0.48

>  <PUBCHEM_EFFECTIVE_ROTOR_COUNT>  (1) 
7

>  <PUBCHEM_PHARMACOPHORE_FEATURES>  (1) 
6
1 5 acceptor
1 6 acceptor
1 7 acceptor
1 8 acceptor
6 10 12 13 14 15 16 rings
6 11 17 18 19 21 22 rings

>  <PUBCHEM_HEAVY_ATOM_COUNT>  (1) 
26

>  <PUBCHEM_ATOM_DEF_STEREO_COUNT>  (1) 
0

>  <PUBCHEM_ATOM_UDEF_STEREO_COUNT>  (1) 
0

>  <PUBCHEM_BOND_DEF_STEREO_COUNT>  (1) 
0

>  <PUBCHEM_BOND_UDEF_STEREO_COUNT>  (1) 
0

>  <PUBCHEM_ISOTOPIC_ATOM_COUNT>  (1) 
0

>  <PUBCHEM_COMPONENT_COUNT>  (1) 
1

>  <PUBCHEM_CACTVS_TAUTO_COUNT>  (1) 
1

>  <PUBCHEM_CONFORMER_ID>  (1) 
00004BB800000001

>  <PUBCHEM_MMFF94_ENERGY>  (1) 
90.3997

>  <PUBCHEM_FEATURE_SELFOVERLAP>  (1) 
30.466

>  <PUBCHEM_SHAPE_FINGERPRINT>  (1) 
10 15 18271519897587860352
10299344 5 10447930576781568544
10835480 77 18342739615291693553
11315181 36 18202286922698197937
11719270 70 18059857256010169270
12236239 1 16298390183957986706
125118 31 18113621209639001972
12516196 113 18343867727629076120
13533116 47 17821720603749629138
13914758 101 18040150703918489784
13968360 50 17203332182622585278
14123256 10 16343986905333914395
14170010 4 17561082519352391048
14251764 18 17676204684587518658
14251764 46 18410856568235011931
14344974 52 18410568506134490229
14429380 56 16916775310745258816
14729087 3 18186517683909400773
15131766 46 17975977889239634884
15183329 4 18412265012670975889
15419008 47 18341889688599139969
15461852 350 18130506422580571375
17093844 174 18259987085389748547
19301679 30 14707751928387730288
20157964 124 18060704974815889054
20554085 129 18340474617529331482
21095086 128 12535351190580856172
21150785 3 15123788487668400921
22224240 67 17060336331711699750
23402539 116 18334857234166048239
23559900 14 18411698819917045161
249057 3 17989203776442334157
335352 9 18113901584881817541
4073 2 18335425715726578218
4325135 7 17132115740606887997
5385378 56 17023179371507057019

>  <PUBCHEM_SHAPE_MULTIPOLES>  (1) 
508.33
26.37
1.57
1.1
2.39
0.13
-0.07
6.57
1.02
-1.77
-0.03
0.77
-0.11
1.24

>  <PUBCHEM_SHAPE_SELFOVERLAP>  (1) 
1046.773

>  <PUBCHEM_SHAPE_VOLUME>  (1) 
294.8

>  <PUBCHEM_COORDINATE_TYPE>  (1) 
2
5
10

$$$$
