19397
     RDKit          3D

 17 18  0  0  0  0  0  0  0  0999 V2000
    2.4130   -3.9871    0.3171 Cl  0  0  0  0  0  0  0  0  0  0  0  0
    5.4351    2.2094   -0.1896 Cl  0  0  0  0  0  0  0  0  0  0  0  0
    2.0726   -0.0030   -0.1452 N   0  0  0  0  0  0  0  0  0  0  0  0
   -1.1783    0.7434    1.2410 N   0  0  0  0  0  0  0  0  0  0  0  0
   -0.7975    0.3626   -0.9154 N   0  0  0  0  0  0  0  0  0  0  0  0
    1.1718    0.9703    0.4897 C   0  0  0  0  0  0  0  0  0  0  0  0
    1.8001   -1.3451    0.3600 C   0  0  0  0  0  0  0  0  0  0  0  0
    3.4639    0.3678    0.0949 C   0  0  0  0  0  0  0  0  0  0  0  0
   -0.2531    0.6869    0.2360 C   0  0  0  0  0  0  0  0  0  0  0  0
   -2.4010    0.4345    0.7024 C   0  0  0  0  0  0  0  0  0  0  0  0
   -2.1367    0.2010   -0.6444 C   0  0  0  0  0  0  0  0  0  0  0  0
    2.7515   -2.3447   -0.2792 C   0  0  0  0  0  0  0  0  0  0  0  0
    3.7353    1.7572   -0.4612 C   0  0  0  0  0  0  0  0  0  0  0  0
   -3.6765    0.3422    1.2606 C   0  0  0  0  0  0  0  0  0  0  0  0
   -3.1961   -0.1461   -1.4999 C   0  0  0  0  0  0  0  0  0  0  0  0
   -4.7189   -0.0046    0.3947 C   0  0  0  0  0  0  0  0  0  0  0  0
   -4.4850   -0.2448   -0.9613 C   0  0  0  0  0  0  0  0  0  0  0  0
  1 12  1  0
  2 13  1  0
  3  6  1  0
  3  7  1  0
  3  8  1  0
  4  9  1  0
  4 10  1  0
  5  9  2  0
  5 11  1  0
  6  9  1  0
  7 12  1  0
  8 13  1  0
 10 11  2  0
 10 14  1  0
 11 15  1  0
 14 16  2  0
 15 17  2  0
 16 17  1  0
M  END
>  <PUBCHEM_COMPOUND_CID>  (1) 
19397

>  <PUBCHEM_CONFORMER_RMSD>  (1) 
0.8

>  <PUBCHEM_CONFORMER_DIVERSEORDER>  (1) 
1
9
10
4
13
11
6
14
7
5
2
15
12
3
8
16

>  <PUBCHEM_MMFF94_PARTIAL_CHARGES>  (1) 
22
1 -0.29
10 -0.15
11 0.23
12 0.29
13 0.29
14 -0.15
15 -0.15
16 -0.15
17 -0.15
2 -0.29
24 0.27
29 0.15
3 -0.81
30 0.15
31 0.15
32 0.15
4 0.03
5 -0.57
6 0.45
7 0.27
8 0.27
9 0.01

>  <PUBCHEM_EFFECTIVE_ROTOR_COUNT>  (1) 
6

>  <PUBCHEM_PHARMACOPHORE_FEATURES>  (1) 
5
1 3 cation
1 4 donor
3 4 5 9 cation
5 4 5 9 10 11 rings
6 10 11 14 15 16 17 rings

>  <PUBCHEM_HEAVY_ATOM_COUNT>  (1) 
17

>  <PUBCHEM_ATOM_DEF_STEREO_COUNT>  (1) 
0

>  <PUBCHEM_ATOM_UDEF_STEREO_COUNT>  (1) 
0

>  <PUBCHEM_BOND_DEF_STEREO_COUNT>  (1) 
0

>  <PUBCHEM_BOND_UDEF_STEREO_COUNT>  (1) 
0

>  <PUBCHEM_ISOTOPIC_ATOM_COUNT>  (1) 
0

>  <PUBCHEM_COMPONENT_COUNT>  (1) 
1

>  <PUBCHEM_CACTVS_TAUTO_COUNT>  (1) 
1

>  <PUBCHEM_CONFORMER_ID>  (1) 
00004BC500000001

>  <PUBCHEM_MMFF94_ENERGY>  (1) 
29.8273

>  <PUBCHEM_FEATURE_SELFOVERLAP>  (1) 
25.481

>  <PUBCHEM_SHAPE_FINGERPRINT>  (1) 
10090160 65 18410292545072815448
11578080 2 17628605636257277209
12107183 9 17694230963166485065
12236239 1 17989492939030995132
12788726 201 17346610633917524177
13052359 8 18120935272903705794
13533116 47 18343298142246744067
13631057 29 18055064630389429663
13760787 19 18060138760592175717
15375358 24 17458341961533515585
15375462 189 18060698373065864339
15502722 9 18335984186265999182
1813 80 17840878378245800422
18186145 218 17168710717552948113
19422 9 18131070377224017051
20279233 1 17167863062680861129
20281475 54 18272643533218859991
204376 136 18263647419469882236
20645477 70 18261385611823461971
20693207 138 17823155435758101723
21054139 6 18198896101293743046
21065201 7 15195563503012557709
21499 59 18336828701506540900
2255824 54 18130218375940212400
23402539 116 16009020752282787809
23557571 272 16950287269254148597
23559900 14 18191297178855085698
23598291 2 17987806202536928640
3060560 45 18335706078891912540
312423 11 18129109934953660352
33824 294 18408042905574965162
458136 41 18410017645743646042
474 4 18340208617356769160
6025842 7 18409726253365864646
603831 33 18131911563479866797
621550 34 18259703397893262596
81539 233 18259985994278274422

>  <PUBCHEM_SHAPE_MULTIPOLES>  (1) 
338.65
10.21
2.77
1.12
0.12
3.93
-0.06
-3.73
-0.98
-5.99
0.16
1.22
-0.1
-0.63

>  <PUBCHEM_SHAPE_SELFOVERLAP>  (1) 
687.232

>  <PUBCHEM_SHAPE_VOLUME>  (1) 
199.7

>  <PUBCHEM_COORDINATE_TYPE>  (1) 
2
5
10

$$$$
