19394
     RDKit          3D

 16 16  0  0  0  0  0  0  0  0999 V2000
   -2.5237   -2.3704    0.0257 Cl  0  0  0  0  0  0  0  0  0  0  0  0
   -2.4233    0.8250   -0.4657 S   0  0  0  0  0  0  0  0  0  0  0  0
   -2.0311    2.1900   -0.7829 O   0  0  0  0  0  0  0  0  0  0  0  0
   -3.3068    0.1034   -1.3687 O   0  0  0  0  0  0  0  0  0  0  0  0
    2.8485    1.5259   -0.8645 O   0  0  0  0  0  0  0  0  0  0  0  0
   -3.0976    0.7963    1.1029 N   0  0  0  0  0  0  0  0  0  0  0  0
    3.7856   -0.1203    0.4728 N   0  0  0  0  0  0  0  0  0  0  0  0
   -0.9734   -0.1386   -0.2642 C   0  0  0  0  0  0  0  0  0  0  0  0
    0.2588    0.5126   -0.3218 C   0  0  0  0  0  0  0  0  0  0  0  0
    1.4396   -0.2139   -0.1673 C   0  0  0  0  0  0  0  0  0  0  0  0
   -1.0248   -1.5164   -0.0522 C   0  0  0  0  0  0  0  0  0  0  0  0
    1.3882   -1.5916    0.0447 C   0  0  0  0  0  0  0  0  0  0  0  0
    0.1561   -2.2428    0.1022 C   0  0  0  0  0  0  0  0  0  0  0  0
    2.7247    0.4641   -0.2287 C   0  0  0  0  0  0  0  0  0  0  0  0
   -2.3355    1.3321    2.2399 C   0  0  0  0  0  0  0  0  0  0  0  0
    5.1147    0.4448    0.5278 C   0  0  0  0  0  0  0  0  0  0  0  0
  1 11  1  0
  2  3  2  0
  2  4  2  0
  2  6  1  0
  2  8  1  0
  5 14  2  0
  6 15  1  0
  7 14  1  0
  7 16  1  0
  8  9  2  0
  8 11  1  0
  9 10  1  0
 10 12  2  0
 10 14  1  0
 11 13  2  0
 12 13  1  0
M  END
>  <PUBCHEM_COMPOUND_CID>  (1) 
19394

>  <PUBCHEM_CONFORMER_RMSD>  (1) 
0.6

>  <PUBCHEM_CONFORMER_DIVERSEORDER>  (1) 
1
9
14
15
16
3
11
4
17
10
18
2
8
7
12
5
6
13

>  <PUBCHEM_MMFF94_PARTIAL_CHARGES>  (1) 
21
1 -0.18
10 0.09
11 0.18
12 -0.15
13 -0.15
14 0.54
15 0.36
16 0.3
17 0.15
18 0.15
19 0.15
2 1.45
20 0.42
24 0.37
3 -0.65
4 -0.65
5 -0.57
6 -0.91
7 -0.73
8 -0.01
9 -0.15

>  <PUBCHEM_EFFECTIVE_ROTOR_COUNT>  (1) 
4

>  <PUBCHEM_PHARMACOPHORE_FEATURES>  (1) 
6
1 3 acceptor
1 4 acceptor
1 5 acceptor
1 6 donor
1 7 donor
6 8 9 10 11 12 13 rings

>  <PUBCHEM_HEAVY_ATOM_COUNT>  (1) 
16

>  <PUBCHEM_ATOM_DEF_STEREO_COUNT>  (1) 
0

>  <PUBCHEM_ATOM_UDEF_STEREO_COUNT>  (1) 
0

>  <PUBCHEM_BOND_DEF_STEREO_COUNT>  (1) 
0

>  <PUBCHEM_BOND_UDEF_STEREO_COUNT>  (1) 
0

>  <PUBCHEM_ISOTOPIC_ATOM_COUNT>  (1) 
0

>  <PUBCHEM_COMPONENT_COUNT>  (1) 
1

>  <PUBCHEM_CACTVS_TAUTO_COUNT>  (1) 
2

>  <PUBCHEM_CONFORMER_ID>  (1) 
00004BC200000001

>  <PUBCHEM_MMFF94_ENERGY>  (1) 
25.0707

>  <PUBCHEM_FEATURE_SELFOVERLAP>  (1) 
30.464

>  <PUBCHEM_SHAPE_FINGERPRINT>  (1) 
11132069 177 18410579491315361870
12251169 10 18113897161134113124
124424 183 16950275187685393340
12491281 212 17418097555376590283
13140716 1 18263931105795769625
13380535 21 18339939133501292774
13380535 76 18408595951001628990
13583140 156 16805601464792871000
13764800 53 18131082536287027379
14614273 12 18407757041036150631
14897335 6 18409720742870089302
15309172 13 18335146370989705953
15534591 1 17560531594584595153
15775835 57 18271243811946013557
16945 1 18334581187489955511
18186145 218 18271253716235407478
18219364 16 18261393321368847229
200 152 18129652114799010663
20112054 60 18202003269566445522
20300324 65 17561074830411384685
20510252 161 18196933481601645506
21339142 149 17846781814729721451
21339142 36 17916014849464394655
21501502 16 18263649639751612156
21524375 3 18412543219262255750
2306618 200 18410854382455510521
23402539 116 18198332043270693695
23419403 2 17626930221744914355
23557571 272 17988080122529477102
23559900 14 18273496785150615536
2748010 2 17977655734606656573
5104073 3 18336820988087942130
6333449 129 18411697720410873815
6992083 37 18113337526732154828
81228 2 18121793977787915035

>  <PUBCHEM_SHAPE_MULTIPOLES>  (1) 
307.42
6.87
2.26
1.21
7.85
0.89
-0.51
-2.22
-0.84
-1.55
-0.12
-1.07
-0.7
-0.47

>  <PUBCHEM_SHAPE_SELFOVERLAP>  (1) 
612.161

>  <PUBCHEM_SHAPE_VOLUME>  (1) 
183.7

>  <PUBCHEM_COORDINATE_TYPE>  (1) 
2
5
10

$$$$
