19402
     RDKit          3D

 27 30  0  0  1  0  0  0  0  0999 V2000
    4.9628   -4.1651   -0.2403 Cl  0  0  0  0  0  0  0  0  0  0  0  0
   -0.3427    0.5320    1.5428 O   0  0  0  0  0  0  0  0  0  0  0  0
   -1.9338    1.2141   -1.9547 O   0  0  0  0  0  0  0  0  0  0  0  0
   -1.8283   -2.2804    1.2435 O   0  0  0  0  0  0  0  0  0  0  0  0
   -1.2463   -0.5259   -0.3686 C   0  0  0  0  0  0  0  0  0  0  0  0
    1.1321    0.4535   -0.3889 C   0  0  0  0  0  0  0  0  0  0  0  0
   -0.1678    0.1856    0.3742 C   0  0  0  0  0  0  0  0  0  0  0  0
   -2.2070    0.3990   -1.0937 C   0  0  0  0  0  0  0  0  0  0  0  0
   -2.1541   -1.3603    0.5172 C   0  0  0  0  0  0  0  0  0  0  0  0
   -3.5564    0.1502   -0.5846 C   0  0  0  0  0  0  0  0  0  0  0  0
   -3.5255   -0.8758    0.3549 C   0  0  0  0  0  0  0  0  0  0  0  0
    2.1040   -0.7169   -0.3509 C   0  0  0  0  0  0  0  0  0  0  0  0
    1.7814    1.7753    0.0006 C   0  0  0  0  0  0  0  0  0  0  0  0
   -4.7352    0.7797   -0.9336 C   0  0  0  0  0  0  0  0  0  0  0  0
   -4.6722   -1.3169    0.9864 C   0  0  0  0  0  0  0  0  0  0  0  0
    2.9597   -0.9085   -1.4163 C   0  0  0  0  0  0  0  0  0  0  0  0
    2.0998   -1.5522    0.7478 C   0  0  0  0  0  0  0  0  0  0  0  0
    1.4397    2.9156   -0.6964 C   0  0  0  0  0  0  0  0  0  0  0  0
    2.6904    1.7904    1.0379 C   0  0  0  0  0  0  0  0  0  0  0  0
   -5.9056    0.3486   -0.3031 C   0  0  0  0  0  0  0  0  0  0  0  0
   -5.8744   -0.6898    0.6478 C   0  0  0  0  0  0  0  0  0  0  0  0
    3.8497   -1.9820   -1.3819 C   0  0  0  0  0  0  0  0  0  0  0  0
    2.9898   -2.6256    0.7823 C   0  0  0  0  0  0  0  0  0  0  0  0
    2.0341    4.1259   -0.3398 C   0  0  0  0  0  0  0  0  0  0  0  0
    3.2846    3.0010    1.3944 C   0  0  0  0  0  0  0  0  0  0  0  0
    3.8649   -2.8405   -0.2826 C   0  0  0  0  0  0  0  0  0  0  0  0
    2.9564    4.1688    0.7056 C   0  0  0  0  0  0  0  0  0  0  0  0
  1 26  1  0
  2  7  2  0
  3  8  2  0
  4  9  2  0
  5  7  1  0
  5  8  1  0
  5  9  1  0
  6  7  1  0
  6 12  1  0
  6 13  1  0
  8 10  1  0
  9 11  1  0
 10 11  2  0
 10 14  1  0
 11 15  1  0
 12 16  2  0
 12 17  1  0
 13 18  2  0
 13 19  1  0
 14 20  2  0
 15 21  2  0
 16 22  1  0
 17 23  2  0
 18 24  1  0
 19 25  2  0
 20 21  1  0
 22 26  2  0
 23 26  1  0
 24 27  2  0
 25 27  1  0
M  END
>  <PUBCHEM_COMPOUND_CID>  (1) 
19402

>  <PUBCHEM_CONFORMER_RMSD>  (1) 
0.8

>  <PUBCHEM_CONFORMER_DIVERSEORDER>  (1) 
2
41
45
14
42
31
47
3
40
17
19
12
38
48
9
23
33
39
27
22
15
21
37
7
46
43
35
11
25
30
18
16
28
36
20
10
29
4
24
1
26
44
34
6
32
8
13
5

>  <PUBCHEM_MMFF94_PARTIAL_CHARGES>  (1) 
40
1 -0.18
10 0.09
11 0.09
12 -0.14
13 -0.14
14 -0.15
15 -0.15
16 -0.15
17 -0.15
18 -0.15
19 -0.15
2 -0.57
20 -0.15
21 -0.15
22 -0.15
23 -0.15
24 -0.15
25 -0.15
26 0.18
27 -0.15
3 -0.57
30 0.15
31 0.15
32 0.15
33 0.15
34 0.15
35 0.15
36 0.15
37 0.15
38 0.15
39 0.15
4 -0.57
40 0.15
41 0.15
42 0.15
5 0.18
6 0.35
7 0.45
8 0.42
9 0.42

>  <PUBCHEM_EFFECTIVE_ROTOR_COUNT>  (1) 
4.2

>  <PUBCHEM_PHARMACOPHORE_FEATURES>  (1) 
8
1 2 acceptor
1 3 acceptor
1 4 acceptor
1 5 anion
5 5 8 9 10 11 rings
6 10 11 14 15 20 21 rings
6 12 16 17 22 23 26 rings
6 13 18 19 24 25 27 rings

>  <PUBCHEM_HEAVY_ATOM_COUNT>  (1) 
27

>  <PUBCHEM_ATOM_DEF_STEREO_COUNT>  (1) 
0

>  <PUBCHEM_ATOM_UDEF_STEREO_COUNT>  (1) 
1

>  <PUBCHEM_BOND_DEF_STEREO_COUNT>  (1) 
0

>  <PUBCHEM_BOND_UDEF_STEREO_COUNT>  (1) 
0

>  <PUBCHEM_ISOTOPIC_ATOM_COUNT>  (1) 
0

>  <PUBCHEM_COMPONENT_COUNT>  (1) 
1

>  <PUBCHEM_CACTVS_TAUTO_COUNT>  (1) 
5

>  <PUBCHEM_CONFORMER_ID>  (1) 
00004BCA00000002

>  <PUBCHEM_MMFF94_ENERGY>  (1) 
76.5718

>  <PUBCHEM_FEATURE_SELFOVERLAP>  (1) 
40.679

>  <PUBCHEM_SHAPE_FINGERPRINT>  (1) 
10369192 42 17975412726555038644
10411042 1 18267867168945975350
11475781 23 13182468678073527913
12107183 9 18127140675980842633
12516196 113 18339922594062511070
12549972 3 17968673699481063427
12788726 201 17687459066772083418
133893 2 18198647547531454592
13533116 47 18411143558656586403
13544592 145 18261114058659022435
13590594 115 18194976144651328969
13757389 114 11103415309007267154
13782708 43 18409174325074498075
13955234 65 18341617078534271560
14178342 30 17755021139884197275
14347329 18 16372681822847549973
14866123 147 17618223905854401987
14950920 106 18124349114847558955
17349148 13 17561370547990506055
17844677 252 18412548700294451777
17980427 23 17631457773729980000
1813 80 17988088764293567326
1979834 28 18117279366281226477
20369508 70 18410294687908224230
20832881 197 18264211322695183267
21033648 29 17822284691974950037
21049683 271 18335993008429557948
21120745 212 17910412601998555412
2132832 1 17917155996104192745
21859007 373 17314761076665123685
22149856 69 17973468739475291019
22182313 1 17822837754618003701
23175994 123 18268427940949875895
23559900 14 18408884036206963867
244849 19 18189593004419719509
249057 25 17560806503437362953
283562 15 17903362507529676738
3004659 81 17749959830375068246
3411729 13 18338510958592122696
3421961 26 18411418397460490310
437815 12 18267587905381589287
4409770 3 17471013579793960220
495365 180 18272368723836175003
5104073 3 18335707169971673291
5265222 85 17759253182042196572
5385378 56 18341894151370327760
57724786 102 18272097110632182745
59755656 215 18338801216666423956
6086070 43 18193262011135861485
6371380 46 18116989980391293269
6679774 75 18117825815808560794
7495541 125 18334860493745772863
77188 2 18268431240091277500
81228 2 17696195803488393064
9709674 26 18335139855793869571
9841814 1 18410007711283921546
9981440 41 17906727351668724568

>  <PUBCHEM_SHAPE_MULTIPOLES>  (1) 
539.91
11.11
4.84
1.36
13.8
2.89
0.12
-6.25
0.11
-10.32
-0.66
-0.08
0.14
2.09

>  <PUBCHEM_SHAPE_SELFOVERLAP>  (1) 
1197.711

>  <PUBCHEM_SHAPE_VOLUME>  (1) 
288.6

>  <PUBCHEM_COORDINATE_TYPE>  (1) 
2
5
10

$$$$
