19407
     RDKit          3D

 13 12  0  0  0  0  0  0  0  0999 V2000
    2.9489    0.0955   -0.4623 O   0  0  0  0  0  0  0  0  0  0  0  0
   -2.9491    0.0954   -0.4623 O   0  0  0  0  0  0  0  0  0  0  0  0
    1.5089    0.0096    1.3250 O   0  0  0  0  0  0  0  0  0  0  0  0
   -1.5087    0.0094    1.3248 O   0  0  0  0  0  0  0  0  0  0  0  0
    1.2021   -1.3116   -0.5568 N   0  0  0  0  0  0  0  0  0  0  0  0
   -1.2023   -1.3117   -0.5568 N   0  0  0  0  0  0  0  0  0  0  0  0
    0.0000   -1.9981   -0.1313 C   0  0  0  0  0  0  0  0  0  0  0  0
    3.7237    1.0893    0.2177 C   0  0  0  0  0  0  0  0  0  0  0  0
   -3.7236    1.0895    0.2178 C   0  0  0  0  0  0  0  0  0  0  0  0
    1.8531   -0.3673    0.2095 C   0  0  0  0  0  0  0  0  0  0  0  0
   -1.8532   -0.3674    0.2094 C   0  0  0  0  0  0  0  0  0  0  0  0
    4.8901    1.4836   -0.6675 C   0  0  0  0  0  0  0  0  0  0  0  0
   -4.8900    1.4838   -0.6673 C   0  0  0  0  0  0  0  0  0  0  0  0
  1  8  1  0
  1 10  1  0
  2  9  1  0
  2 11  1  0
  3 10  2  0
  4 11  2  0
  5  7  1  0
  5 10  1  0
  6  7  1  0
  6 11  1  0
  8 12  1  0
  9 13  1  0
M  END
>  <PUBCHEM_COMPOUND_CID>  (1) 
19407

>  <PUBCHEM_CONFORMER_RMSD>  (1) 
0.8

>  <PUBCHEM_CONFORMER_DIVERSEORDER>  (1) 
1
4
10
58
14
21
17
15
3
7
52
55
6
5
27
24
42
28
2
20
29
23
38
61
22
51
25
11
50
13
16
26
59
40
9
44
63
31
54
8
39
62
35
19
18
48
46
53
57
34
56
41
32
30
33
43
37
12
45
49
60
47
36

>  <PUBCHEM_MMFF94_PARTIAL_CHARGES>  (1) 
13
1 -0.43
10 0.78
11 0.78
16 0.37
17 0.37
2 -0.43
3 -0.57
4 -0.57
5 -0.73
6 -0.73
7 0.6
8 0.28
9 0.28

>  <PUBCHEM_EFFECTIVE_ROTOR_COUNT>  (1) 
8

>  <PUBCHEM_PHARMACOPHORE_FEATURES>  (1) 
4
1 3 acceptor
1 4 acceptor
1 5 donor
1 6 donor

>  <PUBCHEM_HEAVY_ATOM_COUNT>  (1) 
13

>  <PUBCHEM_ATOM_DEF_STEREO_COUNT>  (1) 
0

>  <PUBCHEM_ATOM_UDEF_STEREO_COUNT>  (1) 
0

>  <PUBCHEM_BOND_DEF_STEREO_COUNT>  (1) 
0

>  <PUBCHEM_BOND_UDEF_STEREO_COUNT>  (1) 
0

>  <PUBCHEM_ISOTOPIC_ATOM_COUNT>  (1) 
0

>  <PUBCHEM_COMPONENT_COUNT>  (1) 
1

>  <PUBCHEM_CACTVS_TAUTO_COUNT>  (1) 
3

>  <PUBCHEM_CONFORMER_ID>  (1) 
00004BCF00000001

>  <PUBCHEM_MMFF94_ENERGY>  (1) 
4.5511

>  <PUBCHEM_FEATURE_SELFOVERLAP>  (1) 
20.329

>  <PUBCHEM_SHAPE_FINGERPRINT>  (1) 
100836 57 18408609162257597940
122479 349 18260551155596540706
12251169 10 13912324607395319586
14123255 352 18260545619468436797
14123255 52 18409166623268987260
1420 369 9223238455072618804
14251710 61 9655581807344283332
14252887 29 12829481528863046120
15501527 24 17917702497023816885
15775835 57 18411417314886054142
177051 138 10015865383729475676
17834072 32 18337956791520053164
17834072 8 18272379650939799654
20621476 21 14547870972141594133
20671657 53 12967131626947705634
20711983 171 18411416254530337686
20871998 22 11819266703117978891
20871999 31 17203315759057710415
21119208 17 15554445197661654933
21499 59 18341609287732706303
22485316 2 9511453420875949351
22926399 37 18202566163959825953
22926399 65 18271528697221559880
22959321 8 17846500352416529170
231179 274 18408325475609866244
23402655 69 17846780693432137853
23403322 49 10663830662710761404
23500284 214 18113903770777558409
270888 7 18334574637744561117
328317 168 18411695483160076701
4028521 119 18131072662125616856
449060 62 18270679758333495309
59345606 38 18409165515325791093

>  <PUBCHEM_SHAPE_MULTIPOLES>  (1) 
234.09
9.39
1.77
0.95
0
0.3
-0.22
-8.17
1.93
0
0.38
0
-0.03
0

>  <PUBCHEM_SHAPE_SELFOVERLAP>  (1) 
438.119

>  <PUBCHEM_SHAPE_VOLUME>  (1) 
144.7

>  <PUBCHEM_COORDINATE_TYPE>  (1) 
2
5
10

$$$$
