19401
     RDKit          3D

  8  8  0  0  1  0  0  0  0  0999 V2000
    0.9343   -1.7078   -0.2100 O   0  0  0  0  0  0  0  0  0  0  0  0
   -1.5623   -0.3189   -0.1500 N   0  0  0  0  0  0  0  0  0  0  0  0
   -2.7510    0.1076    0.5756 C   0  0  0  0  0  0  0  0  0  0  0  0
   -2.3520    0.7755   -0.6975 C   0  0  0  0  0  0  0  0  0  0  0  0
   -0.3575    0.1943    0.4986 C   0  0  0  0  0  0  0  0  0  0  0  0
    0.8952   -0.2812   -0.2425 C   0  0  0  0  0  0  0  0  0  0  0  0
    2.1362    0.2425    0.4235 C   0  0  0  0  0  0  0  0  0  0  0  0
    3.0571    0.9880   -0.1977 C   0  0  0  0  0  0  0  0  0  0  0  0
  1  6  1  0
  2  3  1  0
  2  4  1  0
  2  5  1  0
  3  4  1  0
  5  6  1  0
  6  7  1  0
  7  8  2  0
M  END
>  <PUBCHEM_COMPOUND_CID>  (1) 
19401

>  <PUBCHEM_CONFORMER_RMSD>  (1) 
0.6

>  <PUBCHEM_CONFORMER_DIVERSEORDER>  (1) 
2
7
8
3
5
4
6
1

>  <PUBCHEM_MMFF94_PARTIAL_CHARGES>  (1) 
16
1 -0.68
10 0.1
11 0.1
12 0.1
16 0.15
17 0.4
18 0.15
19 0.15
2 -0.59
3 -0.04
4 -0.04
5 0.27
6 0.42
7 -0.29
8 -0.3
9 0.1

>  <PUBCHEM_EFFECTIVE_ROTOR_COUNT>  (1) 
3.6

>  <PUBCHEM_PHARMACOPHORE_FEATURES>  (1) 
4
1 1 acceptor
1 1 donor
1 2 cation
1 8 hydrophobe

>  <PUBCHEM_HEAVY_ATOM_COUNT>  (1) 
8

>  <PUBCHEM_ATOM_DEF_STEREO_COUNT>  (1) 
0

>  <PUBCHEM_ATOM_UDEF_STEREO_COUNT>  (1) 
1

>  <PUBCHEM_BOND_DEF_STEREO_COUNT>  (1) 
0

>  <PUBCHEM_BOND_UDEF_STEREO_COUNT>  (1) 
0

>  <PUBCHEM_ISOTOPIC_ATOM_COUNT>  (1) 
0

>  <PUBCHEM_COMPONENT_COUNT>  (1) 
1

>  <PUBCHEM_CACTVS_TAUTO_COUNT>  (1) 
1

>  <PUBCHEM_CONFORMER_ID>  (1) 
00004BC900000002

>  <PUBCHEM_MMFF94_ENERGY>  (1) 
13.7844

>  <PUBCHEM_FEATURE_SELFOVERLAP>  (1) 
20.297

>  <PUBCHEM_SHAPE_FINGERPRINT>  (1) 
10857977 72 17313393348207765689
12897270 3 18273211997498904080
12932764 1 18410570695227614424
14325111 11 18411136969791677952
14390081 3 18411979156790946433
15310529 11 18272084959863344165
21040471 1 18342171228305392386
23211744 41 17967810539750533211
23235685 24 18412826906015040712
23552423 10 17985551052654254735
29004967 10 18335989692123811985
3248919 1 18341043026148236755
5460574 1 10231758889837017937

>  <PUBCHEM_SHAPE_MULTIPOLES>  (1) 
153.79
4.66
1.11
0.78
0.27
0.32
-0.02
-1.54
-0.04
0.41
0.16
-0.19
-0.06
0.15

>  <PUBCHEM_SHAPE_SELFOVERLAP>  (1) 
288.172

>  <PUBCHEM_SHAPE_VOLUME>  (1) 
97.7

>  <PUBCHEM_COORDINATE_TYPE>  (1) 
2
5
10

$$$$
