19408
     RDKit          3D

 11 11  0  0  0  0  0  0  0  0999 V2000
    4.3833   -0.0367    0.4710 Cl  0  0  0  0  0  0  0  0  0  0  0  0
   -5.0515   -0.0562    0.1417 S   0  0  0  0  0  0  0  0  0  0  0  0
   -2.3149    0.0377    0.5298 N   0  0  0  0  0  0  0  0  0  0  0  0
   -0.0414    0.0208   -0.4038 C   0  0  0  0  0  0  0  0  0  0  0  0
   -1.5043    0.0398   -0.6944 C   0  0  0  0  0  0  0  0  0  0  0  0
    0.6562    1.2198   -0.2580 C   0  0  0  0  0  0  0  0  0  0  0  0
    0.6291   -1.1960   -0.2790 C   0  0  0  0  0  0  0  0  0  0  0  0
    2.0245    1.2019    0.0126 C   0  0  0  0  0  0  0  0  0  0  0  0
    1.9974   -1.2139   -0.0083 C   0  0  0  0  0  0  0  0  0  0  0  0
    2.6951   -0.0148    0.1375 C   0  0  0  0  0  0  0  0  0  0  0  0
   -3.4735   -0.0024    0.3509 C   0  0  0  0  0  0  0  0  0  0  0  0
  1 10  1  0
  2 11  2  0
  3  5  1  0
  3 11  2  0
  4  5  1  0
  4  6  2  0
  4  7  1  0
  6  8  1  0
  7  9  2  0
  8 10  2  0
  9 10  1  0
M  END
>  <PUBCHEM_COMPOUND_CID>  (1) 
19408

>  <PUBCHEM_CONFORMER_RMSD>  (1) 
0.4

>  <PUBCHEM_CONFORMER_DIVERSEORDER>  (1) 
1
11
10
12
9
2
7
8
13
4
6
3
5

>  <PUBCHEM_MMFF94_PARTIAL_CHARGES>  (1) 
15
1 -0.18
10 0.18
11 0.57
14 0.15
15 0.15
16 0.15
17 0.15
2 -0.27
3 -0.55
4 -0.14
5 0.39
6 -0.15
7 -0.15
8 -0.15
9 -0.15

>  <PUBCHEM_EFFECTIVE_ROTOR_COUNT>  (1) 
2

>  <PUBCHEM_PHARMACOPHORE_FEATURES>  (1) 
3
1 2 acceptor
1 3 acceptor
6 4 6 7 8 9 10 rings

>  <PUBCHEM_HEAVY_ATOM_COUNT>  (1) 
11

>  <PUBCHEM_ATOM_DEF_STEREO_COUNT>  (1) 
0

>  <PUBCHEM_ATOM_UDEF_STEREO_COUNT>  (1) 
0

>  <PUBCHEM_BOND_DEF_STEREO_COUNT>  (1) 
0

>  <PUBCHEM_BOND_UDEF_STEREO_COUNT>  (1) 
0

>  <PUBCHEM_ISOTOPIC_ATOM_COUNT>  (1) 
0

>  <PUBCHEM_COMPONENT_COUNT>  (1) 
1

>  <PUBCHEM_CACTVS_TAUTO_COUNT>  (1) 
1

>  <PUBCHEM_CONFORMER_ID>  (1) 
00004BD000000001

>  <PUBCHEM_MMFF94_ENERGY>  (1) 
20.2877

>  <PUBCHEM_FEATURE_SELFOVERLAP>  (1) 
15.228

>  <PUBCHEM_SHAPE_FINGERPRINT>  (1) 
10219947 1 18410014333759306460
11062470 55 18113338609232445155
11471102 20 18410009940013102460
12032990 46 18336547106281308438
12251169 10 18411418427483121823
12346645 6 18131354081188638246
13922767 16 18412543219335978873
14251717 144 18410573981278788879
14252887 29 18339931428329859754
16945 1 18338784672525655220
200 152 18272360976290036637
20201158 50 18186805764049836603
20279233 1 17822298976650846587
20645477 70 18337950083108158559
20871998 22 18268433421533880334
22485316 2 16950280719624246259
23402539 116 17458054976635906351
23402655 69 18342171138385444501
26918003 58 18334297578658082987
2748010 2 18051399679155622700
4047638 21 14476961203047894122

>  <PUBCHEM_SHAPE_MULTIPOLES>  (1) 
227.11
8.4
1.15
0.75
7.23
0
0.01
-0.18
-1.86
-0.69
0.07
0.07
0
0

>  <PUBCHEM_SHAPE_SELFOVERLAP>  (1) 
448.83

>  <PUBCHEM_SHAPE_VOLUME>  (1) 
137

>  <PUBCHEM_COORDINATE_TYPE>  (1) 
2
5
10

$$$$
