19414
     RDKit          3D

 14 14  0  0  0  0  0  0  0  0999 V2000
   -3.3939   -0.4204   -0.0063 O   0  0  0  0  0  0  0  0  0  0  0  0
   -2.7240    1.7814    0.0332 O   0  0  0  0  0  0  0  0  0  0  0  0
   -0.7394   -2.5590   -0.0599 N   0  0  0  0  0  0  0  0  0  0  0  0
    1.3537    0.5236    0.0143 C   0  0  0  0  0  0  0  0  0  0  0  0
    2.0053    0.2960    1.2170 C   0  0  0  0  0  0  0  0  0  0  0  0
    2.0241    0.4239   -1.1955 C   0  0  0  0  0  0  0  0  0  0  0  0
   -0.0740    0.8774    0.0219 C   0  0  0  0  0  0  0  0  0  0  0  0
    3.3594   -0.0393    1.2097 C   0  0  0  0  0  0  0  0  0  0  0  0
    3.3780    0.0884   -1.2028 C   0  0  0  0  0  0  0  0  0  0  0  0
    4.0456   -0.1433   -0.0003 C   0  0  0  0  0  0  0  0  0  0  0  0
   -1.0977    0.0036   -0.0100 C   0  0  0  0  0  0  0  0  0  0  0  0
   -2.4742    0.5844    0.0091 C   0  0  0  0  0  0  0  0  0  0  0  0
   -0.8985   -1.4096   -0.0379 C   0  0  0  0  0  0  0  0  0  0  0  0
   -4.7645   -0.0072    0.0075 C   0  0  0  0  0  0  0  0  0  0  0  0
  1 12  1  0
  1 14  1  0
  2 12  2  0
  3 13  3  0
  4  5  2  0
  4  6  1  0
  4  7  1  0
  5  8  1  0
  6  9  2  0
  7 11  2  0
  8 10  2  0
  9 10  1  0
 11 12  1  0
 11 13  1  0
M  END
>  <PUBCHEM_COMPOUND_CID>  (1) 
19414

>  <PUBCHEM_CONFORMER_RMSD>  (1) 
0.6

>  <PUBCHEM_CONFORMER_DIVERSEORDER>  (1) 
1
7
5
3
6
4
2

>  <PUBCHEM_MMFF94_PARTIAL_CHARGES>  (1) 
20
1 -0.43
10 -0.15
11 0.08
12 0.71
13 0.49
14 0.28
15 0.15
16 0.15
17 0.15
18 0.15
19 0.15
2 -0.57
20 0.15
3 -0.56
4 0.03
5 -0.15
6 -0.15
7 -0.18
8 -0.15
9 -0.15

>  <PUBCHEM_EFFECTIVE_ROTOR_COUNT>  (1) 
3

>  <PUBCHEM_PHARMACOPHORE_FEATURES>  (1) 
3
1 2 acceptor
1 3 acceptor
6 4 5 6 8 9 10 rings

>  <PUBCHEM_HEAVY_ATOM_COUNT>  (1) 
14

>  <PUBCHEM_ATOM_DEF_STEREO_COUNT>  (1) 
0

>  <PUBCHEM_ATOM_UDEF_STEREO_COUNT>  (1) 
0

>  <PUBCHEM_BOND_DEF_STEREO_COUNT>  (1) 
0

>  <PUBCHEM_BOND_UDEF_STEREO_COUNT>  (1) 
1

>  <PUBCHEM_ISOTOPIC_ATOM_COUNT>  (1) 
0

>  <PUBCHEM_COMPONENT_COUNT>  (1) 
1

>  <PUBCHEM_CACTVS_TAUTO_COUNT>  (1) 
1

>  <PUBCHEM_CONFORMER_ID>  (1) 
00004BD600000001

>  <PUBCHEM_MMFF94_ENERGY>  (1) 
35.5562

>  <PUBCHEM_FEATURE_SELFOVERLAP>  (1) 
15.223

>  <PUBCHEM_SHAPE_FINGERPRINT>  (1) 
12236239 1 17749107790219123592
12500047 106 18342171172644890854
13538477 17 18041279984001712418
13581323 91 18410851066534932008
14115302 16 18409454712843363590
14144814 61 18260266339135423184
14993402 34 18186523210936062365
15279307 12 17967811673949389050
15279308 132 18344145890848391434
15342168 16 14853034943498327070
16945 1 18411136960890519975
17834072 33 16443352009009165211
18186145 218 17775288227070175721
18522853 295 18412267237485263682
19422 9 17603868888205954456
200 152 16515680048426643597
20201158 50 17418098710981333686
20279233 1 17846784031191432502
20510252 161 18273215270427839241
20645476 183 17677059052129778263
20645477 70 15213289803563451120
23048698 100 16950565484319214509
23402539 116 18272359880635753717
23402655 69 16153423943690763348
23526113 38 17703247143208397574
23559900 14 18201441398256483484
26918003 58 14620794898782567135
366044 4 18411136939806346507
43471831 8 18336825269506197475
465052 167 17822303417810658595
522135 26 16587739832823929080
57426455 114 18201997750554725074
57812782 119 17561362885341302765
69090 78 17346873472920523239
74978 22 18335984289060338676
77492 1 17748826319495195216
81228 2 17981313809861417067
8272917 22 16661198136198727955

>  <PUBCHEM_SHAPE_MULTIPOLES>  (1) 
271.39
7.69
1.43
1.04
3.45
0.79
0.01
-0.59
0.02
0.99
-0.04
-1.17
-0.08
-0.1

>  <PUBCHEM_SHAPE_SELFOVERLAP>  (1) 
564.619

>  <PUBCHEM_SHAPE_VOLUME>  (1) 
152.9

>  <PUBCHEM_COORDINATE_TYPE>  (1) 
2
5
10

$$$$
