19434
     RDKit          3D

 16 16  0  0  0  0  0  0  0  0999 V2000
    5.4953   -1.7033   -0.0874 Cl  0  0  0  0  0  0  0  0  0  0  0  0
   -0.3587    0.9177    0.4530 N   0  0  0  0  0  0  0  0  0  0  0  0
    0.5898    1.5905   -0.0021 N   0  0  0  0  0  0  0  0  0  0  0  0
   -3.6235    0.2687   -2.3388 N   0  0  0  0  0  0  0  0  0  0  0  0
   -4.8475   -1.9834    1.1819 N   0  0  0  0  0  0  0  0  0  0  0  0
   -2.7508    0.8120    0.9773 C   0  0  0  0  0  0  0  0  0  0  0  0
   -1.5990    1.6942    0.4945 C   0  0  0  0  0  0  0  0  0  0  0  0
   -2.9890   -0.4469    0.1185 C   0  0  0  0  0  0  0  0  0  0  0  0
    1.7566    0.8082   -0.0224 C   0  0  0  0  0  0  0  0  0  0  0  0
    2.0599    0.0496   -1.1487 C   0  0  0  0  0  0  0  0  0  0  0  0
    2.6003    0.7967    1.0843 C   0  0  0  0  0  0  0  0  0  0  0  0
    3.2177   -0.7280   -1.1687 C   0  0  0  0  0  0  0  0  0  0  0  0
    3.7582    0.0192    1.0644 C   0  0  0  0  0  0  0  0  0  0  0  0
    4.0670   -0.7432   -0.0622 C   0  0  0  0  0  0  0  0  0  0  0  0
   -3.3460   -0.0462   -1.2569 C   0  0  0  0  0  0  0  0  0  0  0  0
   -4.0301   -1.3056    0.7133 C   0  0  0  0  0  0  0  0  0  0  0  0
  1 14  1  0
  2  3  2  0
  2  7  1  0
  3  9  1  0
  4 15  3  0
  5 16  3  0
  6  7  1  0
  6  8  1  0
  8 15  1  0
  8 16  1  0
  9 10  2  0
  9 11  1  0
 10 12  1  0
 11 13  2  0
 12 14  2  0
 13 14  1  0
M  END
>  <PUBCHEM_COMPOUND_CID>  (1) 
19434

>  <PUBCHEM_CONFORMER_RMSD>  (1) 
0.6

>  <PUBCHEM_CONFORMER_DIVERSEORDER>  (1) 
2
25
31
28
8
9
13
29
3
30
6
22
4
23
24
11
19
10
16
18
14
12
20
27
15
21
17
1
26
7
5

>  <PUBCHEM_MMFF94_PARTIAL_CHARGES>  (1) 
19
1 -0.18
10 -0.15
11 -0.15
12 -0.15
13 -0.15
14 0.18
15 0.36
16 0.36
2 -0.25
22 0.15
23 0.15
24 0.15
25 0.15
3 -0.18
4 -0.56
5 -0.56
7 0.25
8 0.4
9 0.18

>  <PUBCHEM_EFFECTIVE_ROTOR_COUNT>  (1) 
4

>  <PUBCHEM_PHARMACOPHORE_FEATURES>  (1) 
3
1 4 acceptor
1 5 acceptor
6 9 10 11 12 13 14 rings

>  <PUBCHEM_HEAVY_ATOM_COUNT>  (1) 
16

>  <PUBCHEM_ATOM_DEF_STEREO_COUNT>  (1) 
0

>  <PUBCHEM_ATOM_UDEF_STEREO_COUNT>  (1) 
0

>  <PUBCHEM_BOND_DEF_STEREO_COUNT>  (1) 
0

>  <PUBCHEM_BOND_UDEF_STEREO_COUNT>  (1) 
0

>  <PUBCHEM_ISOTOPIC_ATOM_COUNT>  (1) 
0

>  <PUBCHEM_COMPONENT_COUNT>  (1) 
1

>  <PUBCHEM_CACTVS_TAUTO_COUNT>  (1) 
1

>  <PUBCHEM_CONFORMER_ID>  (1) 
00004BEA00000002

>  <PUBCHEM_MMFF94_ENERGY>  (1) 
24.457

>  <PUBCHEM_FEATURE_SELFOVERLAP>  (1) 
15.223

>  <PUBCHEM_SHAPE_FINGERPRINT>  (1) 
10498660 4 7925633276144249355
11046707 91 18338238167838661808
11543360 7 16588029047183962077
11552529 35 14404886029640389125
11796584 16 18116146676120564874
12346177 29 18200308806290037769
12363563 72 18410862078804861281
12403259 118 12823289122077067587
12553582 1 17774449385645248229
12633257 1 15985105231991186459
12916754 54 18041003981208884861
14123255 352 9007053552603031338
14123260 362 11746939776234316095
1420 369 18411987983054280555
14289901 80 16988839479850394720
14341114 328 15339120177599014186
18186145 218 17749107798503473481
19050596 39 16128655270926685528
193927 3 18341623615289833922
19433438 48 16558746828070230423
20112054 13 11240002247961764433
20281475 54 18336557057251197304
20645477 56 11170209647750876577
20671657 53 18261395567510369744
20871999 31 16153430549408558321
21503847 285 12967133839240997962
21713013 43 17822008748493785223
22646028 28 18408890650145272531
231179 274 8862946065345267996
23402539 116 18262240998148300412
23402655 69 13840270264990435088
23503953 91 15626229021894103939
25 1 12612753480466095992
26918003 58 17632295614665144832
27216 239 11240000057934605659
5104073 3 18059575746382998904
59027123 10 16298389049907130031
5924683 9 15769764767758840541
9882013 296 16056870368741977916

>  <PUBCHEM_SHAPE_MULTIPOLES>  (1) 
311.22
11.33
1.7
1.49
1.25
0.02
-0.55
-7.05
1.79
-0.26
0.42
-1.55
-0.35
0.86

>  <PUBCHEM_SHAPE_SELFOVERLAP>  (1) 
625.918

>  <PUBCHEM_SHAPE_VOLUME>  (1) 
179.1

>  <PUBCHEM_COORDINATE_TYPE>  (1) 
2
5
10

$$$$
