19430
     RDKit          3D

 20 23  0  0  0  0  0  0  0  0999 V2000
    0.0379   -0.9439    0.1570 C   0  0  0  0  0  0  0  0  0  0  0  0
   -1.3546   -1.1322    0.2011 C   0  0  0  0  0  0  0  0  0  0  0  0
    0.5873    0.3553    0.0270 C   0  0  0  0  0  0  0  0  0  0  0  0
   -2.2465   -0.0545    0.1191 C   0  0  0  0  0  0  0  0  0  0  0  0
   -1.7299    1.2473   -0.0104 C   0  0  0  0  0  0  0  0  0  0  0  0
    2.0191    0.5117   -0.0149 C   0  0  0  0  0  0  0  0  0  0  0  0
   -0.3345    1.4304   -0.0540 C   0  0  0  0  0  0  0  0  0  0  0  0
   -1.9135   -2.5244    0.3399 C   0  0  0  0  0  0  0  0  0  0  0  0
    2.8447   -0.6393    0.0749 C   0  0  0  0  0  0  0  0  0  0  0  0
    0.8834   -2.0533    0.2427 C   0  0  0  0  0  0  0  0  0  0  0  0
    2.2655   -1.9036    0.2023 C   0  0  0  0  0  0  0  0  0  0  0  0
   -3.6384   -0.2444    0.1632 C   0  0  0  0  0  0  0  0  0  0  0  0
   -2.6195    2.3324   -0.0931 C   0  0  0  0  0  0  0  0  0  0  0  0
    2.6811    1.7589   -0.1424 C   0  0  0  0  0  0  0  0  0  0  0  0
   -2.1504   -3.1762   -1.0136 C   0  0  0  0  0  0  0  0  0  0  0  0
    4.2447   -0.5214    0.0371 C   0  0  0  0  0  0  0  0  0  0  0  0
   -4.5083    0.8425    0.0800 C   0  0  0  0  0  0  0  0  0  0  0  0
   -3.9992    2.1304   -0.0481 C   0  0  0  0  0  0  0  0  0  0  0  0
    4.0744    1.8625   -0.1788 C   0  0  0  0  0  0  0  0  0  0  0  0
    4.8565    0.7218   -0.0890 C   0  0  0  0  0  0  0  0  0  0  0  0
  1  2  2  0
  1  3  1  0
  1 10  1  0
  2  4  1  0
  2  8  1  0
  3  6  1  0
  3  7  2  0
  4  5  2  0
  4 12  1  0
  5  7  1  0
  5 13  1  0
  6  9  2  0
  6 14  1  0
  8 15  1  0
  9 11  1  0
  9 16  1  0
 10 11  2  0
 12 17  2  0
 13 18  2  0
 14 19  2  0
 16 20  2  0
 17 18  1  0
 19 20  1  0
M  END
>  <PUBCHEM_COMPOUND_CID>  (1) 
19430

>  <PUBCHEM_CONFORMER_RMSD>  (1) 
0.6

>  <PUBCHEM_CONFORMER_DIVERSEORDER>  (1) 
1

>  <PUBCHEM_MMFF94_PARTIAL_CHARGES>  (1) 
24
10 -0.15
11 -0.15
12 -0.15
13 -0.15
14 -0.15
16 -0.15
17 -0.15
18 -0.15
19 -0.15
2 -0.14
20 -0.15
21 0.15
24 0.15
25 0.15
26 0.15
27 0.15
28 0.15
32 0.15
33 0.15
34 0.15
35 0.15
36 0.15
7 -0.15
8 0.14

>  <PUBCHEM_EFFECTIVE_ROTOR_COUNT>  (1) 
1

>  <PUBCHEM_PHARMACOPHORE_FEATURES>  (1) 
5
1 15 hydrophobe
6 1 2 3 4 5 7 rings
6 1 3 6 9 10 11 rings
6 4 5 12 13 17 18 rings
6 6 9 14 16 19 20 rings

>  <PUBCHEM_HEAVY_ATOM_COUNT>  (1) 
20

>  <PUBCHEM_ATOM_DEF_STEREO_COUNT>  (1) 
0

>  <PUBCHEM_ATOM_UDEF_STEREO_COUNT>  (1) 
0

>  <PUBCHEM_BOND_DEF_STEREO_COUNT>  (1) 
0

>  <PUBCHEM_BOND_UDEF_STEREO_COUNT>  (1) 
0

>  <PUBCHEM_ISOTOPIC_ATOM_COUNT>  (1) 
0

>  <PUBCHEM_COMPONENT_COUNT>  (1) 
1

>  <PUBCHEM_CACTVS_TAUTO_COUNT>  (1) 
1

>  <PUBCHEM_CONFORMER_ID>  (1) 
00004BE600000001

>  <PUBCHEM_MMFF94_ENERGY>  (1) 
76.3028

>  <PUBCHEM_FEATURE_SELFOVERLAP>  (1) 
25.446

>  <PUBCHEM_SHAPE_FINGERPRINT>  (1) 
10062212 137 18335974363591637690
10319926 262 18198321036171230912
10411042 1 17617661393862077075
10608611 8 18409167692726523384
10616163 171 18339363066691310686
10948715 1 18409449154834039483
10967382 1 18337673022919516864
11370993 70 18409445856172568560
11578080 2 13326019799003630250
12173636 292 18411133666655963535
12390115 104 18199767859575451897
12403814 3 17676482839649448773
12500047 106 18412258436965444384
12553582 1 17907570681593847915
12788726 201 18265601264428366779
13140716 1 18265618869018505073
13583140 156 16877933932590501305
138480 1 17473543547354107907
14790565 3 18268999691655790225
15042514 8 18265058097273229915
15196674 1 18409167684020310408
15442244 35 18336824170200044602
15536298 74 18340488859381869092
16087824 20 18339641244504879007
16945 1 18410286999768817963
17492 89 18409167740314854210
18186145 218 18198349450625106501
19591789 44 18337954489401381371
20510252 161 18196940078766098018
20739085 24 17903948585459948385
21267235 1 18409176488719286378
21501502 16 18336820978912756026
21524375 3 18334860463638439865
23227448 37 18411981385825953063
2334 1 18049725418729752115
23402539 116 18341887494186472829
23557571 272 18200323250211943126
23558518 356 17898294050539637736
23559900 14 18343865494641565002
238 59 17322633450590861765
25147074 1 18260256478555214906
2748010 2 18264496074816044373
335352 9 18337673001919577286
34934 24 18408037416147714466
350125 39 18337960115671369721
3545911 37 18411422808576746960
4214541 1 18410012139221195056
474 4 17676494977264041252
5104073 3 18335422331091428328
633830 44 17985547741508841421
69090 78 18410009914480597465
7364860 26 18267868285589772214
7832392 63 18409728461137017790
9709674 26 18412832373598365238

>  <PUBCHEM_SHAPE_MULTIPOLES>  (1) 
411.59
8.54
3.07
0.69
3.2
1.31
0.05
-3.92
0.19
-1.75
0.39
-0.11
0.18
-0.4

>  <PUBCHEM_SHAPE_SELFOVERLAP>  (1) 
936.765

>  <PUBCHEM_SHAPE_VOLUME>  (1) 
198.7

>  <PUBCHEM_COORDINATE_TYPE>  (1) 
2
5
10

$$$$
