1943
     RDKit          3D

 24 23  0  0  0  0  0  0  0  0999 V2000
    4.8179    1.0363    0.3936 P   0  0  0  0  0  0  0  0  0  0  0  0
   -0.0878    1.6414   -0.9697 O   0  0  0  0  0  0  0  0  0  0  0  0
    5.9401    2.0769    0.8959 O   0  0  0  0  0  0  0  0  0  0  0  0
    4.3013    0.3386    1.7502 O   0  0  0  0  0  0  0  0  0  0  0  0
    2.1113    0.1619   -0.4377 O   0  0  0  0  0  0  0  0  0  0  0  0
    5.2244    0.1140   -0.7035 O   0  0  0  0  0  0  0  0  0  0  0  0
    1.1534    2.2500   -0.7095 N   0  0  0  0  0  0  0  0  0  0  0  0
   -5.0966    0.0833    0.2481 C   0  0  0  0  0  0  0  0  0  0  0  0
   -2.0846   -2.5098    0.1491 C   0  0  0  0  0  0  0  0  0  0  0  0
   -4.9003    1.4018   -0.5085 C   0  0  0  0  0  0  0  0  0  0  0  0
   -3.1368   -1.5358    0.6370 C   0  0  0  0  0  0  0  0  0  0  0  0
   -4.0550   -0.9291   -0.1409 C   0  0  0  0  0  0  0  0  0  0  0  0
   -0.8053   -1.8429   -0.3753 C   0  0  0  0  0  0  0  0  0  0  0  0
   -3.5854    2.0650   -0.1613 C   0  0  0  0  0  0  0  0  0  0  0  0
   -3.0776   -1.2122    2.1093 C   0  0  0  0  0  0  0  0  0  0  0  0
    0.1572   -2.8247   -0.9834 C   0  0  0  0  0  0  0  0  0  0  0  0
   -2.4402    1.8973   -0.8501 C   0  0  0  0  0  0  0  0  0  0  0  0
   -3.6269    2.9836    1.0320 C   0  0  0  0  0  0  0  0  0  0  0  0
    1.1607   -3.4909   -0.3813 C   0  0  0  0  0  0  0  0  0  0  0  0
   -1.1183    2.5390   -0.5757 C   0  0  0  0  0  0  0  0  0  0  0  0
    2.0885   -4.4623   -1.0532 C   0  0  0  0  0  0  0  0  0  0  0  0
    1.4371   -3.2890    1.0853 C   0  0  0  0  0  0  0  0  0  0  0  0
    3.4431    2.1197   -0.0390 C   0  0  0  0  0  0  0  0  0  0  0  0
    2.1798    1.3878   -0.4114 C   0  0  0  0  0  0  0  0  0  0  0  0
  1  3  1  0
  1  4  1  0
  1  6  2  0
  1 23  1  0
  2  7  1  0
  2 20  1  0
  5 24  2  0
  7 24  1  0
  8 10  1  0
  8 12  1  0
  9 11  1  0
  9 13  1  0
 10 14  1  0
 11 12  2  0
 11 15  1  0
 13 16  1  0
 14 17  2  0
 14 18  1  0
 16 19  2  3
 17 20  1  0
 19 21  1  0
 19 22  1  0
 23 24  1  0
M  END
>  <PUBCHEM_COMPOUND_CID>  (1) 
1943

>  <PUBCHEM_CONFORMER_RMSD>  (1) 
1

>  <PUBCHEM_CONFORMER_DIVERSEORDER>  (1) 
1
47
231
20
31
221
162
173
135
157
72
203
131
209
198
3
137
234
136
158
111
220
165
65
170
140
217
63
8
59
126
87
98
163
202
235
14
222
95
30
38
115
96
113
213
61
17
62
73
11
106
69
227
237
212
167
9
10
191
112
57
175
148
48
85
60
185
75
92
116
29
188
193
45
168
233
174
71
104
78
5
84
160
90
201
211
110
76
216
194
156
118
169
28
41
186
102
107
164
228
119
187
177
134
77
21
219
195
55
6
155
128
64
27
182
146
178
80
105
147
18
13
200
53
152
210
54
153
70
129
204
218
81
49
151
171
229
52
91
179
130
12
236
89
40
93
190
4
139
150
109
43
103
16
183
172
88
35
74
124
117
101
161
67
142
66
225
37
127
199
206
166
149
33
26
226
133
19
123
223
143
108
232
82
94
86
42
56
23
2
141
196
180
36
192
197
230
46
15
125
51
205
99
50
138
7
114
34
39
215
154
24
68
22
58
132
189
120
83
207
122
32
176
44
145
144
181
97
184
121
224
214
25
208
159
79
100

>  <PUBCHEM_MMFF94_PARTIAL_CHARGES>  (1) 
30
1 1.24
10 0.14
11 -0.28
12 -0.29
13 0.14
14 -0.28
15 0.14
16 -0.29
17 -0.29
18 0.14
19 -0.28
2 -0.32
20 0.42
21 0.14
22 0.14
23 0.06
24 0.57
3 -0.77
31 0.15
37 0.15
38 0.15
4 -0.77
5 -0.57
52 0.37
53 0.5
54 0.5
6 -0.7
7 -0.39
8 0.14
9 0.14

>  <PUBCHEM_EFFECTIVE_ROTOR_COUNT>  (1) 
12

>  <PUBCHEM_PHARMACOPHORE_FEATURES>  (1) 
11
1 15 hydrophobe
1 18 hydrophobe
1 3 acceptor
1 4 acceptor
1 5 acceptor
1 6 acceptor
1 7 donor
3 19 21 22 hydrophobe
4 1 3 4 6 anion
4 8 10 12 14 hydrophobe
4 9 11 13 16 hydrophobe

>  <PUBCHEM_HEAVY_ATOM_COUNT>  (1) 
24

>  <PUBCHEM_ATOM_DEF_STEREO_COUNT>  (1) 
0

>  <PUBCHEM_ATOM_UDEF_STEREO_COUNT>  (1) 
0

>  <PUBCHEM_BOND_DEF_STEREO_COUNT>  (1) 
0

>  <PUBCHEM_BOND_UDEF_STEREO_COUNT>  (1) 
2

>  <PUBCHEM_ISOTOPIC_ATOM_COUNT>  (1) 
0

>  <PUBCHEM_COMPONENT_COUNT>  (1) 
1

>  <PUBCHEM_CACTVS_TAUTO_COUNT>  (1) 
2

>  <PUBCHEM_CONFORMER_ID>  (1) 
0000079700000001

>  <PUBCHEM_MMFF94_ENERGY>  (1) 
-2.6903

>  <PUBCHEM_FEATURE_SELFOVERLAP>  (1) 
55.866

>  <PUBCHEM_SHAPE_FINGERPRINT>  (1) 
10939801 23 18118403084576810792
11014199 57 17329426663203799150
11513181 2 18201435823125846111
12422481 6 18190442897349556282
12839892 36 18409158913776551012
13140716 1 18050017880944754579
13402501 40 18409450284721746349
14251757 5 17832168364757295748
14251764 38 18194962942211387619
14466204 15 18410571816330396192
14647877 51 18122908629402165454
15006816 218 18409735041132345653
16719943 64 18336826510851660794
20028762 73 18200028594123169327
21344244 246 18337940235327904399
23559900 14 18051408462142605983
238918 7 18341336673226255950
338550 245 18333735728200432790
4112364 45 17195481515841785809
5265222 85 18264782123896736516
57527585 103 17387441076031137219
59755656 215 18410579452697709918
9981440 41 18408887356406906475

>  <PUBCHEM_SHAPE_MULTIPOLES>  (1) 
463.43
11.14
5.34
1.29
5.98
4.42
-0.53
-7.52
-2.54
2.22
0.76
0.03
0.31
1.28

>  <PUBCHEM_SHAPE_SELFOVERLAP>  (1) 
873.391

>  <PUBCHEM_SHAPE_VOLUME>  (1) 
288.4

>  <PUBCHEM_COORDINATE_TYPE>  (1) 
2
5
10

$$$$
