19440
     RDKit          3D

 21 22  0  0  1  0  0  0  0  0999 V2000
    4.4289    2.7974   -1.0893 Cl  0  0  0  0  0  0  0  0  0  0  0  0
    0.1267   -0.5331    0.1831 N   0  0  0  0  0  0  0  0  0  0  0  0
    0.8265   -0.1016    1.1116 N   0  0  0  0  0  0  0  0  0  0  0  0
   -2.0731   -1.5673   -2.6947 N   0  0  0  0  0  0  0  0  0  0  0  0
   -0.5227   -4.1229    0.4880 N   0  0  0  0  0  0  0  0  0  0  0  0
   -1.2884   -0.6781    0.6184 C   0  0  0  0  0  0  0  0  0  0  0  0
   -2.1103    0.5524    0.4314 C   0  0  0  0  0  0  0  0  0  0  0  0
   -1.8809   -1.9368   -0.0895 C   0  0  0  0  0  0  0  0  0  0  0  0
   -1.8687    1.3941   -0.6544 C   0  0  0  0  0  0  0  0  0  0  0  0
   -3.1209    0.8614    1.3420 C   0  0  0  0  0  0  0  0  0  0  0  0
   -2.6374    2.5448   -0.8295 C   0  0  0  0  0  0  0  0  0  0  0  0
   -3.8896    2.0120    1.1667 C   0  0  0  0  0  0  0  0  0  0  0  0
   -3.6479    2.8537    0.0808 C   0  0  0  0  0  0  0  0  0  0  0  0
    2.1506    0.0180    0.6573 C   0  0  0  0  0  0  0  0  0  0  0  0
   -1.9868   -1.7312   -1.5491 C   0  0  0  0  0  0  0  0  0  0  0  0
   -1.1186   -3.1604    0.2323 C   0  0  0  0  0  0  0  0  0  0  0  0
    2.5780    1.2090    0.0775 C   0  0  0  0  0  0  0  0  0  0  0  0
    3.0263   -1.0555    0.7908 C   0  0  0  0  0  0  0  0  0  0  0  0
    3.8930    1.3273   -0.3728 C   0  0  0  0  0  0  0  0  0  0  0  0
    4.3410   -0.9372    0.3405 C   0  0  0  0  0  0  0  0  0  0  0  0
    4.7745    0.2542   -0.2411 C   0  0  0  0  0  0  0  0  0  0  0  0
  1 19  1  0
  2  3  2  0
  2  6  1  0
  3 14  1  0
  4 15  3  0
  5 16  3  0
  6  7  1  0
  6  8  1  0
  7  9  2  0
  7 10  1  0
  8 15  1  0
  8 16  1  0
  9 11  1  0
 10 12  2  0
 11 13  2  0
 12 13  1  0
 14 17  2  0
 14 18  1  0
 17 19  1  0
 18 20  2  0
 19 21  2  0
 20 21  1  0
M  END
>  <PUBCHEM_COMPOUND_CID>  (1) 
19440

>  <PUBCHEM_CONFORMER_RMSD>  (1) 
0.6

>  <PUBCHEM_CONFORMER_DIVERSEORDER>  (1) 
1
88
55
72
75
76
86
57
60
3
89
25
90
91
81
56
22
18
95
71
94
82
87
66
21
24
85
17
70
54
5
2
83
45
84
26
61
47
67
77
11
93
38
64
9
8
68
51
41
12
23
78
7
62
69
42
27
37
40
92
74
79
63
4
20
10
44
48
28
39
6
53
19
50
35
49
59
80
58
31
33
65
16
73
14
15
29
46
52
13
34
43
36
32
30

>  <PUBCHEM_MMFF94_PARTIAL_CHARGES>  (1) 
30
1 -0.18
10 -0.15
11 -0.15
12 -0.15
13 -0.15
14 0.18
15 0.36
16 0.36
17 -0.15
18 -0.15
19 0.18
2 -0.25
20 -0.15
21 -0.15
24 0.15
25 0.15
26 0.15
27 0.15
28 0.15
29 0.15
3 -0.18
30 0.15
31 0.15
32 0.15
4 -0.56
5 -0.56
6 0.39
7 -0.14
8 0.4
9 -0.15

>  <PUBCHEM_EFFECTIVE_ROTOR_COUNT>  (1) 
4

>  <PUBCHEM_PHARMACOPHORE_FEATURES>  (1) 
4
1 4 acceptor
1 5 acceptor
6 14 17 18 19 20 21 rings
6 7 9 10 11 12 13 rings

>  <PUBCHEM_HEAVY_ATOM_COUNT>  (1) 
21

>  <PUBCHEM_ATOM_DEF_STEREO_COUNT>  (1) 
0

>  <PUBCHEM_ATOM_UDEF_STEREO_COUNT>  (1) 
1

>  <PUBCHEM_BOND_DEF_STEREO_COUNT>  (1) 
0

>  <PUBCHEM_BOND_UDEF_STEREO_COUNT>  (1) 
0

>  <PUBCHEM_ISOTOPIC_ATOM_COUNT>  (1) 
0

>  <PUBCHEM_COMPONENT_COUNT>  (1) 
1

>  <PUBCHEM_CACTVS_TAUTO_COUNT>  (1) 
1

>  <PUBCHEM_CONFORMER_ID>  (1) 
00004BF000000001

>  <PUBCHEM_MMFF94_ENERGY>  (1) 
46.8714

>  <PUBCHEM_FEATURE_SELFOVERLAP>  (1) 
20.297

>  <PUBCHEM_SHAPE_FINGERPRINT>  (1) 
107951 10 18340221703716088046
12173636 292 18409164445678539022
12714826 92 17702951481606619778
12788726 201 18270955877301651063
13583140 156 17096079169607480041
14251751 93 18341890758113801547
16752209 62 18200573878654717755
18785283 64 17975985267185690979
21033650 10 16199607770338860936
21120745 212 17834697245642912921
21524375 3 18200872860265727977
21864079 5 18259702307209127848
22620623 9 16844428570950295021
22907989 373 18268700783068520223
23227448 37 18408610283275736732
23419403 2 12244248984351489135
23557571 272 18129673022815955676
23558518 356 18335413608408962738
3027735 51 17131540721969880871
3729539 64 17692841206154942694
469060 322 15285921462961908195
5048184 11 18410294696613917648
53777708 50 18262518212559554202
7615 1 18262498386753009274
7832392 63 18408323289719789696
81228 2 18054766628451838843

>  <PUBCHEM_SHAPE_MULTIPOLES>  (1) 
414.12
8.86
3.96
1.43
9.1
1.94
0.79
-6.52
0.03
-2.44
0.56
-1.06
0.31
-1.79

>  <PUBCHEM_SHAPE_SELFOVERLAP>  (1) 
870.635

>  <PUBCHEM_SHAPE_VOLUME>  (1) 
228.8

>  <PUBCHEM_COORDINATE_TYPE>  (1) 
2
5
10

$$$$
