1944
     RDKit          3D

 27 28  0  0  0  0  0  0  0  0999 V2000
    4.2287   -1.1359   -0.6622 S   0  0  0  0  0  0  0  0  0  0  0  0
    5.0062   -1.7036    0.4281 O   0  0  0  0  0  0  0  0  0  0  0  0
    4.2847   -1.7470   -1.9806 O   0  0  0  0  0  0  0  0  0  0  0  0
   -2.5091    0.1464   -0.8031 O   0  0  0  0  0  0  0  0  0  0  0  0
    5.4239    3.3257    1.3178 O   0  0  0  0  0  0  0  0  0  0  0  0
    6.2977    2.6571   -0.6732 O   0  0  0  0  0  0  0  0  0  0  0  0
   -1.4763   -0.9739    0.9835 N   0  0  0  0  0  0  0  0  0  0  0  0
    4.6088    0.5222   -0.8064 N   0  0  0  0  0  0  0  0  0  0  0  0
    2.5433   -1.0879   -0.1760 C   0  0  0  0  0  0  0  0  0  0  0  0
    1.5955   -0.4860   -1.0037 C   0  0  0  0  0  0  0  0  0  0  0  0
    2.1514   -1.6516    1.0382 C   0  0  0  0  0  0  0  0  0  0  0  0
   -0.1170   -1.0124    0.5914 C   0  0  0  0  0  0  0  0  0  0  0  0
    0.2559   -0.4479   -0.6172 C   0  0  0  0  0  0  0  0  0  0  0  0
    0.8116   -1.6137    1.4247 C   0  0  0  0  0  0  0  0  0  0  0  0
    1.9779    0.1273   -2.3115 C   0  0  0  0  0  0  0  0  0  0  0  0
    3.1383   -2.3044    1.9507 C   0  0  0  0  0  0  0  0  0  0  0  0
   -3.8485   -0.5895    1.0606 C   0  0  0  0  0  0  0  0  0  0  0  0
   -5.0521   -0.0757    0.3410 C   0  0  0  0  0  0  0  0  0  0  0  0
   -2.5456   -0.4180    0.2856 C   0  0  0  0  0  0  0  0  0  0  0  0
    4.4838    1.4093    0.3590 C   0  0  0  0  0  0  0  0  0  0  0  0
   -5.4736    1.2446    0.4991 C   0  0  0  0  0  0  0  0  0  0  0  0
   -5.7585   -0.9375   -0.4980 C   0  0  0  0  0  0  0  0  0  0  0  0
   -6.6016    1.7030   -0.1816 C   0  0  0  0  0  0  0  0  0  0  0  0
   -4.7333    2.1856    1.3920 C   0  0  0  0  0  0  0  0  0  0  0  0
   -6.8864   -0.4791   -1.1788 C   0  0  0  0  0  0  0  0  0  0  0  0
   -7.3080    0.8412   -1.0204 C   0  0  0  0  0  0  0  0  0  0  0  0
    5.5021    2.5017    0.2410 C   0  0  0  0  0  0  0  0  0  0  0  0
  1  2  2  0
  1  3  2  0
  1  8  1  0
  1  9  1  0
  4 19  2  0
  5 27  1  0
  6 27  2  0
  7 12  1  0
  7 19  1  0
  8 20  1  0
  9 10  2  0
  9 11  1  0
 10 13  1  0
 10 15  1  0
 11 14  2  0
 11 16  1  0
 12 13  2  0
 12 14  1  0
 17 18  1  0
 17 19  1  0
 18 21  2  0
 18 22  1  0
 20 27  1  0
 21 23  1  0
 21 24  1  0
 22 25  2  0
 23 26  2  0
 25 26  1  0
M  END
>  <PUBCHEM_COMPOUND_CID>  (1) 
1944

>  <PUBCHEM_CONFORMER_RMSD>  (1) 
1

>  <PUBCHEM_CONFORMER_DIVERSEORDER>  (1) 
1
37
59
5
53
43
12
44
67
21
24
49
19
23
46
60
10
31
18
34
35
61
9
50
63
38
11
25
48
13
39
51
30
56
26
65
45
32
28
66
54
58
15
55
4
41
33
3
47
22
16
40
42
20
62
8
27
14
6
36
52
57
7
17
2
29
64

>  <PUBCHEM_MMFF94_PARTIAL_CHARGES>  (1) 
36
1 1.45
10 -0.14
11 -0.14
12 0.12
13 -0.15
14 -0.15
15 0.14
16 0.14
17 0.2
18 -0.14
19 0.57
2 -0.65
20 0.42
21 -0.14
22 -0.15
23 -0.15
24 0.14
25 -0.15
26 -0.15
27 0.66
28 0.15
29 0.15
3 -0.65
36 0.37
37 0.42
4 -0.57
42 0.15
43 0.15
47 0.15
48 0.15
49 0.5
5 -0.65
6 -0.57
7 -0.55
8 -0.91
9 -0.01

>  <PUBCHEM_EFFECTIVE_ROTOR_COUNT>  (1) 
8

>  <PUBCHEM_PHARMACOPHORE_FEATURES>  (1) 
10
1 2 acceptor
1 3 acceptor
1 4 acceptor
1 5 acceptor
1 6 acceptor
1 7 donor
1 8 donor
3 5 6 27 anion
6 18 21 22 23 25 26 rings
6 9 10 11 12 13 14 rings

>  <PUBCHEM_HEAVY_ATOM_COUNT>  (1) 
27

>  <PUBCHEM_ATOM_DEF_STEREO_COUNT>  (1) 
0

>  <PUBCHEM_ATOM_UDEF_STEREO_COUNT>  (1) 
0

>  <PUBCHEM_BOND_DEF_STEREO_COUNT>  (1) 
0

>  <PUBCHEM_BOND_UDEF_STEREO_COUNT>  (1) 
0

>  <PUBCHEM_ISOTOPIC_ATOM_COUNT>  (1) 
0

>  <PUBCHEM_COMPONENT_COUNT>  (1) 
1

>  <PUBCHEM_CACTVS_TAUTO_COUNT>  (1) 
2

>  <PUBCHEM_CONFORMER_ID>  (1) 
0000079800000001

>  <PUBCHEM_MMFF94_ENERGY>  (1) 
69.3863

>  <PUBCHEM_FEATURE_SELFOVERLAP>  (1) 
50.823

>  <PUBCHEM_SHAPE_FINGERPRINT>  (1) 
10 15 15864075394299480276
10595046 47 18272369763687778431
11089746 13 18336831905072232394
11991303 11 16702013219171493037
12236239 1 18334294237179255855
12596602 18 18412262839939717655
13533116 47 17823133441182931002
13668630 136 12535339100654145285
13690498 29 12607140499106656467
14528608 73 18410292493485735219
14739800 52 18410567392556448808
15183329 4 17846502521638861721
15961568 22 18341895207769180665
18335252 114 17988929990174839396
19489759 90 18059852806539672683
20511986 3 18186511104066936903
20645477 70 12751229298745507819
21033648 144 18113330921563128839
21150785 3 17846494859833644749
21344244 181 11167944688147224500
21403212 168 18336256938802480944
21475661 188 18266740371644234216
21792934 111 16806152273248026725
23081809 10 16486982760819491043
23516275 100 18337386166445341220
23559900 14 17168433666087234499
249057 25 17845942827307444738
2748736 6 18114181990037722749
300161 21 17967813830370949019
33382 64 7853579006732677432
3472631 163 18341613750040001510
34797466 226 18131075926543374479
4072396 5 16153420666936872730
5104073 3 17603871096135818979
543368 44 18408040719948138897
57091435 61 18339077198496040464

>  <PUBCHEM_SHAPE_MULTIPOLES>  (1) 
520.19
19.51
2.68
1.67
18.8
1.94
0.28
11.16
2.67
-5.01
-1.17
-0.89
-0.3
-0.18

>  <PUBCHEM_SHAPE_SELFOVERLAP>  (1) 
1087.465

>  <PUBCHEM_SHAPE_VOLUME>  (1) 
295.3

>  <PUBCHEM_COORDINATE_TYPE>  (1) 
2
5
10

$$$$
