19459
     RDKit          3D

 28 29  0  0  0  0  0  0  0  0999 V2000
   -2.1575    2.5710   -0.1962 S   0  0  0  0  0  0  0  0  0  0  0  0
    2.1155   -2.5498    0.0914 S   0  0  0  0  0  0  0  0  0  0  0  0
   -1.3374    2.7423    1.2057 O   0  0  0  0  0  0  0  0  0  0  0  0
    1.2820   -2.6287   -1.3109 O   0  0  0  0  0  0  0  0  0  0  0  0
   -1.1903    2.6856   -1.2752 O   0  0  0  0  0  0  0  0  0  0  0  0
   -3.3273    3.4311   -0.1475 O   0  0  0  0  0  0  0  0  0  0  0  0
    3.2511   -3.4487   -0.0339 O   0  0  0  0  0  0  0  0  0  0  0  0
    1.1737   -2.6849    1.1892 O   0  0  0  0  0  0  0  0  0  0  0  0
   -6.4517   -1.9847    0.1682 O   0  0  0  0  0  0  0  0  0  0  0  0
    6.4963    1.9350   -0.0597 O   0  0  0  0  0  0  0  0  0  0  0  0
   -6.7763    0.1838    0.2747 O   0  0  0  0  0  0  0  0  0  0  0  0
    6.7771   -0.2303   -0.2875 O   0  0  0  0  0  0  0  0  0  0  0  0
   -6.0168   -0.8077    0.1537 N   0  0  0  0  0  0  0  0  0  0  0  0
    6.0383    0.7676   -0.1061 N   0  0  0  0  0  0  0  0  0  0  0  0
   -1.8827   -0.1678   -0.3146 C   0  0  0  0  0  0  0  0  0  0  0  0
    1.9118    0.1849    0.3603 C   0  0  0  0  0  0  0  0  0  0  0  0
   -2.7454    0.9199   -0.1789 C   0  0  0  0  0  0  0  0  0  0  0  0
    2.7358   -0.9118    0.1588 C   0  0  0  0  0  0  0  0  0  0  0  0
   -0.4450    0.0064   -0.4792 C   0  0  0  0  0  0  0  0  0  0  0  0
    0.4563    0.0281    0.5288 C   0  0  0  0  0  0  0  0  0  0  0  0
   -4.1154    0.7081   -0.0235 C   0  0  0  0  0  0  0  0  0  0  0  0
    4.1085   -0.7184    0.0038 C   0  0  0  0  0  0  0  0  0  0  0  0
   -2.3896   -1.4670   -0.2951 C   0  0  0  0  0  0  0  0  0  0  0  0
    2.4285    1.4714    0.4102 C   0  0  0  0  0  0  0  0  0  0  0  0
   -4.6224   -0.5914   -0.0040 C   0  0  0  0  0  0  0  0  0  0  0  0
    4.6412    0.5699    0.0520 C   0  0  0  0  0  0  0  0  0  0  0  0
   -3.7594   -1.6788   -0.1397 C   0  0  0  0  0  0  0  0  0  0  0  0
    3.8010    1.6647    0.2552 C   0  0  0  0  0  0  0  0  0  0  0  0
  1  3  1  0
  1  5  2  0
  1  6  2  0
  1 17  1  0
  2  4  1  0
  2  7  2  0
  2  8  2  0
  2 18  1  0
  9 13  1  0
 10 14  1  0
 11 13  2  0
 12 14  2  0
 13 25  1  0
 14 26  1  0
 15 17  2  0
 15 19  1  0
 15 23  1  0
 16 18  2  0
 16 20  1  0
 16 24  1  0
 17 21  1  0
 18 22  1  0
 19 20  2  0
 21 25  2  0
 22 26  2  0
 23 27  2  0
 24 28  2  0
 25 27  1  0
 26 28  1  0
M  CHG  4   9  -1  10  -1  13   1  14   1
M  END
>  <PUBCHEM_COMPOUND_CID>  (1) 
19459

>  <PUBCHEM_CONFORMER_RMSD>  (1) 
0.8

>  <PUBCHEM_CONFORMER_DIVERSEORDER>  (1) 
1
2
5
3
4

>  <PUBCHEM_MMFF94_PARTIAL_CHARGES>  (1) 
38
1 1.49
10 -0.52
11 -0.52
12 -0.52
13 0.91
14 0.91
15 0.03
16 0.03
17 -0.01
18 -0.01
19 -0.18
2 1.49
20 -0.18
21 -0.15
22 -0.15
23 -0.15
24 -0.15
25 0.13
26 0.13
27 -0.15
28 -0.15
29 0.15
3 -0.68
30 0.15
31 0.15
32 0.15
33 0.15
34 0.15
35 0.15
36 0.15
37 0.5
38 0.5
4 -0.68
5 -0.65
6 -0.65
7 -0.65
8 -0.65
9 -0.52

>  <PUBCHEM_EFFECTIVE_ROTOR_COUNT>  (1) 
6

>  <PUBCHEM_PHARMACOPHORE_FEATURES>  (1) 
16
1 10 acceptor
1 10 anion
1 11 acceptor
1 12 acceptor
1 3 acceptor
1 4 acceptor
1 5 acceptor
1 6 acceptor
1 7 acceptor
1 8 acceptor
1 9 acceptor
1 9 anion
4 1 3 5 6 anion
4 2 4 7 8 anion
6 15 17 21 23 25 27 rings
6 16 18 22 24 26 28 rings

>  <PUBCHEM_HEAVY_ATOM_COUNT>  (1) 
28

>  <PUBCHEM_ATOM_DEF_STEREO_COUNT>  (1) 
0

>  <PUBCHEM_ATOM_UDEF_STEREO_COUNT>  (1) 
0

>  <PUBCHEM_BOND_DEF_STEREO_COUNT>  (1) 
0

>  <PUBCHEM_BOND_UDEF_STEREO_COUNT>  (1) 
1

>  <PUBCHEM_ISOTOPIC_ATOM_COUNT>  (1) 
0

>  <PUBCHEM_COMPONENT_COUNT>  (1) 
1

>  <PUBCHEM_CACTVS_TAUTO_COUNT>  (1) 
1

>  <PUBCHEM_CONFORMER_ID>  (1) 
00004C0300000001

>  <PUBCHEM_MMFF94_ENERGY>  (1) 
77.572

>  <PUBCHEM_FEATURE_SELFOVERLAP>  (1) 
81.486

>  <PUBCHEM_SHAPE_FINGERPRINT>  (1) 
10050765 1 18265895744048240114
10616163 171 18412542098096203118
11488393 25 17773615836031785318
11578080 2 17242435132358125367
11963148 33 18335693996332277106
12107183 9 17764310535601245659
12166972 35 17458625657024448548
12553582 1 18268693048196383939
12788726 201 18335414647901292273
13140716 1 18122060072465100451
13383665 225 18042141872285175948
13402501 40 18410574028106483514
13631057 29 18412823599032803521
14341114 176 18410577266664857414
14617045 38 18413110575820246819
14840074 17 18130782391451510719
15196674 1 18338515218592732642
17492 89 18267300937215702707
1813 80 17458349624198128023
18608769 82 18339922713872871218
18681886 176 18410852205413870488
19611394 137 17898301738679343491
20286276 3 18123473769588304543
21267235 1 18409453626237795025
21344244 181 17560817528392182646
21521721 280 18271528718875809912
221357 26 18343301474750839064
22393880 68 18268716017902957958
2297311 6 18342181076417664261
23557571 272 18341898480291037084
23559900 14 18338790212775491425
350125 39 18412825802398615984
3545911 37 18410291423558596597
4073 2 18187651348537275403
4461854 278 17913785074576443591
46194498 28 18059584525133374974
469060 322 18336275599560228161
5104073 3 18269266863894702090
5486654 2 18336549425252418406
59755656 215 18411139138745180158
59755656 520 17240477052515655219
6009941 240 17675925409514849915
9709674 26 18337955593155501787

>  <PUBCHEM_SHAPE_MULTIPOLES>  (1) 
515.27
14.6
3.49
0.81
0.24
0.04
-0.02
-0.03
0.18
-0.12
-0.08
0
0.01
0.21

>  <PUBCHEM_SHAPE_SELFOVERLAP>  (1) 
1089.357

>  <PUBCHEM_SHAPE_VOLUME>  (1) 
289.2

>  <PUBCHEM_COORDINATE_TYPE>  (1) 
2
5
10

$$$$
