19453
     RDKit          3D

 12 12  0  0  0  0  0  0  0  0999 V2000
   -3.2617    2.0168    0.1840 Cl  0  0  0  0  0  0  0  0  0  0  0  0
   -1.6593   -2.9167   -0.2137 Cl  0  0  0  0  0  0  0  0  0  0  0  0
    1.5414    0.8545   -0.0712 N   0  0  0  0  0  0  0  0  0  0  0  0
   -0.0044   -0.9076   -0.1361 N   0  0  0  0  0  0  0  0  0  0  0  0
   -0.7435    1.3679    0.0472 N   0  0  0  0  0  0  0  0  0  0  0  0
   -2.3496   -0.4137   -0.0168 N   0  0  0  0  0  0  0  0  0  0  0  0
    2.6775   -0.0604   -0.1736 C   0  0  0  0  0  0  0  0  0  0  0  0
    2.9692   -0.6955    1.1832 C   0  0  0  0  0  0  0  0  0  0  0  0
    3.8937    0.6970   -0.6970 C   0  0  0  0  0  0  0  0  0  0  0  0
    0.2336    0.4282   -0.0530 C   0  0  0  0  0  0  0  0  0  0  0  0
   -1.9940    0.8789    0.0593 C   0  0  0  0  0  0  0  0  0  0  0  0
   -1.3028   -1.2493   -0.1122 C   0  0  0  0  0  0  0  0  0  0  0  0
  1 11  1  0
  2 12  1  0
  3  7  1  0
  3 10  1  0
  4 10  2  0
  4 12  1  0
  5 10  1  0
  5 11  2  0
  6 11  1  0
  6 12  2  0
  7  8  1  0
  7  9  1  0
M  END
>  <PUBCHEM_COMPOUND_CID>  (1) 
19453

>  <PUBCHEM_CONFORMER_RMSD>  (1) 
0.6

>  <PUBCHEM_CONFORMER_DIVERSEORDER>  (1) 
1
3
4
2

>  <PUBCHEM_MMFF94_PARTIAL_CHARGES>  (1) 
11
1 -0.18
10 0.72
11 0.8
12 0.8
14 0.4
2 -0.18
3 -0.87
4 -0.62
5 -0.62
6 -0.62
7 0.37

>  <PUBCHEM_EFFECTIVE_ROTOR_COUNT>  (1) 
2

>  <PUBCHEM_PHARMACOPHORE_FEATURES>  (1) 
4
1 3 donor
3 7 8 9 hydrophobe
4 3 4 5 10 cation
6 4 5 6 10 11 12 rings

>  <PUBCHEM_HEAVY_ATOM_COUNT>  (1) 
12

>  <PUBCHEM_ATOM_DEF_STEREO_COUNT>  (1) 
0

>  <PUBCHEM_ATOM_UDEF_STEREO_COUNT>  (1) 
0

>  <PUBCHEM_BOND_DEF_STEREO_COUNT>  (1) 
0

>  <PUBCHEM_BOND_UDEF_STEREO_COUNT>  (1) 
0

>  <PUBCHEM_ISOTOPIC_ATOM_COUNT>  (1) 
0

>  <PUBCHEM_COMPONENT_COUNT>  (1) 
1

>  <PUBCHEM_CACTVS_TAUTO_COUNT>  (1) 
3

>  <PUBCHEM_CONFORMER_ID>  (1) 
00004BFD00000001

>  <PUBCHEM_MMFF94_ENERGY>  (1) 
22.4431

>  <PUBCHEM_FEATURE_SELFOVERLAP>  (1) 
20.297

>  <PUBCHEM_SHAPE_FINGERPRINT>  (1) 
12138202 97 18341897376568539487
12500047 106 18341889675992805656
12716758 59 18343580737397275787
12932764 1 17822005402698567476
13380535 76 18269552754504104167
14144814 61 18408321077500116624
14325111 11 18410013199967340892
15279307 12 18261111850929775066
15669948 3 18410571820730780526
15775835 57 18260271815387589076
16945 1 18412822512289799099
20510252 161 18273501169331348705
20524608 308 18343866632064327511
20645476 183 18187380812788915822
20715346 28 17489304247984894642
20871998 184 18129668632879331631
21524375 3 18198616632303986557
23402539 116 18271515477528455607
23463225 33 18189611644846568370
23552423 10 17972316484472264836
23559900 14 18273500044872674284
23598294 1 18409167735628633051
2748010 2 18195822773289508391
3071541 12 17548143225402546253
53748568 43 18186524315185807818
7364860 26 17550385142522798679
81228 2 18267010842560823803
81539 233 18046907078939763357
88987 49 18341323461948577048

>  <PUBCHEM_SHAPE_MULTIPOLES>  (1) 
230.77
5.76
2.37
0.78
3.93
1.55
-0.12
-2.06
0.01
-2.66
0.12
0.53
0.06
-0.63

>  <PUBCHEM_SHAPE_SELFOVERLAP>  (1) 
445.922

>  <PUBCHEM_SHAPE_VOLUME>  (1) 
137.2

>  <PUBCHEM_COORDINATE_TYPE>  (1) 
2
5
10

$$$$
