19467
     RDKit          3D

 29 33  0  0  1  0  0  0  0  0999 V2000
   -1.3156    1.5312    0.4866 O   0  0  0  0  0  0  0  0  0  0  0  0
   -0.5342   -3.2419   -0.0352 O   0  0  0  0  0  0  0  0  0  0  0  0
    6.6111    0.4269   -0.6053 O   0  0  0  0  0  0  0  0  0  0  0  0
   -5.0652    1.5249   -0.1921 O   0  0  0  0  0  0  0  0  0  0  0  0
   -7.1181    1.1009    0.6873 O   0  0  0  0  0  0  0  0  0  0  0  0
   -0.4281    0.5648   -0.0977 C   0  0  0  0  0  0  0  0  0  0  0  0
    0.9639    0.7236    0.5791 C   0  0  0  0  0  0  0  0  0  0  0  0
    1.9649   -0.4100    0.2083 C   0  0  0  0  0  0  0  0  0  0  0  0
   -1.0488   -0.8517    0.0769 C   0  0  0  0  0  0  0  0  0  0  0  0
    3.3686   -0.2354    0.9093 C   0  0  0  0  0  0  0  0  0  0  0  0
    3.9363    1.1878    0.5999 C   0  0  0  0  0  0  0  0  0  0  0  0
   -0.0020   -1.9431   -0.3004 C   0  0  0  0  0  0  0  0  0  0  0  0
    1.3212   -1.7870    0.4511 C   0  0  0  0  0  0  0  0  0  0  0  0
   -2.1964   -0.8582   -0.9879 C   0  0  0  0  0  0  0  0  0  0  0  0
    1.5733    2.1154    0.3161 C   0  0  0  0  0  0  0  0  0  0  0  0
   -0.4448    0.7776   -1.6232 C   0  0  0  0  0  0  0  0  0  0  0  0
    2.9396    2.2956    0.9691 C   0  0  0  0  0  0  0  0  0  0  0  0
   -1.6341   -0.0313   -2.1605 C   0  0  0  0  0  0  0  0  0  0  0  0
    4.4098   -1.2903    0.4301 C   0  0  0  0  0  0  0  0  0  0  0  0
   -1.5830   -1.1008    1.5065 C   0  0  0  0  0  0  0  0  0  0  0  0
    4.3910    1.3447   -0.8709 C   0  0  0  0  0  0  0  0  0  0  0  0
    3.2524   -0.4192    2.4457 C   0  0  0  0  0  0  0  0  0  0  0  0
    4.8352   -1.1319   -1.0287 C   0  0  0  0  0  0  0  0  0  0  0  0
    5.3791    0.2648   -1.3051 C   0  0  0  0  0  0  0  0  0  0  0  0
   -3.5165   -0.2962   -0.5432 C   0  0  0  0  0  0  0  0  0  0  0  0
   -4.5056   -1.1995   -0.0153 C   0  0  0  0  0  0  0  0  0  0  0  0
   -3.8324    1.0013   -0.6072 C   0  0  0  0  0  0  0  0  0  0  0  0
   -5.6961   -0.7507    0.3940 C   0  0  0  0  0  0  0  0  0  0  0  0
   -6.0252    0.6878    0.3129 C   0  0  0  0  0  0  0  0  0  0  0  0
  1  6  1  0
  2 12  1  0
  3 24  1  0
  4 27  1  0
  4 29  1  0
  5 29  2  0
  6  7  1  0
  6  9  1  0
  6 16  1  0
  7  8  1  0
  7 15  1  0
  8 10  1  0
  8 13  1  0
  9 12  1  0
  9 14  1  0
  9 20  1  0
 10 11  1  0
 10 19  1  0
 10 22  1  0
 11 17  1  0
 11 21  1  0
 12 13  1  0
 14 18  1  0
 14 25  1  0
 15 17  1  0
 16 18  1  0
 19 23  1  0
 21 24  1  0
 23 24  1  0
 25 26  1  0
 25 27  2  0
 26 28  2  0
 28 29  1  0
M  END
>  <PUBCHEM_COMPOUND_CID>  (1) 
19467

>  <PUBCHEM_CONFORMER_RMSD>  (1) 
0.8

>  <PUBCHEM_CONFORMER_DIVERSEORDER>  (1) 
1
9
5
7
8
15
6
2
14
10
3
4
13
12
11
16

>  <PUBCHEM_MMFF94_PARTIAL_CHARGES>  (1) 
20
1 -0.68
12 0.28
14 0.14
2 -0.68
24 0.28
25 -0.14
26 -0.15
27 -0.07
28 -0.14
29 0.71
3 -0.68
4 -0.23
5 -0.57
58 0.4
59 0.4
6 0.28
60 0.15
61 0.15
62 0.4
63 0.15

>  <PUBCHEM_EFFECTIVE_ROTOR_COUNT>  (1) 
3.2

>  <PUBCHEM_PHARMACOPHORE_FEATURES>  (1) 
12
1 1 acceptor
1 1 donor
1 2 acceptor
1 2 donor
1 3 acceptor
1 3 donor
1 5 acceptor
5 6 9 14 16 18 rings
6 10 11 19 21 23 24 rings
6 4 25 26 27 28 29 rings
6 6 7 8 9 12 13 rings
6 7 8 10 11 15 17 rings

>  <PUBCHEM_HEAVY_ATOM_COUNT>  (1) 
29

>  <PUBCHEM_ATOM_DEF_STEREO_COUNT>  (1) 
7

>  <PUBCHEM_ATOM_UDEF_STEREO_COUNT>  (1) 
2

>  <PUBCHEM_BOND_DEF_STEREO_COUNT>  (1) 
0

>  <PUBCHEM_BOND_UDEF_STEREO_COUNT>  (1) 
0

>  <PUBCHEM_ISOTOPIC_ATOM_COUNT>  (1) 
0

>  <PUBCHEM_COMPONENT_COUNT>  (1) 
1

>  <PUBCHEM_CACTVS_TAUTO_COUNT>  (1) 
1

>  <PUBCHEM_CONFORMER_ID>  (1) 
00004C0B00000001

>  <PUBCHEM_MMFF94_ENERGY>  (1) 
115.9928

>  <PUBCHEM_FEATURE_SELFOVERLAP>  (1) 
61.131

>  <PUBCHEM_SHAPE_FINGERPRINT>  (1) 
10 15 18113341886925761329
10165383 225 18259708900115510446
10674148 151 18343588426401591800
11488393 25 17772205119204791711
11578080 2 18125438872204230496
11796584 16 15123505934723419556
12011746 2 18411425007388798090
12166972 35 16487248915837566353
12236239 1 18113057125201673772
12403259 415 18261664930906055317
12788726 201 18201722812518538288
13140716 1 18192695951077511418
13224815 77 17894901954210000790
13914758 101 14404914544107413099
14251758 9 17418373588735355325
14341114 176 18408324389305121153
14787075 74 14490474200958802421
14790565 3 18409452487649897277
14840074 17 17821730546161010839
14856354 85 18335708277783533175
14955137 171 18114753710794345565
15142383 8 17703790293299338912
15183329 4 15554450682318924759
15238133 3 18261662706455497848
15301273 46 17530684291272298797
15475509 8 18059309664273937132
15788980 27 13973965428429894783
15840311 113 18342741819465017493
1601671 61 18409164394070054406
17349148 13 11815903387506721082
1813 80 16443059508993954461
18470217 77 14172364965890751744
18608769 82 18335140942140656778
19319366 153 17530676615902296218
20691752 17 17314772191602563466
20715895 44 12103579571185675811
20739085 24 18333449837470353605
20832881 197 18202282485601394128
21033648 29 18340202002589636601
21279426 13 18341334379323050541
22149856 69 11242249585901022109
23402539 116 12607406581031405835
23522609 53 18042145205264271077
23559900 14 18060415863392522784
3004659 81 18334860477336043406
3009799 131 10159700170987111447
335352 9 18413669115100815758
350125 39 18410293592538595852
3633792 109 13973969800806965490
38695281 34 17918276441803781895
404807 14 14256058145701878076
4058900 60 18188777128564231003
4093350 32 17275103968763225120
4325135 7 12901547957353231044
474113 269 12966302492497338772
5104073 3 18337099168318438451
542803 24 18113898268834781311
58260988 393 14996276994328598341
59755656 215 17489595519476163133
633830 44 18200861976333309900
6913067 236 9655578491486911162
8988823 20 9655568604857681314

>  <PUBCHEM_SHAPE_MULTIPOLES>  (1) 
567.46
13.69
2.15
1.5
8.21
0.4
0.02
-3.04
-0.17
-0.36
0.24
-0.91
0.02
-0.01

>  <PUBCHEM_SHAPE_SELFOVERLAP>  (1) 
1229.883

>  <PUBCHEM_SHAPE_VOLUME>  (1) 
306.6

>  <PUBCHEM_COORDINATE_TYPE>  (1) 
2
5
10

$$$$
