19468
     RDKit          3D

 13 13  0  0  0  0  0  0  0  0999 V2000
    0.2848    2.6741    0.0004 Cl  0  0  0  0  0  0  0  0  0  0  0  0
    1.6162   -2.6042   -0.0006 Cl  0  0  0  0  0  0  0  0  0  0  0  0
   -2.7712    1.8598   -0.0004 Cl  0  0  0  0  0  0  0  0  0  0  0  0
   -3.5443   -1.2349   -0.0003 Cl  0  0  0  0  0  0  0  0  0  0  0  0
    3.0345   -0.5465    0.0001 O   0  0  0  0  0  0  0  0  0  0  0  0
    2.4820    1.5826   -0.0008 O   0  0  0  0  0  0  0  0  0  0  0  0
    2.1828    0.3687    0.0001 N   0  0  0  0  0  0  0  0  0  0  0  0
    0.8001    0.0101    0.0003 C   0  0  0  0  0  0  0  0  0  0  0  0
   -0.1855    0.9971    0.0002 C   0  0  0  0  0  0  0  0  0  0  0  0
    0.4381   -1.3370    0.0004 C   0  0  0  0  0  0  0  0  0  0  0  0
   -1.5330    0.6371    0.0001 C   0  0  0  0  0  0  0  0  0  0  0  0
   -0.9095   -1.6970    0.0004 C   0  0  0  0  0  0  0  0  0  0  0  0
   -1.8950   -0.7099    0.0001 C   0  0  0  0  0  0  0  0  0  0  0  0
  1  9  1  0
  2 10  1  0
  3 11  1  0
  4 13  1  0
  5  7  1  0
  6  7  2  0
  7  8  1  0
  8  9  2  0
  8 10  1  0
  9 11  1  0
 10 12  2  0
 11 13  2  0
 12 13  1  0
M  CHG  2   5  -1   7   1
M  END
>  <PUBCHEM_COMPOUND_CID>  (1) 
19468

>  <PUBCHEM_CONFORMER_RMSD>  (1) 
0.4

>  <PUBCHEM_CONFORMER_DIVERSEORDER>  (1) 
1

>  <PUBCHEM_MMFF94_PARTIAL_CHARGES>  (1) 
14
1 -0.18
10 0.18
11 0.18
12 -0.15
13 0.18
14 0.15
2 -0.18
3 -0.18
4 -0.18
5 -0.52
6 -0.52
7 0.91
8 0.13
9 0.18

>  <PUBCHEM_EFFECTIVE_ROTOR_COUNT>  (1) 
1

>  <PUBCHEM_PHARMACOPHORE_FEATURES>  (1) 
4
1 5 acceptor
1 5 anion
1 6 acceptor
6 8 9 10 11 12 13 rings

>  <PUBCHEM_HEAVY_ATOM_COUNT>  (1) 
13

>  <PUBCHEM_ATOM_DEF_STEREO_COUNT>  (1) 
0

>  <PUBCHEM_ATOM_UDEF_STEREO_COUNT>  (1) 
0

>  <PUBCHEM_BOND_DEF_STEREO_COUNT>  (1) 
0

>  <PUBCHEM_BOND_UDEF_STEREO_COUNT>  (1) 
0

>  <PUBCHEM_ISOTOPIC_ATOM_COUNT>  (1) 
0

>  <PUBCHEM_COMPONENT_COUNT>  (1) 
1

>  <PUBCHEM_CACTVS_TAUTO_COUNT>  (1) 
1

>  <PUBCHEM_CONFORMER_ID>  (1) 
00004C0C00000001

>  <PUBCHEM_MMFF94_ENERGY>  (1) 
57.4184

>  <PUBCHEM_FEATURE_SELFOVERLAP>  (1) 
20.377

>  <PUBCHEM_SHAPE_FINGERPRINT>  (1) 
10967382 1 18122625212989031719
11206711 2 18409449215253667429
11471102 20 18338229487883901423
12382932 28 18339919303526140721
12423570 1 9695957171311991161
12524768 44 18196375810189235679
13140716 1 18194401091701132779
13380535 21 18266470814673709815
13380535 76 18266734688906167943
13897977 150 18338794499068170853
14325111 11 18410855464439141729
16945 1 18338797939368610375
17990270 104 18338234856012973986
193761 8 18266459793576664167
21501502 16 18337953372662476563
2334 1 18410856525628425191
23402539 116 18271231824344092142
23463225 33 18408319965008621914
23526114 1 18339361859942624583
23552423 10 18335424521503766302
23559900 14 18271251535135631446
241688 4 18265897947530117019
2748010 2 18339361851399987391
5084963 1 18058734739787878323
528886 8 18339356349314655737
53812653 166 18342735191649634161
66348 1 18267585710642296448
7364860 26 18342455885737032658

>  <PUBCHEM_SHAPE_MULTIPOLES>  (1) 
258.29
4.34
2.94
0.61
0.95
0.46
0
-0.59
0
-0.25
0
0.07
-0.01
0

>  <PUBCHEM_SHAPE_SELFOVERLAP>  (1) 
513.672

>  <PUBCHEM_SHAPE_VOLUME>  (1) 
157.1

>  <PUBCHEM_COORDINATE_TYPE>  (1) 
2
5
10

$$$$
