19462
     RDKit          3D

  7  7  0  0  0  0  0  0  0  0999 V2000
   -0.7461    1.1127    0.0001 O   0  0  0  0  0  0  0  0  0  0  0  0
    1.1412   -0.1076   -0.0002 C   0  0  0  0  0  0  0  0  0  0  0  0
   -1.0874   -0.2026   -0.0001 C   0  0  0  0  0  0  0  0  0  0  0  0
    0.0377   -0.9938   -0.0001 C   0  0  0  0  0  0  0  0  0  0  0  0
    0.6118    1.1619   -0.0001 C   0  0  0  0  0  0  0  0  0  0  0  0
    2.5694   -0.4696    0.0002 C   0  0  0  0  0  0  0  0  0  0  0  0
   -2.5265   -0.5010    0.0001 C   0  0  0  0  0  0  0  0  0  0  0  0
  1  3  1  0
  1  5  1  0
  2  4  1  0
  2  5  2  0
  2  6  1  0
  3  4  2  0
  3  7  1  0
M  END
>  <PUBCHEM_COMPOUND_CID>  (1) 
19462

>  <PUBCHEM_CONFORMER_RMSD>  (1) 
0.4

>  <PUBCHEM_CONFORMER_DIVERSEORDER>  (1) 
1

>  <PUBCHEM_MMFF94_PARTIAL_CHARGES>  (1) 
9
1 -0.28
2 -0.18
3 -0.04
4 -0.15
5 -0.01
6 0.18
7 0.18
8 0.15
9 0.15

>  <PUBCHEM_EFFECTIVE_ROTOR_COUNT>  (1) 
0

>  <PUBCHEM_PHARMACOPHORE_FEATURES>  (1) 
2
1 1 acceptor
5 1 2 3 4 5 rings

>  <PUBCHEM_HEAVY_ATOM_COUNT>  (1) 
7

>  <PUBCHEM_ATOM_DEF_STEREO_COUNT>  (1) 
0

>  <PUBCHEM_ATOM_UDEF_STEREO_COUNT>  (1) 
0

>  <PUBCHEM_BOND_DEF_STEREO_COUNT>  (1) 
0

>  <PUBCHEM_BOND_UDEF_STEREO_COUNT>  (1) 
0

>  <PUBCHEM_ISOTOPIC_ATOM_COUNT>  (1) 
0

>  <PUBCHEM_COMPONENT_COUNT>  (1) 
1

>  <PUBCHEM_CACTVS_TAUTO_COUNT>  (1) 
1

>  <PUBCHEM_CONFORMER_ID>  (1) 
00004C0600000001

>  <PUBCHEM_MMFF94_ENERGY>  (1) 
2.2503

>  <PUBCHEM_FEATURE_SELFOVERLAP>  (1) 
10.148

>  <PUBCHEM_SHAPE_FINGERPRINT>  (1) 
16714656 1 18412266120862280110
21040471 1 18050567644652394245
23552423 10 18044383725291952878
29004967 10 18410296925411819875
5460574 1 9223232944434009282

>  <PUBCHEM_SHAPE_MULTIPOLES>  (1) 
138.19
3.02
1.16
0.6
0.1
0.23
0
-0.76
0
-0.05
0
-0.01
-0.02
0

>  <PUBCHEM_SHAPE_SELFOVERLAP>  (1) 
281.02

>  <PUBCHEM_SHAPE_VOLUME>  (1) 
83.8

>  <PUBCHEM_COORDINATE_TYPE>  (1) 
2
5
10

$$$$
