19469
     RDKit          3D

  6  6  0  0  0  0  0  0  0  0999 V2000
   -1.0091   -1.2847    0.0935 O   0  0  0  0  0  0  0  0  0  0  0  0
    0.4657    0.5155   -0.0987 N   0  0  0  0  0  0  0  0  0  0  0  0
   -1.8033    0.8669   -0.0407 N   0  0  0  0  0  0  0  0  0  0  0  0
    1.5836   -0.1522   -0.6981 C   0  0  0  0  0  0  0  0  0  0  0  0
    1.5551    0.1326    0.7506 C   0  0  0  0  0  0  0  0  0  0  0  0
   -0.7920   -0.0780   -0.0066 C   0  0  0  0  0  0  0  0  0  0  0  0
  1  6  2  0
  2  4  1  0
  2  5  1  0
  2  6  1  0
  3  6  1  0
  4  5  1  0
M  END
>  <PUBCHEM_COMPOUND_CID>  (1) 
19469

>  <PUBCHEM_CONFORMER_RMSD>  (1) 
0.4

>  <PUBCHEM_CONFORMER_DIVERSEORDER>  (1) 
1
4
3
2

>  <PUBCHEM_MMFF94_PARTIAL_CHARGES>  (1) 
12
1 -0.57
10 0.1
11 0.37
12 0.37
2 -0.36
3 -0.8
4 -0.05
5 -0.05
6 0.69
7 0.1
8 0.1
9 0.1

>  <PUBCHEM_EFFECTIVE_ROTOR_COUNT>  (1) 
1.6

>  <PUBCHEM_PHARMACOPHORE_FEATURES>  (1) 
2
1 1 acceptor
1 3 donor

>  <PUBCHEM_HEAVY_ATOM_COUNT>  (1) 
6

>  <PUBCHEM_ATOM_DEF_STEREO_COUNT>  (1) 
0

>  <PUBCHEM_ATOM_UDEF_STEREO_COUNT>  (1) 
0

>  <PUBCHEM_BOND_DEF_STEREO_COUNT>  (1) 
0

>  <PUBCHEM_BOND_UDEF_STEREO_COUNT>  (1) 
0

>  <PUBCHEM_ISOTOPIC_ATOM_COUNT>  (1) 
0

>  <PUBCHEM_COMPONENT_COUNT>  (1) 
1

>  <PUBCHEM_CACTVS_TAUTO_COUNT>  (1) 
2

>  <PUBCHEM_CONFORMER_ID>  (1) 
00004C0D00000001

>  <PUBCHEM_MMFF94_ENERGY>  (1) 
19.1186

>  <PUBCHEM_FEATURE_SELFOVERLAP>  (1) 
10.148

>  <PUBCHEM_SHAPE_FINGERPRINT>  (1) 
139733 1 9654762671007406355
16714656 1 18261405394426749956
20096714 4 18040442083105778156
21040471 1 18337390422608620597
24536 1 18342735260268779980
29004967 10 17060348422107759174
5460574 1 9223228546303076189
5943 1 15179206424744649282

>  <PUBCHEM_SHAPE_MULTIPOLES>  (1) 
107.65
2.26
0.95
0.77
0.06
0.18
0.01
-0.22
-0.01
0.38
0.03
-0.32
0
0.12

>  <PUBCHEM_SHAPE_SELFOVERLAP>  (1) 
206.246

>  <PUBCHEM_SHAPE_VOLUME>  (1) 
67.3

>  <PUBCHEM_COORDINATE_TYPE>  (1) 
2
5
10

$$$$
