19465
     RDKit          3D

 17 18  0  0  0  0  0  0  0  0999 V2000
    4.9391    0.3671    2.1510 N   0  0  0  0  0  0  0  0  0  0  0  0
    3.5852   -2.1121   -1.3086 N   0  0  0  0  0  0  0  0  0  0  0  0
   -1.9706   -0.5059   -0.1075 C   0  0  0  0  0  0  0  0  0  0  0  0
   -0.0315    0.7812   -0.8157 C   0  0  0  0  0  0  0  0  0  0  0  0
   -2.6928    0.6971    0.0780 C   0  0  0  0  0  0  0  0  0  0  0  0
   -0.6407   -0.4465   -0.5550 C   0  0  0  0  0  0  0  0  0  0  0  0
    1.3818    0.8259   -1.2913 C   0  0  0  0  0  0  0  0  0  0  0  0
   -0.7416    1.9641   -0.6332 C   0  0  0  0  0  0  0  0  0  0  0  0
   -2.0637    1.9239   -0.1894 C   0  0  0  0  0  0  0  0  0  0  0  0
   -2.5996   -1.7327    0.1601 C   0  0  0  0  0  0  0  0  0  0  0  0
   -4.0226    0.6377    0.5258 C   0  0  0  0  0  0  0  0  0  0  0  0
   -3.9215   -1.7730    0.6043 C   0  0  0  0  0  0  0  0  0  0  0  0
   -4.6316   -0.5901    0.7868 C   0  0  0  0  0  0  0  0  0  0  0  0
    2.3806    0.9045   -0.1582 C   0  0  0  0  0  0  0  0  0  0  0  0
    3.3376    0.0098    0.1520 C   0  0  0  0  0  0  0  0  0  0  0  0
    4.2186    0.2090    1.2552 C   0  0  0  0  0  0  0  0  0  0  0  0
    3.4731   -1.1601   -0.6543 C   0  0  0  0  0  0  0  0  0  0  0  0
  1 16  3  0
  2 17  3  0
  3  5  2  0
  3  6  1  0
  3 10  1  0
  4  6  2  0
  4  7  1  0
  4  8  1  0
  5  9  1  0
  5 11  1  0
  7 14  1  0
  8  9  2  0
 10 12  2  0
 11 13  2  0
 12 13  1  0
 14 15  2  3
 15 16  1  0
 15 17  1  0
M  END
>  <PUBCHEM_COMPOUND_CID>  (1) 
19465

>  <PUBCHEM_CONFORMER_RMSD>  (1) 
0.6

>  <PUBCHEM_CONFORMER_DIVERSEORDER>  (1) 
1
15
20
9
12
7
18
21
22
13
19
25
11
17
23
16
6
24
10
5
3
8
4
14
2

>  <PUBCHEM_MMFF94_PARTIAL_CHARGES>  (1) 
23
1 -0.56
10 -0.15
11 -0.15
12 -0.15
13 -0.15
14 -0.29
15 0.13
16 0.49
17 0.49
18 0.15
2 -0.56
21 0.15
22 0.15
23 0.15
24 0.15
25 0.15
26 0.15
27 0.15
4 -0.14
6 -0.15
7 0.28
8 -0.15
9 -0.15

>  <PUBCHEM_EFFECTIVE_ROTOR_COUNT>  (1) 
2

>  <PUBCHEM_PHARMACOPHORE_FEATURES>  (1) 
4
1 1 acceptor
1 2 acceptor
6 3 4 5 6 8 9 rings
6 3 5 10 11 12 13 rings

>  <PUBCHEM_HEAVY_ATOM_COUNT>  (1) 
17

>  <PUBCHEM_ATOM_DEF_STEREO_COUNT>  (1) 
0

>  <PUBCHEM_ATOM_UDEF_STEREO_COUNT>  (1) 
0

>  <PUBCHEM_BOND_DEF_STEREO_COUNT>  (1) 
0

>  <PUBCHEM_BOND_UDEF_STEREO_COUNT>  (1) 
0

>  <PUBCHEM_ISOTOPIC_ATOM_COUNT>  (1) 
0

>  <PUBCHEM_COMPONENT_COUNT>  (1) 
1

>  <PUBCHEM_CACTVS_TAUTO_COUNT>  (1) 
1

>  <PUBCHEM_CONFORMER_ID>  (1) 
00004C0900000001

>  <PUBCHEM_MMFF94_ENERGY>  (1) 
36.2986

>  <PUBCHEM_FEATURE_SELFOVERLAP>  (1) 
20.324

>  <PUBCHEM_SHAPE_FINGERPRINT>  (1) 
10062212 137 18113900502824521331
11132069 177 18410012126394042607
11543360 7 13262690282474119539
11578080 2 17096627946322475252
12251169 10 18201720690693683396
12507560 40 18130505245601237172
12553582 1 17895197688114312758
12633257 1 18058999705174015208
12670546 177 12107798440134885817
12892183 10 17846503629402619121
13533116 47 17846226492580604983
13583140 156 17131541847150805123
13675066 3 18343865498034536853
14123260 362 12463571815412078504
14178342 30 18115860803054833104
1420 369 17458335321888544970
14252887 29 18411984654823624658
14866123 147 16903292798222248638
15342168 16 14979675537107216504
15342816 4 17458348546108556302
15880784 105 17275102834121875327
15885798 251 18187651323004328381
17804303 29 18339656546117165389
17977361 122 17967808379645909651
1813 80 17386012783754544853
193927 3 17822871865063742803
19784866 240 16226037869517285234
200 152 15213294205999971808
204376 136 15410897378960283165
20671657 53 16877660201239307165
21065199 12 18202001001976739488
22646028 28 17967535704761594037
22959321 94 18186237342228796280
23366157 5 17607252248884036421
23402539 116 18341891897087081477
23559900 14 18341061705045397078
2838139 119 16055201151905543497
351380 3 17385438817621517818
474 4 13973970904196842092
5104073 3 18271810055923021818
5924683 9 17917140719369990983
90316 7 18260552199543281821
9709674 26 18335712679465537174

>  <PUBCHEM_SHAPE_MULTIPOLES>  (1) 
339.89
9.85
1.96
1.28
4.16
0.12
-0.37
3.44
-4.38
-0.89
0.44
1.88
0.09
0.89

>  <PUBCHEM_SHAPE_SELFOVERLAP>  (1) 
732.64

>  <PUBCHEM_SHAPE_VOLUME>  (1) 
182.4

>  <PUBCHEM_COORDINATE_TYPE>  (1) 
2
5
10

$$$$
