19478
     RDKit          3D

 13 15  0  0  0  0  0  0  0  0999 V2000
    2.2029    0.0003   -0.4113 N   0  0  0  0  0  0  0  0  0  0  0  0
    0.7549    0.0058   -0.2113 C   0  0  0  0  0  0  0  0  0  0  0  0
   -1.0863   -0.0299    1.5205 C   0  0  0  0  0  0  0  0  0  0  0  0
   -1.3944    1.2733   -0.6159 C   0  0  0  0  0  0  0  0  0  0  0  0
   -1.3932   -1.2477   -0.6661 C   0  0  0  0  0  0  0  0  0  0  0  0
    0.4374   -0.0245    1.2999 C   0  0  0  0  0  0  0  0  0  0  0  0
    0.1302    1.2752   -0.8306 C   0  0  0  0  0  0  0  0  0  0  0  0
    0.1312   -1.2396   -0.8810 C   0  0  0  0  0  0  0  0  0  0  0  0
   -1.6932    1.2364    0.8926 C   0  0  0  0  0  0  0  0  0  0  0  0
   -1.6916   -1.2710    0.8427 C   0  0  0  0  0  0  0  0  0  0  0  0
   -1.9981    0.0253   -1.2823 C   0  0  0  0  0  0  0  0  0  0  0  0
    2.7956   -1.2031    0.1717 C   0  0  0  0  0  0  0  0  0  0  0  0
    2.8045    1.1996    0.1713 C   0  0  0  0  0  0  0  0  0  0  0  0
  1  2  1  0
  1 12  1  0
  1 13  1  0
  2  6  1  0
  2  7  1  0
  2  8  1  0
  3  6  1  0
  3  9  1  0
  3 10  1  0
  4  7  1  0
  4  9  1  0
  4 11  1  0
  5  8  1  0
  5 10  1  0
  5 11  1  0
M  END
>  <PUBCHEM_COMPOUND_CID>  (1) 
19478

>  <PUBCHEM_CONFORMER_RMSD>  (1) 
0.6

>  <PUBCHEM_CONFORMER_DIVERSEORDER>  (1) 
1

>  <PUBCHEM_MMFF94_PARTIAL_CHARGES>  (1) 
4
1 -0.81
12 0.27
13 0.27
2 0.27

>  <PUBCHEM_EFFECTIVE_ROTOR_COUNT>  (1) 
2.2

>  <PUBCHEM_PHARMACOPHORE_FEATURES>  (1) 
5
1 1 cation
6 2 3 4 6 7 9 rings
6 2 3 5 6 8 10 rings
6 2 4 5 7 8 11 rings
6 3 4 5 9 10 11 rings

>  <PUBCHEM_HEAVY_ATOM_COUNT>  (1) 
13

>  <PUBCHEM_ATOM_DEF_STEREO_COUNT>  (1) 
0

>  <PUBCHEM_ATOM_UDEF_STEREO_COUNT>  (1) 
0

>  <PUBCHEM_BOND_DEF_STEREO_COUNT>  (1) 
0

>  <PUBCHEM_BOND_UDEF_STEREO_COUNT>  (1) 
0

>  <PUBCHEM_ISOTOPIC_ATOM_COUNT>  (1) 
0

>  <PUBCHEM_COMPONENT_COUNT>  (1) 
1

>  <PUBCHEM_CACTVS_TAUTO_COUNT>  (1) 
1

>  <PUBCHEM_CONFORMER_ID>  (1) 
00004C1600000001

>  <PUBCHEM_MMFF94_ENERGY>  (1) 
40.8408

>  <PUBCHEM_FEATURE_SELFOVERLAP>  (1) 
37.892

>  <PUBCHEM_SHAPE_FINGERPRINT>  (1) 
10702982 57 17532920619854017999
12423570 1 13696160535485722541
12491281 212 18340207392810821044
13024252 1 15791451530271971965
144361 1 18338781373521318869
14817 1 12598914773710068281
15557651 10 18119243957025364657
16945 1 18116424839223426154
20653085 51 18335977554377655789
2748010 2 18334859424309127926
369184 2 18113335318965749576
5084963 1 18198887146112551846
528886 8 18268135479504610405

>  <PUBCHEM_SHAPE_MULTIPOLES>  (1) 
262.55
3.35
1.58
1.37
2.51
0.01
0.25
0
-0.02
-0.07
-0.12
-0.61
-0.01
0

>  <PUBCHEM_SHAPE_SELFOVERLAP>  (1) 
563.473

>  <PUBCHEM_SHAPE_VOLUME>  (1) 
141.2

>  <PUBCHEM_COORDINATE_TYPE>  (1) 
2
5
10

$$$$
