19484
     RDKit          3D

 29 32  0  0  0  0  0  0  0  0999 V2000
    2.1573   -0.5791   -0.4628 O   0  0  0  0  0  0  0  0  0  0  0  0
   -1.8008   -0.0062    0.0554 O   0  0  0  0  0  0  0  0  0  0  0  0
    0.3568   -1.4552    0.6728 O   0  0  0  0  0  0  0  0  0  0  0  0
   -3.3845    3.7395   -0.1180 O   0  0  0  0  0  0  0  0  0  0  0  0
    7.6301   -0.1859    0.8195 N   0  0  0  0  0  0  0  0  0  0  0  0
    5.0616   -0.7626   -0.4809 C   0  0  0  0  0  0  0  0  0  0  0  0
    5.3830   -1.2257    0.9456 C   0  0  0  0  0  0  0  0  0  0  0  0
    6.3607   -0.5737   -1.2747 C   0  0  0  0  0  0  0  0  0  0  0  0
    4.1296   -1.7477   -1.1807 C   0  0  0  0  0  0  0  0  0  0  0  0
    6.4026   -0.3008    1.6099 C   0  0  0  0  0  0  0  0  0  0  0  0
    7.3422    0.3247   -0.5226 C   0  0  0  0  0  0  0  0  0  0  0  0
    2.7905   -1.8631   -0.4687 C   0  0  0  0  0  0  0  0  0  0  0  0
    0.9337   -0.4989    0.1420 C   0  0  0  0  0  0  0  0  0  0  0  0
    0.3961    0.8540    0.0805 C   0  0  0  0  0  0  0  0  0  0  0  0
   -0.9788    1.0881    0.0376 C   0  0  0  0  0  0  0  0  0  0  0  0
   -1.4627    2.3909   -0.0214 C   0  0  0  0  0  0  0  0  0  0  0  0
   -3.1696    0.1929    0.0103 C   0  0  0  0  0  0  0  0  0  0  0  0
   -3.7808    1.3936   -0.0413 C   0  0  0  0  0  0  0  0  0  0  0  0
    1.2843    1.9295    0.0642 C   0  0  0  0  0  0  0  0  0  0  0  0
   -2.9166    2.6091   -0.0643 C   0  0  0  0  0  0  0  0  0  0  0  0
   -0.5762    3.4714   -0.0385 C   0  0  0  0  0  0  0  0  0  0  0  0
    0.7987    3.2360    0.0047 C   0  0  0  0  0  0  0  0  0  0  0  0
   -3.9114   -1.0751    0.0307 C   0  0  0  0  0  0  0  0  0  0  0  0
   -5.2607    1.6460   -0.0680 C   0  0  0  0  0  0  0  0  0  0  0  0
   -4.2342   -1.7144   -1.1668 C   0  0  0  0  0  0  0  0  0  0  0  0
   -4.2936   -1.6410    1.2475 C   0  0  0  0  0  0  0  0  0  0  0  0
   -4.9387   -2.9181   -1.1475 C   0  0  0  0  0  0  0  0  0  0  0  0
   -4.9980   -2.8449    1.2666 C   0  0  0  0  0  0  0  0  0  0  0  0
   -5.3205   -3.4833    0.0690 C   0  0  0  0  0  0  0  0  0  0  0  0
  1 12  1  0
  1 13  1  0
  2 15  1  0
  2 17  1  0
  3 13  2  0
  4 20  2  0
  5 10  1  0
  5 11  1  0
  6  7  1  0
  6  8  1  0
  6  9  1  0
  7 10  1  0
  8 11  1  0
  9 12  1  0
 13 14  1  0
 14 15  2  0
 14 19  1  0
 15 16  1  0
 16 20  1  0
 16 21  2  0
 17 18  2  0
 17 23  1  0
 18 20  1  0
 18 24  1  0
 19 22  2  0
 21 22  1  0
 23 25  2  0
 23 26  1  0
 25 27  1  0
 26 28  2  0
 27 29  2  0
 28 29  1  0
M  END
>  <PUBCHEM_COMPOUND_CID>  (1) 
19484

>  <PUBCHEM_CONFORMER_RMSD>  (1) 
0.8

>  <PUBCHEM_CONFORMER_DIVERSEORDER>  (1) 
2
17
11
66
42
52
18
120
109
63
104
25
80
98
6
115
112
29
53
117
37
103
73
1
54
13
119
114
108
14
22
21
41
58
10
33
87
8
5
89
111
32
50
46
36
91
92
65
101
27
77
74
57
64
9
48
85
59
110
38
23
69
3
30
72
67
76
83
118
71
43
88
82
55
4
19
79
61
123
16
124
105
93
95
100
68
122
26
62
60
45
94
7
70
34
24
35
126
15
12
31
81
78
99
84
125
49
96
127
90
116
97
51
106
121
20
56
40
102
28
86
44
47
107
39
113
75

>  <PUBCHEM_MMFF94_PARTIAL_CHARGES>  (1) 
34
1 -0.43
10 0.27
11 0.27
12 0.28
13 0.63
14 0.09
15 0.08
16 0.09
17 0.05
18 -0.12
19 -0.15
2 -0.16
20 0.47
21 -0.15
22 -0.15
23 0.03
24 0.14
25 -0.15
26 -0.15
27 -0.15
28 -0.15
29 -0.15
3 -0.57
4 -0.57
41 0.36
44 0.15
45 0.15
46 0.15
5 -0.9
50 0.15
51 0.15
52 0.15
53 0.15
54 0.15

>  <PUBCHEM_EFFECTIVE_ROTOR_COUNT>  (1) 
7.2

>  <PUBCHEM_PHARMACOPHORE_FEATURES>  (1) 
9
1 2 acceptor
1 3 acceptor
1 4 acceptor
1 5 cation
1 5 donor
6 14 15 16 19 21 22 rings
6 2 15 16 17 18 20 rings
6 23 25 26 27 28 29 rings
6 5 6 7 8 10 11 rings

>  <PUBCHEM_HEAVY_ATOM_COUNT>  (1) 
29

>  <PUBCHEM_ATOM_DEF_STEREO_COUNT>  (1) 
0

>  <PUBCHEM_ATOM_UDEF_STEREO_COUNT>  (1) 
0

>  <PUBCHEM_BOND_DEF_STEREO_COUNT>  (1) 
0

>  <PUBCHEM_BOND_UDEF_STEREO_COUNT>  (1) 
0

>  <PUBCHEM_ISOTOPIC_ATOM_COUNT>  (1) 
0

>  <PUBCHEM_COMPONENT_COUNT>  (1) 
1

>  <PUBCHEM_CACTVS_TAUTO_COUNT>  (1) 
1

>  <PUBCHEM_CONFORMER_ID>  (1) 
00004C1C00000002

>  <PUBCHEM_MMFF94_ENERGY>  (1) 
71.7988

>  <PUBCHEM_FEATURE_SELFOVERLAP>  (1) 
45.707

>  <PUBCHEM_SHAPE_FINGERPRINT>  (1) 
10290309 65 18049443634879198245
10411042 1 18338237197471542851
10815517 723 17559663130591542438
10906281 52 17913213066235541157
11578080 2 13685189561156675017
11963148 33 17760364792017669586
12166972 35 17677053546471880660
13140716 1 18412833503960734657
13631057 29 18410009944398013379
13782708 43 17917157083696698310
14117953 113 18272081743540209663
14347332 77 18409451426914112677
14429380 30 18337111297222341547
14659021 117 18335699472884246547
14790565 3 17259630244382110489
15131766 46 15144388976429006351
15183329 4 10807929367429732746
16087824 20 18337953365328569765
17492 89 18195527232722353023
17686467 74 18334853966239488744
18608769 82 18342455920750749480
19319366 153 17605563133109905019
19841028 212 17980197810440488203
20511986 3 17677890124101409116
21796203 349 18049472471269005955
2260408 40 17058959738637515830
2303208 19 17703516519552463758
23559900 14 18412818084411229809
249057 3 18409448077678404797
2747138 104 18340771545998631290
329604 57 18334019427522108550
335352 9 18410571761435065285
4015057 19 14924240351526281662
4073 2 18339927013467443802
4280585 95 18335132098898024293
4616759 239 17987788606161497656
4938544 92 17489320650639280099
49967989 163 17896340132863732834
550186 72 18409165498404975972
5969126 39 18411698807042932934
6431902 208 18409730685577286055
6673363 416 18340781425030593460

>  <PUBCHEM_SHAPE_MULTIPOLES>  (1) 
568.35
17.6
4.29
1.11
28.25
2
0.11
-11.6
0.89
-7.38
-0.17
0.67
-0.71
0.43

>  <PUBCHEM_SHAPE_SELFOVERLAP>  (1) 
1232.64

>  <PUBCHEM_SHAPE_VOLUME>  (1) 
308.8

>  <PUBCHEM_COORDINATE_TYPE>  (1) 
2
5
10

$$$$
