19489
     RDKit          3D

 11 11  0  0  1  0  0  0  0  0999 V2000
   -0.5537   -1.4529   -0.5315 O   0  0  0  0  0  0  0  0  0  0  0  0
   -2.9878   -0.7485   -0.6692 O   0  0  0  0  0  0  0  0  0  0  0  0
   -2.5314    1.1547    0.5273 O   0  0  0  0  0  0  0  0  0  0  0  0
    0.2139    0.4262    0.7847 C   0  0  0  0  0  0  0  0  0  0  0  0
    0.8040    1.4856   -0.1482 C   0  0  0  0  0  0  0  0  0  0  0  0
    1.2983   -0.4604    1.4111 C   0  0  0  0  0  0  0  0  0  0  0  0
    1.7215    0.8888   -1.2209 C   0  0  0  0  0  0  0  0  0  0  0  0
    2.4314   -0.7919    0.4841 C   0  0  0  0  0  0  0  0  0  0  0  0
    2.6137   -0.1967   -0.7020 C   0  0  0  0  0  0  0  0  0  0  0  0
   -0.7969   -0.4032    0.0448 C   0  0  0  0  0  0  0  0  0  0  0  0
   -2.2129    0.0984    0.0200 C   0  0  0  0  0  0  0  0  0  0  0  0
  1 10  2  0
  2 11  1  0
  3 11  2  0
  4  5  1  0
  4  6  1  0
  4 10  1  0
  5  7  1  0
  6  8  1  0
  7  9  1  0
  8  9  2  0
 10 11  1  0
M  END
>  <PUBCHEM_COMPOUND_CID>  (1) 
19489

>  <PUBCHEM_CONFORMER_RMSD>  (1) 
0.6

>  <PUBCHEM_CONFORMER_DIVERSEORDER>  (1) 
1
2
5
4
3

>  <PUBCHEM_MMFF94_PARTIAL_CHARGES>  (1) 
13
1 -0.57
10 0.51
11 0.72
19 0.15
2 -0.65
20 0.15
21 0.5
3 -0.57
4 0.06
6 0.14
7 0.14
8 -0.29
9 -0.29

>  <PUBCHEM_EFFECTIVE_ROTOR_COUNT>  (1) 
2.8

>  <PUBCHEM_PHARMACOPHORE_FEATURES>  (1) 
5
1 1 acceptor
1 2 acceptor
1 3 acceptor
3 2 3 11 anion
6 4 5 6 7 8 9 rings

>  <PUBCHEM_HEAVY_ATOM_COUNT>  (1) 
11

>  <PUBCHEM_ATOM_DEF_STEREO_COUNT>  (1) 
1

>  <PUBCHEM_ATOM_UDEF_STEREO_COUNT>  (1) 
0

>  <PUBCHEM_BOND_DEF_STEREO_COUNT>  (1) 
0

>  <PUBCHEM_BOND_UDEF_STEREO_COUNT>  (1) 
0

>  <PUBCHEM_ISOTOPIC_ATOM_COUNT>  (1) 
0

>  <PUBCHEM_COMPONENT_COUNT>  (1) 
1

>  <PUBCHEM_CACTVS_TAUTO_COUNT>  (1) 
2

>  <PUBCHEM_CONFORMER_ID>  (1) 
00004C2100000001

>  <PUBCHEM_MMFF94_ENERGY>  (1) 
10.7754

>  <PUBCHEM_FEATURE_SELFOVERLAP>  (1) 
25.44

>  <PUBCHEM_SHAPE_FINGERPRINT>  (1) 
12423570 1 8911467805584375928
12932764 1 16081088173437835435
13380536 243 18336254695716495279
14128692 85 18410855460281194632
14993402 34 18408884022963352990
15775835 57 18187654604143194741
16945 1 17530687584752481448
20201158 50 15913050876384797974
20653091 64 18188484786961493776
207724 885 18261394399299890123
23552423 10 18191584361785095967
29004967 10 16660644025166760216
369184 2 12967132700747564327
5084963 1 18260256460895018337
63268167 104 17894912940319827004

>  <PUBCHEM_SHAPE_MULTIPOLES>  (1) 
208.77
3.99
1.31
1.12
1.76
0.24
-0.06
-0.16
0.66
-0.37
0.02
-0.12
-0.08
-0.62

>  <PUBCHEM_SHAPE_SELFOVERLAP>  (1) 
424.265

>  <PUBCHEM_SHAPE_VOLUME>  (1) 
118.3

>  <PUBCHEM_COORDINATE_TYPE>  (1) 
2
5
10

$$$$
