1948
     RDKit          3D

 26 28  0  0  0  0  0  0  0  0999 V2000
    4.7002   -1.5258   -0.0631 S   0  0  0  0  0  0  0  0  0  0  0  0
    5.1784   -1.7634    1.2929 O   0  0  0  0  0  0  0  0  0  0  0  0
    4.8807   -2.5592   -1.0740 O   0  0  0  0  0  0  0  0  0  0  0  0
    6.3186    3.1828    0.6174 O   0  0  0  0  0  0  0  0  0  0  0  0
    7.3862    1.7758   -0.8165 O   0  0  0  0  0  0  0  0  0  0  0  0
   -1.1066   -0.1901    0.1560 N   0  0  0  0  0  0  0  0  0  0  0  0
    5.3913   -0.0726   -0.6391 N   0  0  0  0  0  0  0  0  0  0  0  0
   -3.8885    0.6010    0.2695 C   0  0  0  0  0  0  0  0  0  0  0  0
   -3.1075    0.5888   -1.0533 C   0  0  0  0  0  0  0  0  0  0  0  0
   -3.3142   -0.4651    1.2142 C   0  0  0  0  0  0  0  0  0  0  0  0
   -1.6115    0.7915   -0.8142 C   0  0  0  0  0  0  0  0  0  0  0  0
   -1.8148   -0.2634    1.4386 C   0  0  0  0  0  0  0  0  0  0  0  0
   -5.3801    0.4282    0.0534 C   0  0  0  0  0  0  0  0  0  0  0  0
    0.2572   -0.5030    0.1041 C   0  0  0  0  0  0  0  0  0  0  0  0
   -6.1892    1.5476   -0.1317 C   0  0  0  0  0  0  0  0  0  0  0  0
   -5.9369   -0.8491    0.0400 C   0  0  0  0  0  0  0  0  0  0  0  0
    0.8302   -1.0530   -1.0588 C   0  0  0  0  0  0  0  0  0  0  0  0
    1.0942   -0.2778    1.2141 C   0  0  0  0  0  0  0  0  0  0  0  0
    2.9999   -1.1344    0.0011 C   0  0  0  0  0  0  0  0  0  0  0  0
    2.1886   -1.3658   -1.1098 C   0  0  0  0  0  0  0  0  0  0  0  0
    2.4526   -0.5905    1.1632 C   0  0  0  0  0  0  0  0  0  0  0  0
   -7.5608    1.3890   -0.3306 C   0  0  0  0  0  0  0  0  0  0  0  0
   -7.3084   -1.0076   -0.1590 C   0  0  0  0  0  0  0  0  0  0  0  0
   -8.1202    0.1115   -0.3443 C   0  0  0  0  0  0  0  0  0  0  0  0
    5.2294    1.1700    0.1292 C   0  0  0  0  0  0  0  0  0  0  0  0
    6.4312    2.0346   -0.0993 C   0  0  0  0  0  0  0  0  0  0  0  0
  1  2  2  0
  1  3  2  0
  1  7  1  0
  1 19  1  0
  4 26  1  0
  5 26  2  0
  6 11  1  0
  6 12  1  0
  6 14  1  0
  7 25  1  0
  8  9  1  0
  8 10  1  0
  8 13  1  0
  9 11  1  0
 10 12  1  0
 13 15  2  0
 13 16  1  0
 14 17  2  0
 14 18  1  0
 15 22  1  0
 16 23  2  0
 17 20  1  0
 18 21  2  0
 19 20  2  0
 19 21  1  0
 22 24  2  0
 23 24  1  0
 25 26  1  0
M  END
>  <PUBCHEM_COMPOUND_CID>  (1) 
1948

>  <PUBCHEM_CONFORMER_RMSD>  (1) 
0.8

>  <PUBCHEM_CONFORMER_DIVERSEORDER>  (1) 
1
66
74
125
136
83
35
52
138
140
48
8
153
149
129
12
86
41
43
17
42
123
67
113
102
96
25
94
60
61
22
130
121
37
55
152
97
58
31
54
137
72
20
26
44
73
75
109
27
150
15
51
122
92
100
132
139
126
118
120
2
53
69
7
88
19
78
71
79
64
119
39
6
93
18
110
107
68
81
36
14
133
145
46
84
155
85
144
11
106
115
21
30
99
101
56
87
3
156
127
5
32
143
104
146
124
112
29
70
4
89
154
108
134
23
80
45
40
151
90
65
131
34
148
82
98
91
135
9
13
57
10
105
16
116
142
59
33
141
103
62
28
24
50
95
49
63
117
77
114
111
38
147
128
47
76

>  <PUBCHEM_MMFF94_PARTIAL_CHARGES>  (1) 
35
1 1.45
11 0.37
12 0.37
13 -0.14
14 0.1
15 -0.15
16 -0.15
17 -0.15
18 -0.15
19 -0.01
2 -0.65
20 -0.15
21 -0.15
22 -0.15
23 -0.15
24 -0.15
25 0.42
26 0.66
3 -0.65
36 0.15
37 0.15
38 0.15
39 0.15
4 -0.65
40 0.15
41 0.15
42 0.15
43 0.15
44 0.15
45 0.42
48 0.5
5 -0.57
6 -0.84
7 -0.91
8 0.14

>  <PUBCHEM_EFFECTIVE_ROTOR_COUNT>  (1) 
7.2

>  <PUBCHEM_PHARMACOPHORE_FEATURES>  (1) 
10
1 2 acceptor
1 3 acceptor
1 4 acceptor
1 5 acceptor
1 6 cation
1 7 donor
3 4 5 26 anion
6 13 15 16 22 23 24 rings
6 14 17 18 19 20 21 rings
6 6 8 9 10 11 12 rings

>  <PUBCHEM_HEAVY_ATOM_COUNT>  (1) 
26

>  <PUBCHEM_ATOM_DEF_STEREO_COUNT>  (1) 
0

>  <PUBCHEM_ATOM_UDEF_STEREO_COUNT>  (1) 
0

>  <PUBCHEM_BOND_DEF_STEREO_COUNT>  (1) 
0

>  <PUBCHEM_BOND_UDEF_STEREO_COUNT>  (1) 
0

>  <PUBCHEM_ISOTOPIC_ATOM_COUNT>  (1) 
0

>  <PUBCHEM_COMPONENT_COUNT>  (1) 
1

>  <PUBCHEM_CACTVS_TAUTO_COUNT>  (1) 
1

>  <PUBCHEM_CONFORMER_ID>  (1) 
0000079C00000001

>  <PUBCHEM_MMFF94_ENERGY>  (1) 
62.6842

>  <PUBCHEM_FEATURE_SELFOVERLAP>  (1) 
50.821

>  <PUBCHEM_SHAPE_FINGERPRINT>  (1) 
10 15 15285361738713431948
10638233 991 17632580465254282184
10673678 19 18200879586300941180
10835480 77 18408888446842893457
11315181 36 18413109451741601793
11719270 70 17775000137965843959
11991303 11 17274814792218953503
125118 31 18411136892419593353
12516196 113 18187083936581759981
12522641 24 17676758800589473224
12838862 33 16443334391786507639
13617811 41 15554452898485587752
13899415 154 17060338530486866737
13914758 101 7925642115461102143
14142895 15 18339079410108382893
14251732 16 18410012152285198239
14251757 52 18412260640515899368
14461889 52 17967536817495903490
15131766 46 18196926889381221332
15183329 4 15770058332704732449
18335252 114 18202007634224246804
18335252 98 18341055207013578995
20105231 36 15123513640084516317
20157964 124 18411703175657545638
2026 5 12175082981821479132
20511986 3 17458616805592593275
20554085 129 16805316716908819136
20771845 171 17131844148803671796
21130935 74 18040436555952724571
21150785 3 17917994996643453985
21267235 1 14692572122183213763
21521721 280 18412268337134145835
21641784 216 17060068012288707512
21781051 124 14764062436824882461
21792934 111 15502641672969617929
22224240 67 17385441033450206427
23081809 10 17131841919293839867
23522609 53 17131014025713819345
23559900 14 17313392261897544469
23569943 247 11815359068916358765
24771293 8 17748828535492943173
328311 84 11455891377793200085
34797466 226 18411139113064988734
4072396 5 14273736261600043706
4073 2 18335706048769547851
4093350 32 18412547596055145414
4325135 7 18410575106222337676
444735 82 18259988188622272940
445580 126 18272079531721391520
445580 167 18411411843773050181
44880568 143 18269559347675120781
4625314 4 18412827966808932374
5265222 85 18272086137038389431

>  <PUBCHEM_SHAPE_MULTIPOLES>  (1) 
505.48
23.49
2.12
1.17
11.27
0.88
-0.15
9.11
2.55
-4.83
0.16
-0.52
-0.26
0.56

>  <PUBCHEM_SHAPE_SELFOVERLAP>  (1) 
1057.381

>  <PUBCHEM_SHAPE_VOLUME>  (1) 
285.5

>  <PUBCHEM_COORDINATE_TYPE>  (1) 
2
5
10

$$$$
