19491
     RDKit          3D

 18 18  0  0  0  0  0  0  0  0999 V2000
   -4.1531   -0.5578   -0.1720 O   0  0  0  0  0  0  0  0  0  0  0  0
   -4.0744    1.7237   -0.4676 O   0  0  0  0  0  0  0  0  0  0  0  0
    1.9654    0.1356    1.0396 N   0  0  0  0  0  0  0  0  0  0  0  0
    2.6246   -0.0595   -0.0063 N   0  0  0  0  0  0  0  0  0  0  0  0
    4.7575   -2.6024   -0.5216 N   0  0  0  0  0  0  0  0  0  0  0  0
    5.2730    1.7468   -1.0081 N   0  0  0  0  0  0  0  0  0  0  0  0
   -2.1023    0.5191    0.1194 C   0  0  0  0  0  0  0  0  0  0  0  0
   -1.2823    1.6473    0.1395 C   0  0  0  0  0  0  0  0  0  0  0  0
   -1.5674   -0.7369    0.4057 C   0  0  0  0  0  0  0  0  0  0  0  0
    0.6074    0.2635    0.7318 C   0  0  0  0  0  0  0  0  0  0  0  0
    0.0725    1.5195    0.4458 C   0  0  0  0  0  0  0  0  0  0  0  0
   -0.2125   -0.8647    0.7119 C   0  0  0  0  0  0  0  0  0  0  0  0
   -3.5147    0.6520   -0.2006 C   0  0  0  0  0  0  0  0  0  0  0  0
   -5.5529   -0.5579   -0.4725 C   0  0  0  0  0  0  0  0  0  0  0  0
   -6.0747   -1.9766   -0.3903 C   0  0  0  0  0  0  0  0  0  0  0  0
    4.0546   -0.1984    0.2668 C   0  0  0  0  0  0  0  0  0  0  0  0
    4.4458   -1.5395   -0.1749 C   0  0  0  0  0  0  0  0  0  0  0  0
    4.7334    0.8864   -0.4464 C   0  0  0  0  0  0  0  0  0  0  0  0
  1 13  1  0
  1 14  1  0
  2 13  2  0
  3  4  2  0
  3 10  1  0
  4 16  1  0
  5 17  3  0
  6 18  3  0
  7  8  2  0
  7  9  1  0
  7 13  1  0
  8 11  1  0
  9 12  2  0
 10 11  2  0
 10 12  1  0
 14 15  1  0
 16 17  1  0
 16 18  1  0
M  END
>  <PUBCHEM_COMPOUND_CID>  (1) 
19491

>  <PUBCHEM_CONFORMER_RMSD>  (1) 
0.6

>  <PUBCHEM_CONFORMER_DIVERSEORDER>  (1) 
1
45
76
82
38
30
58
62
72
26
3
83
61
81
55
67
4
34
25
41
28
40
77
6
19
65
64
8
66
70
85
21
44
29
9
36
63
33
43
80
23
54
56
73
86
32
78
22
35
49
59
48
24
39
16
84
71
42
79
75
5
31
53
13
46
57
47
11
14
17
15
10
27
51
7
20
2
74
50
68
12
18
69
37
52
60

>  <PUBCHEM_MMFF94_PARTIAL_CHARGES>  (1) 
21
1 -0.43
10 0.18
11 -0.15
12 -0.15
13 0.63
14 0.28
16 0.65
17 0.36
18 0.36
19 0.15
2 -0.57
20 0.15
21 0.15
22 0.15
3 -0.18
4 -0.25
5 -0.56
6 -0.56
7 0.09
8 -0.15
9 -0.15

>  <PUBCHEM_EFFECTIVE_ROTOR_COUNT>  (1) 
5

>  <PUBCHEM_PHARMACOPHORE_FEATURES>  (1) 
4
1 2 acceptor
1 5 acceptor
1 6 acceptor
6 7 8 9 10 11 12 rings

>  <PUBCHEM_HEAVY_ATOM_COUNT>  (1) 
18

>  <PUBCHEM_ATOM_DEF_STEREO_COUNT>  (1) 
0

>  <PUBCHEM_ATOM_UDEF_STEREO_COUNT>  (1) 
0

>  <PUBCHEM_BOND_DEF_STEREO_COUNT>  (1) 
0

>  <PUBCHEM_BOND_UDEF_STEREO_COUNT>  (1) 
0

>  <PUBCHEM_ISOTOPIC_ATOM_COUNT>  (1) 
0

>  <PUBCHEM_COMPONENT_COUNT>  (1) 
1

>  <PUBCHEM_CACTVS_TAUTO_COUNT>  (1) 
1

>  <PUBCHEM_CONFORMER_ID>  (1) 
00004C2300000001

>  <PUBCHEM_MMFF94_ENERGY>  (1) 
33.5023

>  <PUBCHEM_FEATURE_SELFOVERLAP>  (1) 
20.297

>  <PUBCHEM_SHAPE_FINGERPRINT>  (1) 
10595046 47 18411140229804075268
11128504 68 18187364337273165180
12032990 46 18342734122540264121
12670543 26 18336257951887073045
13288520 33 18343018891967757205
13862211 1 18409441484165218235
13955234 65 17702089477407105136
14251718 22 18334011730919419981
14350574 20 18341048618612432953
14528608 73 17967813842648877604
15196674 1 18411136905045447625
17834072 33 18411135870000702804
18335252 98 18335145348787963891
200 152 17917989443176738002
20281389 69 9943812196829439199
20281475 54 18202005391412243216
20645477 70 18340208501603486358
20871999 31 18335421300420413913
21267235 1 18409729600031247539
21637258 2 17131819985470650983
22950370 63 18344148085745374361
23402539 116 18338230475230500797
23522609 53 18057634081710575921
23559900 14 18410855430960131330
2838139 119 13912591789006148151
3004659 81 18336546028418661898
4072396 5 8358270236591086809
42 15 11167943558902653456
4325135 7 18335984254647879116
4463277 17 18409449198379947897
465052 167 17846781823193348222
474 4 17095532846200779924
4990 188 18411134701885512962
5104073 3 17917707955220336562
6327066 14 17827651563181874300
90127 26 17895202060470297480

>  <PUBCHEM_SHAPE_MULTIPOLES>  (1) 
338.77
13.84
2.06
0.84
2.31
0.57
0.03
5.17
-4.62
-0.76
-0.39
-0.33
-0.06
-0.32

>  <PUBCHEM_SHAPE_SELFOVERLAP>  (1) 
697.846

>  <PUBCHEM_SHAPE_VOLUME>  (1) 
191.2

>  <PUBCHEM_COORDINATE_TYPE>  (1) 
2
5
10

$$$$
