19494
     RDKit          3D

  7  7  0  0  0  0  0  0  0  0999 V2000
   -2.1320    0.9418   -0.0043 O   0  0  0  0  0  0  0  0  0  0  0  0
   -1.5239   -1.2550    0.0071 O   0  0  0  0  0  0  0  0  0  0  0  0
    0.2206    0.4949   -0.0041 C   0  0  0  0  0  0  0  0  0  0  0  0
    1.1848   -0.0790   -1.0630 C   0  0  0  0  0  0  0  0  0  0  0  0
    1.1828   -0.0649    1.0643 C   0  0  0  0  0  0  0  0  0  0  0  0
    2.2967    0.0313    0.0009 C   0  0  0  0  0  0  0  0  0  0  0  0
   -1.2290   -0.0691   -0.0009 C   0  0  0  0  0  0  0  0  0  0  0  0
  1  7  1  0
  2  7  2  0
  3  4  1  0
  3  5  1  0
  3  7  1  0
  4  6  1  0
  5  6  1  0
M  END
>  <PUBCHEM_COMPOUND_CID>  (1) 
19494

>  <PUBCHEM_CONFORMER_RMSD>  (1) 
0.4

>  <PUBCHEM_CONFORMER_DIVERSEORDER>  (1) 
1
5
4
2
3

>  <PUBCHEM_MMFF94_PARTIAL_CHARGES>  (1) 
5
1 -0.65
15 0.5
2 -0.57
3 0.05
7 0.67

>  <PUBCHEM_EFFECTIVE_ROTOR_COUNT>  (1) 
1.8

>  <PUBCHEM_PHARMACOPHORE_FEATURES>  (1) 
4
1 1 acceptor
1 2 acceptor
3 1 2 7 anion
4 3 4 5 6 rings

>  <PUBCHEM_HEAVY_ATOM_COUNT>  (1) 
7

>  <PUBCHEM_ATOM_DEF_STEREO_COUNT>  (1) 
0

>  <PUBCHEM_ATOM_UDEF_STEREO_COUNT>  (1) 
0

>  <PUBCHEM_BOND_DEF_STEREO_COUNT>  (1) 
0

>  <PUBCHEM_BOND_UDEF_STEREO_COUNT>  (1) 
0

>  <PUBCHEM_ISOTOPIC_ATOM_COUNT>  (1) 
0

>  <PUBCHEM_COMPONENT_COUNT>  (1) 
1

>  <PUBCHEM_CACTVS_TAUTO_COUNT>  (1) 
1

>  <PUBCHEM_CONFORMER_ID>  (1) 
00004C2600000001

>  <PUBCHEM_MMFF94_ENERGY>  (1) 
11.6048

>  <PUBCHEM_FEATURE_SELFOVERLAP>  (1) 
20.353

>  <PUBCHEM_SHAPE_FINGERPRINT>  (1) 
18185500 45 17531240681855746962
20096714 4 16154001226055552804
21040471 1 18338516309736075845
24536 1 17846502547113123369
29004967 10 16917077663241171810
5084963 1 13686290283953846856
5460574 1 9223230749615991780

>  <PUBCHEM_SHAPE_MULTIPOLES>  (1) 
132.32
2.82
0.94
0.9
0.29
0
0.11
0
-0.11
-0.41
0.03
0.46
0
0.01

>  <PUBCHEM_SHAPE_SELFOVERLAP>  (1) 
257.024

>  <PUBCHEM_SHAPE_VOLUME>  (1) 
81.6

>  <PUBCHEM_COORDINATE_TYPE>  (1) 
2
5
10

$$$$
