19509
     RDKit          3D

  8  8  0  0  0  0  0  0  0  0999 V2000
   -0.0685   -1.1996   -0.1522 N   0  0  0  0  0  0  0  0  0  0  0  0
    2.7816    0.0256    0.6951 N   0  0  0  0  0  0  0  0  0  0  0  0
    0.5225    0.0107   -0.2676 C   0  0  0  0  0  0  0  0  0  0  0  0
    1.9907    0.0154   -0.5362 C   0  0  0  0  0  0  0  0  0  0  0  0
   -0.1501    1.2166   -0.1521 C   0  0  0  0  0  0  0  0  0  0  0  0
   -1.5172    1.1777    0.0983 C   0  0  0  0  0  0  0  0  0  0  0  0
   -2.1608   -0.0486    0.2236 C   0  0  0  0  0  0  0  0  0  0  0  0
   -1.3983   -1.1977    0.0910 C   0  0  0  0  0  0  0  0  0  0  0  0
  1  3  2  0
  1  8  1  0
  2  4  1  0
  3  4  1  0
  3  5  1  0
  5  6  2  0
  6  7  1  0
  7  8  2  0
M  END
>  <PUBCHEM_COMPOUND_CID>  (1) 
19509

>  <PUBCHEM_CONFORMER_RMSD>  (1) 
0.4

>  <PUBCHEM_CONFORMER_DIVERSEORDER>  (1) 
1
3
2
4

>  <PUBCHEM_MMFF94_PARTIAL_CHARGES>  (1) 
14
1 -0.62
11 0.15
12 0.15
13 0.15
14 0.15
15 0.36
16 0.36
2 -0.99
3 0.17
4 0.41
5 -0.15
6 -0.15
7 -0.15
8 0.16

>  <PUBCHEM_EFFECTIVE_ROTOR_COUNT>  (1) 
1

>  <PUBCHEM_PHARMACOPHORE_FEATURES>  (1) 
4
1 1 acceptor
1 2 cation
1 2 donor
6 1 3 5 6 7 8 rings

>  <PUBCHEM_HEAVY_ATOM_COUNT>  (1) 
8

>  <PUBCHEM_ATOM_DEF_STEREO_COUNT>  (1) 
0

>  <PUBCHEM_ATOM_UDEF_STEREO_COUNT>  (1) 
0

>  <PUBCHEM_BOND_DEF_STEREO_COUNT>  (1) 
0

>  <PUBCHEM_BOND_UDEF_STEREO_COUNT>  (1) 
0

>  <PUBCHEM_ISOTOPIC_ATOM_COUNT>  (1) 
0

>  <PUBCHEM_COMPONENT_COUNT>  (1) 
1

>  <PUBCHEM_CACTVS_TAUTO_COUNT>  (1) 
1

>  <PUBCHEM_CONFORMER_ID>  (1) 
00004C3500000001

>  <PUBCHEM_MMFF94_ENERGY>  (1) 
15.1416

>  <PUBCHEM_FEATURE_SELFOVERLAP>  (1) 
20.297

>  <PUBCHEM_SHAPE_FINGERPRINT>  (1) 
10857977 72 18341326790131545664
16714656 1 18410581686080592989
18185500 45 18261115235026121134
20645464 45 17989484121963835178
21040471 1 18266187123335729413
23552423 10 17826802726132580508
29004967 10 16487263161695304694
369184 2 18341323440173079704
5084963 1 18270974448528930444

>  <PUBCHEM_SHAPE_MULTIPOLES>  (1) 
154.67
3.12
1.31
0.7
1.6
0.01
0.01
-0.04
0.5
-0.55
-0.02
0.2
0.01
0

>  <PUBCHEM_SHAPE_SELFOVERLAP>  (1) 
314.189

>  <PUBCHEM_SHAPE_VOLUME>  (1) 
88.6

>  <PUBCHEM_COORDINATE_TYPE>  (1) 
2
5
10

$$$$
