19503
     RDKit          3D

  9  9  0  0  0  0  0  0  0  0999 V2000
   -1.0263   -0.2607   -0.2394 C   0  0  0  0  0  0  0  0  0  0  0  0
    1.8722    0.1069    0.3057 C   0  0  0  0  0  0  0  0  0  0  0  0
   -0.4749    1.0615    0.3090 C   0  0  0  0  0  0  0  0  0  0  0  0
   -0.1326   -1.4367    0.1743 C   0  0  0  0  0  0  0  0  0  0  0  0
    0.9782    1.2831   -0.1074 C   0  0  0  0  0  0  0  0  0  0  0  0
    1.3204   -1.2152   -0.2423 C   0  0  0  0  0  0  0  0  0  0  0  0
   -2.4623   -0.4829    0.2313 C   0  0  0  0  0  0  0  0  0  0  0  0
    3.3078    0.3287   -0.1663 C   0  0  0  0  0  0  0  0  0  0  0  0
   -3.3827    0.6152   -0.2650 C   0  0  0  0  0  0  0  0  0  0  0  0
  1  3  1  0
  1  4  1  0
  1  7  1  0
  2  5  1  0
  2  6  1  0
  2  8  1  0
  3  5  1  0
  4  6  1  0
  7  9  1  0
M  END
>  <PUBCHEM_COMPOUND_CID>  (1) 
19503

>  <PUBCHEM_CONFORMER_RMSD>  (1) 
0.4

>  <PUBCHEM_CONFORMER_DIVERSEORDER>  (1) 
1
9
11
2
4
10
5
8
7
3
6

>  <PUBCHEM_MMFF94_PARTIAL_CHARGES>  (1) 
0

>  <PUBCHEM_EFFECTIVE_ROTOR_COUNT>  (1) 
2.2

>  <PUBCHEM_PHARMACOPHORE_FEATURES>  (1) 
2
1 9 hydrophobe
6 1 2 3 4 5 6 rings

>  <PUBCHEM_HEAVY_ATOM_COUNT>  (1) 
9

>  <PUBCHEM_ATOM_DEF_STEREO_COUNT>  (1) 
0

>  <PUBCHEM_ATOM_UDEF_STEREO_COUNT>  (1) 
0

>  <PUBCHEM_BOND_DEF_STEREO_COUNT>  (1) 
0

>  <PUBCHEM_BOND_UDEF_STEREO_COUNT>  (1) 
0

>  <PUBCHEM_ISOTOPIC_ATOM_COUNT>  (1) 
0

>  <PUBCHEM_COMPONENT_COUNT>  (1) 
1

>  <PUBCHEM_CACTVS_TAUTO_COUNT>  (1) 
1

>  <PUBCHEM_CONFORMER_ID>  (1) 
00004C2F00000001

>  <PUBCHEM_MMFF94_ENERGY>  (1) 
6.2662

>  <PUBCHEM_FEATURE_SELFOVERLAP>  (1) 
10.148

>  <PUBCHEM_SHAPE_FINGERPRINT>  (1) 
10219947 1 18408323284912762164
11062470 55 17822009808902366413
12897270 3 18413108346568592468
12932764 1 16988553594258554409
14325111 11 18410293635461453289
14390081 3 18413105052724347801
15310529 11 16660631960556087840
16945 1 18342739623897393984
193761 8 17690280409018115800
20201158 50 18409446973080297883
21040471 1 18267020737753952058
21293036 1 18411702109930546012
23235685 24 18410569604464215748
23402655 69 18268696244063788717
23552423 10 18192437359359382250
2748010 2 18051976114800067784
29004967 10 18407763633541651683
5084963 1 18272090564553039875
528886 8 18411695495649242147

>  <PUBCHEM_SHAPE_MULTIPOLES>  (1) 
185.22
4.61
1.41
0.67
0.98
0.15
0
-0.79
-0.34
-0.13
0.01
0.01
0
0.09

>  <PUBCHEM_SHAPE_SELFOVERLAP>  (1) 
351.319

>  <PUBCHEM_SHAPE_VOLUME>  (1) 
112.5

>  <PUBCHEM_COORDINATE_TYPE>  (1) 
2
5
10

$$$$
