19504
     RDKit          3D

 18 17  0  0  1  0  0  0  0  0999 V2000
   -1.8204    0.1352   -0.6340 P   0  0  0  0  0  0  0  0  0  0  0  0
   -0.5089    0.2727    0.3114 O   0  0  0  0  0  0  0  0  0  0  0  0
   -1.7125   -1.3563   -1.2576 O   0  0  0  0  0  0  0  0  0  0  0  0
   -3.0551    0.0052    0.4071 O   0  0  0  0  0  0  0  0  0  0  0  0
    3.0220   -0.2682    0.2249 O   0  0  0  0  0  0  0  0  0  0  0  0
   -1.9728    1.2296   -1.6521 O   0  0  0  0  0  0  0  0  0  0  0  0
    0.5932    2.6821   -0.2563 O   0  0  0  0  0  0  0  0  0  0  0  0
    1.4830   -0.5088    1.9261 O   0  0  0  0  0  0  0  0  0  0  0  0
    0.7840    0.2776   -0.2602 C   0  0  0  0  0  0  0  0  0  0  0  0
    1.0435    1.6730   -0.7981 C   0  0  0  0  0  0  0  0  0  0  0  0
    1.7718   -0.2196    0.7722 C   0  0  0  0  0  0  0  0  0  0  0  0
   -1.5666   -2.4506   -0.3688 C   0  0  0  0  0  0  0  0  0  0  0  0
   -3.3654    1.1178    1.2284 C   0  0  0  0  0  0  0  0  0  0  0  0
    1.8932    1.7741   -2.0392 C   0  0  0  0  0  0  0  0  0  0  0  0
    4.0646   -0.6997    1.1052 C   0  0  0  0  0  0  0  0  0  0  0  0
   -1.4872   -3.7312   -1.1720 C   0  0  0  0  0  0  0  0  0  0  0  0
   -4.5440    0.7658    2.1108 C   0  0  0  0  0  0  0  0  0  0  0  0
    5.3777   -0.6987    0.3521 C   0  0  0  0  0  0  0  0  0  0  0  0
  1  2  1  0
  1  3  1  0
  1  4  1  0
  1  6  2  0
  2  9  1  0
  3 12  1  0
  4 13  1  0
  5 11  1  0
  5 15  1  0
  7 10  2  0
  8 11  2  0
  9 10  1  0
  9 11  1  0
 10 14  1  0
 12 16  1  0
 13 17  1  0
 15 18  1  0
M  END
>  <PUBCHEM_COMPOUND_CID>  (1) 
19504

>  <PUBCHEM_CONFORMER_RMSD>  (1) 
0.8

>  <PUBCHEM_CONFORMER_DIVERSEORDER>  (1) 
2
164
110
390
99
281
417
369
34
11
136
141
176
306
380
435
436
416
116
210
477
28
73
216
138
478
227
331
1
367
62
147
393
389
332
55
126
131
451
425
338
71
132
374
24
13
385
231
61
396
76
18
418
143
197
51
340
429
77
134
394
3
303
299
222
75
35
289
65
294
217
288
45
285
454
27
238
91
259
37
410
170
84
22
146
250
20
109
106
221
234
130
158
462
347
31
387
244
105
21
108
345
248
203
457
183
362
269
19
230
411
339
465
388
174
254
239
246
114
249
313
279
316
133
267
442
15
4
395
400
310
25
247
330
179
163
127
399
79
150
63
225
430
211
50
82
14
422
194
296
39
455
81
286
235
419
453
96
324
468
93
426
94
68
119
431
199
223
407
359
474
206
464
401
441
325
118
266
312
463
470
120
456
404
346
262
311
290
219
58
349
137
275
98
343
97
461
95
171
240
308
44
154
100
446
46
356
307
173
449
214
166
342
83
30
352
469
274
204
86
205
218
439
92
353
386
74
145
180
90
10
196
476
265
383
182
405
321
40
140
47
60
301
233
335
319
370
192
107
139
434
473
272
445
467
327
41
377
38
54
224
317
432
128
215
298
33
284
364
53
293
78
382
237
292
278
226
459
112
413
273
283
336
59
366
12
160
177
167
361
67
29
188
187
155
149
437
85
36
198
270
263
228
355
398
125
212
392
322
172
271
315
304
309
448
295
193
329
26
102
326
213
354
333
344
252
323
101
351
365
314
255
103
115
64
341
300
89
415
117
190
232
48
56
258
242
440
80
178
191
6
447
460
412
253
257
16
121
428
472
397
66
414
186
328
157
452
169
124
287
129
318
229
357
159
251
245
152
113
466
201
236
241
69
420
195
49
371
320
360
57
135
402
471
175
23
260
43
297
282
153
424
156
111
189
363
438
458
408
391
348
409
148
277
475
17
142
337
423
42
444
32
184
208
9
162
376
373
168
450
52
243
123
421
378
151
443
8
280
433
403
207
305
220
209
368
72
372
122
334
181
70
88
256
406
161
5
350
384
302
7
291
261
268
200
427
381
87
202
144
165
104
264
379
358
185
276
375

>  <PUBCHEM_MMFF94_PARTIAL_CHARGES>  (1) 
15
1 1.51
10 0.45
11 0.66
12 0.28
13 0.28
14 0.06
15 0.28
2 -0.55
3 -0.55
4 -0.55
5 -0.43
6 -0.7
7 -0.57
8 -0.57
9 0.4

>  <PUBCHEM_EFFECTIVE_ROTOR_COUNT>  (1) 
10

>  <PUBCHEM_PHARMACOPHORE_FEATURES>  (1) 
4
1 6 acceptor
1 7 acceptor
1 8 acceptor
1 9 anion

>  <PUBCHEM_HEAVY_ATOM_COUNT>  (1) 
18

>  <PUBCHEM_ATOM_DEF_STEREO_COUNT>  (1) 
0

>  <PUBCHEM_ATOM_UDEF_STEREO_COUNT>  (1) 
1

>  <PUBCHEM_BOND_DEF_STEREO_COUNT>  (1) 
0

>  <PUBCHEM_BOND_UDEF_STEREO_COUNT>  (1) 
0

>  <PUBCHEM_ISOTOPIC_ATOM_COUNT>  (1) 
0

>  <PUBCHEM_COMPONENT_COUNT>  (1) 
1

>  <PUBCHEM_CACTVS_TAUTO_COUNT>  (1) 
5

>  <PUBCHEM_CONFORMER_ID>  (1) 
00004C3000000002

>  <PUBCHEM_MMFF94_ENERGY>  (1) 
13.5338

>  <PUBCHEM_FEATURE_SELFOVERLAP>  (1) 
20.298

>  <PUBCHEM_SHAPE_FINGERPRINT>  (1) 
10756046 70 18261403281292180509
14955137 171 18262532415631221816
15375462 189 17894628136933138984
15842332 3 18192721269587597597
16945 1 18268408184342764320
18785283 64 16589451875967060628
20600515 1 17989211447138354728
20723712 36 18269850734982436169
21041028 32 17895202073250126676
22112679 90 18337673130177719860
23402539 116 15554151598345929705
23419403 2 14958182374138771663
23558518 356 17401226941150289949
23566358 27 17243035684665813358
23598291 2 18261677089831518903
23622692 88 18410580578242826673
2748010 2 17903066742404877567
3286 77 16226060984609402184
6992083 37 18410287025554329095

>  <PUBCHEM_SHAPE_MULTIPOLES>  (1) 
333.2
7.66
2.85
1.86
4.5
2.57
-0.07
0.18
-4.72
-1.64
1.64
-0.64
-0.49
-2.06

>  <PUBCHEM_SHAPE_SELFOVERLAP>  (1) 
619.005

>  <PUBCHEM_SHAPE_VOLUME>  (1) 
209.7

>  <PUBCHEM_COORDINATE_TYPE>  (1) 
2
5
10

$$$$
