19510
     RDKit          3D

 11 10  0  0  0  0  0  0  0  0999 V2000
   -0.3189    0.0568   -2.4915 S   0  0  0  0  0  0  0  0  0  0  0  0
   -0.0862    0.0150   -0.5134 P   0  0  0  0  0  0  0  0  0  0  0  0
   -1.5891    0.0124    0.2855 N   0  0  0  0  0  0  0  0  0  0  0  0
    0.7427    1.3484    0.1145 N   0  0  0  0  0  0  0  0  0  0  0  0
    0.7184   -1.3563    0.0625 N   0  0  0  0  0  0  0  0  0  0  0  0
   -2.4594    1.1874    0.1354 C   0  0  0  0  0  0  0  0  0  0  0  0
   -2.4270   -1.1913    0.1892 C   0  0  0  0  0  0  0  0  0  0  0  0
    2.0952    1.6622   -0.3546 C   0  0  0  0  0  0  0  0  0  0  0  0
    0.6457    1.7194    1.5286 C   0  0  0  0  0  0  0  0  0  0  0  0
    2.0655   -1.6763   -0.4179 C   0  0  0  0  0  0  0  0  0  0  0  0
    0.6130   -1.7777    1.4618 C   0  0  0  0  0  0  0  0  0  0  0  0
  1  2  2  0
  2  3  1  0
  2  4  1  0
  2  5  1  0
  3  6  1  0
  3  7  1  0
  4  8  1  0
  4  9  1  0
  5 10  1  0
  5 11  1  0
M  END
>  <PUBCHEM_COMPOUND_CID>  (1) 
19510

>  <PUBCHEM_CONFORMER_RMSD>  (1) 
0.6

>  <PUBCHEM_CONFORMER_DIVERSEORDER>  (1) 
1
2

>  <PUBCHEM_MMFF94_PARTIAL_CHARGES>  (1) 
11
1 -0.68
10 0.27
11 0.27
2 1.48
3 -0.81
4 -0.81
5 -0.81
6 0.27
7 0.27
8 0.27
9 0.27

>  <PUBCHEM_EFFECTIVE_ROTOR_COUNT>  (1) 
3

>  <PUBCHEM_PHARMACOPHORE_FEATURES>  (1) 
0

>  <PUBCHEM_HEAVY_ATOM_COUNT>  (1) 
11

>  <PUBCHEM_ATOM_DEF_STEREO_COUNT>  (1) 
0

>  <PUBCHEM_ATOM_UDEF_STEREO_COUNT>  (1) 
0

>  <PUBCHEM_BOND_DEF_STEREO_COUNT>  (1) 
0

>  <PUBCHEM_BOND_UDEF_STEREO_COUNT>  (1) 
0

>  <PUBCHEM_ISOTOPIC_ATOM_COUNT>  (1) 
0

>  <PUBCHEM_COMPONENT_COUNT>  (1) 
1

>  <PUBCHEM_CACTVS_TAUTO_COUNT>  (1) 
1

>  <PUBCHEM_CONFORMER_ID>  (1) 
00004C3600000001

>  <PUBCHEM_MMFF94_ENERGY>  (1) 
23.5691

>  <PUBCHEM_FEATURE_SELFOVERLAP>  (1) 
0

>  <PUBCHEM_SHAPE_FINGERPRINT>  (1) 
12423570 1 9143292607912635706
137420 1 10869201752678191477
14817 1 14424822211176606376
16945 1 18044097851999296475
18185500 45 17901396592842919147
20653091 64 18410294666475209209
20711978 78 18270378586293977935
21922407 69 16984012692497398187
23211744 41 17842848990444260369
23552333 60 17100318783407452938
5084963 1 17842006773074655569
528862 383 18409157831586853546
54338 74 17690844462577841265
68250623 7 18272382982948256207
68419 9 17128702946587200293

>  <PUBCHEM_SHAPE_MULTIPOLES>  (1) 
219.13
2.89
2.24
1.79
1.21
0.09
-0.98
-0.04
0.15
-1.01
0.77
-0.06
-0.07
0.06

>  <PUBCHEM_SHAPE_SELFOVERLAP>  (1) 
368.918

>  <PUBCHEM_SHAPE_VOLUME>  (1) 
152.5

>  <PUBCHEM_COORDINATE_TYPE>  (1) 
2
5
10

$$$$
