19511
     RDKit          3D

 24 28  0  0  0  0  0  0  0  0999 V2000
   -1.2199    3.1104   -0.0001 O   0  0  0  0  0  0  0  0  0  0  0  0
   -3.8158    2.6676    0.0003 O   0  0  0  0  0  0  0  0  0  0  0  0
   -1.1816   -0.5039   -0.0010 C   0  0  0  0  0  0  0  0  0  0  0  0
    1.6707    0.0275   -0.0007 C   0  0  0  0  0  0  0  0  0  0  0  0
   -0.6733    0.8004   -0.0010 C   0  0  0  0  0  0  0  0  0  0  0  0
    1.1677   -1.2925   -0.0011 C   0  0  0  0  0  0  0  0  0  0  0  0
   -2.6458   -0.7580   -0.0004 C   0  0  0  0  0  0  0  0  0  0  0  0
    3.0960    0.2427    0.0000 C   0  0  0  0  0  0  0  0  0  0  0  0
   -0.2235   -1.5337   -0.0014 C   0  0  0  0  0  0  0  0  0  0  0  0
    0.7093    1.0622   -0.0008 C   0  0  0  0  0  0  0  0  0  0  0  0
   -3.5641    0.3099   -0.0003 C   0  0  0  0  0  0  0  0  0  0  0  0
    3.9644   -0.8792    0.0001 C   0  0  0  0  0  0  0  0  0  0  0  0
   -1.5976    1.9487   -0.0010 C   0  0  0  0  0  0  0  0  0  0  0  0
    2.0560   -2.3726   -0.0012 C   0  0  0  0  0  0  0  0  0  0  0  0
   -3.0729    1.6979   -0.0006 C   0  0  0  0  0  0  0  0  0  0  0  0
    3.4322   -2.1701   -0.0006 C   0  0  0  0  0  0  0  0  0  0  0  0
   -3.1994   -2.0546    0.0006 C   0  0  0  0  0  0  0  0  0  0  0  0
    3.7098    1.5208    0.0007 C   0  0  0  0  0  0  0  0  0  0  0  0
   -4.9519    0.1002    0.0008 C   0  0  0  0  0  0  0  0  0  0  0  0
    5.3591   -0.7057    0.0010 C   0  0  0  0  0  0  0  0  0  0  0  0
   -4.5828   -2.2704    0.0019 C   0  0  0  0  0  0  0  0  0  0  0  0
    5.0983    1.6799    0.0015 C   0  0  0  0  0  0  0  0  0  0  0  0
   -5.4586   -1.1935    0.0018 C   0  0  0  0  0  0  0  0  0  0  0  0
    5.9233    0.5660    0.0016 C   0  0  0  0  0  0  0  0  0  0  0  0
  1 13  2  0
  2 15  2  0
  3  5  1  0
  3  7  1  0
  3  9  2  0
  4  6  2  0
  4  8  1  0
  4 10  1  0
  5 10  2  0
  5 13  1  0
  6  9  1  0
  6 14  1  0
  7 11  2  0
  7 17  1  0
  8 12  2  0
  8 18  1  0
 11 15  1  0
 11 19  1  0
 12 16  1  0
 12 20  1  0
 13 15  1  0
 14 16  2  0
 17 21  2  0
 18 22  2  0
 19 23  2  0
 20 24  2  0
 21 23  1  0
 22 24  1  0
M  END
>  <PUBCHEM_COMPOUND_CID>  (1) 
19511

>  <PUBCHEM_CONFORMER_RMSD>  (1) 
0.6

>  <PUBCHEM_CONFORMER_DIVERSEORDER>  (1) 
1

>  <PUBCHEM_MMFF94_PARTIAL_CHARGES>  (1) 
30
1 -0.57
10 -0.15
11 0.09
13 0.48
14 -0.15
15 0.48
16 -0.15
17 -0.15
18 -0.15
19 -0.15
2 -0.57
20 -0.15
21 -0.15
22 -0.15
23 -0.15
24 -0.15
25 0.15
26 0.15
27 0.15
28 0.15
29 0.15
30 0.15
31 0.15
32 0.15
33 0.15
34 0.15
35 0.15
36 0.15
5 0.09
9 -0.15

>  <PUBCHEM_EFFECTIVE_ROTOR_COUNT>  (1) 
0

>  <PUBCHEM_PHARMACOPHORE_FEATURES>  (1) 
7
1 1 acceptor
1 2 acceptor
6 3 4 5 6 9 10 rings
6 3 5 7 11 13 15 rings
6 4 6 8 12 14 16 rings
6 7 11 17 19 21 23 rings
6 8 12 18 20 22 24 rings

>  <PUBCHEM_HEAVY_ATOM_COUNT>  (1) 
24

>  <PUBCHEM_ATOM_DEF_STEREO_COUNT>  (1) 
0

>  <PUBCHEM_ATOM_UDEF_STEREO_COUNT>  (1) 
0

>  <PUBCHEM_BOND_DEF_STEREO_COUNT>  (1) 
0

>  <PUBCHEM_BOND_UDEF_STEREO_COUNT>  (1) 
0

>  <PUBCHEM_ISOTOPIC_ATOM_COUNT>  (1) 
0

>  <PUBCHEM_COMPONENT_COUNT>  (1) 
1

>  <PUBCHEM_CACTVS_TAUTO_COUNT>  (1) 
1

>  <PUBCHEM_CONFORMER_ID>  (1) 
00004C3700000001

>  <PUBCHEM_MMFF94_ENERGY>  (1) 
81.6071

>  <PUBCHEM_FEATURE_SELFOVERLAP>  (1) 
35.619

>  <PUBCHEM_SHAPE_FINGERPRINT>  (1) 
10090160 65 18187361073293582214
10319926 262 18196353859207849274
10411042 1 18122626317534813135
10595046 47 18409166636301647110
10616163 171 18412263904532743239
10670039 82 18261970595887559956
10906281 52 18262820556080671003
11135609 12 17751375073854304243
11488393 25 17345212012315314950
11578080 2 17097474432725541479
11963148 33 18337665442224423866
12107183 9 17760363297326288002
12166972 35 17676770967403959180
12236239 1 17894628162629102272
12403259 415 18131625712564543224
12788726 201 18334851702095002289
12925494 130 18270956839348718625
13140716 1 17905328785694542491
13224815 77 18410855443053885130
13402501 40 18411699928060798914
13533116 47 17240471482454483050
138480 1 15167982936920130629
14341114 176 18409735053505771727
14787075 74 18334574693499403882
14790565 3 18339647840429608484
15196674 1 18410573950818086534
15961568 22 18334581274006883100
16087824 20 18338233770921577845
17349148 13 17894633668845689110
17492 89 18339079272622683814
17844677 252 18340495482342882262
1813 80 17313108540077834663
18681886 176 18411417345937515832
19591789 44 18340485693890920560
200 152 18201718461568623003
21033648 29 17560503050026218074
21236236 1 18413108351370150345
21267235 1 18410582789882289990
21673915 165 18410012139089157398
221490 88 18339367366333472930
22393880 68 18339367345000866806
23227448 37 18338515222903842893
23402539 116 18410006671601213935
23557571 272 18271814509629832533
23559900 14 18339352063275378713
239999 70 18272657840208902798
245318 6 17099199824806526244
3004659 81 18187362138482180490
335352 9 18122626046059713271
34797466 226 17775293789406187044
34934 24 18410288112714097143
350125 39 18411418432168518224
3545911 37 18409449184803761118
4073 2 18113905991371142074
4214541 1 18410856520990397637
4325135 7 18409730677139773662
474 4 17749398083090695284
474229 33 18411699915334379790
5104073 3 18338797818924774250
5283173 99 18114451272092695789
5486654 2 18337957899689946990
59755656 215 18409451392871008902
67856867 119 18189056554541303004
7495541 125 17774717653776436664
9709674 26 18269277859027297238

>  <PUBCHEM_SHAPE_MULTIPOLES>  (1) 
482.17
12.57
2.88
0.61
3.8
0.68
0
-0.84
0.01
-1.32
0
0.02
-0.02
0

>  <PUBCHEM_SHAPE_SELFOVERLAP>  (1) 
1117.96

>  <PUBCHEM_SHAPE_VOLUME>  (1) 
244.7

>  <PUBCHEM_COORDINATE_TYPE>  (1) 
2
5
10

$$$$
