19538
     RDKit          3D

 17 17  0  0  0  0  0  0  0  0999 V2000
   -0.5268    0.4716    0.1030 O   0  0  0  0  0  0  0  0  0  0  0  0
    0.6895   -1.3577   -0.5325 O   0  0  0  0  0  0  0  0  0  0  0  0
   -4.1713   -0.0163   -0.1527 N   0  0  0  0  0  0  0  0  0  0  0  0
    1.7115    0.6195    0.1931 N   0  0  0  0  0  0  0  0  0  0  0  0
   -2.9105    0.6677    0.1328 C   0  0  0  0  0  0  0  0  0  0  0  0
   -4.2860   -1.2331    0.6502 C   0  0  0  0  0  0  0  0  0  0  0  0
   -5.3041    0.8729    0.1021 C   0  0  0  0  0  0  0  0  0  0  0  0
   -1.7278   -0.2377   -0.1719 C   0  0  0  0  0  0  0  0  0  0  0  0
   -5.5622   -1.9892    0.3220 C   0  0  0  0  0  0  0  0  0  0  0  0
   -5.2015    2.1435   -0.7246 C   0  0  0  0  0  0  0  0  0  0  0  0
    0.6483   -0.2051   -0.1199 C   0  0  0  0  0  0  0  0  0  0  0  0
    3.0923    0.3283    0.1118 C   0  0  0  0  0  0  0  0  0  0  0  0
    4.0134    1.2981    0.4744 C   0  0  0  0  0  0  0  0  0  0  0  0
    3.4983   -0.9217   -0.3282 C   0  0  0  0  0  0  0  0  0  0  0  0
    5.3761    1.0109    0.3947 C   0  0  0  0  0  0  0  0  0  0  0  0
    4.8610   -1.2089   -0.4079 C   0  0  0  0  0  0  0  0  0  0  0  0
    5.7998   -0.2426   -0.0464 C   0  0  0  0  0  0  0  0  0  0  0  0
  1  8  1  0
  1 11  1  0
  2 11  2  0
  3  5  1  0
  3  6  1  0
  3  7  1  0
  4 11  1  0
  4 12  1  0
  5  8  1  0
  6  9  1  0
  7 10  1  0
 12 13  2  0
 12 14  1  0
 13 15  1  0
 14 16  2  0
 15 17  2  0
 16 17  1  0
M  END
>  <PUBCHEM_COMPOUND_CID>  (1) 
19538

>  <PUBCHEM_CONFORMER_RMSD>  (1) 
0.8

>  <PUBCHEM_CONFORMER_DIVERSEORDER>  (1) 
1
88
79
81
38
77
47
63
15
51
31
58
17
55
61
84
34
18
41
74
28
44
26
21
69
6
80
30
67
59
78
40
13
33
12
62
7
50
25
86
89
4
64
65
37
54
29
16
10
83
68
42
2
66
22
70
23
85
19
52
32
8
24
73
49
27
72
9
82
20
75
3
35
46
11
56
5
53
14
60
76
39
71
57
36
48
43
45
87

>  <PUBCHEM_MMFF94_PARTIAL_CHARGES>  (1) 
21
1 -0.43
11 0.78
12 0.12
13 -0.15
14 -0.15
15 -0.15
16 -0.15
17 -0.15
2 -0.57
3 -0.81
32 0.37
33 0.15
34 0.15
35 0.15
36 0.15
37 0.15
4 -0.55
5 0.27
6 0.27
7 0.27
8 0.28

>  <PUBCHEM_EFFECTIVE_ROTOR_COUNT>  (1) 
8

>  <PUBCHEM_PHARMACOPHORE_FEATURES>  (1) 
4
1 2 acceptor
1 3 cation
1 4 donor
6 12 13 14 15 16 17 rings

>  <PUBCHEM_HEAVY_ATOM_COUNT>  (1) 
17

>  <PUBCHEM_ATOM_DEF_STEREO_COUNT>  (1) 
0

>  <PUBCHEM_ATOM_UDEF_STEREO_COUNT>  (1) 
0

>  <PUBCHEM_BOND_DEF_STEREO_COUNT>  (1) 
0

>  <PUBCHEM_BOND_UDEF_STEREO_COUNT>  (1) 
0

>  <PUBCHEM_ISOTOPIC_ATOM_COUNT>  (1) 
0

>  <PUBCHEM_COMPONENT_COUNT>  (1) 
1

>  <PUBCHEM_CACTVS_TAUTO_COUNT>  (1) 
2

>  <PUBCHEM_CONFORMER_ID>  (1) 
00004C5200000001

>  <PUBCHEM_MMFF94_ENERGY>  (1) 
35.7495

>  <PUBCHEM_FEATURE_SELFOVERLAP>  (1) 
20.297

>  <PUBCHEM_SHAPE_FINGERPRINT>  (1) 
10912923 1 16877942754147248625
11287383 113 18411139160177506786
11315181 36 17530966925499633163
12091667 2 17894916230523050289
12616971 3 15123511449619546473
13167823 11 18410290319799883587
13533116 47 14189305816391956454
14123238 8 14836403627210174192
1420 363 18410298038035352179
14251718 22 18334577966412091986
14251732 16 18339361980264674608
14251764 18 18334852845141897378
14933364 13 18410577283771074801
15778101 99 18337955593820120529
17834072 33 18272369806225968718
17834076 25 16298389045786365545
17844677 252 18409737282773399721
18222031 100 16950562211749171222
19433438 28 18411698815943928569
19489759 90 18040152925017877553
20281389 69 18260546680678955421
20645477 70 18202005387571261862
21267235 1 18130515167598163678
21709351 56 18334571361032050485
220451 1 17530966856273923474
23081809 10 17312822675792200914
23402539 116 18186236234359355605
23402655 69 18060415794129636133
23536379 177 18408603647498192184
23559900 14 18412541007201085281
2916195 48 18339918315952921872
300161 21 17822284661561590227
3545911 37 18410013200594990893
4073 2 18186807993000914794
4214541 1 18409167706028046201
42788 4 18411138038911480520
441001 317 18340768148632209049
5104073 3 18341612590129819995
542803 24 16588026801047961172
59755656 215 18337674092572277622
90127 26 18187090571736624161

>  <PUBCHEM_SHAPE_MULTIPOLES>  (1) 
328.15
16.67
1.75
0.72
2.82
0
0
0.47
-0.45
2.17
0.09
0.08
0.02
1.41

>  <PUBCHEM_SHAPE_SELFOVERLAP>  (1) 
654.905

>  <PUBCHEM_SHAPE_VOLUME>  (1) 
195.1

>  <PUBCHEM_COORDINATE_TYPE>  (1) 
2
5
10

$$$$
