19546
     RDKit          3D

 17 16  0  0  0  0  0  0  0  0999 V2000
    9.1835   -0.1704   -0.0171 S   0  0  0  0  0  0  0  0  0  0  0  0
    5.2325   -0.4780   -0.0192 O   0  0  0  0  0  0  0  0  0  0  0  0
    6.6299    1.3537    0.0155 O   0  0  0  0  0  0  0  0  0  0  0  0
   -2.2636   -0.4607    0.0163 C   0  0  0  0  0  0  0  0  0  0  0  0
   -3.5542    0.3656    0.0110 C   0  0  0  0  0  0  0  0  0  0  0  0
   -0.9956    0.3963    0.0315 C   0  0  0  0  0  0  0  0  0  0  0  0
   -4.8613   -0.4318    0.0855 C   0  0  0  0  0  0  0  0  0  0  0  0
    0.2943   -0.4304    0.0241 C   0  0  0  0  0  0  0  0  0  0  0  0
   -6.1141    0.4452    0.0164 C   0  0  0  0  0  0  0  0  0  0  0  0
    1.5633    0.4257    0.0147 C   0  0  0  0  0  0  0  0  0  0  0  0
   -7.4182   -0.3590    0.0021 C   0  0  0  0  0  0  0  0  0  0  0  0
    2.8207   -0.4494   -0.0208 C   0  0  0  0  0  0  0  0  0  0  0  0
   -8.6713    0.5123   -0.0938 C   0  0  0  0  0  0  0  0  0  0  0  0
    4.0998    0.3789   -0.0045 C   0  0  0  0  0  0  0  0  0  0  0  0
   -9.9372   -0.3290   -0.0278 C   0  0  0  0  0  0  0  0  0  0  0  0
    6.4573    0.1431   -0.0068 C   0  0  0  0  0  0  0  0  0  0  0  0
    7.5342   -0.9122   -0.0271 C   0  0  0  0  0  0  0  0  0  0  0  0
  1 17  1  0
  2 14  1  0
  2 16  1  0
  3 16  2  0
  4  5  1  0
  4  6  1  0
  5  7  1  0
  6  8  1  0
  7  9  1  0
  8 10  1  0
  9 11  1  0
 10 12  1  0
 11 13  1  0
 12 14  1  0
 13 15  1  0
 16 17  1  0
M  END
>  <PUBCHEM_COMPOUND_CID>  (1) 
19546

>  <PUBCHEM_CONFORMER_RMSD>  (1) 
1.2

>  <PUBCHEM_CONFORMER_DIVERSEORDER>  (1) 
1
43
15
7
45
14
77
61
47
8
19
66
2
44
16
30
84
87
62
90
4
36
86
89
56
73
70
52
63
21
50
68
75
64
57
17
22
28
6
33
24
27
13
82
80
41
46
92
78
32
39
29
20
26
72
59
71
37
3
34
18
25
85
12
10
91
76
23
9
69
55
53
40
79
60
74
31
51
42
67
83
54
48
11
65
35
88
58
38
5
49
81

>  <PUBCHEM_MMFF94_PARTIAL_CHARGES>  (1) 
7
1 -0.41
14 0.28
16 0.66
17 0.29
2 -0.43
3 -0.57
45 0.18

>  <PUBCHEM_EFFECTIVE_ROTOR_COUNT>  (1) 
13

>  <PUBCHEM_PHARMACOPHORE_FEATURES>  (1) 
2
1 15 hydrophobe
1 3 acceptor

>  <PUBCHEM_HEAVY_ATOM_COUNT>  (1) 
17

>  <PUBCHEM_ATOM_DEF_STEREO_COUNT>  (1) 
0

>  <PUBCHEM_ATOM_UDEF_STEREO_COUNT>  (1) 
0

>  <PUBCHEM_BOND_DEF_STEREO_COUNT>  (1) 
0

>  <PUBCHEM_BOND_UDEF_STEREO_COUNT>  (1) 
0

>  <PUBCHEM_ISOTOPIC_ATOM_COUNT>  (1) 
0

>  <PUBCHEM_COMPONENT_COUNT>  (1) 
1

>  <PUBCHEM_CACTVS_TAUTO_COUNT>  (1) 
1

>  <PUBCHEM_CONFORMER_ID>  (1) 
00004C5A00000001

>  <PUBCHEM_MMFF94_ENERGY>  (1) 
4.0762

>  <PUBCHEM_FEATURE_SELFOVERLAP>  (1) 
10.148

>  <PUBCHEM_SHAPE_FINGERPRINT>  (1) 
14123256 10 18410855455833194499
14251764 18 17489873726304430347
14251764 46 17346598573417345054
15510794 2 18260271849816250411
155225 1 18335422413872699532
16120349 18 18409165549511813372
18006028 8 17632577150051069841
20621476 8 17967530168670075447
21150785 3 17418375792338284735
22224240 67 17240201045300947619
232437 2 18411138039550076303
23521765 1 18341894090834051079
23581129 1 18409449184756249287
246663 6 18410576179879739399
28498 318 18410855439086024038
33684 2 18410855455833200995
4325135 7 18343019986467038647
67123 10 18410856568229724167
8209 1 18410575084663078914

>  <PUBCHEM_SHAPE_MULTIPOLES>  (1) 
341.96
35.84
0.88
0.61
14.72
0.06
0
-1.33
0.63
-0.61
0
0.02
-0.01
0.05

>  <PUBCHEM_SHAPE_SELFOVERLAP>  (1) 
612.499

>  <PUBCHEM_SHAPE_VOLUME>  (1) 
220.9

>  <PUBCHEM_COORDINATE_TYPE>  (1) 
2
5
10

$$$$
