19566
     RDKit          3D

 38 43  0  0  1  0  0  0  0  0999 V2000
   -3.0665    2.7174    1.6296 O   0  0  0  0  0  0  0  0  0  0  0  0
    3.8792   -1.6010   -0.0894 O   0  0  0  0  0  0  0  0  0  0  0  0
    0.1088   -0.7897    3.7601 O   0  0  0  0  0  0  0  0  0  0  0  0
   -7.8874   -0.7760   -1.7427 O   0  0  0  0  0  0  0  0  0  0  0  0
    4.7234    0.1555   -1.3855 O   0  0  0  0  0  0  0  0  0  0  0  0
   -7.7933   -3.0699   -1.5835 O   0  0  0  0  0  0  0  0  0  0  0  0
    8.6279   -0.9890   -0.5889 O   0  0  0  0  0  0  0  0  0  0  0  0
    8.1049    1.5965   -1.7091 O   0  0  0  0  0  0  0  0  0  0  0  0
   -3.1180    1.8404    0.5060 C   0  0  0  0  0  0  0  0  0  0  0  0
   -1.7065    1.1748    0.3552 C   0  0  0  0  0  0  0  0  0  0  0  0
   -4.2880    0.8174    0.6519 C   0  0  0  0  0  0  0  0  0  0  0  0
   -1.4520    0.0946    1.4407 C   0  0  0  0  0  0  0  0  0  0  0  0
   -0.0219   -0.5537    1.3551 C   0  0  0  0  0  0  0  0  0  0  0  0
   -4.4580    0.3458   -0.8209 C   0  0  0  0  0  0  0  0  0  0  0  0
   -3.9476   -0.3202    1.6320 C   0  0  0  0  0  0  0  0  0  0  0  0
    1.0776    0.5454    1.2983 C   0  0  0  0  0  0  0  0  0  0  0  0
   -2.5810   -0.9534    1.4063 C   0  0  0  0  0  0  0  0  0  0  0  0
   -3.5086    2.6143   -0.7734 C   0  0  0  0  0  0  0  0  0  0  0  0
   -0.5772    2.2245    0.3980 C   0  0  0  0  0  0  0  0  0  0  0  0
   -4.2919    1.6297   -1.6509 C   0  0  0  0  0  0  0  0  0  0  0  0
    0.7908    1.5868    0.2079 C   0  0  0  0  0  0  0  0  0  0  0  0
    0.1248   -1.5485    0.1772 C   0  0  0  0  0  0  0  0  0  0  0  0
   -5.5899    1.4830    1.1776 C   0  0  0  0  0  0  0  0  0  0  0  0
    2.4874   -0.0458    1.1161 C   0  0  0  0  0  0  0  0  0  0  0  0
    1.5423   -2.1003    0.0165 C   0  0  0  0  0  0  0  0  0  0  0  0
    2.5884   -0.9980   -0.0720 C   0  0  0  0  0  0  0  0  0  0  0  0
   -5.7106   -0.4059   -1.1382 C   0  0  0  0  0  0  0  0  0  0  0  0
    0.1689   -1.3150    2.6535 C   0  0  0  0  0  0  0  0  0  0  0  0
   -6.9526    0.2881   -1.5349 C   0  0  0  0  0  0  0  0  0  0  0  0
   -5.8836   -1.7246   -1.1121 C   0  0  0  0  0  0  0  0  0  0  0  0
   -7.2742   -1.9704   -1.4973 C   0  0  0  0  0  0  0  0  0  0  0  0
    4.9099   -0.6212   -0.2016 C   0  0  0  0  0  0  0  0  0  0  0  0
    6.2741   -1.3031   -0.2003 C   0  0  0  0  0  0  0  0  0  0  0  0
    7.3984   -0.2932   -0.3958 C   0  0  0  0  0  0  0  0  0  0  0  0
    5.7080    1.1744   -1.5923 C   0  0  0  0  0  0  0  0  0  0  0  0
    7.1200    0.5720   -1.6242 C   0  0  0  0  0  0  0  0  0  0  0  0
    5.5316    2.3238   -0.5980 C   0  0  0  0  0  0  0  0  0  0  0  0
    8.9423   -1.8057    0.5291 C   0  0  0  0  0  0  0  0  0  0  0  0
  1  9  1  0
  2 26  1  0
  2 32  1  0
  3 28  2  0
  4 29  1  0
  4 31  1  0
  5 32  1  0
  5 35  1  0
  6 31  2  0
  7 34  1  0
  7 38  1  0
  8 36  1  0
  9 10  1  0
  9 11  1  0
  9 18  1  0
 10 12  1  0
 10 19  1  0
 11 14  1  0
 11 15  1  0
 11 23  1  0
 12 13  1  0
 12 17  1  0
 13 16  1  0
 13 22  1  0
 13 28  1  0
 14 20  1  0
 14 27  1  0
 15 17  1  0
 16 21  1  0
 16 24  1  0
 18 20  1  0
 19 21  1  0
 22 25  1  0
 24 26  1  0
 25 26  1  0
 27 29  1  0
 27 30  2  0
 30 31  1  0
 32 33  1  0
 33 34  1  0
 34 36  1  0
 35 36  1  0
 35 37  1  0
M  END
>  <PUBCHEM_COMPOUND_CID>  (1) 
19566

>  <PUBCHEM_CONFORMER_RMSD>  (1) 
1

>  <PUBCHEM_CONFORMER_DIVERSEORDER>  (1) 
3
115
203
229
66
118
230
156
217
112
161
271
280
187
70
213
83
234
265
318
132
17
236
320
117
141
206
294
47
71
67
87
244
186
220
75
50
248
209
312
25
106
138
301
126
149
225
53
84
137
212
315
155
299
300
127
28
292
105
298
34
154
316
143
287
64
16
65
331
274
176
238
168
221
164
82
278
201
305
152
145
204
324
49
243
310
261
272
308
111
169
18
309
183
147
227
192
166
296
190
281
97
36
224
194
102
333
273
90
289
219
95
291
100
249
314
91
139
200
136
260
288
153
57
124
20
266
323
277
130
43
307
80
233
311
151
48
262
10
93
61
182
150
279
317
98
15
207
191
245
170
284
239
92
177
202
131
86
322
72
165
222
247
38
119
332
325
63
313
173
329
85
5
231
246
62
6
69
196
32
208
263
144
78
297
163
123
215
319
8
140
114
22
41
216
158
27
193
255
241
128
252
81
157
232
19
172
167
51
295
321
148
99
68
226
240
174
256
303
326
189
1
159
293
46
4
122
270
73
26
218
228
96
205
108
185
237
327
104
74
178
120
109
121
253
110
275
135
59
198
258
175
267
268
223
23
197
211
56
184
210
45
88
94
160
264
129
39
125
199
282
257
76
290
58
181
31
254
37
142
30
276
101
180
242
302
12
60
250
113
44
42
188
330
134
328
21
179
269
11
55
334
116
286
162
13
146
52
79
283
40
214
304
133
89
285
24
103
235
14
33
7
54
306
259
107
35
171
29
251
2
195
9
77

>  <PUBCHEM_MMFF94_PARTIAL_CHARGES>  (1) 
26
1 -0.68
13 0.06
14 0.14
2 -0.56
26 0.28
27 -0.28
28 0.45
29 0.42
3 -0.57
30 -0.14
31 0.71
32 0.56
34 0.28
35 0.28
36 0.28
38 0.28
4 -0.43
5 -0.56
6 -0.57
65 0.4
66 0.06
69 0.15
7 -0.56
79 0.4
8 -0.68
9 0.28

>  <PUBCHEM_EFFECTIVE_ROTOR_COUNT>  (1) 
8.8

>  <PUBCHEM_PHARMACOPHORE_FEATURES>  (1) 
15
1 1 acceptor
1 1 donor
1 2 acceptor
1 3 acceptor
1 5 acceptor
1 6 acceptor
1 7 acceptor
1 8 acceptor
1 8 donor
5 4 27 29 30 31 rings
5 9 11 14 18 20 rings
6 10 12 13 16 19 21 rings
6 13 16 22 24 25 26 rings
6 5 32 33 34 35 36 rings
6 9 10 11 12 15 17 rings

>  <PUBCHEM_HEAVY_ATOM_COUNT>  (1) 
38

>  <PUBCHEM_ATOM_DEF_STEREO_COUNT>  (1) 
8

>  <PUBCHEM_ATOM_UDEF_STEREO_COUNT>  (1) 
4

>  <PUBCHEM_BOND_DEF_STEREO_COUNT>  (1) 
0

>  <PUBCHEM_BOND_UDEF_STEREO_COUNT>  (1) 
0

>  <PUBCHEM_ISOTOPIC_ATOM_COUNT>  (1) 
0

>  <PUBCHEM_COMPONENT_COUNT>  (1) 
1

>  <PUBCHEM_CACTVS_TAUTO_COUNT>  (1) 
1

>  <PUBCHEM_CONFORMER_ID>  (1) 
00004C6E00000003

>  <PUBCHEM_MMFF94_ENERGY>  (1) 
129.1908

>  <PUBCHEM_FEATURE_SELFOVERLAP>  (1) 
76.391

>  <PUBCHEM_SHAPE_FINGERPRINT>  (1) 
10 15 8430317956673404511
10076449 9 16917066685036179686
10533779 1 12541511724795256599
11007060 377 17894354384049430168
11135609 12 14117805729924651633
11135926 11 17458631073220412163
11387372 6 14476955723244937213
11478447 183 18335128822782418903
12082328 90 17561082462626227222
12422481 6 12973602227307998914
131258 43 17703223053106528257
13150687 139 17458063746738020690
1361 4 17988079980769605246
13673619 4 16917344853488887777
13690498 29 17418091001726365077
13782708 43 16917058984708015423
13811026 1 18113622287390469070
13947930 73 16127526150469728591
14028597 1 9007070062177502772
14068700 675 18202282515645709329
14767858 380 18410856559803326596
14856354 85 17418100893030890049
15064986 266 18113338588438279185
15082195 135 18336267963614615276
15183329 4 18334013891546400260
15289351 153 17022895719540810016
15320295 40 18335133173310001900
15361156 5 18335422353531926689
15444296 121 15482404062650556611
15461852 350 18202285789022173062
18335252 98 14333408948515860254
20105231 36 13110967526961151860
20511986 3 16081086000216000242
21033648 29 14490476387054867282
21150785 3 18410291415000466678
21344244 246 18266737072582005485
22149856 69 9223235136027854438
23522609 53 18057350347196095265
23559900 14 18261682575090981040
23569917 315 17774730762714145870
23576562 1 17096090332628545639
2747138 104 14979962458661367698
2838139 119 18186526475586103788
3103668 31 16879925294731785083
3633792 109 17095518457891436090
4353968 344 18262796255830976476
4516262 110 17532103842910467508
504579 68 18040994046817790442
513202 73 13686311136009571475
54039377 194 15841552998295484031
6086070 43 16370727062486667284
9896288 288 13901370104740326419
999808 66 14261353552741500247

>  <PUBCHEM_SHAPE_MULTIPOLES>  (1) 
735.07
24.58
2.64
2.21
26.12
0.45
1
-5.88
-17.78
-1.22
-0.32
-2.16
-0.52
-3.17

>  <PUBCHEM_SHAPE_SELFOVERLAP>  (1) 
1579.202

>  <PUBCHEM_SHAPE_VOLUME>  (1) 
401.9

>  <PUBCHEM_COORDINATE_TYPE>  (1) 
2
5
10

$$$$
