1957
     RDKit          3D

 28 30  0  0  1  0  0  0  0  0999 V2000
   -0.2589    0.0236    1.7862 O   0  0  0  0  0  0  0  0  0  0  0  0
   -0.7289   -1.1733   -1.5613 O   0  0  0  0  0  0  0  0  0  0  0  0
   -1.7489   -1.5025    0.8879 N   0  0  0  0  0  0  0  0  0  0  0  0
    1.1915   -2.3382   -0.9494 N   0  0  0  0  0  0  0  0  0  0  0  0
   -2.4368    0.4052    3.5783 N   0  0  0  0  0  0  0  0  0  0  0  0
    3.6604   -0.8517   -0.6572 N   0  0  0  0  0  0  0  0  0  0  0  0
    6.2011    2.1348    0.7937 N   0  0  0  0  0  0  0  0  0  0  0  0
   -0.7516   -2.4677    0.4443 C   0  0  0  0  0  0  0  0  0  0  0  0
   -1.5443   -3.7360    0.1495 C   0  0  0  0  0  0  0  0  0  0  0  0
   -2.9190   -3.2092   -0.2549 C   0  0  0  0  0  0  0  0  0  0  0  0
   -3.1026   -1.9905    0.6367 C   0  0  0  0  0  0  0  0  0  0  0  0
   -1.4147   -0.3575    1.5941 C   0  0  0  0  0  0  0  0  0  0  0  0
   -0.1152   -1.9089   -0.7926 C   0  0  0  0  0  0  0  0  0  0  0  0
   -2.5782    0.4390    2.1285 C   0  0  0  0  0  0  0  0  0  0  0  0
   -2.5503    1.8751    1.6058 C   0  0  0  0  0  0  0  0  0  0  0  0
    2.0182   -1.9605   -2.0728 C   0  0  0  0  0  0  0  0  0  0  0  0
   -3.0975    1.9958    0.2026 C   0  0  0  0  0  0  0  0  0  0  0  0
    2.8026   -0.6850   -1.8070 C   0  0  0  0  0  0  0  0  0  0  0  0
   -2.2433    1.8667   -0.8926 C   0  0  0  0  0  0  0  0  0  0  0  0
   -4.4571    2.2358    0.0022 C   0  0  0  0  0  0  0  0  0  0  0  0
   -2.7484    1.9779   -2.1880 C   0  0  0  0  0  0  0  0  0  0  0  0
   -4.9620    2.3468   -1.2933 C   0  0  0  0  0  0  0  0  0  0  0  0
   -4.1076    2.2178   -2.3885 C   0  0  0  0  0  0  0  0  0  0  0  0
    4.5025    0.1380   -0.1764 C   0  0  0  0  0  0  0  0  0  0  0  0
    4.5556    1.3762   -0.8068 C   0  0  0  0  0  0  0  0  0  0  0  0
    5.2976   -0.1029    0.9385 C   0  0  0  0  0  0  0  0  0  0  0  0
    5.4135    2.3322   -0.2873 C   0  0  0  0  0  0  0  0  0  0  0  0
    6.1224    0.9192    1.3800 C   0  0  0  0  0  0  0  0  0  0  0  0
  1 12  2  0
  2 13  2  0
  3  8  1  0
  3 11  1  0
  3 12  1  0
  4 13  1  0
  4 16  1  0
  5 14  1  0
  6 18  1  0
  6 24  1  0
  7 27  2  0
  7 28  1  0
  8  9  1  0
  8 13  1  0
  9 10  1  0
 10 11  1  0
 12 14  1  0
 14 15  1  0
 15 17  1  0
 16 18  1  0
 17 19  2  0
 17 20  1  0
 19 21  1  0
 20 22  2  0
 21 23  2  0
 22 23  1  0
 24 25  2  0
 24 26  1  0
 25 27  1  0
 26 28  2  0
M  END
>  <PUBCHEM_COMPOUND_CID>  (1) 
1957

>  <PUBCHEM_CONFORMER_RMSD>  (1) 
1.2

>  <PUBCHEM_CONFORMER_DIVERSEORDER>  (1) 
1
186
77
289
165
2
97
226
80
32
131
169
8
261
285
207
254
197
232
115
92
21
145
199
195
269
155
83
173
43
255
52
111
191
280
256
117
274
47
246
127
187
272
128
143
18
227
44
200
278
214
75
69
26
134
265
205
103
31
286
29
13
183
163
202
42
284
194
293
161
188
11
139
6
184
258
229
259
262
238
133
239
129
81
270
243
132
121
33
101
149
136
50
71
295
54
193
201
20
176
62
107
271
220
70
158
123
74
37
190
90
235
27
105
160
241
168
63
154
159
53
12
96
110
56
126
9
93
68
294
150
10
137
250
24
244
233
230
25
166
177
87
147
157
38
180
279
224
45
251
4
98
240
84
276
206
290
179
86
46
203
141
283
292
125
122
208
85
3
210
16
192
211
94
114
41
249
228
263
253
61
89
49
17
218
51
19
215
108
79
252
213
5
291
34
36
162
170
277
248
234
135
181
245
39
57
72
109
189
171
182
14
152
217
48
231
142
104
66
112
95
7
67
60
120
175
237
185
102
30
204
167
196
28
148
58
113
78
225
178
118
223
73
116
222
198
209
65
287
288
247
242
156
99
55
236
22
281
273
164
100
275
221
266
146
282
140
138
268
130
35
119
257
59
216
219
267
212
40
153
144
91
174
88
106
64
260
264
23
76
151
82
124
15
172

>  <PUBCHEM_MMFF94_PARTIAL_CHARGES>  (1) 
39
1 -0.57
11 0.3
12 0.57
13 0.57
14 0.33
15 0.14
16 0.3
17 -0.14
18 0.37
19 -0.15
2 -0.57
20 -0.15
21 -0.15
22 -0.15
23 -0.15
24 0.1
25 -0.15
26 -0.15
27 0.16
28 0.16
3 -0.66
39 0.37
4 -0.73
42 0.36
43 0.36
46 0.15
47 0.15
48 0.4
49 0.15
5 -0.99
50 0.15
51 0.15
52 0.15
53 0.15
54 0.15
55 0.15
6 -0.87
7 -0.62
8 0.36

>  <PUBCHEM_EFFECTIVE_ROTOR_COUNT>  (1) 
11

>  <PUBCHEM_PHARMACOPHORE_FEATURES>  (1) 
11
1 1 acceptor
1 2 acceptor
1 4 donor
1 5 cation
1 5 donor
1 6 cation
1 6 donor
1 7 acceptor
5 3 8 9 10 11 rings
6 17 19 20 21 22 23 rings
6 7 24 25 26 27 28 rings

>  <PUBCHEM_HEAVY_ATOM_COUNT>  (1) 
28

>  <PUBCHEM_ATOM_DEF_STEREO_COUNT>  (1) 
0

>  <PUBCHEM_ATOM_UDEF_STEREO_COUNT>  (1) 
2

>  <PUBCHEM_BOND_DEF_STEREO_COUNT>  (1) 
0

>  <PUBCHEM_BOND_UDEF_STEREO_COUNT>  (1) 
0

>  <PUBCHEM_ISOTOPIC_ATOM_COUNT>  (1) 
0

>  <PUBCHEM_COMPONENT_COUNT>  (1) 
1

>  <PUBCHEM_CACTVS_TAUTO_COUNT>  (1) 
4

>  <PUBCHEM_CONFORMER_ID>  (1) 
000007A500000001

>  <PUBCHEM_MMFF94_ENERGY>  (1) 
71.5891

>  <PUBCHEM_FEATURE_SELFOVERLAP>  (1) 
55.823

>  <PUBCHEM_SHAPE_FINGERPRINT>  (1) 
10010297 198 7852127668443303967
10074138 170 17749396987737248891
105312 117 18411695469885044528
10838868 49 15864335909768143788
11112241 14 18265899060444332461
11578080 2 18410860923421904279
11582403 64 17605269584768933267
11725454 13 17605847910726412035
12156800 1 17975655620124507955
13583140 156 17895208657650554962
14251764 30 10375286968790180997
144659 39 18259702281360183488
14932701 244 18060133267524170319
15721738 202 11599709727984049824
16728300 4 13407093478679118953
1768 210 17489300923770385520
19309040 13 16628868117491052648
21095088 737 17561361764365329580
21304303 282 18186789297531001475
21401589 2 18410286999763498093
22907989 373 17846498114844095867
22956985 138 16392958397575086482
27425 322 16840818676887411985
4371632 12 18270686350802436999
445580 44 17967823789972561183
469060 322 18115328759971300315
57527585 21 17060348408901006880
6086070 43 18198911314648751990
6677587 24 17032142483222783013
7918774 8 10231456528297534917
9981440 41 18040715819073719499

>  <PUBCHEM_SHAPE_MULTIPOLES>  (1) 
539.58
12.62
4.11
2.53
21.3
2.18
-0.87
-11.67
-0.68
-3.66
1.22
-1.8
-0.64
2.33

>  <PUBCHEM_SHAPE_SELFOVERLAP>  (1) 
1136.727

>  <PUBCHEM_SHAPE_VOLUME>  (1) 
300.8

>  <PUBCHEM_COORDINATE_TYPE>  (1) 
2
5
10

$$$$
