19572
     RDKit          2D

 22 22  0  0  0  0  0  0  0  0999 V2000
    0.0000    0.0000    0.0000 O   0  0  0  0  0  0  0  0  0  0  0  0
    0.0000    0.0000    0.0000 O   0  0  0  0  0  0  0  0  0  0  0  0
    0.0000    0.0000    0.0000 O   0  0  0  0  0  0  0  0  0  0  0  0
    0.0000    0.0000    0.0000 N   0  0  0  0  0  0  0  0  0  0  0  0
    0.0000    0.0000    0.0000 N   0  0  0  0  0  0  0  0  0  0  0  0
    0.0000    0.0000    0.0000 C   0  0  0  0  0  0  0  0  0  0  0  0
    0.0000    0.0000    0.0000 C   0  0  0  0  0  0  0  0  0  0  0  0
    0.0000    0.0000    0.0000 C   0  0  0  0  0  0  0  0  0  0  0  0
    0.0000    0.0000    0.0000 C   0  0  0  0  0  0  0  0  0  0  0  0
    0.0000    0.0000    0.0000 C   0  0  0  0  0  0  0  0  0  0  0  0
    0.0000    0.0000    0.0000 C   0  0  0  0  0  0  0  0  0  0  0  0
    0.0000    0.0000    0.0000 C   0  0  0  0  0  0  0  0  0  0  0  0
    0.0000    0.0000    0.0000 C   0  0  0  0  0  0  0  0  0  0  0  0
    0.0000    0.0000    0.0000 C   0  0  0  0  0  0  0  0  0  0  0  0
    0.0000    0.0000    0.0000 C   0  0  0  0  0  0  0  0  0  0  0  0
    0.0000    0.0000    0.0000 C   0  0  0  0  0  0  0  0  0  0  0  0
    0.0000    0.0000    0.0000 C   0  0  0  0  0  0  0  0  0  0  0  0
    0.0000    0.0000    0.0000 C   0  0  0  0  0  0  0  0  0  0  0  0
    0.0000    0.0000    0.0000 C   0  0  0  0  0  0  0  0  0  0  0  0
    0.0000    0.0000    0.0000 C   0  0  0  0  0  0  0  0  0  0  0  0
    0.0000    0.0000    0.0000 C   0  0  0  0  0  0  0  0  0  0  0  0
    0.0000    0.0000    0.0000 C   0  0  0  0  0  0  0  0  0  0  0  0
  1  9  1  0
  1 17  1  0
  2 13  1  0
  2 16  1  0
  3 17  2  0
  4  6  1  0
  4  7  1  0
  4  8  1  0
  5 18  1  0
  6  9  1  0
  7 10  1  0
  8 11  1  0
 12 13  1  0
 12 14  1  0
 14 22  1  0
 15 17  1  0
 15 19  2  0
 15 20  1  0
 16 18  2  0
 16 21  1  0
 18 19  1  0
 20 21  2  0
M  END
>  <PUBCHEM_COMPOUND_CID>  (1) 
19572

>  <PUBCHEM_CONFORMER_RMSD>  (1) 
1

>  <PUBCHEM_CONFORMER_DIVERSEORDER>  (1) 
26
69
115
80
43
107
93
105
35
92
104
106
55
71
119
54
89
77
46
44
90
63
79
102
51
83
49
19
40
5
75
24
61
108
36
116
16
111
56
98
15
59
88
34
48
9
76
112
87
23
18
45
13
81
47
96
85
25
29
78
31
39
66
37
12
28
99
97
3
65
64
58
117
50
113
91
4
109
74
17
33
21
60
118
114
68
11
94
7
41
100
82
8
73
1
95
67
32
70
2
110
86
57
72
6
22
14
62
84
30
53
10
101
103
52
42
27
20
38

>  <PUBCHEM_MMFF94_PARTIAL_CHARGES>  (1) 
22
1 -0.43
13 0.28
15 0.09
16 0.08
17 0.63
18 0.1
19 -0.15
2 -0.36
20 -0.15
21 -0.15
3 -0.57
4 -0.81
43 0.15
44 0.15
45 0.15
49 0.4
5 -0.9
50 0.4
6 0.27
7 0.27
8 0.27
9 0.28

>  <PUBCHEM_EFFECTIVE_ROTOR_COUNT>  (1) 
11

>  <PUBCHEM_PHARMACOPHORE_FEATURES>  (1) 
7
1 2 acceptor
1 22 hydrophobe
1 3 acceptor
1 4 cation
1 5 cation
1 5 donor
6 15 16 18 19 20 21 rings

>  <PUBCHEM_HEAVY_ATOM_COUNT>  (1) 
22

>  <PUBCHEM_ATOM_DEF_STEREO_COUNT>  (1) 
0

>  <PUBCHEM_ATOM_UDEF_STEREO_COUNT>  (1) 
0

>  <PUBCHEM_BOND_DEF_STEREO_COUNT>  (1) 
0

>  <PUBCHEM_BOND_UDEF_STEREO_COUNT>  (1) 
0

>  <PUBCHEM_ISOTOPIC_ATOM_COUNT>  (1) 
0

>  <PUBCHEM_COMPONENT_COUNT>  (1) 
1

>  <PUBCHEM_CACTVS_TAUTO_COUNT>  (1) 
1

$$$$
