19577
     RDKit          3D

 17 17  0  0  1  0  0  0  0  0999 V2000
   -4.2274    0.2330    0.1217 S   0  0  0  0  0  0  0  0  0  0  0  0
    2.6523    0.4656   -2.1585 S   0  0  0  0  0  0  0  0  0  0  0  0
    2.8006    0.0251   -0.2644 P   0  0  0  0  0  0  0  0  0  0  0  0
    1.6126   -0.8727    0.3767 O   0  0  0  0  0  0  0  0  0  0  0  0
    4.1118   -0.8407    0.1637 O   0  0  0  0  0  0  0  0  0  0  0  0
    2.8933    1.2649    0.7851 O   0  0  0  0  0  0  0  0  0  0  0  0
   -4.9442   -0.9769    0.6791 O   0  0  0  0  0  0  0  0  0  0  0  0
   -1.5380    0.9783    0.1947 C   0  0  0  0  0  0  0  0  0  0  0  0
   -2.4562   -0.0716    0.1981 C   0  0  0  0  0  0  0  0  0  0  0  0
    0.2708   -0.6083    0.3186 C   0  0  0  0  0  0  0  0  0  0  0  0
   -0.1707    0.7093    0.2552 C   0  0  0  0  0  0  0  0  0  0  0  0
   -2.0071   -1.3906    0.2621 C   0  0  0  0  0  0  0  0  0  0  0  0
   -0.6398   -1.6598    0.3226 C   0  0  0  0  0  0  0  0  0  0  0  0
   -1.9763    2.4056    0.1268 C   0  0  0  0  0  0  0  0  0  0  0  0
   -4.4693    0.2218   -1.6764 C   0  0  0  0  0  0  0  0  0  0  0  0
    4.2474   -2.1812   -0.2780 C   0  0  0  0  0  0  0  0  0  0  0  0
    3.8401    2.2982    0.5729 C   0  0  0  0  0  0  0  0  0  0  0  0
  1  7  2  0
  1  9  1  0
  1 15  1  0
  2  3  2  0
  3  4  1  0
  3  5  1  0
  3  6  1  0
  4 10  1  0
  5 16  1  0
  6 17  1  0
  8  9  2  0
  8 11  1  0
  8 14  1  0
  9 12  1  0
 10 11  2  0
 10 13  1  0
 12 13  2  0
M  END
>  <PUBCHEM_COMPOUND_CID>  (1) 
19577

>  <PUBCHEM_CONFORMER_RMSD>  (1) 
0.6

>  <PUBCHEM_CONFORMER_DIVERSEORDER>  (1) 
1
154
69
117
172
63
195
212
128
102
66
87
18
170
182
199
189
88
203
155
135
68
168
184
136
183
38
198
211
121
197
120
130
34
122
15
179
181
194
213
70
25
210
159
187
49
19
115
103
137
173
214
113
58
174
144
101
12
116
123
186
129
157
204
94
48
131
145
24
208
11
163
127
185
119
14
20
65
200
23
51
191
201
77
140
152
134
106
109
27
78
82
72
81
89
206
149
166
215
35
44
169
86
165
107
196
50
32
60
100
31
160
112
17
142
6
55
146
178
193
90
97
202
42
91
96
209
29
3
126
161
52
28
95
8
30
46
74
148
73
110
153
43
40
2
118
16
41
104
125
207
33
167
205
75
216
143
21
37
85
151
36
45
156
188
158
7
92
67
61
192
139
141
62
10
124
76
177
79
4
56
5
162
114
176
84
138
47
98
59
190
71
57
83
22
99
13
93
150
147
133
39
80
180
64
9
111
105
26
164
108
175
171
132
53
54

>  <PUBCHEM_MMFF94_PARTIAL_CHARGES>  (1) 
20
1 0.24
10 0.08
11 -0.15
12 -0.15
13 -0.15
14 0.14
15 0.19
16 0.28
17 0.28
18 0.15
19 0.15
2 -0.68
20 0.15
3 1.49
4 -0.35
5 -0.55
6 -0.55
7 -0.5
8 -0.14
9 0.06

>  <PUBCHEM_EFFECTIVE_ROTOR_COUNT>  (1) 
5

>  <PUBCHEM_PHARMACOPHORE_FEATURES>  (1) 
2
1 7 acceptor
6 8 9 10 11 12 13 rings

>  <PUBCHEM_HEAVY_ATOM_COUNT>  (1) 
17

>  <PUBCHEM_ATOM_DEF_STEREO_COUNT>  (1) 
0

>  <PUBCHEM_ATOM_UDEF_STEREO_COUNT>  (1) 
1

>  <PUBCHEM_BOND_DEF_STEREO_COUNT>  (1) 
0

>  <PUBCHEM_BOND_UDEF_STEREO_COUNT>  (1) 
0

>  <PUBCHEM_ISOTOPIC_ATOM_COUNT>  (1) 
0

>  <PUBCHEM_COMPONENT_COUNT>  (1) 
1

>  <PUBCHEM_CACTVS_TAUTO_COUNT>  (1) 
1

>  <PUBCHEM_CONFORMER_ID>  (1) 
00004C7900000001

>  <PUBCHEM_MMFF94_ENERGY>  (1) 
37.7445

>  <PUBCHEM_FEATURE_SELFOVERLAP>  (1) 
10.148

>  <PUBCHEM_SHAPE_FINGERPRINT>  (1) 
10608611 8 18412261740275369096
11543360 7 16558747962020866825
12403259 226 18337951182308380848
12403259 415 18187643587647006533
12403260 363 18270391698876533880
13533116 47 18410576162916570318
13675066 3 18113337548075057219
13760787 5 18272929427864494263
14115302 16 18187372042444728070
15196674 1 18411138043633917329
15536298 74 18412262852471276224
16945 1 18410300215736433737
17802600 8 18410009897348292024
18186145 218 17894911802306383347
200 152 17846774083693792571
20369508 70 18341895165293605134
20645477 56 18261390108611659112
20645477 70 18272938228078819902
21524375 3 18262523567798307155
23402539 116 18271519802238704055
23557571 272 18055645163753830918
23558518 356 18045514010460352467
23559900 14 18411698816233903424
2748010 2 18123468547377265867
312423 11 18271539614754327744
3286 77 18411137992147011860
351380 180 18342734092164133044
3545911 37 18335704991906308160
5104073 3 18410296904237625633
5374978 207 18409729581854489592
537710 114 18261119603419473765
633830 44 18131358488194121413
69090 78 18273209802775962118
7364860 26 18413672414031233850
9709674 26 18271531896661472438
9981440 41 17465958455374827792

>  <PUBCHEM_SHAPE_MULTIPOLES>  (1) 
337.92
9.49
2.17
1.23
1.61
0.49
0.91
-0.83
1.07
-1.56
-0.42
-0.21
0.24
0.58

>  <PUBCHEM_SHAPE_SELFOVERLAP>  (1) 
639.552

>  <PUBCHEM_SHAPE_VOLUME>  (1) 
212.1

>  <PUBCHEM_COORDINATE_TYPE>  (1) 
2
5
10

$$$$
