19575
     RDKit          3D

 14 15  0  0  0  0  0  0  0  0999 V2000
    4.1551    1.1499   -0.1947 Cl  0  0  0  0  0  0  0  0  0  0  0  0
    1.8468    0.0124   -0.7979 O   0  0  0  0  0  0  0  0  0  0  0  0
    2.3362    0.1871    1.4594 O   0  0  0  0  0  0  0  0  0  0  0  0
   -0.5010    0.1608   -0.2489 C   0  0  0  0  0  0  0  0  0  0  0  0
   -1.6992   -0.5081    0.0974 C   0  0  0  0  0  0  0  0  0  0  0  0
    0.6672   -0.5890   -0.4619 C   0  0  0  0  0  0  0  0  0  0  0  0
   -1.6937   -1.9071    0.2203 C   0  0  0  0  0  0  0  0  0  0  0  0
   -0.5064    1.5598   -0.3720 C   0  0  0  0  0  0  0  0  0  0  0  0
   -2.8675    0.2416    0.3101 C   0  0  0  0  0  0  0  0  0  0  0  0
    0.6544   -1.9783   -0.3355 C   0  0  0  0  0  0  0  0  0  0  0  0
   -0.5238   -2.6361    0.0049 C   0  0  0  0  0  0  0  0  0  0  0  0
   -1.6764    2.2888   -0.1570 C   0  0  0  0  0  0  0  0  0  0  0  0
   -2.8546    1.6310    0.1834 C   0  0  0  0  0  0  0  0  0  0  0  0
    2.6628    0.3872    0.2925 C   0  0  0  0  0  0  0  0  0  0  0  0
  1 14  1  0
  2  6  1  0
  2 14  1  0
  3 14  2  0
  4  5  1  0
  4  6  2  0
  4  8  1  0
  5  7  2  0
  5  9  1  0
  6 10  1  0
  7 11  1  0
  8 12  2  0
  9 13  2  0
 10 11  2  0
 12 13  1  0
M  END
>  <PUBCHEM_COMPOUND_CID>  (1) 
19575

>  <PUBCHEM_CONFORMER_RMSD>  (1) 
0.6

>  <PUBCHEM_CONFORMER_DIVERSEORDER>  (1) 
1
7
9
5
10
2
3
6
8
4

>  <PUBCHEM_MMFF94_PARTIAL_CHARGES>  (1) 
19
1 -0.21
10 -0.15
11 -0.15
12 -0.15
13 -0.15
14 0.93
15 0.15
16 0.15
17 0.15
18 0.15
19 0.15
2 -0.23
20 0.15
21 0.15
3 -0.57
6 0.08
7 -0.15
8 -0.15
9 -0.15

>  <PUBCHEM_EFFECTIVE_ROTOR_COUNT>  (1) 
2

>  <PUBCHEM_PHARMACOPHORE_FEATURES>  (1) 
3
1 3 acceptor
6 4 5 6 7 10 11 rings
6 4 5 8 9 12 13 rings

>  <PUBCHEM_HEAVY_ATOM_COUNT>  (1) 
14

>  <PUBCHEM_ATOM_DEF_STEREO_COUNT>  (1) 
0

>  <PUBCHEM_ATOM_UDEF_STEREO_COUNT>  (1) 
0

>  <PUBCHEM_BOND_DEF_STEREO_COUNT>  (1) 
0

>  <PUBCHEM_BOND_UDEF_STEREO_COUNT>  (1) 
0

>  <PUBCHEM_ISOTOPIC_ATOM_COUNT>  (1) 
0

>  <PUBCHEM_COMPONENT_COUNT>  (1) 
1

>  <PUBCHEM_CACTVS_TAUTO_COUNT>  (1) 
1

>  <PUBCHEM_CONFORMER_ID>  (1) 
00004C7700000001

>  <PUBCHEM_MMFF94_ENERGY>  (1) 
45.3721

>  <PUBCHEM_FEATURE_SELFOVERLAP>  (1) 
15.249

>  <PUBCHEM_SHAPE_FINGERPRINT>  (1) 
12382932 28 18409172103800127505
13140716 1 18050016781216959699
13380535 76 18339638941025230223
13764800 53 18411986870541556872
14420673 8 18192421975868534962
14614273 12 18261387806831195581
14648413 74 17616535060384310601
15669948 3 18337104683014228106
15775835 57 18410295787430063928
16945 1 18410018753602478943
20510252 161 18342182210146326432
20871998 184 18269281316597114335
21501502 16 18341043000215220823
21524375 3 18271517598620002070
23236772 104 17895191172764813592
2334 1 17762062438154773055
23388829 49 16759431077403716631
23402539 116 18198897192394979095
23557571 272 18055088802839658028
23559900 14 18200604610173947062
23598294 1 18335695108959785218
2748010 2 18192163590033827919
305870 269 18192146005952466738
3071541 236 18261103106328854987
5255222 1 17397836678649817221
53812653 166 18271528606737187417
54338 74 18120360206166917447
5706482 22 18339346496665076914
6333449 129 18412545439675672421
7097593 13 18043507487908045938
7364860 26 17838053702302499919
77492 1 17603867866383461716
81228 2 18124301955183838834

>  <PUBCHEM_SHAPE_MULTIPOLES>  (1) 
278.24
4.96
2.61
0.82
4.47
0.82
-0.13
-2.77
-0.57
-1.35
0.15
0.33
-0.02
0.09

>  <PUBCHEM_SHAPE_SELFOVERLAP>  (1) 
597.316

>  <PUBCHEM_SHAPE_VOLUME>  (1) 
151.8

>  <PUBCHEM_COORDINATE_TYPE>  (1) 
2
5
10

$$$$
