19587
     RDKit          3D

 16 16  0  0  1  0  0  0  0  0999 V2000
    5.8961   -0.4440    0.1645 Cl  0  0  0  0  0  0  0  0  0  0  0  0
   -0.8347   -1.3834   -0.8462 O   0  0  0  0  0  0  0  0  0  0  0  0
   -2.1494    0.1684    0.2593 N   0  0  0  0  0  0  0  0  0  0  0  0
    0.1058    0.6516   -0.2242 N   0  0  0  0  0  0  0  0  0  0  0  0
   -3.3597   -0.6505    0.2475 C   0  0  0  0  0  0  0  0  0  0  0  0
   -0.9340   -0.2777   -0.3099 C   0  0  0  0  0  0  0  0  0  0  0  0
   -3.8056   -0.9654    1.6694 C   0  0  0  0  0  0  0  0  0  0  0  0
   -2.2743    1.4740    0.8948 C   0  0  0  0  0  0  0  0  0  0  0  0
    1.4950    0.3887   -0.1305 C   0  0  0  0  0  0  0  0  0  0  0  0
    2.3797    1.4502   -0.0537 C   0  0  0  0  0  0  0  0  0  0  0  0
    1.9350   -0.9235   -0.1183 C   0  0  0  0  0  0  0  0  0  0  0  0
   -4.4224    0.0350   -0.5007 C   0  0  0  0  0  0  0  0  0  0  0  0
    3.7473    1.1915    0.0380 C   0  0  0  0  0  0  0  0  0  0  0  0
    3.3026   -1.1825   -0.0264 C   0  0  0  0  0  0  0  0  0  0  0  0
    4.2088   -0.1248    0.0517 C   0  0  0  0  0  0  0  0  0  0  0  0
   -5.2902    0.5925   -1.1153 C   0  0  0  0  0  0  0  0  0  0  0  0
  1 15  1  0
  2  6  2  0
  3  5  1  0
  3  6  1  0
  3  8  1  0
  4  6  1  0
  4  9  1  0
  5  7  1  0
  5 12  1  0
  9 10  2  0
  9 11  1  0
 10 13  1  0
 11 14  2  0
 12 16  3  0
 13 15  2  0
 14 15  1  0
M  END
>  <PUBCHEM_COMPOUND_CID>  (1) 
19587

>  <PUBCHEM_CONFORMER_RMSD>  (1) 
0.6

>  <PUBCHEM_CONFORMER_DIVERSEORDER>  (1) 
7
58
56
2
43
70
78
12
71
14
76
10
67
73
17
37
65
52
9
80
21
64
57
26
20
29
6
39
46
61
74
28
25
53
27
82
48
3
40
23
59
77
41
18
34
60
63
1
22
33
31
19
72
45
11
68
36
30
47
62
15
50
75
51
54
49
24
79
69
44
38
42
16
81
32
8
35
5
13
66
4
55

>  <PUBCHEM_MMFF94_PARTIAL_CHARGES>  (1) 
21
1 -0.18
10 -0.15
11 -0.15
12 -0.2
13 -0.15
14 -0.15
15 0.18
16 -0.18
2 -0.57
24 0.37
25 0.15
26 0.15
27 0.15
28 0.15
29 0.18
3 -0.66
4 -0.55
5 0.5
6 0.69
8 0.3
9 0.12

>  <PUBCHEM_EFFECTIVE_ROTOR_COUNT>  (1) 
4

>  <PUBCHEM_PHARMACOPHORE_FEATURES>  (1) 
4
1 16 hydrophobe
1 2 acceptor
1 4 donor
6 9 10 11 13 14 15 rings

>  <PUBCHEM_HEAVY_ATOM_COUNT>  (1) 
16

>  <PUBCHEM_ATOM_DEF_STEREO_COUNT>  (1) 
0

>  <PUBCHEM_ATOM_UDEF_STEREO_COUNT>  (1) 
1

>  <PUBCHEM_BOND_DEF_STEREO_COUNT>  (1) 
0

>  <PUBCHEM_BOND_UDEF_STEREO_COUNT>  (1) 
0

>  <PUBCHEM_ISOTOPIC_ATOM_COUNT>  (1) 
0

>  <PUBCHEM_COMPONENT_COUNT>  (1) 
1

>  <PUBCHEM_CACTVS_TAUTO_COUNT>  (1) 
2

>  <PUBCHEM_CONFORMER_ID>  (1) 
00004C8300000007

>  <PUBCHEM_MMFF94_ENERGY>  (1) 
43.8711

>  <PUBCHEM_FEATURE_SELFOVERLAP>  (1) 
20.297

>  <PUBCHEM_SHAPE_FINGERPRINT>  (1) 
10366900 7 17489585670968746146
11471102 20 18411417323966605740
11796584 16 16950561056724969290
12236239 1 17632572755887724918
12251169 10 18344145904012712254
124424 183 18334857225554910429
12500047 106 17458343048582338803
12507557 5 18408604777011495209
12670546 56 17846495924473987200
13533116 47 17895745189228775907
13675066 3 18187646954800892681
13760787 5 18130794481467885129
14123238 8 11959728278605805781
14251718 22 13110959846857564230
14252887 29 18130796620873327462
15242439 84 18040713662609545157
15375358 24 18186801387541504291
17802600 8 18131347509804415600
17834072 33 18272365416558356958
17834076 25 14851604371158641141
18186145 218 8430311312142336250
18522853 276 18273777142491837184
19026448 4 17894915165434457825
19489759 90 17821723936517266325
200 152 18130782352701702877
20279233 1 17894353267473795395
20645477 70 18411978027272791087
21267235 1 18342466936914491798
22485316 2 17312820476526449898
23035841 295 12107785190630353816
23402539 116 17489583450755438461
23402655 69 18412261739858475284
23557571 272 17531522084060782868
23559900 14 18113615698673260208
26918003 58 18260829306162971979
29717793 49 17846500309730704508
300161 21 13262393388475099974
3268164 11 15123509182056447833
351380 180 18343298163077859173
3545911 37 18040434382719792853
42 15 18409172116700821016
4214541 1 18186238437825277861
5104073 3 18340207500174142978
542803 24 14490190505251572741
69090 78 17989202663708330911

>  <PUBCHEM_SHAPE_MULTIPOLES>  (1) 
315.31
12.06
1.38
0.99
1.35
0.15
0.2
-0.5
-0.39
0.25
0.13
-1.3
-0.1
0.49

>  <PUBCHEM_SHAPE_SELFOVERLAP>  (1) 
634.879

>  <PUBCHEM_SHAPE_VOLUME>  (1) 
185.7

>  <PUBCHEM_COORDINATE_TYPE>  (1) 
2
5
10

$$$$
