19580
     RDKit          3D

 29 31  0  0  0  0  0  0  0  0999 V2000
   -3.6721    3.1625    0.0128 S   0  0  0  0  0  0  0  0  0  0  0  0
   -0.3172   -4.6368    0.1098 S   0  0  0  0  0  0  0  0  0  0  0  0
   -0.7212    2.9079    0.4425 O   0  0  0  0  0  0  0  0  0  0  0  0
   -3.2291    3.8859   -1.3836 O   0  0  0  0  0  0  0  0  0  0  0  0
    0.1394   -4.9230   -1.4337 O   0  0  0  0  0  0  0  0  0  0  0  0
   -5.0741    2.7992   -0.1208 O   0  0  0  0  0  0  0  0  0  0  0  0
   -3.2199    3.9924    1.1172 O   0  0  0  0  0  0  0  0  0  0  0  0
    0.8979   -4.3958    0.8742 O   0  0  0  0  0  0  0  0  0  0  0  0
   -1.2483   -5.6815    0.5064 O   0  0  0  0  0  0  0  0  0  0  0  0
    0.7501    0.5929    0.5431 N   0  0  0  0  0  0  0  0  0  0  0  0
    1.3412    0.6746   -0.5564 N   0  0  0  0  0  0  0  0  0  0  0  0
   -1.2810   -0.7152    0.1693 C   0  0  0  0  0  0  0  0  0  0  0  0
   -2.6799   -0.7456   -0.0426 C   0  0  0  0  0  0  0  0  0  0  0  0
   -0.6374    0.5227    0.3306 C   0  0  0  0  0  0  0  0  0  0  0  0
   -2.7386    1.6838    0.0761 C   0  0  0  0  0  0  0  0  0  0  0  0
   -3.3941    0.4629   -0.0866 C   0  0  0  0  0  0  0  0  0  0  0  0
   -0.5666   -1.9235    0.2131 C   0  0  0  0  0  0  0  0  0  0  0  0
   -1.3628    1.7136    0.2841 C   0  0  0  0  0  0  0  0  0  0  0  0
   -1.2220   -3.1444    0.0508 C   0  0  0  0  0  0  0  0  0  0  0  0
   -3.3232   -1.9835   -0.2043 C   0  0  0  0  0  0  0  0  0  0  0  0
   -2.5978   -3.1742   -0.1576 C   0  0  0  0  0  0  0  0  0  0  0  0
    2.7288    0.7450   -0.3444 C   0  0  0  0  0  0  0  0  0  0  0  0
    3.3601    1.9758   -0.1851 C   0  0  0  0  0  0  0  0  0  0  0  0
    5.4799    0.8460    0.0753 C   0  0  0  0  0  0  0  0  0  0  0  0
    4.7382    2.0264    0.0252 C   0  0  0  0  0  0  0  0  0  0  0  0
    3.4657   -0.4355   -0.2951 C   0  0  0  0  0  0  0  0  0  0  0  0
    4.8437   -0.3847   -0.0848 C   0  0  0  0  0  0  0  0  0  0  0  0
    2.5869    3.2530   -0.2355 C   0  0  0  0  0  0  0  0  0  0  0  0
    6.9533    0.8991    0.2999 C   0  0  0  0  0  0  0  0  0  0  0  0
  1  4  1  0
  1  6  2  0
  1  7  2  0
  1 15  1  0
  2  5  1  0
  2  8  2  0
  2  9  2  0
  2 19  1  0
  3 18  1  0
 10 11  2  0
 10 14  1  0
 11 22  1  0
 12 13  2  0
 12 14  1  0
 12 17  1  0
 13 16  1  0
 13 20  1  0
 14 18  2  0
 15 16  2  0
 15 18  1  0
 17 19  2  0
 19 21  1  0
 20 21  2  0
 22 23  2  0
 22 26  1  0
 23 25  1  0
 23 28  1  0
 24 25  2  0
 24 27  1  0
 24 29  1  0
 26 27  2  0
M  END
>  <PUBCHEM_COMPOUND_CID>  (1) 
19580

>  <PUBCHEM_CONFORMER_RMSD>  (1) 
0.8

>  <PUBCHEM_CONFORMER_DIVERSEORDER>  (1) 
1
6
2
5
4
3

>  <PUBCHEM_MMFF94_PARTIAL_CHARGES>  (1) 
37
1 1.49
10 -0.18
11 -0.18
14 0.18
15 -0.01
16 -0.15
17 -0.15
18 0.08
19 -0.01
2 1.49
20 -0.15
21 -0.15
22 0.18
23 -0.14
24 -0.14
25 -0.15
26 -0.15
27 -0.15
28 0.14
29 0.14
3 -0.53
30 0.15
31 0.15
32 0.15
33 0.15
34 0.15
35 0.45
36 0.15
37 0.15
4 -0.68
41 0.5
45 0.5
5 -0.68
6 -0.65
7 -0.65
8 -0.65
9 -0.65

>  <PUBCHEM_EFFECTIVE_ROTOR_COUNT>  (1) 
4

>  <PUBCHEM_PHARMACOPHORE_FEATURES>  (1) 
12
1 3 donor
1 4 acceptor
1 5 acceptor
1 6 acceptor
1 7 acceptor
1 8 acceptor
1 9 acceptor
4 1 4 6 7 anion
4 2 5 8 9 anion
6 12 13 14 15 16 18 rings
6 12 13 17 19 20 21 rings
6 22 23 24 25 26 27 rings

>  <PUBCHEM_HEAVY_ATOM_COUNT>  (1) 
29

>  <PUBCHEM_ATOM_DEF_STEREO_COUNT>  (1) 
0

>  <PUBCHEM_ATOM_UDEF_STEREO_COUNT>  (1) 
0

>  <PUBCHEM_BOND_DEF_STEREO_COUNT>  (1) 
0

>  <PUBCHEM_BOND_UDEF_STEREO_COUNT>  (1) 
0

>  <PUBCHEM_ISOTOPIC_ATOM_COUNT>  (1) 
0

>  <PUBCHEM_COMPONENT_COUNT>  (1) 
1

>  <PUBCHEM_CACTVS_TAUTO_COUNT>  (1) 
3

>  <PUBCHEM_CONFORMER_ID>  (1) 
00004C7C00000001

>  <PUBCHEM_MMFF94_ENERGY>  (1) 
67.3999

>  <PUBCHEM_FEATURE_SELFOVERLAP>  (1) 
61.038

>  <PUBCHEM_SHAPE_FINGERPRINT>  (1) 
10050765 1 17834679293535177913
10411042 1 17834395996679736027
10940486 97 18261119620942761172
1100329 8 18122344567157949738
11056379 131 18267599068528722548
12107183 9 18191015713132649482
12173636 292 18410009957409366669
12788726 201 18191578855632086122
12969540 37 16607722683422453943
13004483 165 18050283962004607611
13140716 1 18194409883277673858
13540713 5 17626094245375169665
13690498 29 17979096078234135430
138480 1 17329430541036813635
14363568 33 17473840424230845489
14659021 117 17983557874433597598
14790565 3 18339646616348338985
14844126 61 18264488562765542794
14866123 147 18339929337139677307
14955137 171 16468143445115775233
15042514 8 18121504810804287227
15230672 131 18263930948064031006
15320467 1 18338517572958289914
15400415 2 18338234869431164912
15439362 3 17905041448393895525
15664445 248 17120582705667264807
15927050 60 18269838610637802119
16628084 112 18338505435085507711
16719943 64 18410572881577127194
167882 2 17904761085982025781
17492 89 17976822313926244074
20775438 99 16543789325753884319
21033648 29 18342166765951131608
21133410 171 17259284289852825154
21133410 221 15093893518504139578
21796203 349 16747092323942724778
23559900 14 18123745628581840384
255183 313 18269856327435524537
283562 15 18413106174101117843
3380486 145 17615139105655059795
38695281 34 18337107852663319058
3882209 13 16544078518977138022
4214541 1 18410575119524470900
4409770 3 18336540633691818375
463206 1 17615410693802119026
5265222 85 18336847333106339476
5309563 4 17187008029752893166
532947 4 17979641130204687718
5385378 56 18051139094658013193
6669772 16 18197499532431563231
6700243 42 17478375188409922804
70251023 43 16895393387045353491
79837 15 18410019848613619283
9709674 26 18269846466080277990
9981440 41 18336550430353679641

>  <PUBCHEM_SHAPE_MULTIPOLES>  (1) 
553.46
10.47
7.32
0.81
18.76
6.7
0.09
-6.41
0.02
-9.33
0.07
-0.2
0.01
-0.03

>  <PUBCHEM_SHAPE_SELFOVERLAP>  (1) 
1188.885

>  <PUBCHEM_SHAPE_VOLUME>  (1) 
307.9

>  <PUBCHEM_COORDINATE_TYPE>  (1) 
2
5
10

$$$$
