19589
     RDKit          3D

  7  6  0  0  1  0  0  0  0  0999 V2000
   -0.8936   -0.5594   -0.3583 C   0  0  0  0  0  0  0  0  0  0  0  0
   -1.3444    0.6188    0.5276 C   0  0  0  0  0  0  0  0  0  0  0  0
    0.5501   -0.4319   -0.8927 C   0  0  0  0  0  0  0  0  0  0  0  0
   -1.1005   -1.8806    0.3921 C   0  0  0  0  0  0  0  0  0  0  0  0
   -1.2723    1.9690   -0.1715 C   0  0  0  0  0  0  0  0  0  0  0  0
    1.6173   -0.3766    0.1635 C   0  0  0  0  0  0  0  0  0  0  0  0
    2.4434    0.6607    0.3393 C   0  0  0  0  0  0  0  0  0  0  0  0
  1  2  1  0
  1  3  1  0
  1  4  1  0
  2  5  1  0
  3  6  1  0
  6  7  2  0
M  END
>  <PUBCHEM_COMPOUND_CID>  (1) 
19589

>  <PUBCHEM_CONFORMER_RMSD>  (1) 
0.4

>  <PUBCHEM_CONFORMER_DIVERSEORDER>  (1) 
1
20
7
34
35
26
19
8
22
14
32
16
10
31
6
28
25
15
2
27
13
30
24
17
3
11
21
18
29
9
23
12
33
4
5

>  <PUBCHEM_MMFF94_PARTIAL_CHARGES>  (1) 
6
19 0.15
20 0.15
21 0.15
3 0.14
6 -0.29
7 -0.3

>  <PUBCHEM_EFFECTIVE_ROTOR_COUNT>  (1) 
3

>  <PUBCHEM_PHARMACOPHORE_FEATURES>  (1) 
4
1 4 hydrophobe
1 5 hydrophobe
1 7 hydrophobe
4 1 2 3 6 hydrophobe

>  <PUBCHEM_HEAVY_ATOM_COUNT>  (1) 
7

>  <PUBCHEM_ATOM_DEF_STEREO_COUNT>  (1) 
0

>  <PUBCHEM_ATOM_UDEF_STEREO_COUNT>  (1) 
1

>  <PUBCHEM_BOND_DEF_STEREO_COUNT>  (1) 
0

>  <PUBCHEM_BOND_UDEF_STEREO_COUNT>  (1) 
0

>  <PUBCHEM_ISOTOPIC_ATOM_COUNT>  (1) 
0

>  <PUBCHEM_COMPONENT_COUNT>  (1) 
1

>  <PUBCHEM_CACTVS_TAUTO_COUNT>  (1) 
1

>  <PUBCHEM_CONFORMER_ID>  (1) 
00004C8500000001

>  <PUBCHEM_MMFF94_ENERGY>  (1) 
3.5905

>  <PUBCHEM_FEATURE_SELFOVERLAP>  (1) 
20.462

>  <PUBCHEM_SHAPE_FINGERPRINT>  (1) 
100427 49 17766555029375217161
20096714 4 18054789490045764364
21040471 1 18265342698321065028
23552449 1 18339637970299142308
23552449 11 17400933388704372339
24536 1 18338785789011579654
5084963 1 18057598768019241624
54338 74 18261944266867395145
5943 1 17169577265712078415

>  <PUBCHEM_SHAPE_MULTIPOLES>  (1) 
144.06
2.66
1.88
0.83
1.78
0.17
-0.07
0.63
0.44
-1.17
0.12
0.01
-0.06
0.18

>  <PUBCHEM_SHAPE_SELFOVERLAP>  (1) 
252.451

>  <PUBCHEM_SHAPE_VOLUME>  (1) 
96.2

>  <PUBCHEM_COORDINATE_TYPE>  (1) 
2
5
10

$$$$
