19585
     RDKit          3D

 14 16  0  0  1  0  0  0  0  0999 V2000
   -2.2504   -0.0678   -1.1589 N   0  0  0  0  0  0  0  0  0  0  0  0
    1.6530   -2.0150    0.0171 N   0  0  0  0  0  0  0  0  0  0  0  0
   -1.8129   -0.7830    0.0595 C   0  0  0  0  0  0  0  0  0  0  0  0
   -2.3328    0.0342    1.2479 C   0  0  0  0  0  0  0  0  0  0  0  0
   -3.1403    1.1614    0.6227 C   0  0  0  0  0  0  0  0  0  0  0  0
   -3.4717    0.6413   -0.7606 C   0  0  0  0  0  0  0  0  0  0  0  0
   -0.3253   -1.0085    0.0387 C   0  0  0  0  0  0  0  0  0  0  0  0
    0.6837   -0.0055    0.0102 C   0  0  0  0  0  0  0  0  0  0  0  0
    0.3017   -2.2332    0.0420 C   0  0  0  0  0  0  0  0  0  0  0  0
    1.9154   -0.6636   -0.0026 C   0  0  0  0  0  0  0  0  0  0  0  0
    0.6673    1.4034   -0.0059 C   0  0  0  0  0  0  0  0  0  0  0  0
    3.1364    0.0196   -0.0305 C   0  0  0  0  0  0  0  0  0  0  0  0
    1.8807    2.1000   -0.0339 C   0  0  0  0  0  0  0  0  0  0  0  0
    3.0952    1.4167   -0.0457 C   0  0  0  0  0  0  0  0  0  0  0  0
  1  3  1  0
  1  6  1  0
  2  9  1  0
  2 10  1  0
  3  4  1  0
  3  7  1  0
  4  5  1  0
  5  6  1  0
  7  8  1  0
  7  9  2  0
  8 10  2  0
  8 11  1  0
 10 12  1  0
 11 13  2  0
 12 14  2  0
 13 14  1  0
M  END
>  <PUBCHEM_COMPOUND_CID>  (1) 
19585

>  <PUBCHEM_CONFORMER_RMSD>  (1) 
0.6

>  <PUBCHEM_CONFORMER_DIVERSEORDER>  (1) 
1
2
6
7
4
5
8
9
3

>  <PUBCHEM_MMFF94_PARTIAL_CHARGES>  (1) 
18
1 -0.9
10 -0.15
11 -0.15
12 -0.15
13 -0.15
14 -0.15
2 0.03
22 0.36
23 0.15
24 0.27
25 0.15
26 0.15
27 0.15
28 0.15
3 0.45
6 0.27
7 -0.18
9 -0.3

>  <PUBCHEM_EFFECTIVE_ROTOR_COUNT>  (1) 
2

>  <PUBCHEM_PHARMACOPHORE_FEATURES>  (1) 
7
1 1 cation
1 1 donor
1 2 cation
1 2 donor
5 1 3 4 5 6 rings
5 2 7 8 9 10 rings
6 8 10 11 12 13 14 rings

>  <PUBCHEM_HEAVY_ATOM_COUNT>  (1) 
14

>  <PUBCHEM_ATOM_DEF_STEREO_COUNT>  (1) 
0

>  <PUBCHEM_ATOM_UDEF_STEREO_COUNT>  (1) 
1

>  <PUBCHEM_BOND_DEF_STEREO_COUNT>  (1) 
0

>  <PUBCHEM_BOND_UDEF_STEREO_COUNT>  (1) 
0

>  <PUBCHEM_ISOTOPIC_ATOM_COUNT>  (1) 
0

>  <PUBCHEM_COMPONENT_COUNT>  (1) 
1

>  <PUBCHEM_CACTVS_TAUTO_COUNT>  (1) 
1

>  <PUBCHEM_CONFORMER_ID>  (1) 
00004C8100000001

>  <PUBCHEM_MMFF94_ENERGY>  (1) 
19.0978

>  <PUBCHEM_FEATURE_SELFOVERLAP>  (1) 
35.614

>  <PUBCHEM_SHAPE_FINGERPRINT>  (1) 
10608611 8 18261391122635612045
10967382 1 18410575059046385880
10980938 120 18410575054598307850
11471102 20 18337387149774962941
11543360 7 15554167090161058304
124424 183 17749098968219050394
12491281 212 18339931509986758616
12654215 9 18334572391639526340
13380535 76 18409163346093071291
13618510 140 18410858788775685233
15219456 202 18187087239163521731
15309172 13 18335704978551875449
15775835 57 18273498978987763021
16945 1 18410576154336912394
17844478 74 17822302262132107213
18186145 218 18343029916700595100
18219364 16 18334863835198407777
19049666 15 17605835807381744025
20510252 161 17692815199947791794
21524375 3 18337106881715912178
21639500 275 18339066147149113445
22094290 62 18410855477645686648
2334 1 18122064470722712048
23402655 69 18341602686547372581
23419403 2 17260978340284189544
23493267 7 17458068157616296112
23557571 272 15051718816319580475
25 1 18408324367196989532
2748010 2 18194692681378364734
305870 269 18408602582478229938
528886 8 18411416224143683226
63268167 104 18413388713554569137
7364860 26 18271247106017189542
77492 1 17775281621631890419
81228 2 17329429956995231650

>  <PUBCHEM_SHAPE_MULTIPOLES>  (1) 
278.15
5.36
2.1
0.87
1.64
0.37
0.03
-2.23
-0.19
-1.1
0.04
0.68
-0.07
-0.06

>  <PUBCHEM_SHAPE_SELFOVERLAP>  (1) 
610.005

>  <PUBCHEM_SHAPE_VOLUME>  (1) 
152.9

>  <PUBCHEM_COORDINATE_TYPE>  (1) 
2
5
10

$$$$
