19591
     RDKit          3D

 14 16  0  0  0  0  0  0  0  0999 V2000
   -0.2560    1.8305    0.0003 N   0  0  0  0  0  0  0  0  0  0  0  0
    0.6389   -0.2119    0.0005 C   0  0  0  0  0  0  0  0  0  0  0  0
   -0.7869   -0.3352    0.0004 C   0  0  0  0  0  0  0  0  0  0  0  0
    0.9390    1.1505    0.0002 C   0  0  0  0  0  0  0  0  0  0  0  0
   -1.3165    0.9554    0.0000 C   0  0  0  0  0  0  0  0  0  0  0  0
    1.7038   -1.1371    0.0005 C   0  0  0  0  0  0  0  0  0  0  0  0
    2.2515    1.6365   -0.0001 C   0  0  0  0  0  0  0  0  0  0  0  0
   -1.6772   -1.4295    0.0004 C   0  0  0  0  0  0  0  0  0  0  0  0
   -2.6929    1.2089   -0.0003 C   0  0  0  0  0  0  0  0  0  0  0  0
    3.0218   -0.6663   -0.0001 C   0  0  0  0  0  0  0  0  0  0  0  0
    3.2892    0.7006   -0.0006 C   0  0  0  0  0  0  0  0  0  0  0  0
    1.4963   -2.6193   -0.0006 C   0  0  0  0  0  0  0  0  0  0  0  0
   -3.0564   -1.1919   -0.0001 C   0  0  0  0  0  0  0  0  0  0  0  0
   -3.5546    0.1087   -0.0005 C   0  0  0  0  0  0  0  0  0  0  0  0
  1  4  1  0
  1  5  1  0
  2  3  1  0
  2  4  2  0
  2  6  1  0
  3  5  2  0
  3  8  1  0
  4  7  1  0
  5  9  1  0
  6 10  2  0
  6 12  1  0
  7 11  2  0
  8 13  2  0
  9 14  2  0
 10 11  1  0
 13 14  1  0
M  END
>  <PUBCHEM_COMPOUND_CID>  (1) 
19591

>  <PUBCHEM_CONFORMER_RMSD>  (1) 
0.4

>  <PUBCHEM_CONFORMER_DIVERSEORDER>  (1) 
1

>  <PUBCHEM_MMFF94_PARTIAL_CHARGES>  (1) 
20
1 0.03
10 -0.15
11 -0.15
12 0.14
13 -0.15
14 -0.15
15 0.27
16 0.15
17 0.15
18 0.15
19 0.15
20 0.15
24 0.15
25 0.15
4 -0.15
5 -0.15
6 -0.14
7 -0.15
8 -0.15
9 -0.15

>  <PUBCHEM_EFFECTIVE_ROTOR_COUNT>  (1) 
0

>  <PUBCHEM_PHARMACOPHORE_FEATURES>  (1) 
5
1 1 cation
1 1 donor
5 1 2 3 4 5 rings
6 2 4 6 7 10 11 rings
6 3 5 8 9 13 14 rings

>  <PUBCHEM_HEAVY_ATOM_COUNT>  (1) 
14

>  <PUBCHEM_ATOM_DEF_STEREO_COUNT>  (1) 
0

>  <PUBCHEM_ATOM_UDEF_STEREO_COUNT>  (1) 
0

>  <PUBCHEM_BOND_DEF_STEREO_COUNT>  (1) 
0

>  <PUBCHEM_BOND_UDEF_STEREO_COUNT>  (1) 
0

>  <PUBCHEM_ISOTOPIC_ATOM_COUNT>  (1) 
0

>  <PUBCHEM_COMPONENT_COUNT>  (1) 
1

>  <PUBCHEM_CACTVS_TAUTO_COUNT>  (1) 
1

>  <PUBCHEM_CONFORMER_ID>  (1) 
00004C8700000001

>  <PUBCHEM_MMFF94_ENERGY>  (1) 
32.2234

>  <PUBCHEM_FEATURE_SELFOVERLAP>  (1) 
25.551

>  <PUBCHEM_SHAPE_FINGERPRINT>  (1) 
10608611 8 18409725162328256637
10967382 1 18410575097569209735
10980938 120 18410293605438977770
11132069 177 18410567414052052488
11471102 20 18410288112217978317
12032990 46 18410862074383130879
12382932 28 18413106147561200363
13140716 1 18339078293200510736
13221675 6 18411419513893589399
13380535 21 18338246993716750195
13380535 76 18408320012121581818
13897977 150 18410571777691287333
14144814 61 18411138021947908809
14251717 144 18339636836517713439
14325111 11 18410855490214337185
15196674 1 18410856576835554470
15219456 202 18409728460868037925
15442244 35 18124034529071189419
15536298 74 18343865511357178070
16945 1 18338798909872976708
17844478 74 17967821539547016957
17990270 104 18339080384971175570
193761 8 18050568447848260324
19591789 44 15451728112862276213
200 152 18131059468376162151
20201158 50 18409165502245697179
20645477 70 18340482279808794927
21267235 1 18410865355791230319
21501502 16 18410573955123616369
22721475 48 18410296886762297842
2334 1 18194683897837857056
23402655 69 18341321224534659141
23463225 33 18408038515886026544
23552423 10 18335423460636021839
23559900 14 18268705022760507466
2748010 2 18265898140787736348
2871803 45 18337946913248149327
3312278 4 18412267241801252145
335352 9 18122343475871584415
5104073 3 18410855464433686089
528886 8 18411132575929338520
53812653 166 18343016726792771256
57096353 35 18266741457521373981
7364860 26 18342456989649096822
8809292 202 18260271870926901578
9709674 26 18410578383441263503

>  <PUBCHEM_SHAPE_MULTIPOLES>  (1) 
283.13
5.4
2.18
0.61
1.26
0.67
0
-0.01
0
-0.65
0
0
0.01
0

>  <PUBCHEM_SHAPE_SELFOVERLAP>  (1) 
639.682

>  <PUBCHEM_SHAPE_VOLUME>  (1) 
151.6

>  <PUBCHEM_COORDINATE_TYPE>  (1) 
2
5
10

$$$$
