19595
     RDKit          3D

 22 22  0  0  1  0  0  0  0  0999 V2000
    8.0247   -2.0717   -0.5060 S   0  0  0  0  0  0  0  0  0  0  0  0
    1.2604    1.2515   -0.1244 O   0  0  0  0  0  0  0  0  0  0  0  0
    0.9575    0.3449    1.9697 O   0  0  0  0  0  0  0  0  0  0  0  0
    4.8524    0.4217   -0.0080 N   0  0  0  0  0  0  0  0  0  0  0  0
   -4.8769    0.0257   -0.7291 N   0  0  0  0  0  0  0  0  0  0  0  0
    3.4315    0.2380   -0.2632 C   0  0  0  0  0  0  0  0  0  0  0  0
    5.6078   -0.7709   -0.3993 C   0  0  0  0  0  0  0  0  0  0  0  0
   -7.2538   -0.5266   -0.5876 C   0  0  0  0  0  0  0  0  0  0  0  0
   -5.8973   -0.5527    0.1116 C   0  0  0  0  0  0  0  0  0  0  0  0
    2.6465    1.4694    0.1599 C   0  0  0  0  0  0  0  0  0  0  0  0
   -8.3786   -1.0885    0.2855 C   0  0  0  0  0  0  0  0  0  0  0  0
    7.0749   -0.5998   -0.0258 C   0  0  0  0  0  0  0  0  0  0  0  0
    5.3591    1.5971   -0.7206 C   0  0  0  0  0  0  0  0  0  0  0  0
   -3.5564    0.1842   -0.3387 C   0  0  0  0  0  0  0  0  0  0  0  0
   -0.8760    0.5089    0.4544 C   0  0  0  0  0  0  0  0  0  0  0  0
   -9.7261   -0.9884   -0.4126 C   0  0  0  0  0  0  0  0  0  0  0  0
   -3.1269   -0.2232    0.9380 C   0  0  0  0  0  0  0  0  0  0  0  0
   -2.6109    0.7582   -1.2085 C   0  0  0  0  0  0  0  0  0  0  0  0
   -1.7983   -0.0622    1.3312 C   0  0  0  0  0  0  0  0  0  0  0  0
   -1.2822    0.9191   -0.8154 C   0  0  0  0  0  0  0  0  0  0  0  0
    0.5090    0.6779    0.8648 C   0  0  0  0  0  0  0  0  0  0  0  0
    9.6596   -1.5125    0.0240 C   0  0  0  0  0  0  0  0  0  0  0  0
  1 12  1  0
  1 22  1  0
  2 10  1  0
  2 21  1  0
  3 21  2  0
  4  6  1  0
  4  7  1  0
  4 13  1  0
  5  9  1  0
  5 14  1  0
  6 10  1  0
  7 12  1  0
  8  9  1  0
  8 11  1  0
 11 16  1  0
 14 17  2  0
 14 18  1  0
 15 19  2  0
 15 20  1  0
 15 21  1  0
 17 19  1  0
 18 20  2  0
M  END
>  <PUBCHEM_COMPOUND_CID>  (1) 
19595

>  <PUBCHEM_CONFORMER_RMSD>  (1) 
1

>  <PUBCHEM_CONFORMER_DIVERSEORDER>  (1) 
4
26
78
166
213
137
47
233
146
122
171
193
139
173
105
228
188
144
115
108
208
221
150
61
209
6
33
132
118
226
8
172
219
5
62
214
43
77
55
58
170
124
241
21
207
168
197
74
154
37
7
101
96
186
69
159
80
239
123
194
216
25
48
67
224
203
141
63
46
99
91
59
217
195
242
240
53
36
177
10
119
64
104
227
175
85
201
81
246
27
50
185
236
84
19
165
66
192
75
206
29
151
210
229
245
117
133
162
3
13
178
92
157
97
40
34
28
215
65
109
220
200
41
70
155
143
232
45
60
196
44
142
17
222
49
113
100
103
205
93
24
57
116
179
30
42
20
39
35
128
56
147
181
164
235
153
126
191
134
230
218
174
163
31
156
158
167
136
184
223
54
94
83
243
32
152
87
187
198
176
131
121
90
231
149
129
11
237
182
202
18
110
160
76
51
102
73
120
79
190
89
212
180
199
88
9
72
82
169
107
244
15
130
98
14
112
16
38
135
52
204
145
238
106
127
68
189
1
234
12
22
23
148
211
225
161
2
95
125
86
71
114
138
183
111
140

>  <PUBCHEM_MMFF94_PARTIAL_CHARGES>  (1) 
24
1 -0.46
10 0.28
12 0.23
13 0.27
14 0.1
15 0.09
17 -0.15
18 -0.15
19 -0.15
2 -0.43
20 -0.15
21 0.63
22 0.23
3 -0.57
4 -0.81
40 0.4
44 0.15
45 0.15
46 0.15
47 0.15
5 -0.87
6 0.27
7 0.27
9 0.37

>  <PUBCHEM_EFFECTIVE_ROTOR_COUNT>  (1) 
12

>  <PUBCHEM_PHARMACOPHORE_FEATURES>  (1) 
7
1 16 hydrophobe
1 22 hydrophobe
1 3 acceptor
1 4 cation
1 5 cation
1 5 donor
6 14 15 17 18 19 20 rings

>  <PUBCHEM_HEAVY_ATOM_COUNT>  (1) 
22

>  <PUBCHEM_ATOM_DEF_STEREO_COUNT>  (1) 
0

>  <PUBCHEM_ATOM_UDEF_STEREO_COUNT>  (1) 
0

>  <PUBCHEM_BOND_DEF_STEREO_COUNT>  (1) 
0

>  <PUBCHEM_BOND_UDEF_STEREO_COUNT>  (1) 
0

>  <PUBCHEM_ISOTOPIC_ATOM_COUNT>  (1) 
0

>  <PUBCHEM_COMPONENT_COUNT>  (1) 
1

>  <PUBCHEM_CACTVS_TAUTO_COUNT>  (1) 
2

>  <PUBCHEM_CONFORMER_ID>  (1) 
00004C8B00000004

>  <PUBCHEM_MMFF94_ENERGY>  (1) 
56.1983

>  <PUBCHEM_FEATURE_SELFOVERLAP>  (1) 
35.52

>  <PUBCHEM_SHAPE_FINGERPRINT>  (1) 
10 15 12319735856609435926
10066227 49 18409729530204780982
10299344 5 18273216417621430671
10429389 143 8935011361051517479
106641 1 13614519662266307955
10670039 82 15936687073979627244
11463208 3 18336549426218789539
11638347 137 15698005111518343526
12838862 33 14405185037401627469
13540713 5 16300332879202346185
13668630 136 18411982438821141950
13885169 127 18341613668235656449
14026016 60 16371559290675524642
14123256 10 16443339897728930557
14251764 18 14476964519422107681
14251764 46 18410855468723377638
14344974 52 15068915195510827502
14428016 248 13045940184548665311
14617042 71 9583226263357979810
15183329 4 16443066063673112880
15247644 1 18272088305680980311
15510794 2 18186804716067260474
155225 1 7853570210687498550
15690457 1 18060418010744457886
1754911 235 13767929031091239903
1818759 1 18060143128811669734
18335252 114 13479134588763998198
20105231 36 17749396988222669259
2026 5 18339078165075172110
20735858 18 15554449595512909524
20771845 65 18273495693507347272
21095086 128 18410291437414338751
21095123 145 13551481354787376945
21130991 4 18115302264788102282
21150785 3 15140676991051219695
21267235 1 17748827445536347117
21344244 246 18189053106242181842
21792934 111 14836404731486359507
21792961 116 18202279183658026389
221357 26 17894346687747948236
22224240 67 11600006548473246677
23559900 14 18115869775020494633
246663 6 18410013238859326039
28498 318 18411698786132196181
3004659 81 17894631444801871976
33532 11 18343300383998204519
335352 9 15791731914638284383
4325135 7 15574427735571293367
5104073 3 13685753658503939838
5486654 2 15791446046332172769
59682541 35 13038900045222394134
636775 8 16298395686834577411
6438161 24 18344144795921842178
9953998 17 12535338000324749140

>  <PUBCHEM_SHAPE_MULTIPOLES>  (1) 
434.9
30.12
1.52
1.11
0.15
0.2
0.28
22.14
-5.53
-2.73
-0.22
0.45
-0.13
0.22

>  <PUBCHEM_SHAPE_SELFOVERLAP>  (1) 
844.34

>  <PUBCHEM_SHAPE_VOLUME>  (1) 
265.6

>  <PUBCHEM_COORDINATE_TYPE>  (1) 
2
5
10

$$$$
