19596
     RDKit          3D

 20 21  0  0  0  0  0  0  0  0999 V2000
    1.4796   -2.1839   -0.2529 S   0  0  0  0  0  0  0  0  0  0  0  0
    2.5379   -2.7551   -1.0765 O   0  0  0  0  0  0  0  0  0  0  0  0
    1.1575   -2.7984    1.0293 O   0  0  0  0  0  0  0  0  0  0  0  0
   -2.5506    1.9863   -1.3097 O   0  0  0  0  0  0  0  0  0  0  0  0
    0.0542   -2.0450   -1.2037 N   0  0  0  0  0  0  0  0  0  0  0  0
   -1.5976   -1.6049    0.4210 N   0  0  0  0  0  0  0  0  0  0  0  0
   -2.9008    0.4213    0.3648 N   0  0  0  0  0  0  0  0  0  0  0  0
    2.7521    3.5365    0.7552 N   0  0  0  0  0  0  0  0  0  0  0  0
    1.8531   -0.5043    0.0429 C   0  0  0  0  0  0  0  0  0  0  0  0
    1.3302    0.1394    1.1646 C   0  0  0  0  0  0  0  0  0  0  0  0
    2.6745    0.1942   -0.8423 C   0  0  0  0  0  0  0  0  0  0  0  0
   -0.9945   -1.1490   -0.6697 C   0  0  0  0  0  0  0  0  0  0  0  0
    1.6283    1.4814    1.4009 C   0  0  0  0  0  0  0  0  0  0  0  0
    2.9725    1.5362   -0.6059 C   0  0  0  0  0  0  0  0  0  0  0  0
    2.4495    2.1797    0.5158 C   0  0  0  0  0  0  0  0  0  0  0  0
   -1.2298    0.0162   -1.3195 C   0  0  0  0  0  0  0  0  0  0  0  0
   -2.2211    0.7837   -0.7428 C   0  0  0  0  0  0  0  0  0  0  0  0
   -2.5433   -0.7673    0.8874 C   0  0  0  0  0  0  0  0  0  0  0  0
   -3.2720   -1.2014    2.1136 C   0  0  0  0  0  0  0  0  0  0  0  0
   -3.5795    2.7345   -0.6723 C   0  0  0  0  0  0  0  0  0  0  0  0
  1  2  2  0
  1  3  2  0
  1  5  1  0
  1  9  1  0
  4 17  1  0
  4 20  1  0
  5 12  1  0
  6 12  2  0
  6 18  1  0
  7 17  1  0
  7 18  2  0
  8 15  1  0
  9 10  2  0
  9 11  1  0
 10 13  1  0
 11 14  2  0
 12 16  1  0
 13 15  2  0
 14 15  1  0
 16 17  2  0
 18 19  1  0
M  END
>  <PUBCHEM_COMPOUND_CID>  (1) 
19596

>  <PUBCHEM_CONFORMER_RMSD>  (1) 
0.6

>  <PUBCHEM_CONFORMER_DIVERSEORDER>  (1) 
1
28
50
47
37
48
36
49
54
52
53
3
14
5
41
4
27
51
10
2
30
46
39
22
42
29
32
31
9
20
6
21
19
11
7
45
16
13
15
40
35
33
8
38
18
17
26
12
34
25
44
43
24
23

>  <PUBCHEM_MMFF94_PARTIAL_CHARGES>  (1) 
28
1 1.45
10 -0.15
11 -0.15
12 0.51
13 -0.15
14 -0.15
15 0.1
16 -0.15
17 0.39
18 0.48
19 0.14
2 -0.65
20 0.28
21 0.42
22 0.15
23 0.15
24 0.15
25 0.15
26 0.15
3 -0.65
30 0.4
31 0.4
4 -0.36
5 -0.76
6 -0.62
7 -0.62
8 -0.9
9 -0.01

>  <PUBCHEM_EFFECTIVE_ROTOR_COUNT>  (1) 
4

>  <PUBCHEM_PHARMACOPHORE_FEATURES>  (1) 
8
1 2 acceptor
1 3 acceptor
1 5 donor
1 8 cation
1 8 donor
3 6 7 18 cation
6 6 7 12 16 17 18 rings
6 9 10 11 13 14 15 rings

>  <PUBCHEM_HEAVY_ATOM_COUNT>  (1) 
20

>  <PUBCHEM_ATOM_DEF_STEREO_COUNT>  (1) 
0

>  <PUBCHEM_ATOM_UDEF_STEREO_COUNT>  (1) 
0

>  <PUBCHEM_BOND_DEF_STEREO_COUNT>  (1) 
0

>  <PUBCHEM_BOND_UDEF_STEREO_COUNT>  (1) 
0

>  <PUBCHEM_ISOTOPIC_ATOM_COUNT>  (1) 
0

>  <PUBCHEM_COMPONENT_COUNT>  (1) 
1

>  <PUBCHEM_CACTVS_TAUTO_COUNT>  (1) 
3

>  <PUBCHEM_CONFORMER_ID>  (1) 
00004C8C00000001

>  <PUBCHEM_MMFF94_ENERGY>  (1) 
60.253

>  <PUBCHEM_FEATURE_SELFOVERLAP>  (1) 
40.612

>  <PUBCHEM_SHAPE_FINGERPRINT>  (1) 
10165383 225 18053408726948538104
10366900 7 18261401061089662619
10498660 4 18121769793000748653
11221954 11 18335972091490731901
12507560 18 17321829651656350003
12633257 1 18263090933257554507
128993 33 18199188562649057960
13764800 53 18187356679647410053
14142880 1 17477483569819809739
14223421 5 18334584546497213699
14386348 128 18269845365998801272
14648413 74 18337384942145889940
14787075 74 15363915470411948150
15238133 3 17684087981021337150
15295992 7 18191872215215671537
15490181 7 18340480183548243190
16945 1 18201723959459168718
17492 54 14102415715014889568
18186145 218 18058740242121285564
18219364 16 18343303707796326953
18981168 100 18411409631216052309
19049666 15 18262239902525230707
20681677 76 18337110073346001223
21041028 32 18126585426545274634
21524375 3 18197775716362427718
23175994 123 17982465801478357334
23557571 272 17677627500184495395
23559900 14 17967538939352275935
238 59 18270658923172803989
25 1 18058186083812724114
31174 14 18340221716864421939
3797600 57 16518513644499838564
5939293 188 18124300615306802476
6049 1 18261407610856753751
6287921 2 17977123553578027780
6442390 28 17837792366470054018
81228 2 17187275211300391722
9981440 41 18051376795085131689

>  <PUBCHEM_SHAPE_MULTIPOLES>  (1) 
377.91
5.72
3.6
1.56
2.15
0.76
-0.38
3.16
-0.48
-1.47
0.11
0.67
-0.16
1.95

>  <PUBCHEM_SHAPE_SELFOVERLAP>  (1) 
789.895

>  <PUBCHEM_SHAPE_VOLUME>  (1) 
215

>  <PUBCHEM_COORDINATE_TYPE>  (1) 
2
5
10

$$$$
