19606
     RDKit          3D

 17 17  0  0  0  0  0  0  0  0999 V2000
   -0.0611   -2.6404    0.4470 Cl  0  0  0  0  0  0  0  0  0  0  0  0
   -4.8021    1.3311   -0.4736 O   0  0  0  0  0  0  0  0  0  0  0  0
   -4.8300   -0.8559   -0.6620 O   0  0  0  0  0  0  0  0  0  0  0  0
   -4.2279    0.2170   -0.4152 N   0  0  0  0  0  0  0  0  0  0  0  0
    1.1991    0.0628    1.0001 N   0  0  0  0  0  0  0  0  0  0  0  0
    1.9096    0.1520   -0.0251 N   0  0  0  0  0  0  0  0  0  0  0  0
    4.3768   -1.9628   -0.8743 N   0  0  0  0  0  0  0  0  0  0  0  0
    4.3264    2.4298   -0.5267 N   0  0  0  0  0  0  0  0  0  0  0  0
   -2.8541    0.1688   -0.0593 C   0  0  0  0  0  0  0  0  0  0  0  0
   -0.1558    0.0768    0.6431 C   0  0  0  0  0  0  0  0  0  0  0  0
   -2.1940   -1.0579    0.0139 C   0  0  0  0  0  0  0  0  0  0  0  0
   -2.1650    1.3494    0.2187 C   0  0  0  0  0  0  0  0  0  0  0  0
   -0.8448   -1.1039    0.3652 C   0  0  0  0  0  0  0  0  0  0  0  0
   -0.8159    1.3034    0.5700 C   0  0  0  0  0  0  0  0  0  0  0  0
    3.3356    0.1427    0.2991 C   0  0  0  0  0  0  0  0  0  0  0  0
    3.9157   -1.0315   -0.3574 C   0  0  0  0  0  0  0  0  0  0  0  0
    3.8876    1.4186   -0.1635 C   0  0  0  0  0  0  0  0  0  0  0  0
  1 13  1  0
  2  4  1  0
  3  4  2  0
  4  9  1  0
  5  6  2  0
  5 10  1  0
  6 15  1  0
  7 16  3  0
  8 17  3  0
  9 11  2  0
  9 12  1  0
 10 13  2  0
 10 14  1  0
 11 13  1  0
 12 14  2  0
 15 16  1  0
 15 17  1  0
M  CHG  2   2  -1   4   1
M  END
>  <PUBCHEM_COMPOUND_CID>  (1) 
19606

>  <PUBCHEM_CONFORMER_RMSD>  (1) 
0.6

>  <PUBCHEM_CONFORMER_DIVERSEORDER>  (1) 
1
4
10
7
6
9
5
2
3
8
11
12

>  <PUBCHEM_MMFF94_PARTIAL_CHARGES>  (1) 
20
1 -0.18
10 0.18
11 -0.15
12 -0.15
13 0.18
14 -0.15
15 0.65
16 0.36
17 0.36
18 0.15
19 0.15
2 -0.52
20 0.15
3 -0.52
4 0.91
5 -0.18
6 -0.25
7 -0.56
8 -0.56
9 0.13

>  <PUBCHEM_EFFECTIVE_ROTOR_COUNT>  (1) 
3

>  <PUBCHEM_PHARMACOPHORE_FEATURES>  (1) 
6
1 2 acceptor
1 2 anion
1 3 acceptor
1 7 acceptor
1 8 acceptor
6 9 10 11 12 13 14 rings

>  <PUBCHEM_HEAVY_ATOM_COUNT>  (1) 
17

>  <PUBCHEM_ATOM_DEF_STEREO_COUNT>  (1) 
0

>  <PUBCHEM_ATOM_UDEF_STEREO_COUNT>  (1) 
0

>  <PUBCHEM_BOND_DEF_STEREO_COUNT>  (1) 
0

>  <PUBCHEM_BOND_UDEF_STEREO_COUNT>  (1) 
0

>  <PUBCHEM_ISOTOPIC_ATOM_COUNT>  (1) 
0

>  <PUBCHEM_COMPONENT_COUNT>  (1) 
1

>  <PUBCHEM_CACTVS_TAUTO_COUNT>  (1) 
1

>  <PUBCHEM_CONFORMER_ID>  (1) 
00004C9600000001

>  <PUBCHEM_MMFF94_ENERGY>  (1) 
35.0609

>  <PUBCHEM_FEATURE_SELFOVERLAP>  (1) 
30.53

>  <PUBCHEM_SHAPE_FINGERPRINT>  (1) 
11796584 16 14333115374289281557
12119455 92 13407063821591556841
12670543 26 18270953541256043717
13760787 5 18271815609384235433
15196674 1 18411418418940569039
17959699 21 18260827120062236548
18186145 218 18260263027878934368
200 152 17346596339897311546
20645477 56 18260830453177975504
20645477 70 18343587326426013486
20871999 31 18196366142202268527
21637258 2 15697419106211937407
23402539 116 18341604906396422997
23557571 272 18045794626448878410
23559900 14 18342737429907603632
2748010 2 18049988189777815315
3004659 81 18412824660300987250
3286 77 17203321183242539880
3545911 37 18337394937152251988
474 4 17386571400592872916
4990 188 18273211971866295903
58051976 378 18271531983156442924
633830 44 18409161091461944951
67856867 119 18339353171888436200
69090 78 18409447003145049506
93112 12 18410864261223059026
9709674 26 18340212976854011134

>  <PUBCHEM_SHAPE_MULTIPOLES>  (1) 
315.08
9.72
2.27
0.81
0.17
0.5
-0.04
-2.13
3.37
1.61
0.13
0.09
0.06
0.16

>  <PUBCHEM_SHAPE_SELFOVERLAP>  (1) 
649.47

>  <PUBCHEM_SHAPE_VOLUME>  (1) 
177.5

>  <PUBCHEM_COORDINATE_TYPE>  (1) 
2
5
10

$$$$
