19612
     RDKit          3D

 34 38  0  0  0  0  0  0  0  0999 V2000
   -8.1614   -1.5653   -0.1544 N   0  0  0  0  0  0  0  0  0  0  0  0
    8.2470   -1.4816   -0.1405 N   0  0  0  0  0  0  0  0  0  0  0  0
    0.0526    1.5395    0.4168 N   0  0  0  0  0  0  0  0  0  0  0  0
   -9.9214   -2.9033    0.6473 C   0  0  0  0  0  0  0  0  0  0  0  0
  -10.0843   -2.7252   -0.8522 C   0  0  0  0  0  0  0  0  0  0  0  0
    9.9555   -2.9189    0.5982 C   0  0  0  0  0  0  0  0  0  0  0  0
   10.4833   -2.0807   -0.5531 C   0  0  0  0  0  0  0  0  0  0  0  0
   -8.4533   -2.5540    0.8807 C   0  0  0  0  0  0  0  0  0  0  0  0
   -9.2273   -1.4973   -1.1510 C   0  0  0  0  0  0  0  0  0  0  0  0
    8.7387   -2.1283    1.0736 C   0  0  0  0  0  0  0  0  0  0  0  0
    9.2096   -1.5858   -1.2346 C   0  0  0  0  0  0  0  0  0  0  0  0
   -7.0215   -0.7911   -0.1860 C   0  0  0  0  0  0  0  0  0  0  0  0
    7.0252   -0.8520   -0.2419 C   0  0  0  0  0  0  0  0  0  0  0  0
   -6.8314    0.1285   -1.2172 C   0  0  0  0  0  0  0  0  0  0  0  0
   -6.0582   -0.9269    0.8138 C   0  0  0  0  0  0  0  0  0  0  0  0
    6.5926   -0.2366   -1.4505 C   0  0  0  0  0  0  0  0  0  0  0  0
    6.1217   -0.7794    0.8560 C   0  0  0  0  0  0  0  0  0  0  0  0
   -5.6780    0.9124   -1.2489 C   0  0  0  0  0  0  0  0  0  0  0  0
   -4.9048   -0.1430    0.7822 C   0  0  0  0  0  0  0  0  0  0  0  0
    5.3559    0.4002   -1.5532 C   0  0  0  0  0  0  0  0  0  0  0  0
    4.8848   -0.1428    0.7534 C   0  0  0  0  0  0  0  0  0  0  0  0
   -4.7307    0.7658   -0.2487 C   0  0  0  0  0  0  0  0  0  0  0  0
    4.5019    0.4471   -0.4512 C   0  0  0  0  0  0  0  0  0  0  0  0
   -3.5124    1.5942   -0.2823 C   0  0  0  0  0  0  0  0  0  0  0  0
    3.2123    1.1109   -0.5584 C   0  0  0  0  0  0  0  0  0  0  0  0
   -1.1507    2.1212    0.3206 C   0  0  0  0  0  0  0  0  0  0  0  0
    1.1782    2.2492    0.3754 C   0  0  0  0  0  0  0  0  0  0  0  0
   -2.3604    1.3124    0.3694 C   0  0  0  0  0  0  0  0  0  0  0  0
    2.4757    1.5593    0.4856 C   0  0  0  0  0  0  0  0  0  0  0  0
    0.1236    0.0775    0.5717 C   0  0  0  0  0  0  0  0  0  0  0  0
   -1.2478    3.4977    0.1739 C   0  0  0  0  0  0  0  0  0  0  0  0
    1.1573    3.6203    0.2308 C   0  0  0  0  0  0  0  0  0  0  0  0
   -0.0788    4.2512    0.1286 C   0  0  0  0  0  0  0  0  0  0  0  0
    0.1066   -0.2751    2.0457 C   0  0  0  0  0  0  0  0  0  0  0  0
  1  8  1  0
  1  9  1  0
  1 12  1  0
  2 10  1  0
  2 11  1  0
  2 13  1  0
  3 26  2  0
  3 27  1  0
  3 30  1  0
  4  5  1  0
  4  8  1  0
  5  9  1  0
  6  7  1  0
  6 10  1  0
  7 11  1  0
 12 14  2  0
 12 15  1  0
 13 16  2  0
 13 17  1  0
 14 18  1  0
 15 19  2  0
 16 20  1  0
 17 21  2  0
 18 22  2  0
 19 22  1  0
 20 23  2  0
 21 23  1  0
 22 24  1  0
 23 25  1  0
 24 28  2  0
 25 29  2  0
 26 28  1  0
 26 31  1  0
 27 29  1  0
 27 32  2  0
 30 34  1  0
 31 33  2  0
 32 33  1  0
M  CHG  1   3   1
M  END
>  <PUBCHEM_COMPOUND_CID>  (1) 
19612

>  <PUBCHEM_CONFORMER_RMSD>  (1) 
1

>  <PUBCHEM_CONFORMER_DIVERSEORDER>  (1) 
1
7
4
3
6
2
8
5

>  <PUBCHEM_MMFF94_PARTIAL_CHARGES>  (1) 
44
1 -0.84
10 0.37
11 0.37
12 0.1
13 0.1
14 -0.15
15 -0.15
16 -0.15
17 -0.15
18 -0.15
19 -0.15
2 -0.84
20 -0.15
21 -0.15
22 0.03
23 0.03
24 -0.18
25 -0.18
26 0.39
27 0.39
28 -0.18
29 -0.18
3 -0.21
30 0.49
31 -0.15
32 -0.15
33 -0.15
51 0.15
52 0.15
53 0.15
54 0.15
55 0.15
56 0.15
57 0.15
58 0.15
59 0.15
60 0.15
61 0.15
62 0.15
65 0.15
66 0.15
67 0.15
8 0.37
9 0.37

>  <PUBCHEM_EFFECTIVE_ROTOR_COUNT>  (1) 
9

>  <PUBCHEM_PHARMACOPHORE_FEATURES>  (1) 
7
1 1 cation
1 2 cation
5 1 4 5 8 9 rings
5 2 6 7 10 11 rings
6 12 14 15 18 19 22 rings
6 13 16 17 20 21 23 rings
6 3 26 27 31 32 33 rings

>  <PUBCHEM_HEAVY_ATOM_COUNT>  (1) 
34

>  <PUBCHEM_ATOM_DEF_STEREO_COUNT>  (1) 
0

>  <PUBCHEM_ATOM_UDEF_STEREO_COUNT>  (1) 
0

>  <PUBCHEM_BOND_DEF_STEREO_COUNT>  (1) 
0

>  <PUBCHEM_BOND_UDEF_STEREO_COUNT>  (1) 
2

>  <PUBCHEM_ISOTOPIC_ATOM_COUNT>  (1) 
0

>  <PUBCHEM_COMPONENT_COUNT>  (1) 
1

>  <PUBCHEM_CACTVS_TAUTO_COUNT>  (1) 
1

>  <PUBCHEM_CONFORMER_ID>  (1) 
00004C9C00000001

>  <PUBCHEM_MMFF94_ENERGY>  (1) 
133.1314

>  <PUBCHEM_FEATURE_SELFOVERLAP>  (1) 
35.525

>  <PUBCHEM_SHAPE_FINGERPRINT>  (1) 
10 15 11312055448063811389
10029044 110 11241964872049400167
10168742 298 17822296833969178663
10411042 1 18411982463874365513
10533779 1 8935003650867627607
10533779 47 14620525485028806422
10952577 141 8142077672242767402
11297750 10 18341322328437284544
11386260 185 16153719739011573564
11421887 21 11458692889991624255
11421887 45 8430307983807758022
11607047 74 18264772246121185292
11672396 167 18342735257155506895
12013929 94 18342177731877759318
12522641 68 11674884394074086889
12539745 222 17775569698068879153
12838863 1 18335420141460148010
13165054 27 9439412298671482451
13248334 5 18050849119778253297
13692115 27 18411698772910885992
13974486 7 18340196475062678582
14359421 15 18186517700836543691
14965480 1 17417265217466691278
15152005 77 18059856143202066807
15183329 4 16805324362536128704
15198563 99 16298661707574777261
15350500 55 9583523118348112389
15773216 30 18191310588155460700
16991971 28 18408882958185912777
1754911 235 14996284725280754174
19303781 99 18342447162532010781
19841028 212 18340205288403459937
20105231 36 18335143146551364083
20156587 128 16081638985655389957
2026 5 18411981347620296215
20609170 114 12031490122478289533
20737093 207 17896588502817926706
20771845 65 18059574727933502449
20982279 24 17968953010912991611
21026386 10 18340777013166055695
21792961 116 17967257481439065491
21792965 169 18041295317404218188
21792965 78 18041002791134134050
21792965 96 17967531230878205437
21987483 16 18341326769648648744
22002106 203 18201430411266215671
23523766 6 18336266829021329356
23523787 8 15502373452246952369
23523788 1 17417823802931011684
23528940 14 18338794513003515122
23569917 315 18268997493292164710
23576562 1 15575294209987888575
25242607 90 18130782382312760755
2835820 83 18411138052371928023
2851757 41 18411986861946892983
3383291 50 18202283597761164246
3918712 181 8430315736112100062
406291 66 18341895212332309253
4330586 98 17749682873334064172
437795 150 17096097999541139707
4403749 210 9295285059102080909
4516262 110 10809331244549899537
4760202 170 14996580516659992646
4760202 70 18186813478961328004
5372103 7 8790890687769122893
54039377 194 18411982468447848983
5719381 82 18342458140579136471
57303763 176 18273214168219681945
57527295 17 17677041336165461361
6204607 403 11526787901287523114
636775 8 18411141303756506292

>  <PUBCHEM_SHAPE_MULTIPOLES>  (1) 
684.76
39.18
4.08
1.3
4.04
2.4
-0.05
-56.52
-7.39
-1.6
0.54
0.33
-0.36
-0.04

>  <PUBCHEM_SHAPE_SELFOVERLAP>  (1) 
1478.317

>  <PUBCHEM_SHAPE_VOLUME>  (1) 
376.9

>  <PUBCHEM_COORDINATE_TYPE>  (1) 
2
5
10

$$$$
