19618
     RDKit          3D

 12 11  0  0  0  0  0  0  0  0999 V2000
    5.0597    1.4417   -0.0839 Br  0  0  0  0  0  0  0  0  0  0  0  0
   -5.0601    1.4426    0.0848 Br  0  0  0  0  0  0  0  0  0  0  0  0
    1.3735   -0.2318   -0.2891 O   0  0  0  0  0  0  0  0  0  0  0  0
   -1.3702   -0.2390    0.2863 O   0  0  0  0  0  0  0  0  0  0  0  0
    3.3372   -0.8827    0.7243 O   0  0  0  0  0  0  0  0  0  0  0  0
   -3.3381   -0.8820   -0.7239 O   0  0  0  0  0  0  0  0  0  0  0  0
    0.7234   -1.3984    0.2260 C   0  0  0  0  0  0  0  0  0  0  0  0
   -0.7243   -1.3982   -0.2258 C   0  0  0  0  0  0  0  0  0  0  0  0
    2.6953   -0.0978    0.0409 C   0  0  0  0  0  0  0  0  0  0  0  0
   -2.6960   -0.0973   -0.0404 C   0  0  0  0  0  0  0  0  0  0  0  0
    3.2051    1.1713   -0.5825 C   0  0  0  0  0  0  0  0  0  0  0  0
   -3.2056    1.1717    0.5833 C   0  0  0  0  0  0  0  0  0  0  0  0
  1 11  1  0
  2 12  1  0
  3  7  1  0
  3  9  1  0
  4  8  1  0
  4 10  1  0
  5  9  2  0
  6 10  2  0
  7  8  1  0
  9 11  1  0
 10 12  1  0
M  END
>  <PUBCHEM_COMPOUND_CID>  (1) 
19618

>  <PUBCHEM_CONFORMER_RMSD>  (1) 
0.8

>  <PUBCHEM_CONFORMER_DIVERSEORDER>  (1) 
1
49
28
13
66
58
7
6
46
73
2
21
9
19
65
68
40
72
25
29
17
64
3
69
76
80
67
37
15
10
57
51
63
33
54
77
61
11
43
34
22
79
55
50
20
24
27
81
8
74
53
31
32
30
16
52
5
60
44
59
71
4
47
41
14
75
48
35
38
42
18
56
70
26
62
23
78
39
36
45
12

>  <PUBCHEM_MMFF94_PARTIAL_CHARGES>  (1) 
12
1 -0.23
10 0.66
11 0.29
12 0.29
2 -0.23
3 -0.43
4 -0.43
5 -0.57
6 -0.57
7 0.28
8 0.28
9 0.66

>  <PUBCHEM_EFFECTIVE_ROTOR_COUNT>  (1) 
7

>  <PUBCHEM_PHARMACOPHORE_FEATURES>  (1) 
4
1 1 hydrophobe
1 2 hydrophobe
1 5 acceptor
1 6 acceptor

>  <PUBCHEM_HEAVY_ATOM_COUNT>  (1) 
12

>  <PUBCHEM_ATOM_DEF_STEREO_COUNT>  (1) 
0

>  <PUBCHEM_ATOM_UDEF_STEREO_COUNT>  (1) 
0

>  <PUBCHEM_BOND_DEF_STEREO_COUNT>  (1) 
0

>  <PUBCHEM_BOND_UDEF_STEREO_COUNT>  (1) 
0

>  <PUBCHEM_ISOTOPIC_ATOM_COUNT>  (1) 
0

>  <PUBCHEM_COMPONENT_COUNT>  (1) 
1

>  <PUBCHEM_CACTVS_TAUTO_COUNT>  (1) 
1

>  <PUBCHEM_CONFORMER_ID>  (1) 
00004CA200000001

>  <PUBCHEM_MMFF94_ENERGY>  (1) 
13.6292

>  <PUBCHEM_FEATURE_SELFOVERLAP>  (1) 
20.297

>  <PUBCHEM_SHAPE_FINGERPRINT>  (1) 
100836 57 18335710450641183276
10354089 29 17967820452762080932
11046707 91 8646776581502642885
122479 349 18334019422973862074
14123255 352 18409166593331141661
14123260 362 18131081415337577201
1420 369 8574713494244202584
14252887 29 14273730738250943560
15477762 27 10952055554895753984
15501527 16 18411986892159012888
15775835 57 18410577283686477377
17834072 32 18413111662452637225
18186145 218 18186802461246437526
20112054 13 18040438784760701397
20605781 2 18341897393838293329
20621476 21 13973104558540155077
20621476 66 18261681480164321444
20671657 53 9727625112131675043
20711983 171 18343301470065403894
20828058 44 11746927698738748580
20871999 31 17203036474519465415
212847 35 18342173341366070272
21652331 79 18334296440012312013
23402539 116 18130783477856631476
23402655 69 18202563977420441732
23500284 214 18187652426441502554
23557571 272 17560526204527219751
449060 50 18337115566825223125
449060 62 18410856529664793265
8199 26 18341336591495237657
94968 8 10159691391731125484

>  <PUBCHEM_SHAPE_MULTIPOLES>  (1) 
235.36
11.17
1.75
0.76
0.01
0.11
0
7.61
0
0
0
0
0.02
-0.71

>  <PUBCHEM_SHAPE_SELFOVERLAP>  (1) 
418.767

>  <PUBCHEM_SHAPE_VOLUME>  (1) 
155.2

>  <PUBCHEM_COORDINATE_TYPE>  (1) 
2
5
10

$$$$
