19622
     RDKit          3D

 17 17  0  0  1  0  0  0  0  0999 V2000
    1.2175    3.0027   -0.7175 O   0  0  0  0  0  0  0  0  0  0  0  0
   -1.3032    0.4051   -2.8393 O   0  0  0  0  0  0  0  0  0  0  0  0
    3.2135   -1.0630   -0.0783 O   0  0  0  0  0  0  0  0  0  0  0  0
   -3.3374   -0.4388   -0.1170 O   0  0  0  0  0  0  0  0  0  0  0  0
    0.7076    2.5367    1.4393 O   0  0  0  0  0  0  0  0  0  0  0  0
    0.1103   -1.2775   -2.2919 O   0  0  0  0  0  0  0  0  0  0  0  0
    1.6643   -2.5851    0.5634 O   0  0  0  0  0  0  0  0  0  0  0  0
   -2.7538   -0.1154    2.0473 O   0  0  0  0  0  0  0  0  0  0  0  0
    0.8836    0.7135   -0.1631 C   0  0  0  0  0  0  0  0  0  0  0  0
   -0.5442    0.3298   -0.5861 C   0  0  0  0  0  0  0  0  0  0  0  0
    1.2588   -0.2224    0.9870 C   0  0  0  0  0  0  0  0  0  0  0  0
   -1.0405   -0.7097    0.4286 C   0  0  0  0  0  0  0  0  0  0  0  0
   -0.0705   -0.6334    1.6054 C   0  0  0  0  0  0  0  0  0  0  0  0
    0.9178    2.1421    0.2948 C   0  0  0  0  0  0  0  0  0  0  0  0
   -0.5224   -0.2788   -1.9574 C   0  0  0  0  0  0  0  0  0  0  0  0
    2.0261   -1.4133    0.4895 C   0  0  0  0  0  0  0  0  0  0  0  0
   -2.4275   -0.3923    0.8955 C   0  0  0  0  0  0  0  0  0  0  0  0
  1 14  1  0
  2 15  1  0
  3 16  1  0
  4 17  1  0
  5 14  2  0
  6 15  2  0
  7 16  2  0
  8 17  2  0
  9 10  1  0
  9 11  1  0
  9 14  1  0
 10 12  1  0
 10 15  1  0
 11 13  1  0
 11 16  1  0
 12 13  1  0
 12 17  1  0
M  END
>  <PUBCHEM_COMPOUND_CID>  (1) 
19622

>  <PUBCHEM_CONFORMER_RMSD>  (1) 
0.6

>  <PUBCHEM_CONFORMER_DIVERSEORDER>  (1) 
1
54
80
120
123
9
81
71
32
3
130
76
69
33
141
140
139
106
7
89
42
23
148
96
79
149
34
133
2
129
142
65
97
67
52
150
72
111
16
66
12
102
136
37
98
31
122
5
147
114
11
131
112
51
35
116
92
146
134
4
87
63
101
58
91
6
48
93
104
128
124
15
56
36
126
117
18
144
105
8
138
125
60
82
90
64
45
121
10
100
75
74
119
53
85
78
109
77
143
110
118
86
68
30
40
49
94
99
57
107
29
47
73
137
27
95
108
41
83
50
61
88
145
62
26
84
127
24
39
25
113
103
28
14
46
43
13
132
44
19
115
17
21
55
135
59
70
22
20
38

>  <PUBCHEM_MMFF94_PARTIAL_CHARGES>  (1) 
20
1 -0.65
10 0.06
11 0.06
12 0.06
14 0.66
15 0.66
16 0.66
17 0.66
2 -0.65
24 0.5
25 0.5
26 0.5
27 0.5
3 -0.65
4 -0.65
5 -0.57
6 -0.57
7 -0.57
8 -0.57
9 0.06

>  <PUBCHEM_EFFECTIVE_ROTOR_COUNT>  (1) 
5

>  <PUBCHEM_PHARMACOPHORE_FEATURES>  (1) 
13
1 1 acceptor
1 2 acceptor
1 3 acceptor
1 4 acceptor
1 5 acceptor
1 6 acceptor
1 7 acceptor
1 8 acceptor
3 1 5 14 anion
3 2 6 15 anion
3 3 7 16 anion
3 4 8 17 anion
5 9 10 11 12 13 rings

>  <PUBCHEM_HEAVY_ATOM_COUNT>  (1) 
17

>  <PUBCHEM_ATOM_DEF_STEREO_COUNT>  (1) 
0

>  <PUBCHEM_ATOM_UDEF_STEREO_COUNT>  (1) 
4

>  <PUBCHEM_BOND_DEF_STEREO_COUNT>  (1) 
0

>  <PUBCHEM_BOND_UDEF_STEREO_COUNT>  (1) 
0

>  <PUBCHEM_ISOTOPIC_ATOM_COUNT>  (1) 
0

>  <PUBCHEM_COMPONENT_COUNT>  (1) 
1

>  <PUBCHEM_CACTVS_TAUTO_COUNT>  (1) 
1

>  <PUBCHEM_CONFORMER_ID>  (1) 
00004CA600000001

>  <PUBCHEM_MMFF94_ENERGY>  (1) 
27.2027

>  <PUBCHEM_FEATURE_SELFOVERLAP>  (1) 
66.22

>  <PUBCHEM_SHAPE_FINGERPRINT>  (1) 
12326174 3 17982486876797923905
12423570 1 8878116469539247942
13132413 78 18192171311952860401
13538477 17 17344053337195894511
13898156 1 17130130138444601677
14817 1 14305441550758858293
15881359 60 17270303289588214462
15906896 17 17333632891784519832
16945 1 18188504556569350290
18721546 61 17333613143319288133
20379382 53 18262241130659153929
20473742 2 18262237840788025674
21061003 4 18335414656369855298
21524375 3 17626124287853364177
22892500 29 18334007324515141357
23419403 2 17895454991315696920
23526113 38 17535992668116260462
298252 57 16984938532812217232
430814 3 17700705230916931193
5845 1 17698399366202708456
68419 9 17272275027442750292
81228 2 17831019031303040760

>  <PUBCHEM_SHAPE_MULTIPOLES>  (1) 
302.9
3.3
2.37
2.17
1.36
1.29
1.31
-1.31
-0.75
-1.96
-0.44
1.08
0.25
0.53

>  <PUBCHEM_SHAPE_SELFOVERLAP>  (1) 
634.645

>  <PUBCHEM_SHAPE_VOLUME>  (1) 
171.4

>  <PUBCHEM_COORDINATE_TYPE>  (1) 
2
5
10

$$$$
