19632
     RDKit          3D

 29 30  0  0  0  0  0  0  0  0999 V2000
    0.1722   -0.2343   -1.7417 O   0  0  0  0  0  0  0  0  0  0  0  0
   -5.0723    2.8137   -0.1258 O   0  0  0  0  0  0  0  0  0  0  0  0
    2.7280   -1.2414   -0.6681 O   0  0  0  0  0  0  0  0  0  0  0  0
   -3.0824   -3.0614   -0.1827 N   0  0  0  0  0  0  0  0  0  0  0  0
   -0.0486   -0.9910    0.4364 N   0  0  0  0  0  0  0  0  0  0  0  0
    2.5225    0.9329    0.1312 N   0  0  0  0  0  0  0  0  0  0  0  0
   -2.3179   -1.8677    0.1551 C   0  0  0  0  0  0  0  0  0  0  0  0
   -2.7966   -4.1424    0.7627 C   0  0  0  0  0  0  0  0  0  0  0  0
   -4.5170   -2.7684   -0.1989 C   0  0  0  0  0  0  0  0  0  0  0  0
   -0.8269   -2.1703    0.1312 C   0  0  0  0  0  0  0  0  0  0  0  0
   -3.5363   -5.4139    0.3828 C   0  0  0  0  0  0  0  0  0  0  0  0
   -4.8376   -1.6483   -1.1741 C   0  0  0  0  0  0  0  0  0  0  0  0
    0.3907   -0.1115   -0.5382 C   0  0  0  0  0  0  0  0  0  0  0  0
    1.1667    1.0519    0.0018 C   0  0  0  0  0  0  0  0  0  0  0  0
    0.4751    2.1567    0.3324 C   0  0  0  0  0  0  0  0  0  0  0  0
   -0.9799    2.3286    0.2118 C   0  0  0  0  0  0  0  0  0  0  0  0
    3.2229   -0.2127   -0.2138 C   0  0  0  0  0  0  0  0  0  0  0  0
   -1.5141    2.8066   -0.9757 C   0  0  0  0  0  0  0  0  0  0  0  0
   -1.7952    2.0103    1.2880 C   0  0  0  0  0  0  0  0  0  0  0  0
    4.6953   -0.1460   -0.0241 C   0  0  0  0  0  0  0  0  0  0  0  0
   -2.8947    2.9702   -1.0894 C   0  0  0  0  0  0  0  0  0  0  0  0
   -3.1758    2.1738    1.1741 C   0  0  0  0  0  0  0  0  0  0  0  0
   -3.7255    2.6538   -0.0145 C   0  0  0  0  0  0  0  0  0  0  0  0
    5.3900   -1.3142    0.2100 C   0  0  0  0  0  0  0  0  0  0  0  0
    5.3194    1.0821   -0.0882 C   0  0  0  0  0  0  0  0  0  0  0  0
    6.7721   -1.2514    0.3884 C   0  0  0  0  0  0  0  0  0  0  0  0
    6.7015    1.1450    0.0899 C   0  0  0  0  0  0  0  0  0  0  0  0
    7.4277   -0.0218    0.3283 C   0  0  0  0  0  0  0  0  0  0  0  0
   -5.8633    2.4711    1.0114 C   0  0  0  0  0  0  0  0  0  0  0  0
  1 13  2  0
  2 23  1  0
  2 29  1  0
  3 17  2  0
  4  7  1  0
  4  8  1  0
  4  9  1  0
  5 10  1  0
  5 13  1  0
  6 14  1  0
  6 17  1  0
  7 10  1  0
  8 11  1  0
  9 12  1  0
 13 14  1  0
 14 15  2  0
 15 16  1  0
 16 18  2  0
 16 19  1  0
 17 20  1  0
 18 21  1  0
 19 22  2  0
 20 24  2  0
 20 25  1  0
 21 23  2  0
 22 23  1  0
 24 26  1  0
 25 27  2  0
 26 28  2  0
 27 28  1  0
M  END
>  <PUBCHEM_COMPOUND_CID>  (1) 
19632

>  <PUBCHEM_CONFORMER_RMSD>  (1) 
1

>  <PUBCHEM_CONFORMER_DIVERSEORDER>  (1) 
1
54
34
39
17
6
52
51
44
56
59
14
26
33
40
42
58
50
38
43
46
32
24
20
22
23
53
19
55
18
45
13
16
12
4
3
8
35
36
37
25
62
41
9
29
49
48
10
60
28
21
31
15
61
30
27
47
57
2
5
11
7

>  <PUBCHEM_MMFF94_PARTIAL_CHARGES>  (1) 
39
1 -0.57
10 0.3
13 0.62
14 0.12
15 -0.18
16 0.03
17 0.54
18 -0.15
19 -0.15
2 -0.36
20 0.09
21 -0.15
22 -0.15
23 0.08
24 -0.15
25 -0.15
26 -0.15
27 -0.15
28 -0.15
29 0.28
3 -0.57
4 -0.81
44 0.37
45 0.15
46 0.37
47 0.15
48 0.15
49 0.15
5 -0.73
50 0.15
51 0.15
52 0.15
53 0.15
54 0.15
55 0.15
6 -0.54
7 0.27
8 0.27
9 0.27

>  <PUBCHEM_EFFECTIVE_ROTOR_COUNT>  (1) 
12

>  <PUBCHEM_PHARMACOPHORE_FEATURES>  (1) 
8
1 1 acceptor
1 2 acceptor
1 3 acceptor
1 4 cation
1 5 donor
1 6 donor
6 16 18 19 21 22 23 rings
6 20 24 25 26 27 28 rings

>  <PUBCHEM_HEAVY_ATOM_COUNT>  (1) 
29

>  <PUBCHEM_ATOM_DEF_STEREO_COUNT>  (1) 
0

>  <PUBCHEM_ATOM_UDEF_STEREO_COUNT>  (1) 
0

>  <PUBCHEM_BOND_DEF_STEREO_COUNT>  (1) 
0

>  <PUBCHEM_BOND_UDEF_STEREO_COUNT>  (1) 
1

>  <PUBCHEM_ISOTOPIC_ATOM_COUNT>  (1) 
0

>  <PUBCHEM_COMPONENT_COUNT>  (1) 
1

>  <PUBCHEM_CACTVS_TAUTO_COUNT>  (1) 
4

>  <PUBCHEM_CONFORMER_ID>  (1) 
00004CB000000001

>  <PUBCHEM_MMFF94_ENERGY>  (1) 
86.2474

>  <PUBCHEM_FEATURE_SELFOVERLAP>  (1) 
40.598

>  <PUBCHEM_SHAPE_FINGERPRINT>  (1) 
10 15 18114183004858104704
10050765 1 18338517551636369304
10411042 1 18049724315298340051
10483366 6 18337378410545352199
12498461 61 18263352600668717218
12597179 24 18129102229845940582
12645989 146 18054221305256119647
12788726 201 18335128817321834850
13052359 8 18410015403364451195
13383668 254 16128649787081968898
14765038 42 18129673972246497049
14866123 147 18410857668485501515
15131766 46 14854746865733118374
15803439 3 17608615407521512845
15890870 6 18335695028458089583
15927050 60 18266176136820630711
17492 89 17617376629336173411
19427546 20 18336271231883890692
21236236 1 18413105060945004372
21703447 108 18194672894859911984
22182313 1 17489044690389781156
22224240 67 18341051792441011569
23419403 2 17416954192238484121
23559900 14 18121771987676509995
23569943 247 14691461504081676612
244849 19 17488722593317174392
25269216 80 18265354927285486782
255183 313 18339099102987064073
4073 2 18411982451911603226
4409770 3 18408880746547001199
5104073 3 18341319043186813912
5171179 24 17916008252057141881
59755656 520 18337667503749573613
6669772 16 18126005962279245807

>  <PUBCHEM_SHAPE_MULTIPOLES>  (1) 
564.26
15.79
5.56
1.03
26.97
5.61
0.09
1.11
-1.6
-12.77
-0.68
-0.87
-0.32
-0.45

>  <PUBCHEM_SHAPE_SELFOVERLAP>  (1) 
1176.674

>  <PUBCHEM_SHAPE_VOLUME>  (1) 
320.6

>  <PUBCHEM_COORDINATE_TYPE>  (1) 
2
5
10

$$$$
