19631
     RDKit          3D

 33 34  0  0  0  0  0  0  0  0999 V2000
    0.6877    0.3039    1.8149 O   0  0  0  0  0  0  0  0  0  0  0  0
   -3.2263   -3.0803    1.9610 O   0  0  0  0  0  0  0  0  0  0  0  0
   -3.6536   -0.9633   -2.3138 O   0  0  0  0  0  0  0  0  0  0  0  0
   -4.8263   -2.0740   -0.0653 O   0  0  0  0  0  0  0  0  0  0  0  0
    3.3189    1.1998    0.8287 O   0  0  0  0  0  0  0  0  0  0  0  0
   -2.3112    3.5592    0.6213 N   0  0  0  0  0  0  0  0  0  0  0  0
    0.5282    1.3163   -0.2623 N   0  0  0  0  0  0  0  0  0  0  0  0
    2.9220   -0.8451   -0.2053 N   0  0  0  0  0  0  0  0  0  0  0  0
   -1.6550    2.3492    0.1431 C   0  0  0  0  0  0  0  0  0  0  0  0
   -2.3340    4.5826   -0.4256 C   0  0  0  0  0  0  0  0  0  0  0  0
   -3.6729    3.2645    1.0716 C   0  0  0  0  0  0  0  0  0  0  0  0
   -0.1431    2.5169    0.1821 C   0  0  0  0  0  0  0  0  0  0  0  0
   -2.9558    5.8729    0.0812 C   0  0  0  0  0  0  0  0  0  0  0  0
   -4.5312    2.7534   -0.0730 C   0  0  0  0  0  0  0  0  0  0  0  0
    0.8915    0.2984    0.6027 C   0  0  0  0  0  0  0  0  0  0  0  0
    1.5613   -0.8600   -0.0732 C   0  0  0  0  0  0  0  0  0  0  0  0
    0.7748   -1.8567   -0.5163 C   0  0  0  0  0  0  0  0  0  0  0  0
   -0.6894   -1.9143   -0.3976 C   0  0  0  0  0  0  0  0  0  0  0  0
   -1.4915   -1.4076   -1.4201 C   0  0  0  0  0  0  0  0  0  0  0  0
   -1.2764   -2.4748    0.7365 C   0  0  0  0  0  0  0  0  0  0  0  0
   -2.6658   -2.5290    0.8483 C   0  0  0  0  0  0  0  0  0  0  0  0
   -2.8810   -1.4618   -1.3085 C   0  0  0  0  0  0  0  0  0  0  0  0
   -3.4681   -2.0225   -0.1742 C   0  0  0  0  0  0  0  0  0  0  0  0
    3.7208    0.1895    0.2564 C   0  0  0  0  0  0  0  0  0  0  0  0
    5.1812    0.0172    0.0423 C   0  0  0  0  0  0  0  0  0  0  0  0
    5.6436   -0.7645   -1.0164 C   0  0  0  0  0  0  0  0  0  0  0  0
    6.0899    0.6368    0.9005 C   0  0  0  0  0  0  0  0  0  0  0  0
    7.0145   -0.9266   -1.2169 C   0  0  0  0  0  0  0  0  0  0  0  0
    7.4607    0.4749    0.6998 C   0  0  0  0  0  0  0  0  0  0  0  0
   -3.4929   -4.4810    1.9261 C   0  0  0  0  0  0  0  0  0  0  0  0
   -2.9746   -0.4077   -3.4383 C   0  0  0  0  0  0  0  0  0  0  0  0
   -5.4687   -0.9593    0.5491 C   0  0  0  0  0  0  0  0  0  0  0  0
    7.9229   -0.3068   -0.3588 C   0  0  0  0  0  0  0  0  0  0  0  0
  1 15  2  0
  2 21  1  0
  2 30  1  0
  3 22  1  0
  3 31  1  0
  4 23  1  0
  4 32  1  0
  5 24  2  0
  6  9  1  0
  6 10  1  0
  6 11  1  0
  7 12  1  0
  7 15  1  0
  8 16  1  0
  8 24  1  0
  9 12  1  0
 10 13  1  0
 11 14  1  0
 15 16  1  0
 16 17  2  0
 17 18  1  0
 18 19  2  0
 18 20  1  0
 19 22  1  0
 20 21  2  0
 21 23  1  0
 22 23  2  0
 24 25  1  0
 25 26  2  0
 25 27  1  0
 26 28  1  0
 27 29  2  0
 28 33  2  0
 29 33  1  0
M  END
>  <PUBCHEM_COMPOUND_CID>  (1) 
19631

>  <PUBCHEM_CONFORMER_RMSD>  (1) 
1.2

>  <PUBCHEM_CONFORMER_DIVERSEORDER>  (1) 
5
21
17
9
33
24
28
34
19
13
18
22
15
32
29
10
3
27
7
37
31
25
8
26
16
20
30
12
35
23
6
4
14
36
1
11
2

>  <PUBCHEM_MMFF94_PARTIAL_CHARGES>  (1) 
41
1 -0.57
10 0.27
11 0.27
12 0.3
15 0.62
16 0.12
17 -0.18
18 0.03
19 -0.15
2 -0.36
20 -0.15
21 0.08
22 0.08
23 0.08
24 0.54
25 0.09
26 -0.15
27 -0.15
28 -0.15
29 -0.15
3 -0.36
30 0.28
31 0.28
32 0.28
33 -0.15
4 -0.36
48 0.37
49 0.15
5 -0.57
50 0.37
51 0.15
52 0.15
53 0.15
54 0.15
55 0.15
56 0.15
6 -0.81
66 0.15
7 -0.73
8 -0.54
9 0.27

>  <PUBCHEM_EFFECTIVE_ROTOR_COUNT>  (1) 
14

>  <PUBCHEM_PHARMACOPHORE_FEATURES>  (1) 
10
1 1 acceptor
1 2 acceptor
1 3 acceptor
1 4 acceptor
1 5 acceptor
1 6 cation
1 7 donor
1 8 donor
6 18 19 20 21 22 23 rings
6 25 26 27 28 29 33 rings

>  <PUBCHEM_HEAVY_ATOM_COUNT>  (1) 
33

>  <PUBCHEM_ATOM_DEF_STEREO_COUNT>  (1) 
0

>  <PUBCHEM_ATOM_UDEF_STEREO_COUNT>  (1) 
0

>  <PUBCHEM_BOND_DEF_STEREO_COUNT>  (1) 
0

>  <PUBCHEM_BOND_UDEF_STEREO_COUNT>  (1) 
1

>  <PUBCHEM_ISOTOPIC_ATOM_COUNT>  (1) 
0

>  <PUBCHEM_COMPONENT_COUNT>  (1) 
1

>  <PUBCHEM_CACTVS_TAUTO_COUNT>  (1) 
4

>  <PUBCHEM_CONFORMER_ID>  (1) 
00004CAF00000005

>  <PUBCHEM_MMFF94_ENERGY>  (1) 
118.1403

>  <PUBCHEM_FEATURE_SELFOVERLAP>  (1) 
50.758

>  <PUBCHEM_SHAPE_FINGERPRINT>  (1) 
10050765 1 18267305336042909506
10816530 145 17821731662920845389
11007060 377 18270680835875057825
12293681 4 18335988661791090851
12788726 201 18337377280198573371
13673619 4 17751082633256946011
14028597 1 17822284673966724491
14713325 29 18409733954041720714
14856354 85 18336839687743234039
14955137 171 18121503715366073987
15064986 266 18411990157272693502
15276724 80 18272088253834391006
15361156 5 18271803553675312548
15439362 3 17692815891865294428
15968369 153 18201156662624784668
16114785 44 18339368448786128979
17980427 23 13757530996518841987
18365409 1 18339641127781432205
20766409 102 18193278714375264012
21236236 1 18343582928231542704
3418910 222 18116441534706552260
4058900 60 17692539914141190048
4073 2 18412263914182636570
469060 322 17022907826568158687
484985 159 18259984898766540051
508706 21 18413102858075376056
513202 73 18343025505827405718
5171179 24 17630868581737740736
57527306 92 18273494577442480147
59755656 520 18191025612526175892
7288768 16 18189900807941196533

>  <PUBCHEM_SHAPE_MULTIPOLES>  (1) 
634.83
15.74
5.8
1.79
37.74
6.93
-1.15
-0.72
-0.44
-13.39
2.14
-1.94
-1.25
1.39

>  <PUBCHEM_SHAPE_SELFOVERLAP>  (1) 
1319.533

>  <PUBCHEM_SHAPE_VOLUME>  (1) 
362.3

>  <PUBCHEM_COORDINATE_TYPE>  (1) 
2
5
10

$$$$
