1964
     RDKit          3D

 23 25  0  0  1  0  0  0  0  0999 V2000
    0.0954   -1.1052    0.7287 O   0  0  0  0  0  0  0  0  0  0  0  0
   -5.5863    1.6150   -0.5625 O   0  0  0  0  0  0  0  0  0  0  0  0
    0.8369   -2.0973   -1.2228 O   0  0  0  0  0  0  0  0  0  0  0  0
    3.5584   -2.3241   -0.5860 O   0  0  0  0  0  0  0  0  0  0  0  0
    5.5573    1.9079    0.2320 O   0  0  0  0  0  0  0  0  0  0  0  0
   -2.1937   -0.7431   -0.0995 C   0  0  0  0  0  0  0  0  0  0  0  0
   -2.3239    0.6782    0.5609 C   0  0  0  0  0  0  0  0  0  0  0  0
   -3.5627   -1.4081   -0.3370 C   0  0  0  0  0  0  0  0  0  0  0  0
   -3.7779    1.0417    0.9014 C   0  0  0  0  0  0  0  0  0  0  0  0
   -1.2202   -1.7081    0.6450 C   0  0  0  0  0  0  0  0  0  0  0  0
   -4.5094   -0.4613   -1.0638 C   0  0  0  0  0  0  0  0  0  0  0  0
   -1.6899    1.8114   -0.3003 C   0  0  0  0  0  0  0  0  0  0  0  0
   -4.7008    0.8108   -0.2730 C   0  0  0  0  0  0  0  0  0  0  0  0
   -1.6340   -2.0571    2.0726 C   0  0  0  0  0  0  0  0  0  0  0  0
   -0.2468    1.5395   -0.6054 C   0  0  0  0  0  0  0  0  0  0  0  0
    0.7166    1.6174    0.3250 C   0  0  0  0  0  0  0  0  0  0  0  0
    0.9676   -1.3226   -0.2893 C   0  0  0  0  0  0  0  0  0  0  0  0
    2.0153    0.9592    0.1379 C   0  0  0  0  0  0  0  0  0  0  0  0
    2.1379   -0.4232   -0.1355 C   0  0  0  0  0  0  0  0  0  0  0  0
    3.4015   -0.9967   -0.3162 C   0  0  0  0  0  0  0  0  0  0  0  0
    3.1773    1.7293    0.2736 C   0  0  0  0  0  0  0  0  0  0  0  0
    4.4351    1.1468    0.1064 C   0  0  0  0  0  0  0  0  0  0  0  0
    4.5463   -0.2104   -0.1921 C   0  0  0  0  0  0  0  0  0  0  0  0
  1 10  1  0
  1 17  1  0
  2 13  2  0
  3 17  2  0
  4 20  1  0
  5 22  1  0
  6  7  1  0
  6  8  1  0
  6 10  1  0
  7  9  1  0
  7 12  1  0
  8 11  1  0
  9 13  1  0
 10 14  1  0
 11 13  1  0
 12 15  1  0
 15 16  2  0
 16 18  1  0
 17 19  1  0
 18 19  2  0
 18 21  1  0
 19 20  1  0
 20 23  2  0
 21 22  2  0
 22 23  1  0
M  END
>  <PUBCHEM_COMPOUND_CID>  (1) 
1964

>  <PUBCHEM_CONFORMER_RMSD>  (1) 
0.6

>  <PUBCHEM_CONFORMER_DIVERSEORDER>  (1) 
6
7
2
5
3
1
4
8

>  <PUBCHEM_MMFF94_PARTIAL_CHARGES>  (1) 
25
1 -0.43
10 0.28
11 0.06
12 0.14
13 0.45
15 -0.29
16 -0.18
17 0.63
18 0.03
19 0.09
2 -0.57
20 0.08
21 -0.15
22 0.08
23 -0.15
3 -0.57
38 0.15
39 0.15
4 -0.53
40 0.15
41 0.15
42 0.45
43 0.45
5 -0.53
9 0.06

>  <PUBCHEM_EFFECTIVE_ROTOR_COUNT>  (1) 
1.2

>  <PUBCHEM_PHARMACOPHORE_FEATURES>  (1) 
6
1 2 acceptor
1 3 acceptor
1 4 donor
1 5 donor
6 18 19 20 21 22 23 rings
6 6 7 8 9 11 13 rings

>  <PUBCHEM_HEAVY_ATOM_COUNT>  (1) 
23

>  <PUBCHEM_ATOM_DEF_STEREO_COUNT>  (1) 
0

>  <PUBCHEM_ATOM_UDEF_STEREO_COUNT>  (1) 
3

>  <PUBCHEM_BOND_DEF_STEREO_COUNT>  (1) 
0

>  <PUBCHEM_BOND_UDEF_STEREO_COUNT>  (1) 
1

>  <PUBCHEM_ISOTOPIC_ATOM_COUNT>  (1) 
0

>  <PUBCHEM_COMPONENT_COUNT>  (1) 
1

>  <PUBCHEM_CACTVS_TAUTO_COUNT>  (1) 
36

>  <PUBCHEM_CONFORMER_ID>  (1) 
000007AC00000006

>  <PUBCHEM_MMFF94_ENERGY>  (1) 
74.1973

>  <PUBCHEM_FEATURE_SELFOVERLAP>  (1) 
30.446

>  <PUBCHEM_SHAPE_FINGERPRINT>  (1) 
10366900 7 18201438116432471408
10863032 1 18201720669329434723
10906281 52 18337125517573942733
11132069 177 18408886243424618973
11578080 2 13841423734245443956
12011746 2 18411703192557846796
12107183 9 17554058632003280465
12236239 1 18131069299820332313
12633257 1 18187074045124313074
12788726 201 18339641140112400536
13140716 1 18118695545641949945
13224815 77 18413112779090873456
13402501 40 18410573998347894716
13544592 271 18336272318215360315
14251745 187 18411134761904240105
14787075 74 18412541020091365552
15196674 1 18411981364482972095
15238133 3 14346066486754813359
15375358 24 18408042930917221608
15536298 74 18343301452917176493
15848702 151 17987522515736664815
1601671 61 18410011074312132764
18186145 218 18040992926042264231
200 152 17846777429700078509
20600515 1 17530973505031004077
20645477 70 18202569453973418190
20691752 17 17894628132717253619
21267235 1 18412833499296359183
21279426 13 18336543811671945677
21421861 104 17749935679984219714
22182313 1 18266764508774810066
23402539 116 18335133202572549197
23402655 69 18272650147146638565
23559900 14 18335423465648504786
2871803 45 18335699382346866245
296302 2 18343305876733452453
335352 9 18338517439138343382
34934 24 18335978753142834858
350125 39 18411418385250834796
351380 180 18411134727803074586
3680242 22 18190175685399813099
4028521 119 18334572434731520119
4280585 95 17054729728780712854
474 4 18335139804100832821
495365 180 17917417761818782128
5104073 3 18411139129928289043
59755656 215 18409732838093795116
69090 78 18413387635422780183
9709674 26 18410299128898906058
9981440 41 18335418014628683883

>  <PUBCHEM_SHAPE_MULTIPOLES>  (1) 
443.98
10.45
2.49
1.06
0.64
0.42
-0.29
-3.72
1.32
0.45
-0.13
-0.69
0.5
0.83

>  <PUBCHEM_SHAPE_SELFOVERLAP>  (1) 
952.11

>  <PUBCHEM_SHAPE_VOLUME>  (1) 
240.1

>  <PUBCHEM_COORDINATE_TYPE>  (1) 
2
5
10

$$$$
