19644
     RDKit          3D

 18 19  0  0  0  0  0  0  0  0999 V2000
   -7.0182    0.0330    0.2700 Br  0  0  0  0  0  0  0  0  0  0  0  0
    5.1372   -0.0200   -0.1519 N   0  0  0  0  0  0  0  0  0  0  0  0
   -0.4132    0.0660    0.5773 N   0  0  0  0  0  0  0  0  0  0  0  0
   -0.9930   -0.0569   -0.5272 N   0  0  0  0  0  0  0  0  0  0  0  0
    3.7388    0.0019    0.0316 C   0  0  0  0  0  0  0  0  0  0  0  0
    3.0484    1.2132   -0.0116 C   0  0  0  0  0  0  0  0  0  0  0  0
    3.0463   -1.1879    0.2565 C   0  0  0  0  0  0  0  0  0  0  0  0
    0.9732    0.0452    0.3949 C   0  0  0  0  0  0  0  0  0  0  0  0
    1.6656    1.2349    0.1701 C   0  0  0  0  0  0  0  0  0  0  0  0
    1.6634   -1.1662    0.4382 C   0  0  0  0  0  0  0  0  0  0  0  0
    5.9477    1.1129    0.2480 C   0  0  0  0  0  0  0  0  0  0  0  0
    5.7833   -1.1816   -0.7302 C   0  0  0  0  0  0  0  0  0  0  0  0
   -2.3861   -0.0361   -0.3434 C   0  0  0  0  0  0  0  0  0  0  0  0
   -3.0707    1.1745   -0.3867 C   0  0  0  0  0  0  0  0  0  0  0  0
   -3.0709   -1.2266   -0.1187 C   0  0  0  0  0  0  0  0  0  0  0  0
   -4.4533    1.1951   -0.2035 C   0  0  0  0  0  0  0  0  0  0  0  0
   -4.4536   -1.2061    0.0644 C   0  0  0  0  0  0  0  0  0  0  0  0
   -5.1448    0.0047    0.0220 C   0  0  0  0  0  0  0  0  0  0  0  0
  1 18  1  0
  2  5  1  0
  2 11  1  0
  2 12  1  0
  3  4  2  0
  3  8  1  0
  4 13  1  0
  5  6  2  0
  5  7  1  0
  6  9  1  0
  7 10  2  0
  8  9  2  0
  8 10  1  0
 13 14  2  0
 13 15  1  0
 14 16  1  0
 15 17  2  0
 16 18  2  0
 17 18  1  0
M  END
>  <PUBCHEM_COMPOUND_CID>  (1) 
19644

>  <PUBCHEM_CONFORMER_RMSD>  (1) 
0.6

>  <PUBCHEM_CONFORMER_DIVERSEORDER>  (1) 
1
4
3
2

>  <PUBCHEM_MMFF94_PARTIAL_CHARGES>  (1) 
26
1 -0.11
10 -0.15
11 0.37
12 0.37
13 0.18
14 -0.15
15 -0.15
16 -0.15
17 -0.15
18 0.11
19 0.15
2 -0.84
20 0.15
21 0.15
22 0.15
29 0.15
3 -0.18
30 0.15
31 0.15
32 0.15
4 -0.18
5 0.1
6 -0.15
7 -0.15
8 0.18
9 -0.15

>  <PUBCHEM_EFFECTIVE_ROTOR_COUNT>  (1) 
3

>  <PUBCHEM_PHARMACOPHORE_FEATURES>  (1) 
4
1 1 hydrophobe
1 2 cation
6 13 14 15 16 17 18 rings
6 5 6 7 8 9 10 rings

>  <PUBCHEM_HEAVY_ATOM_COUNT>  (1) 
18

>  <PUBCHEM_ATOM_DEF_STEREO_COUNT>  (1) 
0

>  <PUBCHEM_ATOM_UDEF_STEREO_COUNT>  (1) 
0

>  <PUBCHEM_BOND_DEF_STEREO_COUNT>  (1) 
0

>  <PUBCHEM_BOND_UDEF_STEREO_COUNT>  (1) 
0

>  <PUBCHEM_ISOTOPIC_ATOM_COUNT>  (1) 
0

>  <PUBCHEM_COMPONENT_COUNT>  (1) 
1

>  <PUBCHEM_CACTVS_TAUTO_COUNT>  (1) 
1

>  <PUBCHEM_CONFORMER_ID>  (1) 
00004CBC00000001

>  <PUBCHEM_MMFF94_ENERGY>  (1) 
62.6011

>  <PUBCHEM_FEATURE_SELFOVERLAP>  (1) 
20.297

>  <PUBCHEM_SHAPE_FINGERPRINT>  (1) 
10354089 29 18333731316709980120
10366900 7 16587742040659087673
10968037 39 18260547836309487959
11287383 113 18409730686019728472
11315181 36 18131354133218661289
12107183 9 17616529562905189697
12236239 1 17989489619031441704
12730499 353 18259990361933298562
12916748 109 18334295357706615256
13073987 5 18261951843136964585
13533116 47 13542195943480636420
1420 363 17894916234765276579
14251764 18 18130790075284847179
14251764 46 18410855451543514962
14341114 176 18410296912759013429
14933364 13 18411984658654537137
15788980 27 17418371402428131684
17834072 33 18410572898530000036
17844677 252 18341337729498131616
200 152 18202282510991363785
20281389 69 18408602548113613025
20645477 70 18341331081194823062
21267235 1 18409173207844086185
221357 26 18410853248299560925
2297311 6 18410297991107138693
23035841 295 18410856542586787411
23402539 116 17022896852552235700
23402655 69 18410007719551901068
23536379 177 18343021081936971584
23557571 272 18334579001393956053
23559900 14 18340198704529688481
29717793 49 17775290452031988140
300161 21 18187075148772652043
3004659 81 18336267852129958310
34797466 226 18131638897987586708
3545911 37 18408603660768209161
4073 2 18113623434036214634
4214541 1 18410009923302835493
42788 4 18410573985162013644
4340502 62 16370720440211314146
4463277 17 18412545413842740481
4990 188 18413393124966108046
5104073 3 18335978671042669273
542803 24 17203609285195584385
59755656 215 18335422339824085687
59755656 520 16732982046584243955
77779 3 18409165515436300777

>  <PUBCHEM_SHAPE_MULTIPOLES>  (1) 
361.43
16.69
1.42
0.72
3.85
0.01
-0.01
-0.06
-0.45
-0.47
-0.02
-0.07
0.03
0.42

>  <PUBCHEM_SHAPE_SELFOVERLAP>  (1) 
752.15

>  <PUBCHEM_SHAPE_VOLUME>  (1) 
212.7

>  <PUBCHEM_COORDINATE_TYPE>  (1) 
2
5
10

$$$$
