19652
     RDKit          3D

 28 32  0  0  1  0  0  0  0  0999 V2000
    1.4887   -1.6735    0.3859 O   0  0  0  0  0  0  0  0  0  0  0  0
    0.5237    2.9222   -0.4923 O   0  0  0  0  0  0  0  0  0  0  0  0
   -6.0893   -0.1386   -1.8773 O   0  0  0  0  0  0  0  0  0  0  0  0
    5.9358    0.4513    0.3441 O   0  0  0  0  0  0  0  0  0  0  0  0
    6.3725   -1.7911    0.0664 O   0  0  0  0  0  0  0  0  0  0  0  0
   -0.7647   -0.8202    0.6227 C   0  0  0  0  0  0  0  0  0  0  0  0
    0.6210   -0.6198   -0.0576 C   0  0  0  0  0  0  0  0  0  0  0  0
   -1.7377    0.3688    0.3749 C   0  0  0  0  0  0  0  0  0  0  0  0
    1.2996    0.7376    0.2614 C   0  0  0  0  0  0  0  0  0  0  0  0
   -3.1450    0.1522    1.0502 C   0  0  0  0  0  0  0  0  0  0  0  0
   -3.7478   -1.2116    0.5813 C   0  0  0  0  0  0  0  0  0  0  0  0
    2.4170    0.8526   -0.8286 C   0  0  0  0  0  0  0  0  0  0  0  0
   -1.4074   -2.1652    0.2242 C   0  0  0  0  0  0  0  0  0  0  0  0
    0.5973   -0.6302   -1.5950 C   0  0  0  0  0  0  0  0  0  0  0  0
   -1.0718    1.6907    0.7759 C   0  0  0  0  0  0  0  0  0  0  0  0
   -2.7854   -2.3780    0.8438 C   0  0  0  0  0  0  0  0  0  0  0  0
    0.2672    1.8688    0.0924 C   0  0  0  0  0  0  0  0  0  0  0  0
    1.9079    0.0285   -2.0269 C   0  0  0  0  0  0  0  0  0  0  0  0
   -4.1638    1.2764    0.6940 C   0  0  0  0  0  0  0  0  0  0  0  0
    1.8416    0.8495    1.6971 C   0  0  0  0  0  0  0  0  0  0  0  0
   -3.0318    0.1586    2.5984 C   0  0  0  0  0  0  0  0  0  0  0  0
   -4.1814   -1.2050   -0.8967 C   0  0  0  0  0  0  0  0  0  0  0  0
   -4.5521    1.3282   -0.7752 C   0  0  0  0  0  0  0  0  0  0  0  0
    3.7846    0.3732   -0.4349 C   0  0  0  0  0  0  0  0  0  0  0  0
   -5.0623   -0.0208   -1.2109 C   0  0  0  0  0  0  0  0  0  0  0  0
    4.8046    1.2951    0.1048 C   0  0  0  0  0  0  0  0  0  0  0  0
    4.2512   -0.8703   -0.5092 C   0  0  0  0  0  0  0  0  0  0  0  0
    5.6277   -0.8295   -0.0129 C   0  0  0  0  0  0  0  0  0  0  0  0
  1  7  1  0
  2 17  2  0
  3 25  2  0
  4 26  1  0
  4 28  1  0
  5 28  2  0
  6  7  1  0
  6  8  1  0
  6 13  1  0
  7  9  1  0
  7 14  1  0
  8 10  1  0
  8 15  1  0
  9 12  1  0
  9 17  1  0
  9 20  1  0
 10 11  1  0
 10 19  1  0
 10 21  1  0
 11 16  1  0
 11 22  1  0
 12 18  1  0
 12 24  1  0
 13 16  1  0
 14 18  1  0
 15 17  1  0
 19 23  1  0
 22 25  1  0
 23 25  1  0
 24 26  1  0
 24 27  2  0
 27 28  1  0
M  END
>  <PUBCHEM_COMPOUND_CID>  (1) 
19652

>  <PUBCHEM_CONFORMER_RMSD>  (1) 
0.8

>  <PUBCHEM_CONFORMER_DIVERSEORDER>  (1) 
1
19
5
12
6
22
15
24
25
21
2
14
26
17
11
16
4
10
23
13
20
18
3
7
9
8

>  <PUBCHEM_MMFF94_PARTIAL_CHARGES>  (1) 
19
1 -0.68
12 0.14
15 0.06
17 0.45
2 -0.57
22 0.06
23 0.06
24 -0.28
25 0.45
26 0.42
27 -0.14
28 0.71
3 -0.57
4 -0.43
5 -0.57
53 0.4
58 0.15
7 0.28
9 0.06

>  <PUBCHEM_EFFECTIVE_ROTOR_COUNT>  (1) 
3.2

>  <PUBCHEM_PHARMACOPHORE_FEATURES>  (1) 
10
1 1 acceptor
1 1 donor
1 2 acceptor
1 3 acceptor
1 5 acceptor
5 4 24 26 27 28 rings
5 7 9 12 14 18 rings
6 10 11 19 22 23 25 rings
6 6 7 8 9 15 17 rings
6 6 8 10 11 13 16 rings

>  <PUBCHEM_HEAVY_ATOM_COUNT>  (1) 
28

>  <PUBCHEM_ATOM_DEF_STEREO_COUNT>  (1) 
5

>  <PUBCHEM_ATOM_UDEF_STEREO_COUNT>  (1) 
2

>  <PUBCHEM_BOND_DEF_STEREO_COUNT>  (1) 
0

>  <PUBCHEM_BOND_UDEF_STEREO_COUNT>  (1) 
0

>  <PUBCHEM_ISOTOPIC_ATOM_COUNT>  (1) 
0

>  <PUBCHEM_COMPONENT_COUNT>  (1) 
1

>  <PUBCHEM_CACTVS_TAUTO_COUNT>  (1) 
6

>  <PUBCHEM_CONFORMER_ID>  (1) 
00004CC400000001

>  <PUBCHEM_MMFF94_ENERGY>  (1) 
88.8629

>  <PUBCHEM_FEATURE_SELFOVERLAP>  (1) 
50.973

>  <PUBCHEM_SHAPE_FINGERPRINT>  (1) 
10165383 225 12035447221085145077
10369192 42 12904968658977976518
10675989 125 17109872350058946725
10906281 52 18200615642837368373
10930396 42 18125969820757074672
11315181 36 17775004600277842160
11796584 16 17894627084845830882
12011746 2 18410285908984112389
12166972 35 18113902718805970279
12403260 363 17203609319407688529
12596602 18 13830134975153301502
12788726 201 16806151164645915381
13140716 1 18197233631122604729
13224815 77 17845947306947719217
13583140 156 18271806886384901762
13675066 3 17822021946806940728
13782708 43 16844746231237471334
14251758 9 17530966869459557542
14787075 74 13758068615065984230
15183329 4 18040428867723581854
15788980 27 18113345223118149136
1601671 61 13912320188021632604
16945 1 18196400119545972881
17349148 13 18060427940376322377
17980427 23 17632027415411500369
1813 80 17240489117769340142
18608769 82 18334579075526673155
19489759 90 18343864411592433671
200 152 17275103946924092749
20600515 1 18340226136106285460
20775438 99 16548573258028689407
21033648 29 17676763287928801145
21279426 13 18335701611651261694
21682296 61 17345205402587142142
22079108 93 14045734933478983238
22393880 68 17968648436699672963
23402539 116 18342739593853903876
23559900 14 18339073899422878896
2838139 119 17022612075468296757
3009799 131 18409160026183506973
335352 9 18408890615859621061
4015057 19 18341609369105431273
4325135 7 13614241507373092295
439807 62 17630311168883400999
5104073 3 18271536372391422250
5283173 99 18336541629628729269
5326457 24 17203607060281680918
59755656 215 18261674766813790214
6913067 236 17132113528862163406
70251023 43 17759526964410544947
7226269 152 18261116261745000304
7495541 125 17346593089097620752

>  <PUBCHEM_SHAPE_MULTIPOLES>  (1) 
546.88
12.4
2.12
1.62
7.35
0.05
0.07
-2.07
-2.16
-0.24
0.2
-1.52
0.06
0.09

>  <PUBCHEM_SHAPE_SELFOVERLAP>  (1) 
1195.103

>  <PUBCHEM_SHAPE_VOLUME>  (1) 
295.3

>  <PUBCHEM_COORDINATE_TYPE>  (1) 
2
5
10

$$$$
