19659
     RDKit          3D

  8  8  0  0  0  0  0  0  0  0999 V2000
   -2.3521   -1.1597   -0.0002 S   0  0  0  0  0  0  0  0  0  0  0  0
   -1.3620    1.7860   -0.0001 O   0  0  0  0  0  0  0  0  0  0  0  0
   -0.3947    0.7960    0.0001 N   0  0  0  0  0  0  0  0  0  0  0  0
   -0.7710   -0.5536    0.0002 C   0  0  0  0  0  0  0  0  0  0  0  0
    0.8993    1.2591    0.0001 C   0  0  0  0  0  0  0  0  0  0  0  0
    0.4036   -1.5002    0.0002 C   0  0  0  0  0  0  0  0  0  0  0  0
    1.9210    0.3942   -0.0001 C   0  0  0  0  0  0  0  0  0  0  0  0
    1.6559   -1.0217   -0.0002 C   0  0  0  0  0  0  0  0  0  0  0  0
  1  4  2  0
  2  3  1  0
  3  4  1  0
  3  5  1  0
  4  6  1  0
  5  7  2  0
  6  8  2  0
  7  8  1  0
M  CHG  1   2  -1
M  END
>  <PUBCHEM_COMPOUND_CID>  (1) 
19659

>  <PUBCHEM_CONFORMER_RMSD>  (1) 
0.4

>  <PUBCHEM_CONFORMER_DIVERSEORDER>  (1) 
1

>  <PUBCHEM_MMFF94_PARTIAL_CHARGES>  (1) 
12
1 -0.38
10 0.15
11 0.15
12 0.15
2 -0.71
3 -0.46
4 0.43
5 -0.04
6 -0.14
7 -0.15
8 -0.15
9 0.15

>  <PUBCHEM_EFFECTIVE_ROTOR_COUNT>  (1) 
0

>  <PUBCHEM_PHARMACOPHORE_FEATURES>  (1) 
2
1 1 acceptor
6 3 4 5 6 7 8 rings

>  <PUBCHEM_HEAVY_ATOM_COUNT>  (1) 
8

>  <PUBCHEM_ATOM_DEF_STEREO_COUNT>  (1) 
0

>  <PUBCHEM_ATOM_UDEF_STEREO_COUNT>  (1) 
0

>  <PUBCHEM_BOND_DEF_STEREO_COUNT>  (1) 
0

>  <PUBCHEM_BOND_UDEF_STEREO_COUNT>  (1) 
0

>  <PUBCHEM_ISOTOPIC_ATOM_COUNT>  (1) 
0

>  <PUBCHEM_COMPONENT_COUNT>  (1) 
1

>  <PUBCHEM_CACTVS_TAUTO_COUNT>  (1) 
1

>  <PUBCHEM_CONFORMER_ID>  (1) 
00004CCB00000001

>  <PUBCHEM_MMFF94_ENERGY>  (1) 
25.7655

>  <PUBCHEM_FEATURE_SELFOVERLAP>  (1) 
10.148

>  <PUBCHEM_SHAPE_FINGERPRINT>  (1) 
18185500 45 18125156292935341767
21040471 1 17978509732855477668
23552423 10 18260835851941388574
2748010 2 18339641135916918902
29004967 10 18191308375776732651
5084963 1 18202007654759852642

>  <PUBCHEM_SHAPE_MULTIPOLES>  (1) 
157.64
2.73
1.83
0.61
1.07
0.45
0
-0.49
0
0.07
0
0.02
-0.04
0

>  <PUBCHEM_SHAPE_SELFOVERLAP>  (1) 
309.147

>  <PUBCHEM_SHAPE_VOLUME>  (1) 
95.8

>  <PUBCHEM_COORDINATE_TYPE>  (1) 
2
5
10

$$$$
