19688
     RDKit          3D

 30 33  0  0  1  0  0  0  0  0999 V2000
   -2.5957   -1.2681    0.4600 O   0  0  0  0  0  0  0  0  0  0  0  0
    7.7214   -0.3290   -0.1039 O   0  0  0  0  0  0  0  0  0  0  0  0
   -3.8000   -2.1933   -1.2762 O   0  0  0  0  0  0  0  0  0  0  0  0
   -0.2848   -0.4187    0.3357 C   0  0  0  0  0  0  0  0  0  0  0  0
    0.5534    0.0218   -0.8859 C   0  0  0  0  0  0  0  0  0  0  0  0
    1.7506    0.8948   -0.5010 C   0  0  0  0  0  0  0  0  0  0  0  0
    2.6771    0.0827    0.4679 C   0  0  0  0  0  0  0  0  0  0  0  0
   -1.4519   -1.1663   -0.3777 C   0  0  0  0  0  0  0  0  0  0  0  0
    0.6188   -1.2518    1.2638 C   0  0  0  0  0  0  0  0  0  0  0  0
   -0.4871    0.5884   -1.8482 C   0  0  0  0  0  0  0  0  0  0  0  0
    1.8921   -0.4868    1.6718 C   0  0  0  0  0  0  0  0  0  0  0  0
    3.8811    0.9722    0.8800 C   0  0  0  0  0  0  0  0  0  0  0  0
   -1.7534   -0.2564   -1.5979 C   0  0  0  0  0  0  0  0  0  0  0  0
    2.5300    1.3860   -1.7374 C   0  0  0  0  0  0  0  0  0  0  0  0
   -0.8617    0.7715    1.1584 C   0  0  0  0  0  0  0  0  0  0  0  0
    3.7803    2.1799   -1.3476 C   0  0  0  0  0  0  0  0  0  0  0  0
    4.6105    1.3652   -0.3926 C   0  0  0  0  0  0  0  0  0  0  0  0
    4.8472    0.3729    1.9131 C   0  0  0  0  0  0  0  0  0  0  0  0
   -1.0900   -2.5229   -0.8338 C   0  0  0  0  0  0  0  0  0  0  0  0
    5.8023   -0.6373    1.3020 C   0  0  0  0  0  0  0  0  0  0  0  0
    5.8503    0.9608   -0.7078 C   0  0  0  0  0  0  0  0  0  0  0  0
    6.5652   -0.0062    0.1609 C   0  0  0  0  0  0  0  0  0  0  0  0
   -3.7157   -1.8049   -0.1191 C   0  0  0  0  0  0  0  0  0  0  0  0
   -0.7963   -3.6263   -1.2045 C   0  0  0  0  0  0  0  0  0  0  0  0
   -4.8255   -1.8739    0.9065 C   0  0  0  0  0  0  0  0  0  0  0  0
   -5.2692   -0.4993    1.4070 C   0  0  0  0  0  0  0  0  0  0  0  0
   -5.8034    0.3894    0.2795 C   0  0  0  0  0  0  0  0  0  0  0  0
   -6.2654    1.7462    0.8145 C   0  0  0  0  0  0  0  0  0  0  0  0
   -6.8251    2.6238   -0.3047 C   0  0  0  0  0  0  0  0  0  0  0  0
   -7.2551    3.9855    0.2172 C   0  0  0  0  0  0  0  0  0  0  0  0
  1  8  1  0
  1 23  1  0
  2 22  2  0
  3 23  2  0
  4  5  1  0
  4  8  1  0
  4  9  1  0
  4 15  1  0
  5  6  1  0
  5 10  1  0
  6  7  1  0
  6 14  1  0
  7 11  1  0
  7 12  1  0
  8 13  1  0
  8 19  1  0
  9 11  1  0
 10 13  1  0
 12 17  1  0
 12 18  1  0
 14 16  1  0
 16 17  1  0
 17 21  2  0
 18 20  1  0
 19 24  3  0
 20 22  1  0
 21 22  1  0
 23 25  1  0
 25 26  1  0
 26 27  1  0
 27 28  1  0
 28 29  1  0
 29 30  1  0
M  END
>  <PUBCHEM_COMPOUND_CID>  (1) 
19688

>  <PUBCHEM_CONFORMER_RMSD>  (1) 
1

>  <PUBCHEM_CONFORMER_DIVERSEORDER>  (1) 
2
55
40
17
41
12
56
35
23
15
53
44
38
27
14
49
19
48
42
52
4
57
30
31
9
33
7
18
34
50
5
13
47
45
43
11
54
1
26
46
21
22
6
28
32
24
3
36
39
20
25
16
10
51
37
8
29

>  <PUBCHEM_MMFF94_PARTIAL_CHARGES>  (1) 
16
1 -0.43
12 0.14
16 0.14
17 -0.28
19 -0.2
2 -0.57
20 0.06
21 -0.14
22 0.49
23 0.66
24 -0.18
25 0.06
3 -0.57
54 0.15
55 0.18
8 0.48

>  <PUBCHEM_EFFECTIVE_ROTOR_COUNT>  (1) 
8.8

>  <PUBCHEM_PHARMACOPHORE_FEATURES>  (1) 
9
1 2 acceptor
1 24 hydrophobe
1 3 acceptor
1 30 hydrophobe
5 25 26 27 28 29 hydrophobe
5 4 5 8 10 13 rings
6 12 17 18 20 21 22 rings
6 4 5 6 7 9 11 rings
6 6 7 12 14 16 17 rings

>  <PUBCHEM_HEAVY_ATOM_COUNT>  (1) 
30

>  <PUBCHEM_ATOM_DEF_STEREO_COUNT>  (1) 
5

>  <PUBCHEM_ATOM_UDEF_STEREO_COUNT>  (1) 
1

>  <PUBCHEM_BOND_DEF_STEREO_COUNT>  (1) 
0

>  <PUBCHEM_BOND_UDEF_STEREO_COUNT>  (1) 
0

>  <PUBCHEM_ISOTOPIC_ATOM_COUNT>  (1) 
0

>  <PUBCHEM_COMPONENT_COUNT>  (1) 
1

>  <PUBCHEM_CACTVS_TAUTO_COUNT>  (1) 
8

>  <PUBCHEM_CONFORMER_ID>  (1) 
00004CE800000002

>  <PUBCHEM_MMFF94_ENERGY>  (1) 
69.3212

>  <PUBCHEM_FEATURE_SELFOVERLAP>  (1) 
45.784

>  <PUBCHEM_SHAPE_FINGERPRINT>  (1) 
10076449 9 14779553383207630552
10190108 129 16878230744605249640
10554248 39 15410900682334011128
10674148 151 18333454249287535248
11796584 16 17916593175928419118
12107183 9 18187365424132291909
12236239 1 18262804085155371498
12422481 6 18113900438215252695
12969540 114 16343712040733911197
1361 4 9367352530768237017
13631057 29 9943802279887005381
14674994 50 13479434780723382369
14790565 3 18337397153207644805
14856354 85 17313390071269577547
15142383 8 18202281390806934576
15183329 4 17968369130365020126
15238133 3 18342459270044694008
15840311 113 17968381259869804469
18335252 98 11963390734985463768
18608769 82 15792015649031543858
19302320 297 18187943767797888501
21267235 1 17458059392147051546
21796203 349 11459010619694095877
21859007 373 18341334379339206197
22122407 14 17968672608981941009
221357 26 17458615757878607140
2260408 40 15430601624252844291
23522609 53 17531831128269367700
23559900 14 17344936163660540678
23569914 2 17127848579183449345
2838139 119 18343016705924881737
350125 39 17748824120577590812
392239 28 16298383582941399697
4015057 19 14620513479814985651
46194498 28 13479126935301302958
5104073 3 17749943470348343704
6086070 43 16916773094373075379
7226269 152 17703515475294895859

>  <PUBCHEM_SHAPE_MULTIPOLES>  (1) 
599.78
18.07
3.12
1.71
4.18
0.24
0.05
12.58
-4.47
6.7
0.93
-0.75
-0.12
-1.36

>  <PUBCHEM_SHAPE_SELFOVERLAP>  (1) 
1257.883

>  <PUBCHEM_SHAPE_VOLUME>  (1) 
334.9

>  <PUBCHEM_COORDINATE_TYPE>  (1) 
2
5
10

$$$$
