19682
     RDKit          3D

 20 20  0  0  0  0  0  0  0  0999 V2000
    2.8285    3.6968    0.0709 F   0  0  0  0  0  0  0  0  0  0  0  0
   -0.5893    0.2062    0.0943 O   0  0  0  0  0  0  0  0  0  0  0  0
    2.9748   -1.7921    0.1974 O   0  0  0  0  0  0  0  0  0  0  0  0
    0.4338   -1.5746    1.1341 O   0  0  0  0  0  0  0  0  0  0  0  0
   -4.2503   -0.0998   -0.2057 N   0  0  0  0  0  0  0  0  0  0  0  0
   -2.9235    0.5015   -0.3370 C   0  0  0  0  0  0  0  0  0  0  0  0
   -4.5658   -0.3398    1.2019 C   0  0  0  0  0  0  0  0  0  0  0  0
   -5.2634    0.7594   -0.8174 C   0  0  0  0  0  0  0  0  0  0  0  0
   -1.8608   -0.4081    0.2588 C   0  0  0  0  0  0  0  0  0  0  0  0
   -5.9156   -1.0204    1.3537 C   0  0  0  0  0  0  0  0  0  0  0  0
   -4.9514    1.0195   -2.2814 C   0  0  0  0  0  0  0  0  0  0  0  0
    1.7400    0.2586    0.3474 C   0  0  0  0  0  0  0  0  0  0  0  0
    0.4773   -0.4875    0.5792 C   0  0  0  0  0  0  0  0  0  0  0  0
    2.9228   -0.4306    0.1685 C   0  0  0  0  0  0  0  0  0  0  0  0
    1.6838    1.6384    0.3189 C   0  0  0  0  0  0  0  0  0  0  0  0
    4.0979    0.2892   -0.0483 C   0  0  0  0  0  0  0  0  0  0  0  0
    2.8590    2.3580    0.1025 C   0  0  0  0  0  0  0  0  0  0  0  0
    4.0660    1.6834   -0.0815 C   0  0  0  0  0  0  0  0  0  0  0  0
    3.4437   -2.4474   -0.9791 C   0  0  0  0  0  0  0  0  0  0  0  0
    2.7926   -3.8105   -1.0770 C   0  0  0  0  0  0  0  0  0  0  0  0
  1 17  1  0
  2  9  1  0
  2 13  1  0
  3 14  1  0
  3 19  1  0
  4 13  2  0
  5  6  1  0
  5  7  1  0
  5  8  1  0
  6  9  1  0
  7 10  1  0
  8 11  1  0
 12 13  1  0
 12 14  2  0
 12 15  1  0
 14 16  1  0
 15 17  2  0
 16 18  2  0
 17 18  1  0
 19 20  1  0
M  END
>  <PUBCHEM_COMPOUND_CID>  (1) 
19682

>  <PUBCHEM_CONFORMER_RMSD>  (1) 
0.8

>  <PUBCHEM_CONFORMER_DIVERSEORDER>  (1) 
1
232
207
161
129
214
119
228
118
236
227
39
253
90
35
143
150
136
164
178
217
203
19
120
63
225
69
230
11
250
224
152
73
82
141
106
66
167
241
111
256
243
83
32
235
148
260
231
210
121
170
252
113
242
10
58
23
229
92
87
134
27
251
173
149
204
194
240
154
3
259
28
212
109
223
79
115
237
216
100
219
262
12
146
186
131
88
218
205
239
211
85
206
233
181
123
247
208
169
62
33
67
248
105
162
29
221
254
4
183
84
114
263
15
159
7
157
6
261
91
238
155
78
49
68
215
156
139
64
244
202
184
8
160
246
151
14
98
103
142
76
245
110
126
190
96
257
37
201
255
176
53
5
77
18
188
44
60
108
187
41
163
153
128
24
45
189
104
42
130
22
125
127
93
95
30
249
57
20
46
102
61
51
17
107
140
234
197
54
199
65
171
165
25
213
117
182
71
38
220
192
101
200
145
99
36
137
135
180
40
89
34
132
81
193
175
158
138
179
195
116
56
198
133
80
74
13
209
222
16
177
52
94
70
59
258
26
72
196
55
147
124
172
185
168
97
166
112
226
122
2
47
21
174
50
191
43
31
144
48
75
9
86

>  <PUBCHEM_MMFF94_PARTIAL_CHARGES>  (1) 
20
1 -0.19
12 0.09
13 0.63
14 0.08
15 -0.15
16 -0.15
17 0.19
18 -0.15
19 0.28
2 -0.43
3 -0.36
35 0.15
36 0.15
37 0.15
4 -0.57
5 -0.81
6 0.27
7 0.27
8 0.27
9 0.28

>  <PUBCHEM_EFFECTIVE_ROTOR_COUNT>  (1) 
9

>  <PUBCHEM_PHARMACOPHORE_FEATURES>  (1) 
4
1 3 acceptor
1 4 acceptor
1 5 cation
6 12 14 15 16 17 18 rings

>  <PUBCHEM_HEAVY_ATOM_COUNT>  (1) 
20

>  <PUBCHEM_ATOM_DEF_STEREO_COUNT>  (1) 
0

>  <PUBCHEM_ATOM_UDEF_STEREO_COUNT>  (1) 
0

>  <PUBCHEM_BOND_DEF_STEREO_COUNT>  (1) 
0

>  <PUBCHEM_BOND_UDEF_STEREO_COUNT>  (1) 
0

>  <PUBCHEM_ISOTOPIC_ATOM_COUNT>  (1) 
0

>  <PUBCHEM_COMPONENT_COUNT>  (1) 
1

>  <PUBCHEM_CACTVS_TAUTO_COUNT>  (1) 
1

>  <PUBCHEM_CONFORMER_ID>  (1) 
00004CE200000001

>  <PUBCHEM_MMFF94_ENERGY>  (1) 
48.4613

>  <PUBCHEM_FEATURE_SELFOVERLAP>  (1) 
20.303

>  <PUBCHEM_SHAPE_FINGERPRINT>  (1) 
10693767 8 17917154901763485694
10912923 1 16702015379534760299
11370993 144 18337686239235396739
11471102 20 18411136952833634264
12107183 9 17768830666821424315
12403259 415 18040436599012763793
12616971 3 17703793600719296203
12730499 353 18337401542453075466
13009979 54 17415856695066375410
13533116 47 18131075918085516907
13675066 3 18040998470871287165
13955234 65 18343866628012044626
15081414 286 18335144206168738924
15806764 133 18187090507807908805
17818456 19 16770997488819612827
17844677 252 18340214003387676537
19433438 28 17821726174148105649
20369508 70 18188202092462478298
20645477 56 18187646959496793291
20645477 70 18411420591930679563
21033648 29 18115013208571270721
21065201 7 16950561069662345329
221357 26 18337665309301172141
22289505 5 18335132060375369588
23402655 69 18412259557978386373
23557571 272 17603588543291030285
23559900 14 18411979152659483682
239999 70 18260268555417630570
3060560 45 18343024415448681102
3545911 37 18336270144856251113
4072396 5 18336250307309594568
495365 180 18200024183386908816
5104073 3 17967526862073168681
5281201 14 18409168775211146045
6025842 7 18342176687045379966
633830 44 18335412436119708703
7164475 11 18058733477199908080
8272917 22 18343592845226769638
90127 26 18187082837249389145

>  <PUBCHEM_SHAPE_MULTIPOLES>  (1) 
381.73
12.53
3.19
1.29
18.41
0.84
-0.48
-0.22
-1.32
-6.16
-0.86
2.19
0.24
2.31

>  <PUBCHEM_SHAPE_SELFOVERLAP>  (1) 
769.413

>  <PUBCHEM_SHAPE_VOLUME>  (1) 
226.4

>  <PUBCHEM_COORDINATE_TYPE>  (1) 
2
5
10

$$$$
