19691
     RDKit          3D

  9  9  0  0  0  0  0  0  0  0999 V2000
    2.5634   -1.1336    0.2852 Cl  0  0  0  0  0  0  0  0  0  0  0  0
    1.7055    1.5710   -0.4272 O   0  0  0  0  0  0  0  0  0  0  0  0
    0.9164   -0.6108    0.0496 C   0  0  0  0  0  0  0  0  0  0  0  0
    0.7571    0.8633   -0.0872 C   0  0  0  0  0  0  0  0  0  0  0  0
   -0.0388   -1.5482    0.0068 C   0  0  0  0  0  0  0  0  0  0  0  0
   -0.5191    1.5253    0.2778 C   0  0  0  0  0  0  0  0  0  0  0  0
   -1.4447   -1.3933   -0.2572 C   0  0  0  0  0  0  0  0  0  0  0  0
   -1.7537    1.0152    0.2855 C   0  0  0  0  0  0  0  0  0  0  0  0
   -2.1860   -0.2890   -0.1334 C   0  0  0  0  0  0  0  0  0  0  0  0
  1  3  1  0
  2  4  2  0
  3  4  1  0
  3  5  2  0
  4  6  1  0
  5  7  1  0
  6  8  2  0
  7  9  2  0
  8  9  1  0
M  END
>  <PUBCHEM_COMPOUND_CID>  (1) 
19691

>  <PUBCHEM_CONFORMER_RMSD>  (1) 
0.4

>  <PUBCHEM_CONFORMER_DIVERSEORDER>  (1) 
1
2

>  <PUBCHEM_MMFF94_PARTIAL_CHARGES>  (1) 
14
1 -0.14
10 0.15
11 0.15
12 0.15
13 0.15
14 0.15
2 -0.57
3 0.15
4 0.54
5 -0.15
6 -0.14
7 -0.15
8 -0.15
9 -0.15

>  <PUBCHEM_EFFECTIVE_ROTOR_COUNT>  (1) 
0

>  <PUBCHEM_PHARMACOPHORE_FEATURES>  (1) 
2
1 2 acceptor
7 3 4 5 6 7 8 9 rings

>  <PUBCHEM_HEAVY_ATOM_COUNT>  (1) 
9

>  <PUBCHEM_ATOM_DEF_STEREO_COUNT>  (1) 
0

>  <PUBCHEM_ATOM_UDEF_STEREO_COUNT>  (1) 
0

>  <PUBCHEM_BOND_DEF_STEREO_COUNT>  (1) 
0

>  <PUBCHEM_BOND_UDEF_STEREO_COUNT>  (1) 
0

>  <PUBCHEM_ISOTOPIC_ATOM_COUNT>  (1) 
0

>  <PUBCHEM_COMPONENT_COUNT>  (1) 
1

>  <PUBCHEM_CACTVS_TAUTO_COUNT>  (1) 
1

>  <PUBCHEM_CONFORMER_ID>  (1) 
00004CEB00000001

>  <PUBCHEM_MMFF94_ENERGY>  (1) 
28.0394

>  <PUBCHEM_FEATURE_SELFOVERLAP>  (1) 
10.148

>  <PUBCHEM_SHAPE_FINGERPRINT>  (1) 
12423570 1 16323697286775699843
14128692 85 18412265030024891974
16945 1 18339645512314526543
18185500 45 18338795619980691091
21040471 1 18339642372756775673
23552423 10 18262237840856591054
241688 4 17402619541182294995
2748010 2 18410854403740319399
5084963 1 18272647918116725171
66348 1 18051693544564459659

>  <PUBCHEM_SHAPE_MULTIPOLES>  (1) 
181.22
2.99
1.96
0.66
0.83
0.2
0.01
-0.46
0.15
0.03
-0.09
0.02
0.02
-0.33

>  <PUBCHEM_SHAPE_SELFOVERLAP>  (1) 
362.611

>  <PUBCHEM_SHAPE_VOLUME>  (1) 
105.1

>  <PUBCHEM_COORDINATE_TYPE>  (1) 
2
5
10

$$$$
