19692
     RDKit          3D

 15 16  0  0  0  0  0  0  0  0999 V2000
   -0.0033    0.0392    1.1036 O   0  0  0  0  0  0  0  0  0  0  0  0
    2.1241   -1.7610    1.4959 N   0  0  0  0  0  0  0  0  0  0  0  0
   -1.1549   -0.1629    0.4039 C   0  0  0  0  0  0  0  0  0  0  0  0
   -2.2200    0.7317    0.5090 C   0  0  0  0  0  0  0  0  0  0  0  0
    1.1690    0.1861    0.3825 C   0  0  0  0  0  0  0  0  0  0  0  0
    2.2177   -0.6972    0.5724 C   0  0  0  0  0  0  0  0  0  0  0  0
   -1.2614   -1.2797   -0.4251 C   0  0  0  0  0  0  0  0  0  0  0  0
   -3.3915    0.5093   -0.2149 C   0  0  0  0  0  0  0  0  0  0  0  0
   -2.1239    1.9323    1.3913 C   0  0  0  0  0  0  0  0  0  0  0  0
    1.2575    1.2309   -0.5222 C   0  0  0  0  0  0  0  0  0  0  0  0
   -2.4327   -1.5020   -1.1490 C   0  0  0  0  0  0  0  0  0  0  0  0
   -3.4977   -0.6075   -1.0439 C   0  0  0  0  0  0  0  0  0  0  0  0
    3.3904   -0.5313   -0.1645 C   0  0  0  0  0  0  0  0  0  0  0  0
    2.4302    1.3966   -1.2590 C   0  0  0  0  0  0  0  0  0  0  0  0
    3.4966    0.5157   -1.0801 C   0  0  0  0  0  0  0  0  0  0  0  0
  1  3  1  0
  1  5  1  0
  2  6  1  0
  3  4  2  0
  3  7  1  0
  4  8  1  0
  4  9  1  0
  5  6  2  0
  5 10  1  0
  6 13  1  0
  7 11  2  0
  8 12  2  0
 10 14  2  0
 11 12  1  0
 13 15  2  0
 14 15  1  0
M  END
>  <PUBCHEM_COMPOUND_CID>  (1) 
19692

>  <PUBCHEM_CONFORMER_RMSD>  (1) 
0.6

>  <PUBCHEM_CONFORMER_DIVERSEORDER>  (1) 
1
9
4
8
10
14
5
11
12
2
3
7
13
6

>  <PUBCHEM_MMFF94_PARTIAL_CHARGES>  (1) 
25
1 -0.17
10 -0.15
11 -0.15
12 -0.15
13 -0.15
14 -0.15
15 -0.15
16 0.15
17 0.15
2 -0.9
21 0.15
22 0.15
23 0.15
24 0.15
25 0.15
26 0.15
27 0.4
28 0.4
3 0.08
4 -0.14
5 0.08
6 0.1
7 -0.15
8 -0.15
9 0.14

>  <PUBCHEM_EFFECTIVE_ROTOR_COUNT>  (1) 
2

>  <PUBCHEM_PHARMACOPHORE_FEATURES>  (1) 
5
1 1 acceptor
1 2 cation
1 2 donor
6 3 4 7 8 11 12 rings
6 5 6 10 13 14 15 rings

>  <PUBCHEM_HEAVY_ATOM_COUNT>  (1) 
15

>  <PUBCHEM_ATOM_DEF_STEREO_COUNT>  (1) 
0

>  <PUBCHEM_ATOM_UDEF_STEREO_COUNT>  (1) 
0

>  <PUBCHEM_BOND_DEF_STEREO_COUNT>  (1) 
0

>  <PUBCHEM_BOND_UDEF_STEREO_COUNT>  (1) 
0

>  <PUBCHEM_ISOTOPIC_ATOM_COUNT>  (1) 
0

>  <PUBCHEM_COMPONENT_COUNT>  (1) 
1

>  <PUBCHEM_CACTVS_TAUTO_COUNT>  (1) 
1

>  <PUBCHEM_CONFORMER_ID>  (1) 
00004CEC00000001

>  <PUBCHEM_MMFF94_ENERGY>  (1) 
61.0065

>  <PUBCHEM_FEATURE_SELFOVERLAP>  (1) 
25.371

>  <PUBCHEM_SHAPE_FINGERPRINT>  (1) 
10465860 71 17989216974692354868
11031198 65 17313107457825300750
11471102 20 17603585223122892444
11578080 2 18049124892382537912
12202030 40 15913337908896208924
124424 183 15502362444556410072
12932764 1 18342740723477840641
13296908 3 15769776848884593772
13538477 17 18413668028220816979
13693222 15 12391516373194892390
14144814 61 18410575071778183537
14250199 8 18261681483557046388
15775835 57 18259989279406120725
16752209 62 18060131016892773991
16945 1 17917990564416416155
18186145 218 17603876610873592174
18219364 16 16950575422968547892
18522853 266 17846224284893230558
19049666 15 15697170521240256104
19862831 5 18410012160484736421
20279233 1 15841552972235471396
20645464 45 14923940171877253765
20645476 183 18335979844022726463
20645477 70 17313098614514252754
21486144 27 16732706047199860615
21639500 275 17749105629739765060
232386 152 18059840775455412442
23402539 116 17774997960659608397
23402655 69 18187080641761712445
23557571 272 17275102834153400624
23559900 14 17418090980314397018
23598291 2 18264773147187779418
25 1 17458065975793833102
2748010 2 15240882490112121977
3082319 5 18410293631166486204
474 4 17897169228675406956
57812782 119 15841549665110653420
63268167 104 18040433295571093876
74978 22 18338236067188060941
7615 1 18409161078497915344
77492 1 18409730633963169376
8030462 33 18410574010931804635
81228 2 15912505510001171923
90525 40 18342746169591213455
9981440 41 17545319039840840840

>  <PUBCHEM_SHAPE_MULTIPOLES>  (1) 
297.84
6.34
1.69
1.36
0.46
0.18
0.09
-0.31
-1.72
-0.72
0.19
0.47
-0.02
-1.59

>  <PUBCHEM_SHAPE_SELFOVERLAP>  (1) 
642.914

>  <PUBCHEM_SHAPE_VOLUME>  (1) 
164.5

>  <PUBCHEM_COORDINATE_TYPE>  (1) 
2
5
10

$$$$
