19715
     RDKit          3D

 14 14  0  0  0  0  0  0  0  0999 V2000
   -2.6740   -2.0866    0.0851 O   0  0  0  0  0  0  0  0  0  0  0  0
    3.9121   -0.1462   -0.1015 N   0  0  0  0  0  0  0  0  0  0  0  0
   -2.3426    0.2454    0.0618 N   0  0  0  0  0  0  0  0  0  0  0  0
    2.4169   -0.4038   -0.2202 C   0  0  0  0  0  0  0  0  0  0  0  0
    4.2700    0.1022    1.3568 C   0  0  0  0  0  0  0  0  0  0  0  0
    4.6777   -1.3583   -0.6124 C   0  0  0  0  0  0  0  0  0  0  0  0
    4.2840    1.0750   -0.9300 C   0  0  0  0  0  0  0  0  0  0  0  0
    1.6347    0.7707    0.3499 C   0  0  0  0  0  0  0  0  0  0  0  0
   -4.5136    0.8857   -0.4867 C   0  0  0  0  0  0  0  0  0  0  0  0
   -3.1988    1.4103    0.0550 C   0  0  0  0  0  0  0  0  0  0  0  0
   -4.5506   -0.5547    0.0002 C   0  0  0  0  0  0  0  0  0  0  0  0
   -3.0908   -0.9381    0.0385 C   0  0  0  0  0  0  0  0  0  0  0  0
    0.1811    0.5771    0.2446 C   0  0  0  0  0  0  0  0  0  0  0  0
   -1.0063    0.4213    0.1590 C   0  0  0  0  0  0  0  0  0  0  0  0
  1 12  2  0
  2  4  1  0
  2  5  1  0
  2  6  1  0
  2  7  1  0
  3 10  1  0
  3 12  1  0
  3 14  1  0
  4  8  1  0
  8 13  1  0
  9 10  1  0
  9 11  1  0
 11 12  1  0
 13 14  3  0
M  CHG  1   2   1
M  END
>  <PUBCHEM_COMPOUND_CID>  (1) 
19715

>  <PUBCHEM_CONFORMER_RMSD>  (1) 
0.6

>  <PUBCHEM_CONFORMER_DIVERSEORDER>  (1) 
1
3
2

>  <PUBCHEM_MMFF94_PARTIAL_CHARGES>  (1) 
13
1 -0.57
10 0.3
11 0.06
12 0.57
13 -0.2
14 0.04
2 -1.01
3 -0.4
4 0.5
5 0.5
6 0.5
7 0.5
8 0.2

>  <PUBCHEM_EFFECTIVE_ROTOR_COUNT>  (1) 
2.8

>  <PUBCHEM_PHARMACOPHORE_FEATURES>  (1) 
3
1 1 acceptor
1 2 cation
5 3 9 10 11 12 rings

>  <PUBCHEM_HEAVY_ATOM_COUNT>  (1) 
14

>  <PUBCHEM_ATOM_DEF_STEREO_COUNT>  (1) 
0

>  <PUBCHEM_ATOM_UDEF_STEREO_COUNT>  (1) 
0

>  <PUBCHEM_BOND_DEF_STEREO_COUNT>  (1) 
0

>  <PUBCHEM_BOND_UDEF_STEREO_COUNT>  (1) 
0

>  <PUBCHEM_ISOTOPIC_ATOM_COUNT>  (1) 
0

>  <PUBCHEM_COMPONENT_COUNT>  (1) 
1

>  <PUBCHEM_CACTVS_TAUTO_COUNT>  (1) 
2

>  <PUBCHEM_CONFORMER_ID>  (1) 
00004D0300000001

>  <PUBCHEM_MMFF94_ENERGY>  (1) 
29.8056

>  <PUBCHEM_FEATURE_SELFOVERLAP>  (1) 
15.223

>  <PUBCHEM_SHAPE_FINGERPRINT>  (1) 
10014705 185 18040713662968592325
10680689 15 18186527583381685041
10912923 1 17894348882296550424
124424 183 17917709102335332297
13167823 11 18186801378904097042
13675066 3 18060133249943373952
14123238 8 18409166623179387925
14252887 29 16271932597526236212
15242433 33 18408325488331218374
15242439 84 18273213075635857192
15375358 24 18131912650159249415
17834072 33 18334860558106881348
17834074 16 18412545405258080630
17870717 6 18341906168561864127
18186145 218 16226050011352998312
1986462 14 18410856551398203077
200 152 16917062261768023205
20279233 1 17917714599502990223
20281475 54 18341336621607234600
20432913 95 15913333476648221534
20645477 56 18336547127835564957
20645477 70 17131833123611878038
22485316 2 18411417315139242258
22646028 1 18040148522280877224
23402539 116 17240195526199302748
23402655 69 18186805777161630692
23403322 49 18272933821431571231
23557571 272 18271532983420138772
23559900 14 18342457037173078144
26918003 58 18059851753660586698
300161 21 18187641431736882628
3004659 81 18335141956322735238
4214541 1 18410576158558202077
4921388 177 16950574328005180171
522135 26 15791730781125633920
573450 72 18187916270688252561
58051976 100 18186802487037255823
633830 44 17458067070973628858
77779 3 18409169926046161860

>  <PUBCHEM_SHAPE_MULTIPOLES>  (1) 
272.28
11.92
1.46
0.87
2.84
0.43
-0.1
0.99
1.15
-0.59
0.13
0.95
-0.08
0.23

>  <PUBCHEM_SHAPE_SELFOVERLAP>  (1) 
530.811

>  <PUBCHEM_SHAPE_VOLUME>  (1) 
166.1

>  <PUBCHEM_COORDINATE_TYPE>  (1) 
2
5
10

$$$$
