19718
     RDKit          3D

 12 11  0  0  0  0  0  0  0  0999 V2000
    3.3582    1.2060   -1.0655 O   0  0  0  0  0  0  0  0  0  0  0  0
   -3.0612    0.4138   -0.4204 N   0  0  0  0  0  0  0  0  0  0  0  0
    2.2481   -0.5160    0.0323 N   0  0  0  0  0  0  0  0  0  0  0  0
   -2.5752   -0.9435   -0.2075 C   0  0  0  0  0  0  0  0  0  0  0  0
    1.3413   -0.9300    1.1000 C   0  0  0  0  0  0  0  0  0  0  0  0
   -2.9996    1.1850    0.8228 C   0  0  0  0  0  0  0  0  0  0  0  0
   -4.4305    0.3965   -0.9389 C   0  0  0  0  0  0  0  0  0  0  0  0
    2.7640   -1.5948   -0.8008 C   0  0  0  0  0  0  0  0  0  0  0  0
    2.5964    0.8191   -0.1753 C   0  0  0  0  0  0  0  0  0  0  0  0
   -1.1844   -0.9346    0.2555 C   0  0  0  0  0  0  0  0  0  0  0  0
   -0.0447   -0.9322    0.6346 C   0  0  0  0  0  0  0  0  0  0  0  0
    1.9876    1.8307    0.7631 C   0  0  0  0  0  0  0  0  0  0  0  0
  1  9  2  0
  2  4  1  0
  2  6  1  0
  2  7  1  0
  3  5  1  0
  3  8  1  0
  3  9  1  0
  4 10  1  0
  5 11  1  0
  9 12  1  0
 10 11  3  0
M  END
>  <PUBCHEM_COMPOUND_CID>  (1) 
19718

>  <PUBCHEM_CONFORMER_RMSD>  (1) 
0.6

>  <PUBCHEM_CONFORMER_DIVERSEORDER>  (1) 
3
4
8
10
16
6
7
9
11
5
1
13
2
15
14
12

>  <PUBCHEM_MMFF94_PARTIAL_CHARGES>  (1) 
12
1 -0.57
10 -0.2
11 -0.2
12 0.06
2 -0.81
3 -0.66
4 0.47
5 0.5
6 0.27
7 0.27
8 0.3
9 0.57

>  <PUBCHEM_EFFECTIVE_ROTOR_COUNT>  (1) 
3

>  <PUBCHEM_PHARMACOPHORE_FEATURES>  (1) 
2
1 1 acceptor
1 2 cation

>  <PUBCHEM_HEAVY_ATOM_COUNT>  (1) 
12

>  <PUBCHEM_ATOM_DEF_STEREO_COUNT>  (1) 
0

>  <PUBCHEM_ATOM_UDEF_STEREO_COUNT>  (1) 
0

>  <PUBCHEM_BOND_DEF_STEREO_COUNT>  (1) 
0

>  <PUBCHEM_BOND_UDEF_STEREO_COUNT>  (1) 
0

>  <PUBCHEM_ISOTOPIC_ATOM_COUNT>  (1) 
0

>  <PUBCHEM_COMPONENT_COUNT>  (1) 
1

>  <PUBCHEM_CACTVS_TAUTO_COUNT>  (1) 
1

>  <PUBCHEM_CONFORMER_ID>  (1) 
00004D0600000003

>  <PUBCHEM_MMFF94_ENERGY>  (1) 
23.1361

>  <PUBCHEM_FEATURE_SELFOVERLAP>  (1) 
10.148

>  <PUBCHEM_SHAPE_FINGERPRINT>  (1) 
10498660 4 17967811669590877917
11715629 250 18270954773204743169
12162725 195 18272087167323592371
12932764 1 16917347060749000547
13618510 140 18334016120191646461
13764800 53 17531257196300360681
14250199 8 18342174483758889833
14251710 61 10951777403659637389
14350558 41 10375871908922792843
15775835 57 18259702311208397229
177051 138 9943808902172362987
17802600 8 18335408033282520465
18186145 218 18261395516228887291
20606313 2 18412259528103181542
20653085 51 18339932528152633219
20711983 171 17917998230933221369
20711985 344 14835307375462972786
20767249 442 17240195530499447351
22169311 21 10231754449073104963
22485316 2 9150876292456127191
230 275 17967245412391033192
231179 274 17748821925743684084
23402655 69 18413670205700755405
23557571 272 17344609668620653939
3248919 1 18272082786436195947
81228 2 16953397963822589827
93112 12 18343865515325500687
9882013 296 13768224816866825899

>  <PUBCHEM_SHAPE_MULTIPOLES>  (1) 
231.12
7.34
1.75
1.08
5.05
0.33
0
1.79
2.57
-1.14
-0.11
-0.13
0.05
-0.06

>  <PUBCHEM_SHAPE_SELFOVERLAP>  (1) 
431.521

>  <PUBCHEM_SHAPE_VOLUME>  (1) 
146.5

>  <PUBCHEM_COORDINATE_TYPE>  (1) 
2
5
10

$$$$
