19729
     RDKit          3D

 22 24  0  0  0  0  0  0  0  0999 V2000
   -1.0002    2.4747   -0.1149 O   0  0  0  0  0  0  0  0  0  0  0  0
    1.0002   -2.4746    0.1148 O   0  0  0  0  0  0  0  0  0  0  0  0
    1.3251    3.5233   -0.0530 O   0  0  0  0  0  0  0  0  0  0  0  0
   -1.3250   -3.5232    0.0558 O   0  0  0  0  0  0  0  0  0  0  0  0
   -3.4411    1.6195   -0.1793 N   0  0  0  0  0  0  0  0  0  0  0  0
    3.4412   -1.6193    0.1789 N   0  0  0  0  0  0  0  0  0  0  0  0
   -1.4416    0.1619   -0.0601 C   0  0  0  0  0  0  0  0  0  0  0  0
    1.4417   -0.1619    0.0597 C   0  0  0  0  0  0  0  0  0  0  0  0
   -0.9127   -1.1292   -0.0009 C   0  0  0  0  0  0  0  0  0  0  0  0
    0.9128    1.1292    0.0008 C   0  0  0  0  0  0  0  0  0  0  0  0
   -0.5482    1.3383   -0.0615 C   0  0  0  0  0  0  0  0  0  0  0  0
    0.5482   -1.3382    0.0614 C   0  0  0  0  0  0  0  0  0  0  0  0
   -2.8283    0.3465   -0.1185 C   0  0  0  0  0  0  0  0  0  0  0  0
    2.8283   -0.3464    0.1179 C   0  0  0  0  0  0  0  0  0  0  0  0
    1.7705    2.2357    0.0007 C   0  0  0  0  0  0  0  0  0  0  0  0
   -1.7703   -2.2357    0.0000 C   0  0  0  0  0  0  0  0  0  0  0  0
   -3.6794   -0.7590   -0.1172 C   0  0  0  0  0  0  0  0  0  0  0  0
    3.6795    0.7590    0.1174 C   0  0  0  0  0  0  0  0  0  0  0  0
    3.1517    2.0474    0.0590 C   0  0  0  0  0  0  0  0  0  0  0  0
   -3.1515   -2.0473   -0.0582 C   0  0  0  0  0  0  0  0  0  0  0  0
   -4.7356    1.8809    0.3642 C   0  0  0  0  0  0  0  0  0  0  0  0
    4.7347   -1.8815   -0.3670 C   0  0  0  0  0  0  0  0  0  0  0  0
  1 11  2  0
  2 12  2  0
  3 15  1  0
  4 16  1  0
  5 13  1  0
  5 21  1  0
  6 14  1  0
  6 22  1  0
  7  9  2  0
  7 11  1  0
  7 13  1  0
  8 10  2  0
  8 12  1  0
  8 14  1  0
  9 12  1  0
  9 16  1  0
 10 11  1  0
 10 15  1  0
 13 17  2  0
 14 18  2  0
 15 19  2  0
 16 20  2  0
 17 20  1  0
 18 19  1  0
M  END
>  <PUBCHEM_COMPOUND_CID>  (1) 
19729

>  <PUBCHEM_CONFORMER_RMSD>  (1) 
0.6

>  <PUBCHEM_CONFORMER_DIVERSEORDER>  (1) 
1

>  <PUBCHEM_MMFF94_PARTIAL_CHARGES>  (1) 
30
1 -0.57
10 0.09
11 0.4
12 0.4
13 0.1
14 0.1
15 0.08
16 0.08
17 -0.15
18 -0.15
19 -0.15
2 -0.57
20 -0.15
21 0.37
22 0.37
23 0.15
24 0.15
25 0.15
26 0.15
27 0.4
28 0.4
3 -0.53
35 0.45
36 0.45
4 -0.53
5 -0.87
6 -0.87
7 0.09
8 0.09
9 0.09

>  <PUBCHEM_EFFECTIVE_ROTOR_COUNT>  (1) 
2

>  <PUBCHEM_PHARMACOPHORE_FEATURES>  (1) 
11
1 1 acceptor
1 2 acceptor
1 3 donor
1 4 donor
1 5 cation
1 5 donor
1 6 cation
1 6 donor
6 7 8 9 10 11 12 rings
6 7 9 13 16 17 20 rings
6 8 10 14 15 18 19 rings

>  <PUBCHEM_HEAVY_ATOM_COUNT>  (1) 
22

>  <PUBCHEM_ATOM_DEF_STEREO_COUNT>  (1) 
0

>  <PUBCHEM_ATOM_UDEF_STEREO_COUNT>  (1) 
0

>  <PUBCHEM_BOND_DEF_STEREO_COUNT>  (1) 
0

>  <PUBCHEM_BOND_UDEF_STEREO_COUNT>  (1) 
0

>  <PUBCHEM_ISOTOPIC_ATOM_COUNT>  (1) 
0

>  <PUBCHEM_COMPONENT_COUNT>  (1) 
1

>  <PUBCHEM_CACTVS_TAUTO_COUNT>  (1) 
84

>  <PUBCHEM_CONFORMER_ID>  (1) 
00004D1100000001

>  <PUBCHEM_MMFF94_ENERGY>  (1) 
100.4063

>  <PUBCHEM_FEATURE_SELFOVERLAP>  (1) 
55.863

>  <PUBCHEM_SHAPE_FINGERPRINT>  (1) 
10608611 8 18338795748777014377
10616163 171 18194966476653012790
10693767 8 17841129088303140087
10863032 1 18339923826179509084
10967382 1 18338233876949905738
1100329 8 18338798918373078377
11578080 2 17273679043661820467
11680986 33 18411697729443692704
116883 192 18198630934703156150
12011746 2 18266459797824087581
12553582 1 18264478490956346362
13140716 1 18410008844775271721
138480 1 17618221711506408851
14178342 30 18122891290703477296
14223421 5 18050287260512928810
14790565 3 18194694661227257372
14866123 147 17622735215222368986
15042514 8 17760924040384183834
15099037 51 18338798896892973567
15196674 1 18410855464423129093
15420108 30 16618722695984167425
15442244 35 18410854377986346314
15475509 8 17555478144469589284
15536298 74 18341893026083081834
16945 1 18337382755970580486
17492 89 18266739258578129050
17804303 29 18410859832679305806
19591789 44 18265896843581070821
20028762 73 18201431446738670471
20510252 161 17765720508924526241
20691752 17 17603580837481248170
20739085 24 17905070070077068305
20905425 154 18053390078100208398
21267235 1 18410300219683812987
21501502 16 18337952397504180509
221490 88 18336552728166717082
2334 1 18193837269536735239
23366157 5 18041557078713226308
23402539 116 18271235011368276158
23463225 33 18337389460498964588
23558518 356 17972315384928949744
23559900 14 18342736313274271744
238 59 17539643029989111773
2748010 2 18265611163820730542
335352 9 18338797793081065014
34934 24 18410288121345963512
350125 39 18410298038583673025
5104073 3 18410572894245589658
7364860 26 18268429212729368784
7832392 63 18410853278532727802
8809292 202 18335704918517480226
9709674 26 18338517572330191670
9981440 41 17616526702552370864

>  <PUBCHEM_SHAPE_MULTIPOLES>  (1) 
419.31
7.58
3.71
0.61
0
0
0
0
0
0
0
0
0
0

>  <PUBCHEM_SHAPE_SELFOVERLAP>  (1) 
939.464

>  <PUBCHEM_SHAPE_VOLUME>  (1) 
219.5

>  <PUBCHEM_COORDINATE_TYPE>  (1) 
2
5
10

$$$$
