19739
     RDKit          3D

 17 17  0  0  0  0  0  0  0  0999 V2000
   -0.8899    1.9455   -0.3373 O   0  0  0  0  0  0  0  0  0  0  0  0
    1.7645    0.5751   -1.8423 O   0  0  0  0  0  0  0  0  0  0  0  0
    4.6710   -0.3791    1.4042 O   0  0  0  0  0  0  0  0  0  0  0  0
    2.2283    0.7651    0.4217 N   0  0  0  0  0  0  0  0  0  0  0  0
   -3.4424    0.8614    0.2718 C   0  0  0  0  0  0  0  0  0  0  0  0
   -2.2233    0.0153    0.1049 C   0  0  0  0  0  0  0  0  0  0  0  0
   -0.9891    0.5916   -0.1958 C   0  0  0  0  0  0  0  0  0  0  0  0
    0.1385   -0.2152   -0.3490 C   0  0  0  0  0  0  0  0  0  0  0  0
    0.0317   -1.5982   -0.2015 C   0  0  0  0  0  0  0  0  0  0  0  0
   -2.3301   -1.3676    0.2525 C   0  0  0  0  0  0  0  0  0  0  0  0
   -4.0346    0.7646    1.6897 C   0  0  0  0  0  0  0  0  0  0  0  0
   -4.5276    0.5401   -0.7723 C   0  0  0  0  0  0  0  0  0  0  0  0
   -1.2026   -2.1743    0.0993 C   0  0  0  0  0  0  0  0  0  0  0  0
    1.4280    0.3916   -0.6615 C   0  0  0  0  0  0  0  0  0  0  0  0
    1.2213   -2.4885   -0.3592 C   0  0  0  0  0  0  0  0  0  0  0  0
    3.5193    1.3982    0.2758 C   0  0  0  0  0  0  0  0  0  0  0  0
    4.6370    0.3743    0.1990 C   0  0  0  0  0  0  0  0  0  0  0  0
  1  7  1  0
  2 14  2  0
  3 17  1  0
  4 14  1  0
  4 16  1  0
  5  6  1  0
  5 11  1  0
  5 12  1  0
  6  7  2  0
  6 10  1  0
  7  8  1  0
  8  9  2  0
  8 14  1  0
  9 13  1  0
  9 15  1  0
 10 13  2  0
 16 17  1  0
M  END
>  <PUBCHEM_COMPOUND_CID>  (1) 
19739

>  <PUBCHEM_CONFORMER_RMSD>  (1) 
0.6

>  <PUBCHEM_CONFORMER_DIVERSEORDER>  (1) 
1
22
6
21
3
20
9
16
19
10
11
23
5
13
12
15
14
8
17
4
2
18
7
24

>  <PUBCHEM_MMFF94_PARTIAL_CHARGES>  (1) 
20
1 -0.53
10 -0.15
13 -0.15
14 0.54
15 0.14
16 0.3
17 0.28
19 0.15
2 -0.57
26 0.15
3 -0.68
30 0.37
33 0.45
36 0.4
4 -0.73
5 0.14
6 -0.14
7 0.08
8 0.09
9 -0.14

>  <PUBCHEM_EFFECTIVE_ROTOR_COUNT>  (1) 
5

>  <PUBCHEM_PHARMACOPHORE_FEATURES>  (1) 
7
1 1 donor
1 2 acceptor
1 3 acceptor
1 3 donor
1 4 donor
3 5 11 12 hydrophobe
6 6 7 8 9 10 13 rings

>  <PUBCHEM_HEAVY_ATOM_COUNT>  (1) 
17

>  <PUBCHEM_ATOM_DEF_STEREO_COUNT>  (1) 
0

>  <PUBCHEM_ATOM_UDEF_STEREO_COUNT>  (1) 
0

>  <PUBCHEM_BOND_DEF_STEREO_COUNT>  (1) 
0

>  <PUBCHEM_BOND_UDEF_STEREO_COUNT>  (1) 
0

>  <PUBCHEM_ISOTOPIC_ATOM_COUNT>  (1) 
0

>  <PUBCHEM_COMPONENT_COUNT>  (1) 
1

>  <PUBCHEM_CACTVS_TAUTO_COUNT>  (1) 
22

>  <PUBCHEM_CONFORMER_ID>  (1) 
00004D1B00000001

>  <PUBCHEM_MMFF94_ENERGY>  (1) 
44.4241

>  <PUBCHEM_FEATURE_SELFOVERLAP>  (1) 
35.524

>  <PUBCHEM_SHAPE_FINGERPRINT>  (1) 
11132069 177 18408889546417857125
11543360 7 15698000730213896709
11680986 33 18336275543519898343
12119455 92 18411130333850921381
12251169 10 18261107474405306640
12382932 28 18408890654619607307
124424 183 18060419153231898512
12633257 1 18340758308914485456
13140716 1 18266188416479887113
13380535 76 18411135835757171335
13583140 156 16877660197282033901
13675066 3 17531246183724976208
14022349 108 18263079916461205202
14178342 30 18339377335094693291
14420673 8 18264485084507281730
14897335 6 18412544306047211287
15209294 21 18059864917698802689
15536298 74 18272092638959356150
16945 1 18336561472873008693
17349148 13 18335692888620052399
17804303 29 18409730686204403238
17846911 113 18341894095192607761
1813 80 16805604716837410390
18186145 218 18129959892081413381
204376 136 18410860987935798509
20600515 1 18271256005121407140
212916 134 17988347235525667490
21452121 103 18267306422220742585
21524375 3 18273212010431148911
22182313 1 17970628480847061853
2334 1 17905901623142870029
23402539 116 18200864158287628501
23557571 272 17702961359946972335
23559900 14 18271263685297659244
2748010 2 18265074503916594247
351380 180 17846492647377231448
4072396 5 18261664892177132533
5104073 3 18337668741317204056
53812653 166 18343589555213047825
5706482 22 18341327876827239371
58807428 26 18407762521150975210
633830 44 18060140963968667908
7364860 26 18199755734666335054
83771 10 11386362651408010125
90316 7 18186793716540386492

>  <PUBCHEM_SHAPE_MULTIPOLES>  (1) 
327.26
8.19
2.05
1.13
3.28
1.25
-0.06
-3.33
-2.46
0.02
0.03
-0.05
-0.23
-0.14

>  <PUBCHEM_SHAPE_SELFOVERLAP>  (1) 
669.996

>  <PUBCHEM_SHAPE_VOLUME>  (1) 
190.6

>  <PUBCHEM_COORDINATE_TYPE>  (1) 
2
5
10

$$$$
