19732
     RDKit          3D

 42 46  0  0  0  0  0  0  0  0999 V2000
    5.7067   -2.0675    0.2799 S   0  0  0  0  0  0  0  0  0  0  0  0
   -4.8366   -3.9649   -0.2918 S   0  0  0  0  0  0  0  0  0  0  0  0
   -6.4357    3.7523    0.0807 S   0  0  0  0  0  0  0  0  0  0  0  0
   -1.7177    2.0140    0.6660 O   0  0  0  0  0  0  0  0  0  0  0  0
    5.8578   -1.6255    1.8427 O   0  0  0  0  0  0  0  0  0  0  0  0
    6.1978   -0.9870   -0.5536 O   0  0  0  0  0  0  0  0  0  0  0  0
    6.2348   -3.4134    0.1572 O   0  0  0  0  0  0  0  0  0  0  0  0
   -5.2088   -4.4945    1.2096 O   0  0  0  0  0  0  0  0  0  0  0  0
   -6.4815    4.1992   -1.4914 O   0  0  0  0  0  0  0  0  0  0  0  0
   -6.0779   -3.9364   -1.0516 O   0  0  0  0  0  0  0  0  0  0  0  0
   -3.6924   -4.7261   -0.7685 O   0  0  0  0  0  0  0  0  0  0  0  0
   -5.8718    4.8529    0.8467 O   0  0  0  0  0  0  0  0  0  0  0  0
   -7.7488    3.2161    0.4080 O   0  0  0  0  0  0  0  0  0  0  0  0
    4.8760    0.6146    0.3653 N   0  0  0  0  0  0  0  0  0  0  0  0
   -0.5554   -0.4038   -0.5456 N   0  0  0  0  0  0  0  0  0  0  0  0
   -1.1474   -0.5515    0.5474 N   0  0  0  0  0  0  0  0  0  0  0  0
    3.0815   -1.0687   -0.0430 C   0  0  0  0  0  0  0  0  0  0  0  0
    1.7057   -1.3084   -0.2724 C   0  0  0  0  0  0  0  0  0  0  0  0
   -3.4336    0.3321    0.2674 C   0  0  0  0  0  0  0  0  0  0  0  0
   -4.8028    0.0593    0.0354 C   0  0  0  0  0  0  0  0  0  0  0  0
    3.5289    0.2512    0.1306 C   0  0  0  0  0  0  0  0  0  0  0  0
    3.9692   -2.1557    0.0060 C   0  0  0  0  0  0  0  0  0  0  0  0
    0.8179   -0.2214   -0.3215 C   0  0  0  0  0  0  0  0  0  0  0  0
   -2.5226   -0.7340    0.3225 C   0  0  0  0  0  0  0  0  0  0  0  0
   -4.2981   -2.3178   -0.0766 C   0  0  0  0  0  0  0  0  0  0  0  0
   -5.2188   -1.2712   -0.1346 C   0  0  0  0  0  0  0  0  0  0  0  0
   -5.7157    1.1252   -0.0199 C   0  0  0  0  0  0  0  0  0  0  0  0
   -3.0177    1.6627    0.4374 C   0  0  0  0  0  0  0  0  0  0  0  0
    1.2582   -2.6283   -0.4459 C   0  0  0  0  0  0  0  0  0  0  0  0
   -5.2848    2.4410    0.1512 C   0  0  0  0  0  0  0  0  0  0  0  0
    2.6327    1.3193    0.0788 C   0  0  0  0  0  0  0  0  0  0  0  0
   -2.9517   -2.0496    0.1517 C   0  0  0  0  0  0  0  0  0  0  0  0
    1.2799    1.0835   -0.1468 C   0  0  0  0  0  0  0  0  0  0  0  0
    3.5072   -3.4605   -0.1686 C   0  0  0  0  0  0  0  0  0  0  0  0
   -3.9384    2.7093    0.3794 C   0  0  0  0  0  0  0  0  0  0  0  0
    2.1543   -3.6963   -0.3942 C   0  0  0  0  0  0  0  0  0  0  0  0
    5.6190    1.7638    0.0454 C   0  0  0  0  0  0  0  0  0  0  0  0
    6.6751    2.1690    0.8661 C   0  0  0  0  0  0  0  0  0  0  0  0
    5.3053    2.5079   -1.0952 C   0  0  0  0  0  0  0  0  0  0  0  0
    7.4119    3.3101    0.5487 C   0  0  0  0  0  0  0  0  0  0  0  0
    6.0424    3.6489   -1.4125 C   0  0  0  0  0  0  0  0  0  0  0  0
    7.0956    4.0499   -0.5905 C   0  0  0  0  0  0  0  0  0  0  0  0
  1  5  1  0
  1  6  2  0
  1  7  2  0
  1 22  1  0
  2  8  1  0
  2 10  2  0
  2 11  2  0
  2 25  1  0
  3  9  1  0
  3 12  2  0
  3 13  2  0
  3 30  1  0
  4 28  1  0
 14 21  1  0
 14 37  1  0
 15 16  2  0
 15 23  1  0
 16 24  1  0
 17 18  1  0
 17 21  1  0
 17 22  2  0
 18 23  1  0
 18 29  2  0
 19 20  2  0
 19 24  1  0
 19 28  1  0
 20 26  1  0
 20 27  1  0
 21 31  2  0
 22 34  1  0
 23 33  2  0
 24 32  2  0
 25 26  2  0
 25 32  1  0
 27 30  2  0
 28 35  2  0
 29 36  1  0
 30 35  1  0
 31 33  1  0
 34 36  2  0
 37 38  2  0
 37 39  1  0
 38 40  1  0
 39 41  2  0
 40 42  2  0
 41 42  1  0
M  END
>  <PUBCHEM_COMPOUND_CID>  (1) 
19732

>  <PUBCHEM_CONFORMER_RMSD>  (1) 
1

>  <PUBCHEM_CONFORMER_DIVERSEORDER>  (1) 
1
4
5
6
2
7
3
10
8
9

>  <PUBCHEM_MMFF94_PARTIAL_CHARGES>  (1) 
57
1 1.49
10 -0.65
11 -0.65
12 -0.65
13 -0.65
14 -0.6
15 -0.18
16 -0.18
2 1.49
21 0.1
22 -0.01
23 0.18
24 0.18
25 -0.01
26 -0.15
27 -0.15
28 0.08
29 -0.15
3 1.49
30 -0.01
31 -0.15
32 -0.15
33 -0.15
34 -0.15
35 -0.15
36 -0.15
37 0.1
38 -0.15
39 -0.15
4 -0.53
40 -0.15
41 -0.15
42 -0.15
43 0.15
44 0.15
45 0.15
46 0.15
47 0.15
48 0.15
49 0.15
5 -0.68
50 0.15
51 0.15
52 0.4
53 0.45
54 0.15
55 0.15
56 0.5
57 0.5
58 0.15
59 0.15
6 -0.65
60 0.5
61 0.15
7 -0.65
8 -0.68
9 -0.68

>  <PUBCHEM_EFFECTIVE_ROTOR_COUNT>  (1) 
7

>  <PUBCHEM_PHARMACOPHORE_FEATURES>  (1) 
20
1 10 acceptor
1 11 acceptor
1 12 acceptor
1 13 acceptor
1 14 cation
1 14 donor
1 4 donor
1 5 acceptor
1 6 acceptor
1 7 acceptor
1 8 acceptor
1 9 acceptor
4 1 5 6 7 anion
4 2 8 10 11 anion
4 3 9 12 13 anion
6 17 18 21 23 31 33 rings
6 17 18 22 29 34 36 rings
6 19 20 24 25 26 32 rings
6 19 20 27 28 30 35 rings
6 37 38 39 40 41 42 rings

>  <PUBCHEM_HEAVY_ATOM_COUNT>  (1) 
42

>  <PUBCHEM_ATOM_DEF_STEREO_COUNT>  (1) 
0

>  <PUBCHEM_ATOM_UDEF_STEREO_COUNT>  (1) 
0

>  <PUBCHEM_BOND_DEF_STEREO_COUNT>  (1) 
0

>  <PUBCHEM_BOND_UDEF_STEREO_COUNT>  (1) 
0

>  <PUBCHEM_ISOTOPIC_ATOM_COUNT>  (1) 
0

>  <PUBCHEM_COMPONENT_COUNT>  (1) 
1

>  <PUBCHEM_CACTVS_TAUTO_COUNT>  (1) 
18

>  <PUBCHEM_CONFORMER_ID>  (1) 
00004D1400000001

>  <PUBCHEM_MMFF94_ENERGY>  (1) 
145.317

>  <PUBCHEM_FEATURE_SELFOVERLAP>  (1) 
101.728

>  <PUBCHEM_SHAPE_FINGERPRINT>  (1) 
10050765 1 18411138039254638254
10595046 47 18337953501574740502
10835480 77 18410288086517473701
11136131 41 18334849546634226170
11297010 23 17186991001152551661
12107183 9 18192427468033869299
14068700 686 18341051920809781030
14118638 360 18336262469871213758
14190465 44 18270950268027000505
14790565 3 18266463299103661524
15064981 194 18269291100849242721
15064986 266 18411423917158493735
15320295 44 18411419535780207366
15347591 1 18410857668084626594
15361156 5 17968392164469826918
15400415 2 18412825755264440203
19053607 189 18338791312793762240
19301679 30 18264218066417129515
19304144 158 18200874084399972508
21133410 171 17474609253875500919
21859007 373 17535183354992692877
22311459 1 18122345666811716390
23559900 14 18271237210359798859
24771293 8 18114743854182290876
3411729 13 18408040737148951248
3918712 181 18272365412992592176
4073 2 18408325497079532203
4144715 1 18408612465229782603
4625314 4 18411702050397362694
550186 72 18339644567712222685
6036956 94 18411415138097966535
6698420 124 18198349460075242081
68570916 9 18408881854384618074
6898599 12 18412263939514792221
9831232 110 18201166443230883958
99344 41 18410292532499591552

>  <PUBCHEM_SHAPE_MULTIPOLES>  (1) 
802.25
22.79
7.26
0.95
4.38
0.02
0.01
-17.15
-0.21
-6.27
0.79
0.42
-0.21
-1.64

>  <PUBCHEM_SHAPE_SELFOVERLAP>  (1) 
1757.672

>  <PUBCHEM_SHAPE_VOLUME>  (1) 
433.5

>  <PUBCHEM_COORDINATE_TYPE>  (1) 
2
5
10

$$$$
