1973
     RDKit          3D

 30 34  0  0  0  0  0  0  0  0999 V2000
    5.3423    3.6833    2.1905 Br  0  0  0  0  0  0  0  0  0  0  0  0
   -8.1877    0.7599   -0.1548 O   0  0  0  0  0  0  0  0  0  0  0  0
   -5.4118    0.3716    0.0523 N   0  0  0  0  0  0  0  0  0  0  0  0
   -3.6109   -1.0822   -0.4425 N   0  0  0  0  0  0  0  0  0  0  0  0
    0.3803   -1.9613    0.1352 N   0  0  0  0  0  0  0  0  0  0  0  0
    1.9949   -3.6169    0.2554 N   0  0  0  0  0  0  0  0  0  0  0  0
    4.3423   -3.0983    0.1093 N   0  0  0  0  0  0  0  0  0  0  0  0
    5.0803   -0.9174   -0.1577 N   0  0  0  0  0  0  0  0  0  0  0  0
   -6.3340   -0.7617    0.2077 C   0  0  0  0  0  0  0  0  0  0  0  0
   -5.9463    1.5132   -0.6981 C   0  0  0  0  0  0  0  0  0  0  0  0
   -7.6850   -0.2616    0.7062 C   0  0  0  0  0  0  0  0  0  0  0  0
   -7.3184    1.8919   -0.1516 C   0  0  0  0  0  0  0  0  0  0  0  0
   -4.0384    0.1077    0.0362 C   0  0  0  0  0  0  0  0  0  0  0  0
   -3.1970    1.0968    0.5194 C   0  0  0  0  0  0  0  0  0  0  0  0
   -1.3505   -0.3633    0.0257 C   0  0  0  0  0  0  0  0  0  0  0  0
    0.0643   -0.6503    0.0036 C   0  0  0  0  0  0  0  0  0  0  0  0
    2.3267   -0.0083   -0.1527 C   0  0  0  0  0  0  0  0  0  0  0  0
   -1.8288    0.8490    0.5106 C   0  0  0  0  0  0  0  0  0  0  0  0
    2.6740   -1.3604   -0.0177 C   0  0  0  0  0  0  0  0  0  0  0  0
    0.9925    0.3588   -0.1424 C   0  0  0  0  0  0  0  0  0  0  0  0
   -2.2746   -1.2871   -0.4353 C   0  0  0  0  0  0  0  0  0  0  0  0
    3.2687    1.0872   -0.3083 C   0  0  0  0  0  0  0  0  0  0  0  0
    1.6701   -2.3255    0.1262 C   0  0  0  0  0  0  0  0  0  0  0  0
    3.9930   -1.8074   -0.0190 C   0  0  0  0  0  0  0  0  0  0  0  0
    3.7626    1.7401    0.8173 C   0  0  0  0  0  0  0  0  0  0  0  0
    3.6708    1.4763   -1.5825 C   0  0  0  0  0  0  0  0  0  0  0  0
    4.6667    2.7914    0.6670 C   0  0  0  0  0  0  0  0  0  0  0  0
    4.5750    2.5277   -1.7327 C   0  0  0  0  0  0  0  0  0  0  0  0
    3.3058   -3.9383    0.2407 C   0  0  0  0  0  0  0  0  0  0  0  0
    5.0730    3.1853   -0.6079 C   0  0  0  0  0  0  0  0  0  0  0  0
  1 27  1  0
  2 11  1  0
  2 12  1  0
  3  9  1  0
  3 10  1  0
  3 13  1  0
  4 13  2  0
  4 21  1  0
  5 16  2  0
  5 23  1  0
  6 23  2  0
  6 29  1  0
  7 24  1  0
  7 29  2  0
  8 24  1  0
  9 11  1  0
 10 12  1  0
 13 14  1  0
 14 18  2  0
 15 16  1  0
 15 18  1  0
 15 21  2  0
 16 20  1  0
 17 19  1  0
 17 20  2  0
 17 22  1  0
 19 23  1  0
 19 24  2  0
 22 25  2  0
 22 26  1  0
 25 27  1  0
 26 28  2  0
 27 30  2  0
 28 30  1  0
M  END
>  <PUBCHEM_COMPOUND_CID>  (1) 
1973

>  <PUBCHEM_CONFORMER_RMSD>  (1) 
0.8

>  <PUBCHEM_CONFORMER_DIVERSEORDER>  (1) 
3
6
5
10
12
9
4
11
8
7
1
2

>  <PUBCHEM_MMFF94_PARTIAL_CHARGES>  (1) 
37
1 -0.11
10 0.37
11 0.28
12 0.28
13 0.41
14 -0.15
16 0.31
18 -0.15
2 -0.56
20 -0.15
21 0.16
23 0.62
24 0.41
25 -0.15
26 -0.15
27 0.11
28 -0.15
29 0.47
3 -0.84
30 -0.15
39 0.15
4 -0.62
40 0.15
41 0.15
42 0.15
43 0.15
44 0.15
45 0.15
46 0.15
47 0.15
48 0.4
49 0.4
5 -0.62
6 -0.62
7 -0.62
8 -0.9
9 0.37

>  <PUBCHEM_EFFECTIVE_ROTOR_COUNT>  (1) 
4.2

>  <PUBCHEM_PHARMACOPHORE_FEATURES>  (1) 
13
1 1 hydrophobe
1 2 acceptor
1 5 acceptor
1 8 cation
1 8 donor
3 3 4 13 cation
3 5 6 23 cation
3 6 7 29 cation
6 2 3 9 10 11 12 rings
6 22 25 26 27 28 30 rings
6 4 13 14 15 18 21 rings
6 5 16 17 19 20 23 rings
6 6 7 19 23 24 29 rings

>  <PUBCHEM_HEAVY_ATOM_COUNT>  (1) 
30

>  <PUBCHEM_ATOM_DEF_STEREO_COUNT>  (1) 
0

>  <PUBCHEM_ATOM_UDEF_STEREO_COUNT>  (1) 
0

>  <PUBCHEM_BOND_DEF_STEREO_COUNT>  (1) 
0

>  <PUBCHEM_BOND_UDEF_STEREO_COUNT>  (1) 
0

>  <PUBCHEM_ISOTOPIC_ATOM_COUNT>  (1) 
0

>  <PUBCHEM_COMPONENT_COUNT>  (1) 
1

>  <PUBCHEM_CACTVS_TAUTO_COUNT>  (1) 
4

>  <PUBCHEM_CONFORMER_ID>  (1) 
000007B500000003

>  <PUBCHEM_MMFF94_ENERGY>  (1) 
129.025

>  <PUBCHEM_FEATURE_SELFOVERLAP>  (1) 
66.144

>  <PUBCHEM_SHAPE_FINGERPRINT>  (1) 
10050765 1 18337111262820658539
10162869 55 18340192047436037255
10165383 225 18261962942298094724
10411042 1 17976820879466092410
10554248 39 18200304421723839839
10595046 47 18411982460485609597
10673678 19 18343303681926315731
10835480 77 18335136489024721645
11135609 127 18342727512491046065
11607047 191 17986655165194734824
1200032 147 17314241132425199372
12166972 35 18128816335400714282
12616971 3 18129933504034579175
12730499 353 18337400416913232954
12788726 201 17489597727553759177
13140716 1 18335979870241007546
13383668 362 18340192068900779346
13533116 47 18411421683105242463
13540713 4 18116454676631101826
13540713 5 18128233740077607215
13726171 33 17202204216915288335
13878862 14 18263344945986813397
13955234 65 18410008806506233754
14170010 4 18410291377036935266
14294032 229 18049453835136882458
14461889 52 18041848427766860779
14675020 138 18271231820766835944
14739800 52 18131344237366527000
14790565 3 17903083566034856316
15152005 290 18120097440722577964
15183329 4 17704078387205794161
15400415 2 18408605860203350123
15439362 3 18336831996252658004
15475509 35 16443612499092465578
17844677 252 18263651675993391277
19053607 189 18262236750093906908
19304671 126 17488473030159254848
19319366 153 18343015614354283670
19427546 62 18335142011582842818
1979834 28 18186519934050504932
20157964 124 18408605855100910509
20554085 129 18201430450453808080
20771845 65 18129097815337186266
21033648 29 17385996240247363421
21049683 271 18189059703664850102
21130935 74 18409454670579960915
21133410 127 17967531307122507060
21267235 1 18268717116929931807
21344244 78 18127395775331384178
21792934 111 18336538336048137625
22149856 69 18263100906809880225
23081809 10 18131347489320862069
23522609 53 17916325904403379369
23559900 14 18340199687613352378
23845131 108 18336265768522453786
249057 25 17916589731052846473
249999 5 18409727357430948634
255183 451 17983302521686021286
3004659 81 18337390435694203603
335352 9 18409175403242619318
3411729 13 18333728044192840186
34797466 226 17274832380252870093
350125 39 18337110059954528334
397830 11 17677067831976218705
4073 2 18114468950552736443
4144715 1 18041290898515970513
44317340 157 18410853240226246997
44555599 121 18199476459435807145
46194498 28 18115026303372149102
5104073 3 18334860511247220627
5109719 28 18197223765831087481
513532 50 18339376205380943788
5372103 7 14331986292265432160
5385378 56 18409163338135990120
57527293 21 16588862529123018934
5912855 24 18200025282988798727
6695519 79 18125745596871896267
6697151 62 17757804772729685351
67856867 119 18412258419859493210
9849439 229 18194400220202995176
9962374 69 18341321206928229863
9981440 41 18192989546673484226

>  <PUBCHEM_SHAPE_MULTIPOLES>  (1) 
587.57
19.12
4.33
1.14
40.37
1.79
0.05
-12.9
1
-9.57
0.98
-1.84
-1.2
0.78

>  <PUBCHEM_SHAPE_SELFOVERLAP>  (1) 
1299.948

>  <PUBCHEM_SHAPE_VOLUME>  (1) 
321.6

>  <PUBCHEM_COORDINATE_TYPE>  (1) 
2
5
10

$$$$
