19735
     RDKit          3D

 26 28  0  0  0  0  0  0  0  0999 V2000
    0.0867   -0.1562    1.2310 P   0  0  0  0  0  0  0  0  0  0  0  0
   -0.0199   -0.2536    2.7529 O   0  0  0  0  0  0  0  0  0  0  0  0
    1.7020   -0.5924    0.6657 C   0  0  0  0  0  0  0  0  0  0  0  0
   -0.2916    1.5252    0.7042 C   0  0  0  0  0  0  0  0  0  0  0  0
   -1.1238   -1.2517    0.4681 C   0  0  0  0  0  0  0  0  0  0  0  0
    2.2053   -0.0334   -0.5090 C   0  0  0  0  0  0  0  0  0  0  0  0
   -0.9073    1.7150   -0.5129 C   0  0  0  0  0  0  0  0  0  0  0  0
   -2.4560   -1.0811    0.7729 C   0  0  0  0  0  0  0  0  0  0  0  0
    2.4758   -1.4944    1.3962 C   0  0  0  0  0  0  0  0  0  0  0  0
    0.0443    2.5697    1.5368 C   0  0  0  0  0  0  0  0  0  0  0  0
   -0.6798   -2.2252   -0.3991 C   0  0  0  0  0  0  0  0  0  0  0  0
    3.4825   -0.3764   -0.9530 C   0  0  0  0  0  0  0  0  0  0  0  0
   -1.2024    3.0166   -0.9185 C   0  0  0  0  0  0  0  0  0  0  0  0
   -3.3924   -1.9277    0.1795 C   0  0  0  0  0  0  0  0  0  0  0  0
    4.2562   -1.2783   -0.2223 C   0  0  0  0  0  0  0  0  0  0  0  0
   -0.8742    4.0946   -0.0964 C   0  0  0  0  0  0  0  0  0  0  0  0
   -2.9725   -2.9228   -0.7031 C   0  0  0  0  0  0  0  0  0  0  0  0
    3.7529   -1.8372    0.9522 C   0  0  0  0  0  0  0  0  0  0  0  0
   -0.2510    3.8711    1.1313 C   0  0  0  0  0  0  0  0  0  0  0  0
   -1.6163   -3.0716   -0.9925 C   0  0  0  0  0  0  0  0  0  0  0  0
    3.9997    0.2340   -2.2144 C   0  0  0  0  0  0  0  0  0  0  0  0
   -1.8688    3.2313   -2.2378 C   0  0  0  0  0  0  0  0  0  0  0  0
   -4.8392   -1.7502    0.5057 C   0  0  0  0  0  0  0  0  0  0  0  0
    5.6260   -1.6609   -0.6779 C   0  0  0  0  0  0  0  0  0  0  0  0
   -1.1799    5.4969   -0.5092 C   0  0  0  0  0  0  0  0  0  0  0  0
   -3.9565   -3.8413   -1.3502 C   0  0  0  0  0  0  0  0  0  0  0  0
  1  2  2  0
  1  3  1  0
  1  4  1  0
  1  5  1  0
  3  6  2  0
  3  9  1  0
  4  7  2  0
  4 10  1  0
  5  8  2  0
  5 11  1  0
  6 12  1  0
  7 13  1  0
  8 14  1  0
  9 18  2  0
 10 19  2  0
 11 20  2  0
 12 15  2  0
 12 21  1  0
 13 16  2  0
 13 22  1  0
 14 17  2  0
 14 23  1  0
 15 18  1  0
 15 24  1  0
 16 19  1  0
 16 25  1  0
 17 20  1  0
 17 26  1  0
M  END
>  <PUBCHEM_COMPOUND_CID>  (1) 
19735

>  <PUBCHEM_CONFORMER_RMSD>  (1) 
0.6

>  <PUBCHEM_CONFORMER_DIVERSEORDER>  (1) 
2
31
30
15
12
3
23
7
8
18
27
25
1
10
4
13
21
14
5
6
19
29
16
24
17
28
26
20
11
22
9

>  <PUBCHEM_MMFF94_PARTIAL_CHARGES>  (1) 
35
1 1.12
10 -0.15
11 -0.15
12 -0.14
13 -0.14
14 -0.14
15 -0.14
16 -0.14
17 -0.14
18 -0.15
19 -0.15
2 -0.7
20 -0.15
21 0.14
22 0.14
23 0.14
24 0.14
25 0.14
26 0.14
27 0.15
28 0.15
29 0.15
3 -0.14
30 0.15
31 0.15
32 0.15
33 0.15
34 0.15
35 0.15
4 -0.14
5 -0.14
6 -0.15
7 -0.15
8 -0.15
9 -0.15

>  <PUBCHEM_EFFECTIVE_ROTOR_COUNT>  (1) 
3

>  <PUBCHEM_PHARMACOPHORE_FEATURES>  (1) 
4
1 2 acceptor
6 3 6 9 12 15 18 rings
6 4 7 10 13 16 19 rings
6 5 8 11 14 17 20 rings

>  <PUBCHEM_HEAVY_ATOM_COUNT>  (1) 
26

>  <PUBCHEM_ATOM_DEF_STEREO_COUNT>  (1) 
0

>  <PUBCHEM_ATOM_UDEF_STEREO_COUNT>  (1) 
0

>  <PUBCHEM_BOND_DEF_STEREO_COUNT>  (1) 
0

>  <PUBCHEM_BOND_UDEF_STEREO_COUNT>  (1) 
0

>  <PUBCHEM_ISOTOPIC_ATOM_COUNT>  (1) 
0

>  <PUBCHEM_COMPONENT_COUNT>  (1) 
1

>  <PUBCHEM_CACTVS_TAUTO_COUNT>  (1) 
1

>  <PUBCHEM_CONFORMER_ID>  (1) 
00004D1700000002

>  <PUBCHEM_MMFF94_ENERGY>  (1) 
66.8528

>  <PUBCHEM_FEATURE_SELFOVERLAP>  (1) 
20.297

>  <PUBCHEM_SHAPE_FINGERPRINT>  (1) 
10305334 12 11865538314311930886
10721379 63 17765729300843666351
10764073 3 14831951584296593227
11045515 52 18337113465921726562
11069576 57 17051024790969499919
11578080 2 18201143421620173216
121448 382 17696447616888409112
12160290 23 18122933961171557314
12553582 1 18410850005567987387
12788726 201 18261952947012527946
13004483 165 18412267259118362294
133893 2 17764323025419162395
13583140 156 17630303283281311626
13681431 1 18051416467623665482
14251757 5 18337386029120912077
14713325 29 18193000322213614283
14910302 57 17701004088101303118
14955137 171 18193862507387695771
15439362 3 17545880889971020805
15664445 248 18051977210386019476
15775530 1 17985515988773405040
15878777 1 14936984760385537050
17138139 8 17691077658360266197
1813 80 18269552904480267635
20600515 1 17987538024678895655
21285901 2 17987819418067409799
21304303 282 17762303974040947828
2132832 1 18113327614559279146
22907989 373 18337393725517664428
23366157 5 17834389399546302131
23419403 2 17559934645411648200
23559900 14 17840861095276581143
23598288 3 18118118074462077962
26353 1 18265341774924312580
266924 78 17328333718185289627
340366 18 18200595942497874863
3493558 16 17749951034239277303
352729 6 17762889966541436931
4017518 198 16975618132612853112
4409770 3 18267574707099796415
474 4 17109014159968536243
497634 4 17559979691935814602
5080951 261 17631151006239904910
5081480 168 18195520622524845295
57527306 92 16532655460129994637
59755656 520 17555467128200150552
6287921 2 17326053352818535031
70251023 43 18337686281932284090
7164475 11 18408608033303697934

>  <PUBCHEM_SHAPE_MULTIPOLES>  (1) 
533.05
7.71
6.45
1.86
6.64
8.67
0.02
-9.72
-2.63
-6.96
-1.85
0.4
0.49
-0.36

>  <PUBCHEM_SHAPE_SELFOVERLAP>  (1) 
1130.56

>  <PUBCHEM_SHAPE_VOLUME>  (1) 
301.9

>  <PUBCHEM_COORDINATE_TYPE>  (1) 
2
5
10

$$$$
