19737
     RDKit          3D

 35 36  0  0  0  0  0  0  0  0999 V2000
   -0.6843    0.3650    1.7014 O   0  0  0  0  0  0  0  0  0  0  0  0
   -1.7156   -2.9894    1.8359 O   0  0  0  0  0  0  0  0  0  0  0  0
   -5.9874   -2.4633   -0.1999 O   0  0  0  0  0  0  0  0  0  0  0  0
    1.9092    1.3638    0.7140 O   0  0  0  0  0  0  0  0  0  0  0  0
    6.3107   -1.4446   -2.0719 O   0  0  0  0  0  0  0  0  0  0  0  0
    6.9153    1.6223    1.5353 O   0  0  0  0  0  0  0  0  0  0  0  0
   -3.8529    3.3302    0.2237 N   0  0  0  0  0  0  0  0  0  0  0  0
   -0.8538    1.2243   -0.4429 N   0  0  0  0  0  0  0  0  0  0  0  0
    1.6709   -0.7670   -0.1867 N   0  0  0  0  0  0  0  0  0  0  0  0
   -3.1083    2.1366   -0.1565 C   0  0  0  0  0  0  0  0  0  0  0  0
   -3.9136    4.2779   -0.8908 C   0  0  0  0  0  0  0  0  0  0  0  0
   -5.2043    2.9775    0.6633 C   0  0  0  0  0  0  0  0  0  0  0  0
   -1.6118    2.4052   -0.0962 C   0  0  0  0  0  0  0  0  0  0  0  0
   -4.6296    5.5556   -0.4867 C   0  0  0  0  0  0  0  0  0  0  0  0
   -5.9979    2.3362   -0.4624 C   0  0  0  0  0  0  0  0  0  0  0  0
   -0.4490    0.2922    0.4971 C   0  0  0  0  0  0  0  0  0  0  0  0
    0.3110   -0.8622   -0.0836 C   0  0  0  0  0  0  0  0  0  0  0  0
   -0.3983   -1.9355   -0.4747 C   0  0  0  0  0  0  0  0  0  0  0  0
   -1.8585   -2.0809   -0.3844 C   0  0  0  0  0  0  0  0  0  0  0  0
   -2.4602   -2.5996    0.7621 C   0  0  0  0  0  0  0  0  0  0  0  0
    2.3896    0.3462    0.2208 C   0  0  0  0  0  0  0  0  0  0  0  0
    3.8632    0.2561    0.0508 C   0  0  0  0  0  0  0  0  0  0  0  0
   -2.6441   -1.6907   -1.4688 C   0  0  0  0  0  0  0  0  0  0  0  0
   -3.8477   -2.7281    0.8242 C   0  0  0  0  0  0  0  0  0  0  0  0
   -4.0316   -1.8192   -1.4067 C   0  0  0  0  0  0  0  0  0  0  0  0
   -4.6334   -2.3379   -0.2602 C   0  0  0  0  0  0  0  0  0  0  0  0
    4.7077    0.9906    0.8832 C   0  0  0  0  0  0  0  0  0  0  0  0
    4.4016   -0.5626   -0.9419 C   0  0  0  0  0  0  0  0  0  0  0  0
    5.7846   -0.6468   -1.1023 C   0  0  0  0  0  0  0  0  0  0  0  0
    6.0908    0.9063    0.7227 C   0  0  0  0  0  0  0  0  0  0  0  0
    6.6292    0.0877   -0.2700 C   0  0  0  0  0  0  0  0  0  0  0  0
   -2.4232   -3.5068    2.9602 C   0  0  0  0  0  0  0  0  0  0  0  0
   -6.7298   -2.0451   -1.3444 C   0  0  0  0  0  0  0  0  0  0  0  0
    7.7328   -1.4832   -2.1798 C   0  0  0  0  0  0  0  0  0  0  0  0
    8.3187    1.4893    1.3159 C   0  0  0  0  0  0  0  0  0  0  0  0
  1 16  2  0
  2 20  1  0
  2 32  1  0
  3 26  1  0
  3 33  1  0
  4 21  2  0
  5 29  1  0
  5 34  1  0
  6 30  1  0
  6 35  1  0
  7 10  1  0
  7 11  1  0
  7 12  1  0
  8 13  1  0
  8 16  1  0
  9 17  1  0
  9 21  1  0
 10 13  1  0
 11 14  1  0
 12 15  1  0
 16 17  1  0
 17 18  2  0
 18 19  1  0
 19 20  2  0
 19 23  1  0
 20 24  1  0
 21 22  1  0
 22 27  2  0
 22 28  1  0
 23 25  2  0
 24 26  2  0
 25 26  1  0
 27 30  1  0
 28 29  2  0
 29 31  1  0
 30 31  2  0
M  END
>  <PUBCHEM_COMPOUND_CID>  (1) 
19737

>  <PUBCHEM_CONFORMER_RMSD>  (1) 
1.2

>  <PUBCHEM_CONFORMER_DIVERSEORDER>  (1) 
3
13
26
34
9
7
20
10
28
19
24
4
17
15
16
18
36
27
2
8
32
12
14
25
11
6
21
30
1
33
35
31
5
29
23
22

>  <PUBCHEM_MMFF94_PARTIAL_CHARGES>  (1) 
42
1 -0.57
10 0.27
11 0.27
12 0.27
13 0.3
16 0.62
17 0.12
18 -0.18
19 0.03
2 -0.36
20 0.08
21 0.54
22 0.09
23 -0.15
24 -0.15
25 -0.15
26 0.08
27 -0.15
28 -0.15
29 0.08
3 -0.36
30 0.08
31 -0.15
32 0.28
33 0.28
34 0.28
35 0.28
4 -0.57
5 -0.36
50 0.37
51 0.15
52 0.37
53 0.15
54 0.15
55 0.15
56 0.15
57 0.15
58 0.15
6 -0.36
7 -0.81
8 -0.73
9 -0.54

>  <PUBCHEM_EFFECTIVE_ROTOR_COUNT>  (1) 
15

>  <PUBCHEM_PHARMACOPHORE_FEATURES>  (1) 
11
1 1 acceptor
1 2 acceptor
1 3 acceptor
1 4 acceptor
1 5 acceptor
1 6 acceptor
1 7 cation
1 8 donor
1 9 donor
6 19 20 23 24 25 26 rings
6 22 27 28 29 30 31 rings

>  <PUBCHEM_HEAVY_ATOM_COUNT>  (1) 
35

>  <PUBCHEM_ATOM_DEF_STEREO_COUNT>  (1) 
0

>  <PUBCHEM_ATOM_UDEF_STEREO_COUNT>  (1) 
0

>  <PUBCHEM_BOND_DEF_STEREO_COUNT>  (1) 
0

>  <PUBCHEM_BOND_UDEF_STEREO_COUNT>  (1) 
1

>  <PUBCHEM_ISOTOPIC_ATOM_COUNT>  (1) 
0

>  <PUBCHEM_COMPONENT_COUNT>  (1) 
1

>  <PUBCHEM_CACTVS_TAUTO_COUNT>  (1) 
4

>  <PUBCHEM_CONFORMER_ID>  (1) 
00004D1900000003

>  <PUBCHEM_MMFF94_ENERGY>  (1) 
130.981

>  <PUBCHEM_FEATURE_SELFOVERLAP>  (1) 
55.826

>  <PUBCHEM_SHAPE_FINGERPRINT>  (1) 
10050765 1 18339918204357969174
10190206 1 18260828193908938751
10951579 204 18337401443869717212
11007060 377 18340206289531889817
12293681 4 18189899889246106475
12788726 201 18334563668856490651
12857493 111 18339637970500641921
13150687 139 18197218044955364909
13383665 225 18264221347729595196
14028597 1 17749936826708930203
14068700 686 18411422851906325686
14294032 229 17968378918806978788
15064986 266 18409456903566828310
15131766 46 14926234900094727198
15183329 4 17603865628743002094
15198563 99 18410568492801559709
15276724 80 18270964677521095517
15361156 5 18194971966328398022
15439362 3 17908702826134940077
15629462 23 16987726692647752537
15927050 60 18266739070131778887
16090146 7 17313112968464105083
17899979 129 17473544651667631509
18365409 1 18338233766167714389
19301676 85 17262175631386691230
19304152 47 17823995433341855325
21236236 1 18342174479642991261
21927370 108 18265064694870783907
23576562 1 18334023799931445396
3383291 50 18263080079971097515
4058900 60 17904773171704116065
4073 2 18411698790754327880
5171179 24 17773016769592506449
563151 40 18336272224089855819
5969126 39 18270952561671034925
59755656 520 18189055304541945037
6698420 124 17915188918526731769

>  <PUBCHEM_SHAPE_MULTIPOLES>  (1) 
670.12
20.42
5.44
1.77
35.87
5.37
0.44
4.7
-4.23
-14.31
0.59
1.19
-1.58
3.22

>  <PUBCHEM_SHAPE_SELFOVERLAP>  (1) 
1393.344

>  <PUBCHEM_SHAPE_VOLUME>  (1) 
382.3

>  <PUBCHEM_COORDINATE_TYPE>  (1) 
2
5
10

$$$$
