19755
     RDKit          3D

 11 12  0  0  1  0  0  0  0  0999 V2000
   -2.2077    0.2091    0.3388 C   0  0  0  0  0  0  0  0  0  0  0  0
   -1.9828   -1.1408   -0.3485 C   0  0  0  0  0  0  0  0  0  0  0  0
   -1.1149    1.1988   -0.0921 C   0  0  0  0  0  0  0  0  0  0  0  0
   -0.6464   -1.7447    0.0806 C   0  0  0  0  0  0  0  0  0  0  0  0
    0.2779    0.6222   -0.0225 C   0  0  0  0  0  0  0  0  0  0  0  0
    0.4986   -0.7663    0.0182 C   0  0  0  0  0  0  0  0  0  0  0  0
   -3.5936    0.7630    0.0153 C   0  0  0  0  0  0  0  0  0  0  0  0
    1.3774    1.4934   -0.0578 C   0  0  0  0  0  0  0  0  0  0  0  0
    1.8139   -1.2537    0.0599 C   0  0  0  0  0  0  0  0  0  0  0  0
    2.6798    0.9960   -0.0266 C   0  0  0  0  0  0  0  0  0  0  0  0
    2.8979   -0.3770    0.0347 C   0  0  0  0  0  0  0  0  0  0  0  0
  1  2  1  0
  1  3  1  0
  1  7  1  0
  2  4  1  0
  3  5  1  0
  4  6  1  0
  5  6  2  0
  5  8  1  0
  6  9  1  0
  8 10  2  0
  9 11  2  0
 10 11  1  0
M  END
>  <PUBCHEM_COMPOUND_CID>  (1) 
19755

>  <PUBCHEM_CONFORMER_RMSD>  (1) 
0.4

>  <PUBCHEM_CONFORMER_DIVERSEORDER>  (1) 
1
3
2

>  <PUBCHEM_MMFF94_PARTIAL_CHARGES>  (1) 
12
10 -0.15
11 -0.15
22 0.15
23 0.15
24 0.15
25 0.15
3 0.14
4 0.14
5 -0.14
6 -0.14
8 -0.15
9 -0.15

>  <PUBCHEM_EFFECTIVE_ROTOR_COUNT>  (1) 
0.8

>  <PUBCHEM_PHARMACOPHORE_FEATURES>  (1) 
2
6 1 2 3 4 5 6 rings
6 5 6 8 9 10 11 rings

>  <PUBCHEM_HEAVY_ATOM_COUNT>  (1) 
11

>  <PUBCHEM_ATOM_DEF_STEREO_COUNT>  (1) 
0

>  <PUBCHEM_ATOM_UDEF_STEREO_COUNT>  (1) 
1

>  <PUBCHEM_BOND_DEF_STEREO_COUNT>  (1) 
0

>  <PUBCHEM_BOND_UDEF_STEREO_COUNT>  (1) 
0

>  <PUBCHEM_ISOTOPIC_ATOM_COUNT>  (1) 
0

>  <PUBCHEM_COMPONENT_COUNT>  (1) 
1

>  <PUBCHEM_CACTVS_TAUTO_COUNT>  (1) 
1

>  <PUBCHEM_CONFORMER_ID>  (1) 
00004D2B00000001

>  <PUBCHEM_MMFF94_ENERGY>  (1) 
22.0605

>  <PUBCHEM_FEATURE_SELFOVERLAP>  (1) 
10.17

>  <PUBCHEM_SHAPE_FINGERPRINT>  (1) 
10219947 1 18335424530341516729
11132069 177 18413382142423365832
11471102 20 18337668625041856397
12932764 1 17313093155399510634
13380535 21 18337687402348750014
13380535 76 18411980269150598319
14325111 11 18410856581288900753
14897335 6 18341044198463383285
15775835 57 18410016549952037605
16945 1 18410572868597149726
17844478 74 17894920615753354533
193761 8 17834114525844277769
19973954 147 18265899244536322090
20201158 50 18412263904500964718
21040471 1 18338518654777585512
21501502 16 18338795731623480038
23235685 24 18411976953504203185
23402655 69 18341601587157077149
23463225 33 18408040684601813962
23552423 10 18261955274947611710
23559900 14 18343310288809733828
2748010 2 18266743665108209294
5084963 1 18272930488167509113
528886 8 18411132541363910802
53812653 166 18342733048571749280
63268167 104 18411703170761087961
7364860 26 18271805679799862766

>  <PUBCHEM_SHAPE_MULTIPOLES>  (1) 
226.37
4.66
1.74
0.64
1.3
0.23
0
-0.88
0.05
-0.1
-0.03
0.04
0.01
-0.1

>  <PUBCHEM_SHAPE_SELFOVERLAP>  (1) 
475.73

>  <PUBCHEM_SHAPE_VOLUME>  (1) 
122.9

>  <PUBCHEM_COORDINATE_TYPE>  (1) 
2
5
10

$$$$
