19767
     RDKit          3D

 19 21  0  0  1  0  0  0  0  0999 V2000
    3.5440    0.2291   -0.0797 O   0  0  0  0  0  0  0  0  0  0  0  0
    2.7349   -1.9195    0.0873 O   0  0  0  0  0  0  0  0  0  0  0  0
   -2.6999   -2.0695    0.6223 N   0  0  0  0  0  0  0  0  0  0  0  0
    1.0578    1.2826   -0.0258 N   0  0  0  0  0  0  0  0  0  0  0  0
   -0.9864    0.3860    0.1006 C   0  0  0  0  0  0  0  0  0  0  0  0
   -3.3122   -0.8124    0.1560 C   0  0  0  0  0  0  0  0  0  0  0  0
   -0.0114   -0.6650    0.1198 C   0  0  0  0  0  0  0  0  0  0  0  0
   -2.4041    0.4126    0.1493 C   0  0  0  0  0  0  0  0  0  0  0  0
   -0.2538   -2.1291    0.2583 C   0  0  0  0  0  0  0  0  0  0  0  0
   -1.6244   -2.5987   -0.2174 C   0  0  0  0  0  0  0  0  0  0  0  0
   -0.2808    1.5913    0.0297 C   0  0  0  0  0  0  0  0  0  0  0  0
    1.2313   -0.0699    0.0330 C   0  0  0  0  0  0  0  0  0  0  0  0
   -3.0219    1.6874    0.1481 C   0  0  0  0  0  0  0  0  0  0  0  0
   -4.0328   -0.9827   -1.1901 C   0  0  0  0  0  0  0  0  0  0  0  0
   -0.9010    2.8433    0.0212 C   0  0  0  0  0  0  0  0  0  0  0  0
   -2.2901    2.8709    0.0883 C   0  0  0  0  0  0  0  0  0  0  0  0
    2.5218   -0.6881    0.0195 C   0  0  0  0  0  0  0  0  0  0  0  0
    4.8863   -0.2682   -0.1042 C   0  0  0  0  0  0  0  0  0  0  0  0
    5.8428    0.8998   -0.2162 C   0  0  0  0  0  0  0  0  0  0  0  0
  1 17  1  0
  1 18  1  0
  2 17  2  0
  3  6  1  0
  3 10  1  0
  4 11  1  0
  4 12  1  0
  5  7  1  0
  5  8  2  0
  5 11  1  0
  6  8  1  0
  6 14  1  0
  7  9  1  0
  7 12  2  0
  8 13  1  0
  9 10  1  0
 11 15  2  0
 12 17  1  0
 13 16  2  0
 15 16  1  0
 18 19  1  0
M  END
>  <PUBCHEM_COMPOUND_CID>  (1) 
19767

>  <PUBCHEM_CONFORMER_RMSD>  (1) 
0.6

>  <PUBCHEM_CONFORMER_DIVERSEORDER>  (1) 
1
6
33
24
30
20
19
36
12
27
15
31
32
7
34
35
8
13
25
3
26
14
11
5
4
23
22
17
9
21
2
18
29
10
16
28

>  <PUBCHEM_MMFF94_PARTIAL_CHARGES>  (1) 
21
1 -0.43
10 0.27
11 -0.15
12 -0.24
13 -0.15
15 -0.15
16 -0.15
17 0.81
18 0.28
2 -0.57
25 0.36
26 0.27
27 0.15
3 -0.9
31 0.15
32 0.15
4 0.03
6 0.41
7 -0.18
8 -0.14
9 0.18

>  <PUBCHEM_EFFECTIVE_ROTOR_COUNT>  (1) 
3.8

>  <PUBCHEM_PHARMACOPHORE_FEATURES>  (1) 
8
1 2 acceptor
1 3 cation
1 3 donor
1 4 cation
1 4 donor
5 4 5 7 11 12 rings
6 5 8 11 13 15 16 rings
7 3 5 6 7 8 9 10 rings

>  <PUBCHEM_HEAVY_ATOM_COUNT>  (1) 
19

>  <PUBCHEM_ATOM_DEF_STEREO_COUNT>  (1) 
0

>  <PUBCHEM_ATOM_UDEF_STEREO_COUNT>  (1) 
1

>  <PUBCHEM_BOND_DEF_STEREO_COUNT>  (1) 
0

>  <PUBCHEM_BOND_UDEF_STEREO_COUNT>  (1) 
0

>  <PUBCHEM_ISOTOPIC_ATOM_COUNT>  (1) 
0

>  <PUBCHEM_COMPONENT_COUNT>  (1) 
1

>  <PUBCHEM_CACTVS_TAUTO_COUNT>  (1) 
2

>  <PUBCHEM_CONFORMER_ID>  (1) 
00004D3700000001

>  <PUBCHEM_MMFF94_ENERGY>  (1) 
34.6813

>  <PUBCHEM_FEATURE_SELFOVERLAP>  (1) 
40.725

>  <PUBCHEM_SHAPE_FINGERPRINT>  (1) 
10319926 262 18268973364217545994
10411042 1 17978230783193768082
10493431 412 18197509432780183889
10616163 171 18410859849991342502
10906281 52 18341063951561277213
10967382 1 17978229692656202857
11315181 36 18040718095854610048
11680986 33 17980192303679257425
12173636 292 18265896843760770140
12390115 104 18128554668729062416
12553582 1 18338792424620280355
12788726 201 18409439276430312699
13027679 85 18338233872987358341
13140716 1 18194129748288308403
13583140 156 14117525320052526279
138480 1 16248565436836030611
14790565 3 17908712730361770833
15042514 8 18336836363301143595
15196674 1 18338517439460304186
16752209 62 18338224999168336331
16945 1 18051131690286738745
18927931 339 18410583889868639190
19591789 44 17834965170156112243
20510252 161 18270965643708966865
20871999 31 18410281498374732461
21029758 11 18341888632342269401
21029758 27 18262245529080074953
21236236 1 18341613698479333824
21267235 1 18337681913364974826
21501502 16 18266172825315890954
2334 1 17833831951503742907
23402539 116 18342451556430759863
23557571 272 18273222984631934940
23558518 356 18188784842035720922
23559900 14 18268140032339333816
238 59 16528318655668581429
2748010 2 18050282875868349267
283562 15 18411980243691654371
335352 9 18338797922864026775
34934 24 18334573508082973531
350125 39 18411142437380628089
4214541 1 18410576142021644704
5104073 3 18339079294603130906
53917941 68 18189322499127254877
58051976 378 18411139143272132782
7364860 26 17835521900833371689
81228 2 18408881828461996113
9709674 26 18341619170537058334

>  <PUBCHEM_SHAPE_MULTIPOLES>  (1) 
369.31
8.31
3.04
0.71
13.13
0.68
-0.08
0.06
-1.2
-2.52
0.13
-0.36
-0.12
-0.29

>  <PUBCHEM_SHAPE_SELFOVERLAP>  (1) 
797.347

>  <PUBCHEM_SHAPE_VOLUME>  (1) 
203.2

>  <PUBCHEM_COORDINATE_TYPE>  (1) 
2
5
10

$$$$
