19781
     RDKit          3D

 25 26  0  0  0  0  0  0  0  0999 V2000
   -0.7272    0.8750   -0.7784 O   0  0  0  0  0  0  0  0  0  0  0  0
   -0.1374   -2.3075   -1.6228 O   0  0  0  0  0  0  0  0  0  0  0  0
   -2.0579    0.3137   -2.6207 O   0  0  0  0  0  0  0  0  0  0  0  0
    1.1561   -1.7943    0.2320 N   0  0  0  0  0  0  0  0  0  0  0  0
   -2.9828    2.0798    0.4553 C   0  0  0  0  0  0  0  0  0  0  0  0
   -2.6400    0.6369    0.6300 C   0  0  0  0  0  0  0  0  0  0  0  0
   -1.5219    0.0870    0.0030 C   0  0  0  0  0  0  0  0  0  0  0  0
   -1.2183   -1.2633    0.1771 C   0  0  0  0  0  0  0  0  0  0  0  0
   -2.0329   -2.0635    0.9782 C   0  0  0  0  0  0  0  0  0  0  0  0
   -3.4546   -0.1633    1.4311 C   0  0  0  0  0  0  0  0  0  0  0  0
   -2.9404    2.8581    1.7831 C   0  0  0  0  0  0  0  0  0  0  0  0
   -4.3489    2.2805   -0.2263 C   0  0  0  0  0  0  0  0  0  0  0  0
   -3.1510   -1.5135    1.6052 C   0  0  0  0  0  0  0  0  0  0  0  0
   -0.0466   -1.8342   -0.4788 C   0  0  0  0  0  0  0  0  0  0  0  0
    2.4060   -2.2971   -0.2909 C   0  0  0  0  0  0  0  0  0  0  0  0
    3.1941   -1.2324   -1.0501 C   0  0  0  0  0  0  0  0  0  0  0  0
   -1.7335   -3.5129    1.1842 C   0  0  0  0  0  0  0  0  0  0  0  0
    3.5740   -0.0543   -0.1872 C   0  0  0  0  0  0  0  0  0  0  0  0
    2.7124    1.0279   -0.0963 C   0  0  0  0  0  0  0  0  0  0  0  0
    4.7778   -0.0748    0.5001 C   0  0  0  0  0  0  0  0  0  0  0  0
   -1.1106    0.9115   -2.1275 C   0  0  0  0  0  0  0  0  0  0  0  0
    3.0634    2.1168    0.7016 C   0  0  0  0  0  0  0  0  0  0  0  0
    5.1287    1.0142    1.2981 C   0  0  0  0  0  0  0  0  0  0  0  0
    4.2715    2.1100    1.3987 C   0  0  0  0  0  0  0  0  0  0  0  0
   -0.1800    1.7996   -2.8987 C   0  0  0  0  0  0  0  0  0  0  0  0
  1  7  1  0
  1 21  1  0
  2 14  2  0
  3 21  2  0
  4 14  1  0
  4 15  1  0
  5  6  1  0
  5 11  1  0
  5 12  1  0
  6  7  2  0
  6 10  1  0
  7  8  1  0
  8  9  2  0
  8 14  1  0
  9 13  1  0
  9 17  1  0
 10 13  2  0
 15 16  1  0
 16 18  1  0
 18 19  2  0
 18 20  1  0
 19 22  1  0
 20 23  2  0
 21 25  1  0
 22 24  2  0
 23 24  1  0
M  END
>  <PUBCHEM_COMPOUND_CID>  (1) 
19781

>  <PUBCHEM_CONFORMER_RMSD>  (1) 
0.8

>  <PUBCHEM_CONFORMER_DIVERSEORDER>  (1) 
1
6
24
61
56
5
52
18
37
9
79
23
13
60
62
38
45
77
58
67
31
63
71
51
59
69
78
47
39
75
40
65
8
41
25
11
44
72
30
22
53
54
55
66
3
20
68
27
14
32
64
21
42
35
29
12
48
2
16
74
76
70
4
26
17
28
46
33
36
73
50
7
15
57
19
49
10
43
34

>  <PUBCHEM_MMFF94_PARTIAL_CHARGES>  (1) 
31
1 -0.23
10 -0.15
13 -0.15
14 0.54
15 0.3
16 0.14
17 0.14
18 -0.14
19 -0.15
2 -0.57
20 -0.15
21 0.66
22 -0.15
23 -0.15
24 -0.15
25 0.06
27 0.15
3 -0.57
34 0.15
39 0.37
4 -0.73
43 0.15
44 0.15
45 0.15
46 0.15
47 0.15
5 0.14
6 -0.14
7 0.08
8 0.09
9 -0.14

>  <PUBCHEM_EFFECTIVE_ROTOR_COUNT>  (1) 
8

>  <PUBCHEM_PHARMACOPHORE_FEATURES>  (1) 
6
1 2 acceptor
1 3 acceptor
1 4 donor
3 5 11 12 hydrophobe
6 18 19 20 22 23 24 rings
6 6 7 8 9 10 13 rings

>  <PUBCHEM_HEAVY_ATOM_COUNT>  (1) 
25

>  <PUBCHEM_ATOM_DEF_STEREO_COUNT>  (1) 
0

>  <PUBCHEM_ATOM_UDEF_STEREO_COUNT>  (1) 
0

>  <PUBCHEM_BOND_DEF_STEREO_COUNT>  (1) 
0

>  <PUBCHEM_BOND_UDEF_STEREO_COUNT>  (1) 
0

>  <PUBCHEM_ISOTOPIC_ATOM_COUNT>  (1) 
0

>  <PUBCHEM_COMPONENT_COUNT>  (1) 
1

>  <PUBCHEM_CACTVS_TAUTO_COUNT>  (1) 
2

>  <PUBCHEM_CONFORMER_ID>  (1) 
00004D4500000001

>  <PUBCHEM_MMFF94_ENERGY>  (1) 
69.654

>  <PUBCHEM_FEATURE_SELFOVERLAP>  (1) 
30.446

>  <PUBCHEM_SHAPE_FINGERPRINT>  (1) 
10165383 225 17972619696463109598
1100329 8 16610833657484814256
11370993 144 18411412900408838120
11370993 70 18412826863065439528
11640471 11 16272204193935663588
12035758 1 17603586305771591157
12173636 292 18273496792596013430
12633257 1 18187641376028837056
13583140 156 18131634503740391545
13965767 371 17608382241867747089
14081887 123 18337402646091261915
14142880 1 18337379526334567733
14178342 30 18188218700816168658
14787075 74 18343017762549698633
14840074 17 16450659582526785668
14932701 244 14546180008798288250
15163728 17 15911935890301578465
173720 79 14635423820118945663
1813 80 17241895491292542803
19930381 70 17695060393964846857
21033648 29 18262531294724223297
21475661 188 18055076449754267257
21756936 100 17556859441198678480
21860390 5 17412194157098494508
21864079 5 18130783439270276656
23227448 37 18131912667449751925
23559900 14 17970644990586082286
3187 122 17896034510799219970
4340502 62 18337677408677556425
4371632 12 16986281006561090737
474 4 18128529375523666056
5081480 168 16484758423285153356
6287921 2 18046082694221468172
7064713 232 18334305248731493884
81228 2 17968106360018830451
90316 7 17385442119981928396

>  <PUBCHEM_SHAPE_MULTIPOLES>  (1) 
491.9
8.75
3.56
2.14
8.26
1.03
1.47
-4.5
-4.45
-1.92
-0.89
-0.87
-0.91
1.54

>  <PUBCHEM_SHAPE_SELFOVERLAP>  (1) 
1034.382

>  <PUBCHEM_SHAPE_VOLUME>  (1) 
276.5

>  <PUBCHEM_COORDINATE_TYPE>  (1) 
2
5
10

$$$$
