19787
     RDKit          3D

 11 10  0  0  0  0  0  0  0  0999 V2000
    3.1888    0.0691   -0.0073 P   0  0  0  0  0  0  0  0  0  0  0  0
    1.6877    0.6703    0.0137 O   0  0  0  0  0  0  0  0  0  0  0  0
    3.1904   -0.9173   -1.2888 O   0  0  0  0  0  0  0  0  0  0  0  0
    3.1834   -0.9512    1.2473 O   0  0  0  0  0  0  0  0  0  0  0  0
    4.2843    1.0946    0.0145 O   0  0  0  0  0  0  0  0  0  0  0  0
   -1.9226   -0.3700    0.0171 C   0  0  0  0  0  0  0  0  0  0  0  0
   -3.2564    0.3821    0.0090 C   0  0  0  0  0  0  0  0  0  0  0  0
   -0.7048    0.5527    0.0199 C   0  0  0  0  0  0  0  0  0  0  0  0
   -4.4752   -0.5414    0.0310 C   0  0  0  0  0  0  0  0  0  0  0  0
    0.5960   -0.2390   -0.0051 C   0  0  0  0  0  0  0  0  0  0  0  0
   -5.7717    0.2502   -0.0514 C   0  0  0  0  0  0  0  0  0  0  0  0
  1  2  1  0
  1  3  1  0
  1  4  1  0
  1  5  2  0
  2 10  1  0
  6  7  1  0
  6  8  1  0
  7  9  1  0
  8 10  1  0
  9 11  1  0
M  END
>  <PUBCHEM_COMPOUND_CID>  (1) 
19787

>  <PUBCHEM_CONFORMER_RMSD>  (1) 
0.6

>  <PUBCHEM_CONFORMER_DIVERSEORDER>  (1) 
1
81
86
41
3
49
72
5
55
83
43
16
82
53
7
63
77
24
47
19
48
61
45
4
36
54
71
9
25
74
78
62
6
35
26
80
8
11
15
33
84
76
58
57
27
34
87
13
46
59
64
21
42
10
66
44
32
70
2
37
23
18
50
40
68
12
20
38
56
29
17
22
52
75
30
79
85
39
14
60
65
73
51
69
28
67
31

>  <PUBCHEM_MMFF94_PARTIAL_CHARGES>  (1) 
8
1 1.51
10 0.28
2 -0.55
25 0.5
26 0.5
3 -0.77
4 -0.77
5 -0.7

>  <PUBCHEM_EFFECTIVE_ROTOR_COUNT>  (1) 
6

>  <PUBCHEM_PHARMACOPHORE_FEATURES>  (1) 
6
1 11 hydrophobe
1 3 acceptor
1 4 acceptor
1 5 acceptor
4 1 3 4 5 anion
4 6 7 8 9 hydrophobe

>  <PUBCHEM_HEAVY_ATOM_COUNT>  (1) 
11

>  <PUBCHEM_ATOM_DEF_STEREO_COUNT>  (1) 
0

>  <PUBCHEM_ATOM_UDEF_STEREO_COUNT>  (1) 
0

>  <PUBCHEM_BOND_DEF_STEREO_COUNT>  (1) 
0

>  <PUBCHEM_BOND_UDEF_STEREO_COUNT>  (1) 
0

>  <PUBCHEM_ISOTOPIC_ATOM_COUNT>  (1) 
0

>  <PUBCHEM_COMPONENT_COUNT>  (1) 
1

>  <PUBCHEM_CACTVS_TAUTO_COUNT>  (1) 
1

>  <PUBCHEM_CONFORMER_ID>  (1) 
00004D4B00000001

>  <PUBCHEM_MMFF94_ENERGY>  (1) 
-28.327

>  <PUBCHEM_FEATURE_SELFOVERLAP>  (1) 
30.482

>  <PUBCHEM_SHAPE_FINGERPRINT>  (1) 
11062470 55 18409167727170469377
14123238 8 18344145908281331661
17834072 33 17917708062963718301
17834076 25 17275105041513129200
190213 19 17989207040670103011
20279233 1 17821734948380857866
20645477 70 17846224306510784606
20719005 15 18411419514362944833
22485316 2 18114178657527754995
23402539 116 18273207604575457685
23532345 1 17603873342356344892
42788 4 18410292519323935201
522135 26 17458344126181091586

>  <PUBCHEM_SHAPE_MULTIPOLES>  (1) 
206.75
11.48
0.93
0.82
8.57
0
-0.02
-0.3
-0.11
-0.57
0.01
-0.71
0.21
0.02

>  <PUBCHEM_SHAPE_SELFOVERLAP>  (1) 
360.49

>  <PUBCHEM_SHAPE_VOLUME>  (1) 
136.6

>  <PUBCHEM_COORDINATE_TYPE>  (1) 
2
5
10

$$$$
