19790
     RDKit          3D

 24 25  0  0  0  0  0  0  0  0999 V2000
    5.0399   -1.4781   -0.0944 S   0  0  0  0  0  0  0  0  0  0  0  0
   -5.0080   -1.4148    0.2252 S   0  0  0  0  0  0  0  0  0  0  0  0
    0.5281    2.8336    0.9350 S   0  0  0  0  0  0  0  0  0  0  0  0
   -0.4560    2.8375   -0.8710 S   0  0  0  0  0  0  0  0  0  0  0  0
    6.3255   -0.7949   -0.0654 O   0  0  0  0  0  0  0  0  0  0  0  0
    4.8097   -2.6235    0.7750 O   0  0  0  0  0  0  0  0  0  0  0  0
   -6.1071   -0.7308    0.8921 O   0  0  0  0  0  0  0  0  0  0  0  0
   -5.2592   -2.1674   -0.9960 O   0  0  0  0  0  0  0  0  0  0  0  0
    0.3180   -0.2108    1.4742 N   0  0  0  0  0  0  0  0  0  0  0  0
   -0.9193    0.1988   -2.4284 N   0  0  0  0  0  0  0  0  0  0  0  0
    4.6939   -1.9338   -1.7045 N   0  0  0  0  0  0  0  0  0  0  0  0
   -4.2324   -2.4398    1.3510 N   0  0  0  0  0  0  0  0  0  0  0  0
    3.7837   -0.3006    0.1953 C   0  0  0  0  0  0  0  0  0  0  0  0
   -3.7453   -0.2511   -0.0904 C   0  0  0  0  0  0  0  0  0  0  0  0
    1.5511    0.2361    0.9469 C   0  0  0  0  0  0  0  0  0  0  0  0
   -1.8252    0.4574   -1.3743 C   0  0  0  0  0  0  0  0  0  0  0  0
    1.7776    1.5820    0.6584 C   0  0  0  0  0  0  0  0  0  0  0  0
   -1.7241    1.6138   -0.5948 C   0  0  0  0  0  0  0  0  0  0  0  0
    2.5541   -0.7052    0.7153 C   0  0  0  0  0  0  0  0  0  0  0  0
   -2.8336   -0.4729   -1.1226 C   0  0  0  0  0  0  0  0  0  0  0  0
    4.0100    1.0454   -0.0932 C   0  0  0  0  0  0  0  0  0  0  0  0
   -3.6483    0.9010    0.6901 C   0  0  0  0  0  0  0  0  0  0  0  0
    3.0069    1.9865    0.1384 C   0  0  0  0  0  0  0  0  0  0  0  0
   -2.6400    1.8313    0.4382 C   0  0  0  0  0  0  0  0  0  0  0  0
  1  5  2  0
  1  6  2  0
  1 11  1  0
  1 13  1  0
  2  7  2  0
  2  8  2  0
  2 12  1  0
  2 14  1  0
  3  4  1  0
  3 17  1  0
  4 18  1  0
  9 15  1  0
 10 16  1  0
 13 19  2  0
 13 21  1  0
 14 20  2  0
 14 22  1  0
 15 17  2  0
 15 19  1  0
 16 18  2  0
 16 20  1  0
 17 23  1  0
 18 24  1  0
 21 23  2  0
 22 24  2  0
M  END
>  <PUBCHEM_COMPOUND_CID>  (1) 
19790

>  <PUBCHEM_CONFORMER_RMSD>  (1) 
0.8

>  <PUBCHEM_CONFORMER_DIVERSEORDER>  (1) 
1
99
92
101
61
197
218
13
214
98
64
127
103
16
117
93
205
173
9
54
196
37
88
175
86
6
120
14
89
94
65
147
203
15
84
91
121
68
63
83
165
60
87
119
106
102
5
178
198
195
36
132
35
44
221
186
59
100
204
46
24
7
177
53
74
79
45
96
185
8
169
67
69
213
49
112
118
188
181
170
28
25
192
168
85
90
2
222
183
115
31
17
146
81
152
191
143
189
78
20
206
161
42
19
80
215
171
58
70
39
18
56
184
116
136
172
107
113
71
29
201
216
114
50
182
209
180
108
208
193
212
179
77
128
22
176
27
123
10
75
104
141
43
57
124
142
30
55
160
174
150
154
211
220
66
40
156
223
162
166
12
210
11
110
153
202
4
133
138
38
76
134
21
207
163
167
23
33
105
164
109
3
217
151
32
219
26
159
149
135
62
131
130
52
148
97
129
34
51
155
95
158
111
47
82
157
41
139
73
48
194
140
187
122
126
190
72
137
200
145
199
125
144

>  <PUBCHEM_MMFF94_PARTIAL_CHARGES>  (1) 
38
1 1.45
10 -0.9
11 -0.98
12 -0.98
13 -0.01
14 -0.01
15 0.1
16 0.1
17 0.1
18 0.1
19 -0.15
2 1.45
20 -0.15
21 -0.15
22 -0.15
23 -0.15
24 -0.15
25 0.15
26 0.15
27 0.15
28 0.15
29 0.15
3 -0.1
30 0.15
31 0.4
32 0.4
33 0.4
34 0.4
35 0.42
36 0.42
37 0.42
38 0.42
4 -0.1
5 -0.65
6 -0.65
7 -0.65
8 -0.65
9 -0.9

>  <PUBCHEM_EFFECTIVE_ROTOR_COUNT>  (1) 
5

>  <PUBCHEM_PHARMACOPHORE_FEATURES>  (1) 
12
1 10 cation
1 10 donor
1 11 donor
1 12 donor
1 5 acceptor
1 6 acceptor
1 7 acceptor
1 8 acceptor
1 9 cation
1 9 donor
6 13 15 17 19 21 23 rings
6 14 16 18 20 22 24 rings

>  <PUBCHEM_HEAVY_ATOM_COUNT>  (1) 
24

>  <PUBCHEM_ATOM_DEF_STEREO_COUNT>  (1) 
0

>  <PUBCHEM_ATOM_UDEF_STEREO_COUNT>  (1) 
0

>  <PUBCHEM_BOND_DEF_STEREO_COUNT>  (1) 
0

>  <PUBCHEM_BOND_UDEF_STEREO_COUNT>  (1) 
0

>  <PUBCHEM_ISOTOPIC_ATOM_COUNT>  (1) 
0

>  <PUBCHEM_COMPONENT_COUNT>  (1) 
1

>  <PUBCHEM_CACTVS_TAUTO_COUNT>  (1) 
1

>  <PUBCHEM_CONFORMER_ID>  (1) 
00004D4E00000001

>  <PUBCHEM_MMFF94_ENERGY>  (1) 
37.5152

>  <PUBCHEM_FEATURE_SELFOVERLAP>  (1) 
60.932

>  <PUBCHEM_SHAPE_FINGERPRINT>  (1) 
10498660 4 12035737487664647484
10928967 22 18343293760873986158
11089746 13 11530483346301878642
11961588 58 8069748443262278977
12107183 9 18200042746452165097
12422481 6 17059227942133081015
12596602 18 16415195736551609259
12633257 1 16128371614286261309
13103583 49 18059305292107993385
13135754 10 17701553809091319432
13533116 47 18196933486513713161
14251764 30 18409166614637049475
14341114 176 18411423951222560385
15061688 2 9367347045841344025
15064986 96 16700905864648681815
15238133 3 13901908946804496664
15537594 2 18059011804107794740
17349148 13 17823697457147597680
17492 54 13984382188464092573
17492 89 18268990878709530582
17909252 39 18410572852019025346
17959699 21 8069758385768515581
1813 80 18409455790437699756
20511986 3 8502372166408945876
20621476 21 17987809501525876558
21401589 2 10519984898465919613
21713013 43 17967522454745619508
221357 26 18335417975947006306
221490 88 18410569574906347256
22393880 68 17895744119528762936
22950370 63 18411703183630457704
23379529 103 18341618088083973806
23559900 14 18262793090540610897
2838139 119 12324239477221350790
2871803 45 17967802882082508801
329604 57 18335141986244951518
3472631 163 7925644310257851473
465052 167 18129384959448609733
5104073 3 18201712917198653648
56633871 153 17989485238529180527
7970288 3 18340481283213163543

>  <PUBCHEM_SHAPE_MULTIPOLES>  (1) 
465.91
13.11
3.06
1.46
1.34
0.53
-0.54
-11.68
0.63
0.35
0.2
-0.49
-0.21
0.68

>  <PUBCHEM_SHAPE_SELFOVERLAP>  (1) 
937.52

>  <PUBCHEM_SHAPE_VOLUME>  (1) 
274.8

>  <PUBCHEM_COORDINATE_TYPE>  (1) 
2
5
10

$$$$
