1979
     RDKit          3D

 12 13  0  0  1  0  0  0  0  0999 V2000
   -1.3834   -0.6545   -0.2350 O   0  0  0  0  0  0  0  0  0  0  0  0
   -2.5774    1.3232   -0.2304 O   0  0  0  0  0  0  0  0  0  0  0  0
    1.5728    0.9246    0.8465 N   0  0  0  0  0  0  0  0  0  0  0  0
    0.9440   -0.9585   -0.8300 C   0  0  0  0  0  0  0  0  0  0  0  0
   -0.2155    0.0394   -0.6577 C   0  0  0  0  0  0  0  0  0  0  0  0
    1.3024   -1.5408    0.5484 C   0  0  0  0  0  0  0  0  0  0  0  0
    2.1612   -0.1655   -1.3266 C   0  0  0  0  0  0  0  0  0  0  0  0
    0.1788    1.1062    0.3794 C   0  0  0  0  0  0  0  0  0  0  0  0
    1.6816   -0.3967    1.5021 C   0  0  0  0  0  0  0  0  0  0  0  0
    2.4806    0.9539   -0.3217 C   0  0  0  0  0  0  0  0  0  0  0  0
   -2.5001    0.1142   -0.0587 C   0  0  0  0  0  0  0  0  0  0  0  0
   -3.6451   -0.7455    0.3836 C   0  0  0  0  0  0  0  0  0  0  0  0
  1  5  1  0
  1 11  1  0
  2 11  2  0
  3  8  1  0
  3  9  1  0
  3 10  1  0
  4  5  1  0
  4  6  1  0
  4  7  1  0
  5  8  1  0
  6  9  1  0
  7 10  1  0
 11 12  1  0
M  END
>  <PUBCHEM_COMPOUND_CID>  (1) 
1979

>  <PUBCHEM_CONFORMER_RMSD>  (1) 
0.6

>  <PUBCHEM_CONFORMER_DIVERSEORDER>  (1) 
1
2
5
3
4

>  <PUBCHEM_MMFF94_PARTIAL_CHARGES>  (1) 
9
1 -0.43
10 0.27
11 0.66
12 0.06
2 -0.57
3 -0.81
5 0.28
8 0.27
9 0.27

>  <PUBCHEM_EFFECTIVE_ROTOR_COUNT>  (1) 
3.2

>  <PUBCHEM_PHARMACOPHORE_FEATURES>  (1) 
3
1 2 acceptor
1 3 cation
8 3 4 5 6 7 8 9 10 rings

>  <PUBCHEM_HEAVY_ATOM_COUNT>  (1) 
12

>  <PUBCHEM_ATOM_DEF_STEREO_COUNT>  (1) 
0

>  <PUBCHEM_ATOM_UDEF_STEREO_COUNT>  (1) 
1

>  <PUBCHEM_BOND_DEF_STEREO_COUNT>  (1) 
0

>  <PUBCHEM_BOND_UDEF_STEREO_COUNT>  (1) 
0

>  <PUBCHEM_ISOTOPIC_ATOM_COUNT>  (1) 
0

>  <PUBCHEM_COMPONENT_COUNT>  (1) 
1

>  <PUBCHEM_CACTVS_TAUTO_COUNT>  (1) 
1

>  <PUBCHEM_CONFORMER_ID>  (1) 
000007BB00000001

>  <PUBCHEM_MMFF94_ENERGY>  (1) 
27.5397

>  <PUBCHEM_FEATURE_SELFOVERLAP>  (1) 
15.223

>  <PUBCHEM_SHAPE_FINGERPRINT>  (1) 
10219947 1 14707206647491765244
10857977 72 18411980291115629437
12423570 1 8107885029545860270
12932764 1 18131910455873981943
16945 1 18341037614241517326
20653091 64 18041556932246228706
21040471 1 17916573375390166782
21524375 3 17268605996012293968
230 275 17917418826622336201
3248919 1 16370729227434845609
5084963 1 17418097636980981799
528886 8 17560806575602370148
8030462 33 18333446530571940791

>  <PUBCHEM_SHAPE_MULTIPOLES>  (1) 
230.23
4.51
1.34
1.17
4.49
0.05
0.09
-0.04
0.04
-0.15
0.14
-0.79
0.13
0.03

>  <PUBCHEM_SHAPE_SELFOVERLAP>  (1) 
475.348

>  <PUBCHEM_SHAPE_VOLUME>  (1) 
128

>  <PUBCHEM_COORDINATE_TYPE>  (1) 
2
5
10

$$$$
