19814
     RDKit          3D

 13 13  0  0  0  0  0  0  0  0999 V2000
    2.5872   -1.0225    1.2711 O   0  0  0  0  0  0  0  0  0  0  0  0
   -2.0322    0.4608   -0.2747 N   0  0  0  0  0  0  0  0  0  0  0  0
   -3.8599   -0.9904   -0.3282 C   0  0  0  0  0  0  0  0  0  0  0  0
   -2.6367   -1.7490    0.1777 C   0  0  0  0  0  0  0  0  0  0  0  0
   -3.4930    0.4812   -0.2077 C   0  0  0  0  0  0  0  0  0  0  0  0
   -1.6298   -0.6732    0.5571 C   0  0  0  0  0  0  0  0  0  0  0  0
   -1.4380    1.7132    0.1684 C   0  0  0  0  0  0  0  0  0  0  0  0
    0.0243    1.6552    0.0874 C   0  0  0  0  0  0  0  0  0  0  0  0
    2.6897    1.5421   -0.0550 C   0  0  0  0  0  0  0  0  0  0  0  0
    3.1671    0.2474   -0.7083 C   0  0  0  0  0  0  0  0  0  0  0  0
    1.2228    1.6068    0.0227 C   0  0  0  0  0  0  0  0  0  0  0  0
    2.7707   -1.0079    0.0549 C   0  0  0  0  0  0  0  0  0  0  0  0
    2.6280   -2.2638   -0.7654 C   0  0  0  0  0  0  0  0  0  0  0  0
  1 12  2  0
  2  5  1  0
  2  6  1  0
  2  7  1  0
  3  4  1  0
  3  5  1  0
  4  6  1  0
  7  8  1  0
  8 11  3  0
  9 10  1  0
  9 11  1  0
 10 12  1  0
 12 13  1  0
M  END
>  <PUBCHEM_COMPOUND_CID>  (1) 
19814

>  <PUBCHEM_CONFORMER_RMSD>  (1) 
0.6

>  <PUBCHEM_CONFORMER_DIVERSEORDER>  (1) 
1
19
39
21
27
23
16
30
37
32
15
24
29
13
22
20
2
38
33
18
5
12
31
3
35
10
14
4
41
25
6
40
17
11
28
26
7
34
9
36
8

>  <PUBCHEM_MMFF94_PARTIAL_CHARGES>  (1) 
11
1 -0.57
10 0.06
11 -0.2
12 0.45
13 0.06
2 -0.81
5 0.27
6 0.27
7 0.47
8 -0.2
9 0.2

>  <PUBCHEM_EFFECTIVE_ROTOR_COUNT>  (1) 
4

>  <PUBCHEM_PHARMACOPHORE_FEATURES>  (1) 
3
1 1 acceptor
1 2 cation
5 2 3 4 5 6 rings

>  <PUBCHEM_HEAVY_ATOM_COUNT>  (1) 
13

>  <PUBCHEM_ATOM_DEF_STEREO_COUNT>  (1) 
0

>  <PUBCHEM_ATOM_UDEF_STEREO_COUNT>  (1) 
0

>  <PUBCHEM_BOND_DEF_STEREO_COUNT>  (1) 
0

>  <PUBCHEM_BOND_UDEF_STEREO_COUNT>  (1) 
0

>  <PUBCHEM_ISOTOPIC_ATOM_COUNT>  (1) 
0

>  <PUBCHEM_COMPONENT_COUNT>  (1) 
1

>  <PUBCHEM_CACTVS_TAUTO_COUNT>  (1) 
3

>  <PUBCHEM_CONFORMER_ID>  (1) 
00004D6600000001

>  <PUBCHEM_MMFF94_ENERGY>  (1) 
10.8306

>  <PUBCHEM_FEATURE_SELFOVERLAP>  (1) 
15.223

>  <PUBCHEM_SHAPE_FINGERPRINT>  (1) 
10616163 171 18339930414675139647
11987891 36 18411703205284356494
1420 336 17905331723594838082
14251705 54 18412548712419977814
14251717 144 18340201989831594599
14350558 41 18335706086648540004
15635459 17 18410862100148023670
15757776 16 18260265261531044584
17990270 104 18411704249182896980
19107657 46 18411419556859067262
19766037 51 18197800850368379254
20201158 50 18408887364511134642
20442098 301 18202280324895253662
20645477 70 18338513153024686919
23463225 33 18411139151561380317
23559900 14 18412537734716015592
2871803 45 18336266833589427236
4416823 128 18340773641604775598
474229 33 18267303330261384376
58051976 378 18262238949185513716
581208 293 18339921644579014648
7364860 26 18268991058481166952
8199 65 18338800129902242638
94968 8 18410296947134439668
9709674 26 18409169930314735839

>  <PUBCHEM_SHAPE_MULTIPOLES>  (1) 
256.68
7.02
2.4
0.83
1.92
0.31
0.09
2.45
-0.76
-0.92
-0.11
-0.35
0.21
0.1

>  <PUBCHEM_SHAPE_SELFOVERLAP>  (1) 
498.603

>  <PUBCHEM_SHAPE_VOLUME>  (1) 
155

>  <PUBCHEM_COORDINATE_TYPE>  (1) 
2
5
10

$$$$
