19830
     RDKit          3D

 13 13  0  0  0  0  0  0  0  0999 V2000
    1.9376   -1.7852   -0.4108 O   0  0  0  0  0  0  0  0  0  0  0  0
    2.8672    0.8128   -0.1728 O   0  0  0  0  0  0  0  0  0  0  0  0
    1.0656    2.8884    0.1636 O   0  0  0  0  0  0  0  0  0  0  0  0
   -3.4985    0.6431    0.1751 O   0  0  0  0  0  0  0  0  0  0  0  0
   -1.2096    0.0337   -0.0247 C   0  0  0  0  0  0  0  0  0  0  0  0
    1.0643   -0.7531   -0.2433 C   0  0  0  0  0  0  0  0  0  0  0  0
   -0.3050   -1.0146   -0.1939 C   0  0  0  0  0  0  0  0  0  0  0  0
   -0.7451    1.3434    0.0951 C   0  0  0  0  0  0  0  0  0  0  0  0
    1.5289    0.5567   -0.1236 C   0  0  0  0  0  0  0  0  0  0  0  0
    0.6241    1.6049    0.0456 C   0  0  0  0  0  0  0  0  0  0  0  0
   -2.6375   -0.2389    0.0264 C   0  0  0  0  0  0  0  0  0  0  0  0
   -3.1192   -1.6734   -0.1064 C   0  0  0  0  0  0  0  0  0  0  0  0
    2.4272   -2.4179    0.7698 C   0  0  0  0  0  0  0  0  0  0  0  0
  1  6  1  0
  1 13  1  0
  2  9  1  0
  3 10  1  0
  4 11  2  0
  5  7  2  0
  5  8  1  0
  5 11  1  0
  6  7  1  0
  6  9  2  0
  8 10  2  0
  9 10  1  0
 11 12  1  0
M  END
>  <PUBCHEM_COMPOUND_CID>  (1) 
19830

>  <PUBCHEM_CONFORMER_RMSD>  (1) 
0.6

>  <PUBCHEM_CONFORMER_DIVERSEORDER>  (1) 
1
4
5
6
3
2

>  <PUBCHEM_MMFF94_PARTIAL_CHARGES>  (1) 
17
1 -0.36
10 0.08
11 0.42
12 0.06
13 0.28
14 0.15
15 0.15
2 -0.53
22 0.45
23 0.45
3 -0.53
4 -0.57
5 0.09
6 0.08
7 -0.15
8 -0.15
9 0.08

>  <PUBCHEM_EFFECTIVE_ROTOR_COUNT>  (1) 
2

>  <PUBCHEM_PHARMACOPHORE_FEATURES>  (1) 
5
1 1 acceptor
1 2 donor
1 3 donor
1 4 acceptor
6 5 6 7 8 9 10 rings

>  <PUBCHEM_HEAVY_ATOM_COUNT>  (1) 
13

>  <PUBCHEM_ATOM_DEF_STEREO_COUNT>  (1) 
0

>  <PUBCHEM_ATOM_UDEF_STEREO_COUNT>  (1) 
0

>  <PUBCHEM_BOND_DEF_STEREO_COUNT>  (1) 
0

>  <PUBCHEM_BOND_UDEF_STEREO_COUNT>  (1) 
0

>  <PUBCHEM_ISOTOPIC_ATOM_COUNT>  (1) 
0

>  <PUBCHEM_COMPONENT_COUNT>  (1) 
1

>  <PUBCHEM_CACTVS_TAUTO_COUNT>  (1) 
22

>  <PUBCHEM_CONFORMER_ID>  (1) 
00004D7600000001

>  <PUBCHEM_MMFF94_ENERGY>  (1) 
44.2302

>  <PUBCHEM_FEATURE_SELFOVERLAP>  (1) 
25.376

>  <PUBCHEM_SHAPE_FINGERPRINT>  (1) 
1 1 18194400219532523692
10130415 120 18264489486178086747
13380535 76 17621598741011559052
14325111 11 18196373851874325493
15442244 35 18340489946304111129
16945 1 18338514248046304765
17990270 104 18411138060623940739
19021347 11 18337952423332194934
193761 8 18122908625196810268
20201158 50 18335983168158341907
20645476 183 17536608657138018908
20645477 70 18199186364269575871
20711985 365 18120654621822094709
20871998 184 17767955438074998214
20871998 22 18126572223583860726
21040471 1 17619349148584230116
21501502 16 18410855469203536055
21501925 9 18339348713031978763
21524375 3 17767686422608502396
21650355 55 17469864603360074434
2334 1 18339362963537976156
23463225 33 18338516339663729366
23552423 10 18338238283770974357
241688 4 18194686955954967864
2748010 2 18268144262607326612
53812653 166 18343018938611355272
5902787 121 18334852775494603555
63268167 104 18411143523906614009
7364860 26 18342176712603966042
81228 2 17764313838156711208

>  <PUBCHEM_SHAPE_MULTIPOLES>  (1) 
244.06
4.52
2.61
0.66
2.7
0.3
-0.03
-1.67
-0.22
-1.58
-0.33
-0.11
-0.14
-0.32

>  <PUBCHEM_SHAPE_SELFOVERLAP>  (1) 
510.903

>  <PUBCHEM_SHAPE_VOLUME>  (1) 
139.7

>  <PUBCHEM_COORDINATE_TYPE>  (1) 
2
5
10

$$$$
