19843
     RDKit          3D

 15 15  0  0  0  0  0  0  0  0999 V2000
    1.9939   -0.3806    0.0188 O   0  0  0  0  0  0  0  0  0  0  0  0
    4.0953   -1.2503   -0.2061 O   0  0  0  0  0  0  0  0  0  0  0  0
   -3.1756   -0.2711   -0.2558 N   0  0  0  0  0  0  0  0  0  0  0  0
    3.8156    1.0488    0.0025 N   0  0  0  0  0  0  0  0  0  0  0  0
   -4.8981    1.3012   -0.3740 C   0  0  0  0  0  0  0  0  0  0  0  0
   -3.6103    2.0024    0.0475 C   0  0  0  0  0  0  0  0  0  0  0  0
   -4.6324   -0.1817   -0.1603 C   0  0  0  0  0  0  0  0  0  0  0  0
   -2.6748    0.8855    0.4862 C   0  0  0  0  0  0  0  0  0  0  0  0
   -2.6608   -1.5295    0.2633 C   0  0  0  0  0  0  0  0  0  0  0  0
   -1.2002   -1.5835    0.1514 C   0  0  0  0  0  0  0  0  0  0  0  0
   -0.0034   -1.6319    0.0613 C   0  0  0  0  0  0  0  0  0  0  0  0
    1.4534   -1.6924   -0.0499 C   0  0  0  0  0  0  0  0  0  0  0  0
    3.3620   -0.2722   -0.0721 C   0  0  0  0  0  0  0  0  0  0  0  0
    5.2340    1.3847   -0.0745 C   0  0  0  0  0  0  0  0  0  0  0  0
    2.9012    2.1705    0.1617 C   0  0  0  0  0  0  0  0  0  0  0  0
  1 12  1  0
  1 13  1  0
  2 13  2  0
  3  7  1  0
  3  8  1  0
  3  9  1  0
  4 13  1  0
  4 14  1  0
  4 15  1  0
  5  6  1  0
  5  7  1  0
  6  8  1  0
  9 10  1  0
 10 11  3  0
 11 12  1  0
M  END
>  <PUBCHEM_COMPOUND_CID>  (1) 
19843

>  <PUBCHEM_CONFORMER_RMSD>  (1) 
0.6

>  <PUBCHEM_CONFORMER_DIVERSEORDER>  (1) 
1
61
53
32
24
58
46
9
60
55
54
8
48
45
16
59
10
26
50
22
47
18
13
28
38
57
17
11
35
31
33
39
42
14
2
30
37
52
27
15
29
40
56
62
21
44
43
51
12
49
7
4
25
36
19
41
23
6
34
20
3
5

>  <PUBCHEM_MMFF94_PARTIAL_CHARGES>  (1) 
13
1 -0.43
10 -0.2
11 -0.2
12 0.48
13 0.78
14 0.3
15 0.3
2 -0.57
3 -0.81
4 -0.66
7 0.27
8 0.27
9 0.47

>  <PUBCHEM_EFFECTIVE_ROTOR_COUNT>  (1) 
5

>  <PUBCHEM_PHARMACOPHORE_FEATURES>  (1) 
3
1 2 acceptor
1 3 cation
5 3 5 6 7 8 rings

>  <PUBCHEM_HEAVY_ATOM_COUNT>  (1) 
15

>  <PUBCHEM_ATOM_DEF_STEREO_COUNT>  (1) 
0

>  <PUBCHEM_ATOM_UDEF_STEREO_COUNT>  (1) 
0

>  <PUBCHEM_BOND_DEF_STEREO_COUNT>  (1) 
0

>  <PUBCHEM_BOND_UDEF_STEREO_COUNT>  (1) 
0

>  <PUBCHEM_ISOTOPIC_ATOM_COUNT>  (1) 
0

>  <PUBCHEM_COMPONENT_COUNT>  (1) 
1

>  <PUBCHEM_CACTVS_TAUTO_COUNT>  (1) 
1

>  <PUBCHEM_CONFORMER_ID>  (1) 
00004D8300000001

>  <PUBCHEM_MMFF94_ENERGY>  (1) 
18.966

>  <PUBCHEM_FEATURE_SELFOVERLAP>  (1) 
15.223

>  <PUBCHEM_SHAPE_FINGERPRINT>  (1) 
10498660 4 18411419496898505441
122479 349 18334859441230878346
12596602 18 16226331520283642472
13081056 2 18411140220981915135
14123255 352 18409166618878996556
14123255 52 18409165506635791915
14252887 29 13262396631550253874
15196674 1 18410575080373399361
17834072 32 18411421687458206105
17834072 8 18271815597000584462
20300324 65 18130784569068390367
20645477 56 18335428941531743399
212847 35 18333452032625552414
21652331 79 18409167714406971213
22959321 54 18411700967627442355
23227448 37 18340767130555700327
23402655 69 18273496779943129230
23557571 272 18199758114036025495
23559900 14 18199748042422410914
27216 239 18261117378863720075
3472631 163 18128255580850963701
351380 180 18412260627424905263
351380 3 10519989265915104212
4028521 119 18411981351793216489
474 4 17894915165044074206
5104073 3 18333170552773847395
8199 26 18410856546955367299

>  <PUBCHEM_SHAPE_MULTIPOLES>  (1) 
286.99
11.82
2.44
0.64
2.92
0.37
0.01
6.21
-0.94
0.27
0.08
-0.15
0.02
0.24

>  <PUBCHEM_SHAPE_SELFOVERLAP>  (1) 
559.465

>  <PUBCHEM_SHAPE_VOLUME>  (1) 
175.1

>  <PUBCHEM_COORDINATE_TYPE>  (1) 
2
5
10

$$$$
