19847
     RDKit          3D

 14 13  0  0  0  0  0  0  0  0999 V2000
   -6.1112    0.9941    0.0189 Cl  0  0  0  0  0  0  0  0  0  0  0  0
    6.1114   -0.9934    0.0189 Cl  0  0  0  0  0  0  0  0  0  0  0  0
   -2.0710   -0.6535   -0.0012 S   0  0  0  0  0  0  0  0  0  0  0  0
    2.0709    0.6534   -0.0012 S   0  0  0  0  0  0  0  0  0  0  0  0
   -2.1189   -1.3918    1.2498 O   0  0  0  0  0  0  0  0  0  0  0  0
   -2.0964   -1.3543   -1.2741 O   0  0  0  0  0  0  0  0  0  0  0  0
    2.1186    1.3916    1.2497 O   0  0  0  0  0  0  0  0  0  0  0  0
    2.0961    1.3540   -1.2741 O   0  0  0  0  0  0  0  0  0  0  0  0
   -0.6485    0.3902    0.0270 C   0  0  0  0  0  0  0  0  0  0  0  0
    0.6486   -0.3908    0.0270 C   0  0  0  0  0  0  0  0  0  0  0  0
   -3.4262    0.4979    0.0038 C   0  0  0  0  0  0  0  0  0  0  0  0
    3.4265   -0.4978    0.0038 C   0  0  0  0  0  0  0  0  0  0  0  0
   -4.7793   -0.1863   -0.0242 C   0  0  0  0  0  0  0  0  0  0  0  0
    4.7793    0.1867   -0.0242 C   0  0  0  0  0  0  0  0  0  0  0  0
  1 13  1  0
  2 14  1  0
  3  5  2  0
  3  6  2  0
  3  9  1  0
  3 11  1  0
  4  7  2  0
  4  8  2  0
  4 10  1  0
  4 12  1  0
  9 10  1  0
 11 13  1  0
 12 14  1  0
M  END
>  <PUBCHEM_COMPOUND_CID>  (1) 
19847

>  <PUBCHEM_CONFORMER_RMSD>  (1) 
0.8

>  <PUBCHEM_CONFORMER_DIVERSEORDER>  (1) 
1
65
53
38
56
41
49
7
57
68
21
10
52
34
50
6
40
59
12
47
16
36
67
22
60
23
44
45
42
27
9
66
55
19
17
58
43
33
48
15
54
4
51
46
2
64
3
61
37
11
62
26
63
18
28
14
35
39
24
25
30
29
31
8
32
5
13
20

>  <PUBCHEM_MMFF94_PARTIAL_CHARGES>  (1) 
14
1 -0.29
10 0.11
11 0.11
12 0.11
13 0.29
14 0.29
2 -0.29
3 1.09
4 1.09
5 -0.65
6 -0.65
7 -0.65
8 -0.65
9 0.11

>  <PUBCHEM_EFFECTIVE_ROTOR_COUNT>  (1) 
7

>  <PUBCHEM_PHARMACOPHORE_FEATURES>  (1) 
4
1 5 acceptor
1 6 acceptor
1 7 acceptor
1 8 acceptor

>  <PUBCHEM_HEAVY_ATOM_COUNT>  (1) 
14

>  <PUBCHEM_ATOM_DEF_STEREO_COUNT>  (1) 
0

>  <PUBCHEM_ATOM_UDEF_STEREO_COUNT>  (1) 
0

>  <PUBCHEM_BOND_DEF_STEREO_COUNT>  (1) 
0

>  <PUBCHEM_BOND_UDEF_STEREO_COUNT>  (1) 
0

>  <PUBCHEM_ISOTOPIC_ATOM_COUNT>  (1) 
0

>  <PUBCHEM_COMPONENT_COUNT>  (1) 
1

>  <PUBCHEM_CACTVS_TAUTO_COUNT>  (1) 
1

>  <PUBCHEM_CONFORMER_ID>  (1) 
00004D8700000001

>  <PUBCHEM_MMFF94_ENERGY>  (1) 
5.6688

>  <PUBCHEM_FEATURE_SELFOVERLAP>  (1) 
20.334

>  <PUBCHEM_SHAPE_FINGERPRINT>  (1) 
124424 183 18272936033075835304
12815109 37 17561081401874741378
12916748 109 12324240555901499374
12932764 1 15647319905261322251
13533116 47 15554171359179261638
1420 363 8502371152511703897
14251718 22 8934999269889670133
14251731 8 18259703384844661215
14251752 14 18187922824766297300
15531645 54 18410856538170234344
17834072 8 18410575067483209901
17834076 25 15697997426998800654
18186145 218 16951117499248859980
187816 3 15626222412519729347
19489759 90 15841552955446109251
200 152 9727633899729344223
20279233 1 16773805813194331302
20645477 70 18059860498388581694
20767249 213 11455882568820498482
212847 35 18413392050728723473
21618674 57 18410573976561517056
23218964 4 18410855438658606573
23402539 116 17489862731257029589
23557571 272 10447938268910097762
23559900 14 18340482365196450920
42788 4 18410575084932175713
58051976 100 18201434817776028399
59755656 520 18040432192587717659

>  <PUBCHEM_SHAPE_MULTIPOLES>  (1) 
276.07
13.61
1.31
0.95
0
0
0.01
0
-0.03
0
-0.01
0
0
-0.02

>  <PUBCHEM_SHAPE_SELFOVERLAP>  (1) 
477.798

>  <PUBCHEM_SHAPE_VOLUME>  (1) 
183.9

>  <PUBCHEM_COORDINATE_TYPE>  (1) 
2
5
10

$$$$
