19840
     RDKit          3D

 12 12  0  0  0  0  0  0  0  0999 V2000
   -0.1702   -0.7029   -0.6431 O   0  0  0  0  0  0  0  0  0  0  0  0
    3.2838    0.3780    0.0294 N   0  0  0  0  0  0  0  0  0  0  0  0
    4.4795   -0.3957    0.2476 N   0  0  0  0  0  0  0  0  0  0  0  0
    2.1782   -0.5213   -0.1631 C   0  0  0  0  0  0  0  0  0  0  0  0
    0.8862    0.2311   -0.4244 C   0  0  0  0  0  0  0  0  0  0  0  0
   -1.4242   -0.3150   -0.2839 C   0  0  0  0  0  0  0  0  0  0  0  0
   -1.7776    1.0336   -0.3307 C   0  0  0  0  0  0  0  0  0  0  0  0
   -2.3561   -1.2661    0.1317 C   0  0  0  0  0  0  0  0  0  0  0  0
   -3.0628    1.4311    0.0383 C   0  0  0  0  0  0  0  0  0  0  0  0
   -3.6413   -0.8685    0.5004 C   0  0  0  0  0  0  0  0  0  0  0  0
   -3.9945    0.4801    0.4538 C   0  0  0  0  0  0  0  0  0  0  0  0
    5.5991    0.5155    0.4441 C   0  0  0  0  0  0  0  0  0  0  0  0
  1  5  1  0
  1  6  1  0
  2  3  1  0
  2  4  1  0
  3 12  1  0
  4  5  1  0
  6  7  2  0
  6  8  1  0
  7  9  1  0
  8 10  2  0
  9 11  2  0
 10 11  1  0
M  END
>  <PUBCHEM_COMPOUND_CID>  (1) 
19840

>  <PUBCHEM_CONFORMER_RMSD>  (1) 
0.6

>  <PUBCHEM_CONFORMER_DIVERSEORDER>  (1) 
2
48
16
13
37
27
34
22
42
24
4
46
32
28
31
38
45
47
1
17
33
6
14
41
30
11
36
19
12
29
18
26
44
23
10
40
25
8
43
35
20
15
9
21
39
7
5
3

>  <PUBCHEM_MMFF94_PARTIAL_CHARGES>  (1) 
19
1 -0.36
10 -0.15
11 -0.15
12 0.27
17 0.36
18 0.15
19 0.15
2 -0.63
20 0.36
21 0.15
22 0.15
23 0.15
3 -0.63
4 0.27
5 0.28
6 0.08
7 -0.15
8 -0.15
9 -0.15

>  <PUBCHEM_EFFECTIVE_ROTOR_COUNT>  (1) 
5

>  <PUBCHEM_PHARMACOPHORE_FEATURES>  (1) 
4
1 1 acceptor
1 2 donor
1 3 donor
6 6 7 8 9 10 11 rings

>  <PUBCHEM_HEAVY_ATOM_COUNT>  (1) 
12

>  <PUBCHEM_ATOM_DEF_STEREO_COUNT>  (1) 
0

>  <PUBCHEM_ATOM_UDEF_STEREO_COUNT>  (1) 
0

>  <PUBCHEM_BOND_DEF_STEREO_COUNT>  (1) 
0

>  <PUBCHEM_BOND_UDEF_STEREO_COUNT>  (1) 
0

>  <PUBCHEM_ISOTOPIC_ATOM_COUNT>  (1) 
0

>  <PUBCHEM_COMPONENT_COUNT>  (1) 
1

>  <PUBCHEM_CACTVS_TAUTO_COUNT>  (1) 
1

>  <PUBCHEM_CONFORMER_ID>  (1) 
00004D8000000002

>  <PUBCHEM_MMFF94_ENERGY>  (1) 
27.6644

>  <PUBCHEM_FEATURE_SELFOVERLAP>  (1) 
21.57

>  <PUBCHEM_SHAPE_FINGERPRINT>  (1) 
12251169 10 18334016098732348589
13214271 11 18272087197551900565
13897977 58 18409172133838771612
14123238 8 18410292523566044556
15219456 202 18130233644438043639
20279233 1 18131077021343284351
20432913 95 15791728581806959984
20645464 45 18131075926585403719
20645477 56 17989204858742340276
20645477 70 16702030716984339942
20828058 44 18260547827239563922
20871999 31 10663820737626610563
21119208 17 11167941359599478754
22485316 2 17385718076210441450
23402539 116 18411414038649187279
23402655 69 11887686047602787194
23403322 49 11241967075130038056
42 15 18259704480493916242
449060 50 18272371966763174422

>  <PUBCHEM_SHAPE_MULTIPOLES>  (1) 
231.12
10.33
1.22
0.72
15.19
0.09
0
1.19
2.65
-1.11
0.02
-0.07
-0.01
0.2

>  <PUBCHEM_SHAPE_SELFOVERLAP>  (1) 
457.721

>  <PUBCHEM_SHAPE_VOLUME>  (1) 
138.6

>  <PUBCHEM_COORDINATE_TYPE>  (1) 
2
5
10

$$$$
