19863
     RDKit          3D

 35 39  0  0  1  0  0  0  0  0999 V2000
   -0.2308   -3.3253   -2.0614 O   0  0  0  0  0  0  0  0  0  0  0  0
    8.2119    3.3213    0.2281 O   0  0  0  0  0  0  0  0  0  0  0  0
   -3.5698   -0.7737    0.8253 O   0  0  0  0  0  0  0  0  0  0  0  0
   -4.6423   -0.0546    2.7370 O   0  0  0  0  0  0  0  0  0  0  0  0
    1.6105   -1.9349   -1.1582 C   0  0  0  0  0  0  0  0  0  0  0  0
    2.3981   -2.0754    0.1642 C   0  0  0  0  0  0  0  0  0  0  0  0
    3.7278   -1.3183    0.1386 C   0  0  0  0  0  0  0  0  0  0  0  0
    0.4065   -2.8823   -0.8710 C   0  0  0  0  0  0  0  0  0  0  0  0
    3.4416    0.1981   -0.0779 C   0  0  0  0  0  0  0  0  0  0  0  0
    1.2954   -0.4433   -1.3704 C   0  0  0  0  0  0  0  0  0  0  0  0
    2.4157   -3.5820    0.4102 C   0  0  0  0  0  0  0  0  0  0  0  0
    1.0757   -4.0886   -0.1627 C   0  0  0  0  0  0  0  0  0  0  0  0
    2.5658    0.4291   -1.3378 C   0  0  0  0  0  0  0  0  0  0  0  0
    4.5258   -1.4931    1.4329 C   0  0  0  0  0  0  0  0  0  0  0  0
    2.3867   -2.4502   -2.4065 C   0  0  0  0  0  0  0  0  0  0  0  0
    4.7286    1.0175   -0.0268 C   0  0  0  0  0  0  0  0  0  0  0  0
    5.8978   -0.8422    1.2874 C   0  0  0  0  0  0  0  0  0  0  0  0
    5.8634    0.5287    0.6570 C   0  0  0  0  0  0  0  0  0  0  0  0
   -0.6198   -2.2917    0.0106 C   0  0  0  0  0  0  0  0  0  0  0  0
    4.7913    2.3097   -0.5780 C   0  0  0  0  0  0  0  0  0  0  0  0
    7.0313    1.3089    0.7241 C   0  0  0  0  0  0  0  0  0  0  0  0
    5.9546    3.0781   -0.4960 C   0  0  0  0  0  0  0  0  0  0  0  0
   -1.4550   -1.8115    0.7275 C   0  0  0  0  0  0  0  0  0  0  0  0
    7.0765    2.5762    0.1505 C   0  0  0  0  0  0  0  0  0  0  0  0
   -2.4707   -1.2273    1.6028 C   0  0  0  0  0  0  0  0  0  0  0  0
    8.1840    4.6136   -0.3768 C   0  0  0  0  0  0  0  0  0  0  0  0
   -4.6009   -0.2004    1.5232 C   0  0  0  0  0  0  0  0  0  0  0  0
   -5.6830    0.2236    0.5564 C   0  0  0  0  0  0  0  0  0  0  0  0
   -6.8531    0.9000    1.2700 C   0  0  0  0  0  0  0  0  0  0  0  0
   -7.9263    1.3250    0.3016 C   0  0  0  0  0  0  0  0  0  0  0  0
   -7.8708    2.5897   -0.2663 C   0  0  0  0  0  0  0  0  0  0  0  0
   -8.9535    0.4453   -0.0080 C   0  0  0  0  0  0  0  0  0  0  0  0
   -8.8642    2.9832   -1.1630 C   0  0  0  0  0  0  0  0  0  0  0  0
   -9.9468    0.8389   -0.9047 C   0  0  0  0  0  0  0  0  0  0  0  0
   -9.9020    2.1079   -1.4822 C   0  0  0  0  0  0  0  0  0  0  0  0
  1  8  1  0
  2 24  1  0
  2 26  1  0
  3 25  1  0
  3 27  1  0
  4 27  2  0
  5  6  1  0
  5  8  1  0
  5 10  1  0
  5 15  1  0
  6  7  1  0
  6 11  1  0
  7  9  1  0
  7 14  1  0
  8 12  1  0
  8 19  1  0
  9 13  1  0
  9 16  1  0
 10 13  1  0
 11 12  1  0
 14 17  1  0
 16 18  2  0
 16 20  1  0
 17 18  1  0
 18 21  1  0
 19 23  3  0
 20 22  2  0
 21 24  2  0
 22 24  1  0
 23 25  1  0
 27 28  1  0
 28 29  1  0
 29 30  1  0
 30 31  2  0
 30 32  1  0
 31 33  1  0
 32 34  2  0
 33 35  2  0
 34 35  1  0
M  END
>  <PUBCHEM_COMPOUND_CID>  (1) 
19863

>  <PUBCHEM_CONFORMER_RMSD>  (1) 
1

>  <PUBCHEM_CONFORMER_DIVERSEORDER>  (1) 
1
45
46
18
15
10
19
8
52
5
16
14
42
38
20
13
47
23
26
32
41
11
7
22
17
44
37
9
43
39
36
12
31
2
33
54
35
25
55
28
6
49
48
27
30
34
24
4
21
3
29
53
50
40
51

>  <PUBCHEM_MMFF94_PARTIAL_CHARGES>  (1) 
35
1 -0.68
16 -0.14
17 0.14
18 -0.14
19 -0.2
2 -0.36
20 -0.15
21 -0.15
22 -0.15
23 -0.2
24 0.08
25 0.48
26 0.28
27 0.66
28 0.06
29 0.14
3 -0.43
30 -0.14
31 -0.15
32 -0.15
33 -0.15
34 -0.15
35 -0.15
4 -0.57
54 0.4
55 0.15
56 0.15
57 0.15
67 0.15
68 0.15
69 0.15
70 0.15
71 0.15
8 0.48
9 0.14

>  <PUBCHEM_EFFECTIVE_ROTOR_COUNT>  (1) 
7.4

>  <PUBCHEM_PHARMACOPHORE_FEATURES>  (1) 
9
1 1 acceptor
1 1 donor
1 2 acceptor
1 4 acceptor
5 5 6 8 11 12 rings
6 16 18 20 21 22 24 rings
6 30 31 32 33 34 35 rings
6 5 6 7 9 10 13 rings
6 7 9 14 16 17 18 rings

>  <PUBCHEM_HEAVY_ATOM_COUNT>  (1) 
35

>  <PUBCHEM_ATOM_DEF_STEREO_COUNT>  (1) 
5

>  <PUBCHEM_ATOM_UDEF_STEREO_COUNT>  (1) 
0

>  <PUBCHEM_BOND_DEF_STEREO_COUNT>  (1) 
0

>  <PUBCHEM_BOND_UDEF_STEREO_COUNT>  (1) 
0

>  <PUBCHEM_ISOTOPIC_ATOM_COUNT>  (1) 
0

>  <PUBCHEM_COMPONENT_COUNT>  (1) 
1

>  <PUBCHEM_CACTVS_TAUTO_COUNT>  (1) 
1

>  <PUBCHEM_CONFORMER_ID>  (1) 
00004D9700000001

>  <PUBCHEM_MMFF94_ENERGY>  (1) 
110.5898

>  <PUBCHEM_FEATURE_SELFOVERLAP>  (1) 
45.767

>  <PUBCHEM_SHAPE_FINGERPRINT>  (1) 
10006869 2 18411698782101096328
10280341 67 18129372864916410464
10533779 1 18342451595392343440
10842051 180 17989210339226748785
11135609 127 18337950066302543191
11476731 99 17826224091967235389
11621639 307 17619069873190724388
12047536 79 18040435447486697427
12522641 126 16128104325449374055
12522641 24 17532082796083659523
12522641 68 18059016202028374846
14040221 126 10087104941471020596
14117953 113 18343028774745689968
14118638 360 17203612532971504457
14294032 229 17559125482280112743
14400156 96 18339916026952124770
15131766 46 18340476863485665319
15274700 208 17631440328338553256
15320294 125 13551474761511431379
15350500 55 18333453161822344497
15840311 113 18334576837336891974
15890870 6 18412828014549529032
16120349 189 18342180006997083926
20587220 17 17822283566308215178
20609170 114 17824265032786715299
20721686 146 18337394937284309796
21033648 29 17603871091867672607
21585482 111 18335706082949976712
23516275 100 18335420141107701693
23569914 2 16626845231778539320
2835820 25 15791999057952889197
2851757 15 18408045104746024339
3862424 121 10447932762761822737
3918712 181 18342178890195343560
397638 26 16153713090523491833
397638 5 16443060574842058797
4112364 45 18260258634048737770
4169191 19 18342464716870282505
4330586 98 12031790305614868872
437795 160 16950574298931887467
4403749 210 18338802346137522963
44880568 143 18055636115186627161
5372103 7 18410573994316762601
54039377 194 8718558202929046504
6058803 2 16411562723180958483
6327066 14 18271812375463810806
9831232 110 11311773930838670865

>  <PUBCHEM_SHAPE_MULTIPOLES>  (1) 
696.81
31.75
5.11
1.73
70.93
0.88
0.05
45.14
1.03
-8.85
1.65
1.32
-0.83
1.64

>  <PUBCHEM_SHAPE_SELFOVERLAP>  (1) 
1498.843

>  <PUBCHEM_SHAPE_VOLUME>  (1) 
381.6

>  <PUBCHEM_COORDINATE_TYPE>  (1) 
2
5
10

$$$$
