19860
     RDKit          3D

 11 11  0  0  0  0  0  0  0  0999 V2000
   -2.4671    2.0679   -0.0002 Cl  0  0  0  0  0  0  0  0  0  0  0  0
   -3.1516   -0.8591    0.0011 O   0  0  0  0  0  0  0  0  0  0  0  0
    3.0970   -0.9136    0.0010 O   0  0  0  0  0  0  0  0  0  0  0  0
    2.8641    1.3474    0.0001 O   0  0  0  0  0  0  0  0  0  0  0  0
    0.9213   -0.0487   -0.0004 C   0  0  0  0  0  0  0  0  0  0  0  0
    0.0090    1.0065    0.0001 C   0  0  0  0  0  0  0  0  0  0  0  0
    0.4635   -1.3664   -0.0007 C   0  0  0  0  0  0  0  0  0  0  0  0
   -1.8186   -0.5735   -0.0003 C   0  0  0  0  0  0  0  0  0  0  0  0
   -1.3609    0.7441    0.0001 C   0  0  0  0  0  0  0  0  0  0  0  0
   -0.9065   -1.6288   -0.0006 C   0  0  0  0  0  0  0  0  0  0  0  0
    2.3498    0.2242   -0.0002 C   0  0  0  0  0  0  0  0  0  0  0  0
  1  9  1  0
  2  8  1  0
  3 11  1  0
  4 11  2  0
  5  6  2  0
  5  7  1  0
  5 11  1  0
  6  9  1  0
  7 10  2  0
  8  9  2  0
  8 10  1  0
M  END
>  <PUBCHEM_COMPOUND_CID>  (1) 
19860

>  <PUBCHEM_CONFORMER_RMSD>  (1) 
0.4

>  <PUBCHEM_CONFORMER_DIVERSEORDER>  (1) 
1
2

>  <PUBCHEM_MMFF94_PARTIAL_CHARGES>  (1) 
16
1 -0.18
10 -0.15
11 0.63
12 0.15
13 0.15
14 0.15
15 0.45
16 0.5
2 -0.53
3 -0.65
4 -0.57
5 0.09
6 -0.15
7 -0.15
8 0.08
9 0.18

>  <PUBCHEM_EFFECTIVE_ROTOR_COUNT>  (1) 
1

>  <PUBCHEM_PHARMACOPHORE_FEATURES>  (1) 
5
1 2 donor
1 3 acceptor
1 4 acceptor
3 3 4 11 anion
6 5 6 7 8 9 10 rings

>  <PUBCHEM_HEAVY_ATOM_COUNT>  (1) 
11

>  <PUBCHEM_ATOM_DEF_STEREO_COUNT>  (1) 
0

>  <PUBCHEM_ATOM_UDEF_STEREO_COUNT>  (1) 
0

>  <PUBCHEM_BOND_DEF_STEREO_COUNT>  (1) 
0

>  <PUBCHEM_BOND_UDEF_STEREO_COUNT>  (1) 
0

>  <PUBCHEM_ISOTOPIC_ATOM_COUNT>  (1) 
0

>  <PUBCHEM_COMPONENT_COUNT>  (1) 
1

>  <PUBCHEM_CACTVS_TAUTO_COUNT>  (1) 
4

>  <PUBCHEM_CONFORMER_ID>  (1) 
00004D9400000001

>  <PUBCHEM_MMFF94_ENERGY>  (1) 
28.0957

>  <PUBCHEM_FEATURE_SELFOVERLAP>  (1) 
25.429

>  <PUBCHEM_SHAPE_FINGERPRINT>  (1) 
11206711 2 18411133645534626445
12932764 1 17561077046809571236
13380535 21 18195822768820240223
13380535 76 18194960747504061615
14325111 11 18410575071957732960
15775835 57 18189060806621852332
16945 1 18338516468422986503
193761 8 18050285869318259623
19973954 147 18410857676611134244
20653085 51 18337965497260012920
20871998 184 18128824220987095279
21040471 1 18338798914067567812
21501502 16 18410010992269481874
23402539 116 18342163510143738247
23402655 69 18196917891756877045
23552423 10 18333450937092543086
23559900 14 18200036128323922686
241688 4 17979911936756740403
2748010 2 18339364067360298181
369184 2 18342457070952541730
5084963 1 18272933825436277858
528886 8 18266734684342181921
6333449 129 18411697647681259837

>  <PUBCHEM_SHAPE_MULTIPOLES>  (1) 
210.64
4.41
1.91
0.59
1.28
0.23
0
0.86
0
-0.83
0
-0.04
0.01
0

>  <PUBCHEM_SHAPE_SELFOVERLAP>  (1) 
436.717

>  <PUBCHEM_SHAPE_VOLUME>  (1) 
121.7

>  <PUBCHEM_COORDINATE_TYPE>  (1) 
2
5
10

$$$$
