19862
     RDKit          3D

 21 21  0  0  1  0  0  0  0  0999 V2000
   -3.9481   -2.0599   -1.1218 Cl  0  0  0  0  0  0  0  0  0  0  0  0
   -6.9362    1.8637    1.0438 Cl  0  0  0  0  0  0  0  0  0  0  0  0
    3.9707   -0.3863    0.1051 O   0  0  0  0  0  0  0  0  0  0  0  0
    1.3475   -1.1603    0.5614 O   0  0  0  0  0  0  0  0  0  0  0  0
   -1.7181   -0.0515   -0.8878 O   0  0  0  0  0  0  0  0  0  0  0  0
    0.1803   -1.9082   -1.2843 O   0  0  0  0  0  0  0  0  0  0  0  0
    2.3553   -2.1432    0.3294 C   0  0  0  0  0  0  0  0  0  0  0  0
    5.4563    1.4491   -0.2922 C   0  0  0  0  0  0  0  0  0  0  0  0
    3.6880   -1.5858    0.8131 C   0  0  0  0  0  0  0  0  0  0  0  0
    5.2158    0.1723    0.5007 C   0  0  0  0  0  0  0  0  0  0  0  0
    6.7894    2.0961    0.0722 C   0  0  0  0  0  0  0  0  0  0  0  0
    1.9813   -3.4161    1.0739 C   0  0  0  0  0  0  0  0  0  0  0  0
    7.0455    3.3472   -0.7528 C   0  0  0  0  0  0  0  0  0  0  0  0
    0.3095   -1.1551   -0.3288 C   0  0  0  0  0  0  0  0  0  0  0  0
   -0.6610   -0.0679    0.0507 C   0  0  0  0  0  0  0  0  0  0  0  0
   -2.9454    0.3746   -0.4406 C   0  0  0  0  0  0  0  0  0  0  0  0
   -4.0634   -0.4577   -0.4930 C   0  0  0  0  0  0  0  0  0  0  0  0
   -3.0613    1.6668    0.0720 C   0  0  0  0  0  0  0  0  0  0  0  0
   -5.2974    0.0019   -0.0327 C   0  0  0  0  0  0  0  0  0  0  0  0
   -4.2953    2.1264    0.5320 C   0  0  0  0  0  0  0  0  0  0  0  0
   -5.4133    1.2940    0.4796 C   0  0  0  0  0  0  0  0  0  0  0  0
  1 17  1  0
  2 21  1  0
  3  9  1  0
  3 10  1  0
  4  7  1  0
  4 14  1  0
  5 15  1  0
  5 16  1  0
  6 14  2  0
  7  9  1  0
  7 12  1  0
  8 10  1  0
  8 11  1  0
 11 13  1  0
 14 15  1  0
 16 17  2  0
 16 18  1  0
 17 19  1  0
 18 20  2  0
 19 21  2  0
 20 21  1  0
M  END
>  <PUBCHEM_COMPOUND_CID>  (1) 
19862

>  <PUBCHEM_CONFORMER_RMSD>  (1) 
1

>  <PUBCHEM_CONFORMER_DIVERSEORDER>  (1) 
1
111
134
51
141
147
135
45
126
116
49
180
95
83
162
165
144
93
171
109
142
103
107
179
94
138
66
91
159
100
169
132
143
174
117
46
131
160
150
113
48
38
69
140
26
158
3
152
84
50
127
20
11
137
9
168
136
118
108
60
17
90
166
120
82
121
58
112
87
42
177
76
101
13
151
130
63
167
68
104
148
5
149
170
27
161
52
157
183
25
128
18
178
59
89
4
119
85
75
21
182
53
172
173
106
74
153
88
24
64
86
110
8
115
80
139
181
122
72
7
12
129
37
105
156
54
31
155
35
70
124
39
175
65
44
97
92
28
22
154
67
79
77
43
47
62
176
123
19
29
36
133
10
164
55
41
15
23
34
125
145
73
56
32
78
146
61
99
2
40
71
163
96
114
14
57
6
16
102
33
30
81
98

>  <PUBCHEM_MMFF94_PARTIAL_CHARGES>  (1) 
20
1 -0.18
10 0.28
14 0.66
15 0.34
16 0.08
17 0.18
18 -0.15
19 -0.15
2 -0.18
20 -0.15
21 0.18
3 -0.56
39 0.15
4 -0.43
40 0.15
41 0.15
5 -0.36
6 -0.57
7 0.28
9 0.28

>  <PUBCHEM_EFFECTIVE_ROTOR_COUNT>  (1) 
10

>  <PUBCHEM_PHARMACOPHORE_FEATURES>  (1) 
5
1 13 hydrophobe
1 3 acceptor
1 5 acceptor
1 6 acceptor
6 16 17 18 19 20 21 rings

>  <PUBCHEM_HEAVY_ATOM_COUNT>  (1) 
21

>  <PUBCHEM_ATOM_DEF_STEREO_COUNT>  (1) 
0

>  <PUBCHEM_ATOM_UDEF_STEREO_COUNT>  (1) 
1

>  <PUBCHEM_BOND_DEF_STEREO_COUNT>  (1) 
0

>  <PUBCHEM_BOND_UDEF_STEREO_COUNT>  (1) 
0

>  <PUBCHEM_ISOTOPIC_ATOM_COUNT>  (1) 
0

>  <PUBCHEM_COMPONENT_COUNT>  (1) 
1

>  <PUBCHEM_CACTVS_TAUTO_COUNT>  (1) 
1

>  <PUBCHEM_CONFORMER_ID>  (1) 
00004D9600000001

>  <PUBCHEM_MMFF94_ENERGY>  (1) 
40.6922

>  <PUBCHEM_FEATURE_SELFOVERLAP>  (1) 
25.38

>  <PUBCHEM_SHAPE_FINGERPRINT>  (1) 
10753850 27 10519992547992713940
10906281 52 17846223198983851273
11273773 42 18338234998485380100
12760667 363 10951785087862187836
12821665 9 18339077215343099743
12895836 83 17703785977131162564
13631057 29 18267015245066560039
13885169 86 18188495812865950332
13955234 65 17970062254219527714
14251764 75 18262521506968651792
14257110 125 18335983155895886772
14341114 176 18339082562804217043
14341114 328 18411694357604552811
14565420 104 18186800275614395658
146900 427 18261108552389402762
15142526 21 18260827146390670826
15183329 4 14979961354775534364
15188451 53 11963388561563011596
15475509 35 15647603438608959554
15685185 35 18118409677478581172
16126227 98 18264491866080936252
16992752 21 18057319707669331047
17844677 252 18194405481015037323
20526848 3 18412547630552507704
21033648 29 16660354849276732511
21365058 113 17624709955529357006
21585482 111 18261674762282089548
23272321 79 18410008857886994158
23559900 14 17487333733732412599
245318 6 17605852523732772716
270888 7 18337390552344246060
3014063 24 8646777681737470448
3472631 163 18342460391753767196
34797466 226 18130512937602724101
38570 142 18409739465344494294
445580 204 18340766065921009148
5104073 3 18040714766606571314
543368 44 18411417332366831189
59682541 52 11455877070967045506
6438161 24 9007051336131108509
960060 61 12031496731688593746

>  <PUBCHEM_SHAPE_MULTIPOLES>  (1) 
412.43
19.1
3.56
1.02
12.78
0.3
0.05
-19.52
-1.45
4.36
-0.28
-0.37
0.3
-3.25

>  <PUBCHEM_SHAPE_SELFOVERLAP>  (1) 
805.859

>  <PUBCHEM_SHAPE_VOLUME>  (1) 
249.4

>  <PUBCHEM_COORDINATE_TYPE>  (1) 
2
5
10

$$$$
