19874
     RDKit          3D

 19 20  0  0  0  0  0  0  0  0999 V2000
   -5.2623    2.5166   -0.4933 I   0  0  0  0  0  0  0  0  0  0  0  0
    5.3308    2.4294   -0.2655 I   0  0  0  0  0  0  0  0  0  0  0  0
   -0.2190   -2.4334   -1.8840 Cl  0  0  0  0  0  0  0  0  0  0  0  0
   -1.4182   -3.3212    0.5877 Cl  0  0  0  0  0  0  0  0  0  0  0  0
    1.4587   -3.3224    0.3295 Cl  0  0  0  0  0  0  0  0  0  0  0  0
   -0.0130   -0.9270    0.5166 C   0  0  0  0  0  0  0  0  0  0  0  0
   -1.2437   -0.1180    0.2818 C   0  0  0  0  0  0  0  0  0  0  0  0
    1.2883   -0.1079    0.3238 C   0  0  0  0  0  0  0  0  0  0  0  0
   -0.0235   -2.3875   -0.1023 C   0  0  0  0  0  0  0  0  0  0  0  0
   -1.3411    0.6887   -0.8519 C   0  0  0  0  0  0  0  0  0  0  0  0
    1.6137    0.8082    1.2842 C   0  0  0  0  0  0  0  0  0  0  0  0
   -2.2976   -0.1689    1.1942 C   0  0  0  0  0  0  0  0  0  0  0  0
    2.0368   -0.3491   -0.7940 C   0  0  0  0  0  0  0  0  0  0  0  0
   -2.4923    1.4447   -1.0730 C   0  0  0  0  0  0  0  0  0  0  0  0
    2.7856    1.5451    1.1123 C   0  0  0  0  0  0  0  0  0  0  0  0
   -3.4489    0.5869    0.9730 C   0  0  0  0  0  0  0  0  0  0  0  0
    3.2087    0.3876   -0.9658 C   0  0  0  0  0  0  0  0  0  0  0  0
   -3.5463    1.3937   -0.1607 C   0  0  0  0  0  0  0  0  0  0  0  0
    3.5833    1.3346   -0.0126 C   0  0  0  0  0  0  0  0  0  0  0  0
  1 18  1  0
  2 19  1  0
  3  9  1  0
  4  9  1  0
  5  9  1  0
  6  7  1  0
  6  8  1  0
  6  9  1  0
  7 10  2  0
  7 12  1  0
  8 11  2  0
  8 13  1  0
 10 14  1  0
 11 15  1  0
 12 16  2  0
 13 17  2  0
 14 18  2  0
 15 19  2  0
 16 18  1  0
 17 19  1  0
M  END
>  <PUBCHEM_COMPOUND_CID>  (1) 
19874

>  <PUBCHEM_CONFORMER_RMSD>  (1) 
0.6

>  <PUBCHEM_CONFORMER_DIVERSEORDER>  (1) 
1
2

>  <PUBCHEM_MMFF94_PARTIAL_CHARGES>  (1) 
27
1 -0.08
10 -0.15
11 -0.15
12 -0.15
13 -0.15
14 -0.15
15 -0.15
16 -0.15
17 -0.15
18 0.08
19 0.08
2 -0.08
21 0.15
22 0.15
23 0.15
24 0.15
25 0.15
26 0.15
27 0.15
28 0.15
3 -0.29
4 -0.29
5 -0.29
6 0.29
7 -0.14
8 -0.14
9 0.87

>  <PUBCHEM_EFFECTIVE_ROTOR_COUNT>  (1) 
3

>  <PUBCHEM_PHARMACOPHORE_FEATURES>  (1) 
4
1 1 hydrophobe
1 2 hydrophobe
6 7 10 12 14 16 18 rings
6 8 11 13 15 17 19 rings

>  <PUBCHEM_HEAVY_ATOM_COUNT>  (1) 
19

>  <PUBCHEM_ATOM_DEF_STEREO_COUNT>  (1) 
0

>  <PUBCHEM_ATOM_UDEF_STEREO_COUNT>  (1) 
0

>  <PUBCHEM_BOND_DEF_STEREO_COUNT>  (1) 
0

>  <PUBCHEM_BOND_UDEF_STEREO_COUNT>  (1) 
0

>  <PUBCHEM_ISOTOPIC_ATOM_COUNT>  (1) 
0

>  <PUBCHEM_COMPONENT_COUNT>  (1) 
1

>  <PUBCHEM_CACTVS_TAUTO_COUNT>  (1) 
1

>  <PUBCHEM_CONFORMER_ID>  (1) 
00004DA200000001

>  <PUBCHEM_MMFF94_ENERGY>  (1) 
60.4578

>  <PUBCHEM_FEATURE_SELFOVERLAP>  (1) 
20.297

>  <PUBCHEM_SHAPE_FINGERPRINT>  (1) 
10165383 225 18340220668560040625
10498660 4 18410012126410607393
12173636 292 18265050426044531172
12403259 415 18337123301402161113
12500047 106 18269274724402420632
12532896 13 18410853300060617182
12730499 353 18338524028335775393
12788726 201 18050270759391502551
13134695 92 17760917455397524222
13140716 1 18189051997892127875
13294875 104 18129645440493510458
13583140 156 16660912395998147884
13681431 1 17622446043247993631
13955234 65 18118969083761294611
14142880 1 18263354961786886573
16945 1 18261395610712958027
17134986 127 18411697673308476396
17357779 13 17697587054769760063
1813 80 17125362325320099079
18186145 218 18131359595900207288
18785283 64 18189895301355435626
20600515 1 16371022775776044517
20645477 56 18267877257871425208
20645477 70 18127969698978759869
21033648 29 18339919411207090448
21524375 3 18342173366808930022
21756936 100 17241616198829566732
2255824 54 18052813646708915159
23227448 37 18192999450551823580
23402539 116 17835800068796612462
23419403 2 17411391698310084383
23557571 272 17982183506764136676
23559900 14 17533231764813164063
238 59 18199465472386516103
25 1 18060146431250843968
283562 15 18049435139118181082
3060560 45 17916580925763299501
3729539 64 18123495803572621014
474 4 18411416177094897173
495365 180 18193828259254667017
5104073 3 17969510308172454105
559249 180 18341333401236155406
6327066 14 18334289894186975028
633830 44 17773335468712920641
6442390 28 18409174315924783531
7364860 26 18121777231768164363
77188 2 17327453623362145554
7808743 9 18262237845336908676
7970288 3 9583518719817330924
81228 2 17836637900556065874
8272917 22 18127128563993784245
84936 182 18198339546567808849
9999458 23 18116714010708165670

>  <PUBCHEM_SHAPE_MULTIPOLES>  (1) 
420.49
9.07
3.9
1.34
0.27
3.19
0.2
-12.52
0.78
-0.14
0.36
-0.1
0.23
0.66

>  <PUBCHEM_SHAPE_SELFOVERLAP>  (1) 
821.788

>  <PUBCHEM_SHAPE_VOLUME>  (1) 
263.9

>  <PUBCHEM_COORDINATE_TYPE>  (1) 
2
5
10

$$$$
