19887
     RDKit          3D

 15 15  0  0  0  0  0  0  0  0999 V2000
   -1.8611    0.2625    0.9378 O   0  0  0  0  0  0  0  0  0  0  0  0
   -2.4068   -0.2673   -1.2594 O   0  0  0  0  0  0  0  0  0  0  0  0
    2.7580   -0.8501   -0.0241 N   0  0  0  0  0  0  0  0  0  0  0  0
   -3.9441   -0.5675    0.4520 N   0  0  0  0  0  0  0  0  0  0  0  0
    1.6157    0.1674    0.0282 C   0  0  0  0  0  0  0  0  0  0  0  0
    3.8845   -0.3703    0.8867 C   0  0  0  0  0  0  0  0  0  0  0  0
    3.2408   -0.9725   -1.4667 C   0  0  0  0  0  0  0  0  0  0  0  0
    2.3202   -2.2345    0.4494 C   0  0  0  0  0  0  0  0  0  0  0  0
    0.4139   -0.2820    0.4630 C   0  0  0  0  0  0  0  0  0  0  0  0
    1.9027    1.4317   -0.3645 C   0  0  0  0  0  0  0  0  0  0  0  0
   -0.6269    0.6455    0.5108 C   0  0  0  0  0  0  0  0  0  0  0  0
    0.8620    2.3590   -0.3168 C   0  0  0  0  0  0  0  0  0  0  0  0
   -0.4028    1.9660    0.1210 C   0  0  0  0  0  0  0  0  0  0  0  0
   -2.7219   -0.2039   -0.0747 C   0  0  0  0  0  0  0  0  0  0  0  0
   -5.0342   -1.0840   -0.3427 C   0  0  0  0  0  0  0  0  0  0  0  0
  1 11  1  0
  1 14  1  0
  2 14  2  0
  3  5  1  0
  3  6  1  0
  3  7  1  0
  3  8  1  0
  4 14  1  0
  4 15  1  0
  5  9  2  0
  5 10  1  0
  9 11  1  0
 10 12  2  0
 11 13  2  0
 12 13  1  0
M  CHG  1   3   1
M  END
>  <PUBCHEM_COMPOUND_CID>  (1) 
19887

>  <PUBCHEM_CONFORMER_RMSD>  (1) 
0.6

>  <PUBCHEM_CONFORMER_DIVERSEORDER>  (1) 
2
16
28
47
48
40
27
5
46
24
32
52
26
21
36
45
6
13
8
22
49
25
19
37
14
38
9
31
23
15
7
34
12
50
18
51
30
10
33
39
11
42
35
29
41
20
4
17
3
44
43
1

>  <PUBCHEM_MMFF94_PARTIAL_CHARGES>  (1) 
20
1 -0.23
10 -0.15
11 0.08
12 -0.15
13 -0.15
14 0.78
15 0.3
2 -0.57
25 0.15
26 0.15
27 0.15
28 0.15
29 0.37
3 -0.87
4 -0.73
5 0.36
6 0.5
7 0.5
8 0.5
9 -0.15

>  <PUBCHEM_EFFECTIVE_ROTOR_COUNT>  (1) 
4

>  <PUBCHEM_PHARMACOPHORE_FEATURES>  (1) 
4
1 2 acceptor
1 3 cation
1 4 donor
6 5 9 10 11 12 13 rings

>  <PUBCHEM_HEAVY_ATOM_COUNT>  (1) 
15

>  <PUBCHEM_ATOM_DEF_STEREO_COUNT>  (1) 
0

>  <PUBCHEM_ATOM_UDEF_STEREO_COUNT>  (1) 
0

>  <PUBCHEM_BOND_DEF_STEREO_COUNT>  (1) 
0

>  <PUBCHEM_BOND_UDEF_STEREO_COUNT>  (1) 
0

>  <PUBCHEM_ISOTOPIC_ATOM_COUNT>  (1) 
0

>  <PUBCHEM_COMPONENT_COUNT>  (1) 
1

>  <PUBCHEM_CACTVS_TAUTO_COUNT>  (1) 
2

>  <PUBCHEM_CONFORMER_ID>  (1) 
00004DAF00000002

>  <PUBCHEM_MMFF94_ENERGY>  (1) 
59.2329

>  <PUBCHEM_FEATURE_SELFOVERLAP>  (1) 
20.297

>  <PUBCHEM_SHAPE_FINGERPRINT>  (1) 
10618630 7 18341332201769310866
11471102 20 18334856173045362253
11543360 7 15430331268529939155
11578080 2 17916845972897149257
11806522 49 18412825806735476080
12553582 1 18335999574648608763
13296908 3 18341047423941657053
13675066 3 17775849012755614635
14178342 30 18124308312183570424
14251717 144 18409449223432151490
14252887 29 18131636677252078502
14576447 43 18410856576862285606
15342816 4 18411704253272532382
15477762 27 18409448106730124475
15757776 16 18408886222250501842
16945 1 18261405416355234544
18186145 218 17604141606303563089
19422 9 18272378611336057089
20201158 50 18187085052708871554
20339313 130 18342181089386793153
20361792 2 18412543189049583909
20645477 70 18339643446915409223
20671657 53 18335137574743923785
20871998 22 18342742871145877412
21296965 67 18411416185410141937
21501925 9 18412259545183012544
221490 88 18117567451101719195
2255824 54 18337396061869103268
22802520 49 17895459359160605749
23402539 116 18262794065255256242
23419403 2 18051374536159492360
23557571 272 18271525274243505280
23598291 2 18199772313313904969
2748010 2 17901407880454569600
3286 77 17967806167616211831
4463277 69 17845938429023550071
6338986 31 18336257925742735738
7364860 26 18201158883407557496
81228 2 18045224834475891904
94968 8 18410862061667287470

>  <PUBCHEM_SHAPE_MULTIPOLES>  (1) 
286.99
7.44
2.04
1.02
7.57
0.63
0.22
-4.53
0.58
-1.06
0.07
-0.39
-0.19
-0.2

>  <PUBCHEM_SHAPE_SELFOVERLAP>  (1) 
583.506

>  <PUBCHEM_SHAPE_VOLUME>  (1) 
168.3

>  <PUBCHEM_COORDINATE_TYPE>  (1) 
2
5
10

$$$$
