19882
     RDKit          3D

 33 36  0  0  0  0  0  0  0  0999 V2000
   -0.0050   -0.3392   -1.7722 Si  0  0  0  0  0  4  0  0  0  0  0  0
    2.9247    0.6781   -1.1310 Si  0  0  0  0  0  4  0  0  0  0  0  0
   -2.3206    0.4060    0.2560 Si  0  0  0  0  0  4  0  0  0  0  0  0
    1.2690    0.5182   -1.1137 O   0  0  0  0  0  0  0  0  0  0  0  0
   -1.4516    0.2201   -1.1504 O   0  0  0  0  0  0  0  0  0  0  0  0
    3.3995    1.8052    0.3019 C   0  0  0  0  0  0  0  0  0  0  0  0
    3.6660   -0.9650   -0.6027 C   0  0  0  0  0  0  0  0  0  0  0  0
   -2.8603   -1.3000    0.8276 C   0  0  0  0  0  0  0  0  0  0  0  0
   -3.9628    1.2097   -0.1977 C   0  0  0  0  0  0  0  0  0  0  0  0
    0.0187   -0.1569   -3.6464 C   0  0  0  0  0  0  0  0  0  0  0  0
    0.1729   -2.1749   -1.3922 C   0  0  0  0  0  0  0  0  0  0  0  0
    3.5915    1.3007   -2.7483 C   0  0  0  0  0  0  0  0  0  0  0  0
   -1.4174    1.3683    1.5621 C   0  0  0  0  0  0  0  0  0  0  0  0
    4.7388    1.9928    0.6007 C   0  0  0  0  0  0  0  0  0  0  0  0
    3.2501   -1.5512    0.5843 C   0  0  0  0  0  0  0  0  0  0  0  0
   -3.5372   -2.1323   -0.0524 C   0  0  0  0  0  0  0  0  0  0  0  0
   -4.9389    1.3508    0.7746 C   0  0  0  0  0  0  0  0  0  0  0  0
    2.4018    2.4277    1.0336 C   0  0  0  0  0  0  0  0  0  0  0  0
    4.6208   -1.5729   -1.4052 C   0  0  0  0  0  0  0  0  0  0  0  0
   -2.5760   -1.7078    2.1232 C   0  0  0  0  0  0  0  0  0  0  0  0
   -4.1679    1.6461   -1.4960 C   0  0  0  0  0  0  0  0  0  0  0  0
    5.0906    2.8267    1.6620 C   0  0  0  0  0  0  0  0  0  0  0  0
    3.8009   -2.7709    0.9771 C   0  0  0  0  0  0  0  0  0  0  0  0
   -3.9387   -3.3989    0.3720 C   0  0  0  0  0  0  0  0  0  0  0  0
   -6.1553    1.9453    0.4390 C   0  0  0  0  0  0  0  0  0  0  0  0
    2.7539    3.2617    2.0948 C   0  0  0  0  0  0  0  0  0  0  0  0
    5.1714   -2.7929   -1.0123 C   0  0  0  0  0  0  0  0  0  0  0  0
   -2.9774   -2.9745    2.5475 C   0  0  0  0  0  0  0  0  0  0  0  0
   -5.3842    2.2407   -1.8316 C   0  0  0  0  0  0  0  0  0  0  0  0
    4.0982    3.4611    2.4090 C   0  0  0  0  0  0  0  0  0  0  0  0
    4.7614   -3.3918    0.1789 C   0  0  0  0  0  0  0  0  0  0  0  0
   -3.6588   -3.8200    1.6718 C   0  0  0  0  0  0  0  0  0  0  0  0
   -6.3780    2.3902   -0.8641 C   0  0  0  0  0  0  0  0  0  0  0  0
  1  4  1  0
  1  5  1  0
  1 10  1  0
  1 11  1  0
  2  4  1  0
  2  6  1  0
  2  7  1  0
  2 12  1  0
  3  5  1  0
  3  8  1  0
  3  9  1  0
  3 13  1  0
  6 14  2  0
  6 18  1  0
  7 15  2  0
  7 19  1  0
  8 16  2  0
  8 20  1  0
  9 17  2  0
  9 21  1  0
 14 22  1  0
 15 23  1  0
 16 24  1  0
 17 25  1  0
 18 26  2  0
 19 27  2  0
 20 28  2  0
 21 29  2  0
 22 30  2  0
 23 31  2  0
 24 32  2  0
 25 33  2  0
 26 30  1  0
 27 31  1  0
 28 32  1  0
 29 33  1  0
M  END
>  <PUBCHEM_COMPOUND_CID>  (1) 
19882

>  <PUBCHEM_CONFORMER_RMSD>  (1) 
1

>  <PUBCHEM_CONFORMER_DIVERSEORDER>  (1) 
5
19
23
17
11
3
13
20
22
27
12
1
8
14
25
26
7
18
16
28
10
21
6
15
29
24
30
4
31
9
2
32

>  <PUBCHEM_MMFF94_PARTIAL_CHARGES>  (1) 
53
1 0.76
10 -0.08
11 -0.08
12 -0.08
13 -0.08
14 -0.15
15 -0.15
16 -0.15
17 -0.15
18 -0.15
19 -0.15
2 0.82
20 -0.15
21 -0.15
22 -0.15
23 -0.15
24 -0.15
25 -0.15
26 -0.15
27 -0.15
28 -0.15
29 -0.15
3 0.82
30 -0.15
31 -0.15
32 -0.15
33 -0.15
4 -0.59
46 0.15
47 0.15
48 0.15
49 0.15
5 -0.59
50 0.15
51 0.15
52 0.15
53 0.15
54 0.15
55 0.15
56 0.15
57 0.15
58 0.15
59 0.15
6 -0.22
60 0.15
61 0.15
62 0.15
63 0.15
64 0.15
65 0.15
7 -0.22
8 -0.22
9 -0.22

>  <PUBCHEM_EFFECTIVE_ROTOR_COUNT>  (1) 
8

>  <PUBCHEM_PHARMACOPHORE_FEATURES>  (1) 
4
6 6 14 18 22 26 30 rings
6 7 15 19 23 27 31 rings
6 8 16 20 24 28 32 rings
6 9 17 21 25 29 33 rings

>  <PUBCHEM_HEAVY_ATOM_COUNT>  (1) 
33

>  <PUBCHEM_ATOM_DEF_STEREO_COUNT>  (1) 
0

>  <PUBCHEM_ATOM_UDEF_STEREO_COUNT>  (1) 
0

>  <PUBCHEM_BOND_DEF_STEREO_COUNT>  (1) 
0

>  <PUBCHEM_BOND_UDEF_STEREO_COUNT>  (1) 
0

>  <PUBCHEM_ISOTOPIC_ATOM_COUNT>  (1) 
0

>  <PUBCHEM_COMPONENT_COUNT>  (1) 
1

>  <PUBCHEM_CACTVS_TAUTO_COUNT>  (1) 
1

>  <PUBCHEM_CONFORMER_ID>  (1) 
00004DAA00000005

>  <PUBCHEM_MMFF94_ENERGY>  (1) 
61.6633

>  <PUBCHEM_FEATURE_SELFOVERLAP>  (1) 
20.3

>  <PUBCHEM_SHAPE_FINGERPRINT>  (1) 
10462674 125 17267789097928962831
11456790 92 18123200004552904409
11578080 2 18409448123936601336
12128747 34 18409728434982098948
12422481 6 16154530001181449633
13583140 156 18270964651703279668
13636023 51 18341891900828667144
14068700 686 18047479099294206672
14725015 67 18046900477264338973
14910302 57 18260266365216287965
14955137 171 18130234744873032542
15448158 6 17824824430006038562
15448158 71 17629761442153484608
17809404 112 18410856606964318104
17974551 9 18336267859960088246
19301679 30 17751659868762198235
19304152 47 17979907534447521120
21033648 144 18413103957471335989
21033648 29 18270685392851144228
22122407 14 17988647376008324585
22223350 30 18335148600547432521
23559900 14 18334017172532383324
3729539 64 18045782282770957275
4015057 19 18130782339827558457
4073 2 18409448128458415544
44880168 125 17313373483894441766
469060 322 17765699600986429391
508706 21 17968383454012543402
563151 74 18200577186158921564
56638632 33 18044087956453286386
6086070 43 18060142037430644318
6371380 46 18189330160984569503
9658208 31 18187081728889467889

>  <PUBCHEM_SHAPE_MULTIPOLES>  (1) 
722.02
14.15
4.97
2.84
6.17
1.99
-0.79
-4.17
1.13
-1.33
3.19
-0.7
-0.58
5.17

>  <PUBCHEM_SHAPE_SELFOVERLAP>  (1) 
1494.297

>  <PUBCHEM_SHAPE_VOLUME>  (1) 
411.4

>  <PUBCHEM_COORDINATE_TYPE>  (1) 
2
5
10

$$$$
