19885
     RDKit          3D

 15 15  0  0  0  0  0  0  0  0999 V2000
    1.0025   -0.0707    0.7409 O   0  0  0  0  0  0  0  0  0  0  0  0
    2.0643    1.0748   -0.9815 O   0  0  0  0  0  0  0  0  0  0  0  0
   -1.2382   -1.6154   -0.0422 N   0  0  0  0  0  0  0  0  0  0  0  0
    3.2370   -0.4127    0.3581 N   0  0  0  0  0  0  0  0  0  0  0  0
   -1.2846   -0.0868    0.0214 C   0  0  0  0  0  0  0  0  0  0  0  0
   -2.6013   -2.1292   -0.4969 C   0  0  0  0  0  0  0  0  0  0  0  0
   -0.8888   -2.1541    1.3422 C   0  0  0  0  0  0  0  0  0  0  0  0
   -0.1864   -2.1205   -1.0278 C   0  0  0  0  0  0  0  0  0  0  0  0
   -0.1586    0.5603    0.4071 C   0  0  0  0  0  0  0  0  0  0  0  0
   -2.4620    0.4941   -0.3188 C   0  0  0  0  0  0  0  0  0  0  0  0
   -0.2151    1.9531    0.4593 C   0  0  0  0  0  0  0  0  0  0  0  0
   -2.5184    1.8870   -0.2664 C   0  0  0  0  0  0  0  0  0  0  0  0
   -1.3951    2.6164    0.1226 C   0  0  0  0  0  0  0  0  0  0  0  0
    2.1127    0.2732   -0.0531 C   0  0  0  0  0  0  0  0  0  0  0  0
    4.5322   -0.2695   -0.2650 C   0  0  0  0  0  0  0  0  0  0  0  0
  1  9  1  0
  1 14  1  0
  2 14  2  0
  3  5  1  0
  3  6  1  0
  3  7  1  0
  3  8  1  0
  4 14  1  0
  4 15  1  0
  5  9  2  0
  5 10  1  0
  9 11  1  0
 10 12  2  0
 11 13  2  0
 12 13  1  0
M  CHG  1   3   1
M  END
>  <PUBCHEM_COMPOUND_CID>  (1) 
19885

>  <PUBCHEM_CONFORMER_RMSD>  (1) 
0.6

>  <PUBCHEM_CONFORMER_DIVERSEORDER>  (1) 
1
17
15
11
3
7
9
18
6
14
8
13
19
2
16
10
4
12
5

>  <PUBCHEM_MMFF94_PARTIAL_CHARGES>  (1) 
20
1 -0.23
10 -0.15
11 -0.15
12 -0.15
13 -0.15
14 0.78
15 0.3
2 -0.57
25 0.15
26 0.15
27 0.15
28 0.15
29 0.37
3 -0.87
4 -0.73
5 0.36
6 0.5
7 0.5
8 0.5
9 0.08

>  <PUBCHEM_EFFECTIVE_ROTOR_COUNT>  (1) 
4

>  <PUBCHEM_PHARMACOPHORE_FEATURES>  (1) 
4
1 2 acceptor
1 3 cation
1 4 donor
6 5 9 10 11 12 13 rings

>  <PUBCHEM_HEAVY_ATOM_COUNT>  (1) 
15

>  <PUBCHEM_ATOM_DEF_STEREO_COUNT>  (1) 
0

>  <PUBCHEM_ATOM_UDEF_STEREO_COUNT>  (1) 
0

>  <PUBCHEM_BOND_DEF_STEREO_COUNT>  (1) 
0

>  <PUBCHEM_BOND_UDEF_STEREO_COUNT>  (1) 
0

>  <PUBCHEM_ISOTOPIC_ATOM_COUNT>  (1) 
0

>  <PUBCHEM_COMPONENT_COUNT>  (1) 
1

>  <PUBCHEM_CACTVS_TAUTO_COUNT>  (1) 
2

>  <PUBCHEM_CONFORMER_ID>  (1) 
00004DAD00000001

>  <PUBCHEM_MMFF94_ENERGY>  (1) 
67.9112

>  <PUBCHEM_FEATURE_SELFOVERLAP>  (1) 
20.297

>  <PUBCHEM_SHAPE_FINGERPRINT>  (1) 
12202030 40 17059240127314029068
12423570 1 16967708790768559305
12524768 44 17473812300943064835
12716758 59 18411974763123759944
13024252 1 17749111101533316483
13380535 76 18268709402951753838
15669948 3 18410005529556378154
161256 15 17835798977800643849
16945 1 18342168930339678945
20645476 183 17895192173270601819
20871998 184 18272091620930443390
20871998 22 17980195619362400331
20871999 31 18409163346108681396
21524375 3 18191587449840558785
2334 1 18123745619791172769
23402539 116 18342165640363224997
23419403 2 14257924265942258279
23557571 272 18200037369031452584
23559900 14 18201149954924306048
2748010 2 18124296453837030793
305870 269 17830456081085991597
4175511 318 18187080611913115220
559249 180 18192147097808323698
5706482 22 18267576910285929697
7364860 26 17405424399724270553
81228 2 18337103591887066921
81539 233 17829046516117368061
9709674 26 18200596900159225734

>  <PUBCHEM_SHAPE_MULTIPOLES>  (1) 
286.99
5
2.85
0.95
6.91
0.21
-0.08
-0.04
0.79
-2.44
0
-0.02
0.38
-0.08

>  <PUBCHEM_SHAPE_SELFOVERLAP>  (1) 
586.746

>  <PUBCHEM_SHAPE_VOLUME>  (1) 
166.6

>  <PUBCHEM_COORDINATE_TYPE>  (1) 
2
5
10

$$$$
