19897
     RDKit          3D

 23 25  0  0  0  0  0  0  0  0999 V2000
   -1.1119   -4.1622    0.5103 Cl  0  0  0  0  0  0  0  0  0  0  0  0
   -1.7207    0.5777   -0.7717 N   0  0  0  0  0  0  0  0  0  0  0  0
    2.6502   -1.0355   -0.2290 N   0  0  0  0  0  0  0  0  0  0  0  0
    0.4766   -0.1995   -0.5078 N   0  0  0  0  0  0  0  0  0  0  0  0
    0.8424   -2.4887    0.1117 N   0  0  0  0  0  0  0  0  0  0  0  0
   -1.3937   -1.6634   -0.1660 N   0  0  0  0  0  0  0  0  0  0  0  0
   -3.0254    0.7529   -0.2654 C   0  0  0  0  0  0  0  0  0  0  0  0
    3.3217    0.1859    0.0550 C   0  0  0  0  0  0  0  0  0  0  0  0
   -0.8287   -0.4883   -0.4646 C   0  0  0  0  0  0  0  0  0  0  0  0
    1.2552   -1.2514   -0.2076 C   0  0  0  0  0  0  0  0  0  0  0  0
   -1.1604    1.7391   -1.4807 C   0  0  0  0  0  0  0  0  0  0  0  0
    3.5289   -2.2135   -0.3017 C   0  0  0  0  0  0  0  0  0  0  0  0
   -3.3498    0.2800    1.0062 C   0  0  0  0  0  0  0  0  0  0  0  0
   -3.9917    1.3989   -1.0367 C   0  0  0  0  0  0  0  0  0  0  0  0
    2.7577    1.0866    0.9493 C   0  0  0  0  0  0  0  0  0  0  0  0
    4.5329    0.4625   -0.5661 C   0  0  0  0  0  0  0  0  0  0  0  0
   -4.6404    0.4527    1.5063 C   0  0  0  0  0  0  0  0  0  0  0  0
   -5.2822    1.5718   -0.5363 C   0  0  0  0  0  0  0  0  0  0  0  0
    3.4159    2.2845    1.2271 C   0  0  0  0  0  0  0  0  0  0  0  0
    5.1912    1.6605   -0.2882 C   0  0  0  0  0  0  0  0  0  0  0  0
   -5.6065    1.0986    0.7352 C   0  0  0  0  0  0  0  0  0  0  0  0
    4.6326    2.5714    0.6085 C   0  0  0  0  0  0  0  0  0  0  0  0
   -0.4939   -2.6206    0.1122 C   0  0  0  0  0  0  0  0  0  0  0  0
  1 23  1  0
  2  7  1  0
  2  9  1  0
  2 11  1  0
  3  8  1  0
  3 10  1  0
  3 12  1  0
  4  9  2  0
  4 10  1  0
  5 10  2  0
  5 23  1  0
  6  9  1  0
  6 23  2  0
  7 13  2  0
  7 14  1  0
  8 15  2  0
  8 16  1  0
 13 17  1  0
 14 18  2  0
 15 19  1  0
 16 20  2  0
 17 21  2  0
 18 21  1  0
 19 22  2  0
 20 22  1  0
M  END
>  <PUBCHEM_COMPOUND_CID>  (1) 
19897

>  <PUBCHEM_CONFORMER_RMSD>  (1) 
0.6

>  <PUBCHEM_CONFORMER_DIVERSEORDER>  (1) 
4
45
33
52
61
12
9
25
46
41
6
58
44
7
62
5
56
17
51
59
28
53
20
11
54
21
1
23
26
40
15
49
48
13
29
38
27
37
24
18
43
57
16
60
42
35
55
22
19
50
2
3
32
36
8
34
14
39
30
47
31
10

>  <PUBCHEM_MMFF94_PARTIAL_CHARGES>  (1) 
33
1 -0.18
10 0.72
11 0.37
12 0.37
13 -0.15
14 -0.15
15 -0.15
16 -0.15
17 -0.15
18 -0.15
19 -0.15
2 -0.57
20 -0.15
21 -0.15
22 -0.15
23 0.8
3 -0.57
30 0.15
31 0.15
32 0.15
33 0.15
34 0.15
35 0.15
36 0.15
37 0.15
38 0.15
39 0.15
4 -0.62
5 -0.62
6 -0.62
7 0.1
8 0.1
9 0.72

>  <PUBCHEM_EFFECTIVE_ROTOR_COUNT>  (1) 
4

>  <PUBCHEM_PHARMACOPHORE_FEATURES>  (1) 
5
4 2 4 6 9 cation
4 3 4 5 10 cation
6 4 5 6 9 10 23 rings
6 7 13 14 17 18 21 rings
6 8 15 16 19 20 22 rings

>  <PUBCHEM_HEAVY_ATOM_COUNT>  (1) 
23

>  <PUBCHEM_ATOM_DEF_STEREO_COUNT>  (1) 
0

>  <PUBCHEM_ATOM_UDEF_STEREO_COUNT>  (1) 
0

>  <PUBCHEM_BOND_DEF_STEREO_COUNT>  (1) 
0

>  <PUBCHEM_BOND_UDEF_STEREO_COUNT>  (1) 
0

>  <PUBCHEM_ISOTOPIC_ATOM_COUNT>  (1) 
0

>  <PUBCHEM_COMPONENT_COUNT>  (1) 
1

>  <PUBCHEM_CACTVS_TAUTO_COUNT>  (1) 
1

>  <PUBCHEM_CONFORMER_ID>  (1) 
00004DB900000004

>  <PUBCHEM_MMFF94_ENERGY>  (1) 
103.5785

>  <PUBCHEM_FEATURE_SELFOVERLAP>  (1) 
25.416

>  <PUBCHEM_SHAPE_FINGERPRINT>  (1) 
10074138 170 18043515325464076338
10165383 225 18408330986432936332
10411042 1 17547573678163977070
10493431 412 18409731798073548677
11595378 159 16878215398887710628
12390115 104 18341624766330383311
12403259 415 18188492367716070901
12633257 1 18338783577335427048
12730499 353 18411706478170813746
12788726 201 17840844572125956823
12969540 114 18335408059331789189
13034934 17 18260837003271906659
13140716 1 18408318873982024970
13631057 29 18057873823054216487
13955234 65 18192431870602616779
140371 6 17901670697645849959
14178342 30 18117277175858357414
14251764 30 15359921680015060240
14429115 67 12396294833481051968
14528608 73 18272081691419911237
146900 427 18339929208295744801
14787075 74 18202561804831517761
14848178 96 18343297080683024736
15342168 16 18411698815632958556
19784866 170 18187085044351129813
204376 136 18410575072221470599
20642791 13 18193838373534079087
20645477 56 18334855030657758964
21033648 29 18335971004605887453
21033650 10 14404916772963786299
21049683 118 18191562294306635035
22079108 93 18342177791115472075
22122407 14 17987249824464369601
22182937 141 18270119165979542146
22224240 67 18410017646096885825
23227448 37 18338516477155534564
23558518 356 17900256713154878186
23559900 14 17170121339579788567
23845131 108 18335137600973216043
283562 15 17905877429349953146
3004659 81 12031785855896485196
3178227 256 18191875522034969970
335352 9 18413108347581481670
350125 39 18263083215312027750
469060 322 17241034531102779847
474 4 18201716241065158817
5104073 3 18408039619466204299
5252454 2 18337103557880665036
56616090 163 18410863187481183342
621550 34 18116152169488770469
633830 44 18059300842547975279
6442390 28 18408325501089993907
7808743 9 18190181368269740948
81228 2 18044651142461207347
9777508 108 18266177412394029082

>  <PUBCHEM_SHAPE_MULTIPOLES>  (1) 
450.29
11.74
3.61
1.15
2.6
3.84
0.11
-9.93
1.66
-1.24
0.47
0.67
-0.55
1.24

>  <PUBCHEM_SHAPE_SELFOVERLAP>  (1) 
964.88

>  <PUBCHEM_SHAPE_VOLUME>  (1) 
246.5

>  <PUBCHEM_COORDINATE_TYPE>  (1) 
2
5
10

$$$$
