19898
     RDKit          3D

 18 18  0  0  0  0  0  0  0  0999 V2000
   -1.6181   -2.0286   -0.0036 O   0  0  0  0  0  0  0  0  0  0  0  0
    2.3687   -2.7169   -0.0042 O   0  0  0  0  0  0  0  0  0  0  0  0
    0.3124   -3.4858   -0.0044 O   0  0  0  0  0  0  0  0  0  0  0  0
    1.4070    3.4560    0.0004 O   0  0  0  0  0  0  0  0  0  0  0  0
    3.1337    2.1004   -0.0001 O   0  0  0  0  0  0  0  0  0  0  0  0
    1.1294   -2.5366   -0.0041 N   0  0  0  0  0  0  0  0  0  0  0  0
    1.8966    2.3020   -0.0004 N   0  0  0  0  0  0  0  0  0  0  0  0
   -2.7114    0.5873   -0.0016 C   0  0  0  0  0  0  0  0  0  0  0  0
   -1.1974    0.3188   -0.0018 C   0  0  0  0  0  0  0  0  0  0  0  0
   -2.9689    2.1098   -0.0006 C   0  0  0  0  0  0  0  0  0  0  0  0
   -3.3496   -0.0364    1.2585 C   0  0  0  0  0  0  0  0  0  0  0  0
   -3.4506    0.0004   -1.2255 C   0  0  0  0  0  0  0  0  0  0  0  0
   -0.7465   -0.9778   -0.0029 C   0  0  0  0  0  0  0  0  0  0  0  0
   -0.3586    1.4069   -0.0010 C   0  0  0  0  0  0  0  0  0  0  0  0
    0.6304   -1.2018   -0.0030 C   0  0  0  0  0  0  0  0  0  0  0  0
    1.0180    1.1830   -0.0012 C   0  0  0  0  0  0  0  0  0  0  0  0
    1.5125   -0.1213   -0.0021 C   0  0  0  0  0  0  0  0  0  0  0  0
    2.9924   -0.3593   -0.0023 C   0  0  0  0  0  0  0  0  0  0  0  0
  1 13  1  0
  2  6  1  0
  3  6  2  0
  4  7  1  0
  5  7  2  0
  6 15  1  0
  7 16  1  0
  8  9  1  0
  8 10  1  0
  8 11  1  0
  8 12  1  0
  9 13  2  0
  9 14  1  0
 13 15  1  0
 14 16  2  0
 15 17  2  0
 16 17  1  0
 17 18  1  0
M  CHG  4   2  -1   4  -1   6   1   7   1
M  END
>  <PUBCHEM_COMPOUND_CID>  (1) 
19898

>  <PUBCHEM_CONFORMER_RMSD>  (1) 
0.6

>  <PUBCHEM_CONFORMER_DIVERSEORDER>  (1) 
1

>  <PUBCHEM_MMFF94_PARTIAL_CHARGES>  (1) 
17
1 -0.53
13 0.08
14 -0.15
15 0.13
16 0.13
17 -0.14
18 0.14
2 -0.52
28 0.15
3 -0.52
32 0.45
4 -0.52
5 -0.52
6 0.91
7 0.91
8 0.14
9 -0.14

>  <PUBCHEM_EFFECTIVE_ROTOR_COUNT>  (1) 
3

>  <PUBCHEM_PHARMACOPHORE_FEATURES>  (1) 
9
1 1 donor
1 2 acceptor
1 2 anion
1 3 acceptor
1 4 acceptor
1 4 anion
1 5 acceptor
4 8 10 11 12 hydrophobe
6 9 13 14 15 16 17 rings

>  <PUBCHEM_HEAVY_ATOM_COUNT>  (1) 
18

>  <PUBCHEM_ATOM_DEF_STEREO_COUNT>  (1) 
0

>  <PUBCHEM_ATOM_UDEF_STEREO_COUNT>  (1) 
0

>  <PUBCHEM_BOND_DEF_STEREO_COUNT>  (1) 
0

>  <PUBCHEM_BOND_UDEF_STEREO_COUNT>  (1) 
0

>  <PUBCHEM_ISOTOPIC_ATOM_COUNT>  (1) 
0

>  <PUBCHEM_COMPONENT_COUNT>  (1) 
1

>  <PUBCHEM_CACTVS_TAUTO_COUNT>  (1) 
17

>  <PUBCHEM_CONFORMER_ID>  (1) 
00004DBA00000001

>  <PUBCHEM_MMFF94_ENERGY>  (1) 
108.8863

>  <PUBCHEM_FEATURE_SELFOVERLAP>  (1) 
45.834

>  <PUBCHEM_SHAPE_FINGERPRINT>  (1) 
10411042 1 17834395618785813519
10967382 1 18410855447385795140
116883 192 17188407166783736423
12553582 1 17906454320671920847
13132413 78 18125723383221438157
13140716 1 18338518671756988576
13380535 76 18337664342642840608
13583140 156 17024008531770049073
13897977 150 18337389439076947117
14648413 74 18335985251296692865
14790565 3 18266760025225040196
15309172 13 18266185122144895561
15442244 35 17980761532880549369
16945 1 18410856546923686251
18186145 218 18270972343984789212
193761 8 18194401319265911686
19591789 44 18194133038291519394
20510252 161 17621603138746717161
20645477 70 18335128783583893149
21041028 32 17905904573574237009
21160774 45 17688867961978808607
21501502 16 18268147750036179827
21524375 3 18194682789789074736
21639500 275 18337656573353035581
2334 1 18050286161001262020
23402539 116 17982156838895568486
23419403 2 16884648542795445942
23598291 2 17987797398059739517
238 59 17901905800060334093
25 1 18335704935697329980
2748010 2 18192719061947987830
3071541 12 18339364063155267852
3091708 16 9332302303339245570
31174 14 18263949682151512107
34934 24 17761484799234078635
350125 39 18193284215209062961
352729 6 18050566540888016672
6992083 37 17697600983527646145
7364860 26 18411137995967088804
7832392 63 18053098420109628877
81228 2 17185032765571659608

>  <PUBCHEM_SHAPE_MULTIPOLES>  (1) 
331.12
5.06
3.57
0.77
2.19
0.05
0.01
-0.82
-0.04
-2.69
-0.01
0.67
0.06
0.01

>  <PUBCHEM_SHAPE_SELFOVERLAP>  (1) 
705.146

>  <PUBCHEM_SHAPE_VOLUME>  (1) 
186.1

>  <PUBCHEM_COORDINATE_TYPE>  (1) 
2
5
10

$$$$
