19891
     RDKit          3D

 15 16  0  0  0  0  0  0  0  0999 V2000
    4.2222   -0.8883    0.0627 S   0  0  0  0  0  0  0  0  0  0  0  0
    1.5984   -2.1168    0.2019 O   0  0  0  0  0  0  0  0  0  0  0  0
   -2.2857   -0.3024    0.0451 C   0  0  0  0  0  0  0  0  0  0  0  0
    2.7442   -0.0793    0.0009 C   0  0  0  0  0  0  0  0  0  0  0  0
   -0.9538   -0.8839    0.1063 C   0  0  0  0  0  0  0  0  0  0  0  0
   -2.4704    1.0496    0.3343 C   0  0  0  0  0  0  0  0  0  0  0  0
   -3.3782   -1.0969   -0.3027 C   0  0  0  0  0  0  0  0  0  0  0  0
    1.5121   -0.8978    0.1032 C   0  0  0  0  0  0  0  0  0  0  0  0
    0.2037   -0.1877    0.0488 C   0  0  0  0  0  0  0  0  0  0  0  0
    2.8194    1.2547   -0.1379 C   0  0  0  0  0  0  0  0  0  0  0  0
   -3.7478    1.6070    0.2756 C   0  0  0  0  0  0  0  0  0  0  0  0
   -4.6554   -0.5393   -0.3617 C   0  0  0  0  0  0  0  0  0  0  0  0
   -4.8403    0.8127   -0.0725 C   0  0  0  0  0  0  0  0  0  0  0  0
    4.1818    1.6669   -0.2006 C   0  0  0  0  0  0  0  0  0  0  0  0
    5.0497    0.6016   -0.1034 C   0  0  0  0  0  0  0  0  0  0  0  0
  1  4  1  0
  1 15  1  0
  2  8  2  0
  3  5  1  0
  3  6  2  0
  3  7  1  0
  4  8  1  0
  4 10  2  0
  5  9  2  0
  6 11  1  0
  7 12  2  0
  8  9  1  0
 10 14  1  0
 11 13  2  0
 12 13  1  0
 14 15  2  0
M  END
>  <PUBCHEM_COMPOUND_CID>  (1) 
19891

>  <PUBCHEM_CONFORMER_RMSD>  (1) 
0.6

>  <PUBCHEM_CONFORMER_DIVERSEORDER>  (1) 
1
11
13
7
5
4
10
12
2
8
9
3
6

>  <PUBCHEM_MMFF94_PARTIAL_CHARGES>  (1) 
25
1 -0.08
10 -0.15
11 -0.15
12 -0.15
13 -0.15
14 -0.15
15 -0.11
16 0.15
17 0.15
18 0.15
19 0.15
2 -0.57
20 0.15
21 0.15
22 0.15
23 0.15
24 0.15
25 0.15
3 0.03
4 -0.05
5 -0.18
6 -0.15
7 -0.15
8 0.64
9 -0.14

>  <PUBCHEM_EFFECTIVE_ROTOR_COUNT>  (1) 
3

>  <PUBCHEM_PHARMACOPHORE_FEATURES>  (1) 
3
1 2 acceptor
5 1 4 10 14 15 rings
6 3 6 7 11 12 13 rings

>  <PUBCHEM_HEAVY_ATOM_COUNT>  (1) 
15

>  <PUBCHEM_ATOM_DEF_STEREO_COUNT>  (1) 
0

>  <PUBCHEM_ATOM_UDEF_STEREO_COUNT>  (1) 
0

>  <PUBCHEM_BOND_DEF_STEREO_COUNT>  (1) 
0

>  <PUBCHEM_BOND_UDEF_STEREO_COUNT>  (1) 
1

>  <PUBCHEM_ISOTOPIC_ATOM_COUNT>  (1) 
0

>  <PUBCHEM_COMPONENT_COUNT>  (1) 
1

>  <PUBCHEM_CACTVS_TAUTO_COUNT>  (1) 
1

>  <PUBCHEM_CONFORMER_ID>  (1) 
00004DB300000001

>  <PUBCHEM_MMFF94_ENERGY>  (1) 
37.2633

>  <PUBCHEM_FEATURE_SELFOVERLAP>  (1) 
15.223

>  <PUBCHEM_SHAPE_FINGERPRINT>  (1) 
10014705 185 18261107444683595989
11471102 20 18409448077229673894
12107183 9 17690279309358841123
13081056 2 18409449180625020284
13167823 11 18412260631699286750
13533116 47 16878214256547398523
13897977 58 18342177774104570293
14251764 18 18260260863985498760
14252887 29 11963383025698287928
14415576 193 18411703175277666198
14528608 73 18411418440273065460
15196674 1 18411138034695939816
15239154 128 18410857650640909357
17802600 8 18411133640960337216
17834072 33 18413668023910090583
17834072 8 18272378551338390566
18186145 218 18040432174732329162
200 152 18201717362415587331
20279233 1 15647054850329823291
20300324 65 18273494594089579585
20645477 56 18186802431724855581
20645477 70 18201443528355001966
21267235 1 18411990156244350503
212847 35 18408041823506911496
21652331 79 18408040701914013261
21709351 56 18410005533613995060
22854114 59 18113899364093672420
23402539 116 18272082816236833287
23402655 69 18343582936504875364
23557571 272 17917438635259561549
23559900 14 18128815240142089126
245318 6 17027421523638347404
26918003 58 11314022487197738799
2916195 48 18059283392359985856
34797466 226 17203334467371086604
351380 180 18410854373760171592
3545911 37 18409451379785204935
4214541 1 18411699872416114949
42788 4 18410573993799492502
449060 50 18335141977438687199
474 4 18040437732451580836
4990 188 17989213642071799558
5104073 3 18408886234808168642
542803 24 17748829617771518405
58051976 378 18273495654514310207
5924683 9 13046239320088174585
633830 44 18407758149248606222
77779 3 18411700976112018167
9709674 26 18411989039685216143
9971528 1 18040155111198553052

>  <PUBCHEM_SHAPE_MULTIPOLES>  (1) 
306.67
11.79
1.72
0.65
0.2
0.07
0
3.07
0.8
-0.39
-0.05
0.06
0.01
-0.49

>  <PUBCHEM_SHAPE_SELFOVERLAP>  (1) 
645.434

>  <PUBCHEM_SHAPE_VOLUME>  (1) 
172.2

>  <PUBCHEM_COORDINATE_TYPE>  (1) 
2
5
10

$$$$
