19901
     RDKit          3D

  9  9  0  0  0  0  0  0  0  0999 V2000
   -0.7606   -1.7801    0.1309 N   0  0  0  0  0  0  0  0  0  0  0  0
    0.8533   -0.0303   -0.2915 C   0  0  0  0  0  0  0  0  0  0  0  0
    2.2647    0.3603   -0.5519 C   0  0  0  0  0  0  0  0  0  0  0  0
   -0.1543    0.9255   -0.2236 C   0  0  0  0  0  0  0  0  0  0  0  0
   -1.4647    0.5300    0.0213 C   0  0  0  0  0  0  0  0  0  0  0  0
    3.0388    0.6469    0.7340 C   0  0  0  0  0  0  0  0  0  0  0  0
    0.5011   -1.3578   -0.1087 C   0  0  0  0  0  0  0  0  0  0  0  0
   -1.7132   -0.8226    0.1898 C   0  0  0  0  0  0  0  0  0  0  0  0
   -2.5650    1.5281    0.0998 C   0  0  0  0  0  0  0  0  0  0  0  0
  1  7  2  0
  1  8  1  0
  2  3  1  0
  2  4  2  0
  2  7  1  0
  3  6  1  0
  4  5  1  0
  5  8  2  0
  5  9  1  0
M  END
>  <PUBCHEM_COMPOUND_CID>  (1) 
19901

>  <PUBCHEM_CONFORMER_RMSD>  (1) 
0.4

>  <PUBCHEM_CONFORMER_DIVERSEORDER>  (1) 
1
2
3
4

>  <PUBCHEM_MMFF94_PARTIAL_CHARGES>  (1) 
11
1 -0.62
12 0.15
16 0.15
17 0.15
2 -0.14
3 0.14
4 -0.15
5 -0.14
7 0.16
8 0.16
9 0.14

>  <PUBCHEM_EFFECTIVE_ROTOR_COUNT>  (1) 
1

>  <PUBCHEM_PHARMACOPHORE_FEATURES>  (1) 
3
1 1 acceptor
1 6 hydrophobe
6 1 2 4 5 7 8 rings

>  <PUBCHEM_HEAVY_ATOM_COUNT>  (1) 
9

>  <PUBCHEM_ATOM_DEF_STEREO_COUNT>  (1) 
0

>  <PUBCHEM_ATOM_UDEF_STEREO_COUNT>  (1) 
0

>  <PUBCHEM_BOND_DEF_STEREO_COUNT>  (1) 
0

>  <PUBCHEM_BOND_UDEF_STEREO_COUNT>  (1) 
0

>  <PUBCHEM_ISOTOPIC_ATOM_COUNT>  (1) 
0

>  <PUBCHEM_COMPONENT_COUNT>  (1) 
1

>  <PUBCHEM_CACTVS_TAUTO_COUNT>  (1) 
1

>  <PUBCHEM_CONFORMER_ID>  (1) 
00004DBD00000001

>  <PUBCHEM_MMFF94_ENERGY>  (1) 
17.9936

>  <PUBCHEM_FEATURE_SELFOVERLAP>  (1) 
15.223

>  <PUBCHEM_SHAPE_FINGERPRINT>  (1) 
10857977 72 18268425922378238368
12423570 1 8212416634737399135
12716758 59 18341620312718420174
14325111 11 18411138021979687124
14390081 3 18201718414313660569
16945 1 18337961215098555919
20645464 45 18202565103107957568
20653085 51 16199606687579476665
20871998 184 18127416867399017358
21040471 1 18337399257245481357
23235685 24 18410009897063650301
23552423 10 18187089476952597062
2748010 2 18265346027174173935
29004967 10 16630260185311440614
369184 2 18200871876507194514
5084963 1 18200888364749467758

>  <PUBCHEM_SHAPE_MULTIPOLES>  (1) 
180.23
3.74
1.63
0.73
1.45
0.43
-0.02
-1.69
-0.56
-0.74
-0.07
0.26
-0.07
0.14

>  <PUBCHEM_SHAPE_SELFOVERLAP>  (1) 
364.562

>  <PUBCHEM_SHAPE_VOLUME>  (1) 
105.8

>  <PUBCHEM_COORDINATE_TYPE>  (1) 
2
5
10

$$$$
