19910
     RDKit          3D

 14 15  0  0  0  0  0  0  0  0999 V2000
    2.5229    2.1997    0.0005 O   0  0  0  0  0  0  0  0  0  0  0  0
   -3.4820    0.5549    0.0011 O   0  0  0  0  0  0  0  0  0  0  0  0
   -2.5989   -1.4596   -0.0006 O   0  0  0  0  0  0  0  0  0  0  0  0
    2.3816   -0.5497    0.0001 N   0  0  0  0  0  0  0  0  0  0  0  0
   -2.4937   -0.2126    0.0003 N   0  0  0  0  0  0  0  0  0  0  0  0
   -0.0253   -0.4298   -0.0003 C   0  0  0  0  0  0  0  0  0  0  0  0
    1.2481    0.1770   -0.0001 C   0  0  0  0  0  0  0  0  0  0  0  0
   -1.1877    0.3598   -0.0006 C   0  0  0  0  0  0  0  0  0  0  0  0
    1.3107    1.5678   -0.0001 C   0  0  0  0  0  0  0  0  0  0  0  0
   -1.0958    1.7487   -0.0005 C   0  0  0  0  0  0  0  0  0  0  0  0
   -0.0889   -1.8298    0.0000 C   0  0  0  0  0  0  0  0  0  0  0  0
    0.1552    2.3530   -0.0001 C   0  0  0  0  0  0  0  0  0  0  0  0
    1.0773   -2.5813    0.0002 C   0  0  0  0  0  0  0  0  0  0  0  0
    2.2766   -1.8983    0.0002 C   0  0  0  0  0  0  0  0  0  0  0  0
  1  9  1  0
  2  5  1  0
  3  5  2  0
  4  7  2  0
  4 14  1  0
  5  8  1  0
  6  7  1  0
  6  8  1  0
  6 11  2  0
  7  9  1  0
  8 10  2  0
  9 12  2  0
 10 12  1  0
 11 13  1  0
 13 14  2  0
M  CHG  2   2  -1   5   1
M  END
>  <PUBCHEM_COMPOUND_CID>  (1) 
19910

>  <PUBCHEM_CONFORMER_RMSD>  (1) 
0.4

>  <PUBCHEM_CONFORMER_DIVERSEORDER>  (1) 
1

>  <PUBCHEM_MMFF94_PARTIAL_CHARGES>  (1) 
19
1 -0.53
10 -0.15
11 -0.15
12 -0.15
13 -0.15
14 0.16
15 0.15
16 0.15
17 0.15
18 0.15
19 0.15
2 -0.52
20 0.45
3 -0.52
4 -0.62
5 0.91
7 0.31
8 0.13
9 0.08

>  <PUBCHEM_EFFECTIVE_ROTOR_COUNT>  (1) 
1

>  <PUBCHEM_PHARMACOPHORE_FEATURES>  (1) 
7
1 1 donor
1 2 acceptor
1 2 anion
1 3 acceptor
1 4 acceptor
6 4 6 7 11 13 14 rings
6 6 7 8 9 10 12 rings

>  <PUBCHEM_HEAVY_ATOM_COUNT>  (1) 
14

>  <PUBCHEM_ATOM_DEF_STEREO_COUNT>  (1) 
0

>  <PUBCHEM_ATOM_UDEF_STEREO_COUNT>  (1) 
0

>  <PUBCHEM_BOND_DEF_STEREO_COUNT>  (1) 
0

>  <PUBCHEM_BOND_UDEF_STEREO_COUNT>  (1) 
0

>  <PUBCHEM_ISOTOPIC_ATOM_COUNT>  (1) 
0

>  <PUBCHEM_COMPONENT_COUNT>  (1) 
1

>  <PUBCHEM_CACTVS_TAUTO_COUNT>  (1) 
5

>  <PUBCHEM_CONFORMER_ID>  (1) 
00004DC600000001

>  <PUBCHEM_MMFF94_ENERGY>  (1) 
58.5111

>  <PUBCHEM_FEATURE_SELFOVERLAP>  (1) 
35.632

>  <PUBCHEM_SHAPE_FINGERPRINT>  (1) 
10967382 1 18410573985241160901
11471102 20 18337667517119616133
12423570 1 17102016412412816108
13140716 1 18410293639782866275
13380535 76 18122339344408561290
15001771 113 18124319306841080728
16945 1 18338797788780829031
17990270 104 18408884040254147771
193761 8 18266459793640376932
20645476 183 17463422955548429084
20645477 70 18411130356054076655
20871998 184 17624404282036292006
2334 1 18266740370878823203
23526114 1 18410854407987833471
23552423 10 18409169896060395109
23559900 14 15317724347128223606
241688 4 17905890266937726448
2748010 2 18337394970873492094
2897 32 18266460004024748093
54173680 148 17329430540952748922
63268167 104 18341055202407096129
7364860 26 18341894078123326456
81228 2 17691125928953950978

>  <PUBCHEM_SHAPE_MULTIPOLES>  (1) 
260.54
3.71
2.96
0.58
1.74
0.69
0
-1.1
0
-1.09
0
-0.03
0
0

>  <PUBCHEM_SHAPE_SELFOVERLAP>  (1) 
578.899

>  <PUBCHEM_SHAPE_VOLUME>  (1) 
138.6

>  <PUBCHEM_COORDINATE_TYPE>  (1) 
2
5
10

$$$$
