19920
     RDKit          3D

  8  8  0  0  1  0  0  0  0  0999 V2000
    2.6297   -0.7016    0.4438 O   0  0  0  0  0  0  0  0  0  0  0  0
   -0.6607   -0.4502   -0.2508 O   0  0  0  0  0  0  0  0  0  0  0  0
    1.6969   -0.1196   -0.4554 C   0  0  0  0  0  0  0  0  0  0  0  0
    2.9853    0.5528   -0.1518 C   0  0  0  0  0  0  0  0  0  0  0  0
    0.4212    0.3430    0.2157 C   0  0  0  0  0  0  0  0  0  0  0  0
   -1.8907   -0.0577    0.3494 C   0  0  0  0  0  0  0  0  0  0  0  0
   -2.1801    1.3961    0.0122 C   0  0  0  0  0  0  0  0  0  0  0  0
   -3.0017   -0.9628   -0.1631 C   0  0  0  0  0  0  0  0  0  0  0  0
  1  3  1  0
  1  4  1  0
  2  5  1  0
  2  6  1  0
  3  4  1  0
  3  5  1  0
  6  7  1  0
  6  8  1  0
M  END
>  <PUBCHEM_COMPOUND_CID>  (1) 
19920

>  <PUBCHEM_CONFORMER_RMSD>  (1) 
0.6

>  <PUBCHEM_CONFORMER_DIVERSEORDER>  (1) 
4
13
10
1
12
6
9
11
3
15
2
14
8
7
5

>  <PUBCHEM_MMFF94_PARTIAL_CHARGES>  (1) 
9
1 -0.3
10 0.1
11 0.1
2 -0.56
3 -0.05
4 -0.05
5 0.38
6 0.28
9 0.1

>  <PUBCHEM_EFFECTIVE_ROTOR_COUNT>  (1) 
3.6

>  <PUBCHEM_PHARMACOPHORE_FEATURES>  (1) 
3
1 1 acceptor
1 2 acceptor
3 6 7 8 hydrophobe

>  <PUBCHEM_HEAVY_ATOM_COUNT>  (1) 
8

>  <PUBCHEM_ATOM_DEF_STEREO_COUNT>  (1) 
0

>  <PUBCHEM_ATOM_UDEF_STEREO_COUNT>  (1) 
1

>  <PUBCHEM_BOND_DEF_STEREO_COUNT>  (1) 
0

>  <PUBCHEM_BOND_UDEF_STEREO_COUNT>  (1) 
0

>  <PUBCHEM_ISOTOPIC_ATOM_COUNT>  (1) 
0

>  <PUBCHEM_COMPONENT_COUNT>  (1) 
1

>  <PUBCHEM_CACTVS_TAUTO_COUNT>  (1) 
1

>  <PUBCHEM_CONFORMER_ID>  (1) 
00004DD000000004

>  <PUBCHEM_MMFF94_ENERGY>  (1) 
15.4354

>  <PUBCHEM_FEATURE_SELFOVERLAP>  (1) 
15.223

>  <PUBCHEM_SHAPE_FINGERPRINT>  (1) 
10857977 72 18060412542965896211
11062470 55 17676203602192307119
12932764 1 17275098435990513142
14325111 11 18410575071846768302
14390081 3 18412262830838359472
15310529 11 18413106173325709734
23552423 10 18262242101327251906
29004967 10 16702025270380141338
3248919 1 17240490216595087352
5460574 1 8502659198772332270

>  <PUBCHEM_SHAPE_MULTIPOLES>  (1) 
152.9
5.24
1.1
0.67
0.99
0.24
0
-0.38
-0.05
-0.69
-0.01
0.05
-0.01
-0.15

>  <PUBCHEM_SHAPE_SELFOVERLAP>  (1) 
282.438

>  <PUBCHEM_SHAPE_VOLUME>  (1) 
98.9

>  <PUBCHEM_COORDINATE_TYPE>  (1) 
2
5
10

$$$$
