19924
     RDKit          3D

 21 20  0  0  1  0  0  0  0  0999 V2000
    4.8275    1.6547   -0.2620 S   0  0  0  0  0  0  0  0  0  0  0  0
    6.4436    1.5700   -0.4601 O   0  0  0  0  0  0  0  0  0  0  0  0
    4.8961   -2.2038    0.4818 O   0  0  0  0  0  0  0  0  0  0  0  0
    4.5217    2.7518    0.6352 O   0  0  0  0  0  0  0  0  0  0  0  0
    4.1895    1.5278   -1.5578 O   0  0  0  0  0  0  0  0  0  0  0  0
    5.1674   -1.0073   -1.4683 O   0  0  0  0  0  0  0  0  0  0  0  0
   -0.4749    0.0143    0.0166 C   0  0  0  0  0  0  0  0  0  0  0  0
   -1.8359    0.0193    0.7227 C   0  0  0  0  0  0  0  0  0  0  0  0
    0.7083   -0.0310    0.9858 C   0  0  0  0  0  0  0  0  0  0  0  0
   -3.0610    0.0427   -0.1997 C   0  0  0  0  0  0  0  0  0  0  0  0
    2.0726    0.0161    0.2886 C   0  0  0  0  0  0  0  0  0  0  0  0
   -4.3894    0.1115    0.5579 C   0  0  0  0  0  0  0  0  0  0  0  0
    3.2483    0.0408    1.2758 C   0  0  0  0  0  0  0  0  0  0  0  0
   -5.6157    0.0562   -0.3588 C   0  0  0  0  0  0  0  0  0  0  0  0
    4.6288    0.1302    0.6164 C   0  0  0  0  0  0  0  0  0  0  0  0
   -6.9745    0.0313    0.3497 C   0  0  0  0  0  0  0  0  0  0  0  0
   -8.2012   -0.0841   -0.5603 C   0  0  0  0  0  0  0  0  0  0  0  0
   -9.5302   -0.0254    0.1928 C   0  0  0  0  0  0  0  0  0  0  0  0
    4.9345   -1.0619   -0.2681 C   0  0  0  0  0  0  0  0  0  0  0  0
  -10.7103   -0.1337   -0.7611 C   0  0  0  0  0  0  0  0  0  0  0  0
    5.1546   -3.4197   -0.2272 C   0  0  0  0  0  0  0  0  0  0  0  0
  1  2  1  0
  1  4  2  0
  1  5  2  0
  1 15  1  0
  3 19  1  0
  3 21  1  0
  6 19  2  0
  7  8  1  0
  7  9  1  0
  8 10  1  0
  9 11  1  0
 10 12  1  0
 11 13  1  0
 12 14  1  0
 13 15  1  0
 14 16  1  0
 15 19  1  0
 16 17  1  0
 17 18  1  0
 18 20  1  0
M  END
>  <PUBCHEM_COMPOUND_CID>  (1) 
19924

>  <PUBCHEM_CONFORMER_RMSD>  (1) 
1.6

>  <PUBCHEM_CONFORMER_DIVERSEORDER>  (1) 
1
9
38
24
21
17
36
7
30
8
31
25
19
12
5
34
26
22
27
35
10
18
3
32
4
16
6
15
23
37
28
11
33
14
2
13
29
20
39

>  <PUBCHEM_MMFF94_PARTIAL_CHARGES>  (1) 
10
1 1.38
15 0.17
19 0.66
2 -0.68
21 0.28
3 -0.43
4 -0.65
48 0.5
5 -0.65
6 -0.57

>  <PUBCHEM_EFFECTIVE_ROTOR_COUNT>  (1) 
14

>  <PUBCHEM_PHARMACOPHORE_FEATURES>  (1) 
6
1 2 acceptor
1 20 hydrophobe
1 4 acceptor
1 5 acceptor
1 6 acceptor
4 1 2 4 5 anion

>  <PUBCHEM_HEAVY_ATOM_COUNT>  (1) 
21

>  <PUBCHEM_ATOM_DEF_STEREO_COUNT>  (1) 
0

>  <PUBCHEM_ATOM_UDEF_STEREO_COUNT>  (1) 
1

>  <PUBCHEM_BOND_DEF_STEREO_COUNT>  (1) 
0

>  <PUBCHEM_BOND_UDEF_STEREO_COUNT>  (1) 
0

>  <PUBCHEM_ISOTOPIC_ATOM_COUNT>  (1) 
0

>  <PUBCHEM_COMPONENT_COUNT>  (1) 
1

>  <PUBCHEM_CACTVS_TAUTO_COUNT>  (1) 
1

>  <PUBCHEM_CONFORMER_ID>  (1) 
00004DD400000001

>  <PUBCHEM_MMFF94_ENERGY>  (1) 
11.5549

>  <PUBCHEM_FEATURE_SELFOVERLAP>  (1) 
30.507

>  <PUBCHEM_SHAPE_FINGERPRINT>  (1) 
10066227 49 18341331085890924791
10299344 5 17988923375845659819
11135609 127 18198619020596629384
11315181 36 18260550040308271153
11638347 137 10015589411012345461
11719270 70 16989126431359034911
12089408 11 18202562879290701473
125118 31 10953454116449101871
13533116 47 18412826872098277698
14251764 18 17418376892393277171
14251764 46 18411979165744546811
15152005 1 17553490180556924278
15183329 4 17489311893021426545
15510794 2 17894915144155132083
20157964 124 18409450297696130416
21150785 3 17703793651752904385
21360442 33 18189332373226024122
21360442 67 18261111876837482675
21362267 313 11314568902808991301
22224240 67 16370721544365997283
22956985 138 16412125689981569926
23081809 10 18060425690235407465
23523788 1 16627147262648563670
33532 11 18272646823617943999
34797466 226 17967814954950539813
59682541 52 18408608041339660074
6025842 7 18411985763437045766
67123 10 17967811674908893387

>  <PUBCHEM_SHAPE_MULTIPOLES>  (1) 
406.67
30.54
2.07
1.06
85.93
1.04
-0.11
1.73
-6.67
-7.69
-0.23
-0.83
-0.1
-0.15

>  <PUBCHEM_SHAPE_SELFOVERLAP>  (1) 
748.983

>  <PUBCHEM_SHAPE_VOLUME>  (1) 
255.9

>  <PUBCHEM_COORDINATE_TYPE>  (1) 
2
5
10

$$$$
