19937
     RDKit          3D

 29 34  0  0  1  0  0  0  0  0999 V2000
    1.1374    0.3982    1.5065 O   0  0  0  0  0  0  0  0  0  0  0  0
    3.0357   -2.0887    1.9195 O   0  0  0  0  0  0  0  0  0  0  0  0
   -7.2292    1.2086    0.6417 O   0  0  0  0  0  0  0  0  0  0  0  0
    5.0186    1.1312    1.0683 O   0  0  0  0  0  0  0  0  0  0  0  0
    6.8876    1.9895    0.1001 O   0  0  0  0  0  0  0  0  0  0  0  0
    0.3477   -0.1872    0.4608 C   0  0  0  0  0  0  0  0  0  0  0  0
    1.0823   -0.5197   -0.8305 C   0  0  0  0  0  0  0  0  0  0  0  0
   -1.1217    0.1368    0.4768 C   0  0  0  0  0  0  0  0  0  0  0  0
    0.9205   -1.0150    1.5690 C   0  0  0  0  0  0  0  0  0  0  0  0
   -1.9233   -0.8876   -0.3682 C   0  0  0  0  0  0  0  0  0  0  0  0
    2.3967   -1.2573   -0.3417 C   0  0  0  0  0  0  0  0  0  0  0  0
    1.9727   -1.9110    1.0008 C   0  0  0  0  0  0  0  0  0  0  0  0
   -3.4689   -0.5569   -0.4149 C   0  0  0  0  0  0  0  0  0  0  0  0
    0.2065   -1.5029   -1.6422 C   0  0  0  0  0  0  0  0  0  0  0  0
   -1.2604   -1.0631   -1.7593 C   0  0  0  0  0  0  0  0  0  0  0  0
   -1.3983    1.5815    0.0556 C   0  0  0  0  0  0  0  0  0  0  0  0
   -3.7202    0.9455   -0.7542 C   0  0  0  0  0  0  0  0  0  0  0  0
    1.4038    0.7176   -1.6826 C   0  0  0  0  0  0  0  0  0  0  0  0
   -2.8835    1.9014    0.1179 C   0  0  0  0  0  0  0  0  0  0  0  0
   -4.1059   -0.8862    0.9717 C   0  0  0  0  0  0  0  0  0  0  0  0
    3.6033   -0.3697   -0.1893 C   0  0  0  0  0  0  0  0  0  0  0  0
   -5.2118    1.3189   -0.6480 C   0  0  0  0  0  0  0  0  0  0  0  0
   -4.1595   -1.4542   -1.4768 C   0  0  0  0  0  0  0  0  0  0  0  0
   -5.5785   -0.4890    1.0919 C   0  0  0  0  0  0  0  0  0  0  0  0
   -5.8260    0.9664    0.7065 C   0  0  0  0  0  0  0  0  0  0  0  0
    4.5017   -0.2331   -1.3061 C   0  0  0  0  0  0  0  0  0  0  0  0
    3.8944    0.3052    0.9274 C   0  0  0  0  0  0  0  0  0  0  0  0
    5.5873    0.5422   -1.2229 C   0  0  0  0  0  0  0  0  0  0  0  0
    5.8910    1.2785    0.0221 C   0  0  0  0  0  0  0  0  0  0  0  0
  1  6  1  0
  1  9  1  0
  2 12  1  0
  3 25  1  0
  4 27  1  0
  4 29  1  0
  5 29  2  0
  6  7  1  0
  6  8  1  0
  6  9  1  0
  7 11  1  0
  7 14  1  0
  7 18  1  0
  8 10  1  0
  8 16  1  0
  9 12  1  0
 10 13  1  0
 10 15  1  0
 11 12  1  0
 11 21  1  0
 13 17  1  0
 13 20  1  0
 13 23  1  0
 14 15  1  0
 16 19  1  0
 17 19  1  0
 17 22  1  0
 20 24  1  0
 21 26  1  0
 21 27  2  0
 22 25  1  0
 24 25  1  0
 26 28  2  0
 28 29  1  0
M  END
>  <PUBCHEM_COMPOUND_CID>  (1) 
19937

>  <PUBCHEM_CONFORMER_RMSD>  (1) 
0.8

>  <PUBCHEM_CONFORMER_DIVERSEORDER>  (1) 
8
10
6
9
3
5
7
12
11
14
1
13
4
2

>  <PUBCHEM_MMFF94_PARTIAL_CHARGES>  (1) 
23
1 -0.3
11 0.14
12 0.38
2 -0.68
21 -0.14
25 0.28
26 -0.15
27 -0.07
28 -0.14
29 0.71
3 -0.68
31 0.1
4 -0.23
5 -0.57
56 0.4
58 0.15
59 0.15
6 -0.04
60 0.4
61 0.15
7 0.09
8 0.09
9 -0.05

>  <PUBCHEM_EFFECTIVE_ROTOR_COUNT>  (1) 
3.2

>  <PUBCHEM_PHARMACOPHORE_FEATURES>  (1) 
11
1 1 acceptor
1 2 acceptor
1 2 donor
1 3 acceptor
1 3 donor
1 5 acceptor
6 1 6 7 9 11 12 rings
6 13 17 20 22 24 25 rings
6 4 21 26 27 28 29 rings
6 6 7 8 10 14 15 rings
6 8 10 13 16 17 19 rings

>  <PUBCHEM_HEAVY_ATOM_COUNT>  (1) 
29

>  <PUBCHEM_ATOM_DEF_STEREO_COUNT>  (1) 
8

>  <PUBCHEM_ATOM_UDEF_STEREO_COUNT>  (1) 
2

>  <PUBCHEM_BOND_DEF_STEREO_COUNT>  (1) 
0

>  <PUBCHEM_BOND_UDEF_STEREO_COUNT>  (1) 
0

>  <PUBCHEM_ISOTOPIC_ATOM_COUNT>  (1) 
0

>  <PUBCHEM_COMPONENT_COUNT>  (1) 
1

>  <PUBCHEM_CACTVS_TAUTO_COUNT>  (1) 
1

>  <PUBCHEM_CONFORMER_ID>  (1) 
00004DE100000008

>  <PUBCHEM_MMFF94_ENERGY>  (1) 
109.3803

>  <PUBCHEM_FEATURE_SELFOVERLAP>  (1) 
56.039

>  <PUBCHEM_SHAPE_FINGERPRINT>  (1) 
10 15 18335703857639478641
10554248 39 18054775205675466295
106641 1 15936415580306594476
10759866 29 18270394988853520806
10906281 52 18129664076747354665
11315181 36 8935000377928059175
12011746 2 15554449595497013671
12236239 1 18334576823887526751
12403260 363 11819283252123108751
12596602 18 18187085035855848771
12788726 201 18199188395651944057
13224815 77 18202275897269339431
13533116 47 18114462236701285714
13540713 4 16082752743975134382
13583140 156 18040983047569842109
13631057 29 17896882256288419427
13862211 1 12179846108614220605
14341114 176 17968383351370924171
14341114 328 18259705588273614955
14739800 52 18337375090192890800
14790565 3 17489878119750363737
14840074 17 18273495671947464925
14849402 71 17387144254535443668
15183329 4 13038911022963604049
15188451 53 10665225968772993076
15840311 113 18410016541441640596
1601671 61 17846777407845368946
16994733 274 18129092489551268288
17349148 13 11674878853396436099
17980427 23 18335420205378119821
18222031 100 11600009851735308486
19377110 9 17748825228510211739
20511986 3 17603576405692196731
20567600 234 16009037210956169020
21033648 29 17632003243319357426
21756936 100 18338509854780278478
22079108 93 17968098646494300442
221357 26 14476961159882093234
22149856 69 17387436570642332649
22224240 67 17240764016438905602
22393880 68 14045446856810523741
23559900 14 16200427005142960786
23569917 315 17385725811948579778
24771293 8 18189332545488575980
2838139 119 18341043108291237780
29717793 49 10592038059833847131
3004659 81 16773525395755651758
32027 91 16518194502607624203
34797466 226 18131075917805870596
34934 24 18411415111573184102
392239 28 18041290966496761497
4058900 60 17131286649269509655
4325135 7 17530970189400530107
4340502 62 17821731624113412322
474 4 17967536796247880876
5104073 3 16660915565894879057
5718773 13 11675179098208971073
57527585 21 17772733988962101045
58260988 393 17895196554470228869
59755656 215 13686302348786370501
59755656 520 18260261993472850262
6328613 192 17275111638788683193

>  <PUBCHEM_SHAPE_MULTIPOLES>  (1) 
567.46
14.88
1.86
1.65
0.18
0.07
0.01
7.52
-1.1
-0.19
-0.08
-0.48
-0.59
-0.53

>  <PUBCHEM_SHAPE_SELFOVERLAP>  (1) 
1245.139

>  <PUBCHEM_SHAPE_VOLUME>  (1) 
302.8

>  <PUBCHEM_COORDINATE_TYPE>  (1) 
2
5
10

$$$$
