19936
     RDKit          3D

 15 15  0  0  0  0  0  0  0  0999 V2000
   -1.5507   -2.5726   -0.0342 Cl  0  0  0  0  0  0  0  0  0  0  0  0
   -0.7033   -0.8987    2.1848 Cl  0  0  0  0  0  0  0  0  0  0  0  0
    1.0209   -1.6435   -1.8542 Cl  0  0  0  0  0  0  0  0  0  0  0  0
    1.7266   -2.3902    0.8339 Cl  0  0  0  0  0  0  0  0  0  0  0  0
   -3.0709    0.3892    0.4658 Cl  0  0  0  0  0  0  0  0  0  0  0  0
   -1.6496    0.1727   -2.0212 Cl  0  0  0  0  0  0  0  0  0  0  0  0
    3.2714    0.2328   -0.0627 Cl  0  0  0  0  0  0  0  0  0  0  0  0
    1.6573    2.9486    0.2304 Cl  0  0  0  0  0  0  0  0  0  0  0  0
   -1.2049    2.5719    0.1587 O   0  0  0  0  0  0  0  0  0  0  0  0
   -0.6625   -1.0370    0.3391 C   0  0  0  0  0  0  0  0  0  0  0  0
    0.8386   -1.1142   -0.1212 C   0  0  0  0  0  0  0  0  0  0  0  0
   -1.4138    0.1974   -0.2374 C   0  0  0  0  0  0  0  0  0  0  0  0
    1.5200    0.2449   -0.0083 C   0  0  0  0  0  0  0  0  0  0  0  0
   -0.6386    1.4840    0.0388 C   0  0  0  0  0  0  0  0  0  0  0  0
    0.8596    1.4148    0.0877 C   0  0  0  0  0  0  0  0  0  0  0  0
  1 10  1  0
  2 10  1  0
  3 11  1  0
  4 11  1  0
  5 12  1  0
  6 12  1  0
  7 13  1  0
  8 15  1  0
  9 14  2  0
 10 11  1  0
 10 12  1  0
 11 13  1  0
 12 14  1  0
 13 15  2  0
 14 15  1  0
M  END
>  <PUBCHEM_COMPOUND_CID>  (1) 
19936

>  <PUBCHEM_CONFORMER_RMSD>  (1) 
0.4

>  <PUBCHEM_CONFORMER_DIVERSEORDER>  (1) 
1
2

>  <PUBCHEM_MMFF94_PARTIAL_CHARGES>  (1) 
14
1 -0.29
10 0.58
11 0.72
12 0.64
14 0.49
15 0.15
2 -0.29
3 -0.29
4 -0.29
5 -0.29
6 -0.29
7 -0.14
8 -0.14
9 -0.57

>  <PUBCHEM_EFFECTIVE_ROTOR_COUNT>  (1) 
0.6

>  <PUBCHEM_PHARMACOPHORE_FEATURES>  (1) 
2
1 9 acceptor
6 10 11 12 13 14 15 rings

>  <PUBCHEM_HEAVY_ATOM_COUNT>  (1) 
15

>  <PUBCHEM_ATOM_DEF_STEREO_COUNT>  (1) 
0

>  <PUBCHEM_ATOM_UDEF_STEREO_COUNT>  (1) 
0

>  <PUBCHEM_BOND_DEF_STEREO_COUNT>  (1) 
0

>  <PUBCHEM_BOND_UDEF_STEREO_COUNT>  (1) 
0

>  <PUBCHEM_ISOTOPIC_ATOM_COUNT>  (1) 
0

>  <PUBCHEM_COMPONENT_COUNT>  (1) 
1

>  <PUBCHEM_CACTVS_TAUTO_COUNT>  (1) 
1

>  <PUBCHEM_CONFORMER_ID>  (1) 
00004DE000000001

>  <PUBCHEM_MMFF94_ENERGY>  (1) 
37.7601

>  <PUBCHEM_FEATURE_SELFOVERLAP>  (1) 
10.148

>  <PUBCHEM_SHAPE_FINGERPRINT>  (1) 
10863032 1 17982736564827093775
10967382 1 18410293583937709072
12423570 1 13661023919022431303
13024252 1 17458340883570453822
13140716 1 18267021845934889464
144361 1 17702954604031896390
14817 1 11193471302310668522
16945 1 18337092527966714592
193761 8 18194684997312600616
20511035 2 18119820358869091572
20645476 183 15886627112224710038
21501502 16 18121502615769699409
22112679 90 17766247926470952757
22344851 262 17989204819771194908
22344851 341 18194958767154951314
2334 1 17978511167327211736
23402539 116 18198046006922306110
23419403 2 17896017898045171455
23559900 14 18340773728374819476
241688 4 17906170650887521688
2748010 2 18122343750876351364
5084963 1 17984148337899901522
528886 8 18343577464742952939
68250623 7 18193554699480715579

>  <PUBCHEM_SHAPE_MULTIPOLES>  (1) 
317.78
3.44
3.09
1.58
0.73
0.26
-0.25
0.58
0.11
0.64
0.25
-0.6
-0.59
0.21

>  <PUBCHEM_SHAPE_SELFOVERLAP>  (1) 
582.728

>  <PUBCHEM_SHAPE_VOLUME>  (1) 
202.1

>  <PUBCHEM_COORDINATE_TYPE>  (1) 
2
5
10

$$$$
