19941
     RDKit          3D

 32 37  0  0  1  0  0  0  0  0999 V2000
    2.0141    0.7208    1.4712 O   0  0  0  0  0  0  0  0  0  0  0  0
   -2.5028    0.0156   -2.1661 O   0  0  0  0  0  0  0  0  0  0  0  0
   -6.3673    0.3915    0.6380 O   0  0  0  0  0  0  0  0  0  0  0  0
    5.8637    1.6205    0.8320 O   0  0  0  0  0  0  0  0  0  0  0  0
    7.6954    2.2979   -0.3314 O   0  0  0  0  0  0  0  0  0  0  0  0
   -6.3739    2.6102   -0.0056 O   0  0  0  0  0  0  0  0  0  0  0  0
    1.3135   -0.2268    0.6507 C   0  0  0  0  0  0  0  0  0  0  0  0
    2.1029   -0.8463   -0.4888 C   0  0  0  0  0  0  0  0  0  0  0  0
   -0.1813   -0.0630    0.5866 C   0  0  0  0  0  0  0  0  0  0  0  0
    1.9492   -0.6291    1.9422 C   0  0  0  0  0  0  0  0  0  0  0  0
   -0.8647   -1.3577    0.0737 C   0  0  0  0  0  0  0  0  0  0  0  0
    3.4715   -1.2778    0.1757 C   0  0  0  0  0  0  0  0  0  0  0  0
   -2.4394   -1.2047   -0.0456 C   0  0  0  0  0  0  0  0  0  0  0  0
    3.1305   -1.5032    1.6665 C   0  0  0  0  0  0  0  0  0  0  0  0
    1.3471   -2.1121   -0.9598 C   0  0  0  0  0  0  0  0  0  0  0  0
   -0.1505   -1.8747   -1.2013 C   0  0  0  0  0  0  0  0  0  0  0  0
   -0.5937    1.1722   -0.2164 C   0  0  0  0  0  0  0  0  0  0  0  0
   -2.8497    0.1206   -0.7780 C   0  0  0  0  0  0  0  0  0  0  0  0
   -2.1076    1.3518   -0.2138 C   0  0  0  0  0  0  0  0  0  0  0  0
    2.3161    0.1082   -1.6725 C   0  0  0  0  0  0  0  0  0  0  0  0
   -3.0443   -1.1984    1.3974 C   0  0  0  0  0  0  0  0  0  0  0  0
   -4.3746    0.3562   -0.7190 C   0  0  0  0  0  0  0  0  0  0  0  0
    4.6032   -0.2936    0.0670 C   0  0  0  0  0  0  0  0  0  0  0  0
   -3.0183   -2.4433   -0.7854 C   0  0  0  0  0  0  0  0  0  0  0  0
   -4.5507   -0.9414    1.4437 C   0  0  0  0  0  0  0  0  0  0  0  0
   -4.9449    0.3268    0.6971 C   0  0  0  0  0  0  0  0  0  0  0  0
    5.5248   -0.4240   -1.0314 C   0  0  0  0  0  0  0  0  0  0  0  0
    4.8080    0.7034    0.9339 C   0  0  0  0  0  0  0  0  0  0  0  0
    6.5475    0.4246   -1.1736 C   0  0  0  0  0  0  0  0  0  0  0  0
    6.7564    1.5190   -0.2026 C   0  0  0  0  0  0  0  0  0  0  0  0
   -6.8845    1.4987    0.0277 C   0  0  0  0  0  0  0  0  0  0  0  0
   -8.1961    1.1581   -0.6125 C   0  0  0  0  0  0  0  0  0  0  0  0
  1  7  1  0
  1 10  1  0
  2 18  1  0
  3 26  1  0
  3 31  1  0
  4 28  1  0
  4 30  1  0
  5 30  2  0
  6 31  2  0
  7  8  1  0
  7  9  1  0
  7 10  1  0
  8 12  1  0
  8 15  1  0
  8 20  1  0
  9 11  1  0
  9 17  1  0
 10 14  1  0
 11 13  1  0
 11 16  1  0
 12 14  1  0
 12 23  1  0
 13 18  1  0
 13 21  1  0
 13 24  1  0
 15 16  1  0
 17 19  1  0
 18 19  1  0
 18 22  1  0
 21 25  1  0
 22 26  1  0
 23 27  1  0
 23 28  2  0
 25 26  1  0
 27 29  2  0
 29 30  1  0
 31 32  1  0
M  END
>  <PUBCHEM_COMPOUND_CID>  (1) 
19941

>  <PUBCHEM_CONFORMER_RMSD>  (1) 
0.8

>  <PUBCHEM_CONFORMER_DIVERSEORDER>  (1) 
7
17
12
44
13
29
40
43
22
36
26
21
11
35
41
2
28
24
32
20
27
4
1
9
33
31
39
5
25
30
10
16
15
34
8
38
42
14
3
37
19
23
18
6

>  <PUBCHEM_MMFF94_PARTIAL_CHARGES>  (1) 
26
1 -0.3
10 -0.05
12 0.14
14 0.09
18 0.28
2 -0.68
23 -0.14
26 0.28
27 -0.15
28 -0.07
29 -0.14
3 -0.43
30 0.71
31 0.66
32 0.06
34 0.1
4 -0.23
5 -0.57
6 -0.57
60 0.4
61 0.15
62 0.15
63 0.15
7 -0.04
8 0.09
9 0.09

>  <PUBCHEM_EFFECTIVE_ROTOR_COUNT>  (1) 
5.2

>  <PUBCHEM_PHARMACOPHORE_FEATURES>  (1) 
10
1 1 acceptor
1 2 acceptor
1 2 donor
1 5 acceptor
1 6 acceptor
6 1 7 8 10 12 14 rings
6 13 18 21 22 25 26 rings
6 4 23 27 28 29 30 rings
6 7 8 9 11 15 16 rings
6 9 11 13 17 18 19 rings

>  <PUBCHEM_HEAVY_ATOM_COUNT>  (1) 
32

>  <PUBCHEM_ATOM_DEF_STEREO_COUNT>  (1) 
7

>  <PUBCHEM_ATOM_UDEF_STEREO_COUNT>  (1) 
2

>  <PUBCHEM_BOND_DEF_STEREO_COUNT>  (1) 
0

>  <PUBCHEM_BOND_UDEF_STEREO_COUNT>  (1) 
0

>  <PUBCHEM_ISOTOPIC_ATOM_COUNT>  (1) 
0

>  <PUBCHEM_COMPONENT_COUNT>  (1) 
1

>  <PUBCHEM_CACTVS_TAUTO_COUNT>  (1) 
1

>  <PUBCHEM_CONFORMER_ID>  (1) 
00004DE500000007

>  <PUBCHEM_MMFF94_ENERGY>  (1) 
119.9226

>  <PUBCHEM_FEATURE_SELFOVERLAP>  (1) 
50.957

>  <PUBCHEM_SHAPE_FINGERPRINT>  (1) 
10 15 18113054939168971121
10066227 112 18342458149063524089
10366900 7 16343985792927335939
10554248 39 18269259176030394919
106641 1 18113624508526566035
10816530 90 18059285557145128112
10906281 52 18341898455048351017
11607047 141 17460589225777458114
11991303 11 16773786026786570661
12011746 2 17418095407740143371
12166972 35 11599998856134117811
12236239 1 17968097512391092114
12645989 146 11815894569696269841
12788726 201 17346321431856928211
13668630 136 10807937054698772201
13914758 101 12607410979352282027
14251757 52 18409729560622616192
14251764 18 17967814947283706219
14849402 71 16081946969629377036
14931854 50 16630528397576821841
15183329 4 14908187447379816296
15188451 53 9583520914966436444
15461852 350 17988638623924888895
15840311 113 18187650206581922260
16728300 4 8862125799876013576
16994733 274 18335983190208484120
17980427 23 18040997396781473230
19377110 9 15574711387241939344
21033648 29 18270107024576572872
21130935 74 17822011965535593419
21150785 3 17346596366421469997
21267235 1 8142088667385405474
23559900 14 14117216400403716475
23569943 247 10950123682996862516
23576562 1 17916015940280814053
24771293 8 17750797839056194212
249057 3 14979950384912186788
34797466 226 17895200982760501910
3633792 109 13470692512515299611
392239 28 16298389088619968220
4058900 60 18130798802131599595
4073 2 18186806902010903330
4325135 7 17603309241013863868
4340502 62 16877661249585808786
5104073 3 14852149686002887708
5718773 13 8790592702922685113
58260988 393 16805599222804333228
59755656 215 15051736369444763196
6081469 158 10519980449354619569
6086070 43 16630519674266479115
6328613 192 18343025492699885081

>  <PUBCHEM_SHAPE_MULTIPOLES>  (1) 
623.33
18.81
2.11
1.54
3.73
0.07
-0.08
13.89
0.93
0.32
0.18
-0.45
-0.4
0.21

>  <PUBCHEM_SHAPE_SELFOVERLAP>  (1) 
1361.371

>  <PUBCHEM_SHAPE_VOLUME>  (1) 
335.1

>  <PUBCHEM_COORDINATE_TYPE>  (1) 
2
5
10

$$$$
