1994
     RDKit          3D

 25 24  0  0  1  0  0  0  0  0999 V2000
   -2.1870   -0.9577    0.2749 S   0  0  0  0  0  0  0  0  0  0  0  0
   -5.7528   -1.8731   -0.4822 O   0  0  0  0  0  0  0  0  0  0  0  0
   -4.7405   -1.3489   -2.4419 O   0  0  0  0  0  0  0  0  0  0  0  0
   -5.4355    2.6579    0.7163 O   0  0  0  0  0  0  0  0  0  0  0  0
   -5.1438    0.3479    0.7196 N   0  0  0  0  0  0  0  0  0  0  0  0
    3.8514   -2.6163    0.7299 C   0  0  0  0  0  0  0  0  0  0  0  0
    2.3732   -3.0264    0.7108 C   0  0  0  0  0  0  0  0  0  0  0  0
    5.1260    1.0259    1.6464 C   0  0  0  0  0  0  0  0  0  0  0  0
    4.9865   -0.3332    0.9943 C   0  0  0  0  0  0  0  0  0  0  0  0
    4.0805   -1.2656    1.3493 C   0  0  0  0  0  0  0  0  0  0  0  0
    1.4656   -2.0352    0.0136 C   0  0  0  0  0  0  0  0  0  0  0  0
    4.9467    2.2082    0.6859 C   0  0  0  0  0  0  0  0  0  0  0  0
    0.4832   -1.3461    0.6280 C   0  0  0  0  0  0  0  0  0  0  0  0
    5.9256   -0.5943   -0.1550 C   0  0  0  0  0  0  0  0  0  0  0  0
   -0.4856   -0.3909   -0.0001 C   0  0  0  0  0  0  0  0  0  0  0  0
   -4.5739    0.2171   -0.5982 C   0  0  0  0  0  0  0  0  0  0  0  0
    1.6808   -1.8849   -1.4697 C   0  0  0  0  0  0  0  0  0  0  0  0
   -3.0518    0.3780   -0.5826 C   0  0  0  0  0  0  0  0  0  0  0  0
    3.5894    2.2426    0.0393 C   0  0  0  0  0  0  0  0  0  0  0  0
    3.3075    2.2360   -1.2771 C   0  0  0  0  0  0  0  0  0  0  0  0
   -5.0126   -1.0677   -1.2811 C   0  0  0  0  0  0  0  0  0  0  0  0
    1.8809    2.3019   -1.7530 C   0  0  0  0  0  0  0  0  0  0  0  0
    4.3279    2.1495   -2.3759 C   0  0  0  0  0  0  0  0  0  0  0  0
   -5.5271    1.5630    1.2654 C   0  0  0  0  0  0  0  0  0  0  0  0
   -6.1145    1.4123    2.6431 C   0  0  0  0  0  0  0  0  0  0  0  0
  1 15  1  0
  1 18  1  0
  2 21  1  0
  3 21  2  0
  4 24  2  0
  5 16  1  0
  5 24  1  0
  6  7  1  0
  6 10  1  0
  7 11  1  0
  8  9  1  0
  8 12  1  0
  9 10  2  0
  9 14  1  0
 11 13  2  0
 11 17  1  0
 12 19  1  0
 13 15  1  0
 16 18  1  0
 16 21  1  0
 19 20  2  3
 20 22  1  0
 20 23  1  0
 24 25  1  0
M  END
>  <PUBCHEM_COMPOUND_CID>  (1) 
1994

>  <PUBCHEM_CONFORMER_RMSD>  (1) 
1.6

>  <PUBCHEM_CONFORMER_DIVERSEORDER>  (1) 
3
39
90
1
113
98
29
6
63
38
65
52
109
31
51
64
46
68
2
86
60
83
55
49
85
89
13
84
27
107
32
93
82
58
26
94
108
106
12
25
66
70
37
100
16
44
62
114
43
75
9
77
104
110
47
72
30
21
99
45
14
22
50
112
103
81
61
17
15
41
18
88
73
101
111
48
97
54
7
105
102
53
78
76
67
96
4
74
42
40
36
59
23
33
87
20
69
28
11
35
95
92
19
8
80
5
56
71
79
57
10
34
24
91

>  <PUBCHEM_MMFF94_PARTIAL_CHARGES>  (1) 
30
1 -0.46
10 -0.29
11 -0.28
12 0.14
13 -0.29
14 0.14
15 0.37
16 0.36
17 0.14
18 0.23
19 -0.29
2 -0.65
20 -0.28
21 0.66
22 0.14
23 0.14
24 0.57
25 0.06
3 -0.57
32 0.15
35 0.15
4 -0.57
47 0.15
48 0.37
5 -0.73
58 0.5
6 0.14
7 0.14
8 0.14
9 -0.28

>  <PUBCHEM_EFFECTIVE_ROTOR_COUNT>  (1) 
13

>  <PUBCHEM_PHARMACOPHORE_FEATURES>  (1) 
11
1 14 hydrophobe
1 17 hydrophobe
1 2 acceptor
1 3 acceptor
1 4 acceptor
1 5 donor
3 2 3 21 anion
3 20 22 23 hydrophobe
4 1 13 15 18 hydrophobe
4 6 7 10 11 hydrophobe
4 8 9 12 19 hydrophobe

>  <PUBCHEM_HEAVY_ATOM_COUNT>  (1) 
25

>  <PUBCHEM_ATOM_DEF_STEREO_COUNT>  (1) 
0

>  <PUBCHEM_ATOM_UDEF_STEREO_COUNT>  (1) 
1

>  <PUBCHEM_BOND_DEF_STEREO_COUNT>  (1) 
0

>  <PUBCHEM_BOND_UDEF_STEREO_COUNT>  (1) 
2

>  <PUBCHEM_ISOTOPIC_ATOM_COUNT>  (1) 
0

>  <PUBCHEM_COMPONENT_COUNT>  (1) 
1

>  <PUBCHEM_CACTVS_TAUTO_COUNT>  (1) 
2

>  <PUBCHEM_CONFORMER_ID>  (1) 
000007CA00000003

>  <PUBCHEM_MMFF94_ENERGY>  (1) 
30.8172

>  <PUBCHEM_FEATURE_SELFOVERLAP>  (1) 
55.922

>  <PUBCHEM_SHAPE_FINGERPRINT>  (1) 
10319926 262 14634866449306955309
11545043 162 15213017137770398789
12422481 6 18334853866500666837
12616971 3 18409169879276047881
12633257 1 17168691051346080010
13075007 39 16950290623687273560
13422730 153 18193531549628362878
14251764 75 18044672020861748892
15183329 4 18040715904582870236
19377110 9 18341334470245396259
21298829 104 18411980291364134312
513532 50 17917436441259118116
5951187 136 17703795864209928632

>  <PUBCHEM_SHAPE_MULTIPOLES>  (1) 
495.75
17.54
3.49
2.1
18.94
0.17
0.23
5.69
-4.73
-3.24
0.34
1.33
0.86
-3.91

>  <PUBCHEM_SHAPE_SELFOVERLAP>  (1) 
938.2

>  <PUBCHEM_SHAPE_VOLUME>  (1) 
307.6

>  <PUBCHEM_COORDINATE_TYPE>  (1) 
2
5
10

$$$$
