19966
     RDKit          3D

  6  5  0  0  0  0  0  0  0  0999 V2000
    1.7269    0.5413   -0.0752 C   0  0  0  0  0  0  0  0  0  0  0  0
    0.6894   -0.5793   -0.1509 C   0  0  0  0  0  0  0  0  0  0  0  0
    3.1106   -0.0031    0.2442 C   0  0  0  0  0  0  0  0  0  0  0  0
   -0.6796   -0.0351   -0.4393 C   0  0  0  0  0  0  0  0  0  0  0  0
   -1.7422   -0.2298    0.3551 C   0  0  0  0  0  0  0  0  0  0  0  0
   -3.1052    0.3059    0.0662 C   0  0  0  0  0  0  0  0  0  0  0  0
  1  2  1  0
  1  3  1  0
  2  4  1  0
  4  5  2  0
  5  6  1  0
M  END
>  <PUBCHEM_COMPOUND_CID>  (1) 
19966

>  <PUBCHEM_CONFORMER_RMSD>  (1) 
0.4

>  <PUBCHEM_CONFORMER_DIVERSEORDER>  (1) 
1
3
4
2

>  <PUBCHEM_MMFF94_PARTIAL_CHARGES>  (1) 
6
14 0.15
15 0.15
2 0.14
4 -0.29
5 -0.29
6 0.14

>  <PUBCHEM_EFFECTIVE_ROTOR_COUNT>  (1) 
2

>  <PUBCHEM_PHARMACOPHORE_FEATURES>  (1) 
2
1 3 hydrophobe
1 6 hydrophobe

>  <PUBCHEM_HEAVY_ATOM_COUNT>  (1) 
6

>  <PUBCHEM_ATOM_DEF_STEREO_COUNT>  (1) 
0

>  <PUBCHEM_ATOM_UDEF_STEREO_COUNT>  (1) 
0

>  <PUBCHEM_BOND_DEF_STEREO_COUNT>  (1) 
0

>  <PUBCHEM_BOND_UDEF_STEREO_COUNT>  (1) 
1

>  <PUBCHEM_ISOTOPIC_ATOM_COUNT>  (1) 
0

>  <PUBCHEM_COMPONENT_COUNT>  (1) 
1

>  <PUBCHEM_CACTVS_TAUTO_COUNT>  (1) 
1

>  <PUBCHEM_CONFORMER_ID>  (1) 
00004DFE00000001

>  <PUBCHEM_MMFF94_ENERGY>  (1) 
-3.1168

>  <PUBCHEM_FEATURE_SELFOVERLAP>  (1) 
10.149

>  <PUBCHEM_SHAPE_FINGERPRINT>  (1) 
11062470 55 11458423539717483159
14325111 11 18343301487261142590
14390081 3 17561365071553483705
16714656 1 13830132788940737193
20096714 4 18060419157199707564
29004967 10 11241968183115309060
5460574 1 9151176449817882455

>  <PUBCHEM_SHAPE_MULTIPOLES>  (1) 
123.48
5
0.75
0.68
0.01
0
0
-0.59
-0.6
0.06
0.01
-0.03
0.01
0.01

>  <PUBCHEM_SHAPE_SELFOVERLAP>  (1) 
211.727

>  <PUBCHEM_SHAPE_VOLUME>  (1) 
83.3

>  <PUBCHEM_COORDINATE_TYPE>  (1) 
2
5
10

$$$$
