19984
     RDKit          3D

 18 20  0  0  1  0  0  0  0  0999 V2000
    1.5396    1.4582   -0.6473 O   0  0  0  0  0  0  0  0  0  0  0  0
    2.4732   -0.0672    0.8696 O   0  0  0  0  0  0  0  0  0  0  0  0
   -0.7500   -1.3866   -0.2677 O   0  0  0  0  0  0  0  0  0  0  0  0
   -1.8421    1.1362    0.7168 O   0  0  0  0  0  0  0  0  0  0  0  0
   -2.6124   -0.1964   -1.0542 O   0  0  0  0  0  0  0  0  0  0  0  0
    0.6424   -3.7690   -0.2984 O   0  0  0  0  0  0  0  0  0  0  0  0
    0.5464    1.1110    0.3234 C   0  0  0  0  0  0  0  0  0  0  0  0
    1.0495   -0.2192    0.8487 C   0  0  0  0  0  0  0  0  0  0  0  0
   -0.8335    1.0594   -0.2995 C   0  0  0  0  0  0  0  0  0  0  0  0
   -1.1809   -0.2398   -1.0015 C   0  0  0  0  0  0  0  0  0  0  0  0
    0.6597   -1.3923   -0.0573 C   0  0  0  0  0  0  0  0  0  0  0  0
    2.7668    0.9659   -0.0860 C   0  0  0  0  0  0  0  0  0  0  0  0
   -3.0029    0.5387    0.1176 C   0  0  0  0  0  0  0  0  0  0  0  0
    1.0355   -2.7271    0.5765 C   0  0  0  0  0  0  0  0  0  0  0  0
    3.4904    2.1010    0.6355 C   0  0  0  0  0  0  0  0  0  0  0  0
    3.6367    0.4034   -1.2029 C   0  0  0  0  0  0  0  0  0  0  0  0
   -3.9784    1.6333   -0.2989 C   0  0  0  0  0  0  0  0  0  0  0  0
   -3.6398   -0.4095    1.1257 C   0  0  0  0  0  0  0  0  0  0  0  0
  1  7  1  0
  1 12  1  0
  2  8  1  0
  2 12  1  0
  3 10  1  0
  3 11  1  0
  4  9  1  0
  4 13  1  0
  5 10  1  0
  5 13  1  0
  6 14  1  0
  7  8  1  0
  7  9  1  0
  8 11  1  0
  9 10  1  0
 11 14  1  0
 12 15  1  0
 12 16  1  0
 13 17  1  0
 13 18  1  0
M  END
>  <PUBCHEM_COMPOUND_CID>  (1) 
19984

>  <PUBCHEM_CONFORMER_RMSD>  (1) 
0.6

>  <PUBCHEM_CONFORMER_DIVERSEORDER>  (1) 
3
18
34
21
11
5
30
25
32
17
10
14
16
23
26
8
24
6
2
29
4
35
12
31
33
1
19
22
9
15
27
13
20
36
28
7
37

>  <PUBCHEM_MMFF94_PARTIAL_CHARGES>  (1) 
15
1 -0.56
10 0.56
11 0.28
12 0.56
13 0.56
14 0.28
2 -0.56
3 -0.56
38 0.4
4 -0.56
5 -0.56
6 -0.68
7 0.28
8 0.28
9 0.28

>  <PUBCHEM_EFFECTIVE_ROTOR_COUNT>  (1) 
2.6

>  <PUBCHEM_PHARMACOPHORE_FEATURES>  (1) 
12
1 1 acceptor
1 2 acceptor
1 3 acceptor
1 4 acceptor
1 5 acceptor
1 6 acceptor
1 6 donor
3 12 15 16 hydrophobe
3 13 17 18 hydrophobe
5 1 2 7 8 12 rings
5 4 5 9 10 13 rings
6 3 7 8 9 10 11 rings

>  <PUBCHEM_HEAVY_ATOM_COUNT>  (1) 
18

>  <PUBCHEM_ATOM_DEF_STEREO_COUNT>  (1) 
0

>  <PUBCHEM_ATOM_UDEF_STEREO_COUNT>  (1) 
5

>  <PUBCHEM_BOND_DEF_STEREO_COUNT>  (1) 
0

>  <PUBCHEM_BOND_UDEF_STEREO_COUNT>  (1) 
0

>  <PUBCHEM_ISOTOPIC_ATOM_COUNT>  (1) 
0

>  <PUBCHEM_COMPONENT_COUNT>  (1) 
1

>  <PUBCHEM_CACTVS_TAUTO_COUNT>  (1) 
1

>  <PUBCHEM_CONFORMER_ID>  (1) 
00004E1000000003

>  <PUBCHEM_MMFF94_ENERGY>  (1) 
54.3712

>  <PUBCHEM_FEATURE_SELFOVERLAP>  (1) 
61.476

>  <PUBCHEM_SHAPE_FINGERPRINT>  (1) 
10465860 228 18267868281083866929
10922049 32 18337684091087278786
10980938 120 18338794512047823297
11132069 177 18188492496543815137
12173636 292 18338515373227717757
12532896 13 18340764965791923542
12592029 89 18409455764693749851
12644460 14 18194694678596147625
13140716 1 18336255795534279578
13583140 156 16734928254726339120
14123255 52 18411414033563195217
14289901 80 15864063278128568681
14787075 74 17842556520546314697
15219456 202 18187932729456578681
15279307 12 18272363166280525303
15309172 13 18408602599489300505
15502708 68 18408322168189649275
15775835 57 18343298184479044049
16945 1 18411692171334044365
1813 80 17410500883332823206
18186145 218 18272092725016950908
19591789 44 18410581716225154318
19873495 37 18272375299288687095
201361 129 18270686363581948081
20510252 161 18127131007307754547
20645476 183 18115315608443355870
20645477 56 18266743678616064552
20645477 70 18263354794821381247
20671657 1 18269552749797907510
21041028 32 17907295451377461080
21501502 16 17980482265617288097
23402539 116 18272641385972978596
23419403 2 17105152326997154970
23557571 272 17766285649754197900
23559900 14 18121491354951167779
25 1 18408605838010699172
2748010 2 18335709394057940946
276578 36 18343870999993125153
296302 2 14490475309081353205
305870 269 18410570669436698655
3060560 45 18408323272312781788
3071541 250 17980487763022407350
3071541 37 18335704875456855687
3286 77 14057267745128650436
3323516 105 18267887032837273894
43471831 8 18409164419956305547
458136 41 18264508242010241458
528862 383 18336823074624616443
633830 44 18202006529368021693
7364860 26 18267863874331266094
81228 2 17614275993491365314
81539 233 18260830362746123143
8272917 22 18266178340612860245

>  <PUBCHEM_SHAPE_MULTIPOLES>  (1) 
335.22
6.12
2.7
1.05
1.94
2.91
-0.04
-3.62
0.08
-1.23
0.09
-0.05
-0.02
0.19

>  <PUBCHEM_SHAPE_SELFOVERLAP>  (1) 
708.035

>  <PUBCHEM_SHAPE_VOLUME>  (1) 
188.3

>  <PUBCHEM_COORDINATE_TYPE>  (1) 
2
5
10

$$$$
