19986
     RDKit          3D

 14 15  0  0  1  0  0  0  0  0999 V2000
   -2.6912   -1.0459   -0.1913 O   0  0  0  0  0  0  0  0  0  0  0  0
   -1.3408   -0.4465   -1.9383 O   0  0  0  0  0  0  0  0  0  0  0  0
   -0.7848    0.2594    0.3385 C   0  0  0  0  0  0  0  0  0  0  0  0
   -1.3351   -0.4102    1.5998 C   0  0  0  0  0  0  0  0  0  0  0  0
   -1.1989    1.7435    0.2849 C   0  0  0  0  0  0  0  0  0  0  0  0
    0.7172    0.0146    0.2028 C   0  0  0  0  0  0  0  0  0  0  0  0
   -2.7438   -0.7885    1.2144 C   0  0  0  0  0  0  0  0  0  0  0  0
   -1.5940   -0.4401   -0.7423 C   0  0  0  0  0  0  0  0  0  0  0  0
   -0.8239    2.3790   -1.0417 C   0  0  0  0  0  0  0  0  0  0  0  0
    1.1785   -1.1770   -0.3520 C   0  0  0  0  0  0  0  0  0  0  0  0
    1.6198    0.9837    0.6347 C   0  0  0  0  0  0  0  0  0  0  0  0
    2.5498   -1.4005   -0.4757 C   0  0  0  0  0  0  0  0  0  0  0  0
    2.9911    0.7603    0.5107 C   0  0  0  0  0  0  0  0  0  0  0  0
    3.4561   -0.4318   -0.0444 C   0  0  0  0  0  0  0  0  0  0  0  0
  1  7  1  0
  1  8  1  0
  2  8  2  0
  3  4  1  0
  3  5  1  0
  3  6  1  0
  3  8  1  0
  4  7  1  0
  5  9  1  0
  6 10  2  0
  6 11  1  0
 10 12  1  0
 11 13  2  0
 12 14  2  0
 13 14  1  0
M  END
>  <PUBCHEM_COMPOUND_CID>  (1) 
19986

>  <PUBCHEM_CONFORMER_RMSD>  (1) 
0.6

>  <PUBCHEM_CONFORMER_DIVERSEORDER>  (1) 
2
9
5
8
1
6
10
3
4
7

>  <PUBCHEM_MMFF94_PARTIAL_CHARGES>  (1) 
16
1 -0.43
10 -0.15
11 -0.15
12 -0.15
13 -0.15
14 -0.15
2 -0.57
24 0.15
25 0.15
26 0.15
27 0.15
28 0.15
3 0.2
6 -0.14
7 0.28
8 0.66

>  <PUBCHEM_EFFECTIVE_ROTOR_COUNT>  (1) 
2.8

>  <PUBCHEM_PHARMACOPHORE_FEATURES>  (1) 
4
1 2 acceptor
1 9 hydrophobe
5 1 3 4 7 8 rings
6 6 10 11 12 13 14 rings

>  <PUBCHEM_HEAVY_ATOM_COUNT>  (1) 
14

>  <PUBCHEM_ATOM_DEF_STEREO_COUNT>  (1) 
0

>  <PUBCHEM_ATOM_UDEF_STEREO_COUNT>  (1) 
1

>  <PUBCHEM_BOND_DEF_STEREO_COUNT>  (1) 
0

>  <PUBCHEM_BOND_UDEF_STEREO_COUNT>  (1) 
0

>  <PUBCHEM_ISOTOPIC_ATOM_COUNT>  (1) 
0

>  <PUBCHEM_COMPONENT_COUNT>  (1) 
1

>  <PUBCHEM_CACTVS_TAUTO_COUNT>  (1) 
1

>  <PUBCHEM_CONFORMER_ID>  (1) 
00004E1200000002

>  <PUBCHEM_MMFF94_ENERGY>  (1) 
38.1149

>  <PUBCHEM_FEATURE_SELFOVERLAP>  (1) 
20.297

>  <PUBCHEM_SHAPE_FINGERPRINT>  (1) 
11578080 2 17129548415659096385
12138202 97 18045776797528007964
12532896 13 17826502263206057717
12932764 1 18060699472978334034
13024252 1 17603872165434754201
14817 1 14734004297082036645
15076042 46 16127829468985487034
15775835 57 17846785143376868256
16945 1 18131070492976981560
17844478 74 18410019831480956264
200 152 17561069294140388013
20082192 1 17702934838745419806
20711985 344 18114455652600621729
21061003 4 18261401103859909841
21501502 16 18336828568130303264
21524375 3 17469596313458312445
22445834 79 17632582651519131730
22802520 49 18264768762094683444
23402539 116 18188196684797647106
23419403 2 17099443920265439205
23559900 14 16733250340453801304
25 1 17331679046621535268
2748010 2 18199464377312293228
369184 2 18343865498018738610
5084963 1 17988916795333283258
8030462 33 17968375650404917770
81228 2 18114186280936924041

>  <PUBCHEM_SHAPE_MULTIPOLES>  (1) 
276.37
4.54
1.77
1.32
2.52
1.01
-0.16
-1.27
0.49
-0.39
-0.32
-0.75
-0.1
0.59

>  <PUBCHEM_SHAPE_SELFOVERLAP>  (1) 
590.237

>  <PUBCHEM_SHAPE_VOLUME>  (1) 
154.5

>  <PUBCHEM_COORDINATE_TYPE>  (1) 
2
5
10

$$$$
