19996
     RDKit          3D

 15 14  0  0  0  0  0  0  0  0999 V2000
   -0.0007    1.3196   -0.0003 O   0  0  0  0  0  0  0  0  0  0  0  0
    2.6486    0.4066    0.0836 O   0  0  0  0  0  0  0  0  0  0  0  0
   -2.6459    0.4110   -0.0778 O   0  0  0  0  0  0  0  0  0  0  0  0
    4.1708   -0.6162   -1.3222 O   0  0  0  0  0  0  0  0  0  0  0  0
   -4.1712   -0.6163    1.3214 O   0  0  0  0  0  0  0  0  0  0  0  0
    1.0678    2.1202   -0.4912 C   0  0  0  0  0  0  0  0  0  0  0  0
   -1.0678    2.1195    0.4898 C   0  0  0  0  0  0  0  0  0  0  0  0
    2.1726    1.2137   -0.9987 C   0  0  0  0  0  0  0  0  0  0  0  0
   -2.1727    1.2131    0.9974 C   0  0  0  0  0  0  0  0  0  0  0  0
    3.6486   -0.4606   -0.2297 C   0  0  0  0  0  0  0  0  0  0  0  0
   -3.6490   -0.4611    0.2289 C   0  0  0  0  0  0  0  0  0  0  0  0
    4.0020   -1.1993    1.0002 C   0  0  0  0  0  0  0  0  0  0  0  0
   -4.0025   -1.2000   -1.0008 C   0  0  0  0  0  0  0  0  0  0  0  0
    4.9652   -2.1248    0.9713 C   0  0  0  0  0  0  0  0  0  0  0  0
   -4.9658   -2.1254   -0.9718 C   0  0  0  0  0  0  0  0  0  0  0  0
  1  6  1  0
  1  7  1  0
  2  8  1  0
  2 10  1  0
  3  9  1  0
  3 11  1  0
  4 10  2  0
  5 11  2  0
  6  8  1  0
  7  9  1  0
 10 12  1  0
 11 13  1  0
 12 14  2  0
 13 15  2  0
M  END
>  <PUBCHEM_COMPOUND_CID>  (1) 
19996

>  <PUBCHEM_CONFORMER_RMSD>  (1) 
0.8

>  <PUBCHEM_CONFORMER_DIVERSEORDER>  (1) 
1
43
3
62
38
42
31
66
11
55
36
17
96
106
34
13
8
50
87
46
104
74
19
107
37
32
54
44
52
56
23
84
88
98
49
10
39
68
45
64
28
101
85
80
6
40
21
48
100
71
83
94
16
82
15
77
26
58
27
99
69
92
61
79
4
51
63
103
35
105
97
95
93
47
75
60
41
30
59
78
89
86
5
65
73
76
7
29
12
22
53
102
20
90
72
33
2
91
14
67
81
24
25
9
70
18
57

>  <PUBCHEM_MMFF94_PARTIAL_CHARGES>  (1) 
21
1 -0.56
10 0.71
11 0.71
12 -0.14
13 -0.14
14 -0.3
15 -0.3
2 -0.43
24 0.15
25 0.15
26 0.15
27 0.15
28 0.15
29 0.15
3 -0.43
4 -0.57
5 -0.57
6 0.28
7 0.28
8 0.28
9 0.28

>  <PUBCHEM_EFFECTIVE_ROTOR_COUNT>  (1) 
10

>  <PUBCHEM_PHARMACOPHORE_FEATURES>  (1) 
5
1 1 acceptor
1 14 hydrophobe
1 15 hydrophobe
1 4 acceptor
1 5 acceptor

>  <PUBCHEM_HEAVY_ATOM_COUNT>  (1) 
15

>  <PUBCHEM_ATOM_DEF_STEREO_COUNT>  (1) 
0

>  <PUBCHEM_ATOM_UDEF_STEREO_COUNT>  (1) 
0

>  <PUBCHEM_BOND_DEF_STEREO_COUNT>  (1) 
0

>  <PUBCHEM_BOND_UDEF_STEREO_COUNT>  (1) 
0

>  <PUBCHEM_ISOTOPIC_ATOM_COUNT>  (1) 
0

>  <PUBCHEM_COMPONENT_COUNT>  (1) 
1

>  <PUBCHEM_CACTVS_TAUTO_COUNT>  (1) 
1

>  <PUBCHEM_CONFORMER_ID>  (1) 
00004E1C00000001

>  <PUBCHEM_MMFF94_ENERGY>  (1) 
25.718

>  <PUBCHEM_FEATURE_SELFOVERLAP>  (1) 
25.373

>  <PUBCHEM_SHAPE_FINGERPRINT>  (1) 
10062212 137 18409452453690702425
11159736 12 18410853261104932229
122479 349 9727633912240174181
12410352 35 18412822490820471415
12633257 1 15625646332060175299
13887833 79 15647046040972253167
1420 369 18343866640696375615
14251752 14 18409722951390238189
14576447 43 18334581261095139284
14848178 5 18410562994330491463
15342168 16 8285941072493543779
15342816 4 18409174290328962468
17977361 122 18342172271961638775
1798214 20 18333728035223019263
19032999 76 17273389846782681119
20621476 21 17842565046600496118
20621476 51 18267298742544988490
20621476 91 17773854528358724866
20645477 70 17458633353721724616
20671657 53 18186525405596161956
22646028 28 18410580586516444933
23402655 69 8142078780581738762
235170 7 15936412251290306102
23596394 208 16805315608822684130
312425 83 15213308563928274270
351380 3 18410584984562949538
4259306 186 18040714761963092738
46194498 28 15286507485300204367
559249 180 18263641763066746177
57583515 39 18340194310994461591
76465 3 18410851066376721925
88748 71 18264208183317053147

>  <PUBCHEM_SHAPE_MULTIPOLES>  (1) 
279.35
11.98
2.52
1.24
0
0.18
0
-10.97
0
0
0
0
-0.24
-2.12

>  <PUBCHEM_SHAPE_SELFOVERLAP>  (1) 
533.449

>  <PUBCHEM_SHAPE_VOLUME>  (1) 
169.9

>  <PUBCHEM_COORDINATE_TYPE>  (1) 
2
5
10

$$$$
