19995
     RDKit          3D

 12 13  0  0  0  0  0  0  0  0999 V2000
   -0.6142    1.5349    0.1841 S   0  0  0  0  0  0  0  0  0  0  0  0
   -2.7222   -0.0675   -0.0076 N   0  0  0  0  0  0  0  0  0  0  0  0
   -0.5668   -1.0252   -0.1250 N   0  0  0  0  0  0  0  0  0  0  0  0
   -1.3650    0.0092    0.0008 C   0  0  0  0  0  0  0  0  0  0  0  0
    0.9307    0.7748    0.0914 C   0  0  0  0  0  0  0  0  0  0  0  0
    0.7535   -0.6021   -0.0742 C   0  0  0  0  0  0  0  0  0  0  0  0
    2.2075    1.3552    0.1608 C   0  0  0  0  0  0  0  0  0  0  0  0
    1.8964   -1.4253   -0.1733 C   0  0  0  0  0  0  0  0  0  0  0  0
   -3.4441   -1.2597    0.4780 C   0  0  0  0  0  0  0  0  0  0  0  0
   -3.5681    1.0417   -0.4899 C   0  0  0  0  0  0  0  0  0  0  0  0
    3.3218    0.5182    0.0598 C   0  0  0  0  0  0  0  0  0  0  0  0
    3.1706   -0.8542   -0.1050 C   0  0  0  0  0  0  0  0  0  0  0  0
  1  4  1  0
  1  5  1  0
  2  4  1  0
  2  9  1  0
  2 10  1  0
  3  4  2  0
  3  6  1  0
  5  6  2  0
  5  7  1  0
  6  8  1  0
  7 11  2  0
  8 12  2  0
 11 12  1  0
M  END
>  <PUBCHEM_COMPOUND_CID>  (1) 
19995

>  <PUBCHEM_CONFORMER_RMSD>  (1) 
0.4

>  <PUBCHEM_CONFORMER_DIVERSEORDER>  (1) 
1
2
3

>  <PUBCHEM_MMFF94_PARTIAL_CHARGES>  (1) 
16
1 -0.08
10 0.37
11 -0.15
12 -0.15
13 0.15
14 0.15
2 -0.82
21 0.15
22 0.15
3 -0.57
4 0.46
5 0.04
6 0.23
7 -0.15
8 -0.15
9 0.37

>  <PUBCHEM_EFFECTIVE_ROTOR_COUNT>  (1) 
1

>  <PUBCHEM_PHARMACOPHORE_FEATURES>  (1) 
3
3 2 3 4 cation
5 1 3 4 5 6 rings
6 5 6 7 8 11 12 rings

>  <PUBCHEM_HEAVY_ATOM_COUNT>  (1) 
12

>  <PUBCHEM_ATOM_DEF_STEREO_COUNT>  (1) 
0

>  <PUBCHEM_ATOM_UDEF_STEREO_COUNT>  (1) 
0

>  <PUBCHEM_BOND_DEF_STEREO_COUNT>  (1) 
0

>  <PUBCHEM_BOND_UDEF_STEREO_COUNT>  (1) 
0

>  <PUBCHEM_ISOTOPIC_ATOM_COUNT>  (1) 
0

>  <PUBCHEM_COMPONENT_COUNT>  (1) 
1

>  <PUBCHEM_CACTVS_TAUTO_COUNT>  (1) 
1

>  <PUBCHEM_CONFORMER_ID>  (1) 
00004E1B00000001

>  <PUBCHEM_MMFF94_ENERGY>  (1) 
33.6764

>  <PUBCHEM_FEATURE_SELFOVERLAP>  (1) 
15.294

>  <PUBCHEM_SHAPE_FINGERPRINT>  (1) 
10219947 1 17988925561013433286
10608611 8 18409163324797667285
11471102 20 18412538791018909980
12032990 46 18411426119548080802
12932764 1 17560795576054065769
13296908 3 18409731763782317051
13571099 22 18341611481996595381
14144814 61 18342741797129792368
14325111 11 18410292527465502893
15219456 202 18409448094024486165
16945 1 18343302569856580264
17844478 74 18260552238112954605
18175812 5 18408322181222179461
18186145 218 18113616755314147871
19026448 5 16515401871947724112
193761 8 17547573682368162540
200 152 17917982850470614277
20201158 50 18411136900771663751
20645477 70 18272366425928744055
20871998 22 18056766416907317358
21501502 16 18268714896320680272
23402539 116 18340475716934963334
23402655 69 18269822139586058229
23463225 33 18410012134920745148
23552423 10 18334298647540501870
23559900 14 18337951178430157962
25610 137 18412269462209822785
2748010 2 18411699919433856509
3248919 1 15267062575081843237
3312278 4 18410577271044129817
528886 8 18341607144417204050
8809292 202 18261398827585479595

>  <PUBCHEM_SHAPE_MULTIPOLES>  (1) 
240.84
6.06
1.64
0.66
2.36
0.08
-0.01
-0.48
0.1
0.01
-0.05
0.12
0.02
0.43

>  <PUBCHEM_SHAPE_SELFOVERLAP>  (1) 
500.542

>  <PUBCHEM_SHAPE_VOLUME>  (1) 
140

>  <PUBCHEM_COORDINATE_TYPE>  (1) 
2
5
10

$$$$
