19997
     RDKit          3D

 14 13  0  0  0  0  0  0  0  0999 V2000
    4.2227   -0.6585    0.1335 O   0  0  0  0  0  0  0  0  0  0  0  0
   -4.2243    0.6595    0.1320 O   0  0  0  0  0  0  0  0  0  0  0  0
    3.2892    1.4710    0.1613 O   0  0  0  0  0  0  0  0  0  0  0  0
   -3.2871   -1.4682    0.1664 O   0  0  0  0  0  0  0  0  0  0  0  0
    0.6564    0.3979    0.1631 C   0  0  0  0  0  0  0  0  0  0  0  0
   -0.6573   -0.3945    0.1645 C   0  0  0  0  0  0  0  0  0  0  0  0
    1.8844   -0.5129    0.1639 C   0  0  0  0  0  0  0  0  0  0  0  0
   -1.8850    0.5168    0.1620 C   0  0  0  0  0  0  0  0  0  0  0  0
    3.1930    0.2507    0.1652 C   0  0  0  0  0  0  0  0  0  0  0  0
   -3.1930   -0.2477    0.1669 C   0  0  0  0  0  0  0  0  0  0  0  0
    5.4794   -0.0862    0.0936 C   0  0  0  0  0  0  0  0  0  0  0  0
   -5.4789    0.0823    0.0931 C   0  0  0  0  0  0  0  0  0  0  0  0
    6.3720   -0.2677   -0.8819 C   0  0  0  0  0  0  0  0  0  0  0  0
   -6.3716    0.2574   -0.8836 C   0  0  0  0  0  0  0  0  0  0  0  0
  1  9  1  0
  1 11  1  0
  2 10  1  0
  2 12  1  0
  3  9  2  0
  4 10  2  0
  5  6  1  0
  5  7  1  0
  6  8  1  0
  7  9  1  0
  8 10  1  0
 11 13  2  0
 12 14  2  0
M  END
>  <PUBCHEM_COMPOUND_CID>  (1) 
19997

>  <PUBCHEM_CONFORMER_RMSD>  (1) 
0.8

>  <PUBCHEM_CONFORMER_DIVERSEORDER>  (1) 
1
32
14
9
18
6
60
56
15
7
24
28
29
46
45
36
31
11
22
4
51
43
40
62
47
3
38
33
2
34
8
41
10
13
27
20
17
23
12
16
54
50
55
35
39
61
37
42
19
5
44
30
49
58
21
52
57
53
59
48
26
25

>  <PUBCHEM_MMFF94_PARTIAL_CHARGES>  (1) 
18
1 -0.23
10 0.66
11 -0.07
12 -0.07
13 -0.3
14 -0.3
2 -0.23
23 0.15
24 0.15
25 0.15
26 0.15
27 0.15
28 0.15
3 -0.57
4 -0.57
7 0.06
8 0.06
9 0.66

>  <PUBCHEM_EFFECTIVE_ROTOR_COUNT>  (1) 
9

>  <PUBCHEM_PHARMACOPHORE_FEATURES>  (1) 
3
1 3 acceptor
1 4 acceptor
4 5 6 7 8 hydrophobe

>  <PUBCHEM_HEAVY_ATOM_COUNT>  (1) 
14

>  <PUBCHEM_ATOM_DEF_STEREO_COUNT>  (1) 
0

>  <PUBCHEM_ATOM_UDEF_STEREO_COUNT>  (1) 
0

>  <PUBCHEM_BOND_DEF_STEREO_COUNT>  (1) 
0

>  <PUBCHEM_BOND_UDEF_STEREO_COUNT>  (1) 
0

>  <PUBCHEM_ISOTOPIC_ATOM_COUNT>  (1) 
0

>  <PUBCHEM_COMPONENT_COUNT>  (1) 
1

>  <PUBCHEM_CACTVS_TAUTO_COUNT>  (1) 
1

>  <PUBCHEM_CONFORMER_ID>  (1) 
00004E1D00000001

>  <PUBCHEM_MMFF94_ENERGY>  (1) 
25.0413

>  <PUBCHEM_FEATURE_SELFOVERLAP>  (1) 
15.223

>  <PUBCHEM_SHAPE_FINGERPRINT>  (1) 
10354089 29 10737285740797047050
10968037 39 18333733520397396639
12091667 2 16732986427629758985
12714333 28 16370727028274375052
12815109 37 17530965778178966725
13533116 47 16226033467149758360
1420 363 11383832688137678269
14251718 22 11602824609512003408
14251764 46 18411417306285570023
15048467 5 15719111353087192981
15242439 84 18409730676912822851
17834072 33 18059569230880673701
17834072 8 18410575088958046326
17834076 25 16370725928472609960
19489759 90 16630529518721515419
20281389 69 17458621203037743668
20621476 8 18201162053377992089
20645477 56 17749103383936047479
20645477 70 18130789988732069038
20767249 13 15769776857463946505
20767249 213 15140965058148550070
21130983 4 13767933416358019726
23218964 4 18334856108330592090
23402539 116 18272646865744158239
23521765 1 18341894086539083795
23557571 272 18337392647291339308
23559900 14 18340483473361290880
29717793 49 17846785104896463332
300161 21 17894906338970839514
3545911 37 18335139791337282771
42788 4 18272089396258670768
4463277 17 15574714694356006694
542803 24 15791730806141024558
59755656 215 18411422769911713030
8209 1 18410573981273228285

>  <PUBCHEM_SHAPE_MULTIPOLES>  (1) 
264.64
16.96
0.96
0.73
0.01
0
-0.11
-0.04
-4.11
0
0.05
0
0
0.25

>  <PUBCHEM_SHAPE_SELFOVERLAP>  (1) 
501.692

>  <PUBCHEM_SHAPE_VOLUME>  (1) 
162.5

>  <PUBCHEM_COORDINATE_TYPE>  (1) 
2
5
10

$$$$
