20
     RDKit          3D

 13 13  0  0  0  0  0  0  0  0999 V2000
   -0.7351   -1.9662   -0.3343 O   0  0  0  0  0  0  0  0  0  0  0  0
   -3.3978   -1.5823    0.3089 O   0  0  0  0  0  0  0  0  0  0  0  0
    4.2499   -0.1929    1.1935 O   0  0  0  0  0  0  0  0  0  0  0  0
    3.8078   -0.0567   -1.0303 O   0  0  0  0  0  0  0  0  0  0  0  0
    1.0554    0.2176   -0.6899 C   0  0  0  0  0  0  0  0  0  0  0  0
   -0.3854    0.3995   -0.3430 C   0  0  0  0  0  0  0  0  0  0  0  0
    1.9724    0.0998    0.5324 C   0  0  0  0  0  0  0  0  0  0  0  0
   -1.2243   -0.7029   -0.1784 C   0  0  0  0  0  0  0  0  0  0  0  0
   -0.8899    1.6900   -0.1831 C   0  0  0  0  0  0  0  0  0  0  0  0
   -2.5679   -0.5146    0.1460 C   0  0  0  0  0  0  0  0  0  0  0  0
   -2.2334    1.8783    0.1412 C   0  0  0  0  0  0  0  0  0  0  0  0
   -3.0724    0.7761    0.3058 C   0  0  0  0  0  0  0  0  0  0  0  0
    3.4205   -0.0459    0.1312 C   0  0  0  0  0  0  0  0  0  0  0  0
  1  8  1  0
  2 10  1  0
  3 13  1  0
  4 13  2  0
  5  6  1  0
  5  7  1  0
  6  8  2  0
  6  9  1  0
  7 13  1  0
  8 10  1  0
  9 11  2  0
 10 12  2  0
 11 12  1  0
M  END
>  <PUBCHEM_COMPOUND_CID>  (1) 
20

>  <PUBCHEM_CONFORMER_RMSD>  (1) 
0.6

>  <PUBCHEM_CONFORMER_DIVERSEORDER>  (1) 
4
3
15
9
14
2
8
7
1
6
13
5
11
10
12

>  <PUBCHEM_MMFF94_PARTIAL_CHARGES>  (1) 
19
1 -0.53
10 0.08
11 -0.15
12 -0.15
13 0.66
18 0.15
19 0.15
2 -0.53
20 0.15
21 0.45
22 0.45
23 0.5
3 -0.65
4 -0.57
5 0.14
6 -0.14
7 0.06
8 0.08
9 -0.15

>  <PUBCHEM_EFFECTIVE_ROTOR_COUNT>  (1) 
3

>  <PUBCHEM_PHARMACOPHORE_FEATURES>  (1) 
6
1 1 donor
1 2 donor
1 3 acceptor
1 4 acceptor
3 3 4 13 anion
6 6 8 9 10 11 12 rings

>  <PUBCHEM_HEAVY_ATOM_COUNT>  (1) 
13

>  <PUBCHEM_ATOM_DEF_STEREO_COUNT>  (1) 
0

>  <PUBCHEM_ATOM_UDEF_STEREO_COUNT>  (1) 
0

>  <PUBCHEM_BOND_DEF_STEREO_COUNT>  (1) 
0

>  <PUBCHEM_BOND_UDEF_STEREO_COUNT>  (1) 
0

>  <PUBCHEM_ISOTOPIC_ATOM_COUNT>  (1) 
0

>  <PUBCHEM_COMPONENT_COUNT>  (1) 
1

>  <PUBCHEM_CACTVS_TAUTO_COUNT>  (1) 
53

>  <PUBCHEM_CONFORMER_ID>  (1) 
0000001400000004

>  <PUBCHEM_MMFF94_ENERGY>  (1) 
27.2373

>  <PUBCHEM_FEATURE_SELFOVERLAP>  (1) 
30.509

>  <PUBCHEM_SHAPE_FINGERPRINT>  (1) 
11132069 177 18411983533394178617
12932764 1 17561358478994923214
13024252 1 14707209894661348117
13581323 91 18411983576443883614
14144814 61 18408321073310553384
14325111 11 18339925918023722132
15219456 202 17846224297788695102
15669948 3 18410294756833124174
16945 1 18338248067949412085
19049666 15 17701548311727839572
19422 9 17967816033372394434
200 152 15864062174622277328
20279233 1 17703785903984849516
20510252 161 18273218594584521377
20645464 45 17917710188534686340
20871998 184 18272091616909834831
23402539 116 18272641373177319127
23463225 33 18188489069239189922
23559900 14 18200038331214507462
2748010 2 17759540871777944845
4175511 318 17822283540406639701
43471831 8 18335137544764081643
474 4 17097789121391669140
6333449 129 18342736295535285357
75552 356 18410013238674651165
77492 1 17676778612472021940
90316 7 18114740434749980428

>  <PUBCHEM_SHAPE_MULTIPOLES>  (1) 
244.06
6.66
1.63
0.84
6.33
0.06
-0.02
0.56
-1.21
-1.76
0.03
0.63
-0.01
-0.03

>  <PUBCHEM_SHAPE_SELFOVERLAP>  (1) 
506.588

>  <PUBCHEM_SHAPE_VOLUME>  (1) 
138.6

>  <PUBCHEM_COORDINATE_TYPE>  (1) 
2
5
10

$$$$
