20009
     RDKit          3D

 10 10  0  0  0  0  0  0  0  0999 V2000
    2.0892    0.4393   -0.0726 O   0  0  0  0  0  0  0  0  0  0  0  0
    0.9856   -1.5698    0.1885 O   0  0  0  0  0  0  0  0  0  0  0  0
   -2.6934    0.5031   -0.3704 N   0  0  0  0  0  0  0  0  0  0  0  0
   -3.9176   -0.2819   -0.3036 C   0  0  0  0  0  0  0  0  0  0  0  0
   -3.4781    0.5654    0.8545 C   0  0  0  0  0  0  0  0  0  0  0  0
   -1.5252   -0.3494   -0.1888 C   0  0  0  0  0  0  0  0  0  0  0  0
   -0.2488    0.4860   -0.2205 C   0  0  0  0  0  0  0  0  0  0  0  0
    0.9847   -0.3624   -0.0079 C   0  0  0  0  0  0  0  0  0  0  0  0
    3.3440   -0.2244    0.1100 C   0  0  0  0  0  0  0  0  0  0  0  0
    4.4596    0.7941    0.0108 C   0  0  0  0  0  0  0  0  0  0  0  0
  1  8  1  0
  1  9  1  0
  2  8  2  0
  3  4  1  0
  3  5  1  0
  3  6  1  0
  4  5  1  0
  6  7  1  0
  7  8  1  0
  9 10  1  0
M  END
>  <PUBCHEM_COMPOUND_CID>  (1) 
20009

>  <PUBCHEM_CONFORMER_RMSD>  (1) 
0.6

>  <PUBCHEM_CONFORMER_DIVERSEORDER>  (1) 
1
25
30
4
68
33
2
69
24
23
12
66
22
57
65
49
47
41
31
3
18
20
44
15
64
46
55
42
8
17
14
50
11
63
61
27
51
62
13
38
58
60
53
16
7
48
35
10
29
9
19
6
28
59
67
45
54
40
43
52
56
32
26
5
21
34
39
37
36

>  <PUBCHEM_MMFF94_PARTIAL_CHARGES>  (1) 
13
1 -0.43
11 0.1
12 0.1
13 0.1
14 0.1
2 -0.57
3 -0.59
4 -0.04
5 -0.04
6 0.27
7 0.06
8 0.66
9 0.28

>  <PUBCHEM_EFFECTIVE_ROTOR_COUNT>  (1) 
5.6

>  <PUBCHEM_PHARMACOPHORE_FEATURES>  (1) 
2
1 2 acceptor
1 3 cation

>  <PUBCHEM_HEAVY_ATOM_COUNT>  (1) 
10

>  <PUBCHEM_ATOM_DEF_STEREO_COUNT>  (1) 
0

>  <PUBCHEM_ATOM_UDEF_STEREO_COUNT>  (1) 
0

>  <PUBCHEM_BOND_DEF_STEREO_COUNT>  (1) 
0

>  <PUBCHEM_BOND_UDEF_STEREO_COUNT>  (1) 
0

>  <PUBCHEM_ISOTOPIC_ATOM_COUNT>  (1) 
0

>  <PUBCHEM_COMPONENT_COUNT>  (1) 
1

>  <PUBCHEM_CACTVS_TAUTO_COUNT>  (1) 
1

>  <PUBCHEM_CONFORMER_ID>  (1) 
00004E2900000001

>  <PUBCHEM_MMFF94_ENERGY>  (1) 
11.0167

>  <PUBCHEM_FEATURE_SELFOVERLAP>  (1) 
10.148

>  <PUBCHEM_SHAPE_FINGERPRINT>  (1) 
10219947 1 17967814942239639740
11062470 55 16008748004626712773
12346645 44 18343022164052374378
12932764 1 14404892549690673191
14325111 11 18410009935934412886
170605 34 18411700967701574558
190213 19 17917992767428722861
20279233 1 17095245796171538883
20645477 70 18116984503928370943
21119208 17 15554732178949962848
21293036 1 12247679378941160456
22485316 2 10881396552074524472
23402539 116 15792005706066357951
3248919 1 16733277754923927495
366044 4 18410574011570406746

>  <PUBCHEM_SHAPE_MULTIPOLES>  (1) 
189.08
8.34
0.99
0.7
2.07
0.21
-0.05
-1.78
-0.36
0.27
-0.07
-0.32
-0.05
-0.25

>  <PUBCHEM_SHAPE_SELFOVERLAP>  (1) 
356.022

>  <PUBCHEM_SHAPE_VOLUME>  (1) 
119.4

>  <PUBCHEM_COORDINATE_TYPE>  (1) 
2
5
10

$$$$
