20013
     RDKit          3D

 18 17  0  0  0  0  0  0  0  0999 V2000
    7.0105    1.3702   -0.0275 O   0  0  0  0  0  0  0  0  0  0  0  0
   -6.9336   -1.3631   -0.0328 O   0  0  0  0  0  0  0  0  0  0  0  0
    8.0674   -0.6995    0.0118 N   0  0  0  0  0  0  0  0  0  0  0  0
   -8.0960    0.6517    0.0111 N   0  0  0  0  0  0  0  0  0  0  0  0
    9.3329   -0.1501    0.0147 N   0  0  0  0  0  0  0  0  0  0  0  0
   -9.3329    0.0406    0.0195 N   0  0  0  0  0  0  0  0  0  0  0  0
    0.6211   -0.4631    0.0295 C   0  0  0  0  0  0  0  0  0  0  0  0
   -0.6082    0.4478    0.0015 C   0  0  0  0  0  0  0  0  0  0  0  0
    1.9154    0.3536    0.0205 C   0  0  0  0  0  0  0  0  0  0  0  0
   -1.9343   -0.3176    0.0218 C   0  0  0  0  0  0  0  0  0  0  0  0
    3.1464   -0.5545    0.0106 C   0  0  0  0  0  0  0  0  0  0  0  0
   -3.1634    0.5938    0.0194 C   0  0  0  0  0  0  0  0  0  0  0  0
    4.4390    0.2614   -0.0314 C   0  0  0  0  0  0  0  0  0  0  0  0
   -4.4570   -0.2212   -0.0329 C   0  0  0  0  0  0  0  0  0  0  0  0
    5.6688   -0.6433   -0.0076 C   0  0  0  0  0  0  0  0  0  0  0  0
   -5.6853    0.6847   -0.0030 C   0  0  0  0  0  0  0  0  0  0  0  0
    6.9683    0.1426   -0.0099 C   0  0  0  0  0  0  0  0  0  0  0  0
   -6.9592   -0.1341   -0.0153 C   0  0  0  0  0  0  0  0  0  0  0  0
  1 17  2  0
  2 18  2  0
  3  5  1  0
  3 17  1  0
  4  6  1  0
  4 18  1  0
  7  8  1  0
  7  9  1  0
  8 10  1  0
  9 11  1  0
 10 12  1  0
 11 13  1  0
 12 14  1  0
 13 15  1  0
 14 16  1  0
 15 17  1  0
 16 18  1  0
M  END
>  <PUBCHEM_COMPOUND_CID>  (1) 
20013

>  <PUBCHEM_CONFORMER_RMSD>  (1) 
1.2

>  <PUBCHEM_CONFORMER_DIVERSEORDER>  (1) 
1
80
37
47
20
65
2
99
96
95
7
60
9
66
114
32
38
81
138
90
11
17
51
71
49
106
54
22
82
34
63
3
58
27
129
69
97
98
117
53
14
61
21
141
8
64
77
93
30
111
108
15
68
67
24
44
89
35
76
43
33
131
6
40
105
19
74
92
85
41
140
13
79
57
110
94
70
83
16
91
136
100
75
45
84
31
36
18
113
10
132
55
28
87
124
4
29
102
50
119
127
12
101
46
88
133
72
107
39
59
112
26
115
135
23
116
56
123
125
103
78
134
48
128
25
62
42
5
122
121
104
73
86
126
142
120
118
139
137
130
52
109

>  <PUBCHEM_MMFF94_PARTIAL_CHARGES>  (1) 
16
1 -0.57
15 0.06
16 0.06
17 0.57
18 0.57
2 -0.57
3 -0.42
39 0.37
4 -0.42
40 0.37
41 0.36
42 0.36
43 0.36
44 0.36
5 -0.73
6 -0.73

>  <PUBCHEM_EFFECTIVE_ROTOR_COUNT>  (1) 
13

>  <PUBCHEM_PHARMACOPHORE_FEATURES>  (1) 
6
1 1 acceptor
1 2 acceptor
1 3 donor
1 4 donor
1 5 donor
1 6 donor

>  <PUBCHEM_HEAVY_ATOM_COUNT>  (1) 
18

>  <PUBCHEM_ATOM_DEF_STEREO_COUNT>  (1) 
0

>  <PUBCHEM_ATOM_UDEF_STEREO_COUNT>  (1) 
0

>  <PUBCHEM_BOND_DEF_STEREO_COUNT>  (1) 
0

>  <PUBCHEM_BOND_UDEF_STEREO_COUNT>  (1) 
0

>  <PUBCHEM_ISOTOPIC_ATOM_COUNT>  (1) 
0

>  <PUBCHEM_COMPONENT_COUNT>  (1) 
1

>  <PUBCHEM_CACTVS_TAUTO_COUNT>  (1) 
3

>  <PUBCHEM_CONFORMER_ID>  (1) 
00004E2D00000001

>  <PUBCHEM_MMFF94_ENERGY>  (1) 
11.2916

>  <PUBCHEM_FEATURE_SELFOVERLAP>  (1) 
33.471

>  <PUBCHEM_SHAPE_FINGERPRINT>  (1) 
11315181 36 18272937129263069881
11638347 137 17167858639555584650
13885169 127 18410012109488739849
14123256 10 18410575080368118119
14251764 18 18410855460128161800
14251764 46 18412825784981071095
155225 1 18336548309642823868
18006028 8 17418374692547407353
21150785 3 18411136935110147410
21315763 28 18410292497949565872
22224240 67 17603585239997112042
232437 2 18410293610092887971
23521765 1 18341894086539083781
23581129 1 18409449180461268995
33684 2 18410573980856490347
4325135 7 18410293609696924503
67123 10 18410573998036353028
8209 1 18410573985156725888

>  <PUBCHEM_SHAPE_MULTIPOLES>  (1) 
338.77
32.76
0.93
0.59
0.2
0.01
0
-0.36
-0.07
0.02
0
0
0
-0.04

>  <PUBCHEM_SHAPE_SELFOVERLAP>  (1) 
630.365

>  <PUBCHEM_SHAPE_VOLUME>  (1) 
211.2

>  <PUBCHEM_COORDINATE_TYPE>  (1) 
2
5
10

$$$$
