20015
     RDKit          3D

 24 26  0  0  1  0  0  0  0  0999 V2000
   -1.0900    0.0719   -2.0918 O   0  0  0  0  0  0  0  0  0  0  0  0
    2.7745    0.0771   -0.3126 N   0  0  0  0  0  0  0  0  0  0  0  0
    0.3258    0.5989   -0.2326 C   0  0  0  0  0  0  0  0  0  0  0  0
    1.4447   -0.3465   -0.7549 C   0  0  0  0  0  0  0  0  0  0  0  0
   -1.1161    0.0864   -0.6490 C   0  0  0  0  0  0  0  0  0  0  0  0
    2.8498    0.0331    1.1517 C   0  0  0  0  0  0  0  0  0  0  0  0
    3.8280   -0.6777   -0.9929 C   0  0  0  0  0  0  0  0  0  0  0  0
    4.2345    0.1842    1.7888 C   0  0  0  0  0  0  0  0  0  0  0  0
    5.0342    0.2207   -1.2812 C   0  0  0  0  0  0  0  0  0  0  0  0
    5.1459    1.1964    1.1025 C   0  0  0  0  0  0  0  0  0  0  0  0
    5.8976    0.5839   -0.0768 C   0  0  0  0  0  0  0  0  0  0  0  0
    0.6048    2.0300   -0.7464 C   0  0  0  0  0  0  0  0  0  0  0  0
   -1.4663   -1.3263   -0.1372 C   0  0  0  0  0  0  0  0  0  0  0  0
   -2.2342    1.0457   -0.1945 C   0  0  0  0  0  0  0  0  0  0  0  0
   -1.5940   -1.5106    1.2143 C   0  0  0  0  0  0  0  0  0  0  0  0
   -2.0990    1.6687    1.0188 C   0  0  0  0  0  0  0  0  0  0  0  0
   -1.6325   -2.3251   -1.0600 C   0  0  0  0  0  0  0  0  0  0  0  0
   -3.3081    1.2284   -1.0261 C   0  0  0  0  0  0  0  0  0  0  0  0
   -1.9109   -2.7877    1.6772 C   0  0  0  0  0  0  0  0  0  0  0  0
   -3.1103    2.5368    1.4299 C   0  0  0  0  0  0  0  0  0  0  0  0
   -1.9495   -3.6022   -0.5971 C   0  0  0  0  0  0  0  0  0  0  0  0
   -4.3195    2.0965   -0.6148 C   0  0  0  0  0  0  0  0  0  0  0  0
   -2.0887   -3.8334    0.7715 C   0  0  0  0  0  0  0  0  0  0  0  0
   -4.2205    2.7507    0.6133 C   0  0  0  0  0  0  0  0  0  0  0  0
  1  5  1  0
  2  4  1  0
  2  6  1  0
  2  7  1  0
  3  4  1  0
  3  5  1  0
  3 12  1  0
  5 13  1  0
  5 14  1  0
  6  8  1  0
  7  9  1  0
  8 10  1  0
  9 11  1  0
 10 11  1  0
 13 15  2  0
 13 17  1  0
 14 16  2  0
 14 18  1  0
 15 19  1  0
 16 20  1  0
 17 21  2  0
 18 22  2  0
 19 23  2  0
 20 24  2  0
 21 23  1  0
 22 24  1  0
M  END
>  <PUBCHEM_COMPOUND_CID>  (1) 
20015

>  <PUBCHEM_CONFORMER_RMSD>  (1) 
0.8

>  <PUBCHEM_CONFORMER_DIVERSEORDER>  (1) 
1
16
15
9
14
18
8
10
12
13
4
6
19
5
17
2
11
7
3

>  <PUBCHEM_MMFF94_PARTIAL_CHARGES>  (1) 
29
1 -0.68
13 -0.14
14 -0.14
15 -0.15
16 -0.15
17 -0.15
18 -0.15
19 -0.15
2 -0.81
20 -0.15
21 -0.15
22 -0.15
23 -0.15
24 -0.15
4 0.27
43 0.4
44 0.15
45 0.15
46 0.15
47 0.15
48 0.15
49 0.15
5 0.57
50 0.15
51 0.15
52 0.15
53 0.15
6 0.27
7 0.27

>  <PUBCHEM_EFFECTIVE_ROTOR_COUNT>  (1) 
6.4

>  <PUBCHEM_PHARMACOPHORE_FEATURES>  (1) 
7
1 1 acceptor
1 1 donor
1 12 hydrophobe
1 2 cation
6 13 15 17 19 21 23 rings
6 14 16 18 20 22 24 rings
7 2 6 7 8 9 10 11 rings

>  <PUBCHEM_HEAVY_ATOM_COUNT>  (1) 
24

>  <PUBCHEM_ATOM_DEF_STEREO_COUNT>  (1) 
0

>  <PUBCHEM_ATOM_UDEF_STEREO_COUNT>  (1) 
1

>  <PUBCHEM_BOND_DEF_STEREO_COUNT>  (1) 
0

>  <PUBCHEM_BOND_UDEF_STEREO_COUNT>  (1) 
0

>  <PUBCHEM_ISOTOPIC_ATOM_COUNT>  (1) 
0

>  <PUBCHEM_COMPONENT_COUNT>  (1) 
1

>  <PUBCHEM_CACTVS_TAUTO_COUNT>  (1) 
1

>  <PUBCHEM_CONFORMER_ID>  (1) 
00004E2F00000001

>  <PUBCHEM_MMFF94_ENERGY>  (1) 
82.4933

>  <PUBCHEM_FEATURE_SELFOVERLAP>  (1) 
35.52

>  <PUBCHEM_SHAPE_FINGERPRINT>  (1) 
11370993 144 17417272995076806402
11405975 8 18411982439005699826
11545043 162 18272093833835587218
11552529 35 18339072813297319354
12403814 3 16805599248436746461
12549972 3 17988921163579281106
12553582 1 18045226191638227546
12616971 3 16877660167818428772
12643181 29 18267315249054321678
12788726 201 18337099185504270411
13004483 165 18049733115775708091
13135754 10 17824289139493869147
13140716 1 18049165763417517947
13583140 156 17489589004554028878
14178342 30 18408882962565548474
14468879 13 17775276166812557926
15806764 133 17559973159180177072
17844677 252 18270401728326984856
20197701 30 18336821979961622999
20554085 129 18196635329705086513
20602899 9 15123502592917252797
20681651 13 17751053964660617616
21033648 29 17632287995741146008
21049683 118 18196634247045663577
22224240 67 18338526240486902817
23419403 2 13899333955244823967
23557571 272 18270674398082408874
23558518 356 17825117157838586972
23598288 3 18265624353718122391
25147074 1 17823711939012649700
3027735 51 18336258041649811507
3380486 145 17622155094079849615
3759504 43 18409735023704718845
376196 1 17844525492147149509
4015057 19 17703779323942556088
4073 2 18413107274008559734
4258327 124 18041289866685012236
484985 159 16226326022867786395
5104073 3 18335410310506686152
59755656 520 18338514136282079764
633830 44 17914333468478418725
7226269 152 18337944706014728295
81228 2 18263923405430948283
90127 26 17846497071858099936
9981440 41 17846204545266028246

>  <PUBCHEM_SHAPE_MULTIPOLES>  (1) 
483.06
10.13
3.83
1.65
15.91
3.35
-0.21
-5.86
-0.93
-6.59
-0.91
0.28
0.13
0.3

>  <PUBCHEM_SHAPE_SELFOVERLAP>  (1) 
1018.873

>  <PUBCHEM_SHAPE_VOLUME>  (1) 
268.9

>  <PUBCHEM_COORDINATE_TYPE>  (1) 
2
5
10

$$$$
