20016
     RDKit          3D

 27 30  0  0  1  0  0  0  0  0999 V2000
   -2.3103    0.0413    2.0627 O   0  0  0  0  0  0  0  0  0  0  0  0
    1.9013   -0.6727    1.0318 N   0  0  0  0  0  0  0  0  0  0  0  0
    0.4625   -0.8962    1.1682 C   0  0  0  0  0  0  0  0  0  0  0  0
   -0.3845    0.2917    0.6453 C   0  0  0  0  0  0  0  0  0  0  0  0
   -1.9382    0.1147    0.6757 C   0  0  0  0  0  0  0  0  0  0  0  0
    2.3200    0.5084    1.7965 C   0  0  0  0  0  0  0  0  0  0  0  0
    2.2638   -0.5150   -0.3878 C   0  0  0  0  0  0  0  0  0  0  0  0
    3.8491    0.6031    1.8120 C   0  0  0  0  0  0  0  0  0  0  0  0
    3.7136   -0.1419   -0.5971 C   0  0  0  0  0  0  0  0  0  0  0  0
    0.1601   -1.1471    2.6469 C   0  0  0  0  0  0  0  0  0  0  0  0
    4.4595    0.4352    0.4449 C   0  0  0  0  0  0  0  0  0  0  0  0
   -2.7233    1.3081    0.1027 C   0  0  0  0  0  0  0  0  0  0  0  0
   -2.3350   -1.1793   -0.0505 C   0  0  0  0  0  0  0  0  0  0  0  0
    4.3039   -0.3118   -1.8567 C   0  0  0  0  0  0  0  0  0  0  0  0
    5.7941    0.7990    0.2231 C   0  0  0  0  0  0  0  0  0  0  0  0
   -4.0928    1.2804    0.1761 C   0  0  0  0  0  0  0  0  0  0  0  0
   -2.1311   -1.2560   -1.4063 C   0  0  0  0  0  0  0  0  0  0  0  0
   -2.0168    2.3438   -0.4541 C   0  0  0  0  0  0  0  0  0  0  0  0
   -2.8758   -2.2031    0.6879 C   0  0  0  0  0  0  0  0  0  0  0  0
    5.6302    0.0625   -2.0706 C   0  0  0  0  0  0  0  0  0  0  0  0
    6.3752    0.6150   -1.0311 C   0  0  0  0  0  0  0  0  0  0  0  0
   -4.8044    2.3621   -0.3430 C   0  0  0  0  0  0  0  0  0  0  0  0
   -2.4911   -2.4312   -2.0658 C   0  0  0  0  0  0  0  0  0  0  0  0
   -2.7286    3.4254   -0.9730 C   0  0  0  0  0  0  0  0  0  0  0  0
   -3.2357   -3.3783    0.0283 C   0  0  0  0  0  0  0  0  0  0  0  0
   -4.1224    3.4345   -0.9174 C   0  0  0  0  0  0  0  0  0  0  0  0
   -3.0433   -3.4922   -1.3486 C   0  0  0  0  0  0  0  0  0  0  0  0
  1  5  1  0
  2  3  1  0
  2  6  1  0
  2  7  1  0
  3  4  1  0
  3 10  1  0
  4  5  1  0
  5 12  1  0
  5 13  1  0
  6  8  1  0
  7  9  1  0
  8 11  1  0
  9 11  2  0
  9 14  1  0
 11 15  1  0
 12 16  2  0
 12 18  1  0
 13 17  2  0
 13 19  1  0
 14 20  2  0
 15 21  2  0
 16 22  1  0
 17 23  1  0
 18 24  2  0
 19 25  2  0
 20 21  1  0
 22 26  2  0
 23 27  2  0
 24 26  1  0
 25 27  1  0
M  END
>  <PUBCHEM_COMPOUND_CID>  (1) 
20016

>  <PUBCHEM_CONFORMER_RMSD>  (1) 
0.8

>  <PUBCHEM_CONFORMER_DIVERSEORDER>  (1) 
2
17
18
12
16
4
3
14
9
15
10
20
19
11
13
1
6
5
8
7

>  <PUBCHEM_MMFF94_PARTIAL_CHARGES>  (1) 
40
1 -0.68
11 -0.14
12 -0.14
13 -0.14
14 -0.15
15 -0.15
16 -0.15
17 -0.15
18 -0.15
19 -0.15
2 -0.81
20 -0.15
21 -0.15
22 -0.15
23 -0.15
24 -0.15
25 -0.15
26 -0.15
27 -0.15
3 0.27
40 0.15
41 0.15
42 0.4
43 0.15
44 0.15
45 0.15
46 0.15
47 0.15
48 0.15
49 0.15
5 0.57
50 0.15
51 0.15
52 0.15
53 0.15
54 0.15
6 0.27
7 0.41
8 0.14
9 -0.14

>  <PUBCHEM_EFFECTIVE_ROTOR_COUNT>  (1) 
5.8

>  <PUBCHEM_PHARMACOPHORE_FEATURES>  (1) 
7
1 1 acceptor
1 1 donor
1 2 cation
6 12 16 18 22 24 26 rings
6 13 17 19 23 25 27 rings
6 2 6 7 8 9 11 rings
6 9 11 14 15 20 21 rings

>  <PUBCHEM_HEAVY_ATOM_COUNT>  (1) 
27

>  <PUBCHEM_ATOM_DEF_STEREO_COUNT>  (1) 
0

>  <PUBCHEM_ATOM_UDEF_STEREO_COUNT>  (1) 
1

>  <PUBCHEM_BOND_DEF_STEREO_COUNT>  (1) 
0

>  <PUBCHEM_BOND_UDEF_STEREO_COUNT>  (1) 
0

>  <PUBCHEM_ISOTOPIC_ATOM_COUNT>  (1) 
0

>  <PUBCHEM_COMPONENT_COUNT>  (1) 
1

>  <PUBCHEM_CACTVS_TAUTO_COUNT>  (1) 
1

>  <PUBCHEM_CONFORMER_ID>  (1) 
00004E3000000002

>  <PUBCHEM_MMFF94_ENERGY>  (1) 
93.3043

>  <PUBCHEM_FEATURE_SELFOVERLAP>  (1) 
35.544

>  <PUBCHEM_SHAPE_FINGERPRINT>  (1) 
10165383 225 18059027094407275969
105312 117 18342176609820397357
107951 10 18412268302970073479
10906281 52 17973160635643646749
11049842 53 18122321507288829034
11101153 10 18046910656627006844
11477941 20 18265903634531593188
12616971 3 17240757364130786360
12633257 1 13335323960602469680
12788726 201 18262503871716805699
12895836 83 18340204090313416165
12895837 130 18261684743827783244
13257819 37 18340763742222006469
13583140 156 17846498140983002398
13617811 41 18265050417666359999
13690498 29 18271811292926421678
14142880 1 17313108544726235679
14251757 5 18341896277115290941
15131766 46 15719974512849501604
15163728 17 17980206284056872797
15289351 153 17751931466200669964
15463212 79 18334854991771379843
15842332 3 17823394064024646738
1813 80 17981886651245820863
19319366 153 17677891236566498321
20101258 96 18191874624692078051
20511986 3 17385998443023001156
21033650 10 18262255352060749064
21756936 100 17822019709245043704
21864079 5 17968104144110922812
22182313 1 17345737716153355226
22393880 68 18202562887179431774
22620623 9 18272361010169967207
23227448 37 18409444799837843949
23557571 272 18201710795052097320
23559900 14 17346313813244249666
24893989 43 15538030670745251589
25147074 1 17822837711330798690
25265897 201 18052572947655685853
255183 451 17693086784354409239
268830 7 16950003643068735980
312425 83 18338252526341483980
314194 84 14907909254375220638
3388396 114 17683538598822846828
3610482 184 17895773849951314758
3729539 64 17700139789924865239
376196 1 17392469997076835685
4015057 19 16559021697065538697
4058900 60 17983022142036194953
437795 70 17698966835226701567
4394409 98 17693947293499104566
44062 13 18342739624235010742
44249763 50 18341885321197219596
46194498 28 17987237923014714696
469060 322 18194700360659305027
484985 159 15697998574272183791
497634 4 17559691687896761680
508706 21 18272926150435176422
5219985 13 18045213835207240861
531348 171 18410297969785601222
58260988 587 17694236478458660121
59755656 520 17167870733830055802
633830 44 17531249409825723186
6608658 132 18114736054189268133
7288768 16 16878235172774476777
7808743 9 18261110738317077752

>  <PUBCHEM_SHAPE_MULTIPOLES>  (1) 
544.8
12.48
3.63
2.11
18.6
0.03
-0.39
-4.71
5.01
-8.65
1.7
1.35
0.73
0.22

>  <PUBCHEM_SHAPE_SELFOVERLAP>  (1) 
1187.615

>  <PUBCHEM_SHAPE_VOLUME>  (1) 
295.2

>  <PUBCHEM_COORDINATE_TYPE>  (1) 
2
5
10

$$$$
