20026
     RDKit          3D

  6  5  0  0  1  0  0  0  0  0999 V2000
   -1.3544   -1.3817   -0.6057 Cl  0  0  0  0  0  0  0  0  0  0  0  0
    1.0019    1.0118   -0.8357 O   0  0  0  0  0  0  0  0  0  0  0  0
   -0.6748   -0.1348    0.4652 C   0  0  0  0  0  0  0  0  0  0  0  0
    0.7408    0.1367   -0.0102 C   0  0  0  0  0  0  0  0  0  0  0  0
   -1.5414    1.1130    0.4347 C   0  0  0  0  0  0  0  0  0  0  0  0
    1.8279   -0.7449    0.5517 C   0  0  0  0  0  0  0  0  0  0  0  0
  1  3  1  0
  2  4  2  0
  3  4  1  0
  3  5  1  0
  4  6  1  0
M  END
>  <PUBCHEM_COMPOUND_CID>  (1) 
20026

>  <PUBCHEM_CONFORMER_RMSD>  (1) 
0.4

>  <PUBCHEM_CONFORMER_DIVERSEORDER>  (1) 
1
6
2
4
3
5

>  <PUBCHEM_MMFF94_PARTIAL_CHARGES>  (1) 
5
1 -0.29
2 -0.57
3 0.35
4 0.45
6 0.06

>  <PUBCHEM_EFFECTIVE_ROTOR_COUNT>  (1) 
1

>  <PUBCHEM_PHARMACOPHORE_FEATURES>  (1) 
1
1 2 acceptor

>  <PUBCHEM_HEAVY_ATOM_COUNT>  (1) 
6

>  <PUBCHEM_ATOM_DEF_STEREO_COUNT>  (1) 
0

>  <PUBCHEM_ATOM_UDEF_STEREO_COUNT>  (1) 
1

>  <PUBCHEM_BOND_DEF_STEREO_COUNT>  (1) 
0

>  <PUBCHEM_BOND_UDEF_STEREO_COUNT>  (1) 
0

>  <PUBCHEM_ISOTOPIC_ATOM_COUNT>  (1) 
0

>  <PUBCHEM_COMPONENT_COUNT>  (1) 
1

>  <PUBCHEM_CACTVS_TAUTO_COUNT>  (1) 
3

>  <PUBCHEM_CONFORMER_ID>  (1) 
00004E3A00000001

>  <PUBCHEM_MMFF94_ENERGY>  (1) 
5.2703

>  <PUBCHEM_FEATURE_SELFOVERLAP>  (1) 
5.074

>  <PUBCHEM_SHAPE_FINGERPRINT>  (1) 
139733 1 11243062180205757815
16714656 1 17975421217725727806
18185500 45 18194959866677323135
20096714 4 18189072961126202881
21040471 1 18057615269478791209
24536 1 17749391532632572680
29004967 10 17023193652141102616
5943 1 9191996364454625300

>  <PUBCHEM_SHAPE_MULTIPOLES>  (1) 
119.48
2.23
1.41
0.88
0.41
0.21
0.06
0.22
-0.22
-0.62
0.17
0.1
-0.05
-0.47

>  <PUBCHEM_SHAPE_SELFOVERLAP>  (1) 
205.892

>  <PUBCHEM_SHAPE_VOLUME>  (1) 
80.9

>  <PUBCHEM_COORDINATE_TYPE>  (1) 
2
5
10

$$$$
