20028
     RDKit          3D

 27 28  0  0  1  0  0  0  0  0999 V2000
    5.8239    0.0860   -1.8459 F   0  0  0  0  0  0  0  0  0  0  0  0
    4.2091    1.7879    2.3174 F   0  0  0  0  0  0  0  0  0  0  0  0
   -4.5354   -2.3106   -0.5716 O   0  0  0  0  0  0  0  0  0  0  0  0
   -3.5429   -4.1573    0.2739 O   0  0  0  0  0  0  0  0  0  0  0  0
   -2.1642    0.1239    1.9593 O   0  0  0  0  0  0  0  0  0  0  0  0
    3.7971    0.1972    0.0651 N   0  0  0  0  0  0  0  0  0  0  0  0
   -2.4832   -0.7462   -0.1667 N   0  0  0  0  0  0  0  0  0  0  0  0
   -1.0710   -2.7023   -0.6393 C   0  0  0  0  0  0  0  0  0  0  0  0
   -2.2356   -2.1244    0.1754 C   0  0  0  0  0  0  0  0  0  0  0  0
    0.2160   -1.9355   -0.4527 C   0  0  0  0  0  0  0  0  0  0  0  0
    2.5944   -0.5188   -0.1086 C   0  0  0  0  0  0  0  0  0  0  0  0
    4.1200    1.3113   -0.8038 C   0  0  0  0  0  0  0  0  0  0  0  0
    4.7193   -0.1629    1.1238 C   0  0  0  0  0  0  0  0  0  0  0  0
    1.1034   -2.2982    0.5607 C   0  0  0  0  0  0  0  0  0  0  0  0
    0.5180   -0.8645   -1.2939 C   0  0  0  0  0  0  0  0  0  0  0  0
    2.2927   -1.5898    0.7327 C   0  0  0  0  0  0  0  0  0  0  0  0
    1.7070   -0.1562   -1.1218 C   0  0  0  0  0  0  0  0  0  0  0  0
   -3.4836   -2.9705   -0.0302 C   0  0  0  0  0  0  0  0  0  0  0  0
    4.6982    0.8031   -2.1089 C   0  0  0  0  0  0  0  0  0  0  0  0
    4.2609    0.4340    2.4389 C   0  0  0  0  0  0  0  0  0  0  0  0
   -2.4256    0.2770    0.7691 C   0  0  0  0  0  0  0  0  0  0  0  0
   -2.7322    1.6398    0.2629 C   0  0  0  0  0  0  0  0  0  0  0  0
   -3.2482    2.6052    1.1275 C   0  0  0  0  0  0  0  0  0  0  0  0
   -2.5035    1.9542   -1.0768 C   0  0  0  0  0  0  0  0  0  0  0  0
   -3.5359    3.8848    0.6524 C   0  0  0  0  0  0  0  0  0  0  0  0
   -2.7911    3.2338   -1.5518 C   0  0  0  0  0  0  0  0  0  0  0  0
   -3.3073    4.1990   -0.6871 C   0  0  0  0  0  0  0  0  0  0  0  0
  1 19  1  0
  2 20  1  0
  3 18  1  0
  4 18  2  0
  5 21  2  0
  6 11  1  0
  6 12  1  0
  6 13  1  0
  7  9  1  0
  7 21  1  0
  8  9  1  0
  8 10  1  0
  9 18  1  0
 10 14  2  0
 10 15  1  0
 11 16  2  0
 11 17  1  0
 12 19  1  0
 13 20  1  0
 14 16  1  0
 15 17  2  0
 21 22  1  0
 22 23  2  0
 22 24  1  0
 23 25  1  0
 24 26  2  0
 25 27  2  0
 26 27  1  0
M  END
>  <PUBCHEM_COMPOUND_CID>  (1) 
20028

>  <PUBCHEM_CONFORMER_RMSD>  (1) 
1

>  <PUBCHEM_CONFORMER_DIVERSEORDER>  (1) 
1
12
29
49
9
18
52
31
37
32
24
7
20
38
27
50
35
34
23
48
51
14
28
47
19
36
39
21
40
30
44
16
11
2
10
4
22
43
15
46
41
8
3
5
6
25
45
42
17
33
13
26

>  <PUBCHEM_MMFF94_PARTIAL_CHARGES>  (1) 
38
1 -0.34
10 -0.14
11 0.1
12 0.37
13 0.37
14 -0.15
15 -0.15
16 -0.15
17 -0.15
18 0.66
19 0.34
2 -0.34
20 0.34
21 0.54
22 0.09
23 -0.15
24 -0.15
25 -0.15
26 -0.15
27 -0.15
3 -0.65
35 0.15
36 0.15
37 0.15
38 0.15
39 0.37
4 -0.57
44 0.15
45 0.15
46 0.5
47 0.15
48 0.15
49 0.15
5 -0.57
6 -0.84
7 -0.73
8 0.14
9 0.36

>  <PUBCHEM_EFFECTIVE_ROTOR_COUNT>  (1) 
11

>  <PUBCHEM_PHARMACOPHORE_FEATURES>  (1) 
8
1 3 acceptor
1 4 acceptor
1 5 acceptor
1 6 cation
1 7 donor
3 3 4 18 anion
6 10 11 14 15 16 17 rings
6 22 23 24 25 26 27 rings

>  <PUBCHEM_HEAVY_ATOM_COUNT>  (1) 
27

>  <PUBCHEM_ATOM_DEF_STEREO_COUNT>  (1) 
0

>  <PUBCHEM_ATOM_UDEF_STEREO_COUNT>  (1) 
1

>  <PUBCHEM_BOND_DEF_STEREO_COUNT>  (1) 
0

>  <PUBCHEM_BOND_UDEF_STEREO_COUNT>  (1) 
0

>  <PUBCHEM_ISOTOPIC_ATOM_COUNT>  (1) 
0

>  <PUBCHEM_COMPONENT_COUNT>  (1) 
1

>  <PUBCHEM_CACTVS_TAUTO_COUNT>  (1) 
2

>  <PUBCHEM_CONFORMER_ID>  (1) 
00004E3C00000001

>  <PUBCHEM_MMFF94_ENERGY>  (1) 
75.4587

>  <PUBCHEM_FEATURE_SELFOVERLAP>  (1) 
40.657

>  <PUBCHEM_SHAPE_FINGERPRINT>  (1) 
10670039 82 18337118951201430652
10871710 139 18263379121183667813
10937287 8 18050567348806273917
11059845 2 18120911955515356392
11595378 159 18264200486634905866
12107183 9 17973714784575797018
12633257 1 17241324647390035768
12788726 201 18188772880340753034
13583140 156 18059845169666119414
13965767 371 17899971630025837187
14294032 229 18338530651165036641
15961568 22 17765429138601842608
20567600 299 16680053424917700045
20600515 1 17913218834519083423
21304303 282 18048002265683094287
22182313 1 17632292419604803610
3117164 225 18120631571292170354
469060 322 18265064707006450355
474 4 17691400820379156521
495365 180 17760364397117743517
508706 21 18342734122160832540
5252454 2 18269289970834792737
7808743 9 18337122184958798708
9849439 229 18195525879180387985

>  <PUBCHEM_SHAPE_MULTIPOLES>  (1) 
513.53
10.7
5.01
1.87
10.11
0.31
-0.45
-5.84
-0.13
-9.47
0.37
2.4
-1.12
-0.05

>  <PUBCHEM_SHAPE_SELFOVERLAP>  (1) 
1075.689

>  <PUBCHEM_SHAPE_VOLUME>  (1) 
288.6

>  <PUBCHEM_COORDINATE_TYPE>  (1) 
2
5
10

$$$$
