2003
     RDKit          3D

 18 19  0  0  1  0  0  0  0  0999 V2000
    3.6461    0.0780    1.6541 O   0  0  0  0  0  0  0  0  0  0  0  0
    1.5427    1.4920   -2.1746 O   0  0  0  0  0  0  0  0  0  0  0  0
   -2.1383   -1.6505   -1.3664 N   0  0  0  0  0  0  0  0  0  0  0  0
    1.5628    0.9472    0.0890 N   0  0  0  0  0  0  0  0  0  0  0  0
    4.1493   -1.4860    0.0489 N   0  0  0  0  0  0  0  0  0  0  0  0
    0.9477   -1.4010    0.5694 C   0  0  0  0  0  0  0  0  0  0  0  0
   -0.3973   -1.3048   -0.0335 C   0  0  0  0  0  0  0  0  0  0  0  0
    1.9786   -0.4266   -0.0401 C   0  0  0  0  0  0  0  0  0  0  0  0
   -1.4591   -0.4590    0.3932 C   0  0  0  0  0  0  0  0  0  0  0  0
   -2.5395   -0.6953   -0.4596 C   0  0  0  0  0  0  0  0  0  0  0  0
   -0.8454   -2.0250   -1.1169 C   0  0  0  0  0  0  0  0  0  0  0  0
   -1.6052    0.4880    1.4263 C   0  0  0  0  0  0  0  0  0  0  0  0
    3.3307   -0.5512    0.6469 C   0  0  0  0  0  0  0  0  0  0  0  0
   -3.7636   -0.0295   -0.3303 C   0  0  0  0  0  0  0  0  0  0  0  0
   -2.8238    1.1618    1.5676 C   0  0  0  0  0  0  0  0  0  0  0  0
   -3.8851    0.9054    0.7017 C   0  0  0  0  0  0  0  0  0  0  0  0
    1.3798    1.7922   -0.9949 C   0  0  0  0  0  0  0  0  0  0  0  0
    0.9197    3.1642   -0.5807 C   0  0  0  0  0  0  0  0  0  0  0  0
  1 13  2  0
  2 17  2  0
  3 10  1  0
  3 11  1  0
  4  8  1  0
  4 17  1  0
  5 13  1  0
  6  7  1  0
  6  8  1  0
  7  9  1  0
  7 11  2  0
  8 13  1  0
  9 10  2  0
  9 12  1  0
 10 14  1  0
 12 15  2  0
 14 16  2  0
 15 16  1  0
 17 18  1  0
M  END
>  <PUBCHEM_COMPOUND_CID>  (1) 
2003

>  <PUBCHEM_CONFORMER_RMSD>  (1) 
0.6

>  <PUBCHEM_CONFORMER_DIVERSEORDER>  (1) 
1
101
54
168
2
91
111
208
35
9
46
124
24
104
88
194
110
141
191
27
140
69
121
161
102
34
96
201
59
126
163
61
13
206
94
21
144
40
138
127
120
7
170
33
44
51
39
152
15
17
192
5
146
4
169
181
158
52
184
95
97
116
78
56
142
171
182
195
188
149
99
87
175
165
63
115
131
76
137
93
179
41
26
139
25
47
12
83
55
173
64
129
29
114
205
8
10
73
81
178
199
20
80
79
11
31
134
92
136
43
84
103
135
90
177
22
14
150
75
174
119
132
53
3
36
71
153
98
77
118
155
145
123
157
38
151
19
18
186
70
185
68
32
16
72
187
160
107
125
6
198
113
190
65
66
154
30
62
42
106
128
147
28
105
133
85
156
74
49
122
162
130
37
23
45
117
50
112
196
108
202
100
180
197
204
67
200
57
60
89
172
164
48
203
143
166
189
86
109
58
148
159
167
207
176
82
183
193

>  <PUBCHEM_MMFF94_PARTIAL_CHARGES>  (1) 
26
1 -0.57
10 -0.15
11 -0.3
12 -0.15
13 0.57
14 -0.15
15 -0.15
16 -0.15
17 0.57
18 0.06
2 -0.57
22 0.15
23 0.27
24 0.37
25 0.15
26 0.15
27 0.15
28 0.15
29 0.37
3 0.03
30 0.37
4 -0.73
5 -0.8
6 0.18
7 -0.18
8 0.36

>  <PUBCHEM_EFFECTIVE_ROTOR_COUNT>  (1) 
5

>  <PUBCHEM_PHARMACOPHORE_FEATURES>  (1) 
8
1 1 acceptor
1 2 acceptor
1 3 cation
1 3 donor
1 4 donor
1 5 donor
5 3 7 9 10 11 rings
6 9 10 12 14 15 16 rings

>  <PUBCHEM_HEAVY_ATOM_COUNT>  (1) 
18

>  <PUBCHEM_ATOM_DEF_STEREO_COUNT>  (1) 
0

>  <PUBCHEM_ATOM_UDEF_STEREO_COUNT>  (1) 
1

>  <PUBCHEM_BOND_DEF_STEREO_COUNT>  (1) 
0

>  <PUBCHEM_BOND_UDEF_STEREO_COUNT>  (1) 
0

>  <PUBCHEM_ISOTOPIC_ATOM_COUNT>  (1) 
0

>  <PUBCHEM_COMPONENT_COUNT>  (1) 
1

>  <PUBCHEM_CACTVS_TAUTO_COUNT>  (1) 
4

>  <PUBCHEM_CONFORMER_ID>  (1) 
000007D300000001

>  <PUBCHEM_MMFF94_ENERGY>  (1) 
32.9937

>  <PUBCHEM_FEATURE_SELFOVERLAP>  (1) 
40.688

>  <PUBCHEM_SHAPE_FINGERPRINT>  (1) 
10366900 7 16443064989298474643
104564 63 18044093441236987548
11086676 242 18114177502324068104
11640471 11 18267029538147567149
12633257 1 17751669626784878873
12670545 47 16153708773300832083
13583140 156 17894915101532357003
13965767 371 17623588457567808185
14115302 16 18201432623269149351
15653759 3 15864070979030855993
15775835 57 18264500640176765957
15852999 172 16486981686639668126
16945 1 18188220809876810203
17357990 137 18269578116027576101
17980427 23 17773863354537701472
1813 80 18115315458436407838
192875 21 18413385441185466229
20645476 183 18268159823511236447
22094290 62 18335707164721975045
23175994 123 17095520639449790490
23184049 59 18410291372166786178
23402539 116 16988549170225994275
23419403 2 16038780189745051219
23526113 38 15720489002560515690
23557571 272 16916508193453730727
23559900 14 17132109127006475458
23598291 2 18338233868217767606
2748010 2 17832990438271183581
3286 77 17386012809867311243
4175511 71 18334020479852418956
568465 68 16877664534966784410
6992083 37 18413105048208074782
74978 22 18262806292626351094
81228 2 17751911420632606808
9981440 41 17474939304530377008

>  <PUBCHEM_SHAPE_MULTIPOLES>  (1) 
343.75
6.41
2.42
1.52
0.85
1.31
-0.14
-0.33
1.81
0.74
-0.99
0.12
0.38
-1.46

>  <PUBCHEM_SHAPE_SELFOVERLAP>  (1) 
731.848

>  <PUBCHEM_SHAPE_VOLUME>  (1) 
191.7

>  <PUBCHEM_COORDINATE_TYPE>  (1) 
2
5
10

$$$$
