20033
     RDKit          3D

 18 18  0  0  1  0  0  0  0  0999 V2000
    4.9067   -3.0180   -0.0368 Cl  0  0  0  0  0  0  0  0  0  0  0  0
    3.8107    2.3756   -1.2412 F   0  0  0  0  0  0  0  0  0  0  0  0
   -6.0797    1.0724    0.0791 O   0  0  0  0  0  0  0  0  0  0  0  0
   -5.7755   -1.1658   -0.2406 O   0  0  0  0  0  0  0  0  0  0  0  0
    2.6242    0.3052    0.2003 N   0  0  0  0  0  0  0  0  0  0  0  0
    3.5571   -0.6623   -0.3424 C   0  0  0  0  0  0  0  0  0  0  0  0
    3.1378    1.5062    0.8283 C   0  0  0  0  0  0  0  0  0  0  0  0
    1.2344    0.0743    0.1302 C   0  0  0  0  0  0  0  0  0  0  0  0
    0.3449    1.0049    0.6671 C   0  0  0  0  0  0  0  0  0  0  0  0
    0.7498   -1.0848   -0.4756 C   0  0  0  0  0  0  0  0  0  0  0  0
    3.7694   -1.8168    0.6243 C   0  0  0  0  0  0  0  0  0  0  0  0
    3.0686    2.6700   -0.1396 C   0  0  0  0  0  0  0  0  0  0  0  0
   -1.5141   -0.3828   -0.0075 C   0  0  0  0  0  0  0  0  0  0  0  0
   -1.0294    0.7763    0.5985 C   0  0  0  0  0  0  0  0  0  0  0  0
   -0.6245   -1.3134   -0.5445 C   0  0  0  0  0  0  0  0  0  0  0  0
   -2.9470   -0.6215   -0.0792 C   0  0  0  0  0  0  0  0  0  0  0  0
   -3.9037    0.3257    0.0408 C   0  0  0  0  0  0  0  0  0  0  0  0
   -5.3294   -0.0452   -0.0613 C   0  0  0  0  0  0  0  0  0  0  0  0
  1 11  1  0
  2 12  1  0
  3 18  1  0
  4 18  2  0
  5  6  1  0
  5  7  1  0
  5  8  1  0
  6 11  1  0
  7 12  1  0
  8  9  2  0
  8 10  1  0
  9 14  1  0
 10 15  2  0
 13 14  2  0
 13 15  1  0
 13 16  1  0
 16 17  2  0
 17 18  1  0
M  END
>  <PUBCHEM_COMPOUND_CID>  (1) 
20033

>  <PUBCHEM_CONFORMER_RMSD>  (1) 
0.8

>  <PUBCHEM_CONFORMER_DIVERSEORDER>  (1) 
4
43
14
39
13
44
36
40
26
37
42
29
32
11
18
10
19
34
24
25
38
46
12
45
30
8
16
35
33
23
27
15
22
21
28
7
20
6
1
9
3
2
41
5
31
17

>  <PUBCHEM_MMFF94_PARTIAL_CHARGES>  (1) 
25
1 -0.29
10 -0.15
11 0.29
12 0.34
13 0.03
14 -0.15
15 -0.15
16 -0.18
17 -0.14
18 0.71
2 -0.34
23 0.15
24 0.15
29 0.15
3 -0.65
30 0.15
31 0.15
32 0.15
33 0.5
4 -0.57
5 -0.84
6 0.37
7 0.37
8 0.1
9 -0.15

>  <PUBCHEM_EFFECTIVE_ROTOR_COUNT>  (1) 
7

>  <PUBCHEM_PHARMACOPHORE_FEATURES>  (1) 
5
1 3 acceptor
1 4 acceptor
1 5 cation
3 3 4 18 anion
6 8 9 10 13 14 15 rings

>  <PUBCHEM_HEAVY_ATOM_COUNT>  (1) 
18

>  <PUBCHEM_ATOM_DEF_STEREO_COUNT>  (1) 
0

>  <PUBCHEM_ATOM_UDEF_STEREO_COUNT>  (1) 
0

>  <PUBCHEM_BOND_DEF_STEREO_COUNT>  (1) 
0

>  <PUBCHEM_BOND_UDEF_STEREO_COUNT>  (1) 
1

>  <PUBCHEM_ISOTOPIC_ATOM_COUNT>  (1) 
0

>  <PUBCHEM_COMPONENT_COUNT>  (1) 
1

>  <PUBCHEM_CACTVS_TAUTO_COUNT>  (1) 
1

>  <PUBCHEM_CONFORMER_ID>  (1) 
00004E4100000004

>  <PUBCHEM_MMFF94_ENERGY>  (1) 
53.797

>  <PUBCHEM_FEATURE_SELFOVERLAP>  (1) 
25.427

>  <PUBCHEM_SHAPE_FINGERPRINT>  (1) 
10912923 1 17988647419590701451
12403260 363 18342176614030916377
12616971 3 18060412513333856375
13073987 5 18343302596027304593
13167823 11 18411694405282001891
13533116 47 18413107264258095531
13760787 5 18342449353334115519
13862211 1 18131062711013719183
13955234 65 18339922714263008480
15196674 1 18342174484180551713
17834072 33 18272650199255873863
17844677 252 18408610245206411465
1813 80 18196944275461336302
18186145 218 17894903044672862035
20369508 70 18334289830373966274
20612939 158 18410296908311130261
20645477 70 18410573985373348042
21267235 1 18270967847043396819
212847 35 18272651263875279721
23081809 10 18131349726877484445
23402539 116 17988634169658849703
23402655 69 17989486325704220053
23557571 272 17313384462247329087
23559900 14 18410008840739157034
25147074 1 18129678408504472288
3004659 81 18343585127112386526
3071541 37 18339083791096317788
312423 11 18342187634716589976
34797466 226 16732993054458536687
34934 24 17987229109483197952
350125 39 18340487768434198416
4072396 5 17417807301560845911
465052 167 18342460309516775254
5104073 3 18272936037993503363
522135 26 18410011048415260600
5281201 14 18260825981853406613
537710 114 18131071571066884305
633830 44 18187075178948374891
7364860 26 18342174493039511760
77188 2 18266457608440662788
8272917 22 18408886252505034078
90127 26 17821730524918373401
9971528 1 17967252009513749117
9999458 23 18260547810017867086

>  <PUBCHEM_SHAPE_MULTIPOLES>  (1) 
348.31
12.15
2.58
0.81
15.29
0.31
0.03
-2.99
0.38
-5.08
0.26
-0.5
0.19
-0.69

>  <PUBCHEM_SHAPE_SELFOVERLAP>  (1) 
700.774

>  <PUBCHEM_SHAPE_VOLUME>  (1) 
205.6

>  <PUBCHEM_COORDINATE_TYPE>  (1) 
2
5
10

$$$$
