20055
     RDKit          3D

 13 13  0  0  0  0  0  0  0  0999 V2000
    3.2274    2.3305   -0.3958 Cl  0  0  0  0  0  0  0  0  0  0  0  0
   -2.3146    1.3680   -0.7510 O   0  0  0  0  0  0  0  0  0  0  0  0
   -3.3379   -0.5054    0.1614 N   0  0  0  0  0  0  0  0  0  0  0  0
    2.2925   -2.7144   -0.3686 N   0  0  0  0  0  0  0  0  0  0  0  0
    0.0830    0.0845    0.6380 C   0  0  0  0  0  0  0  0  0  0  0  0
   -1.2951    0.2967    1.1665 C   0  0  0  0  0  0  0  0  0  0  0  0
    0.5412   -1.2083    0.3845 C   0  0  0  0  0  0  0  0  0  0  0  0
    0.9138    1.1786    0.3966 C   0  0  0  0  0  0  0  0  0  0  0  0
    1.8301   -1.4071   -0.1103 C   0  0  0  0  0  0  0  0  0  0  0  0
   -2.3507    0.4666    0.0827 C   0  0  0  0  0  0  0  0  0  0  0  0
    2.2029    0.9800   -0.0982 C   0  0  0  0  0  0  0  0  0  0  0  0
    2.6611   -0.3129   -0.3517 C   0  0  0  0  0  0  0  0  0  0  0  0
   -4.4536   -0.5569   -0.7542 C   0  0  0  0  0  0  0  0  0  0  0  0
  1 11  1  0
  2 10  2  0
  3 10  1  0
  3 13  1  0
  4  9  1  0
  5  6  1  0
  5  7  2  0
  5  8  1  0
  6 10  1  0
  7  9  1  0
  8 11  2  0
  9 12  2  0
 11 12  1  0
M  END
>  <PUBCHEM_COMPOUND_CID>  (1) 
20055

>  <PUBCHEM_CONFORMER_RMSD>  (1) 
0.6

>  <PUBCHEM_CONFORMER_DIVERSEORDER>  (1) 
1
11
10
5
3
8
9
12
2
4
7
6

>  <PUBCHEM_MMFF94_PARTIAL_CHARGES>  (1) 
19
1 -0.18
10 0.57
11 0.18
12 -0.15
13 0.3
16 0.15
17 0.15
18 0.15
19 0.37
2 -0.57
20 0.4
21 0.4
3 -0.73
4 -0.9
5 -0.14
6 0.2
7 -0.15
8 -0.15
9 0.1

>  <PUBCHEM_EFFECTIVE_ROTOR_COUNT>  (1) 
3

>  <PUBCHEM_PHARMACOPHORE_FEATURES>  (1) 
5
1 2 acceptor
1 3 donor
1 4 cation
1 4 donor
6 5 7 8 9 11 12 rings

>  <PUBCHEM_HEAVY_ATOM_COUNT>  (1) 
13

>  <PUBCHEM_ATOM_DEF_STEREO_COUNT>  (1) 
0

>  <PUBCHEM_ATOM_UDEF_STEREO_COUNT>  (1) 
0

>  <PUBCHEM_BOND_DEF_STEREO_COUNT>  (1) 
0

>  <PUBCHEM_BOND_UDEF_STEREO_COUNT>  (1) 
0

>  <PUBCHEM_ISOTOPIC_ATOM_COUNT>  (1) 
0

>  <PUBCHEM_COMPONENT_COUNT>  (1) 
1

>  <PUBCHEM_CACTVS_TAUTO_COUNT>  (1) 
2

>  <PUBCHEM_CONFORMER_ID>  (1) 
00004E5700000001

>  <PUBCHEM_MMFF94_ENERGY>  (1) 
33.7521

>  <PUBCHEM_FEATURE_SELFOVERLAP>  (1) 
25.371

>  <PUBCHEM_SHAPE_FINGERPRINT>  (1) 
1 1 18410862096380219868
12897270 3 18334574655256005361
12932764 1 17604995814842043945
13380535 76 18263646319773514954
14181834 199 18334300838369559398
14251717 144 18412544327300267694
14576447 43 18273209815808680743
15375462 6 18409449197847074685
15477762 27 18340768156657491710
15775835 57 18270403913626510205
15852999 172 18115592680936137434
16945 1 18338815424454571354
18522851 268 18337382752097613351
19422 9 18131637755562903667
20201158 50 18408045099886431131
20281475 54 18201715159493269691
20645477 70 18411133619976039855
20671657 53 18124883356675596334
21499 59 18265899244700079876
21501502 16 18340492158012022921
21524375 3 18190742127684196784
21947302 44 18113899368510017520
22096605 113 18408605893713509200
221490 88 18409456890028422355
22169311 14 10375875199247595245
228727 97 17632311102127394648
230 275 16877948225961938008
23402539 116 17677600033430637745
23402655 69 18412542111492937909
23419403 2 15216626791537107922
23532345 88 18411413973486050110
23557571 272 17169005507065355211
23598291 2 17987815011488641433
257057 1 17831857946022460922
2748010 2 18050311416073620338
3060560 45 18338519758864113228
58051976 378 18341049726049493572
581208 293 18412259570905252393
6338986 31 17686897220403925602
7364860 26 18413108347064458194
81228 2 17257662110478486674
81539 233 18188488089938998308
88987 49 15575010518865991091
9939556 21 18199192784876177665

>  <PUBCHEM_SHAPE_MULTIPOLES>  (1) 
253.57
6.37
2.17
0.88
6.19
0.71
0.09
-0.86
-1.99
-2.56
-0.39
0.32
-0.08
-0.04

>  <PUBCHEM_SHAPE_SELFOVERLAP>  (1) 
511.008

>  <PUBCHEM_SHAPE_VOLUME>  (1) 
149.8

>  <PUBCHEM_COORDINATE_TYPE>  (1) 
2
5
10

$$$$
