20052
     RDKit          3D

 12 11  0  0  1  0  0  0  0  0999 V2000
    4.9051   -1.6098    0.0283 Br  0  0  0  0  0  0  0  0  0  0  0  0
    5.5184    1.8194    0.1123 Br  0  0  0  0  0  0  0  0  0  0  0  0
   -0.3467   -0.6661   -0.1216 C   0  0  0  0  0  0  0  0  0  0  0  0
   -1.5485    0.2149    0.2273 C   0  0  0  0  0  0  0  0  0  0  0  0
    0.9724    0.0330    0.2160 C   0  0  0  0  0  0  0  0  0  0  0  0
   -2.8647   -0.4725   -0.1417 C   0  0  0  0  0  0  0  0  0  0  0  0
    2.1726   -0.8675   -0.0947 C   0  0  0  0  0  0  0  0  0  0  0  0
   -4.1021    0.3794    0.1578 C   0  0  0  0  0  0  0  0  0  0  0  0
    3.5132   -0.2336    0.2995 C   0  0  0  0  0  0  0  0  0  0  0  0
   -5.4477   -0.2495   -0.2118 C   0  0  0  0  0  0  0  0  0  0  0  0
    3.8658    0.9942   -0.5280 C   0  0  0  0  0  0  0  0  0  0  0  0
   -6.6377    0.6582    0.0567 C   0  0  0  0  0  0  0  0  0  0  0  0
  1  9  1  0
  2 11  1  0
  3  4  1  0
  3  5  1  0
  4  6  1  0
  5  7  1  0
  6  8  1  0
  7  9  1  0
  8 10  1  0
  9 11  1  0
 10 12  1  0
M  END
>  <PUBCHEM_COMPOUND_CID>  (1) 
20052

>  <PUBCHEM_CONFORMER_RMSD>  (1) 
0.8

>  <PUBCHEM_CONFORMER_DIVERSEORDER>  (1) 
1
250
119
171
354
349
112
32
309
262
319
138
76
338
353
2
255
267
300
228
113
18
247
334
4
89
333
3
93
204
286
326
66
190
339
11
358
143
315
9
163
170
283
126
213
222
8
273
330
209
35
77
275
165
343
37
313
272
308
246
24
83
20
223
271
282
87
5
139
257
80
180
34
332
249
235
356
322
260
132
232
104
67
194
86
46
38
203
231
345
114
60
135
92
136
351
303
218
305
195
242
109
7
78
197
117
41
278
325
270
107
147
134
26
130
177
347
229
216
71
91
95
73
122
16
215
105
323
199
140
302
336
64
220
166
269
106
154
253
252
198
320
85
201
284
254
120
55
251
357
196
22
52
169
181
335
172
162
127
45
202
296
293
146
355
90
94
96
256
276
40
161
310
44
145
290
25
295
185
33
192
17
47
301
101
210
340
214
318
184
125
79
316
39
244
207
118
289
28
63
329
277
65
240
265
264
317
352
115
43
14
10
191
168
167
13
129
279
236
241
141
121
98
103
59
274
331
327
81
292
298
62
54
285
150
108
208
23
15
294
175
149
311
148
217
350
193
156
155
152
50
21
178
299
230
72
341
281
233
99
268
211
6
239
266
212
188
75
19
321
234
226
346
348
183
160
344
206
142
70
288
29
312
189
306
297
157
238
280
158
30
82
245
124
328
287
100
36
153
342
176
182
173
74
200
97
116
291
227
337
304
164
31
42
110
69
102
219
263
174
187
159
179
68
84
27
128
51
12
144
49
53
237
314
48
58
123
248
186
224
261
88
221
61
205
307
131
133
56
57
137
259
324
243
111
151
258
225

>  <PUBCHEM_MMFF94_PARTIAL_CHARGES>  (1) 
4
1 -0.23
11 0.23
2 -0.23
9 0.23

>  <PUBCHEM_EFFECTIVE_ROTOR_COUNT>  (1) 
8

>  <PUBCHEM_PHARMACOPHORE_FEATURES>  (1) 
3
1 1 hydrophobe
1 12 hydrophobe
1 2 hydrophobe

>  <PUBCHEM_HEAVY_ATOM_COUNT>  (1) 
12

>  <PUBCHEM_ATOM_DEF_STEREO_COUNT>  (1) 
0

>  <PUBCHEM_ATOM_UDEF_STEREO_COUNT>  (1) 
1

>  <PUBCHEM_BOND_DEF_STEREO_COUNT>  (1) 
0

>  <PUBCHEM_BOND_UDEF_STEREO_COUNT>  (1) 
0

>  <PUBCHEM_ISOTOPIC_ATOM_COUNT>  (1) 
0

>  <PUBCHEM_COMPONENT_COUNT>  (1) 
1

>  <PUBCHEM_CACTVS_TAUTO_COUNT>  (1) 
1

>  <PUBCHEM_CONFORMER_ID>  (1) 
00004E5400000001

>  <PUBCHEM_MMFF94_ENERGY>  (1) 
3.9625

>  <PUBCHEM_FEATURE_SELFOVERLAP>  (1) 
15.223

>  <PUBCHEM_SHAPE_FINGERPRINT>  (1) 
10912923 1 18060422404284842867
11287383 113 18260551147196562307
117890 112 18334576837147078797
12714333 28 18343302591015120057
13081056 2 18259702281154143348
13167372 99 18340771438144582729
13533116 47 17240757325075297594
14123238 8 17989487420546184727
1420 363 17531252742635682147
14251718 22 18272088331534023263
14251732 16 18336266846748674611
15048467 5 18411981390147618541
15242433 33 18272088313811075574
17834072 33 18273212019295377127
17834076 25 18060137631084335471
20281389 69 18334295340890905333
20605781 2 18409729590528943224
20645477 70 18341051826911298878
20767249 213 18411699906976345841
21130983 4 18411422821519742697
212847 35 18202280303821239856
22896161 15 18338234981432013347
23081809 10 18060697286871700335
23402539 116 17988635286439868095
23402655 69 18273213122943736198
23532345 1 18335704992270370168
23557571 272 16660926560879424975
29717793 49 17917434190058016254
300161 21 18412258471483308358
3545911 37 18334859441910990060
42788 4 18408886222566792035
522135 26 18410294701330929854
5374978 207 18186795877351606232
59345606 91 18411136956896349969
6025842 7 18343868806030078926

>  <PUBCHEM_SHAPE_MULTIPOLES>  (1) 
258.84
16.84
1.49
0.69
16.78
0.17
0.01
4.26
0.13
-3.14
0.01
-0.19
0.02
-0.18

>  <PUBCHEM_SHAPE_SELFOVERLAP>  (1) 
436.247

>  <PUBCHEM_SHAPE_VOLUME>  (1) 
176.4

>  <PUBCHEM_COORDINATE_TYPE>  (1) 
2
5
10

$$$$
