20062
     RDKit          3D

 14 14  0  0  0  0  0  0  0  0999 V2000
   -3.5129   -0.5582   -0.0005 O   0  0  0  0  0  0  0  0  0  0  0  0
    3.5133   -0.5563   -0.0007 O   0  0  0  0  0  0  0  0  0  0  0  0
   -2.4148   -2.4590   -0.0004 O   0  0  0  0  0  0  0  0  0  0  0  0
    2.4163   -2.4577    0.0004 O   0  0  0  0  0  0  0  0  0  0  0  0
   -2.4375   -1.2045    0.0000 N   0  0  0  0  0  0  0  0  0  0  0  0
    2.4382   -1.2032   -0.0001 N   0  0  0  0  0  0  0  0  0  0  0  0
   -0.0013    4.1894   -0.0001 N   0  0  0  0  0  0  0  0  0  0  0  0
   -1.2079   -0.4941    0.0004 C   0  0  0  0  0  0  0  0  0  0  0  0
    1.2082   -0.4935    0.0001 C   0  0  0  0  0  0  0  0  0  0  0  0
    0.0003   -1.1913    0.0003 C   0  0  0  0  0  0  0  0  0  0  0  0
   -1.2082    0.9008    0.0003 C   0  0  0  0  0  0  0  0  0  0  0  0
    1.2076    0.9015    0.0000 C   0  0  0  0  0  0  0  0  0  0  0  0
   -0.0005    1.5986    0.0002 C   0  0  0  0  0  0  0  0  0  0  0  0
   -0.0009    3.0275   -0.0001 C   0  0  0  0  0  0  0  0  0  0  0  0
  1  5  1  0
  2  6  1  0
  3  5  2  0
  4  6  2  0
  5  8  1  0
  6  9  1  0
  7 14  3  0
  8 10  2  0
  8 11  1  0
  9 10  1  0
  9 12  2  0
 11 13  2  0
 12 13  1  0
 13 14  1  0
M  CHG  4   1  -1   2  -1   5   1   6   1
M  END
>  <PUBCHEM_COMPOUND_CID>  (1) 
20062

>  <PUBCHEM_CONFORMER_RMSD>  (1) 
0.6

>  <PUBCHEM_CONFORMER_DIVERSEORDER>  (1) 
1

>  <PUBCHEM_MMFF94_PARTIAL_CHARGES>  (1) 
17
1 -0.52
10 -0.15
11 -0.15
12 -0.15
13 0.07
14 0.48
15 0.15
16 0.15
17 0.15
2 -0.52
3 -0.52
4 -0.52
5 0.91
6 0.91
7 -0.56
8 0.13
9 0.13

>  <PUBCHEM_EFFECTIVE_ROTOR_COUNT>  (1) 
2

>  <PUBCHEM_PHARMACOPHORE_FEATURES>  (1) 
8
1 1 acceptor
1 1 anion
1 2 acceptor
1 2 anion
1 3 acceptor
1 4 acceptor
1 7 acceptor
6 8 9 10 11 12 13 rings

>  <PUBCHEM_HEAVY_ATOM_COUNT>  (1) 
14

>  <PUBCHEM_ATOM_DEF_STEREO_COUNT>  (1) 
0

>  <PUBCHEM_ATOM_UDEF_STEREO_COUNT>  (1) 
0

>  <PUBCHEM_BOND_DEF_STEREO_COUNT>  (1) 
0

>  <PUBCHEM_BOND_UDEF_STEREO_COUNT>  (1) 
0

>  <PUBCHEM_ISOTOPIC_ATOM_COUNT>  (1) 
0

>  <PUBCHEM_COMPONENT_COUNT>  (1) 
1

>  <PUBCHEM_CACTVS_TAUTO_COUNT>  (1) 
1

>  <PUBCHEM_CONFORMER_ID>  (1) 
00004E5E00000001

>  <PUBCHEM_MMFF94_ENERGY>  (1) 
39.1435

>  <PUBCHEM_FEATURE_SELFOVERLAP>  (1) 
40.762

>  <PUBCHEM_SHAPE_FINGERPRINT>  (1) 
1 1 17689436404863150605
10967382 1 18410575131928844167
13380535 76 16894272387373941609
14648413 74 18192429903712667171
15490181 7 17331411869759114811
15490181 8 17331387079207901778
16945 1 18410855455838573190
17990270 104 18193552496268091843
19021347 4 17401767419565370809
193761 8 18410575080389886212
20510252 161 17910668766005257016
20645476 183 17253744588987525526
20645477 70 17831848419975272663
20711985 365 18049722923522798518
20871998 184 18129095615522321598
21524375 3 17035859828414121792
2334 1 18410575119023025165
23530152 11 17185878835389980182
23552423 10 18051977214586125647
241688 4 18410576154110137425
2748010 2 18340476829004594620
3071541 12 18122912198472424461
3071541 158 18261389009263860797
3091708 16 9283010097343611545
7364860 26 18123189275344387377
81228 2 18191591852160691552

>  <PUBCHEM_SHAPE_MULTIPOLES>  (1) 
249.69
3.93
3.84
0.57
0.01
4.26
0
-3.62
0
-0.01
0
0
0.04
0

>  <PUBCHEM_SHAPE_SELFOVERLAP>  (1) 
530.261

>  <PUBCHEM_SHAPE_VOLUME>  (1) 
138.4

>  <PUBCHEM_COORDINATE_TYPE>  (1) 
2
5
10

$$$$
