20060
     RDKit          3D

 22 23  0  0  1  0  0  0  0  0999 V2000
    1.7425   -0.0211   -0.6591 N   0  0  0  0  0  0  0  0  0  0  0  0
   -1.7479   -0.0266    0.6405 N   0  0  0  0  0  0  0  0  0  0  0  0
    3.0560   -0.0194   -0.0083 C   0  0  0  0  0  0  0  0  0  0  0  0
   -3.0553   -0.0213    0.0003 C   0  0  0  0  0  0  0  0  0  0  0  0
    0.6802   -0.0124    0.3327 C   0  0  0  0  0  0  0  0  0  0  0  0
   -0.6817   -0.0174   -0.3552 C   0  0  0  0  0  0  0  0  0  0  0  0
    4.1605   -0.0957   -1.0781 C   0  0  0  0  0  0  0  0  0  0  0  0
   -4.1548   -0.1016    1.0750 C   0  0  0  0  0  0  0  0  0  0  0  0
    3.1631    1.2375    0.8555 C   0  0  0  0  0  0  0  0  0  0  0  0
   -3.1657    1.2393   -0.8575 C   0  0  0  0  0  0  0  0  0  0  0  0
    5.5563   -0.1401   -0.5042 C   0  0  0  0  0  0  0  0  0  0  0  0
   -5.5534   -0.1425    0.5074 C   0  0  0  0  0  0  0  0  0  0  0  0
    6.2356    1.0465   -0.2782 C   0  0  0  0  0  0  0  0  0  0  0  0
   -6.2329    1.0455    0.2898 C   0  0  0  0  0  0  0  0  0  0  0  0
    6.1324   -1.3665   -0.2133 C   0  0  0  0  0  0  0  0  0  0  0  0
   -6.1317   -1.3673    0.2139 C   0  0  0  0  0  0  0  0  0  0  0  0
    7.5250    1.0057    0.2522 C   0  0  0  0  0  0  0  0  0  0  0  0
   -7.5248    1.0078   -0.2348 C   0  0  0  0  0  0  0  0  0  0  0  0
    7.4218   -1.4071    0.3173 C   0  0  0  0  0  0  0  0  0  0  0  0
   -7.4236   -1.4049   -0.3108 C   0  0  0  0  0  0  0  0  0  0  0  0
    8.1181   -0.2210    0.5500 C   0  0  0  0  0  0  0  0  0  0  0  0
   -8.1201   -0.2172   -0.5351 C   0  0  0  0  0  0  0  0  0  0  0  0
  1  3  1  0
  1  5  1  0
  2  4  1  0
  2  6  1  0
  3  7  1  0
  3  9  1  0
  4  8  1  0
  4 10  1  0
  5  6  1  0
  7 11  1  0
  8 12  1  0
 11 13  2  0
 11 15  1  0
 12 14  2  0
 12 16  1  0
 13 17  1  0
 14 18  1  0
 15 19  2  0
 16 20  2  0
 17 21  2  0
 18 22  2  0
 19 21  1  0
 20 22  1  0
M  END
>  <PUBCHEM_COMPOUND_CID>  (1) 
20060

>  <PUBCHEM_CONFORMER_RMSD>  (1) 
0.8

>  <PUBCHEM_CONFORMER_DIVERSEORDER>  (1) 
3
179
195
383
34
160
19
277
45
363
136
1
57
217
115
110
276
373
18
91
318
200
134
222
299
147
247
106
329
202
380
146
164
93
325
95
233
59
30
65
293
48
71
219
35
186
275
105
73
13
303
256
259
5
191
315
127
395
386
197
323
400
218
235
284
295
213
72
415
294
198
43
185
240
346
307
151
97
75
316
319
367
90
178
62
192
353
249
341
297
350
262
182
359
207
120
104
229
53
321
2
101
317
141
272
351
361
10
84
152
133
334
17
166
348
305
282
78
342
236
384
94
326
394
114
385
56
32
74
113
332
410
215
190
31
148
49
375
98
301
254
58
237
374
285
364
143
252
356
266
372
228
157
203
138
255
354
20
232
302
154
265
246
37
399
130
7
223
371
22
212
227
253
389
369
327
125
379
25
52
310
264
139
376
298
413
118
226
378
206
331
345
193
271
128
33
8
80
405
362
177
16
221
123
289
23
248
6
273
244
156
313
42
360
199
38
349
283
357
403
242
11
324
338
288
50
370
417
26
9
55
337
278
196
111
76
15
208
312
153
121
149
411
296
304
163
137
406
401
320
167
116
189
314
339
251
96
131
392
286
184
68
269
109
408
404
124
330
176
214
175
27
162
168
347
268
210
280
88
187
63
358
387
135
66
64
150
308
92
300
81
366
402
209
60
344
28
418
239
140
41
340
69
159
355
397
220
279
260
336
194
169
224
343
292
29
173
231
322
291
107
117
382
335
144
119
211
85
122
142
238
311
47
419
333
263
155
381
309
174
181
396
241
234
14
257
270
102
204
261
416
100
39
12
44
205
99
245
24
365
388
86
170
267
40
70
306
407
161
171
287
129
250
281
183
172
243
188
145
230
61
79
201
77
274
352
412
258
51
368
112
103
89
391
4
46
225
54
216
398
83
409
36
67
87
126
393
21
108
414
158
377
390
328
132
165
180
290
82

>  <PUBCHEM_MMFF94_PARTIAL_CHARGES>  (1) 
32
1 -0.9
11 -0.14
12 -0.14
13 -0.15
14 -0.15
15 -0.15
16 -0.15
17 -0.15
18 -0.15
19 -0.15
2 -0.9
20 -0.15
21 -0.15
22 -0.15
3 0.27
33 0.36
34 0.36
4 0.27
41 0.15
42 0.15
43 0.15
44 0.15
45 0.15
46 0.15
47 0.15
48 0.15
49 0.15
5 0.27
50 0.15
6 0.27
7 0.14
8 0.14

>  <PUBCHEM_EFFECTIVE_ROTOR_COUNT>  (1) 
9

>  <PUBCHEM_PHARMACOPHORE_FEATURES>  (1) 
6
1 1 cation
1 1 donor
1 2 cation
1 2 donor
6 11 13 15 17 19 21 rings
6 12 14 16 18 20 22 rings

>  <PUBCHEM_HEAVY_ATOM_COUNT>  (1) 
22

>  <PUBCHEM_ATOM_DEF_STEREO_COUNT>  (1) 
0

>  <PUBCHEM_ATOM_UDEF_STEREO_COUNT>  (1) 
2

>  <PUBCHEM_BOND_DEF_STEREO_COUNT>  (1) 
0

>  <PUBCHEM_BOND_UDEF_STEREO_COUNT>  (1) 
0

>  <PUBCHEM_ISOTOPIC_ATOM_COUNT>  (1) 
0

>  <PUBCHEM_COMPONENT_COUNT>  (1) 
1

>  <PUBCHEM_CACTVS_TAUTO_COUNT>  (1) 
1

>  <PUBCHEM_CONFORMER_ID>  (1) 
00004E5C00000003

>  <PUBCHEM_MMFF94_ENERGY>  (1) 
41.0606

>  <PUBCHEM_FEATURE_SELFOVERLAP>  (1) 
30.447

>  <PUBCHEM_SHAPE_FINGERPRINT>  (1) 
10 15 17561363989147911142
10066227 49 18270684156154043422
10162869 55 16773787117634650397
10299344 5 18410575084663260810
11135926 11 16805321090013694931
11315181 36 17988647402822159081
11638347 137 15482395270958015518
11719270 70 17989208131692666622
12082328 90 18343582915737018245
12091667 2 18187368731989988697
13533116 47 16443333261408632865
13835254 42 14692027808382995498
13885169 127 18335983091118059877
14118638 360 15719662169758236720
14123256 10 16950281806303615489
14170010 4 17561361808016876416
14251764 18 16773799194776315482
14251764 46 18410575088958065699
14428016 248 11599720705736400834
15183329 4 15647052663859010537
15716309 27 18413670214274800855
15840311 113 18272372014889477764
16120349 18 18411979204853524000
17093844 174 18407762539237588297
20621476 8 16443344265193718943
21150785 3 17489869336642138217
21315759 40 18410579487004732704
21315763 28 18410575088958384005
220451 1 8934718851253855449
22224240 67 18410855469103595126
23559900 14 17241335810089146565
249057 25 18338814363065801988
249057 3 15697993063312196781
28498 318 15140957349130770178
33684 2 18186801379473542683
4073 2 18115874160461490698
4325135 7 17748825211715444935
4339292 15 17131259273770399479
5283156 175 14923939038306646056
59682541 35 17131827681920209194
67123 10 18342738533039030260
8209 1 18410575088958052708

>  <PUBCHEM_SHAPE_MULTIPOLES>  (1) 
442.79
30.76
1.31
0.9
0.01
0.12
0
3.69
-0.11
0
0
0.01
-0.06
0.17

>  <PUBCHEM_SHAPE_SELFOVERLAP>  (1) 
906.916

>  <PUBCHEM_SHAPE_VOLUME>  (1) 
254.7

>  <PUBCHEM_COORDINATE_TYPE>  (1) 
2
5
10

$$$$
