20085
     RDKit          3D

 18 19  0  0  0  0  0  0  0  0999 V2000
    5.0366   -1.6525    0.0645 O   0  0  0  0  0  0  0  0  0  0  0  0
    4.2899    0.5828    0.1304 N   0  0  0  0  0  0  0  0  0  0  0  0
   -1.2280    0.1603   -0.6104 N   0  0  0  0  0  0  0  0  0  0  0  0
   -1.8011    0.0443    0.4984 N   0  0  0  0  0  0  0  0  0  0  0  0
    2.9113    0.4770   -0.0559 C   0  0  0  0  0  0  0  0  0  0  0  0
    0.1610    0.2668   -0.4247 C   0  0  0  0  0  0  0  0  0  0  0  0
    2.3236   -0.7771   -0.2217 C   0  0  0  0  0  0  0  0  0  0  0  0
    2.1204    1.6257   -0.0751 C   0  0  0  0  0  0  0  0  0  0  0  0
    0.9450   -0.8825   -0.4066 C   0  0  0  0  0  0  0  0  0  0  0  0
    0.7418    1.5205   -0.2599 C   0  0  0  0  0  0  0  0  0  0  0  0
   -3.1831   -0.0615    0.3142 C   0  0  0  0  0  0  0  0  0  0  0  0
    5.2380   -0.4479    0.1798 C   0  0  0  0  0  0  0  0  0  0  0  0
   -3.7707   -1.3157    0.1491 C   0  0  0  0  0  0  0  0  0  0  0  0
   -3.9740    1.0872    0.2955 C   0  0  0  0  0  0  0  0  0  0  0  0
   -5.1494   -1.4212   -0.0347 C   0  0  0  0  0  0  0  0  0  0  0  0
   -5.3527    0.9818    0.1117 C   0  0  0  0  0  0  0  0  0  0  0  0
   -5.9404   -0.2725   -0.0534 C   0  0  0  0  0  0  0  0  0  0  0  0
    6.6319    0.0845    0.3986 C   0  0  0  0  0  0  0  0  0  0  0  0
  1 12  2  0
  2  5  1  0
  2 12  1  0
  3  4  2  0
  3  6  1  0
  4 11  1  0
  5  7  2  0
  5  8  1  0
  6  9  2  0
  6 10  1  0
  7  9  1  0
  8 10  2  0
 11 13  2  0
 11 14  1  0
 12 18  1  0
 13 15  1  0
 14 16  2  0
 15 17  2  0
 16 17  1  0
M  END
>  <PUBCHEM_COMPOUND_CID>  (1) 
20085

>  <PUBCHEM_CONFORMER_RMSD>  (1) 
0.6

>  <PUBCHEM_CONFORMER_DIVERSEORDER>  (1) 
1
5
3
7
4
6
2

>  <PUBCHEM_MMFF94_PARTIAL_CHARGES>  (1) 
28
1 -0.57
10 -0.15
11 0.18
12 0.57
13 -0.15
14 -0.15
15 -0.15
16 -0.15
17 -0.15
18 0.06
19 0.15
2 -0.55
20 0.15
21 0.15
22 0.15
23 0.37
24 0.15
25 0.15
26 0.15
27 0.15
28 0.15
3 -0.18
4 -0.18
5 0.12
6 0.18
7 -0.15
8 -0.15
9 -0.15

>  <PUBCHEM_EFFECTIVE_ROTOR_COUNT>  (1) 
4

>  <PUBCHEM_PHARMACOPHORE_FEATURES>  (1) 
4
1 1 acceptor
1 2 donor
6 11 13 14 15 16 17 rings
6 5 6 7 8 9 10 rings

>  <PUBCHEM_HEAVY_ATOM_COUNT>  (1) 
18

>  <PUBCHEM_ATOM_DEF_STEREO_COUNT>  (1) 
0

>  <PUBCHEM_ATOM_UDEF_STEREO_COUNT>  (1) 
0

>  <PUBCHEM_BOND_DEF_STEREO_COUNT>  (1) 
0

>  <PUBCHEM_BOND_UDEF_STEREO_COUNT>  (1) 
0

>  <PUBCHEM_ISOTOPIC_ATOM_COUNT>  (1) 
0

>  <PUBCHEM_COMPONENT_COUNT>  (1) 
1

>  <PUBCHEM_CACTVS_TAUTO_COUNT>  (1) 
3

>  <PUBCHEM_CONFORMER_ID>  (1) 
00004E7500000001

>  <PUBCHEM_MMFF94_ENERGY>  (1) 
51.9117

>  <PUBCHEM_FEATURE_SELFOVERLAP>  (1) 
20.297

>  <PUBCHEM_SHAPE_FINGERPRINT>  (1) 
10 15 18130495423564900328
106641 1 18201151152972313962
11089746 13 17417804050207318745
11315181 36 18412546531161913601
11796584 16 17095244730724393882
12091667 2 17095241415136065789
12107183 9 17690562983627767793
12236239 1 18131913758255380983
12507557 5 18131353024937958705
12516196 113 18412261735890756904
12596602 18 17918274251385966730
12670543 26 7997696419749207992
13167823 11 18409447020588857651
13288520 33 18334858329530200189
13533116 47 13901919865070104468
13862211 1 18334292059398585362
14251764 18 18409168835124449108
14251764 46 17168144546590306667
15196674 1 18410576223045885069
15788980 27 18260270758820047755
17492 89 17900266609050152859
17834072 33 18411139168509127925
17834076 25 15430035456846743346
19489759 90 18343301466387634545
200 152 18273495684974362553
21033648 29 16844995824012651489
21267235 1 18409174333188918755
21709351 56 18408598184706129805
22224240 67 17775277284137226526
23035841 295 12468354652459732056
23402539 116 18409726266546003189
23536379 177 18410575076099602824
23559900 14 18410849997515590393
23622692 88 16845570937603793132
26918003 58 18342459253180913641
2916195 48 11671780459652124739
3004659 81 18113622283612193630
351380 180 18410293631546333225
3545911 37 18412827980400364865
4073 2 17968663833740802050
4214541 1 18410576180623739285
42788 4 18411700988864960304
4340502 62 14764630811364014652
4463277 17 18409449194000552052
465052 167 18410014338640122102
5104073 3 18341338898108661801
542803 24 17240486913849665381
559249 180 18408882932674805251
67856867 119 18341050834362429153
7495541 125 16987997331616854923
9709674 26 18339934796270255943
9971528 1 17967813894083581677

>  <PUBCHEM_SHAPE_MULTIPOLES>  (1) 
349.62
15.75
1.48
0.68
3.34
0.02
-0.01
-2.85
2.02
-0.2
-0.03
-0.01
0.01
-0.11

>  <PUBCHEM_SHAPE_SELFOVERLAP>  (1) 
745.128

>  <PUBCHEM_SHAPE_VOLUME>  (1) 
193.6

>  <PUBCHEM_COORDINATE_TYPE>  (1) 
2
5
10

$$$$
