20099
     RDKit          3D

 27 30  0  0  1  0  0  0  0  0999 V2000
   -4.5358    1.3490    0.5751 O   0  0  0  0  0  0  0  0  0  0  0  0
    6.0693   -0.2284   -0.6373 O   0  0  0  0  0  0  0  0  0  0  0  0
    6.0579   -0.9269    1.5970 O   0  0  0  0  0  0  0  0  0  0  0  0
   -2.3592    0.2002    0.7003 C   0  0  0  0  0  0  0  0  0  0  0  0
   -1.7806    1.1820   -0.3546 C   0  0  0  0  0  0  0  0  0  0  0  0
   -0.2476    1.1953   -0.5441 C   0  0  0  0  0  0  0  0  0  0  0  0
   -3.8572    0.1263    0.2538 C   0  0  0  0  0  0  0  0  0  0  0  0
   -2.5092    0.8070   -1.6649 C   0  0  0  0  0  0  0  0  0  0  0  0
    0.3773   -0.2192   -0.5625 C   0  0  0  0  0  0  0  0  0  0  0  0
   -1.6556   -1.1762    0.6178 C   0  0  0  0  0  0  0  0  0  0  0  0
   -3.7874    0.0611   -1.2756 C   0  0  0  0  0  0  0  0  0  0  0  0
   -0.1307   -1.0861    0.6021 C   0  0  0  0  0  0  0  0  0  0  0  0
    0.4621    2.0773    0.4953 C   0  0  0  0  0  0  0  0  0  0  0  0
   -2.2367    0.7541    2.1335 C   0  0  0  0  0  0  0  0  0  0  0  0
   -4.6774   -1.0248    0.8325 C   0  0  0  0  0  0  0  0  0  0  0  0
    1.8983   -0.1867   -0.5785 C   0  0  0  0  0  0  0  0  0  0  0  0
    1.9316    2.2600    0.1246 C   0  0  0  0  0  0  0  0  0  0  0  0
    2.6213    0.9668   -0.2228 C   0  0  0  0  0  0  0  0  0  0  0  0
    2.6038   -1.3452   -0.9498 C   0  0  0  0  0  0  0  0  0  0  0  0
   -6.0523   -0.9961    0.3271 C   0  0  0  0  0  0  0  0  0  0  0  0
    4.0251    0.9404   -0.2529 C   0  0  0  0  0  0  0  0  0  0  0  0
    3.9980   -1.3613   -0.9664 C   0  0  0  0  0  0  0  0  0  0  0  0
    4.7089   -0.2184   -0.6169 C   0  0  0  0  0  0  0  0  0  0  0  0
   -7.1813   -0.9796   -0.0822 C   0  0  0  0  0  0  0  0  0  0  0  0
   -8.5557   -0.9589   -0.5804 C   0  0  0  0  0  0  0  0  0  0  0  0
    6.6592   -0.6164    0.5771 C   0  0  0  0  0  0  0  0  0  0  0  0
    8.1538   -0.5955    0.4527 C   0  0  0  0  0  0  0  0  0  0  0  0
  1  7  1  0
  2 23  1  0
  2 26  1  0
  3 26  2  0
  4  5  1  0
  4  7  1  0
  4 10  1  0
  4 14  1  0
  5  6  1  0
  5  8  1  0
  6  9  1  0
  6 13  1  0
  7 11  1  0
  7 15  1  0
  8 11  1  0
  9 12  1  0
  9 16  1  0
 10 12  1  0
 13 17  1  0
 15 20  1  0
 16 18  2  0
 16 19  1  0
 17 18  1  0
 18 21  1  0
 19 22  2  0
 20 24  3  0
 21 23  2  0
 22 23  1  0
 24 25  1  0
 26 27  1  0
M  END
>  <PUBCHEM_COMPOUND_CID>  (1) 
20099

>  <PUBCHEM_CONFORMER_RMSD>  (1) 
0.8

>  <PUBCHEM_CONFORMER_DIVERSEORDER>  (1) 
1
228
258
46
122
27
167
301
108
146
73
161
241
106
322
320
267
284
19
78
250
111
219
103
315
57
5
171
25
44
136
238
176
54
234
32
302
91
243
289
93
66
259
279
227
119
187
13
71
214
205
283
98
172
292
213
251
168
188
202
277
211
278
158
151
212
139
135
100
99
163
261
197
247
68
232
3
62
47
329
190
140
274
224
321
173
192
41
174
199
95
296
257
166
20
275
56
159
305
60
23
183
147
310
318
34
231
45
291
252
96
134
248
325
36
120
244
104
254
300
157
43
204
75
144
181
53
253
67
286
207
72
130
237
178
208
270
311
222
189
112
239
226
160
299
39
246
194
152
221
303
85
55
51
319
242
262
327
48
217
132
288
323
50
229
230
177
328
312
38
235
125
220
191
133
9
79
22
307
309
114
198
126
115
84
195
209
185
143
18
117
156
206
265
35
76
109
15
271
295
169
290
182
87
297
263
40
306
127
240
107
233
49
298
153
324
121
37
236
280
293
17
223
150
268
330
196
42
200
16
193
165
145
225
272
264
245
110
131
14
129
138
255
148
69
101
266
314
215
74
186
316
179
82
175
149
218
31
83
59
210
88
90
97
137
155
52
123
86
273
58
89
326
102
65
30
216
313
64
4
154
285
142
21
276
81
8
124
29
180
26
170
113
33
63
105
80
308
304
11
249
116
94
77
12
141
201
162
6
269
294
260
24
184
7
203
317
118
92
10
287
128
70
164
282
256
281
28
61
2

>  <PUBCHEM_MMFF94_PARTIAL_CHARGES>  (1) 
22
1 -0.68
15 0.2
16 -0.14
17 0.14
18 -0.14
19 -0.15
2 -0.23
20 -0.2
21 -0.15
22 -0.15
23 0.08
24 -0.2
25 0.2
26 0.66
27 0.06
3 -0.57
48 0.4
49 0.15
50 0.15
51 0.15
7 0.28
9 0.14

>  <PUBCHEM_EFFECTIVE_ROTOR_COUNT>  (1) 
4.4

>  <PUBCHEM_PHARMACOPHORE_FEATURES>  (1) 
8
1 1 acceptor
1 1 donor
1 25 hydrophobe
1 3 acceptor
5 4 5 7 8 11 rings
6 16 18 19 21 22 23 rings
6 4 5 6 9 10 12 rings
6 6 9 13 16 17 18 rings

>  <PUBCHEM_HEAVY_ATOM_COUNT>  (1) 
27

>  <PUBCHEM_ATOM_DEF_STEREO_COUNT>  (1) 
0

>  <PUBCHEM_ATOM_UDEF_STEREO_COUNT>  (1) 
5

>  <PUBCHEM_BOND_DEF_STEREO_COUNT>  (1) 
0

>  <PUBCHEM_BOND_UDEF_STEREO_COUNT>  (1) 
0

>  <PUBCHEM_ISOTOPIC_ATOM_COUNT>  (1) 
0

>  <PUBCHEM_COMPONENT_COUNT>  (1) 
1

>  <PUBCHEM_CACTVS_TAUTO_COUNT>  (1) 
1

>  <PUBCHEM_CONFORMER_ID>  (1) 
00004E8300000001

>  <PUBCHEM_MMFF94_ENERGY>  (1) 
89.3675

>  <PUBCHEM_FEATURE_SELFOVERLAP>  (1) 
40.822

>  <PUBCHEM_SHAPE_FINGERPRINT>  (1) 
10 15 12751241411265283151
106641 1 16774076293213188298
10670039 82 15792003455587716229
11135609 99 18129662049496567271
11315181 36 14201408178715940502
11646440 116 18131917061665454866
11796584 16 16950286187719046682
12011746 2 17530965813213886305
12166972 35 17821451274639822508
12236239 1 17561091310791749609
12516196 113 18202004317876225136
12741549 16 18260542320992251668
13073987 5 17774729645372924266
13533116 47 18059581333756012361
13685833 64 18411139151403092144
13782708 43 18040158434838822602
13862211 1 18335140894822053026
13914758 101 15213010532031699879
14251764 18 18408327696229296996
14849402 71 16988268907258763384
15183329 4 14345791635250603872
15788980 27 16877665647843153668
15840311 113 13542458800591744482
15849732 13 17060622200729877029
17349148 13 18413108355791737620
17980427 23 13830120715582648505
19489759 90 16732985310131238044
200 152 18060422399868458581
20028762 73 18059860588398616551
21130935 74 18201160932418421234
21267235 1 18271813406530112916
221357 26 18410013247718428973
22224240 67 16773797004433062087
23198884 109 15213019353672739255
23402539 116 18341331111222313596
23522609 53 17970943039857698724
23559900 14 16443636821117741677
29717793 49 15068344514516234870
3004659 81 18113624487004425484
335352 9 18335704974320406830
3383291 50 18411140255178864179
34797466 226 14692574329944129296
3633792 109 15068613864652354851
4325135 7 18272370884468774415
4340502 62 15410900656368489828
439807 62 17821726130639205019
5104073 3 17844533197866896906
542803 24 13039184788901143414
58260988 393 15841562837997202250
59682541 35 17632291315508551914
59682541 52 14634868618292067034
59755656 215 17894628158867235923
59755656 520 14201396123312765155
6086070 43 18041544880943276565
7495541 125 18260275182763184172

>  <PUBCHEM_SHAPE_MULTIPOLES>  (1) 
538.04
19.31
1.69
1.29
0.13
0.6
0.2
-9.46
1.22
0.21
0.08
-0.26
0.03
-0.09

>  <PUBCHEM_SHAPE_SELFOVERLAP>  (1) 
1153.133

>  <PUBCHEM_SHAPE_VOLUME>  (1) 
294

>  <PUBCHEM_COORDINATE_TYPE>  (1) 
2
5
10

$$$$
