2009
     RDKit          3D

 15 14  0  0  1  0  0  0  0  0999 V2000
    0.4013    0.3520    0.1878 O   0  0  0  0  0  0  0  0  0  0  0  0
   -3.0753   -0.5148    0.0026 O   0  0  0  0  0  0  0  0  0  0  0  0
   -0.6561   -1.6395   -0.2971 O   0  0  0  0  0  0  0  0  0  0  0  0
   -4.5276    1.2260    0.4473 O   0  0  0  0  0  0  0  0  0  0  0  0
    4.1200    0.0792    0.0378 N   0  0  0  0  0  0  0  0  0  0  0  0
    2.7685    0.7430    0.2588 C   0  0  0  0  0  0  0  0  0  0  0  0
    4.1928   -0.4629   -1.3824 C   0  0  0  0  0  0  0  0  0  0  0  0
    5.2276    1.1017    0.2480 C   0  0  0  0  0  0  0  0  0  0  0  0
    4.2914   -1.0647    1.0268 C   0  0  0  0  0  0  0  0  0  0  0  0
    1.6676   -0.2710    0.0182 C   0  0  0  0  0  0  0  0  0  0  0  0
   -0.6914   -0.4522   -0.0005 C   0  0  0  0  0  0  0  0  0  0  0  0
   -1.9641    0.3497    0.1816 C   0  0  0  0  0  0  0  0  0  0  0  0
   -2.0661    1.4675   -0.8414 C   0  0  0  0  0  0  0  0  0  0  0  0
   -4.3087    0.0556    0.1655 C   0  0  0  0  0  0  0  0  0  0  0  0
   -5.3798   -0.9695   -0.0530 C   0  0  0  0  0  0  0  0  0  0  0  0
  1 10  1  0
  1 11  1  0
  2 12  1  0
  2 14  1  0
  3 11  2  0
  4 14  2  0
  5  6  1  0
  5  7  1  0
  5  8  1  0
  5  9  1  0
  6 10  1  0
 11 12  1  0
 12 13  1  0
 14 15  1  0
M  CHG  1   5   1
M  END
>  <PUBCHEM_COMPOUND_CID>  (1) 
2009

>  <PUBCHEM_CONFORMER_RMSD>  (1) 
0.8

>  <PUBCHEM_CONFORMER_DIVERSEORDER>  (1) 
2
162
171
155
64
39
28
145
161
71
121
18
85
167
1
105
133
138
120
9
8
21
33
14
169
136
125
150
113
44
68
158
80
48
38
24
166
129
74
119
95
164
65
89
62
45
66
117
17
132
152
170
26
11
16
172
84
41
96
27
100
32
46
67
70
10
52
73
72
156
23
49
99
61
97
144
13
127
118
47
43
141
82
168
75
159
91
58
57
12
163
69
148
15
140
87
98
31
51
102
123
36
165
160
149
4
126
59
35
104
116
92
20
37
157
142
55
22
79
63
53
112
93
174
90
154
19
135
122
42
147
131
78
143
94
60
110
29
128
30
6
108
7
151
146
76
173
83
3
106
77
5
40
114
111
54
81
101
139
34
56
25
124
130
115
103
153
86
109
50
137
107
88
134

>  <PUBCHEM_MMFF94_PARTIAL_CHARGES>  (1) 
14
1 -0.43
10 0.28
11 0.66
12 0.34
14 0.66
15 0.06
2 -0.43
3 -0.57
4 -0.57
5 -1.01
6 0.5
7 0.5
8 0.5
9 0.5

>  <PUBCHEM_EFFECTIVE_ROTOR_COUNT>  (1) 
7

>  <PUBCHEM_PHARMACOPHORE_FEATURES>  (1) 
3
1 3 acceptor
1 4 acceptor
1 5 cation

>  <PUBCHEM_HEAVY_ATOM_COUNT>  (1) 
15

>  <PUBCHEM_ATOM_DEF_STEREO_COUNT>  (1) 
0

>  <PUBCHEM_ATOM_UDEF_STEREO_COUNT>  (1) 
1

>  <PUBCHEM_BOND_DEF_STEREO_COUNT>  (1) 
0

>  <PUBCHEM_BOND_UDEF_STEREO_COUNT>  (1) 
0

>  <PUBCHEM_ISOTOPIC_ATOM_COUNT>  (1) 
0

>  <PUBCHEM_COMPONENT_COUNT>  (1) 
1

>  <PUBCHEM_CACTVS_TAUTO_COUNT>  (1) 
1

>  <PUBCHEM_CONFORMER_ID>  (1) 
000007D900000002

>  <PUBCHEM_MMFF94_ENERGY>  (1) 
36.7426

>  <PUBCHEM_FEATURE_SELFOVERLAP>  (1) 
15.223

>  <PUBCHEM_SHAPE_FINGERPRINT>  (1) 
10912923 1 18335421261649748361
11287383 113 18130790087489338530
12815109 37 8286202742621665483
12916748 109 18343306963397199160
13081056 2 18411418406161402636
13533116 47 17676480610603730962
13675066 3 16988841670251956393
13862211 1 18410006659143742135
14123238 8 18411981377383743624
1420 363 18336271219136255715
14251718 22 18272089434892192922
17834072 33 16081658866895628711
17834076 25 17203328927432590568
20279233 1 18060426832976354062
20281389 69 18187645752812034129
20645477 56 18341609356425763536
20645477 70 17489317347973057038
23402539 116 18273207599742498101
23557571 272 18270130023514734213
23559900 14 17989211443380963734
265663 24 18113334202279696451
2916195 48 18131061662714469712
3545911 37 18343021121166742024
366044 4 18413388752278229691
42 15 18113334185300196314
42788 4 18342458149079010368
4990 188 17988648479825300206
522135 26 17822010900483384178
5374978 207 18334851719517691520
542803 24 17775286066749079024
69090 78 18273210919551900734

>  <PUBCHEM_SHAPE_MULTIPOLES>  (1) 
280.23
12.66
1.31
0.88
0.66
0.05
0.17
0.02
-0.76
0.24
0.03
-0.78
-0.05
-0.05

>  <PUBCHEM_SHAPE_SELFOVERLAP>  (1) 
530.827

>  <PUBCHEM_SHAPE_VOLUME>  (1) 
174.9

>  <PUBCHEM_COORDINATE_TYPE>  (1) 
2
5
10

$$$$
