20106
     RDKit          3D

 16 16  0  0  0  0  0  0  0  0999 V2000
   -3.5060    0.0464   -1.4654 Cl  0  0  0  0  0  0  0  0  0  0  0  0
   -2.7911   -2.3246    0.0091 Cl  0  0  0  0  0  0  0  0  0  0  0  0
   -3.5038    0.0651    1.4612 Cl  0  0  0  0  0  0  0  0  0  0  0  0
    3.1813   -1.1233    1.4632 Cl  0  0  0  0  0  0  0  0  0  0  0  0
    1.6972   -3.1136   -0.0007 Cl  0  0  0  0  0  0  0  0  0  0  0  0
    3.1788   -1.1155   -1.4635 Cl  0  0  0  0  0  0  0  0  0  0  0  0
   -0.2333   -0.9349    0.0013 N   0  0  0  0  0  0  0  0  0  0  0  0
    1.3082    0.9040   -0.0032 N   0  0  0  0  0  0  0  0  0  0  0  0
   -1.0551    1.3195   -0.0022 N   0  0  0  0  0  0  0  0  0  0  0  0
   -1.2107   -0.0142    0.0005 C   0  0  0  0  0  0  0  0  0  0  0  0
    0.9996   -0.4028   -0.0004 C   0  0  0  0  0  0  0  0  0  0  0  0
    0.2309    1.7057   -0.0038 C   0  0  0  0  0  0  0  0  0  0  0  0
   -2.6115   -0.5250    0.0014 C   0  0  0  0  0  0  0  0  0  0  0  0
    2.1421   -1.3606   -0.0005 C   0  0  0  0  0  0  0  0  0  0  0  0
    0.4823    3.1362   -0.0077 C   0  0  0  0  0  0  0  0  0  0  0  0
    1.6910    3.7376    0.0108 C   0  0  0  0  0  0  0  0  0  0  0  0
  1 13  1  0
  2 13  1  0
  3 13  1  0
  4 14  1  0
  5 14  1  0
  6 14  1  0
  7 10  2  0
  7 11  1  0
  8 11  2  0
  8 12  1  0
  9 10  1  0
  9 12  2  0
 10 13  1  0
 11 14  1  0
 12 15  1  0
 15 16  2  0
M  END
>  <PUBCHEM_COMPOUND_CID>  (1) 
20106

>  <PUBCHEM_CONFORMER_RMSD>  (1) 
0.6

>  <PUBCHEM_CONFORMER_DIVERSEORDER>  (1) 
1
3
2

>  <PUBCHEM_MMFF94_PARTIAL_CHARGES>  (1) 
19
1 -0.29
10 0.48
11 0.48
12 0.65
13 1.01
14 1.01
15 -0.18
16 -0.3
17 0.15
18 0.15
19 0.15
2 -0.29
3 -0.29
4 -0.29
5 -0.29
6 -0.29
7 -0.62
8 -0.62
9 -0.62

>  <PUBCHEM_EFFECTIVE_ROTOR_COUNT>  (1) 
3

>  <PUBCHEM_PHARMACOPHORE_FEATURES>  (1) 
5
1 16 hydrophobe
3 7 8 11 cation
3 7 9 10 cation
3 8 9 12 cation
6 7 8 9 10 11 12 rings

>  <PUBCHEM_HEAVY_ATOM_COUNT>  (1) 
16

>  <PUBCHEM_ATOM_DEF_STEREO_COUNT>  (1) 
0

>  <PUBCHEM_ATOM_UDEF_STEREO_COUNT>  (1) 
0

>  <PUBCHEM_BOND_DEF_STEREO_COUNT>  (1) 
0

>  <PUBCHEM_BOND_UDEF_STEREO_COUNT>  (1) 
0

>  <PUBCHEM_ISOTOPIC_ATOM_COUNT>  (1) 
0

>  <PUBCHEM_COMPONENT_COUNT>  (1) 
1

>  <PUBCHEM_CACTVS_TAUTO_COUNT>  (1) 
1

>  <PUBCHEM_CONFORMER_ID>  (1) 
00004E8A00000001

>  <PUBCHEM_MMFF94_ENERGY>  (1) 
28.0899

>  <PUBCHEM_FEATURE_SELFOVERLAP>  (1) 
28.144

>  <PUBCHEM_SHAPE_FINGERPRINT>  (1) 
11578080 2 17459446966445679972
12553582 1 18339085886655535151
12707595 3 18407761430271206719
12759256 9 18411131480601953609
12932764 1 18040718103875007875
13140716 1 18337955722041132483
13380535 76 17547011187718373308
14022347 108 18193575375464081459
14022349 108 18265886042276833936
14178342 30 18343579655335147035
14181834 199 18264474264545081612
14289901 80 15769478885655541003
14648413 74 18263352737310409337
15490181 7 17687464980672602196
15490181 8 17836648900167361480
16945 1 18410573955245098023
193761 8 17618223244735653126
19591789 44 17832710445358896064
20510252 161 17549531912809691424
20600515 1 18341320107262621160
20645476 183 16887231669382783044
20645477 70 18194958772062231503
20671657 53 18341037537254002495
21501502 16 18267585904475078547
21524375 3 17545601613790731760
21650355 55 18119507878692114202
2255824 54 18339084911755740883
2334 1 18050285065948307239
23419403 2 17463647088305962124
23526113 38 18042391466162284867
23557571 272 18127402359584618438
23598291 2 18130799987810981645
23598294 1 18049174267093548272
2748010 2 18268419153452101756
305870 269 18049155876070421561
3071541 12 18268442397662263253
3091708 16 8998143114439726688
33824 294 17832425680574958579
34934 24 18338507539281280947
352729 6 17328869794311911909
4175511 71 18268446675723691489
43471831 8 17832702752787788481
5902787 121 18334851744644189890
6049 1 17822292426973393669
7364860 26 18197505223173747476
74978 22 18411702110437013023
81228 2 18050845511851607088
81539 233 17830445442562581069

>  <PUBCHEM_SHAPE_MULTIPOLES>  (1) 
325.55
5.66
3.82
1.21
2.54
3.05
0
-2.98
0
-2.49
-0.01
0.09
-0.3
0

>  <PUBCHEM_SHAPE_SELFOVERLAP>  (1) 
611.358

>  <PUBCHEM_SHAPE_VOLUME>  (1) 
198

>  <PUBCHEM_COORDINATE_TYPE>  (1) 
2
5
10

$$$$
