20107
     RDKit          3D

 22 21  0  0  1  0  0  0  0  0999 V2000
    6.9845   -1.5106   -0.2571 S   0  0  0  0  0  0  0  0  0  0  0  0
   -6.9787   -1.5179    0.2472 S   0  0  0  0  0  0  0  0  0  0  0  0
   -0.3981    2.7949    1.3863 O   0  0  0  0  0  0  0  0  0  0  0  0
    0.3547    2.8474   -1.3746 O   0  0  0  0  0  0  0  0  0  0  0  0
    5.9610   -0.3870    0.3392 O   0  0  0  0  0  0  0  0  0  0  0  0
   -5.9586   -0.3804   -0.3279 O   0  0  0  0  0  0  0  0  0  0  0  0
    7.0436   -1.3909   -1.6997 O   0  0  0  0  0  0  0  0  0  0  0  0
    6.7425   -2.7794    0.3992 O   0  0  0  0  0  0  0  0  0  0  0  0
   -7.0184   -1.4423    1.6934 O   0  0  0  0  0  0  0  0  0  0  0  0
   -6.7507   -2.7669   -0.4507 O   0  0  0  0  0  0  0  0  0  0  0  0
    2.4079    0.5676    0.4393 N   0  0  0  0  0  0  0  0  0  0  0  0
   -2.4032    0.5637   -0.4462 N   0  0  0  0  0  0  0  0  0  0  0  0
    0.1929    1.6604    0.7466 C   0  0  0  0  0  0  0  0  0  0  0  0
   -0.1873    1.6818   -0.7487 C   0  0  0  0  0  0  0  0  0  0  0  0
    1.7011    1.6945    1.0324 C   0  0  0  0  0  0  0  0  0  0  0  0
   -1.6999    1.7059   -1.0140 C   0  0  0  0  0  0  0  0  0  0  0  0
    3.8359    0.6442    0.7162 C   0  0  0  0  0  0  0  0  0  0  0  0
   -3.8344    0.6540   -0.7015 C   0  0  0  0  0  0  0  0  0  0  0  0
    4.5731   -0.5112    0.0579 C   0  0  0  0  0  0  0  0  0  0  0  0
   -4.5676   -0.5182   -0.0691 C   0  0  0  0  0  0  0  0  0  0  0  0
    8.4711   -0.8141    0.4170 C   0  0  0  0  0  0  0  0  0  0  0  0
   -8.4712   -0.7956   -0.3853 C   0  0  0  0  0  0  0  0  0  0  0  0
  1  5  1  0
  1  7  2  0
  1  8  2  0
  1 21  1  0
  2  6  1  0
  2  9  2  0
  2 10  2  0
  2 22  1  0
  3 13  1  0
  4 14  1  0
  5 19  1  0
  6 20  1  0
 11 15  1  0
 11 17  1  0
 12 16  1  0
 12 18  1  0
 13 14  1  0
 13 15  1  0
 14 16  1  0
 17 19  1  0
 18 20  1  0
M  END
>  <PUBCHEM_COMPOUND_CID>  (1) 
20107

>  <PUBCHEM_CONFORMER_RMSD>  (1) 
1.2

>  <PUBCHEM_CONFORMER_DIVERSEORDER>  (1) 
1
75
5
3
73
121
64
94
50
4
25
98
108
59
79
106
38
115
81
68
66
9
82
2
117
46
65
96
100
19
41
43
57
74
51
114
13
53
91
126
42
87
71
86
39
14
113
84
72
125
29
105
8
122
31
103
112
10
110
102
111
76
107
20
124
116
90
26
45
49
88
58
18
22
60
36
32
95
12
61
54
56
30
62
119
52
44
27
127
37
78
16
83
92
123
118
11
104
77
89
80
47
55
15
34
97
70
109
28
33
99
101
24
7
93
35
23
21
120
69
67
63
40
17
85
48
6

>  <PUBCHEM_MMFF94_PARTIAL_CHARGES>  (1) 
26
1 1.38
10 -0.65
11 -0.9
12 -0.9
13 0.28
14 0.28
15 0.27
16 0.27
17 0.27
18 0.27
19 0.28
2 1.38
20 0.28
21 0.11
22 0.11
29 0.36
3 -0.68
30 0.36
35 0.4
36 0.4
4 -0.68
5 -0.46
6 -0.46
7 -0.65
8 -0.65
9 -0.65

>  <PUBCHEM_EFFECTIVE_ROTOR_COUNT>  (1) 
13

>  <PUBCHEM_PHARMACOPHORE_FEATURES>  (1) 
12
1 10 acceptor
1 11 cation
1 11 donor
1 12 cation
1 12 donor
1 3 acceptor
1 3 donor
1 4 acceptor
1 4 donor
1 7 acceptor
1 8 acceptor
1 9 acceptor

>  <PUBCHEM_HEAVY_ATOM_COUNT>  (1) 
22

>  <PUBCHEM_ATOM_DEF_STEREO_COUNT>  (1) 
0

>  <PUBCHEM_ATOM_UDEF_STEREO_COUNT>  (1) 
2

>  <PUBCHEM_BOND_DEF_STEREO_COUNT>  (1) 
0

>  <PUBCHEM_BOND_UDEF_STEREO_COUNT>  (1) 
0

>  <PUBCHEM_ISOTOPIC_ATOM_COUNT>  (1) 
0

>  <PUBCHEM_COMPONENT_COUNT>  (1) 
1

>  <PUBCHEM_CACTVS_TAUTO_COUNT>  (1) 
1

>  <PUBCHEM_CONFORMER_ID>  (1) 
00004E8B00000001

>  <PUBCHEM_MMFF94_ENERGY>  (1) 
13.7872

>  <PUBCHEM_FEATURE_SELFOVERLAP>  (1) 
60.938

>  <PUBCHEM_SHAPE_FINGERPRINT>  (1) 
10740516 88 18337966635316557435
13673619 4 18411134740382482576
13685833 64 18342737433464228985
14123256 34 18410011039529926885
14216079 64 18413387631228371079
14251757 52 9799693692785318318
14251764 30 18411133636570028111
14420673 8 18410292549790016219
14428016 167 18341042004289827791
14428016 86 8214147373661750424
15238133 3 11815603234276260392
1768 4 8718546155999280207
18335252 98 18412260632843440202
18643901 69 18113616773042565557
195137 95 12175631646264715387
20157964 124 10737274736959505376
20554085 129 8286200509766647948
21267235 1 18410855460128402145
21585481 104 15069449442024054719
22224240 67 11240000057686841809
246663 6 18410575084663228323
2838139 119 8358243848385626290
312425 54 14620499130824589270
393628 179 8142083122203812510
393628 194 9223230771698445027
4107672 100 17749945549766682149
465052 167 18201719578481906596
543368 44 9150905979803145407
5470011 282 17240486913934483838
5937810 71 12252447922976607023
59682541 52 13912595014811041040
6327066 14 7925908188421494608
636775 8 18343308033772691966
999808 66 18412824685759723839

>  <PUBCHEM_SHAPE_MULTIPOLES>  (1) 
403.53
27.7
2.9
1.21
0.16
0.34
0
-29.67
-0.03
-0.04
-0.02
0.02
0.33
1.25

>  <PUBCHEM_SHAPE_SELFOVERLAP>  (1) 
738.178

>  <PUBCHEM_SHAPE_VOLUME>  (1) 
257

>  <PUBCHEM_COORDINATE_TYPE>  (1) 
2
5
10

$$$$
