20113
     RDKit          3D

 27 28  0  0  0  0  0  0  0  0999 V2000
   -2.6258   -1.4264   -2.8007 Br  0  0  0  0  0  0  0  0  0  0  0  0
    2.6429   -1.4253    2.7992 Br  0  0  0  0  0  0  0  0  0  0  0  0
   -4.7785    0.9532    1.9630 Br  0  0  0  0  0  0  0  0  0  0  0  0
    4.7893    0.9700   -1.9596 Br  0  0  0  0  0  0  0  0  0  0  0  0
   -4.6533   -0.8798   -0.5271 O   0  0  0  0  0  0  0  0  0  0  0  0
    4.6689   -0.8685    0.5268 O   0  0  0  0  0  0  0  0  0  0  0  0
   -7.0139   -2.0331    0.4411 O   0  0  0  0  0  0  0  0  0  0  0  0
    7.0327   -2.0135   -0.4438 O   0  0  0  0  0  0  0  0  0  0  0  0
    0.0037    2.2690    0.0031 C   0  0  0  0  0  0  0  0  0  0  0  0
   -1.2876    1.3971   -0.1438 C   0  0  0  0  0  0  0  0  0  0  0  0
    1.2364    1.4409    0.1415 C   0  0  0  0  0  0  0  0  0  0  0  0
   -0.0851    3.2400    1.2325 C   0  0  0  0  0  0  0  0  0  0  0  0
   -0.0293    3.2390   -1.2377 C   0  0  0  0  0  0  0  0  0  0  0  0
   -2.2547    1.5490    0.7997 C   0  0  0  0  0  0  0  0  0  0  0  0
    2.2639    1.5567   -0.7950 C   0  0  0  0  0  0  0  0  0  0  0  0
   -1.3498    0.5493   -1.2049 C   0  0  0  0  0  0  0  0  0  0  0  0
    1.3617    0.5504    1.2076 C   0  0  0  0  0  0  0  0  0  0  0  0
   -2.5004   -0.2283   -1.3364 C   0  0  0  0  0  0  0  0  0  0  0  0
    2.5144   -0.2244    1.3374 C   0  0  0  0  0  0  0  0  0  0  0  0
   -3.4052    0.7715    0.6683 C   0  0  0  0  0  0  0  0  0  0  0  0
    3.4165    0.7819   -0.6651 C   0  0  0  0  0  0  0  0  0  0  0  0
   -3.5281   -0.1171   -0.3998 C   0  0  0  0  0  0  0  0  0  0  0  0
    3.5417   -0.1085    0.4011 C   0  0  0  0  0  0  0  0  0  0  0  0
   -4.6456   -2.1529    0.1128 C   0  0  0  0  0  0  0  0  0  0  0  0
    4.6647   -2.1402   -0.1158 C   0  0  0  0  0  0  0  0  0  0  0  0
   -5.9808   -2.8327   -0.1217 C   0  0  0  0  0  0  0  0  0  0  0  0
    6.0016   -2.8170    0.1174 C   0  0  0  0  0  0  0  0  0  0  0  0
  1 18  1  0
  2 19  1  0
  3 20  1  0
  4 21  1  0
  5 22  1  0
  5 24  1  0
  6 23  1  0
  6 25  1  0
  7 26  1  0
  8 27  1  0
  9 10  1  0
  9 11  1  0
  9 12  1  0
  9 13  1  0
 10 14  2  0
 10 16  1  0
 11 15  2  0
 11 17  1  0
 14 20  1  0
 15 21  1  0
 16 18  2  0
 17 19  2  0
 18 22  1  0
 19 23  1  0
 20 22  2  0
 21 23  2  0
 24 26  1  0
 25 27  1  0
M  END
>  <PUBCHEM_COMPOUND_CID>  (1) 
20113

>  <PUBCHEM_CONFORMER_RMSD>  (1) 
1

>  <PUBCHEM_CONFORMER_DIVERSEORDER>  (1) 
1
3
13
5
6
4
8
9
12
11
7
2
10

>  <PUBCHEM_MMFF94_PARTIAL_CHARGES>  (1) 
31
1 -0.11
10 -0.14
11 -0.14
14 -0.15
15 -0.15
16 -0.15
17 -0.15
18 0.11
19 0.11
2 -0.11
20 0.11
21 0.11
22 0.08
23 0.08
24 0.28
25 0.28
26 0.28
27 0.28
3 -0.11
34 0.15
35 0.15
36 0.15
37 0.15
4 -0.11
46 0.4
47 0.4
5 -0.36
6 -0.36
7 -0.68
8 -0.68
9 0.29

>  <PUBCHEM_EFFECTIVE_ROTOR_COUNT>  (1) 
8

>  <PUBCHEM_PHARMACOPHORE_FEATURES>  (1) 
13
1 1 hydrophobe
1 2 hydrophobe
1 3 hydrophobe
1 4 hydrophobe
1 5 acceptor
1 6 acceptor
1 7 acceptor
1 7 donor
1 8 acceptor
1 8 donor
3 9 12 13 hydrophobe
6 10 14 16 18 20 22 rings
6 11 15 17 19 21 23 rings

>  <PUBCHEM_HEAVY_ATOM_COUNT>  (1) 
27

>  <PUBCHEM_ATOM_DEF_STEREO_COUNT>  (1) 
0

>  <PUBCHEM_ATOM_UDEF_STEREO_COUNT>  (1) 
0

>  <PUBCHEM_BOND_DEF_STEREO_COUNT>  (1) 
0

>  <PUBCHEM_BOND_UDEF_STEREO_COUNT>  (1) 
0

>  <PUBCHEM_ISOTOPIC_ATOM_COUNT>  (1) 
0

>  <PUBCHEM_COMPONENT_COUNT>  (1) 
1

>  <PUBCHEM_CACTVS_TAUTO_COUNT>  (1) 
1

>  <PUBCHEM_CONFORMER_ID>  (1) 
00004E9100000001

>  <PUBCHEM_MMFF94_ENERGY>  (1) 
102.232

>  <PUBCHEM_FEATURE_SELFOVERLAP>  (1) 
65.981

>  <PUBCHEM_SHAPE_FINGERPRINT>  (1) 
10042902 136 18411418393171018762
10319926 262 16845586296432866523
10498660 4 12973876035947544445
10928967 22 18338782477228564002
11578080 2 18194655194541146561
117089 54 18411147930296270047
11991303 11 17606385572408761389
12403259 118 12319158672717683595
12422481 6 17489027050484933782
12553582 1 18200583812924207613
12633257 1 15697710506072221387
13009979 54 18344149180667025608
13533116 47 18193838369976726217
13583140 156 14548724140744028621
13690498 29 17968093101849848839
13911987 19 17023766639829351284
14251764 30 18410855464423661771
14950920 106 15769194155067324354
15064986 96 16701186244472451271
15163728 17 12468639366142470660
15238133 3 12823009876584002954
15537594 2 18337123314208097624
16728300 4 18343865516111737823
17780758 139 17632008650614455424
1813 80 18410582798461981005
20764821 26 18408611352834051714
20775438 99 17761194914712149763
20775530 9 18339906165290325454
21033648 29 15769506339487008257
21315763 191 18340212903359058050
22393880 68 17604140425013464116
22950370 63 18410862061498469317
235170 7 15864069875150453320
23522609 53 18050605977141539912
23559900 14 17986088757407368256
23598288 3 18339920394548749492
3004659 81 18113612374568942058
3472631 163 7853857187116135427
46194498 28 16806442690051340229
465052 167 18268434701782157791
474113 269 18130777989585169247
5104073 3 17846784022243036353
54039377 194 18410017602958068934
7970288 3 18410854364917555586

>  <PUBCHEM_SHAPE_MULTIPOLES>  (1) 
555.94
14.38
3.46
2.21
0.33
0.02
0
-15.47
0
-0.06
-0.01
0
-0.34
-2.07

>  <PUBCHEM_SHAPE_SELFOVERLAP>  (1) 
1112.943

>  <PUBCHEM_SHAPE_VOLUME>  (1) 
341.2

>  <PUBCHEM_COORDINATE_TYPE>  (1) 
2
5
10

$$$$
