20114
     RDKit          3D

 22 26  0  0  1  0  0  0  0  0999 V2000
    5.1433    0.6741   -1.2073 O   0  0  0  0  0  0  0  0  0  0  0  0
   -2.0908    0.9289   -0.1834 N   0  0  0  0  0  0  0  0  0  0  0  0
    0.4346   -0.8348   -0.6794 C   0  0  0  0  0  0  0  0  0  0  0  0
   -0.5039   -0.8293    0.5292 C   0  0  0  0  0  0  0  0  0  0  0  0
   -0.8743    0.6745    0.5840 C   0  0  0  0  0  0  0  0  0  0  0  0
   -0.4583   -0.2628   -1.8849 C   0  0  0  0  0  0  0  0  0  0  0  0
    0.8608   -2.2956   -0.9623 C   0  0  0  0  0  0  0  0  0  0  0  0
    0.0677   -1.5148    1.7841 C   0  0  0  0  0  0  0  0  0  0  0  0
   -1.9618    0.1458   -1.4718 C   0  0  0  0  0  0  0  0  0  0  0  0
    1.6356    0.1189   -0.2871 C   0  0  0  0  0  0  0  0  0  0  0  0
    0.1332    1.4234    1.4449 C   0  0  0  0  0  0  0  0  0  0  0  0
   -3.3076    0.6207    0.5489 C   0  0  0  0  0  0  0  0  0  0  0  0
   -4.5233    0.9640   -0.2904 C   0  0  0  0  0  0  0  0  0  0  0  0
    1.4343   -3.0076    0.2679 C   0  0  0  0  0  0  0  0  0  0  0  0
    0.4777   -2.9514    1.4579 C   0  0  0  0  0  0  0  0  0  0  0  0
    1.5054    1.1219    0.7612 C   0  0  0  0  0  0  0  0  0  0  0  0
   -5.8670    0.7306    0.2960 C   0  0  0  0  0  0  0  0  0  0  0  0
   -5.3564   -0.1521   -0.8049 C   0  0  0  0  0  0  0  0  0  0  0  0
    2.8668    0.0098   -0.9462 C   0  0  0  0  0  0  0  0  0  0  0  0
    2.6089    1.8975    1.1323 C   0  0  0  0  0  0  0  0  0  0  0  0
    3.9497    0.8061   -0.5628 C   0  0  0  0  0  0  0  0  0  0  0  0
    3.8255    1.7323    0.4742 C   0  0  0  0  0  0  0  0  0  0  0  0
  1 21  1  0
  2  5  1  0
  2  9  1  0
  2 12  1  0
  3  4  1  0
  3  6  1  0
  3  7  1  0
  3 10  1  0
  4  5  1  0
  4  8  1  0
  5 11  1  0
  6  9  1  0
  7 14  1  0
  8 15  1  0
 10 16  2  0
 10 19  1  0
 11 16  1  0
 12 13  1  0
 13 17  1  0
 13 18  1  0
 14 15  1  0
 16 20  1  0
 17 18  1  0
 19 21  2  0
 20 22  2  0
 21 22  1  0
M  END
>  <PUBCHEM_COMPOUND_CID>  (1) 
20114

>  <PUBCHEM_CONFORMER_RMSD>  (1) 
0.6

>  <PUBCHEM_CONFORMER_DIVERSEORDER>  (1) 
1
2
3
5
4

>  <PUBCHEM_MMFF94_PARTIAL_CHARGES>  (1) 
25
1 -0.53
10 -0.14
11 0.14
12 0.37
13 -0.19
16 -0.14
17 -0.2
18 -0.2
19 -0.15
2 -0.81
20 -0.15
21 0.08
22 -0.15
3 0.14
37 0.1
42 0.1
43 0.1
44 0.1
45 0.1
46 0.15
47 0.15
48 0.15
49 0.45
5 0.27
9 0.27

>  <PUBCHEM_EFFECTIVE_ROTOR_COUNT>  (1) 
4.2

>  <PUBCHEM_PHARMACOPHORE_FEATURES>  (1) 
6
1 1 donor
1 2 cation
6 10 16 19 20 21 22 rings
6 2 3 4 5 6 9 rings
6 3 4 5 10 11 16 rings
6 3 4 7 8 14 15 rings

>  <PUBCHEM_HEAVY_ATOM_COUNT>  (1) 
22

>  <PUBCHEM_ATOM_DEF_STEREO_COUNT>  (1) 
3

>  <PUBCHEM_ATOM_UDEF_STEREO_COUNT>  (1) 
0

>  <PUBCHEM_BOND_DEF_STEREO_COUNT>  (1) 
0

>  <PUBCHEM_BOND_UDEF_STEREO_COUNT>  (1) 
0

>  <PUBCHEM_ISOTOPIC_ATOM_COUNT>  (1) 
0

>  <PUBCHEM_COMPONENT_COUNT>  (1) 
1

>  <PUBCHEM_CACTVS_TAUTO_COUNT>  (1) 
3

>  <PUBCHEM_CONFORMER_ID>  (1) 
00004E9200000001

>  <PUBCHEM_MMFF94_ENERGY>  (1) 
142.3355

>  <PUBCHEM_FEATURE_SELFOVERLAP>  (1) 
31.324

>  <PUBCHEM_SHAPE_FINGERPRINT>  (1) 
10165383 225 18187652414036824100
10366900 7 18409724080676785313
10764073 3 13554798489902536747
10863032 1 18412828005505783802
10906281 52 17915451921244767104
10922049 32 18410856598299769985
10948715 1 18339641243153853722
11421498 54 15841008697375359803
11578080 2 17752198388777830221
12035759 4 17489592238136849587
12236239 1 15984831427826222105
12592029 89 18343580724549316762
12644460 14 18201721704806923827
12730499 353 18410300207378659971
12788726 201 12463306824841609802
12895836 83 17824277092674839956
13009979 54 16555947303741155011
14787075 74 18341050813166790701
14955137 171 18127115382549736178
15848702 105 17561082527066593249
1601671 61 16486979440983727617
16945 1 18130795512212362072
17349148 13 12829491411772574749
17980427 23 16226622908487860711
1813 80 17697029241433960766
18186145 218 18342727550982137196
18681886 176 16845564336333991625
200 152 14692579814343254644
20567600 347 18334010588294855675
20691752 17 18266997596676188508
21304253 335 12685080450678843551
21421861 104 18124321506386439865
21524375 3 18411702088640299788
22224240 67 18113617923872403869
22393880 68 18060129951830627005
229495 10 18118385277161951599
23184049 59 11746933196160172833
23419403 2 17610383430408653066
23558518 356 17622420058748541905
23559900 14 18113911433010062670
25 1 18413670210211883492
2637199 183 17989486329339661805
2748010 2 17556306395280968840
298252 57 17489306425169427566
3052486 1 16951139490046340795
347723 3 16702024170873846924
3759504 43 18262240044322448418
404807 78 17826500357243456679
427121 178 18113338604716146395
4340502 62 18261115166865930699
474 4 18410855503389597389
54040823 5 17917714573997073455
5895379 119 16984065211753614129
59755656 520 18334291002625738230
6138700 20 18342181008373238830
633830 44 18271515507108274053
6442390 28 18261954153987865563
7495541 125 12175609720641103397
81228 2 17612299058731247258
81539 233 18334289851421164395
9971528 1 10665222636142096105
9999458 23 18413106190558833317

>  <PUBCHEM_SHAPE_MULTIPOLES>  (1) 
441.9
8.77
2.5
1.57
9.88
2.18
-0.01
-5.15
-2.08
-1.93
1.03
-0.32
0.33
0.03

>  <PUBCHEM_SHAPE_SELFOVERLAP>  (1) 
954.219

>  <PUBCHEM_SHAPE_VOLUME>  (1) 
241.6

>  <PUBCHEM_COORDINATE_TYPE>  (1) 
2
5
10

$$$$
