20127
     RDKit          3D

 11 11  0  0  0  0  0  0  0  0999 V2000
   -1.1436    0.1637    0.1295 C   0  0  0  0  0  0  0  0  0  0  0  0
   -1.8125   -0.8636    1.0133 C   0  0  0  0  0  0  0  0  0  0  0  0
    0.3332    0.1033    0.0414 C   0  0  0  0  0  0  0  0  0  0  0  0
   -1.7841    1.1446   -0.5369 C   0  0  0  0  0  0  0  0  0  0  0  0
   -2.2174   -2.1055    0.2304 C   0  0  0  0  0  0  0  0  0  0  0  0
    1.0900    0.7914    0.9710 C   0  0  0  0  0  0  0  0  0  0  0  0
    0.9159   -0.6399   -0.9676 C   0  0  0  0  0  0  0  0  0  0  0  0
    2.4812    0.7341    0.8884 C   0  0  0  0  0  0  0  0  0  0  0  0
    2.3072   -0.6973   -1.0501 C   0  0  0  0  0  0  0  0  0  0  0  0
   -3.2597    1.3795   -0.5974 C   0  0  0  0  0  0  0  0  0  0  0  0
    3.0898   -0.0102   -0.1221 C   0  0  0  0  0  0  0  0  0  0  0  0
  1  2  1  0
  1  3  1  0
  1  4  2  0
  2  5  1  0
  3  6  2  0
  3  7  1  0
  4 10  1  0
  6  8  1  0
  7  9  2  0
  8 11  2  0
  9 11  1  0
M  END
>  <PUBCHEM_COMPOUND_CID>  (1) 
20127

>  <PUBCHEM_CONFORMER_RMSD>  (1) 
0.4

>  <PUBCHEM_CONFORMER_DIVERSEORDER>  (1) 
1
4
2
3

>  <PUBCHEM_MMFF94_PARTIAL_CHARGES>  (1) 
16
1 -0.17
10 0.14
11 -0.15
14 0.15
18 0.15
19 0.15
2 0.14
20 0.15
21 0.15
25 0.15
3 0.03
4 -0.29
6 -0.15
7 -0.15
8 -0.15
9 -0.15

>  <PUBCHEM_EFFECTIVE_ROTOR_COUNT>  (1) 
2

>  <PUBCHEM_PHARMACOPHORE_FEATURES>  (1) 
3
1 10 hydrophobe
1 5 hydrophobe
6 3 6 7 8 9 11 rings

>  <PUBCHEM_HEAVY_ATOM_COUNT>  (1) 
11

>  <PUBCHEM_ATOM_DEF_STEREO_COUNT>  (1) 
0

>  <PUBCHEM_ATOM_UDEF_STEREO_COUNT>  (1) 
0

>  <PUBCHEM_BOND_DEF_STEREO_COUNT>  (1) 
0

>  <PUBCHEM_BOND_UDEF_STEREO_COUNT>  (1) 
1

>  <PUBCHEM_ISOTOPIC_ATOM_COUNT>  (1) 
0

>  <PUBCHEM_COMPONENT_COUNT>  (1) 
1

>  <PUBCHEM_CACTVS_TAUTO_COUNT>  (1) 
1

>  <PUBCHEM_CONFORMER_ID>  (1) 
00004E9F00000001

>  <PUBCHEM_MMFF94_ENERGY>  (1) 
26.4075

>  <PUBCHEM_FEATURE_SELFOVERLAP>  (1) 
15.223

>  <PUBCHEM_SHAPE_FINGERPRINT>  (1) 
12138202 97 18408597046339225543
12423570 1 7852699367006814174
124424 183 18342452587428716842
12500047 106 18334008359285833022
12716758 59 18335141942773032747
12932741 1 18272374169722714028
12932764 1 18335431174560932866
13538477 17 16732710458384546329
15219456 202 18272651276670289864
15775835 57 16588313756329309604
15852999 172 18340478963714156159
16945 1 18271536277680542792
17844478 74 18271535315317789706
18186145 218 18197494026668981429
18380122 1 18055352693423335882
18534176 82 18410294709340511933
20201158 50 18131070385676710678
20279233 1 18344145886595485578
20715346 28 18202280350934076128
21930827 45 18335417946156554585
23402539 116 18264752308096260237
23402655 69 17488451988966551125
23557571 272 18336274543082324628
23559900 14 18339081476747508582
25 1 17984705515454245565
2748010 2 18060138786230019700
276578 36 17750798731786632673
29004967 10 17846509123050847498
3248919 1 17989490705869222736
5084963 1 18270688691533181274
6333449 129 18409446986239363485
77492 1 16515404079434287761
8030462 33 17095803316758744970
81228 2 18188493592145571579
88987 49 18186518817100037988

>  <PUBCHEM_SHAPE_MULTIPOLES>  (1) 
226.37
4.84
1.57
1.12
0.04
0.51
-0.02
-0.59
0.4
-1.48
-0.01
0.25
0.02
1.01

>  <PUBCHEM_SHAPE_SELFOVERLAP>  (1) 
458.857

>  <PUBCHEM_SHAPE_VOLUME>  (1) 
129.3

>  <PUBCHEM_COORDINATE_TYPE>  (1) 
2
5
10

$$$$
