20146
     RDKit          3D

 21 24  0  0  1  0  0  0  0  0999 V2000
   -4.6352   -1.8156   -1.0805 O   0  0  0  0  0  0  0  0  0  0  0  0
   -0.7202    0.2526    0.0043 N   0  0  0  0  0  0  0  0  0  0  0  0
    2.1269    0.0514   -0.1074 N   0  0  0  0  0  0  0  0  0  0  0  0
   -2.8916   -0.8897    0.3360 C   0  0  0  0  0  0  0  0  0  0  0  0
   -2.0880    0.1292   -0.4984 C   0  0  0  0  0  0  0  0  0  0  0  0
   -4.9699    0.3200    0.0249 C   0  0  0  0  0  0  0  0  0  0  0  0
   -3.3196   -0.3779    1.7199 C   0  0  0  0  0  0  0  0  0  0  0  0
   -2.7727    1.5171   -0.5411 C   0  0  0  0  0  0  0  0  0  0  0  0
   -4.6331    0.4026    1.5182 C   0  0  0  0  0  0  0  0  0  0  0  0
   -4.2906    1.4228   -0.8007 C   0  0  0  0  0  0  0  0  0  0  0  0
   -4.2415   -0.9455   -0.3215 C   0  0  0  0  0  0  0  0  0  0  0  0
   -0.0668   -1.0615    0.0466 C   0  0  0  0  0  0  0  0  0  0  0  0
    0.0572    1.1700   -0.8375 C   0  0  0  0  0  0  0  0  0  0  0  0
    1.3460   -0.9536    0.6250 C   0  0  0  0  0  0  0  0  0  0  0  0
    1.4749    1.3518   -0.2897 C   0  0  0  0  0  0  0  0  0  0  0  0
    3.5226   -0.0216   -0.0376 C   0  0  0  0  0  0  0  0  0  0  0  0
    4.2131   -1.1653   -0.4861 C   0  0  0  0  0  0  0  0  0  0  0  0
    4.2799    1.0466    0.4838 C   0  0  0  0  0  0  0  0  0  0  0  0
    5.6043   -1.2382   -0.4159 C   0  0  0  0  0  0  0  0  0  0  0  0
    5.6711    0.9737    0.5538 C   0  0  0  0  0  0  0  0  0  0  0  0
    6.3332   -0.1688    0.1040 C   0  0  0  0  0  0  0  0  0  0  0  0
  1 11  2  0
  2  5  1  0
  2 12  1  0
  2 13  1  0
  3 14  1  0
  3 15  1  0
  3 16  1  0
  4  5  1  0
  4  7  1  0
  4 11  1  0
  5  8  1  0
  6  9  1  0
  6 10  1  0
  6 11  1  0
  7  9  1  0
  8 10  1  0
 12 14  1  0
 13 15  1  0
 16 17  2  0
 16 18  1  0
 17 19  1  0
 18 20  2  0
 19 21  2  0
 20 21  1  0
M  END
>  <PUBCHEM_COMPOUND_CID>  (1) 
20146

>  <PUBCHEM_CONFORMER_RMSD>  (1) 
0.6

>  <PUBCHEM_CONFORMER_DIVERSEORDER>  (1) 
1
27
34
26
30
9
31
15
2
25
6
29
32
33
12
19
8
24
3
11
13
23
16
28
14
20
5
21
18
10
4
22
17
7

>  <PUBCHEM_MMFF94_PARTIAL_CHARGES>  (1) 
22
1 -0.57
11 0.45
12 0.27
13 0.27
14 0.37
15 0.37
16 0.1
17 -0.15
18 -0.15
19 -0.15
2 -0.81
20 -0.15
21 -0.15
3 -0.84
4 0.06
41 0.15
42 0.15
43 0.15
44 0.15
45 0.15
5 0.27
6 0.06

>  <PUBCHEM_EFFECTIVE_ROTOR_COUNT>  (1) 
4.2

>  <PUBCHEM_PHARMACOPHORE_FEATURES>  (1) 
6
1 1 acceptor
1 2 cation
1 3 cation
6 16 17 18 19 20 21 rings
6 2 3 12 13 14 15 rings
8 4 5 6 7 8 9 10 11 rings

>  <PUBCHEM_HEAVY_ATOM_COUNT>  (1) 
21

>  <PUBCHEM_ATOM_DEF_STEREO_COUNT>  (1) 
0

>  <PUBCHEM_ATOM_UDEF_STEREO_COUNT>  (1) 
3

>  <PUBCHEM_BOND_DEF_STEREO_COUNT>  (1) 
0

>  <PUBCHEM_BOND_UDEF_STEREO_COUNT>  (1) 
0

>  <PUBCHEM_ISOTOPIC_ATOM_COUNT>  (1) 
0

>  <PUBCHEM_COMPONENT_COUNT>  (1) 
1

>  <PUBCHEM_CACTVS_TAUTO_COUNT>  (1) 
1

>  <PUBCHEM_CONFORMER_ID>  (1) 
00004EB200000001

>  <PUBCHEM_MMFF94_ENERGY>  (1) 
73.1477

>  <PUBCHEM_FEATURE_SELFOVERLAP>  (1) 
30.449

>  <PUBCHEM_SHAPE_FINGERPRINT>  (1) 
10 15 18261664970520889496
10366900 7 17603578647375066089
10680689 15 18334014986599510871
10803635 8 15140956275067108499
11287383 113 18273494585452243742
11315181 36 17918274277034164865
12091667 2 18259704497415199150
12107183 9 17125382133988557258
12166972 35 18202001083349471177
12236239 1 17275386499710799938
12507557 5 17989488550027963217
12516196 113 18344143704989749016
12596602 18 17489869358217507170
12616971 3 18187937208780576829
12916754 54 18341893060790940941
13288520 33 18412824707688052535
13583140 156 15769774645909567703
13631057 29 17987508381358581071
13675066 3 18335142007434951436
13862211 1 18187358835889791258
1420 363 17967256390512051608
14341114 176 18411986849346450920
15183329 4 18131636656093642794
15196674 1 18409164407319037732
15788980 27 18259987071771688404
15880784 105 18201438107541433955
17093844 174 18335695031434355481
17349148 13 17240491299011306980
17834072 33 17988922301455021886
17844677 252 18411704270684711388
18222031 100 17749383797781601084
18927931 339 17894636959065145835
19141452 34 18341895225022344366
19489759 90 17675922092729270417
200 152 18413668024236943129
21033648 29 18341034264362894312
21267235 1 18260272966881741167
21279426 13 18118119178357895286
21682296 61 18267872692305625182
21709351 56 18040429997189211565
220451 1 18343309162752919950
23402539 116 18411978065879497724
23522609 53 18196121943674624252
23536379 177 17704073980152428690
23557571 272 17604712157847887180
23559900 14 18410565215018702097
239999 70 18408042897544037238
2916195 48 18411129273521838472
3004659 81 18113901538349262156
314173 85 18040436589969376188
3545911 37 18261110742833220853
4073 2 18261115209805327178
4214541 1 18411135822798306037
5104073 3 18343300388002924522
542803 24 16989127552128798352
59755656 215 18041563534186573218
7495541 125 17131546249634585194
90127 26 18260269650792656848

>  <PUBCHEM_SHAPE_MULTIPOLES>  (1) 
416.34
14.9
1.55
1.08
11.93
0.07
0.3
-1.04
0.78
-0.36
-0.31
-1.12
-0.06
0.48

>  <PUBCHEM_SHAPE_SELFOVERLAP>  (1) 
896.658

>  <PUBCHEM_SHAPE_VOLUME>  (1) 
228.7

>  <PUBCHEM_COORDINATE_TYPE>  (1) 
2
5
10

$$$$
