20145
     RDKit          3D

 22 25  0  0  1  0  0  0  0  0999 V2000
   -4.5400   -1.9505   -1.0680 O   0  0  0  0  0  0  0  0  0  0  0  0
   -0.5249    0.2422   -0.1178 N   0  0  0  0  0  0  0  0  0  0  0  0
    2.3251    0.0525   -0.1469 N   0  0  0  0  0  0  0  0  0  0  0  0
   -1.8770    0.1113   -0.6593 C   0  0  0  0  0  0  0  0  0  0  0  0
   -2.6844   -0.9551    0.1080 C   0  0  0  0  0  0  0  0  0  0  0  0
   -4.8220    0.3253   -0.3256 C   0  0  0  0  0  0  0  0  0  0  0  0
   -2.5496    1.4929   -0.7212 C   0  0  0  0  0  0  0  0  0  0  0  0
   -4.0414    1.4175   -1.0663 C   0  0  0  0  0  0  0  0  0  0  0  0
   -2.8580   -0.7525    1.6212 C   0  0  0  0  0  0  0  0  0  0  0  0
   -4.0701   -0.9730   -0.4949 C   0  0  0  0  0  0  0  0  0  0  0  0
   -5.0114    0.5605    1.1774 C   0  0  0  0  0  0  0  0  0  0  0  0
   -3.7377    0.4360    2.0190 C   0  0  0  0  0  0  0  0  0  0  0  0
    0.1324   -1.0689   -0.0518 C   0  0  0  0  0  0  0  0  0  0  0  0
    0.2727    1.1597   -0.9406 C   0  0  0  0  0  0  0  0  0  0  0  0
    1.5276   -0.9531    0.5665 C   0  0  0  0  0  0  0  0  0  0  0  0
    1.6734    1.3494   -0.3529 C   0  0  0  0  0  0  0  0  0  0  0  0
    3.7184   -0.0145   -0.0366 C   0  0  0  0  0  0  0  0  0  0  0  0
    4.4263   -1.1570   -0.4607 C   0  0  0  0  0  0  0  0  0  0  0  0
    4.4560    1.0587    0.5021 C   0  0  0  0  0  0  0  0  0  0  0  0
    5.8151   -1.2238   -0.3502 C   0  0  0  0  0  0  0  0  0  0  0  0
    5.8450    0.9919    0.6125 C   0  0  0  0  0  0  0  0  0  0  0  0
    6.5245   -0.1494    0.1862 C   0  0  0  0  0  0  0  0  0  0  0  0
  1 10  2  0
  2  4  1  0
  2 13  1  0
  2 14  1  0
  3 15  1  0
  3 16  1  0
  3 17  1  0
  4  5  1  0
  4  7  1  0
  5  9  1  0
  5 10  1  0
  6  8  1  0
  6 10  1  0
  6 11  1  0
  7  8  1  0
  9 12  1  0
 11 12  1  0
 13 15  1  0
 14 16  1  0
 17 18  2  0
 17 19  1  0
 18 20  1  0
 19 21  2  0
 20 22  2  0
 21 22  1  0
M  END
>  <PUBCHEM_COMPOUND_CID>  (1) 
20145

>  <PUBCHEM_CONFORMER_RMSD>  (1) 
0.8

>  <PUBCHEM_CONFORMER_DIVERSEORDER>  (1) 
1
31
20
17
24
23
30
18
32
22
12
5
36
35
26
34
14
9
15
16
7
33
19
21
28
13
6
27
11
25
29
10
8
3
2
4

>  <PUBCHEM_MMFF94_PARTIAL_CHARGES>  (1) 
22
1 -0.57
10 0.45
13 0.27
14 0.27
15 0.37
16 0.37
17 0.1
18 -0.15
19 -0.15
2 -0.81
20 -0.15
21 -0.15
22 -0.15
3 -0.84
4 0.27
44 0.15
45 0.15
46 0.15
47 0.15
48 0.15
5 0.06
6 0.06

>  <PUBCHEM_EFFECTIVE_ROTOR_COUNT>  (1) 
4.4

>  <PUBCHEM_PHARMACOPHORE_FEATURES>  (1) 
7
1 1 acceptor
1 2 cation
1 3 cation
6 17 18 19 20 21 22 rings
6 2 3 13 14 15 16 rings
6 4 5 6 7 8 10 rings
6 5 6 9 10 11 12 rings

>  <PUBCHEM_HEAVY_ATOM_COUNT>  (1) 
22

>  <PUBCHEM_ATOM_DEF_STEREO_COUNT>  (1) 
0

>  <PUBCHEM_ATOM_UDEF_STEREO_COUNT>  (1) 
3

>  <PUBCHEM_BOND_DEF_STEREO_COUNT>  (1) 
0

>  <PUBCHEM_BOND_UDEF_STEREO_COUNT>  (1) 
0

>  <PUBCHEM_ISOTOPIC_ATOM_COUNT>  (1) 
0

>  <PUBCHEM_COMPONENT_COUNT>  (1) 
1

>  <PUBCHEM_CACTVS_TAUTO_COUNT>  (1) 
1

>  <PUBCHEM_CONFORMER_ID>  (1) 
00004EB100000001

>  <PUBCHEM_MMFF94_ENERGY>  (1) 
68.4258

>  <PUBCHEM_FEATURE_SELFOVERLAP>  (1) 
36.963

>  <PUBCHEM_SHAPE_FINGERPRINT>  (1) 
10 15 18186794825686349920
10366900 7 17530674429320434017
10680689 15 18260550013261736645
10803635 8 14851598895138629507
11089746 13 16845850196577547016
11315181 36 17988923396471183377
12091667 2 18113617880785437990
12107183 9 17054731923508552154
12166972 35 18130223864776580617
12236239 1 17346598569317511066
12507557 5 17989488554249051433
12516196 113 18342736330158936672
12596602 18 17632857551227875682
12616971 3 18114472235390055117
12916754 54 18341048635792217781
13288520 33 18411979183198833127
13583140 156 15841551860023980063
13631057 29 18058440075452756095
13675066 3 18333733533182169252
13862211 1 18186513311521864978
1420 363 17821451248843228680
14341114 176 18410578375014547348
15183329 4 18131354081700262858
15788980 27 18186803577953505436
15880784 105 18272931656462021090
17093844 174 18333724710881798580
17349148 13 17313391123182474444
17844677 252 18409732846436329452
17980427 23 17060347331292172153
18927931 339 17676212372774085715
19141452 34 18341331175631148334
19489759 90 17749103387597998973
200 152 18343298184779334679
21033648 29 18339908364529885128
21267235 1 18187650228104094543
21682296 61 18267027163658575430
220451 1 18341619209186313758
23035841 295 15068343410255829312
23402539 116 18410568496299311262
23522609 53 18196401224017953204
23536379 177 17632297861165044882
23557571 272 17531809035205036092
23559900 14 18336817680156618909
23569943 247 18119246169351105226
314173 85 18113621183610364828
3633792 109 18130221542027006701
4073 2 18261395585354812530
4214541 1 18410853256857645837
497634 4 18059853991449291677
5104073 3 18343299292902328026
542803 24 17131834261546147808
59755656 215 18040999484758421378
7495541 125 17203321269284375450
90127 26 18187085057441759944

>  <PUBCHEM_SHAPE_MULTIPOLES>  (1) 
436.92
15.15
1.56
1.25
15.32
0.02
0.48
-0.81
1.32
-0.41
-0.34
-1.6
-0.01
0.44

>  <PUBCHEM_SHAPE_SELFOVERLAP>  (1) 
932.74

>  <PUBCHEM_SHAPE_VOLUME>  (1) 
240

>  <PUBCHEM_COORDINATE_TYPE>  (1) 
2
5
10

$$$$
