20169
     RDKit          3D

 23 24  0  0  0  0  0  0  0  0999 V2000
    1.4976    1.3132   -0.2015 O   0  0  0  0  0  0  0  0  0  0  0  0
    1.5017   -1.3039   -0.2068 O   0  0  0  0  0  0  0  0  0  0  0  0
    1.0476    2.4503    1.7488 O   0  0  0  0  0  0  0  0  0  0  0  0
    1.0595   -2.4579    1.7353 O   0  0  0  0  0  0  0  0  0  0  0  0
    3.5503    0.0071   -0.4648 C   0  0  0  0  0  0  0  0  0  0  0  0
    2.8811    1.2677    0.1263 C   0  0  0  0  0  0  0  0  0  0  0  0
    2.8856   -1.2583    0.1173 C   0  0  0  0  0  0  0  0  0  0  0  0
    5.0475   -0.0133   -0.1071 C   0  0  0  0  0  0  0  0  0  0  0  0
    3.4101    0.0170   -1.9989 C   0  0  0  0  0  0  0  0  0  0  0  0
    0.6903    1.9361    0.7003 C   0  0  0  0  0  0  0  0  0  0  0  0
    0.6979   -1.9359    0.6921 C   0  0  0  0  0  0  0  0  0  0  0  0
   -0.7224    1.9144    0.2439 C   0  0  0  0  0  0  0  0  0  0  0  0
   -0.7158   -1.9159    0.2387 C   0  0  0  0  0  0  0  0  0  0  0  0
   -1.7283    1.8963    1.1883 C   0  0  0  0  0  0  0  0  0  0  0  0
   -1.7199   -1.9103    1.1851 C   0  0  0  0  0  0  0  0  0  0  0  0
   -0.9854    1.9126   -1.1106 C   0  0  0  0  0  0  0  0  0  0  0  0
   -0.9815   -1.9038   -1.1151 C   0  0  0  0  0  0  0  0  0  0  0  0
   -3.0554    1.8756    0.7593 C   0  0  0  0  0  0  0  0  0  0  0  0
   -3.0480   -1.8918    0.7590 C   0  0  0  0  0  0  0  0  0  0  0  0
   -2.3126    1.8920   -1.5396 C   0  0  0  0  0  0  0  0  0  0  0  0
   -2.3095   -1.8853   -1.5414 C   0  0  0  0  0  0  0  0  0  0  0  0
   -3.3476    1.8735   -0.6045 C   0  0  0  0  0  0  0  0  0  0  0  0
   -3.3427   -1.8794   -0.6042 C   0  0  0  0  0  0  0  0  0  0  0  0
  1  6  1  0
  1 10  1  0
  2  7  1  0
  2 11  1  0
  3 10  2  0
  4 11  2  0
  5  6  1  0
  5  7  1  0
  5  8  1  0
  5  9  1  0
 10 12  1  0
 11 13  1  0
 12 14  2  0
 12 16  1  0
 13 15  2  0
 13 17  1  0
 14 18  1  0
 15 19  1  0
 16 20  2  0
 17 21  2  0
 18 22  2  0
 19 23  2  0
 20 22  1  0
 21 23  1  0
M  END
>  <PUBCHEM_COMPOUND_CID>  (1) 
20169

>  <PUBCHEM_CONFORMER_RMSD>  (1) 
0.8

>  <PUBCHEM_CONFORMER_DIVERSEORDER>  (1) 
1
133
242
128
260
51
321
52
213
323
259
23
175
86
38
96
393
113
4
386
46
392
248
389
334
207
137
182
330
114
117
104
237
150
264
90
199
158
194
292
354
241
249
2
214
73
357
230
328
34
102
342
186
336
217
374
395
325
399
307
261
107
43
31
312
316
286
130
388
368
250
216
333
407
276
8
178
163
274
381
235
267
390
139
99
11
339
377
9
63
103
229
383
79
132
400
252
284
265
352
300
318
287
5
361
293
372
64
358
376
172
88
171
50
362
371
254
227
378
397
332
251
263
165
296
347
345
246
280
257
203
12
353
262
344
370
273
298
391
319
173
129
303
231
160
174
239
277
141
138
100
111
272
380
71
294
131
245
198
148
291
366
167
218
396
223
232
290
271
183
406
140
62
116
82
209
87
85
159
313
120
297
367
72
338
385
89
240
322
412
29
143
70
343
268
410
110
220
288
356
363
101
234
144
202
341
244
225
14
28
409
145
305
350
177
119
337
30
387
126
349
266
54
91
219
118
185
402
115
56
320
206
224
190
127
125
187
146
279
275
193
314
136
152
75
228
161
285
365
403
142
373
253
394
382
121
281
78
191
166
164
359
47
221
326
18
375
369
310
176
324
61
27
308
49
24
289
413
188
205
278
44
94
335
283
179
184
48
83
327
346
149
192
36
53
211
233
269
45
304
401
157
195
147
238
42
108
32
25
105
364
306
69
153
122
302
156
95
17
92
93
309
351
112
282
60
405
201
33
404
210
311
189
348
154
215
124
169
97
226
168
134
208
384
331
26
197
10
13
151
7
81
295
255
123
180
329
135
170
21
360
162
67
212
40
355
77
204
196
106
408
3
58
379
35
22
98
411
270
41
6
59
15
181
80
68
57
74
301
20
414
19
299
66
340
65
200
236
155
256
39
243
258
247
16
317
55
76
315
84
222
109
398
37

>  <PUBCHEM_MMFF94_PARTIAL_CHARGES>  (1) 
30
1 -0.43
10 0.63
11 0.63
12 0.09
13 0.09
14 -0.15
15 -0.15
16 -0.15
17 -0.15
18 -0.15
19 -0.15
2 -0.43
20 -0.15
21 -0.15
22 -0.15
23 -0.15
3 -0.57
34 0.15
35 0.15
36 0.15
37 0.15
38 0.15
39 0.15
4 -0.57
40 0.15
41 0.15
42 0.15
43 0.15
6 0.28
7 0.28

>  <PUBCHEM_EFFECTIVE_ROTOR_COUNT>  (1) 
8

>  <PUBCHEM_PHARMACOPHORE_FEATURES>  (1) 
5
1 3 acceptor
1 4 acceptor
3 5 8 9 hydrophobe
6 12 14 16 18 20 22 rings
6 13 15 17 19 21 23 rings

>  <PUBCHEM_HEAVY_ATOM_COUNT>  (1) 
23

>  <PUBCHEM_ATOM_DEF_STEREO_COUNT>  (1) 
0

>  <PUBCHEM_ATOM_UDEF_STEREO_COUNT>  (1) 
0

>  <PUBCHEM_BOND_DEF_STEREO_COUNT>  (1) 
0

>  <PUBCHEM_BOND_UDEF_STEREO_COUNT>  (1) 
0

>  <PUBCHEM_ISOTOPIC_ATOM_COUNT>  (1) 
0

>  <PUBCHEM_COMPONENT_COUNT>  (1) 
1

>  <PUBCHEM_CACTVS_TAUTO_COUNT>  (1) 
1

>  <PUBCHEM_CONFORMER_ID>  (1) 
00004EC900000001

>  <PUBCHEM_MMFF94_ENERGY>  (1) 
66.8804

>  <PUBCHEM_FEATURE_SELFOVERLAP>  (1) 
25.372

>  <PUBCHEM_SHAPE_FINGERPRINT>  (1) 
104564 63 18410579521448802223
1100329 8 17975123254364618242
11578080 2 17202748423267498771
12156800 1 13523226335807608409
12422481 6 18124350218511845755
13140716 1 18410851045424268224
14251745 187 18337382859071122177
14251751 93 18259987041664946540
16752209 62 18334853952737271826
17357779 13 18267859665268409159
17492 54 18264474097669033133
20600515 1 17174030403874144284
20691752 17 18116427244584622755
20905425 154 18197200654437435239
21236236 1 18410576206577958116
23419403 2 17559941285763520672
23557571 272 18131636690590674214
238 59 17685464599876491781
3052486 1 18335687356897224336
4340502 62 18196670501319010113
469060 322 17895489110340561755
5845 1 15451157784117987478
6438718 38 18273219681374894231
70251023 43 18127678529834341423
7237137 82 18339099163243265260
81228 2 18192144021857274937

>  <PUBCHEM_SHAPE_MULTIPOLES>  (1) 
449.85
6.67
3.57
1.59
5.71
0.01
0.2
0
1.45
-2.55
-0.66
-0.19
-0.01
0

>  <PUBCHEM_SHAPE_SELFOVERLAP>  (1) 
953.079

>  <PUBCHEM_SHAPE_VOLUME>  (1) 
251.3

>  <PUBCHEM_COORDINATE_TYPE>  (1) 
2
5
10

$$$$
