20171
     RDKit          3D

 35 38  0  0  0  0  0  0  0  0999 V2000
   -1.5345   -2.3444    1.5427 S   0  0  0  0  0  0  0  0  0  0  0  0
    9.0887    0.2236   -0.4321 S   0  0  0  0  0  0  0  0  0  0  0  0
   -4.6660    2.8176    1.6001 O   0  0  0  0  0  0  0  0  0  0  0  0
   -2.2099   -2.8801    0.1547 O   0  0  0  0  0  0  0  0  0  0  0  0
   -0.5125   -3.3080    1.9199 O   0  0  0  0  0  0  0  0  0  0  0  0
   -2.6041   -1.9946    2.4625 O   0  0  0  0  0  0  0  0  0  0  0  0
    9.5180   -0.2059   -1.9502 O   0  0  0  0  0  0  0  0  0  0  0  0
    9.5054    1.6064   -0.2485 O   0  0  0  0  0  0  0  0  0  0  0  0
    9.5461   -0.8156    0.4773 O   0  0  0  0  0  0  0  0  0  0  0  0
   -3.2880    1.0957   -0.0656 N   0  0  0  0  0  0  0  0  0  0  0  0
   -2.8586    0.2831    0.7834 N   0  0  0  0  0  0  0  0  0  0  0  0
    2.7290    0.3938    0.7478 N   0  0  0  0  0  0  0  0  0  0  0  0
    3.1565    0.0759   -0.3868 N   0  0  0  0  0  0  0  0  0  0  0  0
   -5.4122    0.2125   -0.8932 C   0  0  0  0  0  0  0  0  0  0  0  0
   -6.8269    0.2329   -0.8603 C   0  0  0  0  0  0  0  0  0  0  0  0
   -4.6933    1.0865   -0.0616 C   0  0  0  0  0  0  0  0  0  0  0  0
   -0.7302   -0.8511    1.1111 C   0  0  0  0  0  0  0  0  0  0  0  0
   -7.4808    1.1266    0.0035 C   0  0  0  0  0  0  0  0  0  0  0  0
   -5.3593    1.9682    0.7901 C   0  0  0  0  0  0  0  0  0  0  0  0
   -4.7580   -0.6813   -1.7567 C   0  0  0  0  0  0  0  0  0  0  0  0
   -1.4532    0.2919    0.7796 C   0  0  0  0  0  0  0  0  0  0  0  0
   -7.5458   -0.6410   -1.6920 C   0  0  0  0  0  0  0  0  0  0  0  0
   -6.7504    1.9879    0.8229 C   0  0  0  0  0  0  0  0  0  0  0  0
    0.6644   -0.8172    1.1005 C   0  0  0  0  0  0  0  0  0  0  0  0
    1.3308    0.3595    0.7582 C   0  0  0  0  0  0  0  0  0  0  0  0
   -5.4882   -1.5423   -2.5763 C   0  0  0  0  0  0  0  0  0  0  0  0
   -6.8794   -1.5221   -2.5442 C   0  0  0  0  0  0  0  0  0  0  0  0
   -0.7915    1.4684    0.4373 C   0  0  0  0  0  0  0  0  0  0  0  0
    0.6028    1.5022    0.4267 C   0  0  0  0  0  0  0  0  0  0  0  0
    7.3435    0.1797   -0.4191 C   0  0  0  0  0  0  0  0  0  0  0  0
    4.5616    0.1106   -0.3978 C   0  0  0  0  0  0  0  0  0  0  0  0
    6.6775   -0.9973   -0.0771 C   0  0  0  0  0  0  0  0  0  0  0  0
    6.6149    1.3222   -0.7505 C   0  0  0  0  0  0  0  0  0  0  0  0
    5.2832   -1.0319   -0.0665 C   0  0  0  0  0  0  0  0  0  0  0  0
    5.2205    1.2875   -0.7398 C   0  0  0  0  0  0  0  0  0  0  0  0
  1  4  1  0
  1  5  2  0
  1  6  2  0
  1 17  1  0
  2  7  1  0
  2  8  2  0
  2  9  2  0
  2 30  1  0
  3 19  1  0
 10 11  2  0
 10 16  1  0
 11 21  1  0
 12 13  2  0
 12 25  1  0
 13 31  1  0
 14 15  1  0
 14 16  2  0
 14 20  1  0
 15 18  2  0
 15 22  1  0
 16 19  1  0
 17 21  2  0
 17 24  1  0
 18 23  1  0
 19 23  2  0
 20 26  2  0
 21 28  1  0
 22 27  2  0
 24 25  2  0
 25 29  1  0
 26 27  1  0
 28 29  2  0
 30 32  2  0
 30 33  1  0
 31 34  2  0
 31 35  1  0
 32 34  1  0
 33 35  2  0
M  END
>  <PUBCHEM_COMPOUND_CID>  (1) 
20171

>  <PUBCHEM_CONFORMER_RMSD>  (1) 
1

>  <PUBCHEM_CONFORMER_DIVERSEORDER>  (1) 
1
4
7
5
2
6
3

>  <PUBCHEM_MMFF94_PARTIAL_CHARGES>  (1) 
49
1 1.49
10 -0.18
11 -0.18
12 -0.18
13 -0.18
16 0.18
17 -0.01
18 -0.15
19 0.08
2 1.49
20 -0.15
21 0.18
22 -0.15
23 -0.15
24 -0.15
25 0.18
26 -0.15
27 -0.15
28 -0.15
29 -0.15
3 -0.53
30 -0.01
31 0.18
32 -0.15
33 -0.15
34 -0.15
35 -0.15
36 0.15
37 0.15
38 0.15
39 0.15
4 -0.68
40 0.15
41 0.15
42 0.15
43 0.15
44 0.15
45 0.15
46 0.15
47 0.15
48 0.15
49 0.45
5 -0.65
50 0.5
51 0.5
6 -0.65
7 -0.68
8 -0.65
9 -0.65

>  <PUBCHEM_EFFECTIVE_ROTOR_COUNT>  (1) 
6

>  <PUBCHEM_PHARMACOPHORE_FEATURES>  (1) 
13
1 3 donor
1 4 acceptor
1 5 acceptor
1 6 acceptor
1 7 acceptor
1 8 acceptor
1 9 acceptor
4 1 4 5 6 anion
4 2 7 8 9 anion
6 14 15 16 18 19 23 rings
6 14 15 20 22 26 27 rings
6 17 21 24 25 28 29 rings
6 30 31 32 33 34 35 rings

>  <PUBCHEM_HEAVY_ATOM_COUNT>  (1) 
35

>  <PUBCHEM_ATOM_DEF_STEREO_COUNT>  (1) 
0

>  <PUBCHEM_ATOM_UDEF_STEREO_COUNT>  (1) 
0

>  <PUBCHEM_BOND_DEF_STEREO_COUNT>  (1) 
0

>  <PUBCHEM_BOND_UDEF_STEREO_COUNT>  (1) 
0

>  <PUBCHEM_ISOTOPIC_ATOM_COUNT>  (1) 
0

>  <PUBCHEM_COMPONENT_COUNT>  (1) 
1

>  <PUBCHEM_CACTVS_TAUTO_COUNT>  (1) 
3

>  <PUBCHEM_CONFORMER_ID>  (1) 
00004ECB00000001

>  <PUBCHEM_MMFF94_ENERGY>  (1) 
87.7715

>  <PUBCHEM_FEATURE_SELFOVERLAP>  (1) 
66.113

>  <PUBCHEM_SHAPE_FINGERPRINT>  (1) 
10 15 14851604384059627168
10190206 1 18408317805204892687
10299344 5 18272931613438722660
10369192 42 17312818256935667463
10670039 82 18130779058962823605
10674148 151 17346598582772313891
10835480 77 18261958565642205268
11135926 11 17894914005413707595
11200772 48 18272933847138591575
11211813 163 18273213093169498927
11991303 11 16950289533219508803
12082328 90 17489587835769640764
12539745 222 17168719651565330051
12559415 135 17846494825110020248
12664476 115 15140682484267270109
12838862 33 17749661961903106632
13383668 90 18060702775750618149
13540713 4 17974007546119640432
13782708 43 15553583254324690927
13911987 19 17385712592280892677
14068700 675 18131913762546119889
14150023 24 15719388430613479440
14856354 85 17917708016172837213
150020 25 16630520731060224000
15183329 4 18261104171259146246
15289351 153 15936677187392529676
15461852 350 17775569741287225916
1577012 14 18336543828704141176
15849732 13 16877948234541212927
19841028 212 17346043247785807926
20105231 36 18201718509995431679
20721686 146 13912865503372827607
21267235 1 11383833758459988200
21360443 120 18187082828021885483
21772524 286 12108047952208691102
21927370 108 13542473072267233930
23559900 14 18336267938045187352
23576562 1 17313948666093876141
249057 3 17967538991071192564
335352 9 18260553325077459540
395649 100 18340767134423763486
4339292 15 16558454371527224469
44802255 64 16370437865723371827
4874694 18 18261108587699005794
5265222 85 16916775344930741949
57527295 17 18202280265198644411
57676310 188 18271525308197783350
58902169 19 18411699910997553044
59521660 218 17241036596681434146
6009941 240 17458349667074136242
6669772 16 17168424857562887595
6691757 9 18260840301274196418
9953998 17 11025795397107419765
9962374 69 12607106414668558160

>  <PUBCHEM_SHAPE_MULTIPOLES>  (1) 
666.97
30.09
2.44
1.92
56.8
0.61
0.17
-4.45
16.15
-3.54
-1.03
-2.88
1.4
-2.82

>  <PUBCHEM_SHAPE_SELFOVERLAP>  (1) 
1450.187

>  <PUBCHEM_SHAPE_VOLUME>  (1) 
363.1

>  <PUBCHEM_COORDINATE_TYPE>  (1) 
2
5
10

$$$$
