2017
     RDKit          3D

 19 21  0  0  0  0  0  0  0  0999 V2000
    4.2564   -0.4357    0.3285 O   0  0  0  0  0  0  0  0  0  0  0  0
   -0.9080    1.5135    0.0225 N   0  0  0  0  0  0  0  0  0  0  0  0
   -0.3039   -2.6329    0.1203 N   0  0  0  0  0  0  0  0  0  0  0  0
   -5.6683    0.9154   -0.2178 N   0  0  0  0  0  0  0  0  0  0  0  0
    0.5917   -0.3647    0.1323 C   0  0  0  0  0  0  0  0  0  0  0  0
   -1.8088   -0.7175    0.0113 C   0  0  0  0  0  0  0  0  0  0  0  0
   -0.5086   -1.2270    0.0883 C   0  0  0  0  0  0  0  0  0  0  0  0
    0.3422    1.0176    0.0966 C   0  0  0  0  0  0  0  0  0  0  0  0
   -1.9644    0.6786   -0.0195 C   0  0  0  0  0  0  0  0  0  0  0  0
    1.9091   -0.8490    0.2098 C   0  0  0  0  0  0  0  0  0  0  0  0
   -2.9328   -1.5607   -0.0341 C   0  0  0  0  0  0  0  0  0  0  0  0
    1.4336    1.8811    0.1401 C   0  0  0  0  0  0  0  0  0  0  0  0
    2.9828    0.0354    0.2521 C   0  0  0  0  0  0  0  0  0  0  0  0
   -3.2564    1.1918   -0.0959 C   0  0  0  0  0  0  0  0  0  0  0  0
    2.7441    1.4032    0.2173 C   0  0  0  0  0  0  0  0  0  0  0  0
   -4.3755    0.3568   -0.1413 C   0  0  0  0  0  0  0  0  0  0  0  0
   -4.2138   -1.0224   -0.1103 C   0  0  0  0  0  0  0  0  0  0  0  0
    5.2811    0.3609   -0.2652 C   0  0  0  0  0  0  0  0  0  0  0  0
    6.3996   -0.5445   -0.7349 C   0  0  0  0  0  0  0  0  0  0  0  0
  1 13  1  0
  1 18  1  0
  2  8  2  0
  2  9  1  0
  3  7  1  0
  4 16  1  0
  5  7  2  0
  5  8  1  0
  5 10  1  0
  6  7  1  0
  6  9  2  0
  6 11  1  0
  8 12  1  0
  9 14  1  0
 10 13  2  0
 11 17  2  0
 12 15  2  0
 13 15  1  0
 14 16  2  0
 16 17  1  0
 18 19  1  0
M  END
>  <PUBCHEM_COMPOUND_CID>  (1) 
2017

>  <PUBCHEM_CONFORMER_RMSD>  (1) 
0.6

>  <PUBCHEM_CONFORMER_DIVERSEORDER>  (1) 
1
4
2
3

>  <PUBCHEM_MMFF94_PARTIAL_CHARGES>  (1) 
26
1 -0.36
10 -0.15
11 -0.15
12 -0.15
13 0.08
14 -0.15
15 -0.15
16 0.1
17 -0.15
18 0.28
2 -0.62
20 0.15
21 0.15
22 0.15
23 0.15
24 0.15
25 0.15
26 0.4
27 0.4
3 -0.9
30 0.4
31 0.4
4 -0.9
7 0.1
8 0.31
9 0.31

>  <PUBCHEM_EFFECTIVE_ROTOR_COUNT>  (1) 
2

>  <PUBCHEM_PHARMACOPHORE_FEATURES>  (1) 
9
1 1 acceptor
1 2 acceptor
1 3 cation
1 3 donor
1 4 cation
1 4 donor
6 2 5 6 7 8 9 rings
6 5 8 10 12 13 15 rings
6 6 9 11 14 16 17 rings

>  <PUBCHEM_HEAVY_ATOM_COUNT>  (1) 
19

>  <PUBCHEM_ATOM_DEF_STEREO_COUNT>  (1) 
0

>  <PUBCHEM_ATOM_UDEF_STEREO_COUNT>  (1) 
0

>  <PUBCHEM_BOND_DEF_STEREO_COUNT>  (1) 
0

>  <PUBCHEM_BOND_UDEF_STEREO_COUNT>  (1) 
0

>  <PUBCHEM_ISOTOPIC_ATOM_COUNT>  (1) 
0

>  <PUBCHEM_COMPONENT_COUNT>  (1) 
1

>  <PUBCHEM_CACTVS_TAUTO_COUNT>  (1) 
18

>  <PUBCHEM_CONFORMER_ID>  (1) 
000007E100000001

>  <PUBCHEM_MMFF94_ENERGY>  (1) 
89.8974

>  <PUBCHEM_FEATURE_SELFOVERLAP>  (1) 
45.732

>  <PUBCHEM_SHAPE_FINGERPRINT>  (1) 
10967382 1 18410570656926395171
11315181 36 17989212560019674248
11458722 379 18409167714322666202
11578080 2 13756704056584856872
12011746 2 18411418397397180500
12236239 1 17749108894257794814
12390115 104 18127984000951622601
12403259 415 18336535071345601845
12715332 25 17988361567335759231
13140716 1 18338521949413335721
13288520 33 18342178864651671740
13533116 47 13254526323503493588
13760787 19 17822007618485012978
13862211 1 18411131438005994346
14115302 16 18260556666487955204
14790565 3 18408891741210007444
14911166 2 18411138035049140388
15042514 8 18194123138882973771
15048467 5 17313387829348682036
15099037 51 18411700997771445086
15196674 1 18338796831050763737
15536298 74 18270114737968759512
16945 1 18335967727571369913
17804303 29 18412263973399821992
17834072 8 18412543206203046869
18186145 218 18261098712418873709
200 152 17704070707070669025
21029758 11 18272369784846370384
21267235 1 18410298051326416411
21279426 13 18195529186214756038
21709351 56 18409158935710168109
221490 88 18191590958759878304
2215653 11 18130788941102310022
23175994 123 17346883359945846672
23402539 116 18272082816236872255
23559900 14 18272082855335150856
2748010 2 18337669827806681533
3004659 81 18261395512820299198
335352 9 18411136939500222845
34934 24 18337666426319397963
350125 39 18408604751432011213
3545911 37 18411418406287756241
3759504 43 17603589655292252586
4214541 1 18411136952495959089
4340502 62 16153430523770526448
4463277 17 18410012152533338852
5104073 3 18338514252299139953
542803 24 16950280715197364484
59755656 215 18412264995454482166
6138700 20 18339645538696682430
69090 78 18343014532085542791
7364860 26 18268989787392334807
9709674 26 18122905592691183178

>  <PUBCHEM_SHAPE_MULTIPOLES>  (1) 
370.2
11.32
1.88
0.65
7.66
0.34
0.02
-0.04
2.12
-0.62
-0.07
0.22
0.01
0.23

>  <PUBCHEM_SHAPE_SELFOVERLAP>  (1) 
823.56

>  <PUBCHEM_SHAPE_VOLUME>  (1) 
198.5

>  <PUBCHEM_COORDINATE_TYPE>  (1) 
2
5
10

$$$$
