20177
     RDKit          3D

  9  8  0  0  0  0  0  0  0  0999 V2000
    0.0000   -0.6208   -0.0008 O   0  0  0  0  0  0  0  0  0  0  0  0
    1.2972    1.3037   -0.0015 O   0  0  0  0  0  0  0  0  0  0  0  0
   -1.2972    1.3039    0.0026 O   0  0  0  0  0  0  0  0  0  0  0  0
    3.5747   -0.1760    0.0027 N   0  0  0  0  0  0  0  0  0  0  0  0
   -3.5748   -0.1763   -0.0049 N   0  0  0  0  0  0  0  0  0  0  0  0
    2.3133   -0.9042   -0.0025 C   0  0  0  0  0  0  0  0  0  0  0  0
   -2.3132   -0.9039    0.0050 C   0  0  0  0  0  0  0  0  0  0  0  0
    1.1734    0.0867   -0.0022 C   0  0  0  0  0  0  0  0  0  0  0  0
   -1.1734    0.0869    0.0016 C   0  0  0  0  0  0  0  0  0  0  0  0
  1  8  1  0
  1  9  1  0
  2  8  2  0
  3  9  2  0
  4  6  1  0
  5  7  1  0
  6  8  1  0
  7  9  1  0
M  END
>  <PUBCHEM_COMPOUND_CID>  (1) 
20177

>  <PUBCHEM_CONFORMER_RMSD>  (1) 
0.6

>  <PUBCHEM_CONFORMER_DIVERSEORDER>  (1) 
1
14
16
17
13
9
18
10
12
15
6
7
5
8
3
4
11
20
19
2

>  <PUBCHEM_MMFF94_PARTIAL_CHARGES>  (1) 
13
1 -0.3
14 0.36
15 0.36
16 0.36
17 0.36
2 -0.57
3 -0.57
4 -0.99
5 -0.99
6 0.33
7 0.33
8 0.66
9 0.66

>  <PUBCHEM_EFFECTIVE_ROTOR_COUNT>  (1) 
4

>  <PUBCHEM_PHARMACOPHORE_FEATURES>  (1) 
6
1 2 acceptor
1 3 acceptor
1 4 cation
1 4 donor
1 5 cation
1 5 donor

>  <PUBCHEM_HEAVY_ATOM_COUNT>  (1) 
9

>  <PUBCHEM_ATOM_DEF_STEREO_COUNT>  (1) 
0

>  <PUBCHEM_ATOM_UDEF_STEREO_COUNT>  (1) 
0

>  <PUBCHEM_BOND_DEF_STEREO_COUNT>  (1) 
0

>  <PUBCHEM_BOND_UDEF_STEREO_COUNT>  (1) 
0

>  <PUBCHEM_ISOTOPIC_ATOM_COUNT>  (1) 
0

>  <PUBCHEM_COMPONENT_COUNT>  (1) 
1

>  <PUBCHEM_CACTVS_TAUTO_COUNT>  (1) 
1

>  <PUBCHEM_CONFORMER_ID>  (1) 
00004ED100000001

>  <PUBCHEM_MMFF94_ENERGY>  (1) 
7.2113

>  <PUBCHEM_FEATURE_SELFOVERLAP>  (1) 
30.458

>  <PUBCHEM_SHAPE_FINGERPRINT>  (1) 
11062470 55 18410573989462379111
14325111 11 18410855438674443810
20201158 50 18410293609760643579
23552423 10 18188491388273512511
29004967 10 18131071506921715594
5084963 1 18411981364330082321
5460574 1 9223229646057355522

>  <PUBCHEM_SHAPE_MULTIPOLES>  (1) 
157.65
5.16
1.13
0.56
0
0.24
0
-1
0
0
0
0
-0.02
0

>  <PUBCHEM_SHAPE_SELFOVERLAP>  (1) 
298.279

>  <PUBCHEM_SHAPE_VOLUME>  (1) 
96.9

>  <PUBCHEM_COORDINATE_TYPE>  (1) 
2
5
10

$$$$
