20184
     RDKit          3D

 19 19  0  0  0  0  0  0  0  0999 V2000
    7.3303    1.2843   -0.4381 Cl  0  0  0  0  0  0  0  0  0  0  0  0
   -1.3843    0.0913    0.3035 O   0  0  0  0  0  0  0  0  0  0  0  0
    2.0031   -1.0356    0.4061 O   0  0  0  0  0  0  0  0  0  0  0  0
   -0.4097   -1.8704   -0.4247 O   0  0  0  0  0  0  0  0  0  0  0  0
   -5.0215    0.2723   -0.2658 N   0  0  0  0  0  0  0  0  0  0  0  0
   -3.6948    0.6976    0.1792 C   0  0  0  0  0  0  0  0  0  0  0  0
   -5.4090   -0.9716    0.3983 C   0  0  0  0  0  0  0  0  0  0  0  0
   -6.0081    1.3198   -0.0051 C   0  0  0  0  0  0  0  0  0  0  0  0
   -2.6574   -0.3702   -0.1291 C   0  0  0  0  0  0  0  0  0  0  0  0
   -6.7591   -1.4613   -0.0975 C   0  0  0  0  0  0  0  0  0  0  0  0
   -5.6213    2.6206   -0.6881 C   0  0  0  0  0  0  0  0  0  0  0  0
   -0.3359   -0.7647    0.0941 C   0  0  0  0  0  0  0  0  0  0  0  0
    0.9328   -0.1337    0.6044 C   0  0  0  0  0  0  0  0  0  0  0  0
    3.2503   -0.4933    0.2100 C   0  0  0  0  0  0  0  0  0  0  0  0
    3.5670    0.7247    0.7961 C   0  0  0  0  0  0  0  0  0  0  0  0
    4.1753   -1.1705   -0.5734 C   0  0  0  0  0  0  0  0  0  0  0  0
    4.8325    1.2760    0.5949 C   0  0  0  0  0  0  0  0  0  0  0  0
    5.4407   -0.6191   -0.7744 C   0  0  0  0  0  0  0  0  0  0  0  0
    5.7694    0.6041   -0.1903 C   0  0  0  0  0  0  0  0  0  0  0  0
  1 19  1  0
  2  9  1  0
  2 12  1  0
  3 13  1  0
  3 14  1  0
  4 12  2  0
  5  6  1  0
  5  7  1  0
  5  8  1  0
  6  9  1  0
  7 10  1  0
  8 11  1  0
 12 13  1  0
 14 15  2  0
 14 16  1  0
 15 17  1  0
 16 18  2  0
 17 19  2  0
 18 19  1  0
M  END
>  <PUBCHEM_COMPOUND_CID>  (1) 
20184

>  <PUBCHEM_CONFORMER_RMSD>  (1) 
1

>  <PUBCHEM_CONFORMER_DIVERSEORDER>  (1) 
1
362
394
27
541
567
4
55
11
50
318
93
86
200
251
8
65
121
179
237
30
23
2
96
495
365
210
3
373
53
591
285
15
191
521
62
253
400
21
562
7
286
109
349
130
72
424
578
42
339
244
37
457
103
19
190
585
196
215
336
390
26
205
90
518
78
554
79
29
223
552
539
5
85
18
40
14
82
485
307
22
41
25
36
576
170
9
560
597
572
515

>  <PUBCHEM_MMFF94_PARTIAL_CHARGES>  (1) 
21
1 -0.18
12 0.66
13 0.34
14 0.08
15 -0.15
16 -0.15
17 -0.15
18 -0.15
19 0.18
2 -0.43
3 -0.36
36 0.15
37 0.15
38 0.15
39 0.15
4 -0.57
5 -0.81
6 0.27
7 0.27
8 0.27
9 0.28

>  <PUBCHEM_EFFECTIVE_ROTOR_COUNT>  (1) 
9

>  <PUBCHEM_PHARMACOPHORE_FEATURES>  (1) 
4
1 3 acceptor
1 4 acceptor
1 5 cation
6 14 15 16 17 18 19 rings

>  <PUBCHEM_HEAVY_ATOM_COUNT>  (1) 
19

>  <PUBCHEM_ATOM_DEF_STEREO_COUNT>  (1) 
0

>  <PUBCHEM_ATOM_UDEF_STEREO_COUNT>  (1) 
0

>  <PUBCHEM_BOND_DEF_STEREO_COUNT>  (1) 
0

>  <PUBCHEM_BOND_UDEF_STEREO_COUNT>  (1) 
0

>  <PUBCHEM_ISOTOPIC_ATOM_COUNT>  (1) 
0

>  <PUBCHEM_COMPONENT_COUNT>  (1) 
1

>  <PUBCHEM_CACTVS_TAUTO_COUNT>  (1) 
1

>  <PUBCHEM_CONFORMER_ID>  (1) 
00004ED800000001

>  <PUBCHEM_MMFF94_ENERGY>  (1) 
39.041

>  <PUBCHEM_FEATURE_SELFOVERLAP>  (1) 
20.305

>  <PUBCHEM_SHAPE_FINGERPRINT>  (1) 
11315181 36 17458347472783431099
11796584 16 9727636107195107821
12091667 2 18333171674403603347
12236239 1 18259983755999043530
12730499 353 18272093799054336438
13167372 99 18260828155513039816
13533116 47 13038918690176489084
13668630 136 12967122809353901613
14251718 22 18411138043544233427
14251764 18 17821447984589157460
14528608 73 18412542102459722643
14933364 13 18341896290226695257
15048467 5 18334295366322839196
15183329 4 16343984697578455525
15348495 7 8430301442703181327
15475509 35 11527400226120753292
17093844 174 9943806677986101775
17844677 252 18413394237283587849
18335252 98 18341619251772346995
20281389 69 18334574637701797736
20645477 70 17989213599428614414
21150785 3 18342178903063829670
220451 1 16200432468267566927
221357 26 17917993854646695568
22224240 67 15791729741627419592
22289505 5 18201718440795633976
22896161 15 18409167753320393139
23081809 10 17822005385344534195
23424782 7 18341615979191779851
23559900 14 16845281796194738674
26918003 58 8286201647489433554
2916195 48 18410007754038324617
29717793 49 14979965787466815352
300161 21 15068340137532915498
3545911 37 18272372001212687426
4073 2 18113624490561421643
4325135 7 18411418449432809711
59755656 520 17822005436995541866

>  <PUBCHEM_SHAPE_MULTIPOLES>  (1) 
370.29
21.34
1.85
0.8
4.64
0.67
0
6.51
2.93
2.22
0.32
-0.4
0.07
0.88

>  <PUBCHEM_SHAPE_SELFOVERLAP>  (1) 
731.383

>  <PUBCHEM_SHAPE_VOLUME>  (1) 
222.1

>  <PUBCHEM_COORDINATE_TYPE>  (1) 
2
5
10

$$$$
