2018
     RDKit          3D

 14 14  0  0  0  0  0  0  0  0999 V2000
   -4.9887    0.4530    0.0867 O   0  0  0  0  0  0  0  0  0  0  0  0
   -3.2278    0.3753    1.5176 O   0  0  0  0  0  0  0  0  0  0  0  0
    3.5448    1.5452   -0.0988 O   0  0  0  0  0  0  0  0  0  0  0  0
    2.6917   -0.6326    0.1972 N   0  0  0  0  0  0  0  0  0  0  0  0
   -1.3997   -0.2100   -0.5744 C   0  0  0  0  0  0  0  0  0  0  0  0
    1.3278   -0.4917   -0.0604 C   0  0  0  0  0  0  0  0  0  0  0  0
   -2.8578   -0.0597   -0.8498 C   0  0  0  0  0  0  0  0  0  0  0  0
   -0.5562    0.8976   -0.6583 C   0  0  0  0  0  0  0  0  0  0  0  0
   -0.8796   -1.4586   -0.2334 C   0  0  0  0  0  0  0  0  0  0  0  0
    0.8076    0.7568   -0.4013 C   0  0  0  0  0  0  0  0  0  0  0  0
    0.4843   -1.5994    0.0235 C   0  0  0  0  0  0  0  0  0  0  0  0
   -3.6743    0.2743    0.3832 C   0  0  0  0  0  0  0  0  0  0  0  0
    3.6851    0.3551    0.1632 C   0  0  0  0  0  0  0  0  0  0  0  0
    5.0429   -0.2055    0.5049 C   0  0  0  0  0  0  0  0  0  0  0  0
  1 12  1  0
  2 12  2  0
  3 13  2  0
  4  6  1  0
  4 13  1  0
  5  7  1  0
  5  8  2  0
  5  9  1  0
  6 10  2  0
  6 11  1  0
  7 12  1  0
  8 10  1  0
  9 11  2  0
 13 14  1  0
M  END
>  <PUBCHEM_COMPOUND_CID>  (1) 
2018

>  <PUBCHEM_CONFORMER_RMSD>  (1) 
0.6

>  <PUBCHEM_CONFORMER_DIVERSEORDER>  (1) 
1
10
5
9
6
2
12
7
3
8
4
11

>  <PUBCHEM_MMFF94_PARTIAL_CHARGES>  (1) 
20
1 -0.65
10 -0.15
11 -0.15
12 0.66
13 0.57
14 0.06
17 0.15
18 0.15
19 0.15
2 -0.57
20 0.15
21 0.37
25 0.5
3 -0.57
4 -0.55
5 -0.14
6 0.12
7 0.2
8 -0.15
9 -0.15

>  <PUBCHEM_EFFECTIVE_ROTOR_COUNT>  (1) 
4

>  <PUBCHEM_PHARMACOPHORE_FEATURES>  (1) 
6
1 1 acceptor
1 2 acceptor
1 3 acceptor
1 4 donor
3 1 2 12 anion
6 5 6 8 9 10 11 rings

>  <PUBCHEM_HEAVY_ATOM_COUNT>  (1) 
14

>  <PUBCHEM_ATOM_DEF_STEREO_COUNT>  (1) 
0

>  <PUBCHEM_ATOM_UDEF_STEREO_COUNT>  (1) 
0

>  <PUBCHEM_BOND_DEF_STEREO_COUNT>  (1) 
0

>  <PUBCHEM_BOND_UDEF_STEREO_COUNT>  (1) 
0

>  <PUBCHEM_ISOTOPIC_ATOM_COUNT>  (1) 
0

>  <PUBCHEM_COMPONENT_COUNT>  (1) 
1

>  <PUBCHEM_CACTVS_TAUTO_COUNT>  (1) 
2

>  <PUBCHEM_CONFORMER_ID>  (1) 
000007E200000001

>  <PUBCHEM_MMFF94_ENERGY>  (1) 
32.9392

>  <PUBCHEM_FEATURE_SELFOVERLAP>  (1) 
30.504

>  <PUBCHEM_SHAPE_FINGERPRINT>  (1) 
10219947 1 18334014982083004143
10465860 250 16298385755946931533
11132069 177 18411127061386502700
114248 4 13902185989037210825
11543360 7 15554156086132832828
12119455 92 18408319982178006571
12251169 10 18113903775251938599
12346645 44 18202565042683178715
124424 183 16950563290144554381
13214271 11 18333449846413410759
13675066 3 17603580837876893678
13760787 5 18113612417581808598
14943859 89 17060618901641196470
15309172 13 18408321085953037527
16945 1 18334293154108733438
17834072 33 18059850714278462173
18186145 218 18342172272013983644
187816 3 11312055460858730791
19026448 4 15719663299582451718
19026448 5 17203603774663009486
20279233 1 17530970159631288011
204376 136 18409451405481461023
20645477 70 18189881033432413086
20671657 53 9511462229595780979
22854114 59 18408042901110887355
23402539 116 16988552520632950677
23559900 14 16153980236814335946
26918003 58 17167861958716042937
366044 4 18341891900469750270
5104073 3 18263916808577226482

>  <PUBCHEM_SHAPE_MULTIPOLES>  (1) 
265.52
8.81
1.27
0.88
1.83
0.23
-0.14
-1.97
-2.18
0.45
0.09
-0.61
-0.07
-0.25

>  <PUBCHEM_SHAPE_SELFOVERLAP>  (1) 
547.567

>  <PUBCHEM_SHAPE_VOLUME>  (1) 
151

>  <PUBCHEM_COORDINATE_TYPE>  (1) 
2
5
10

$$$$
