20194
     RDKit          3D

 30 32  0  0  1  0  0  0  0  0999 V2000
    3.1200    1.8152   -2.8903 Cl  0  0  0  0  0  0  0  0  0  0  0  0
    6.2520   -3.9731   -0.6862 Cl  0  0  0  0  0  0  0  0  0  0  0  0
    1.8201    5.4007    0.1950 Cl  0  0  0  0  0  0  0  0  0  0  0  0
   -4.6085   -2.6381   -0.6820 O   0  0  0  0  0  0  0  0  0  0  0  0
    3.2049   -1.3524   -0.4016 N   0  0  0  0  0  0  0  0  0  0  0  0
   -1.3501   -0.1669    2.3080 N   0  0  0  0  0  0  0  0  0  0  0  0
   -1.5192    1.9000   -1.3343 N   0  0  0  0  0  0  0  0  0  0  0  0
   -0.9387   -1.5275    2.3974 C   0  0  0  0  0  0  0  0  0  0  0  0
    0.5925   -1.6233    2.3596 C   0  0  0  0  0  0  0  0  0  0  0  0
    1.1578   -1.4563    0.9437 C   0  0  0  0  0  0  0  0  0  0  0  0
    2.6856   -1.4924    0.9538 C   0  0  0  0  0  0  0  0  0  0  0  0
   -1.4084    0.5344    1.0732 C   0  0  0  0  0  0  0  0  0  0  0  0
   -1.4903   -2.1187    3.6907 C   0  0  0  0  0  0  0  0  0  0  0  0
    3.1418    0.0442   -0.8359 C   0  0  0  0  0  0  0  0  0  0  0  0
    4.5805   -1.8469   -0.4801 C   0  0  0  0  0  0  0  0  0  0  0  0
   -2.2390    0.0680    0.0494 C   0  0  0  0  0  0  0  0  0  0  0  0
   -0.6333    1.6844    0.8922 C   0  0  0  0  0  0  0  0  0  0  0  0
   -2.2638    0.7919   -1.1547 C   0  0  0  0  0  0  0  0  0  0  0  0
   -0.7208    2.3450   -0.3448 C   0  0  0  0  0  0  0  0  0  0  0  0
    3.1769    0.1190   -2.3545 C   0  0  0  0  0  0  0  0  0  0  0  0
    4.5821   -3.3621   -0.6098 C   0  0  0  0  0  0  0  0  0  0  0  0
   -3.0286   -1.0847    0.2040 C   0  0  0  0  0  0  0  0  0  0  0  0
    0.2102    2.1755    1.9039 C   0  0  0  0  0  0  0  0  0  0  0  0
   -3.0887    0.3324   -2.1779 C   0  0  0  0  0  0  0  0  0  0  0  0
    0.0486    3.4904   -0.5313 C   0  0  0  0  0  0  0  0  0  0  0  0
   -3.8449   -1.5232   -0.8345 C   0  0  0  0  0  0  0  0  0  0  0  0
    0.9691    3.3227    1.6922 C   0  0  0  0  0  0  0  0  0  0  0  0
   -3.8747   -0.8128   -2.0277 C   0  0  0  0  0  0  0  0  0  0  0  0
    0.8878    3.9812    0.4719 C   0  0  0  0  0  0  0  0  0  0  0  0
   -5.4209   -3.0264   -1.7893 C   0  0  0  0  0  0  0  0  0  0  0  0
  1 20  1  0
  2 21  1  0
  3 29  1  0
  4 26  1  0
  4 30  1  0
  5 11  1  0
  5 14  1  0
  5 15  1  0
  6  8  1  0
  6 12  1  0
  7 18  2  0
  7 19  1  0
  8  9  1  0
  8 13  1  0
  9 10  1  0
 10 11  1  0
 12 16  2  0
 12 17  1  0
 14 20  1  0
 15 21  1  0
 16 18  1  0
 16 22  1  0
 17 19  2  0
 17 23  1  0
 18 24  1  0
 19 25  1  0
 22 26  2  0
 23 27  2  0
 24 28  2  0
 25 29  2  0
 26 28  1  0
 27 29  1  0
M  END
>  <PUBCHEM_COMPOUND_CID>  (1) 
20194

>  <PUBCHEM_CONFORMER_RMSD>  (1) 
1

>  <PUBCHEM_CONFORMER_DIVERSEORDER>  (1) 
1
159
175
143
181
231
9
24
141
33
167
56
177
62
180
3
26
196
154
61
12
171
130
174
97
217
132
131
2
15
169
225
8
95
43
144
178
156
11
123
236
25
112
173
92
224
17
238
166
210
211
100
93
59
212
87
160
65
188
106
206
118
67
71
191
155
158
5
151
147
4
229
91
140
209
63
193
239
237
170
199
157
126
31
194
109
6
137
205
213
226
223
227
197
104
16
215
114
204
68
208
165
39
88
78
54
50
10
214
30
66
20
163
98
73
117
176
29
96
21
69
129
99
234
47
85
134
75
81
195
105
168
70
60
128
28
184
41
77
58
233
101
161
149
53
90
124
37
127
7
185
219
182
74
218
222
32
40
120
22
110
125
135
189
207
220
146
80
111
18
138
187
19
64
82
228
107
186
44
102
201
164
14
203
83
27
142
235
79
38
57
150
136
45
198
48
183
108
232
42
216
122
190
116
119
202
172
200
89
133
230
121
13
179
148
115
76
221
192
152
113
72
84
35
36
86
23
34
46
153
55
145
139
94
162
103
52
49
51

>  <PUBCHEM_MMFF94_PARTIAL_CHARGES>  (1) 
32
1 -0.29
11 0.27
12 0.1
14 0.27
15 0.27
18 0.31
19 0.31
2 -0.29
20 0.29
21 0.29
22 -0.15
23 -0.15
24 -0.15
25 -0.15
26 0.08
27 -0.15
28 -0.15
29 0.18
3 -0.18
30 0.28
38 0.4
4 -0.36
5 -0.81
50 0.15
51 0.15
52 0.15
53 0.15
54 0.15
55 0.15
6 -0.87
7 -0.62
8 0.37

>  <PUBCHEM_EFFECTIVE_ROTOR_COUNT>  (1) 
11

>  <PUBCHEM_PHARMACOPHORE_FEATURES>  (1) 
8
1 4 acceptor
1 5 cation
1 6 cation
1 6 donor
1 7 acceptor
6 16 18 22 24 26 28 rings
6 17 19 23 25 27 29 rings
6 7 12 16 17 18 19 rings

>  <PUBCHEM_HEAVY_ATOM_COUNT>  (1) 
30

>  <PUBCHEM_ATOM_DEF_STEREO_COUNT>  (1) 
0

>  <PUBCHEM_ATOM_UDEF_STEREO_COUNT>  (1) 
1

>  <PUBCHEM_BOND_DEF_STEREO_COUNT>  (1) 
0

>  <PUBCHEM_BOND_UDEF_STEREO_COUNT>  (1) 
0

>  <PUBCHEM_ISOTOPIC_ATOM_COUNT>  (1) 
0

>  <PUBCHEM_COMPONENT_COUNT>  (1) 
1

>  <PUBCHEM_CACTVS_TAUTO_COUNT>  (1) 
2

>  <PUBCHEM_CONFORMER_ID>  (1) 
00004EE200000001

>  <PUBCHEM_MMFF94_ENERGY>  (1) 
101.9567

>  <PUBCHEM_FEATURE_SELFOVERLAP>  (1) 
40.657

>  <PUBCHEM_SHAPE_FINGERPRINT>  (1) 
11477941 20 18270122302123209542
11488393 25 18122054570691590451
11524674 6 17545865492487410952
11582403 64 12973881477470674707
11607047 141 18270125746925253851
12539773 59 17903932058262048676
12597179 24 17613990120357354137
12633257 1 14907881812954025702
12788726 201 17761757482465715757
133893 2 18127703839939148289
14068700 675 18263921047631196102
14659021 117 18194960739341804498
15475509 8 17985243202927126901
17909252 39 18194116545944390791
17980427 26 17622483779147206961
1813 80 17703795846549524127
19319366 153 17462271444999195609
20775438 99 17833813242553368703
22182313 1 17463980425001949795
23419403 2 17900565654400156515
238 59 18051696834609927504
24893989 43 15748289016040559644
4017518 198 17692806404646937344
469060 322 18059593359601319686
531348 171 17621043058639188030
57527295 17 18197797680777732925
57527585 103 17463450176629534570
66674814 147 15891655892001030214
6669772 16 17836640100064728692
70251023 43 18341046428079080187

>  <PUBCHEM_SHAPE_MULTIPOLES>  (1) 
602.18
9.14
5.96
3.08
5.5
5.77
1.13
-14.81
-7.48
4.63
0.4
-1.14
-0.95
-0.59

>  <PUBCHEM_SHAPE_SELFOVERLAP>  (1) 
1241.955

>  <PUBCHEM_SHAPE_VOLUME>  (1) 
351.3

>  <PUBCHEM_COORDINATE_TYPE>  (1) 
2
5
10

$$$$
