20199
     RDKit          3D

 27 29  0  0  0  0  0  0  0  0999 V2000
   -2.8635    0.0984    2.8894 O   0  0  0  0  0  0  0  0  0  0  0  0
    3.6841    3.4630   -1.5441 O   0  0  0  0  0  0  0  0  0  0  0  0
    4.4348    1.4957   -0.9235 O   0  0  0  0  0  0  0  0  0  0  0  0
   -1.5580    1.1920    1.2989 N   0  0  0  0  0  0  0  0  0  0  0  0
   -3.5060   -0.3689   -2.2945 N   0  0  0  0  0  0  0  0  0  0  0  0
    0.0084   -1.1928    2.3389 N   0  0  0  0  0  0  0  0  0  0  0  0
    3.5159    2.3475   -0.9945 N   0  0  0  0  0  0  0  0  0  0  0  0
   -2.7191    1.8802    0.7348 C   0  0  0  0  0  0  0  0  0  0  0  0
   -3.0013    1.4663   -0.7082 C   0  0  0  0  0  0  0  0  0  0  0  0
   -0.2730    1.4333    0.7010 C   0  0  0  0  0  0  0  0  0  0  0  0
   -3.2563   -0.0317   -0.8984 C   0  0  0  0  0  0  0  0  0  0  0  0
    0.7717    0.4856    0.7107 C   0  0  0  0  0  0  0  0  0  0  0  0
   -1.7568    0.3864    2.4262 C   0  0  0  0  0  0  0  0  0  0  0  0
    0.5906   -0.9049    1.2242 C   0  0  0  0  0  0  0  0  0  0  0  0
   -0.5130   -0.0972    3.1285 C   0  0  0  0  0  0  0  0  0  0  0  0
   -0.0304    2.6634    0.0578 C   0  0  0  0  0  0  0  0  0  0  0  0
    2.0287    0.8040    0.1649 C   0  0  0  0  0  0  0  0  0  0  0  0
    2.2476    2.0399   -0.4356 C   0  0  0  0  0  0  0  0  0  0  0  0
    1.0914   -2.0468    0.4056 C   0  0  0  0  0  0  0  0  0  0  0  0
    1.2146    2.9644   -0.5002 C   0  0  0  0  0  0  0  0  0  0  0  0
   -4.6894    0.3357   -2.7914 C   0  0  0  0  0  0  0  0  0  0  0  0
   -3.6722   -1.8147   -2.4541 C   0  0  0  0  0  0  0  0  0  0  0  0
    1.1266   -1.9357   -0.9791 C   0  0  0  0  0  0  0  0  0  0  0  0
    1.5178   -3.2092    1.0364 C   0  0  0  0  0  0  0  0  0  0  0  0
    1.5952   -3.0034   -1.7447 C   0  0  0  0  0  0  0  0  0  0  0  0
    1.9865   -4.2768    0.2707 C   0  0  0  0  0  0  0  0  0  0  0  0
    2.0251   -4.1738   -1.1198 C   0  0  0  0  0  0  0  0  0  0  0  0
  1 13  2  0
  2  7  1  0
  3  7  2  0
  4  8  1  0
  4 10  1  0
  4 13  1  0
  5 11  1  0
  5 21  1  0
  5 22  1  0
  6 14  2  0
  6 15  1  0
  7 18  1  0
  8  9  1  0
  9 11  1  0
 10 12  2  0
 10 16  1  0
 12 14  1  0
 12 17  1  0
 13 15  1  0
 14 19  1  0
 16 20  2  0
 17 18  2  0
 18 20  1  0
 19 23  2  0
 19 24  1  0
 23 25  1  0
 24 26  2  0
 25 27  2  0
 26 27  1  0
M  CHG  2   2  -1   7   1
M  END
>  <PUBCHEM_COMPOUND_CID>  (1) 
20199

>  <PUBCHEM_CONFORMER_RMSD>  (1) 
0.8

>  <PUBCHEM_CONFORMER_DIVERSEORDER>  (1) 
1
23
24
15
13
20
6
4
25
19
5
17
18
9
10
12
21
3
8
7
16
2
11
14
22

>  <PUBCHEM_MMFF94_PARTIAL_CHARGES>  (1) 
34
1 -0.57
10 0.12
11 0.27
12 0.09
13 0.57
14 0.28
15 0.31
16 -0.15
17 -0.15
18 0.13
19 0.09
2 -0.52
20 -0.15
21 0.27
22 0.27
23 -0.15
24 -0.15
25 -0.15
26 -0.15
27 -0.15
3 -0.52
36 0.15
37 0.15
38 0.15
4 -0.48
45 0.15
46 0.15
47 0.15
48 0.15
49 0.15
5 -0.81
6 -0.7
7 0.91
8 0.3

>  <PUBCHEM_EFFECTIVE_ROTOR_COUNT>  (1) 
6.4

>  <PUBCHEM_PHARMACOPHORE_FEATURES>  (1) 
9
1 1 acceptor
1 2 acceptor
1 2 anion
1 3 acceptor
1 5 cation
1 6 acceptor
6 10 12 16 17 18 20 rings
6 19 23 24 25 26 27 rings
7 4 6 10 12 13 14 15 rings

>  <PUBCHEM_HEAVY_ATOM_COUNT>  (1) 
27

>  <PUBCHEM_ATOM_DEF_STEREO_COUNT>  (1) 
0

>  <PUBCHEM_ATOM_UDEF_STEREO_COUNT>  (1) 
0

>  <PUBCHEM_BOND_DEF_STEREO_COUNT>  (1) 
0

>  <PUBCHEM_BOND_UDEF_STEREO_COUNT>  (1) 
0

>  <PUBCHEM_ISOTOPIC_ATOM_COUNT>  (1) 
0

>  <PUBCHEM_COMPONENT_COUNT>  (1) 
1

>  <PUBCHEM_CACTVS_TAUTO_COUNT>  (1) 
1

>  <PUBCHEM_CONFORMER_ID>  (1) 
00004EE700000001

>  <PUBCHEM_MMFF94_ENERGY>  (1) 
103.4735

>  <PUBCHEM_FEATURE_SELFOVERLAP>  (1) 
45.765

>  <PUBCHEM_SHAPE_FINGERPRINT>  (1) 
10764073 3 13122443047298096472
11477941 20 17403487086718720902
11578080 2 16298680382213878590
12035759 4 18273213092931829838
121448 382 18058452191148906608
12156800 1 16830891576614505496
13149001 5 17606133792096728915
13383661 66 17626395880121188591
133893 2 18338801104527282046
14856354 85 15478431355093698622
14863182 85 17696992103162481651
18603816 31 16625793935284712596
20600515 1 17197963103971529207
20602899 9 18126009509790103136
20775530 9 17628889293699690743
21304303 94 17189226818880471837
21421566 26 17405710281358454822
22182313 1 17533813496595560321
22907989 373 17687205478712135956
23419403 2 17751385930772018107
238 59 18261103123434832149
26353 1 17831567691741902108
340366 18 17836915716859119453
376196 1 17750776896031066221
404807 78 17176274524920373031
4280585 95 17833529229255734478
4409770 3 17832997413725405132
46194498 28 17970884718981102413
469060 322 17693367850581005367
57527293 21 17477462232897803866

>  <PUBCHEM_SHAPE_MULTIPOLES>  (1) 
518.12
6.35
5
2.93
4.73
0.09
1.4
2.03
-4.8
-6.42
-3.05
2.4
0.73
-2.69

>  <PUBCHEM_SHAPE_SELFOVERLAP>  (1) 
1109.189

>  <PUBCHEM_SHAPE_VOLUME>  (1) 
286.6

>  <PUBCHEM_COORDINATE_TYPE>  (1) 
2
5
10

$$$$
