20217
     RDKit          3D

 11 11  0  0  0  0  0  0  0  0999 V2000
    0.3858    0.6014   -0.6371 O   0  0  0  0  0  0  0  0  0  0  0  0
    3.7667   -0.5697    0.2402 N   0  0  0  0  0  0  0  0  0  0  0  0
    4.9670    0.1680    0.4739 N   0  0  0  0  0  0  0  0  0  0  0  0
    1.3956   -0.3586   -0.3298 C   0  0  0  0  0  0  0  0  0  0  0  0
    2.7083    0.3714   -0.0945 C   0  0  0  0  0  0  0  0  0  0  0  0
   -0.8931    0.2869   -0.2934 C   0  0  0  0  0  0  0  0  0  0  0  0
   -1.3007   -1.0469   -0.2689 C   0  0  0  0  0  0  0  0  0  0  0  0
   -1.7962    1.2983    0.0334 C   0  0  0  0  0  0  0  0  0  0  0  0
   -2.6116   -1.3692    0.0823 C   0  0  0  0  0  0  0  0  0  0  0  0
   -3.1071    0.9761    0.3848 C   0  0  0  0  0  0  0  0  0  0  0  0
   -3.5147   -0.3577    0.4091 C   0  0  0  0  0  0  0  0  0  0  0  0
  1  4  1  0
  1  6  1  0
  2  3  1  0
  2  5  1  0
  4  5  1  0
  6  7  2  0
  6  8  1  0
  7  9  1  0
  8 10  2  0
  9 11  2  0
 10 11  1  0
M  END
>  <PUBCHEM_COMPOUND_CID>  (1) 
20217

>  <PUBCHEM_CONFORMER_RMSD>  (1) 
0.6

>  <PUBCHEM_CONFORMER_DIVERSEORDER>  (1) 
1
17
18
24
12
22
2
9
15
23
5
10
26
4
20
25
3
6
7
14
13
21
19
8
11
16

>  <PUBCHEM_MMFF94_PARTIAL_CHARGES>  (1) 
19
1 -0.36
10 -0.15
11 -0.15
16 0.15
17 0.15
18 0.36
19 0.15
2 -0.63
20 0.15
21 0.15
22 0.36
23 0.36
3 -0.72
4 0.28
5 0.27
6 0.08
7 -0.15
8 -0.15
9 -0.15

>  <PUBCHEM_EFFECTIVE_ROTOR_COUNT>  (1) 
4

>  <PUBCHEM_PHARMACOPHORE_FEATURES>  (1) 
4
1 1 acceptor
1 2 donor
1 3 donor
6 6 7 8 9 10 11 rings

>  <PUBCHEM_HEAVY_ATOM_COUNT>  (1) 
11

>  <PUBCHEM_ATOM_DEF_STEREO_COUNT>  (1) 
0

>  <PUBCHEM_ATOM_UDEF_STEREO_COUNT>  (1) 
0

>  <PUBCHEM_BOND_DEF_STEREO_COUNT>  (1) 
0

>  <PUBCHEM_BOND_UDEF_STEREO_COUNT>  (1) 
0

>  <PUBCHEM_ISOTOPIC_ATOM_COUNT>  (1) 
0

>  <PUBCHEM_COMPONENT_COUNT>  (1) 
1

>  <PUBCHEM_CACTVS_TAUTO_COUNT>  (1) 
1

>  <PUBCHEM_CONFORMER_ID>  (1) 
00004EF900000001

>  <PUBCHEM_MMFF94_ENERGY>  (1) 
26.6188

>  <PUBCHEM_FEATURE_SELFOVERLAP>  (1) 
21.617

>  <PUBCHEM_SHAPE_FINGERPRINT>  (1) 
12251169 10 18410856572799076108
12932764 1 17458053868191504436
13024252 1 14562530674474164813
14325111 11 18411703170834895340
15219456 202 17917439665798544318
20279233 1 17918280839396085718
20645464 45 17917998269482224271
20711985 327 17530970197979954684
20828058 44 18409727357483416618
20871998 184 18130514136289399087
21119208 17 9943806685995631650
22485316 2 17894624838503717866
23402539 116 18273207604607034813
449060 50 18060421317948072148

>  <PUBCHEM_SHAPE_MULTIPOLES>  (1) 
210.54
7.72
1.24
0.7
9.85
0.04
0.01
0.19
-1.9
-1.03
-0.01
-0.01
-0.01
-0.07

>  <PUBCHEM_SHAPE_SELFOVERLAP>  (1) 
421.53

>  <PUBCHEM_SHAPE_VOLUME>  (1) 
124.9

>  <PUBCHEM_COORDINATE_TYPE>  (1) 
2
5
10

$$$$
