20210
     RDKit          3D

  9  8  0  0  0  0  0  0  0  0999 V2000
   -5.0478    0.5843   -0.0235 Br  0  0  0  0  0  0  0  0  0  0  0  0
    3.9661   -0.6668   -0.0161 O   0  0  0  0  0  0  0  0  0  0  0  0
    2.9504    1.3631    0.0118 O   0  0  0  0  0  0  0  0  0  0  0  0
   -0.9521   -0.6188   -0.0059 C   0  0  0  0  0  0  0  0  0  0  0  0
    0.3354    0.2131   -0.0034 C   0  0  0  0  0  0  0  0  0  0  0  0
   -2.2229    0.2357    0.0010 C   0  0  0  0  0  0  0  0  0  0  0  0
    1.5921   -0.6592   -0.0018 C   0  0  0  0  0  0  0  0  0  0  0  0
   -3.4960   -0.5938    0.0310 C   0  0  0  0  0  0  0  0  0  0  0  0
    2.8747    0.1424    0.0068 C   0  0  0  0  0  0  0  0  0  0  0  0
  1  8  1  0
  2  9  1  0
  3  9  2  0
  4  5  1  0
  4  6  1  0
  5  7  1  0
  6  8  1  0
  7  9  1  0
M  END
>  <PUBCHEM_COMPOUND_CID>  (1) 
20210

>  <PUBCHEM_CONFORMER_RMSD>  (1) 
0.6

>  <PUBCHEM_CONFORMER_DIVERSEORDER>  (1) 
1
70
17
43
73
46
30
68
6
69
27
41
29
66
50
18
62
71
10
15
2
33
72
28
57
11
39
56
3
53
38
4
51
19
35
23
25
31
37
67
58
42
8
13
65
24
60
9
7
14
12
63
22
36
61
5
49
34
64
32
48
20
47
44
59
45
55
26
40
54
21
52
16

>  <PUBCHEM_MMFF94_PARTIAL_CHARGES>  (1) 
7
1 -0.23
2 -0.65
20 0.5
3 -0.57
7 0.06
8 0.23
9 0.66

>  <PUBCHEM_EFFECTIVE_ROTOR_COUNT>  (1) 
5

>  <PUBCHEM_PHARMACOPHORE_FEATURES>  (1) 
5
1 1 hydrophobe
1 2 acceptor
1 3 acceptor
3 2 3 9 anion
4 4 5 6 7 hydrophobe

>  <PUBCHEM_HEAVY_ATOM_COUNT>  (1) 
9

>  <PUBCHEM_ATOM_DEF_STEREO_COUNT>  (1) 
0

>  <PUBCHEM_ATOM_UDEF_STEREO_COUNT>  (1) 
0

>  <PUBCHEM_BOND_DEF_STEREO_COUNT>  (1) 
0

>  <PUBCHEM_BOND_UDEF_STEREO_COUNT>  (1) 
0

>  <PUBCHEM_ISOTOPIC_ATOM_COUNT>  (1) 
0

>  <PUBCHEM_COMPONENT_COUNT>  (1) 
1

>  <PUBCHEM_CACTVS_TAUTO_COUNT>  (1) 
1

>  <PUBCHEM_CONFORMER_ID>  (1) 
00004EF200000001

>  <PUBCHEM_MMFF94_ENERGY>  (1) 
2.3668

>  <PUBCHEM_FEATURE_SELFOVERLAP>  (1) 
25.43

>  <PUBCHEM_SHAPE_FINGERPRINT>  (1) 
11062470 55 18410012139484666319
12932764 1 17168409541318670506
14123238 8 11530485527971061635
14325111 11 18410856585599646827
17834072 33 18201996673108530735
17834076 25 16950285096227523647
190213 19 17274825761475683887
20645477 70 18200877262465405519
20719005 15 18410575085211724579
21293036 1 12967128311306792567
22485316 2 18411697695036695787
23402539 116 17774995774505170637
23402655 69 18272369784592922293
42788 4 18410573985177837903

>  <PUBCHEM_SHAPE_MULTIPOLES>  (1) 
179.42
9.55
1
0.61
4.79
0.16
0
1.33
0.04
-0.27
0
0.16
0
0.02

>  <PUBCHEM_SHAPE_SELFOVERLAP>  (1) 
311.278

>  <PUBCHEM_SHAPE_VOLUME>  (1) 
120.2

>  <PUBCHEM_COORDINATE_TYPE>  (1) 
2
5
10

$$$$
