20228
     RDKit          3D

 18 18  0  0  1  0  0  0  0  0999 V2000
    4.2556   -3.5202    0.1819 Cl  0  0  0  0  0  0  0  0  0  0  0  0
    4.3290    1.9829   -1.0236 F   0  0  0  0  0  0  0  0  0  0  0  0
   -5.9977    0.4224    1.0864 O   0  0  0  0  0  0  0  0  0  0  0  0
   -5.8013   -0.8346   -0.7952 O   0  0  0  0  0  0  0  0  0  0  0  0
    2.6266    0.1749    0.2434 N   0  0  0  0  0  0  0  0  0  0  0  0
    1.2341    0.2110    0.0228 C   0  0  0  0  0  0  0  0  0  0  0  0
    3.4137   -0.9518   -0.2171 C   0  0  0  0  0  0  0  0  0  0  0  0
    3.2869    1.2572    0.9458 C   0  0  0  0  0  0  0  0  0  0  0  0
   -1.5204    0.2828   -0.4138 C   0  0  0  0  0  0  0  0  0  0  0  0
   -2.9929    0.3207   -0.6462 C   0  0  0  0  0  0  0  0  0  0  0  0
    0.4830    1.2932    0.4817 C   0  0  0  0  0  0  0  0  0  0  0  0
    0.6078   -0.8354   -0.6545 C   0  0  0  0  0  0  0  0  0  0  0  0
   -0.8942    1.3291    0.2635 C   0  0  0  0  0  0  0  0  0  0  0  0
   -0.7695   -0.7994   -0.8728 C   0  0  0  0  0  0  0  0  0  0  0  0
    3.3003   -2.1253    0.7432 C   0  0  0  0  0  0  0  0  0  0  0  0
    3.5419    2.4128   -0.0006 C   0  0  0  0  0  0  0  0  0  0  0  0
   -3.8118   -0.3263    0.4771 C   0  0  0  0  0  0  0  0  0  0  0  0
   -5.2911   -0.2941    0.1779 C   0  0  0  0  0  0  0  0  0  0  0  0
  1 15  1  0
  2 16  1  0
  3 18  1  0
  4 18  2  0
  5  6  1  0
  5  7  1  0
  5  8  1  0
  6 11  2  0
  6 12  1  0
  7 15  1  0
  8 16  1  0
  9 10  1  0
  9 13  2  0
  9 14  1  0
 10 17  1  0
 11 13  1  0
 12 14  2  0
 17 18  1  0
M  END
>  <PUBCHEM_COMPOUND_CID>  (1) 
20228

>  <PUBCHEM_CONFORMER_RMSD>  (1) 
0.8

>  <PUBCHEM_CONFORMER_DIVERSEORDER>  (1) 
4
151
40
53
118
47
150
37
57
66
79
33
111
50
38
77
19
34
129
148
156
149
55
11
92
161
72
135
159
88
141
115
97
68
127
112
87
80
70
65
31
84
58
99
113
154
124
120
145
157
130
45
74
48
122
75
109
5
61
104
147
128
90
94
114
160
15
139
146
8
78
81
125
98
83
63
71
137
95
138
18
2
91
73
28
126
119
35
96
123
10
67
155
51
86
16
26
1
102
22
107
103
117
108
54
9
27
158
69
110
144
6
142
7
44
3
134
131
152
136
101
17
23
153
76
56
36
133
49
121
132
140
60
62
143
21
32
89
29
85
39
59
24
100
43
14
82
30
12
52
116
41
64
42
93
13
20
106
46
25
105

>  <PUBCHEM_MMFF94_PARTIAL_CHARGES>  (1) 
23
1 -0.29
10 0.14
11 -0.15
12 -0.15
13 -0.15
14 -0.15
15 0.29
16 0.34
17 0.06
18 0.66
2 -0.34
25 0.15
26 0.15
27 0.15
28 0.15
3 -0.65
35 0.5
4 -0.57
5 -0.84
6 0.1
7 0.37
8 0.37
9 -0.14

>  <PUBCHEM_EFFECTIVE_ROTOR_COUNT>  (1) 
8

>  <PUBCHEM_PHARMACOPHORE_FEATURES>  (1) 
5
1 3 acceptor
1 4 acceptor
1 5 cation
3 3 4 18 anion
6 6 9 11 12 13 14 rings

>  <PUBCHEM_HEAVY_ATOM_COUNT>  (1) 
18

>  <PUBCHEM_ATOM_DEF_STEREO_COUNT>  (1) 
0

>  <PUBCHEM_ATOM_UDEF_STEREO_COUNT>  (1) 
0

>  <PUBCHEM_BOND_DEF_STEREO_COUNT>  (1) 
0

>  <PUBCHEM_BOND_UDEF_STEREO_COUNT>  (1) 
0

>  <PUBCHEM_ISOTOPIC_ATOM_COUNT>  (1) 
0

>  <PUBCHEM_COMPONENT_COUNT>  (1) 
1

>  <PUBCHEM_CACTVS_TAUTO_COUNT>  (1) 
1

>  <PUBCHEM_CONFORMER_ID>  (1) 
00004F0400000004

>  <PUBCHEM_MMFF94_ENERGY>  (1) 
46.831

>  <PUBCHEM_FEATURE_SELFOVERLAP>  (1) 
25.43

>  <PUBCHEM_SHAPE_FINGERPRINT>  (1) 
10912923 1 17988925587474274979
11796584 16 17603299341700043403
12107183 9 17982458092412630769
12616971 3 17988635273243957335
12644460 14 18412548725462804160
12730499 353 18262526995524912448
13009979 54 17843969139848550824
13140716 1 17911224341589787792
13533116 47 18411419501383292715
13760787 19 18270680994756686087
13760787 5 18343293773811096229
13955234 65 18410570708719184784
14252887 29 18040997353784307281
14790565 3 17761216909191777388
17834072 33 17988079002075353397
17844677 252 18334576807161604709
19026448 4 17749661922557259269
20281475 54 18271796947825154783
20559304 39 18342732988948440232
20645477 70 18335414651848281090
21267235 1 18270401578050907518
220451 1 18272093833624564727
23402539 116 8141820356773555515
23557571 272 17240193326933681957
23559900 14 18262227820587132682
239999 70 17821727247710270018
25147074 1 17916567860663059502
31174 14 18336256873792343892
312423 11 18340774732389507080
3421961 26 18338793421353328002
34797466 226 16660373597035845727
4340502 62 17822008756687983986
45790113 50 18340483383377727276
465052 167 18341616975281515646
5104073 3 18202848751681252507
6025842 7 18335701667744052550
7364860 26 18341604907366938266
7970288 3 18049718525630138882
8272917 22 18410014351303191998
90127 26 17894347748889433773

>  <PUBCHEM_SHAPE_MULTIPOLES>  (1) 
348.31
11.83
2.64
0.94
15.76
1.12
0.01
3.36
1.38
-5.95
0.15
0.15
-0.04
-0.75

>  <PUBCHEM_SHAPE_SELFOVERLAP>  (1) 
693.288

>  <PUBCHEM_SHAPE_VOLUME>  (1) 
207.1

>  <PUBCHEM_COORDINATE_TYPE>  (1) 
2
5
10

$$$$
