20227
     RDKit          3D

 18 20  0  0  0  0  0  0  0  0999 V2000
    3.0374    2.3862    0.0027 O   0  0  0  0  0  0  0  0  0  0  0  0
    2.5452    0.0820   -0.0006 N   0  0  0  0  0  0  0  0  0  0  0  0
   -0.9863   -1.1413    0.0001 C   0  0  0  0  0  0  0  0  0  0  0  0
   -1.6741    0.1237    0.0000 C   0  0  0  0  0  0  0  0  0  0  0  0
    0.4330   -1.1577   -0.0003 C   0  0  0  0  0  0  0  0  0  0  0  0
   -0.9163    1.3238   -0.0003 C   0  0  0  0  0  0  0  0  0  0  0  0
    1.1441    0.0449   -0.0006 C   0  0  0  0  0  0  0  0  0  0  0  0
    0.4798    1.2670   -0.0006 C   0  0  0  0  0  0  0  0  0  0  0  0
   -1.6371   -2.4006    0.0005 C   0  0  0  0  0  0  0  0  0  0  0  0
    1.1340   -2.3757   -0.0004 C   0  0  0  0  0  0  0  0  0  0  0  0
   -3.0848    0.2621    0.0001 C   0  0  0  0  0  0  0  0  0  0  0  0
   -1.5574    2.5745   -0.0003 C   0  0  0  0  0  0  0  0  0  0  0  0
   -0.9277   -3.6047    0.0006 C   0  0  0  0  0  0  0  0  0  0  0  0
    0.4585   -3.5921    0.0001 C   0  0  0  0  0  0  0  0  0  0  0  0
   -3.7098    1.5122    0.0001 C   0  0  0  0  0  0  0  0  0  0  0  0
   -2.9456    2.6687   -0.0002 C   0  0  0  0  0  0  0  0  0  0  0  0
    3.3746    1.2067   -0.0005 C   0  0  0  0  0  0  0  0  0  0  0  0
    4.8323    0.8203   -0.0005 C   0  0  0  0  0  0  0  0  0  0  0  0
  1 17  2  0
  2  7  1  0
  2 17  1  0
  3  4  2  0
  3  5  1  0
  3  9  1  0
  4  6  1  0
  4 11  1  0
  5  7  2  0
  5 10  1  0
  6  8  2  0
  6 12  1  0
  7  8  1  0
  9 13  2  0
 10 14  2  0
 11 15  2  0
 12 16  2  0
 13 14  1  0
 15 16  1  0
 17 18  1  0
M  END
>  <PUBCHEM_COMPOUND_CID>  (1) 
20227

>  <PUBCHEM_CONFORMER_RMSD>  (1) 
0.6

>  <PUBCHEM_CONFORMER_DIVERSEORDER>  (1) 
1
2
3

>  <PUBCHEM_MMFF94_PARTIAL_CHARGES>  (1) 
24
1 -0.57
10 -0.15
11 -0.15
12 -0.15
13 -0.15
14 -0.15
15 -0.15
16 -0.15
17 0.57
18 0.06
19 0.15
2 -0.55
20 0.15
21 0.15
22 0.15
23 0.15
24 0.37
25 0.15
26 0.15
27 0.15
28 0.15
7 0.12
8 -0.15
9 -0.15

>  <PUBCHEM_EFFECTIVE_ROTOR_COUNT>  (1) 
2

>  <PUBCHEM_PHARMACOPHORE_FEATURES>  (1) 
5
1 1 acceptor
1 2 donor
6 3 4 5 6 7 8 rings
6 3 5 9 10 13 14 rings
6 4 6 11 12 15 16 rings

>  <PUBCHEM_HEAVY_ATOM_COUNT>  (1) 
18

>  <PUBCHEM_ATOM_DEF_STEREO_COUNT>  (1) 
0

>  <PUBCHEM_ATOM_UDEF_STEREO_COUNT>  (1) 
0

>  <PUBCHEM_BOND_DEF_STEREO_COUNT>  (1) 
0

>  <PUBCHEM_BOND_UDEF_STEREO_COUNT>  (1) 
0

>  <PUBCHEM_ISOTOPIC_ATOM_COUNT>  (1) 
0

>  <PUBCHEM_COMPONENT_COUNT>  (1) 
1

>  <PUBCHEM_CACTVS_TAUTO_COUNT>  (1) 
2

>  <PUBCHEM_CONFORMER_ID>  (1) 
00004F0300000001

>  <PUBCHEM_MMFF94_ENERGY>  (1) 
68.7663

>  <PUBCHEM_FEATURE_SELFOVERLAP>  (1) 
25.42

>  <PUBCHEM_SHAPE_FINGERPRINT>  (1) 
10319926 262 18126825314150523592
10411042 1 17545884192922606346
10493431 412 18341058479620325249
10967382 1 17834114139244558051
1100329 8 18050289468796174907
12173636 292 18338794619306409772
12553582 1 17328874699438844590
12788726 201 17829326131663123938
13140716 1 18050294957479393489
13380535 76 18410572864180824136
13583140 156 17022893575471499057
138480 1 17546164099781936706
14178342 30 18192973032845711424
14508225 48 17765705115598064343
14648413 74 17832427501492788465
14790565 3 18338808935012935089
15042514 8 18192716858714641890
15309172 13 18411146818104630921
16110190 28 18047160010118305034
16945 1 17690280404986899085
18785283 64 17975990768975447985
193761 8 18338516335548499879
19591789 44 18411141320282318955
20510252 161 18198346345326698680
20645477 70 17974563599115258397
21029758 11 17691397933749781127
21041028 32 17541110100301637331
21524375 3 18272649030376059276
2255824 54 17980198578478900599
2334 1 17762056936164601165
23366157 5 17826522058636199002
23402539 116 18127404768813793759
23419403 2 16312530822725191386
23557571 272 17983029035411167148
23558518 356 18045219590642141512
23559900 14 17762327025246255337
257057 1 17475230683353122039
2748010 2 18264785284923554919
3071541 12 17979357451983269199
3091708 16 9267278276356973707
350125 39 18265901258781012427
352729 6 18410576227150759916
43471831 8 18336826394750296371
458136 41 18195543509862369505
474229 33 18409450314949800747
54173680 148 18122062271609694786
5939293 188 17473821728185464787
6138700 20 17979642234945375246
7364860 26 17978792311485698685
81228 2 17907565183797546514
84936 182 18056754330236330992
9709674 26 18271812384327883494
9981440 41 18409162177877479947

>  <PUBCHEM_SHAPE_MULTIPOLES>  (1) 
359.58
5.88
4.35
0.61
3.65
3.66
0
-5.76
0
-0.24
0
-0.03
0.02
0

>  <PUBCHEM_SHAPE_SELFOVERLAP>  (1) 
800.776

>  <PUBCHEM_SHAPE_VOLUME>  (1) 
191.7

>  <PUBCHEM_COORDINATE_TYPE>  (1) 
2
5
10

$$$$
