20220
     RDKit          3D

 22 24  0  0  0  0  0  0  0  0999 V2000
    0.5663    2.5797   -0.2471 O   0  0  0  0  0  0  0  0  0  0  0  0
   -0.2610    0.4647    0.2287 N   0  0  0  0  0  0  0  0  0  0  0  0
   -4.6140    0.9341    0.1962 N   0  0  0  0  0  0  0  0  0  0  0  0
    1.9882   -1.1803   -0.9602 N   0  0  0  0  0  0  0  0  0  0  0  0
   -1.5959    1.0527    0.4326 C   0  0  0  0  0  0  0  0  0  0  0  0
   -2.3888    1.1701   -0.8677 C   0  0  0  0  0  0  0  0  0  0  0  0
   -0.1820   -0.9755    0.2523 C   0  0  0  0  0  0  0  0  0  0  0  0
   -3.7982    1.7451   -0.6994 C   0  0  0  0  0  0  0  0  0  0  0  0
    0.8195   -1.7157   -0.3979 C   0  0  0  0  0  0  0  0  0  0  0  0
    0.7738    1.3839   -0.0087 C   0  0  0  0  0  0  0  0  0  0  0  0
    2.2001    1.0238    0.1009 C   0  0  0  0  0  0  0  0  0  0  0  0
    2.7488   -0.1162   -0.4733 C   0  0  0  0  0  0  0  0  0  0  0  0
   -1.2371   -1.7048    0.8577 C   0  0  0  0  0  0  0  0  0  0  0  0
    0.7135   -3.1297   -0.4460 C   0  0  0  0  0  0  0  0  0  0  0  0
    3.0451    1.9915    0.6814 C   0  0  0  0  0  0  0  0  0  0  0  0
    4.1526   -0.2601   -0.4689 C   0  0  0  0  0  0  0  0  0  0  0  0
   -1.3146   -3.0983    0.8129 C   0  0  0  0  0  0  0  0  0  0  0  0
   -4.7630   -0.4239   -0.3299 C   0  0  0  0  0  0  0  0  0  0  0  0
   -5.9281    1.5483    0.3948 C   0  0  0  0  0  0  0  0  0  0  0  0
   -0.3396   -3.8152    0.1481 C   0  0  0  0  0  0  0  0  0  0  0  0
    4.4285    1.8260    0.6898 C   0  0  0  0  0  0  0  0  0  0  0  0
    4.9859    0.6998    0.1038 C   0  0  0  0  0  0  0  0  0  0  0  0
  1 10  2  0
  2  5  1  0
  2  7  1  0
  2 10  1  0
  3  8  1  0
  3 18  1  0
  3 19  1  0
  4  9  1  0
  4 12  1  0
  5  6  1  0
  6  8  1  0
  7  9  2  0
  7 13  1  0
  9 14  1  0
 10 11  1  0
 11 12  2  0
 11 15  1  0
 12 16  1  0
 13 17  2  0
 14 20  2  0
 15 21  2  0
 16 22  2  0
 17 20  1  0
 21 22  1  0
M  END
>  <PUBCHEM_COMPOUND_CID>  (1) 
20220

>  <PUBCHEM_CONFORMER_RMSD>  (1) 
0.8

>  <PUBCHEM_CONFORMER_DIVERSEORDER>  (1) 
9
15
12
16
11
10
21
1
7
2
5
8
13
19
14
6
20
3
17
18
4

>  <PUBCHEM_MMFF94_PARTIAL_CHARGES>  (1) 
30
1 -0.57
10 0.54
11 0.09
12 0.1
13 -0.15
14 -0.15
15 -0.15
16 -0.15
17 -0.15
18 0.27
19 0.27
2 -0.48
20 -0.15
21 -0.15
22 -0.15
29 0.4
3 -0.81
30 0.15
31 0.15
32 0.15
33 0.15
34 0.15
4 -0.6
41 0.15
42 0.15
43 0.15
5 0.3
7 0.12
8 0.27
9 0.1

>  <PUBCHEM_EFFECTIVE_ROTOR_COUNT>  (1) 
4.4

>  <PUBCHEM_PHARMACOPHORE_FEATURES>  (1) 
7
1 1 acceptor
1 3 cation
1 4 cation
1 4 donor
6 11 12 15 16 21 22 rings
6 7 9 13 14 17 20 rings
7 2 4 7 9 10 11 12 rings

>  <PUBCHEM_HEAVY_ATOM_COUNT>  (1) 
22

>  <PUBCHEM_ATOM_DEF_STEREO_COUNT>  (1) 
0

>  <PUBCHEM_ATOM_UDEF_STEREO_COUNT>  (1) 
0

>  <PUBCHEM_BOND_DEF_STEREO_COUNT>  (1) 
0

>  <PUBCHEM_BOND_UDEF_STEREO_COUNT>  (1) 
0

>  <PUBCHEM_ISOTOPIC_ATOM_COUNT>  (1) 
0

>  <PUBCHEM_COMPONENT_COUNT>  (1) 
1

>  <PUBCHEM_CACTVS_TAUTO_COUNT>  (1) 
2

>  <PUBCHEM_CONFORMER_ID>  (1) 
00004EFC00000009

>  <PUBCHEM_MMFF94_ENERGY>  (1) 
99.2991

>  <PUBCHEM_FEATURE_SELFOVERLAP>  (1) 
35.536

>  <PUBCHEM_SHAPE_FINGERPRINT>  (1) 
10411042 1 17474954225073169879
10693767 8 17915174607363359806
108634 29 18340775939159506854
10906281 52 18270698540099406436
11370993 70 18411135848657585649
11578080 2 16841904220490107978
12011746 2 18341902870506950660
12035758 1 18409451431040151897
12236239 1 17417811708514016969
12553582 1 17041763089575225531
12730499 353 18337399236403628185
12788726 201 17685207670495179978
13034934 17 18262534666537152083
13140716 1 18410013195920521122
13402501 40 18408888455875946065
13540713 4 18057331793870266316
13583140 156 16515947259727481989
138480 1 17762054337599123979
14178342 30 17694490456558765760
14787075 74 18201432610352709453
14790565 3 18410298016629620061
15664445 248 17409941232515386159
16728300 4 17244958473506630090
16945 1 17907301305861055534
173720 79 17968363619848210810
19591789 44 18337669707067575366
20028762 73 18198904889356376607
20567600 347 18041280967992400251
21197605 99 18269279135371250703
21421861 104 17830739751054787201
22182313 1 18268170771161697878
22224240 67 18410290329186279929
22956985 138 17315907759454916923
23402539 116 18341324561006784173
23558518 356 17900822965547786021
23559900 14 18413392051720143124
2748010 2 18340506533457427750
3323516 105 18337677387022982207
335352 9 18411702072072373614
33824 294 18337392626158861083
34934 24 18334291015911241824
38695281 34 18130786729273553311
42630746 31 18342455894347910453
4340502 62 18411142420347919085
474229 33 18408318917400442583
495365 180 17489013955662177096
5104073 3 18117566133153245841
59755656 215 18337390427362978853
59755656 520 18334570257104265798
6138700 20 18267305335784225950
633830 44 18272926103338670757
81228 2 17755850171550891323

>  <PUBCHEM_SHAPE_MULTIPOLES>  (1) 
431.94
9.58
3.76
0.87
6.05
3.73
0
-7.64
0.28
0.67
0.34
0.02
0.06
0.96

>  <PUBCHEM_SHAPE_SELFOVERLAP>  (1) 
923.84

>  <PUBCHEM_SHAPE_VOLUME>  (1) 
238.4

>  <PUBCHEM_COORDINATE_TYPE>  (1) 
2
5
10

$$$$
