20233
     RDKit          3D

 19 20  0  0  0  0  0  0  0  0999 V2000
    4.4144   -1.7958    1.2165 F   0  0  0  0  0  0  0  0  0  0  0  0
    2.0508   -1.0603   -0.0059 O   0  0  0  0  0  0  0  0  0  0  0  0
    0.3498   -2.0848   -1.1705 O   0  0  0  0  0  0  0  0  0  0  0  0
   -0.1423   -0.2707    0.4229 C   0  0  0  0  0  0  0  0  0  0  0  0
    0.1828    1.1717    0.2269 C   0  0  0  0  0  0  0  0  0  0  0  0
   -1.6340   -0.5823    0.2345 C   0  0  0  0  0  0  0  0  0  0  0  0
    0.7445   -1.2485   -0.3677 C   0  0  0  0  0  0  0  0  0  0  0  0
   -0.0489    2.0848    1.2556 C   0  0  0  0  0  0  0  0  0  0  0  0
   -2.3028    0.0252   -0.7999 C   0  0  0  0  0  0  0  0  0  0  0  0
    0.7190    1.6076   -0.9848 C   0  0  0  0  0  0  0  0  0  0  0  0
   -2.2347   -1.4553    1.1083 C   0  0  0  0  0  0  0  0  0  0  0  0
    0.2552    3.4338    1.0726 C   0  0  0  0  0  0  0  0  0  0  0  0
   -3.6578   -0.2579   -0.9712 C   0  0  0  0  0  0  0  0  0  0  0  0
    1.0231    2.9565   -1.1678 C   0  0  0  0  0  0  0  0  0  0  0  0
   -3.5898   -1.7383    0.9368 C   0  0  0  0  0  0  0  0  0  0  0  0
    0.7911    3.8696   -0.1389 C   0  0  0  0  0  0  0  0  0  0  0  0
   -4.3013   -1.1396   -0.1030 C   0  0  0  0  0  0  0  0  0  0  0  0
    2.9987   -1.9275   -0.6362 C   0  0  0  0  0  0  0  0  0  0  0  0
    4.3822   -1.5882   -0.1284 C   0  0  0  0  0  0  0  0  0  0  0  0
  1 19  1  0
  2  7  1  0
  2 18  1  0
  3  7  2  0
  4  5  1  0
  4  6  1  0
  4  7  1  0
  5  8  2  0
  5 10  1  0
  6  9  2  0
  6 11  1  0
  8 12  1  0
  9 13  1  0
 10 14  2  0
 11 15  2  0
 12 16  2  0
 13 17  2  0
 14 16  1  0
 15 17  1  0
 18 19  1  0
M  END
>  <PUBCHEM_COMPOUND_CID>  (1) 
20233

>  <PUBCHEM_CONFORMER_RMSD>  (1) 
0.8

>  <PUBCHEM_CONFORMER_DIVERSEORDER>  (1) 
1
25
32
5
29
11
23
22
18
14
9
13
30
2
20
10
17
24
28
6
7
26
21
34
12
31
33
16
4
19
15
27
8
3

>  <PUBCHEM_MMFF94_PARTIAL_CHARGES>  (1) 
29
1 -0.34
10 -0.15
11 -0.15
12 -0.15
13 -0.15
14 -0.15
15 -0.15
16 -0.15
17 -0.15
18 0.28
19 0.34
2 -0.43
21 0.15
22 0.15
23 0.15
24 0.15
25 0.15
26 0.15
27 0.15
28 0.15
29 0.15
3 -0.57
30 0.15
4 0.35
5 -0.14
6 -0.14
7 0.66
8 -0.15
9 -0.15

>  <PUBCHEM_EFFECTIVE_ROTOR_COUNT>  (1) 
6

>  <PUBCHEM_PHARMACOPHORE_FEATURES>  (1) 
3
1 3 acceptor
6 5 8 10 12 14 16 rings
6 6 9 11 13 15 17 rings

>  <PUBCHEM_HEAVY_ATOM_COUNT>  (1) 
19

>  <PUBCHEM_ATOM_DEF_STEREO_COUNT>  (1) 
0

>  <PUBCHEM_ATOM_UDEF_STEREO_COUNT>  (1) 
0

>  <PUBCHEM_BOND_DEF_STEREO_COUNT>  (1) 
0

>  <PUBCHEM_BOND_UDEF_STEREO_COUNT>  (1) 
0

>  <PUBCHEM_ISOTOPIC_ATOM_COUNT>  (1) 
0

>  <PUBCHEM_COMPONENT_COUNT>  (1) 
1

>  <PUBCHEM_CACTVS_TAUTO_COUNT>  (1) 
1

>  <PUBCHEM_CONFORMER_ID>  (1) 
00004F0900000001

>  <PUBCHEM_MMFF94_ENERGY>  (1) 
47.3889

>  <PUBCHEM_FEATURE_SELFOVERLAP>  (1) 
15.223

>  <PUBCHEM_SHAPE_FINGERPRINT>  (1) 
1 1 17979079601980224461
10165383 225 17544783560392378885
10465860 250 18260824869493981754
10670039 82 18338252466749914574
1100329 8 18265902345688092801
11101153 10 18337687334805524094
11265709 11 18338527352038919762
12553582 1 18267609955712018594
12592029 89 17975705196668463176
12730499 353 17907311193123976771
12788726 201 17975685095915316074
13004483 165 18194957452900785355
13134695 92 18341888627862692485
13140716 1 18340492153632705216
13294875 104 17770784824953648880
13681431 1 18411990181908464460
13955234 65 18122351447858556035
14170010 4 18341322388375590485
14181834 199 18198899395343443046
15309172 13 17546454835314825129
15490181 7 17549832525996902071
16945 1 18194971957110364805
17357779 13 18199452295152512916
1813 80 18059310784949210750
18769570 83 18118398450053533385
18785283 64 18046353199508878217
20097449 115 18411984641458610010
20600515 1 18341906168377487850
20671657 1 18126288773080066039
21029758 11 18410571764848739327
21041028 32 18340778074095609449
21304303 282 17179367042499790428
21524375 3 17478342288448523549
22112679 90 17984174536931407592
23175994 123 18409735036700585383
23366157 5 17972313190153493766
23402539 116 18267017267394483903
23419403 2 18197469927312194836
23557571 272 18125164840257890910
23558518 356 17686906012186207962
23559900 14 17750229378385372799
25 1 17339027529791332533
2748010 2 18269819974152186276
283562 15 18265896844040494122
3071541 158 18408322211276368463
3187 122 18265593434929274512
350125 39 17547294861665527030
458136 41 17760948620038517337
6442390 28 17188705138756802456
7364860 26 18267588094465235757
7471813 234 18059849597792862221
81228 2 17979371766998458050
9981440 41 14495590370138789766

>  <PUBCHEM_SHAPE_MULTIPOLES>  (1) 
372
6.39
4.14
1.24
1.46
4.01
-0.07
-6.56
-0.28
-4.27
-0.28
0.08
0.24
0.04

>  <PUBCHEM_SHAPE_SELFOVERLAP>  (1) 
790.592

>  <PUBCHEM_SHAPE_VOLUME>  (1) 
207.4

>  <PUBCHEM_COORDINATE_TYPE>  (1) 
2
5
10

$$$$
