20244
     RDKit          3D

 19 18  0  0  0  0  0  0  0  0999 V2000
   -7.7151    0.1733   -0.0062 S   0  0  0  0  0  0  0  0  0  0  0  0
    7.7108    0.1852   -0.0002 S   0  0  0  0  0  0  0  0  0  0  0  0
   -6.2248   -0.4951    0.0024 O   0  0  0  0  0  0  0  0  0  0  0  0
    6.2270   -0.4961   -0.0278 O   0  0  0  0  0  0  0  0  0  0  0  0
   -7.9438    0.8224   -1.2812 O   0  0  0  0  0  0  0  0  0  0  0  0
   -7.9461    0.8510    1.2533 O   0  0  0  0  0  0  0  0  0  0  0  0
    7.9367    0.7945    1.2946 O   0  0  0  0  0  0  0  0  0  0  0  0
    7.9331    0.9054   -1.2374 O   0  0  0  0  0  0  0  0  0  0  0  0
    0.0060    0.3774    0.0136 C   0  0  0  0  0  0  0  0  0  0  0  0
   -1.2868   -0.4454    0.0207 C   0  0  0  0  0  0  0  0  0  0  0  0
    1.2728   -0.4820    0.0366 C   0  0  0  0  0  0  0  0  0  0  0  0
   -2.5557    0.4096   -0.0247 C   0  0  0  0  0  0  0  0  0  0  0  0
    2.5648    0.3418    0.0302 C   0  0  0  0  0  0  0  0  0  0  0  0
   -3.8133   -0.4659    0.0041 C   0  0  0  0  0  0  0  0  0  0  0  0
    3.8314   -0.5109   -0.0249 C   0  0  0  0  0  0  0  0  0  0  0  0
   -5.0926    0.3621   -0.0062 C   0  0  0  0  0  0  0  0  0  0  0  0
    5.0867    0.3509    0.0109 C   0  0  0  0  0  0  0  0  0  0  0  0
   -8.6259   -1.3498    0.0101 C   0  0  0  0  0  0  0  0  0  0  0  0
    8.6347   -1.3285   -0.0678 C   0  0  0  0  0  0  0  0  0  0  0  0
  1  3  1  0
  1  5  2  0
  1  6  2  0
  1 18  1  0
  2  4  1  0
  2  7  2  0
  2  8  2  0
  2 19  1  0
  3 16  1  0
  4 17  1  0
  9 10  1  0
  9 11  1  0
 10 12  1  0
 11 13  1  0
 12 14  1  0
 13 15  1  0
 14 16  1  0
 15 17  1  0
M  END
>  <PUBCHEM_COMPOUND_CID>  (1) 
20244

>  <PUBCHEM_CONFORMER_RMSD>  (1) 
1.2

>  <PUBCHEM_CONFORMER_DIVERSEORDER>  (1) 
1
51
158
87
122
148
79
197
11
86
230
3
12
138
2
253
19
214
30
221
103
116
180
192
238
137
66
85
128
117
76
186
168
23
18
251
81
229
187
44
46
104
49
105
94
161
201
159
20
58
77
218
52
183
36
102
178
83
206
92
259
154
73
110
5
164
156
241
250
97
217
131
88
215
59
227
226
136
118
258
13
228
9
95
261
209
50
69
152
124
53
82
212
113
28
213
109
242
126
98
15
130
233
8
45
247
6
139
165
42
55
199
189
37
89
244
240
35
202
239
179
150
17
191
60
249
4
56
10
64
99
57
125
235
182
196
40
107
123
162
135
160
190
132
252
256
231
262
38
7
232
146
111
41
222
223
24
205
91
174
47
210
48
167
90
248
157
78
155
101
133
140
27
62
96
21
31
16
169
147
39
134
175
142
255
127
63
173
22
224
145
236
200
176
207
67
208
246
166
219
80
204
171
43
151
198
216
172
33
34
143
84
194
72
115
185
257
65
129
112
254
119
193
100
220
54
120
163
106
25
68
74
243
144
26
71
75
93
114
177
245
234
153
211
29
225
188
237
121
195
149
170
181
70
260
61
14
203
108
184
32
141

>  <PUBCHEM_MMFF94_PARTIAL_CHARGES>  (1) 
12
1 1.38
16 0.28
17 0.28
18 0.11
19 0.11
2 1.38
3 -0.46
4 -0.46
5 -0.65
6 -0.65
7 -0.65
8 -0.65

>  <PUBCHEM_EFFECTIVE_ROTOR_COUNT>  (1) 
12

>  <PUBCHEM_PHARMACOPHORE_FEATURES>  (1) 
4
1 5 acceptor
1 6 acceptor
1 7 acceptor
1 8 acceptor

>  <PUBCHEM_HEAVY_ATOM_COUNT>  (1) 
19

>  <PUBCHEM_ATOM_DEF_STEREO_COUNT>  (1) 
0

>  <PUBCHEM_ATOM_UDEF_STEREO_COUNT>  (1) 
0

>  <PUBCHEM_BOND_DEF_STEREO_COUNT>  (1) 
0

>  <PUBCHEM_BOND_UDEF_STEREO_COUNT>  (1) 
0

>  <PUBCHEM_ISOTOPIC_ATOM_COUNT>  (1) 
0

>  <PUBCHEM_COMPONENT_COUNT>  (1) 
1

>  <PUBCHEM_CACTVS_TAUTO_COUNT>  (1) 
1

>  <PUBCHEM_CONFORMER_ID>  (1) 
00004F1400000001

>  <PUBCHEM_MMFF94_ENERGY>  (1) 
6.6312

>  <PUBCHEM_FEATURE_SELFOVERLAP>  (1) 
20.332

>  <PUBCHEM_SHAPE_FINGERPRINT>  (1) 
11315181 36 18412546510193427417
11638347 137 18341895165488946358
12091667 2 17603304852765068999
13885169 127 18343022173212105617
14123256 10 18410855455833194498
14251764 18 18272371957724983344
14251764 46 18413952784399593447
16120349 18 17530966925610741420
20621476 8 18260828189645704158
22224240 67 18410291419369540122
232437 2 18411139134133863990
23521765 1 18341894090834057575
246663 6 17131835373858333423
28498 318 18335420149770235070
33684 2 18411418406045228098
5283156 175 18341614798544784558
59567204 34 17749664088171005613
59682541 35 18272088326901614995
67123 10 18410575097547993807
8209 1 18410573985151457646

>  <PUBCHEM_SHAPE_MULTIPOLES>  (1) 
363.49
35.88
1.03
0.86
0.08
0.18
0
1.17
-0.22
0.01
-0.01
0
-0.22
0.03

>  <PUBCHEM_SHAPE_SELFOVERLAP>  (1) 
651.69

>  <PUBCHEM_SHAPE_VOLUME>  (1) 
234.7

>  <PUBCHEM_COORDINATE_TYPE>  (1) 
2
5
10

$$$$
