20246
     RDKit          3D

 18 18  0  0  0  0  0  0  0  0999 V2000
    0.9710   -4.3608    0.0651 Cl  0  0  0  0  0  0  0  0  0  0  0  0
    5.9525    1.0139   -0.1905 Cl  0  0  0  0  0  0  0  0  0  0  0  0
   -5.5547   -0.7104    0.9459 O   0  0  0  0  0  0  0  0  0  0  0  0
   -5.1174   -0.1363   -1.2078 O   0  0  0  0  0  0  0  0  0  0  0  0
    2.2221   -0.5215   -0.0020 N   0  0  0  0  0  0  0  0  0  0  0  0
    1.1903    0.4379    0.0655 C   0  0  0  0  0  0  0  0  0  0  0  0
    1.9452   -1.8650   -0.4701 C   0  0  0  0  0  0  0  0  0  0  0  0
    3.5694   -0.1804    0.4086 C   0  0  0  0  0  0  0  0  0  0  0  0
   -1.1236    1.0496   -0.2643 C   0  0  0  0  0  0  0  0  0  0  0  0
   -0.1036    0.1005   -0.3317 C   0  0  0  0  0  0  0  0  0  0  0  0
   -2.5068    0.6897   -0.6894 C   0  0  0  0  0  0  0  0  0  0  0  0
    1.4640    1.7244    0.5302 C   0  0  0  0  0  0  0  0  0  0  0  0
   -0.8497    2.3360    0.2004 C   0  0  0  0  0  0  0  0  0  0  0  0
   -3.3749    0.1300    0.4438 C   0  0  0  0  0  0  0  0  0  0  0  0
    0.4440    2.6734    0.5977 C   0  0  0  0  0  0  0  0  0  0  0  0
    1.3255   -2.7097    0.6320 C   0  0  0  0  0  0  0  0  0  0  0  0
    4.2980    0.5801   -0.6883 C   0  0  0  0  0  0  0  0  0  0  0  0
   -4.7513   -0.2514   -0.0451 C   0  0  0  0  0  0  0  0  0  0  0  0
  1 16  1  0
  2 17  1  0
  3 18  1  0
  4 18  2  0
  5  6  1  0
  5  7  1  0
  5  8  1  0
  6 10  2  0
  6 12  1  0
  7 16  1  0
  8 17  1  0
  9 10  1  0
  9 11  1  0
  9 13  2  0
 11 14  1  0
 12 15  2  0
 13 15  1  0
 14 18  1  0
M  END
>  <PUBCHEM_COMPOUND_CID>  (1) 
20246

>  <PUBCHEM_CONFORMER_RMSD>  (1) 
0.8

>  <PUBCHEM_CONFORMER_DIVERSEORDER>  (1) 
8
180
158
85
40
48
113
119
129
88
56
114
173
104
125
188
151
117
31
169
116
146
106
23
82
107
127
149
51
41
92
84
155
2
193
69
74
153
187
184
132
152
87
57
142
140
15
97
192
43
76
164
138
19
201
47
94
143
80
126
34
171
179
49
95
172
159
78
55
160
175
21
194
190
37
105
198
62
30
50
90
53
148
103
45
26
60
81
137
162
168
163
24
177
124
16
63
108
83
61
191
58
71
6
115
154
182
174
33
36
96
89
145
165
38
157
32
25
183
136
59
73
100
170
186
64
167
66
122
176
166
178
109
12
150
196
135
121
123
77
54
189
35
68
181
65
200
133
4
46
128
91
134
195
11
93
185
112
20
22
27
79
52
102
39
144
3
17
98
120
44
141
139
29
72
86
111
199
110
1
101
28
156
18
10
42
13
70
131
9
118
75
67
7
161
99
5
130
14
197
147

>  <PUBCHEM_MMFF94_PARTIAL_CHARGES>  (1) 
23
1 -0.29
10 -0.15
11 0.14
12 -0.15
13 -0.15
14 0.06
15 -0.15
16 0.29
17 0.29
18 0.66
2 -0.29
23 0.15
26 0.15
27 0.15
3 -0.65
30 0.15
35 0.5
4 -0.57
5 -0.84
6 0.1
7 0.37
8 0.37
9 -0.14

>  <PUBCHEM_EFFECTIVE_ROTOR_COUNT>  (1) 
8

>  <PUBCHEM_PHARMACOPHORE_FEATURES>  (1) 
5
1 3 acceptor
1 4 acceptor
1 5 cation
3 3 4 18 anion
6 6 9 10 12 13 15 rings

>  <PUBCHEM_HEAVY_ATOM_COUNT>  (1) 
18

>  <PUBCHEM_ATOM_DEF_STEREO_COUNT>  (1) 
0

>  <PUBCHEM_ATOM_UDEF_STEREO_COUNT>  (1) 
0

>  <PUBCHEM_BOND_DEF_STEREO_COUNT>  (1) 
0

>  <PUBCHEM_BOND_UDEF_STEREO_COUNT>  (1) 
0

>  <PUBCHEM_ISOTOPIC_ATOM_COUNT>  (1) 
0

>  <PUBCHEM_COMPONENT_COUNT>  (1) 
1

>  <PUBCHEM_CACTVS_TAUTO_COUNT>  (1) 
1

>  <PUBCHEM_CONFORMER_ID>  (1) 
00004F1600000008

>  <PUBCHEM_MMFF94_ENERGY>  (1) 
47.4165

>  <PUBCHEM_FEATURE_SELFOVERLAP>  (1) 
25.43

>  <PUBCHEM_SHAPE_FINGERPRINT>  (1) 
10090160 65 18333731316862922214
1100329 8 18267865171780570200
12553582 1 18271230673440400365
12596602 18 16988562455003063299
13140716 1 18197768006447303544
13464513 79 18201718483106756532
13862211 1 18341888602166507788
14178342 30 17762041152455428394
14252887 29 17846222132966837813
14787075 74 18412544331806257620
14790565 3 18339651126032669336
14863182 85 18409177592784617422
15375462 189 18343013372460106223
15537594 2 18272651255712697791
20028762 73 18057604476538155087
20286276 3 17978234854827136518
20344682 1 17894347787285527524
20645477 70 18261668165079667503
21344244 181 17987818357801591478
21421861 104 18118970178603395915
21521721 280 18339931527462410392
22224240 67 18342172310346994378
2255824 54 18339641256276515741
23402539 116 10953735642342440619
23557571 272 17095517357862856893
23558518 356 17833271921996052024
23559900 14 17905596710413418018
23566358 27 17907032685494666938
283562 15 18342745070512745720
2871803 45 18410855417357850102
33824 294 18409446972880136779
4463277 17 18272373078738418832
474229 33 18407760348271660138
5104073 3 18270396062790375072
5486654 2 18410299146516462964
58051976 378 18408891732825171316

>  <PUBCHEM_SHAPE_MULTIPOLES>  (1) 
357.45
10.19
3.55
0.87
5.19
4.44
-0.04
-1.01
-0.98
-2.09
0.61
0.36
0
0.04

>  <PUBCHEM_SHAPE_SELFOVERLAP>  (1) 
699.733

>  <PUBCHEM_SHAPE_VOLUME>  (1) 
217.1

>  <PUBCHEM_COORDINATE_TYPE>  (1) 
2
5
10

$$$$
