20249
     RDKit          3D

 19 19  0  0  1  0  0  0  0  0999 V2000
    4.4273   -1.9143    0.8717 F   0  0  0  0  0  0  0  0  0  0  0  0
    3.6693    2.0570   -1.6760 F   0  0  0  0  0  0  0  0  0  0  0  0
   -3.1788    0.0080   -1.9871 O   0  0  0  0  0  0  0  0  0  0  0  0
   -5.0128   -0.9936   -1.1048 O   0  0  0  0  0  0  0  0  0  0  0  0
    2.6542    0.0252   -0.0594 N   0  0  0  0  0  0  0  0  0  0  0  0
   -5.0443    0.9021    0.8793 N   0  0  0  0  0  0  0  0  0  0  0  0
    1.2831   -0.0275    0.2666 C   0  0  0  0  0  0  0  0  0  0  0  0
   -2.8792   -0.1870    1.2556 C   0  0  0  0  0  0  0  0  0  0  0  0
   -1.4097   -0.1311    0.9070 C   0  0  0  0  0  0  0  0  0  0  0  0
    3.2428   -0.9803   -0.9215 C   0  0  0  0  0  0  0  0  0  0  0  0
    3.4898    1.0934    0.4524 C   0  0  0  0  0  0  0  0  0  0  0  0
   -3.7588    0.5860    0.2607 C   0  0  0  0  0  0  0  0  0  0  0  0
    0.7258    0.9447    1.0975 C   0  0  0  0  0  0  0  0  0  0  0  0
    0.4841   -1.0517   -0.2415 C   0  0  0  0  0  0  0  0  0  0  0  0
   -0.6303    0.8925    1.4200 C   0  0  0  0  0  0  0  0  0  0  0  0
   -0.8721   -1.1039    0.0810 C   0  0  0  0  0  0  0  0  0  0  0  0
    3.5566   -2.2302   -0.1246 C   0  0  0  0  0  0  0  0  0  0  0  0
    3.3174    2.3393   -0.3926 C   0  0  0  0  0  0  0  0  0  0  0  0
   -4.0645   -0.2285   -0.9845 C   0  0  0  0  0  0  0  0  0  0  0  0
  1 17  1  0
  2 18  1  0
  3 19  1  0
  4 19  2  0
  5  7  1  0
  5 10  1  0
  5 11  1  0
  6 12  1  0
  7 13  2  0
  7 14  1  0
  8  9  1  0
  8 12  1  0
  9 15  2  0
  9 16  1  0
 10 17  1  0
 11 18  1  0
 12 19  1  0
 13 15  1  0
 14 16  2  0
M  END
>  <PUBCHEM_COMPOUND_CID>  (1) 
20249

>  <PUBCHEM_CONFORMER_RMSD>  (1) 
0.8

>  <PUBCHEM_CONFORMER_DIVERSEORDER>  (1) 
1
94
24
52
65
42
102
138
110
143
21
35
72
119
134
96
129
84
78
126
47
45
58
69
29
103
71
112
97
141
87
100
41
76
30
132
83
131
48
54
123
139
104
37
114
34
113
61
50
127
135
22
57
136
122
116
105
5
109
108
79
111
60
124
25
51
20
99
130
59
8
137
32
92
44
77
66
140
75
33
40
27
101
98
16
93
36
90
13
128
64
31
88
43
28
26
11
67
56
121
125
18
106
6
63
89
53
133
95
80
38
17
2
15
68
107
117
85
120
19
62
23
4
39
82
12
74
14
115
118
86
70
81
3
7
49
142
91
9
46
55
73
10

>  <PUBCHEM_MMFF94_PARTIAL_CHARGES>  (1) 
26
1 -0.34
10 0.37
11 0.37
12 0.33
13 -0.15
14 -0.15
15 -0.15
16 -0.15
17 0.34
18 0.34
19 0.66
2 -0.34
27 0.15
28 0.15
29 0.15
3 -0.65
30 0.15
35 0.36
36 0.36
37 0.5
4 -0.57
5 -0.84
6 -0.99
7 0.1
8 0.14
9 -0.14

>  <PUBCHEM_EFFECTIVE_ROTOR_COUNT>  (1) 
8

>  <PUBCHEM_PHARMACOPHORE_FEATURES>  (1) 
7
1 3 acceptor
1 4 acceptor
1 5 cation
1 6 cation
1 6 donor
3 3 4 19 anion
6 7 9 13 14 15 16 rings

>  <PUBCHEM_HEAVY_ATOM_COUNT>  (1) 
19

>  <PUBCHEM_ATOM_DEF_STEREO_COUNT>  (1) 
0

>  <PUBCHEM_ATOM_UDEF_STEREO_COUNT>  (1) 
1

>  <PUBCHEM_BOND_DEF_STEREO_COUNT>  (1) 
0

>  <PUBCHEM_BOND_UDEF_STEREO_COUNT>  (1) 
0

>  <PUBCHEM_ISOTOPIC_ATOM_COUNT>  (1) 
0

>  <PUBCHEM_COMPONENT_COUNT>  (1) 
1

>  <PUBCHEM_CACTVS_TAUTO_COUNT>  (1) 
1

>  <PUBCHEM_CONFORMER_ID>  (1) 
00004F1900000001

>  <PUBCHEM_MMFF94_ENERGY>  (1) 
47.4517

>  <PUBCHEM_FEATURE_SELFOVERLAP>  (1) 
35.579

>  <PUBCHEM_SHAPE_FINGERPRINT>  (1) 
10062212 137 17775280535137286635
10646746 165 16298376968138057700
11401426 45 17703503294889080475
11543360 7 18336263543707684375
12403259 415 17168147819302625741
12616971 3 18272092665029496059
12670546 177 18202288038878238837
13583140 156 17676205805320827706
13675066 3 14996275942230616689
13760787 5 18341899584471782339
14576447 43 17560509728964113367
17349148 13 18202279174049993490
18186145 218 17748830708767058353
18222031 100 18270402664603760958
19026448 4 17531254984160211539
192875 21 18271528598358093706
19433438 15 18130788923917263153
200 152 18131066000404533042
20281475 54 17132124510945930571
20645477 56 17385448760212227875
20645477 70 18408612448208363858
23402539 116 17988637441706647323
23402655 69 17917717885522496801
23557571 272 17096377296320083705
23559900 14 18335144193916320378
25147074 1 18058468525178442192
268830 7 18335989692176891105
3004659 81 18131635556049167774
312423 11 18200328644606230560
341906 21 14923940158944814647
4990 188 14924234767958370954
5104073 3 17775002397376799499
5281201 14 18259983751688401677
57096353 35 17988650730356527521
633830 44 18261115145237931673
67856867 119 18131624612936773504
7164475 11 18059299738615214960
9971528 1 18129662994257165078

>  <PUBCHEM_SHAPE_MULTIPOLES>  (1) 
354.76
9.99
1.96
1.42
5.52
0.04
0.41
-0.52
2.23
-2.82
0.19
0.45
0.24
-1.56

>  <PUBCHEM_SHAPE_SELFOVERLAP>  (1) 
722.295

>  <PUBCHEM_SHAPE_VOLUME>  (1) 
205.5

>  <PUBCHEM_COORDINATE_TYPE>  (1) 
2
5
10

$$$$
