20241
     RDKit          3D

  9 10  0  0  1  0  0  0  0  0999 V2000
   -3.6735    0.4133   -0.0842 O   0  0  0  0  0  0  0  0  0  0  0  0
    3.6720    0.4113    0.1343 O   0  0  0  0  0  0  0  0  0  0  0  0
   -2.4717   -0.1982   -0.5223 C   0  0  0  0  0  0  0  0  0  0  0  0
    2.4594   -0.2152    0.5181 C   0  0  0  0  0  0  0  0  0  0  0  0
   -1.2378    0.6518   -0.2645 C   0  0  0  0  0  0  0  0  0  0  0  0
    1.2320    0.6433    0.2566 C   0  0  0  0  0  0  0  0  0  0  0  0
    0.0009   -0.2140   -0.0358 C   0  0  0  0  0  0  0  0  0  0  0  0
   -3.2357   -0.7578    0.6170 C   0  0  0  0  0  0  0  0  0  0  0  0
    3.2545   -0.7345   -0.6191 C   0  0  0  0  0  0  0  0  0  0  0  0
  1  3  1  0
  1  8  1  0
  2  4  1  0
  2  9  1  0
  3  5  1  0
  3  8  1  0
  4  6  1  0
  4  9  1  0
  5  7  1  0
  6  7  1  0
M  END
>  <PUBCHEM_COMPOUND_CID>  (1) 
20241

>  <PUBCHEM_CONFORMER_RMSD>  (1) 
0.6

>  <PUBCHEM_CONFORMER_DIVERSEORDER>  (1) 
3
65
6
67
30
76
79
7
51
25
78
2
82
57
1
50
46
72
4
75
64
71
14
55
56
45
5
48
86
77
24
47
70
13
80
61
74
38
32
39
11
15
37
53
73
12
68
28
59
85
34
69
58
54
41
10
9
35
18
44
16
21
20
33
84
83
36
31
60
29
19
62
22
23
63
66
49
43
8
40
17
52
81
42
27
26

>  <PUBCHEM_MMFF94_PARTIAL_CHARGES>  (1) 
14
1 -0.3
10 0.1
11 0.1
18 0.1
19 0.1
2 -0.3
20 0.1
21 0.1
3 -0.05
4 -0.05
5 0.09
6 0.09
8 -0.05
9 -0.05

>  <PUBCHEM_EFFECTIVE_ROTOR_COUNT>  (1) 
5.2

>  <PUBCHEM_PHARMACOPHORE_FEATURES>  (1) 
2
1 1 acceptor
1 2 acceptor

>  <PUBCHEM_HEAVY_ATOM_COUNT>  (1) 
9

>  <PUBCHEM_ATOM_DEF_STEREO_COUNT>  (1) 
0

>  <PUBCHEM_ATOM_UDEF_STEREO_COUNT>  (1) 
2

>  <PUBCHEM_BOND_DEF_STEREO_COUNT>  (1) 
0

>  <PUBCHEM_BOND_UDEF_STEREO_COUNT>  (1) 
0

>  <PUBCHEM_ISOTOPIC_ATOM_COUNT>  (1) 
0

>  <PUBCHEM_COMPONENT_COUNT>  (1) 
1

>  <PUBCHEM_CACTVS_TAUTO_COUNT>  (1) 
1

>  <PUBCHEM_CONFORMER_ID>  (1) 
00004F1100000003

>  <PUBCHEM_MMFF94_ENERGY>  (1) 
9.7611

>  <PUBCHEM_FEATURE_SELFOVERLAP>  (1) 
10.149

>  <PUBCHEM_SHAPE_FINGERPRINT>  (1) 
10219947 1 17561083605129764764
11062470 55 18410855464423161568
12932764 1 18338501002245714638
14325111 11 18410572885660948358
14390081 3 8646773295979307559
190213 19 18410856563934789348
20281407 28 18411983559105791275
20645477 70 17988077777514166166
21293036 1 16877665673169871724
22485316 2 18410288112128417771

>  <PUBCHEM_SHAPE_MULTIPOLES>  (1) 
173.48
7.19
0.87
0.77
0.03
0.03
0
0.81
-0.04
-0.02
0
0.01
0.07
0.37

>  <PUBCHEM_SHAPE_SELFOVERLAP>  (1) 
331.267

>  <PUBCHEM_SHAPE_VOLUME>  (1) 
107.9

>  <PUBCHEM_COORDINATE_TYPE>  (1) 
2
5
10

$$$$
