20257
     RDKit          3D

 25 28  0  0  1  0  0  0  0  0999 V2000
    0.3481   -0.4163   -1.7461 O   0  0  0  0  0  0  0  0  0  0  0  0
   -5.5766   -0.6071    0.1630 O   0  0  0  0  0  0  0  0  0  0  0  0
    0.8971   -1.0786    0.5375 C   0  0  0  0  0  0  0  0  0  0  0  0
    0.0912   -0.0811   -0.3713 C   0  0  0  0  0  0  0  0  0  0  0  0
    0.2676   -2.4811    0.4992 C   0  0  0  0  0  0  0  0  0  0  0  0
   -1.4287   -0.2383   -0.1986 C   0  0  0  0  0  0  0  0  0  0  0  0
   -1.1400   -2.4270    1.0833 C   0  0  0  0  0  0  0  0  0  0  0  0
   -1.9900   -1.3479    0.4654 C   0  0  0  0  0  0  0  0  0  0  0  0
    2.3930   -1.1210    0.2368 C   0  0  0  0  0  0  0  0  0  0  0  0
    0.5680    1.3538   -0.0857 C   0  0  0  0  0  0  0  0  0  0  0  0
   -2.2996    0.7072   -0.7783 C   0  0  0  0  0  0  0  0  0  0  0  0
   -3.3861   -1.4494    0.5929 C   0  0  0  0  0  0  0  0  0  0  0  0
    3.2365   -0.1696    0.8006 C   0  0  0  0  0  0  0  0  0  0  0  0
    2.9007   -2.1109   -0.5981 C   0  0  0  0  0  0  0  0  0  0  0  0
    0.3518    1.9111    1.1682 C   0  0  0  0  0  0  0  0  0  0  0  0
    1.2095    2.0748   -1.0846 C   0  0  0  0  0  0  0  0  0  0  0  0
   -3.6838    0.5865   -0.6560 C   0  0  0  0  0  0  0  0  0  0  0  0
   -4.2270   -0.4883    0.0364 C   0  0  0  0  0  0  0  0  0  0  0  0
    4.6037   -0.2083    0.5261 C   0  0  0  0  0  0  0  0  0  0  0  0
    4.2678   -2.1495   -0.8725 C   0  0  0  0  0  0  0  0  0  0  0  0
    0.7842    3.2117    1.4273 C   0  0  0  0  0  0  0  0  0  0  0  0
    1.6420    3.3753   -0.8254 C   0  0  0  0  0  0  0  0  0  0  0  0
    5.1192   -1.1982   -0.3104 C   0  0  0  0  0  0  0  0  0  0  0  0
    1.4293    3.9437    0.4306 C   0  0  0  0  0  0  0  0  0  0  0  0
   -6.3776    0.4082   -0.4400 C   0  0  0  0  0  0  0  0  0  0  0  0
  1  4  1  0
  2 18  1  0
  2 25  1  0
  3  4  1  0
  3  5  1  0
  3  9  1  0
  4  6  1  0
  4 10  1  0
  5  7  1  0
  6  8  2  0
  6 11  1  0
  7  8  1  0
  8 12  1  0
  9 13  2  0
  9 14  1  0
 10 15  2  0
 10 16  1  0
 11 17  2  0
 12 18  2  0
 13 19  1  0
 14 20  2  0
 15 21  1  0
 16 22  2  0
 17 18  1  0
 19 23  2  0
 20 23  1  0
 21 24  2  0
 22 24  1  0
M  END
>  <PUBCHEM_COMPOUND_CID>  (1) 
20257

>  <PUBCHEM_CONFORMER_RMSD>  (1) 
0.8

>  <PUBCHEM_CONFORMER_DIVERSEORDER>  (1) 
1
5
2
7
4
6
3

>  <PUBCHEM_MMFF94_PARTIAL_CHARGES>  (1) 
38
1 -0.68
10 -0.14
11 -0.15
12 -0.15
13 -0.15
14 -0.15
15 -0.15
16 -0.15
17 -0.15
18 0.08
19 -0.15
2 -0.36
20 -0.15
21 -0.15
22 -0.15
23 -0.15
24 -0.15
25 0.28
3 0.14
31 0.15
32 0.4
33 0.15
34 0.15
35 0.15
36 0.15
37 0.15
38 0.15
39 0.15
4 0.57
40 0.15
41 0.15
42 0.15
43 0.15
44 0.15
6 -0.14
7 0.14
8 -0.14
9 -0.14

>  <PUBCHEM_EFFECTIVE_ROTOR_COUNT>  (1) 
3.8

>  <PUBCHEM_PHARMACOPHORE_FEATURES>  (1) 
7
1 1 acceptor
1 1 donor
1 2 acceptor
6 10 15 16 21 22 24 rings
6 3 4 5 6 7 8 rings
6 6 8 11 12 17 18 rings
6 9 13 14 19 20 23 rings

>  <PUBCHEM_HEAVY_ATOM_COUNT>  (1) 
25

>  <PUBCHEM_ATOM_DEF_STEREO_COUNT>  (1) 
0

>  <PUBCHEM_ATOM_UDEF_STEREO_COUNT>  (1) 
2

>  <PUBCHEM_BOND_DEF_STEREO_COUNT>  (1) 
0

>  <PUBCHEM_BOND_UDEF_STEREO_COUNT>  (1) 
0

>  <PUBCHEM_ISOTOPIC_ATOM_COUNT>  (1) 
0

>  <PUBCHEM_COMPONENT_COUNT>  (1) 
1

>  <PUBCHEM_CACTVS_TAUTO_COUNT>  (1) 
1

>  <PUBCHEM_CONFORMER_ID>  (1) 
00004F2100000001

>  <PUBCHEM_MMFF94_ENERGY>  (1) 
91.7124

>  <PUBCHEM_FEATURE_SELFOVERLAP>  (1) 
35.543

>  <PUBCHEM_SHAPE_FINGERPRINT>  (1) 
10930396 42 18193525992837240586
1100329 8 18337389443245625875
11112241 14 16984888003297642072
11421498 54 13695860386091559733
11578080 2 17679042622677405861
11582403 64 15764978803933629216
11646440 116 18411708655634895771
12011746 2 18408603643161409911
12035758 1 18335407006832680288
12166972 35 17822297838563823070
12236239 1 16128651942601805295
12403259 415 17894900846599075341
12422481 6 17975666667066003880
12516196 113 18341611495003115262
12788726 201 18265614274025899602
13004483 165 18268422439265827826
13132413 78 18267302041053686453
13134695 92 18060132158832069249
13140716 1 18189335843717140091
13149001 5 18261393398709997922
13590594 115 18339653222324792001
13899415 154 18411428310355772812
14022347 108 18335420136911980090
140371 6 18340781372482656810
14170010 4 18413384350310895001
14347332 77 18050852109607682638
14787075 74 18335138700210075678
14849402 71 18338245959131493625
14866123 147 17403180292128752674
14955137 171 18272936020111922599
15131766 46 15911320344827341650
15230672 131 17616812572141396608
15238133 3 18200327532753532929
15849732 13 17775280560664302975
15927050 60 17765998681561730340
1601671 61 18261670376955981603
16945 1 17895471423554661798
17357779 13 18270389499985264044
17804303 29 18186804703319716155
17980427 23 17560532724235055209
1813 80 18059870415145788508
18393751 57 17986649611654178250
18785283 64 18190461760260558561
20510252 161 18264487274433511466
20600515 1 18334582308987960540
20642791 13 18200037214106480160
20642791 178 17826798346057632100
20642791 239 17606150439790908092
20832881 197 18335701611545675811
20905425 154 17687761840459940310
21029758 11 18411420587640746691
21033648 29 17631432515338477435
21041028 32 18343022168490370473
21285901 2 18129667370575671694
221357 26 18410851028312710749
23175994 123 18412830166016492091
23419403 2 18058143091043021856
23557571 272 18268435642438102454
23558518 356 17829880289212348411
23559900 14 18335135440635508729
283562 15 18121221983134268538
3004659 81 17822573790371307522
3178227 256 18334588915011866659
3298306 158 17979086199646415172
335352 9 18334294271227686727
3411729 13 18117834619779918968
350125 39 18333732421044433821
5104073 3 18262525926579333267
5895379 119 17130452128460298153
6443956 14 18412545427017760296
70251023 43 18270097103276180311
7364860 26 18267304411944030152
7399639 24 17987788602505313534
7471813 234 18060413617098402497
81228 2 18122922931906537392
9709674 26 18191025805668153803
9971528 1 18272647948060098995
9981440 41 17477752941737261193

>  <PUBCHEM_SHAPE_MULTIPOLES>  (1) 
502.75
9.48
3.79
1.16
8.86
3.75
0.03
-4.23
1.26
-2.98
-0.62
-0.28
0.29
0.91

>  <PUBCHEM_SHAPE_SELFOVERLAP>  (1) 
1109.135

>  <PUBCHEM_SHAPE_VOLUME>  (1) 
268.1

>  <PUBCHEM_COORDINATE_TYPE>  (1) 
2
5
10

$$$$
