2025
     RDKit          3D

 23 25  0  0  1  0  0  0  0  0999 V2000
    6.1388   -1.9624   -0.9833 S   0  0  0  0  0  0  0  0  0  0  0  0
    4.9920   -0.9928    0.4850 P   0  0  0  0  0  0  0  0  0  0  0  0
    0.8316   -0.3875   -0.8562 O   0  0  0  0  0  0  0  0  0  0  0  0
    0.0062    2.0601    1.6223 O   0  0  0  0  0  0  0  0  0  0  0  0
    2.2526    2.8687   -0.3531 O   0  0  0  0  0  0  0  0  0  0  0  0
    3.4620   -0.7878   -0.0189 O   0  0  0  0  0  0  0  0  0  0  0  0
    5.5104    0.5369    0.6544 O   0  0  0  0  0  0  0  0  0  0  0  0
    5.0583   -1.7493    1.7855 O   0  0  0  0  0  0  0  0  0  0  0  0
   -1.4623   -0.0076   -0.4138 N   0  0  0  0  0  0  0  0  0  0  0  0
   -3.1398   -0.1717   -1.8745 N   0  0  0  0  0  0  0  0  0  0  0  0
   -2.6853   -0.3251    1.6609 N   0  0  0  0  0  0  0  0  0  0  0  0
   -5.0662   -0.6633    1.2445 N   0  0  0  0  0  0  0  0  0  0  0  0
   -5.9968   -0.6691   -0.9602 N   0  0  0  0  0  0  0  0  0  0  0  0
    0.2886    1.6266    0.3031 C   0  0  0  0  0  0  0  0  0  0  0  0
    1.7766    1.5917    0.0272 C   0  0  0  0  0  0  0  0  0  0  0  0
   -0.1018    0.1683    0.0903 C   0  0  0  0  0  0  0  0  0  0  0  0
    1.8507    0.5929   -1.1168 C   0  0  0  0  0  0  0  0  0  0  0  0
    3.1991   -0.0959   -1.2288 C   0  0  0  0  0  0  0  0  0  0  0  0
   -2.5898   -0.2267    0.3265 C   0  0  0  0  0  0  0  0  0  0  0  0
   -1.8449    0.0177   -1.7296 C   0  0  0  0  0  0  0  0  0  0  0  0
   -3.6179   -0.3260   -0.5973 C   0  0  0  0  0  0  0  0  0  0  0  0
   -4.8952   -0.5532   -0.0950 C   0  0  0  0  0  0  0  0  0  0  0  0
   -3.9669   -0.5442    2.0277 C   0  0  0  0  0  0  0  0  0  0  0  0
  1  2  1  0
  2  6  1  0
  2  7  1  0
  2  8  2  0
  3 16  1  0
  3 17  1  0
  4 14  1  0
  5 15  1  0
  6 18  1  0
  9 16  1  0
  9 19  1  0
  9 20  1  0
 10 20  2  0
 10 21  1  0
 11 19  1  0
 11 23  2  0
 12 22  2  0
 12 23  1  0
 13 22  1  0
 14 15  1  0
 14 16  1  0
 15 17  1  0
 17 18  1  0
 19 21  2  0
 21 22  1  0
M  END
>  <PUBCHEM_COMPOUND_CID>  (1) 
2025

>  <PUBCHEM_CONFORMER_RMSD>  (1) 
1

>  <PUBCHEM_CONFORMER_DIVERSEORDER>  (1) 
14
6
666
549
626
90
57
622
7
495
3
437
96
353
440
331
15
555
401
271
59
568
176
448
18
337
83
187
263
87
192
39
559
598
270
118
411
264
350
131
254
260
19
234
200
61
606
202
426
134
2
156
420
287
181
67
231
140
667
86
172
225
659
325
93
50
54
288
439
452
670
126
309
635
209
31
85
509
375
241
12
68
613
230
391
21
313
188
332
340
642
223
94
515
99
500
17
143
97
593
154
278
115
590
43
222
10
359
8
424
239
26
58
28
597
198
664
89
662
161
220
164
1
274
228
210
400
105
77
645
112
266
189
358
473
574
285
276
55
37
532
214
128
165
374
4
584
531
40
383
508
150
123
621
417
160
147
601
227
592
229
109
316
106
174
48
560
579
16
298
491
339
190
444
242
46
490
145

>  <PUBCHEM_MMFF94_PARTIAL_CHARGES>  (1) 
31
1 -0.43
10 -0.57
11 -0.57
12 -0.62
13 -0.9
14 0.28
15 0.28
16 0.54
17 0.28
18 0.28
19 0.11
2 1.49
20 0.04
21 0.23
22 0.41
23 0.47
3 -0.56
30 0.4
31 0.4
32 0.15
33 0.15
34 0.4
35 0.4
36 0.18
37 0.5
4 -0.68
5 -0.68
6 -0.55
7 -0.77
8 -0.7
9 0.05

>  <PUBCHEM_EFFECTIVE_ROTOR_COUNT>  (1) 
5

>  <PUBCHEM_PHARMACOPHORE_FEATURES>  (1) 
16
1 13 cation
1 13 donor
1 3 acceptor
1 4 acceptor
1 4 donor
1 5 acceptor
1 5 donor
1 7 acceptor
1 8 acceptor
3 11 12 23 cation
3 9 10 20 cation
3 9 11 19 cation
4 1 2 7 8 anion
5 3 14 15 16 17 rings
5 9 10 19 20 21 rings
6 11 12 19 21 22 23 rings

>  <PUBCHEM_HEAVY_ATOM_COUNT>  (1) 
23

>  <PUBCHEM_ATOM_DEF_STEREO_COUNT>  (1) 
0

>  <PUBCHEM_ATOM_UDEF_STEREO_COUNT>  (1) 
4

>  <PUBCHEM_BOND_DEF_STEREO_COUNT>  (1) 
0

>  <PUBCHEM_BOND_UDEF_STEREO_COUNT>  (1) 
0

>  <PUBCHEM_ISOTOPIC_ATOM_COUNT>  (1) 
0

>  <PUBCHEM_COMPONENT_COUNT>  (1) 
1

>  <PUBCHEM_CACTVS_TAUTO_COUNT>  (1) 
6

>  <PUBCHEM_CONFORMER_ID>  (1) 
000007E90000000E

>  <PUBCHEM_MMFF94_ENERGY>  (1) 
30.3174

>  <PUBCHEM_FEATURE_SELFOVERLAP>  (1) 
81.815

>  <PUBCHEM_SHAPE_FINGERPRINT>  (1) 
11796584 16 17313103064094979866
12236239 1 17561084713363280415
12553582 1 18272380754250431606
12596602 18 17489585666647651875
12633257 1 18342186591282422399
12892183 10 15625950811166306967
12954195 1 16660637402464249261
13533116 47 18343304743759229350
13782708 43 18041568043733409763
13914758 101 18271803489682929585
13965767 371 16124201020985412139
14251751 18 17458067096701546970
14251764 30 16299254422020700921
14341114 328 15985100812928911074
14840074 17 18202563965073818222
15183329 4 16226047764890053710
15209294 21 16056882416077692350
17349148 13 18131354120001339316
17980427 23 14908170976238752617
1813 80 18272662220721980452
18222031 100 18412826868030189654
193927 3 18261403196063078694
19784866 240 17967821505245222934
20567600 247 17530682121522926802
21033650 10 14997694153939338574
2215653 11 17530956991045520907
2297311 6 16443071603769539631
23175994 123 18334014986225276564
23557571 272 13973694961201188809
23559900 14 16732984262401895639
25147074 1 17702375354614374668
2838139 119 11383826022607372282
2916195 48 14045744811745722723
296302 2 11959733763490065509
3004659 81 15647050422867621666
33382 64 17676213454868506938
474 4 17556576878988528793
4990 188 15574713603745510500
5104073 3 17631459028472451227
59755656 215 15936681597674901635
67856867 119 16916495003709469777
7495541 125 17895480322758437388

>  <PUBCHEM_SHAPE_MULTIPOLES>  (1) 
420.91
13.69
1.79
1.73
5.45
1.1
0.51
-8.14
3.34
2.29
-0.15
-0.7
-0.22
-0.83

>  <PUBCHEM_SHAPE_SELFOVERLAP>  (1) 
876.086

>  <PUBCHEM_SHAPE_VOLUME>  (1) 
243.6

>  <PUBCHEM_COORDINATE_TYPE>  (1) 
2
5
10

$$$$
