20252
     RDKit          3D

  8  7  0  0  0  0  0  0  0  0999 V2000
    0.0046   -0.5830    0.4824 S   0  0  0  0  0  0  0  0  0  0  0  0
    0.0010   -1.7821   -0.4138 O   0  0  0  0  0  0  0  0  0  0  0  0
   -1.3430    0.5055   -0.0726 C   0  0  0  0  0  0  0  0  0  0  0  0
    1.3408    0.5062   -0.0631 C   0  0  0  0  0  0  0  0  0  0  0  0
   -2.6973   -0.1162    0.2367 C   0  0  0  0  0  0  0  0  0  0  0  0
    2.6970   -0.1082    0.2523 C   0  0  0  0  0  0  0  0  0  0  0  0
   -3.8351    0.7908   -0.2035 C   0  0  0  0  0  0  0  0  0  0  0  0
    3.8320    0.7869   -0.2184 C   0  0  0  0  0  0  0  0  0  0  0  0
  1  2  2  0
  1  3  1  0
  1  4  1  0
  3  5  1  0
  4  6  1  0
  5  7  1  0
  6  8  1  0
M  END
>  <PUBCHEM_COMPOUND_CID>  (1) 
20252

>  <PUBCHEM_CONFORMER_RMSD>  (1) 
0.6

>  <PUBCHEM_CONFORMER_DIVERSEORDER>  (1) 
1
23
7
34
32
36
9
20
2
17
31
33
3
30
6
18
11
35
10
5
14
16
24
15
26
28
29
27
25
8
19
13
21
12
22
4

>  <PUBCHEM_MMFF94_PARTIAL_CHARGES>  (1) 
4
1 0.11
2 -0.5
3 0.19
4 0.19

>  <PUBCHEM_EFFECTIVE_ROTOR_COUNT>  (1) 
4

>  <PUBCHEM_PHARMACOPHORE_FEATURES>  (1) 
3
1 2 acceptor
1 7 hydrophobe
1 8 hydrophobe

>  <PUBCHEM_HEAVY_ATOM_COUNT>  (1) 
8

>  <PUBCHEM_ATOM_DEF_STEREO_COUNT>  (1) 
0

>  <PUBCHEM_ATOM_UDEF_STEREO_COUNT>  (1) 
0

>  <PUBCHEM_BOND_DEF_STEREO_COUNT>  (1) 
0

>  <PUBCHEM_BOND_UDEF_STEREO_COUNT>  (1) 
0

>  <PUBCHEM_ISOTOPIC_ATOM_COUNT>  (1) 
0

>  <PUBCHEM_COMPONENT_COUNT>  (1) 
1

>  <PUBCHEM_CACTVS_TAUTO_COUNT>  (1) 
1

>  <PUBCHEM_CONFORMER_ID>  (1) 
00004F1C00000001

>  <PUBCHEM_MMFF94_ENERGY>  (1) 
-3.4063

>  <PUBCHEM_FEATURE_SELFOVERLAP>  (1) 
15.223

>  <PUBCHEM_SHAPE_FINGERPRINT>  (1) 
10219947 1 18260550000160686821
11062470 55 18409167709785060296
14325111 11 18409729564521574274
14390081 3 18411980226622769177
15775835 57 18335420175028290336
170605 34 18334294236477408643
177051 138 10015592700872800640
18342897 55 18341600513014047045
20211469 26 10303823076871323732
21119208 17 15770058323877440505
21293036 1 18130787875512719776
23235685 24 18411132537090100833
366044 4 18411981373115332034

>  <PUBCHEM_SHAPE_MULTIPOLES>  (1) 
162.62
6.63
1.18
0.69
0.02
0.4
0.03
-2.7
-0.32
0
-0.16
0
0.05
-0.01

>  <PUBCHEM_SHAPE_SELFOVERLAP>  (1) 
271.08

>  <PUBCHEM_SHAPE_VOLUME>  (1) 
111.5

>  <PUBCHEM_COORDINATE_TYPE>  (1) 
2
5
10

$$$$
