20250
     RDKit          3D

 12 12  0  0  0  0  0  0  0  0999 V2000
    0.3876   -2.5212   -0.2119 Cl  0  0  0  0  0  0  0  0  0  0  0  0
   -4.2308    0.2385   -0.2945 Cl  0  0  0  0  0  0  0  0  0  0  0  0
    4.1556    0.3392   -0.8356 Cl  0  0  0  0  0  0  0  0  0  0  0  0
    2.2408   -0.4638    1.2727 O   0  0  0  0  0  0  0  0  0  0  0  0
    0.2525    0.1720    0.1986 C   0  0  0  0  0  0  0  0  0  0  0  0
   -0.4377   -1.0110   -0.0660 C   0  0  0  0  0  0  0  0  0  0  0  0
   -0.4437    1.3754    0.3116 C   0  0  0  0  0  0  0  0  0  0  0  0
    1.7004    0.1999    0.3669 C   0  0  0  0  0  0  0  0  0  0  0  0
   -1.8242   -0.9905   -0.2178 C   0  0  0  0  0  0  0  0  0  0  0  0
   -1.8300    1.3959    0.1599 C   0  0  0  0  0  0  0  0  0  0  0  0
   -2.5204    0.2130   -0.1048 C   0  0  0  0  0  0  0  0  0  0  0  0
    2.5499    1.0527   -0.5791 C   0  0  0  0  0  0  0  0  0  0  0  0
  1  6  1  0
  2 11  1  0
  3 12  1  0
  4  8  2  0
  5  6  2  0
  5  7  1  0
  5  8  1  0
  6  9  1  0
  7 10  2  0
  8 12  1  0
  9 11  2  0
 10 11  1  0
M  END
>  <PUBCHEM_COMPOUND_CID>  (1) 
20250

>  <PUBCHEM_CONFORMER_RMSD>  (1) 
0.6

>  <PUBCHEM_CONFORMER_DIVERSEORDER>  (1) 
1
6
5
8
7
2
4
3

>  <PUBCHEM_MMFF94_PARTIAL_CHARGES>  (1) 
15
1 -0.18
10 -0.15
11 0.18
12 0.35
13 0.15
14 0.15
15 0.15
2 -0.18
3 -0.29
4 -0.57
5 0.09
6 0.18
7 -0.15
8 0.42
9 -0.15

>  <PUBCHEM_EFFECTIVE_ROTOR_COUNT>  (1) 
2

>  <PUBCHEM_PHARMACOPHORE_FEATURES>  (1) 
2
1 4 acceptor
6 5 6 7 9 10 11 rings

>  <PUBCHEM_HEAVY_ATOM_COUNT>  (1) 
12

>  <PUBCHEM_ATOM_DEF_STEREO_COUNT>  (1) 
0

>  <PUBCHEM_ATOM_UDEF_STEREO_COUNT>  (1) 
0

>  <PUBCHEM_BOND_DEF_STEREO_COUNT>  (1) 
0

>  <PUBCHEM_BOND_UDEF_STEREO_COUNT>  (1) 
0

>  <PUBCHEM_ISOTOPIC_ATOM_COUNT>  (1) 
0

>  <PUBCHEM_COMPONENT_COUNT>  (1) 
1

>  <PUBCHEM_CACTVS_TAUTO_COUNT>  (1) 
2

>  <PUBCHEM_CONFORMER_ID>  (1) 
00004F1A00000001

>  <PUBCHEM_MMFF94_ENERGY>  (1) 
30.1001

>  <PUBCHEM_FEATURE_SELFOVERLAP>  (1) 
10.148

>  <PUBCHEM_SHAPE_FINGERPRINT>  (1) 
12423570 1 17973994055701027840
12716758 59 18269840972616236808
13380535 76 18409168796448878331
13538477 17 18188482588012208130
14911166 2 18342455967430958893
14993402 34 18334858337418852805
15310529 11 17168132442903078473
15775835 57 18040436611538989284
16945 1 18343292665746424289
18186145 218 18343011225008476925
19026448 4 15410606008827224009
193761 8 17836365947832800753
20201158 50 17632590348442976238
20645476 183 18041562549868578318
20645477 56 18339363088672633692
20871999 31 18197499742895705054
21501502 16 18054228735205623321
23235685 24 18410852166067684853
23402539 116 18271802449710046148
23402655 69 18197761238739862509
23463225 33 18263635191175822738
23552423 10 18194120703293092835
23559900 14 18202003270468707284
2748010 2 18052525866667122185
3071541 37 18337108960722722207
366044 4 18410294730715218966
369184 2 16660638549036017465
449060 62 18342460288378801651
4990 188 17775573030662267765
5084963 1 17988928859622137080
528886 8 18411696608130154819
53812653 8 18410012121846043169
57177213 63 18338240345012449931
81539 233 18187641362901510751

>  <PUBCHEM_SHAPE_MULTIPOLES>  (1) 
246.69
6.04
1.82
0.85
0.62
1.08
-0.07
-1.6
1.55
-0.03
0.06
0.47
0
-0.3

>  <PUBCHEM_SHAPE_SELFOVERLAP>  (1) 
485.246

>  <PUBCHEM_SHAPE_VOLUME>  (1) 
151

>  <PUBCHEM_COORDINATE_TYPE>  (1) 
2
5
10

$$$$
