20268
     RDKit          3D

 22 23  0  0  0  0  0  0  0  0999 V2000
   -1.4828    2.6628    0.2253 Cl  0  0  0  0  0  0  0  0  0  0  0  0
    5.8653   -0.1621    0.3988 O   0  0  0  0  0  0  0  0  0  0  0  0
   -6.3645   -1.2142   -0.2556 O   0  0  0  0  0  0  0  0  0  0  0  0
   -6.3700    0.9751   -0.4161 O   0  0  0  0  0  0  0  0  0  0  0  0
    0.3805   -0.1578   -0.4695 N   0  0  0  0  0  0  0  0  0  0  0  0
    1.7605   -2.6056   -0.0694 N   0  0  0  0  0  0  0  0  0  0  0  0
   -0.2235   -0.0679    0.6242 N   0  0  0  0  0  0  0  0  0  0  0  0
   -5.7665   -0.1112   -0.2425 N   0  0  0  0  0  0  0  0  0  0  0  0
    3.8365    1.0474   -0.0117 C   0  0  0  0  0  0  0  0  0  0  0  0
    4.5195   -0.1527    0.1859 C   0  0  0  0  0  0  0  0  0  0  0  0
    1.7641   -0.1712   -0.2499 C   0  0  0  0  0  0  0  0  0  0  0  0
    2.4587    1.0381   -0.2295 C   0  0  0  0  0  0  0  0  0  0  0  0
    2.4470   -1.3713   -0.0524 C   0  0  0  0  0  0  0  0  0  0  0  0
    3.8248   -1.3620    0.1656 C   0  0  0  0  0  0  0  0  0  0  0  0
    4.5646    2.3508    0.0058 C   0  0  0  0  0  0  0  0  0  0  0  0
   -1.6115   -0.0542    0.4043 C   0  0  0  0  0  0  0  0  0  0  0  0
   -4.3636   -0.0917   -0.0239 C   0  0  0  0  0  0  0  0  0  0  0  0
   -2.2989    1.1412    0.2090 C   0  0  0  0  0  0  0  0  0  0  0  0
   -2.2937   -1.2685    0.3864 C   0  0  0  0  0  0  0  0  0  0  0  0
   -3.6770    1.1224   -0.0054 C   0  0  0  0  0  0  0  0  0  0  0  0
   -3.6718   -1.2871    0.1720 C   0  0  0  0  0  0  0  0  0  0  0  0
    6.7025   -0.2602   -0.7515 C   0  0  0  0  0  0  0  0  0  0  0  0
  1 18  1  0
  2 10  1  0
  2 22  1  0
  3  8  1  0
  4  8  2  0
  5  7  2  0
  5 11  1  0
  6 13  1  0
  7 16  1  0
  8 17  1  0
  9 10  2  0
  9 12  1  0
  9 15  1  0
 10 14  1  0
 11 12  2  0
 11 13  1  0
 13 14  2  0
 16 18  2  0
 16 19  1  0
 17 20  2  0
 17 21  1  0
 18 20  1  0
 19 21  2  0
M  CHG  2   3  -1   8   1
M  END
>  <PUBCHEM_COMPOUND_CID>  (1) 
20268

>  <PUBCHEM_CONFORMER_RMSD>  (1) 
0.6

>  <PUBCHEM_CONFORMER_DIVERSEORDER>  (1) 
1
16
12
15
10
7
13
2
9
5
4
17
6
3
14
11
8

>  <PUBCHEM_MMFF94_PARTIAL_CHARGES>  (1) 
29
1 -0.18
10 0.08
11 0.18
12 -0.15
13 0.1
14 -0.15
15 0.14
16 0.18
17 0.13
18 0.18
19 -0.15
2 -0.36
20 -0.15
21 -0.15
22 0.28
23 0.15
24 0.15
28 0.15
29 0.4
3 -0.52
30 0.4
31 0.15
32 0.15
4 -0.52
5 -0.18
6 -0.9
7 -0.18
8 0.91
9 -0.14

>  <PUBCHEM_EFFECTIVE_ROTOR_COUNT>  (1) 
4

>  <PUBCHEM_PHARMACOPHORE_FEATURES>  (1) 
8
1 2 acceptor
1 3 acceptor
1 3 anion
1 4 acceptor
1 6 cation
1 6 donor
6 16 17 18 19 20 21 rings
6 9 10 11 12 13 14 rings

>  <PUBCHEM_HEAVY_ATOM_COUNT>  (1) 
22

>  <PUBCHEM_ATOM_DEF_STEREO_COUNT>  (1) 
0

>  <PUBCHEM_ATOM_UDEF_STEREO_COUNT>  (1) 
0

>  <PUBCHEM_BOND_DEF_STEREO_COUNT>  (1) 
0

>  <PUBCHEM_BOND_UDEF_STEREO_COUNT>  (1) 
0

>  <PUBCHEM_ISOTOPIC_ATOM_COUNT>  (1) 
0

>  <PUBCHEM_COMPONENT_COUNT>  (1) 
1

>  <PUBCHEM_CACTVS_TAUTO_COUNT>  (1) 
1

>  <PUBCHEM_CONFORMER_ID>  (1) 
00004F2C00000001

>  <PUBCHEM_MMFF94_ENERGY>  (1) 
84.4031

>  <PUBCHEM_FEATURE_SELFOVERLAP>  (1) 
40.676

>  <PUBCHEM_SHAPE_FINGERPRINT>  (1) 
10 15 18341601664819819136
10366900 7 18409173207749115184
10595046 47 18413106165252778737
10968037 39 18410575085248738879
11315181 36 18272938232046440961
11578080 2 13408234839797723380
12107183 9 17617658761188523714
12166972 35 18186803599328894988
12236239 1 17894346670609731171
12516196 113 18202561791593337505
13533116 47 17385994032228128050
14341114 176 18335988644368283760
14528608 73 18412546543598351116
15183329 4 18409164386134539913
15196674 1 18410012181959631152
17492 89 18197215845631766231
17834072 33 18411980273418958054
18681886 176 18342172293868576336
19489759 90 16805039610604619437
200 152 18273211989219965571
20645477 70 18342459197035661262
21065198 48 18338517417879784594
21267235 1 18411707585945263474
21709351 56 18410007745801772780
221357 26 18343866598158308600
23402539 116 18412258446167029575
23557571 272 18201725015636267888
23559900 14 18409727386989239489
239999 70 18272939297741987198
26918003 58 18186522120093522915
29717793 49 17989494013299969844
3004659 81 18260828206883803472
34797466 226 17917721235486185396
34934 24 18411133675673308555
350125 39 18409730669030062236
351380 180 18409729564859294920
3545911 37 18407761430149569132
4073 2 17894917381685419658
4214541 1 18410012100381892608
4325135 7 18344145886637651383
5104073 3 18408888408135466969
5283173 99 18188199902266690053
542803 24 17240484710399560638
59755656 215 18409733941600067038
59755656 520 17022900168473295211
67856867 119 18262520411018684148
7495541 125 17774716549627093177
9709674 26 18339088081415686331
9999458 23 18186521038637340710

>  <PUBCHEM_SHAPE_MULTIPOLES>  (1) 
417.09
15.5
2.17
0.69
3.16
0.57
0
-0.32
2.04
-0.5
-0.09
-0.14
0
0.04

>  <PUBCHEM_SHAPE_SELFOVERLAP>  (1) 
886.346

>  <PUBCHEM_SHAPE_VOLUME>  (1) 
234.5

>  <PUBCHEM_COORDINATE_TYPE>  (1) 
2
5
10

$$$$
