2026
     RDKit          3D

 42 46  0  0  1  0  0  0  0  0999 V2000
    8.7174    0.4611   -0.1601 O   0  0  0  0  0  0  0  0  0  0  0  0
    6.8187    3.4781   -0.2078 O   0  0  0  0  0  0  0  0  0  0  0  0
    9.3218    3.5105    1.6303 O   0  0  0  0  0  0  0  0  0  0  0  0
   11.4350   -0.1526    0.3083 O   0  0  0  0  0  0  0  0  0  0  0  0
   -3.9933   -3.0849    1.3848 O   0  0  0  0  0  0  0  0  0  0  0  0
   -8.3227    2.5767    1.7532 O   0  0  0  0  0  0  0  0  0  0  0  0
    6.3623    0.2691   -0.0440 N   0  0  0  0  0  0  0  0  0  0  0  0
    5.2120   -1.3216    1.0124 N   0  0  0  0  0  0  0  0  0  0  0  0
    4.6989    0.9791   -1.6657 N   0  0  0  0  0  0  0  0  0  0  0  0
    2.6296   -0.2926   -1.4275 N   0  0  0  0  0  0  0  0  0  0  0  0
    2.3562   -2.0042    0.2226 N   0  0  0  0  0  0  0  0  0  0  0  0
   -4.9408   -2.4919   -0.6801 N   0  0  0  0  0  0  0  0  0  0  0  0
   -9.9210    2.8941    0.0997 N   0  0  0  0  0  0  0  0  0  0  0  0
   -8.6926    6.2272   -1.0162 N   0  0  0  0  0  0  0  0  0  0  0  0
    7.5159    2.4323    0.4460 C   0  0  0  0  0  0  0  0  0  0  0  0
    9.0023    2.7089    0.5091 C   0  0  0  0  0  0  0  0  0  0  0  0
    7.4744    1.1546   -0.3827 C   0  0  0  0  0  0  0  0  0  0  0  0
    9.5699    1.3046    0.6330 C   0  0  0  0  0  0  0  0  0  0  0  0
   11.0006    1.1869    0.1390 C   0  0  0  0  0  0  0  0  0  0  0  0
    5.1369    0.2257   -0.6458 C   0  0  0  0  0  0  0  0  0  0  0  0
    6.3591   -0.6787    0.9448 C   0  0  0  0  0  0  0  0  0  0  0  0
    4.4388   -0.7663    0.0240 C   0  0  0  0  0  0  0  0  0  0  0  0
    3.1377   -1.0164   -0.4011 C   0  0  0  0  0  0  0  0  0  0  0  0
    3.4300    0.6463   -1.9878 C   0  0  0  0  0  0  0  0  0  0  0  0
    1.0387   -2.4625    0.0061 C   0  0  0  0  0  0  0  0  0  0  0  0
    0.5161   -3.4834    0.8000 C   0  0  0  0  0  0  0  0  0  0  0  0
    0.2595   -1.8944   -1.0019 C   0  0  0  0  0  0  0  0  0  0  0  0
   -1.5648   -3.3685   -0.4220 C   0  0  0  0  0  0  0  0  0  0  0  0
   -0.7857   -3.9363    0.5860 C   0  0  0  0  0  0  0  0  0  0  0  0
   -1.0422   -2.3475   -1.2158 C   0  0  0  0  0  0  0  0  0  0  0  0
   -2.9566   -3.8529   -0.6509 C   0  0  0  0  0  0  0  0  0  0  0  0
   -4.0137   -3.1058    0.1583 C   0  0  0  0  0  0  0  0  0  0  0  0
   -6.0611   -1.7133   -0.3041 C   0  0  0  0  0  0  0  0  0  0  0  0
   -8.2694   -0.1778    0.4362 C   0  0  0  0  0  0  0  0  0  0  0  0
   -9.4507    0.6425    0.8312 C   0  0  0  0  0  0  0  0  0  0  0  0
   -6.8920   -1.1690   -1.2836 C   0  0  0  0  0  0  0  0  0  0  0  0
   -6.3342   -1.4897    1.0453 C   0  0  0  0  0  0  0  0  0  0  0  0
   -7.9962   -0.4014   -0.9133 C   0  0  0  0  0  0  0  0  0  0  0  0
   -7.4384   -0.7220    1.4154 C   0  0  0  0  0  0  0  0  0  0  0  0
   -9.1508    2.1290    0.9639 C   0  0  0  0  0  0  0  0  0  0  0  0
   -9.8243    4.3337    0.0388 C   0  0  0  0  0  0  0  0  0  0  0  0
   -8.7812    4.7733   -0.9781 C   0  0  0  0  0  0  0  0  0  0  0  0
  1 17  1  0
  1 18  1  0
  2 15  1  0
  3 16  1  0
  4 19  1  0
  5 32  2  0
  6 40  2  0
  7 17  1  0
  7 20  1  0
  7 21  1  0
  8 21  2  0
  8 22  1  0
  9 20  1  0
  9 24  2  0
 10 23  2  0
 10 24  1  0
 11 23  1  0
 11 25  1  0
 12 32  1  0
 12 33  1  0
 13 40  1  0
 13 41  1  0
 14 42  1  0
 15 16  1  0
 15 17  1  0
 16 18  1  0
 18 19  1  0
 20 22  2  0
 22 23  1  0
 25 26  2  0
 25 27  1  0
 26 29  1  0
 27 30  2  0
 28 29  2  0
 28 30  1  0
 28 31  1  0
 31 32  1  0
 33 36  2  0
 33 37  1  0
 34 35  1  0
 34 38  2  0
 34 39  1  0
 35 40  1  0
 36 38  1  0
 37 39  2  0
 41 42  1  0
M  END
>  <PUBCHEM_COMPOUND_CID>  (1) 
2026

>  <PUBCHEM_CONFORMER_RMSD>  (1) 
1.6

>  <PUBCHEM_CONFORMER_DIVERSEORDER>  (1) 
2
117
129
103
27
102
35
90
122
86
83
69
116
21
41
45
119
72
107
114
15
124
40
99
6
63
93
29
127
70
38
101
52
115
66
75
118
78
64
57
12
92
39
32
74
17
44
25
104
10
28
24
91
50
125
73
8
71
16
14
7
111
59
23
42
95
30
77
108
49
96
34
67
11
56
128
18
51
112
130
98
123
84
22
54
33
76
62
126
97
65
1
109
60
31
87
19
94
121
81
58
80
5
88
43
105
120
48
61
4
131
20
85
113
9
53
100
79
36
46
37
68
26
47
106
13
55
110
82
89
3

>  <PUBCHEM_MMFF94_PARTIAL_CHARGES>  (1) 
60
1 -0.56
10 -0.62
11 -0.6
12 -0.55
13 -0.73
14 -0.99
15 0.28
16 0.28
17 0.54
18 0.28
19 0.28
2 -0.68
20 0.11
21 0.04
22 0.23
23 0.41
24 0.47
25 0.1
26 -0.15
27 -0.15
28 -0.14
29 -0.15
3 -0.68
30 -0.15
31 0.2
32 0.57
33 0.12
34 -0.14
35 0.2
36 -0.15
37 -0.15
38 -0.15
39 -0.15
4 -0.68
40 0.57
41 0.3
42 0.27
49 0.4
5 -0.57
50 0.4
51 0.15
52 0.4
53 0.15
54 0.4
55 0.15
56 0.15
57 0.15
58 0.15
6 -0.57
61 0.37
64 0.15
65 0.15
66 0.15
67 0.15
7 0.05
70 0.37
73 0.36
74 0.36
8 -0.57
9 -0.57

>  <PUBCHEM_EFFECTIVE_ROTOR_COUNT>  (1) 
14

>  <PUBCHEM_PHARMACOPHORE_FEATURES>  (1) 
23
1 1 acceptor
1 11 cation
1 11 donor
1 12 donor
1 13 donor
1 14 cation
1 14 donor
1 2 acceptor
1 2 donor
1 3 acceptor
1 3 donor
1 4 acceptor
1 4 donor
1 5 acceptor
1 6 acceptor
3 7 8 21 cation
3 7 9 20 cation
3 9 10 24 cation
5 1 15 16 17 18 rings
5 7 8 20 21 22 rings
6 25 26 27 28 29 30 rings
6 33 34 36 37 38 39 rings
6 9 10 20 22 23 24 rings

>  <PUBCHEM_HEAVY_ATOM_COUNT>  (1) 
42

>  <PUBCHEM_ATOM_DEF_STEREO_COUNT>  (1) 
0

>  <PUBCHEM_ATOM_UDEF_STEREO_COUNT>  (1) 
4

>  <PUBCHEM_BOND_DEF_STEREO_COUNT>  (1) 
0

>  <PUBCHEM_BOND_UDEF_STEREO_COUNT>  (1) 
0

>  <PUBCHEM_ISOTOPIC_ATOM_COUNT>  (1) 
0

>  <PUBCHEM_COMPONENT_COUNT>  (1) 
1

>  <PUBCHEM_CACTVS_TAUTO_COUNT>  (1) 
12

>  <PUBCHEM_CONFORMER_ID>  (1) 
000007EA00000002

>  <PUBCHEM_MMFF94_ENERGY>  (1) 
104.8804

>  <PUBCHEM_FEATURE_SELFOVERLAP>  (1) 
117.341

>  <PUBCHEM_SHAPE_FINGERPRINT>  (1) 
10280341 67 18411983555523084565
10533779 1 18337952295575485197
11181472 205 18342178847873437362
11421887 103 18341606045228356193
11497681 19 9871208136806826250
11578821 258 18340485659673841009
11828042 75 10303803320619050725
12013929 27 10735580394537417555
131240 88 18409175415642075155
13165054 27 18411976954332755981
13553643 46 18338512054162723824
14394314 77 18334856177066081623
15455200 26 17972025948339621613
15538507 64 18411135805687418081
2026 5 9367358032894681687
20609170 114 17895202147863035619
21057603 238 12031203068682199089
21362267 313 18413102889300807202
21585481 151 7997974570727472455
21781055 127 17895484704580491854
23516275 100 18194120708591023549
2851757 41 9151165460088854901
353859 123 18042405721497364861
3711267 37 18339370750403413129
3918712 181 18341614802491735577
406291 66 8790880775385796323
4330586 98 11383826104195920311
54039377 194 9151177545694588795
6201320 82 18271536282730241577
6289498 60 18337390444806332825
636775 72 18410857664617567983
6698420 124 18333453148832883419

>  <PUBCHEM_SHAPE_MULTIPOLES>  (1) 
789.28
45.8
6.51
1.37
14.03
6.62
-0.11
62.37
9.65
-16.75
-0.36
-0.79
0.21
1.76

>  <PUBCHEM_SHAPE_SELFOVERLAP>  (1) 
1701.587

>  <PUBCHEM_SHAPE_VOLUME>  (1) 
428

>  <PUBCHEM_COORDINATE_TYPE>  (1) 
2
5
10

$$$$
