20283
     RDKit          3D

 12 12  0  0  0  0  0  0  0  0999 V2000
   -1.5268   -0.3485    0.2658 C   0  0  0  0  0  0  0  0  0  0  0  0
   -1.7944    1.0390   -0.3330 C   0  0  0  0  0  0  0  0  0  0  0  0
   -2.6691   -1.3173   -0.0683 C   0  0  0  0  0  0  0  0  0  0  0  0
   -0.1902   -0.8999   -0.2269 C   0  0  0  0  0  0  0  0  0  0  0  0
   -3.1506    1.5890    0.1031 C   0  0  0  0  0  0  0  0  0  0  0  0
   -4.0238   -0.7633    0.3671 C   0  0  0  0  0  0  0  0  0  0  0  0
   -4.2823    0.6196   -0.2227 C   0  0  0  0  0  0  0  0  0  0  0  0
    0.9753   -0.0084    0.2006 C   0  0  0  0  0  0  0  0  0  0  0  0
    2.3153   -0.5817   -0.2663 C   0  0  0  0  0  0  0  0  0  0  0  0
    3.4831    0.2927    0.1959 C   0  0  0  0  0  0  0  0  0  0  0  0
    4.8505   -0.2500   -0.2251 C   0  0  0  0  0  0  0  0  0  0  0  0
    6.0130    0.6289    0.2098 C   0  0  0  0  0  0  0  0  0  0  0  0
  1  2  1  0
  1  3  1  0
  1  4  1  0
  2  5  1  0
  3  6  1  0
  4  8  1  0
  5  7  1  0
  6  7  1  0
  8  9  1  0
  9 10  1  0
 10 11  1  0
 11 12  1  0
M  END
>  <PUBCHEM_COMPOUND_CID>  (1) 
20283

>  <PUBCHEM_CONFORMER_RMSD>  (1) 
0.6

>  <PUBCHEM_CONFORMER_DIVERSEORDER>  (1) 
1
111
100
83
95
51
101
3
81
118
72
23
75
54
124
31
4
80
119
120
44
88
9
71
15
32
6
49
73
36
104
60
127
97
41
102
94
63
7
125
58
18
30
20
98
5
85
33
108
48
24
12
123
11
122
34
62
14
59
10
105
22
47
79
116
13
82
76
93
77
21
64
67
27
89
112
42
38
69
113
8
26
55
126
103
40
52
35
87
92
84
68
109
2
57
78
19
96
45
121
115
70
46
114
117
17
90
39
61
99
86
29
37
56
50
25
16
43
74
91
106
110
66
53
107
28
65

>  <PUBCHEM_MMFF94_PARTIAL_CHARGES>  (1) 
0

>  <PUBCHEM_EFFECTIVE_ROTOR_COUNT>  (1) 
6.2

>  <PUBCHEM_PHARMACOPHORE_FEATURES>  (1) 
3
1 12 hydrophobe
5 4 8 9 10 11 hydrophobe
6 1 2 3 5 6 7 rings

>  <PUBCHEM_HEAVY_ATOM_COUNT>  (1) 
12

>  <PUBCHEM_ATOM_DEF_STEREO_COUNT>  (1) 
0

>  <PUBCHEM_ATOM_UDEF_STEREO_COUNT>  (1) 
0

>  <PUBCHEM_BOND_DEF_STEREO_COUNT>  (1) 
0

>  <PUBCHEM_BOND_UDEF_STEREO_COUNT>  (1) 
0

>  <PUBCHEM_ISOTOPIC_ATOM_COUNT>  (1) 
0

>  <PUBCHEM_COMPONENT_COUNT>  (1) 
1

>  <PUBCHEM_CACTVS_TAUTO_COUNT>  (1) 
1

>  <PUBCHEM_CONFORMER_ID>  (1) 
00004F3B00000001

>  <PUBCHEM_MMFF94_ENERGY>  (1) 
1.6602

>  <PUBCHEM_FEATURE_SELFOVERLAP>  (1) 
15.223

>  <PUBCHEM_SHAPE_FINGERPRINT>  (1) 
10014705 185 18259982648082240549
10680689 15 18272372000685413502
114248 4 18060700593827615704
13214271 11 18411418414909391639
13897977 58 18335422365472245277
14123238 8 18411418419162082654
15501527 16 18341898459190636545
17834072 33 18187087299525205108
17834076 25 18410292514480296270
18186145 218 15410600480793052410
18522853 276 18409731763766661732
200 152 16917347030525707467
20279233 1 18059863856541070110
20300324 65 18341893004597708831
20645477 56 18341894090849888367
20645477 70 17203057279520733286
20767249 213 18334012795828800780
22485316 2 18413388731056496902
23402539 116 18336259119548679782
23557571 272 18272378567811592172
26918003 58 12468356851619877860
2916195 48 18271236218855336752
3545911 37 18411702071486817302
42788 4 18410856573178825682
77779 3 18410013221790207054

>  <PUBCHEM_SHAPE_MULTIPOLES>  (1) 
246.95
11.89
1.29
0.67
15.32
0.16
0
2.1
0.45
-1.26
-0.02
-0.02
0
0.28

>  <PUBCHEM_SHAPE_SELFOVERLAP>  (1) 
461.624

>  <PUBCHEM_SHAPE_VOLUME>  (1) 
153.4

>  <PUBCHEM_COORDINATE_TYPE>  (1) 
2
5
10

$$$$
