20288
     RDKit          3D

 19 20  0  0  0  0  0  0  0  0999 V2000
    6.9588    0.3714    0.9458 F   0  0  0  0  0  0  0  0  0  0  0  0
    4.4496    0.1250   -0.1795 O   0  0  0  0  0  0  0  0  0  0  0  0
    2.6902   -1.3653   -0.1168 O   0  0  0  0  0  0  0  0  0  0  0  0
    0.8126    0.7587   -0.1557 C   0  0  0  0  0  0  0  0  0  0  0  0
   -1.9279    0.2519   -0.0307 C   0  0  0  0  0  0  0  0  0  0  0  0
    2.2776    1.0301   -0.2222 C   0  0  0  0  0  0  0  0  0  0  0  0
   -3.3492   -0.0117    0.0346 C   0  0  0  0  0  0  0  0  0  0  0  0
    0.0874    0.5508   -1.3291 C   0  0  0  0  0  0  0  0  0  0  0  0
    0.1675    0.7130    1.0803 C   0  0  0  0  0  0  0  0  0  0  0  0
   -1.2828    0.2976   -1.2665 C   0  0  0  0  0  0  0  0  0  0  0  0
   -1.2028    0.4596    1.1428 C   0  0  0  0  0  0  0  0  0  0  0  0
   -4.2572    1.0465   -0.0071 C   0  0  0  0  0  0  0  0  0  0  0  0
   -3.8115   -1.3236    0.1387 C   0  0  0  0  0  0  0  0  0  0  0  0
    3.1283   -0.2239   -0.1657 C   0  0  0  0  0  0  0  0  0  0  0  0
   -5.6273    0.7927    0.0555 C   0  0  0  0  0  0  0  0  0  0  0  0
   -5.1817   -1.5772    0.2012 C   0  0  0  0  0  0  0  0  0  0  0  0
   -6.0896   -0.5191    0.1596 C   0  0  0  0  0  0  0  0  0  0  0  0
    5.3755   -0.9654   -0.1314 C   0  0  0  0  0  0  0  0  0  0  0  0
    6.7824   -0.4113   -0.1540 C   0  0  0  0  0  0  0  0  0  0  0  0
  1 19  1  0
  2 14  1  0
  2 18  1  0
  3 14  2  0
  4  6  1  0
  4  8  2  0
  4  9  1  0
  5  7  1  0
  5 10  2  0
  5 11  1  0
  6 14  1  0
  7 12  2  0
  7 13  1  0
  8 10  1  0
  9 11  2  0
 12 15  1  0
 13 16  2  0
 15 17  2  0
 16 17  1  0
 18 19  1  0
M  END
>  <PUBCHEM_COMPOUND_CID>  (1) 
20288

>  <PUBCHEM_CONFORMER_RMSD>  (1) 
0.8

>  <PUBCHEM_CONFORMER_DIVERSEORDER>  (1) 
1
20
22
33
3
13
19
21
28
18
10
32
15
29
8
31
26
14
30
6
16
12
9
23
7
24
4
25
11
27
2
17
5

>  <PUBCHEM_MMFF94_PARTIAL_CHARGES>  (1) 
26
1 -0.34
10 -0.15
11 -0.15
12 -0.15
13 -0.15
14 0.66
15 -0.15
16 -0.15
17 -0.15
18 0.28
19 0.34
2 -0.43
22 0.15
23 0.15
24 0.15
25 0.15
26 0.15
27 0.15
28 0.15
29 0.15
3 -0.57
30 0.15
4 -0.14
6 0.2
8 -0.15
9 -0.15

>  <PUBCHEM_EFFECTIVE_ROTOR_COUNT>  (1) 
6

>  <PUBCHEM_PHARMACOPHORE_FEATURES>  (1) 
3
1 3 acceptor
6 4 5 8 9 10 11 rings
6 7 12 13 15 16 17 rings

>  <PUBCHEM_HEAVY_ATOM_COUNT>  (1) 
19

>  <PUBCHEM_ATOM_DEF_STEREO_COUNT>  (1) 
0

>  <PUBCHEM_ATOM_UDEF_STEREO_COUNT>  (1) 
0

>  <PUBCHEM_BOND_DEF_STEREO_COUNT>  (1) 
0

>  <PUBCHEM_BOND_UDEF_STEREO_COUNT>  (1) 
0

>  <PUBCHEM_ISOTOPIC_ATOM_COUNT>  (1) 
0

>  <PUBCHEM_COMPONENT_COUNT>  (1) 
1

>  <PUBCHEM_CACTVS_TAUTO_COUNT>  (1) 
1

>  <PUBCHEM_CONFORMER_ID>  (1) 
00004F4000000001

>  <PUBCHEM_MMFF94_ENERGY>  (1) 
45.4166

>  <PUBCHEM_FEATURE_SELFOVERLAP>  (1) 
15.223

>  <PUBCHEM_SHAPE_FINGERPRINT>  (1) 
10 15 17775276184815171890
10354089 29 10735876162648044462
106641 1 15984818281100114623
10730089 173 8646774391222705551
11315181 36 18341898502430355945
11524674 6 17775283871863211503
11796584 16 18413393133561681039
12091667 2 17022623061609802965
12107183 9 17689438187612111049
12236239 1 17988644077895174248
12516196 113 18342739615671716232
12596602 18 17703793604677075986
12670543 26 15213290915775344319
13140716 1 15840976910163607077
13288520 33 18334577954054580813
13533116 47 12966859992400550844
1420 363 17847065480398287398
14251752 14 14851595579313224142
14251764 18 18343587348021759737
14251764 46 18410292510174746989
14911166 2 15502377846076914525
15716309 27 18272650151758246926
17093844 174 18409727353331075697
17834072 33 18334582368637694917
18006028 8 17917991676544173985
187816 3 15502376724800416869
19489759 90 18273497854017412089
19784866 240 18410020918234276262
200 152 18410293601333869032
20281389 69 13183020701197961954
20374829 77 17821729437795437462
21267235 1 17530972419269246099
21637258 2 18408877460205994663
22079108 93 18131344233603880442
22224240 67 15267336323712991046
23035841 295 17095525101888974259
23402539 116 16877661253479686836
23522609 53 17605582992727887292
23536379 177 18334577931920627641
23559900 14 18338231686675295417
23622692 88 16343701049823150504
26918003 58 18201721756056354819
2838139 119 8862943853269046307
3004659 81 18259989271343544086
3009799 131 14129060331299968878
347723 3 15646773379263016245
4214541 1 18409450276411451373
4325135 7 18114186346115262262
4463277 17 17846778503447281312
5104073 3 16056028198996912243
54446538 1 9799687095320341234
559249 180 18334857217139282983

>  <PUBCHEM_SHAPE_MULTIPOLES>  (1) 
372
16.44
1.24
0.97
16.03
0.31
0.04
4.21
-1.67
-0.84
-0.01
0.1
-0.17
0.21

>  <PUBCHEM_SHAPE_SELFOVERLAP>  (1) 
789.643

>  <PUBCHEM_SHAPE_VOLUME>  (1) 
207.8

>  <PUBCHEM_COORDINATE_TYPE>  (1) 
2
5
10

$$$$
