20295
     RDKit          3D

 11 11  0  0  1  0  0  0  0  0999 V2000
    4.1125    0.3173   -0.3934 Cl  0  0  0  0  0  0  0  0  0  0  0  0
   -2.5906   -0.1320   -0.5699 S   0  0  0  0  0  0  0  0  0  0  0  0
   -1.6051   -0.5086    0.6574 O   0  0  0  0  0  0  0  0  0  0  0  0
   -3.9895   -0.2714    0.2105 O   0  0  0  0  0  0  0  0  0  0  0  0
   -2.3982    1.3214   -0.8904 O   0  0  0  0  0  0  0  0  0  0  0  0
   -0.2797   -0.3172    0.4140 C   0  0  0  0  0  0  0  0  0  0  0  0
    0.3126    0.9114    0.7057 C   0  0  0  0  0  0  0  0  0  0  0  0
    0.4861   -1.3498   -0.1274 C   0  0  0  0  0  0  0  0  0  0  0  0
    1.6708    1.1075    0.4560 C   0  0  0  0  0  0  0  0  0  0  0  0
    1.8444   -1.1537   -0.3771 C   0  0  0  0  0  0  0  0  0  0  0  0
    2.4368    0.0751   -0.0853 C   0  0  0  0  0  0  0  0  0  0  0  0
  1 11  1  0
  2  3  1  0
  2  4  1  0
  2  5  2  0
  3  6  1  0
  6  7  2  0
  6  8  1  0
  7  9  1  0
  8 10  2  0
  9 11  2  0
 10 11  1  0
M  END
>  <PUBCHEM_COMPOUND_CID>  (1) 
20295

>  <PUBCHEM_CONFORMER_RMSD>  (1) 
0.4

>  <PUBCHEM_CONFORMER_DIVERSEORDER>  (1) 
1
8
4
7
2
5
6
3

>  <PUBCHEM_MMFF94_PARTIAL_CHARGES>  (1) 
16
1 -0.18
10 -0.15
11 0.18
12 0.15
13 0.15
14 0.15
15 0.15
16 0.5
2 0.6
3 -0.13
4 -0.55
5 -0.5
6 0.08
7 -0.15
8 -0.15
9 -0.15

>  <PUBCHEM_EFFECTIVE_ROTOR_COUNT>  (1) 
2

>  <PUBCHEM_PHARMACOPHORE_FEATURES>  (1) 
3
1 4 acceptor
1 5 acceptor
6 6 7 8 9 10 11 rings

>  <PUBCHEM_HEAVY_ATOM_COUNT>  (1) 
11

>  <PUBCHEM_ATOM_DEF_STEREO_COUNT>  (1) 
0

>  <PUBCHEM_ATOM_UDEF_STEREO_COUNT>  (1) 
0

>  <PUBCHEM_BOND_DEF_STEREO_COUNT>  (1) 
0

>  <PUBCHEM_BOND_UDEF_STEREO_COUNT>  (1) 
0

>  <PUBCHEM_ISOTOPIC_ATOM_COUNT>  (1) 
0

>  <PUBCHEM_COMPONENT_COUNT>  (1) 
1

>  <PUBCHEM_CACTVS_TAUTO_COUNT>  (1) 
1

>  <PUBCHEM_CONFORMER_ID>  (1) 
00004F4700000001

>  <PUBCHEM_MMFF94_ENERGY>  (1) 
25.9872

>  <PUBCHEM_FEATURE_SELFOVERLAP>  (1) 
15.242

>  <PUBCHEM_SHAPE_FINGERPRINT>  (1) 
11031198 65 18410296903942277718
11062470 55 18202284714494189762
11401426 45 18131909369315736722
11769659 78 14045749179774773420
12251169 10 8430313549952289821
12897270 3 18342170064094903141
12932764 1 18271794731553471055
14325111 11 18334854995955128932
14911166 2 18272941548336024316
14993402 34 17346599685861276276
15775835 57 18343301487340290159
16945 1 18131634486992590666
17844478 74 18333457538699746873
18186145 218 17988637523463941760
20201158 50 18412265034040446787
20645477 70 18271240500642591623
21119208 17 16845576417575621037
21293036 1 18343586256778306782
22485316 2 12535346783675203172
23402539 116 17676480683533745879
23402655 69 18270954657815730261
2748010 2 17840872090307469034
528886 8 18201717370699755370

>  <PUBCHEM_SHAPE_MULTIPOLES>  (1) 
214.49
5.96
1.27
0.84
0.98
0.04
-0.05
-0.49
-1.16
-0.22
-0.04
0.2
-0.11
0.33

>  <PUBCHEM_SHAPE_SELFOVERLAP>  (1) 
422.873

>  <PUBCHEM_SHAPE_VOLUME>  (1) 
129.9

>  <PUBCHEM_COORDINATE_TYPE>  (1) 
2
5
10

$$$$
