20294
     RDKit          3D

 18 19  0  0  0  0  0  0  0  0999 V2000
   -3.9811    1.0347   -1.5841 S   0  0  0  0  0  0  0  0  0  0  0  0
    2.2518   -1.3306    0.1327 O   0  0  0  0  0  0  0  0  0  0  0  0
   -1.4790   -1.3672    0.0563 N   0  0  0  0  0  0  0  0  0  0  0  0
   -0.0639   -1.8506   -0.2263 C   0  0  0  0  0  0  0  0  0  0  0  0
   -1.6511    0.0441   -0.4868 C   0  0  0  0  0  0  0  0  0  0  0  0
   -2.4771   -2.2961   -0.6199 C   0  0  0  0  0  0  0  0  0  0  0  0
   -1.7240   -1.3661    1.5583 C   0  0  0  0  0  0  0  0  0  0  0  0
    0.9271   -0.9048    0.4232 C   0  0  0  0  0  0  0  0  0  0  0  0
   -3.0246    0.5922   -0.2461 C   0  0  0  0  0  0  0  0  0  0  0  0
   -3.6471    0.7973    0.9522 C   0  0  0  0  0  0  0  0  0  0  0  0
   -4.9541    1.3358    0.7745 C   0  0  0  0  0  0  0  0  0  0  0  0
   -5.2635    1.5148   -0.5559 C   0  0  0  0  0  0  0  0  0  0  0  0
    3.2109   -0.3548    0.0522 C   0  0  0  0  0  0  0  0  0  0  0  0
    3.0802    0.8026    0.8112 C   0  0  0  0  0  0  0  0  0  0  0  0
    4.3040   -0.5326   -0.7878 C   0  0  0  0  0  0  0  0  0  0  0  0
    4.0560    1.7958    0.7286 C   0  0  0  0  0  0  0  0  0  0  0  0
    5.2798    0.4607   -0.8702 C   0  0  0  0  0  0  0  0  0  0  0  0
    5.1557    1.6249   -0.1120 C   0  0  0  0  0  0  0  0  0  0  0  0
  1  9  1  0
  1 12  1  0
  2  8  1  0
  2 13  1  0
  3  4  1  0
  3  5  1  0
  3  6  1  0
  3  7  1  0
  4  8  1  0
  5  9  1  0
  9 10  2  0
 10 11  1  0
 11 12  2  0
 13 14  2  0
 13 15  1  0
 14 16  1  0
 15 17  2  0
 16 18  2  0
 17 18  1  0
M  CHG  1   3   1
M  END
>  <PUBCHEM_COMPOUND_CID>  (1) 
20294

>  <PUBCHEM_CONFORMER_RMSD>  (1) 
0.8

>  <PUBCHEM_CONFORMER_DIVERSEORDER>  (1) 
2
40
51
17
41
35
54
16
37
50
7
5
33
28
27
47
39
8
21
52
9
14
45
43
29
31
22
13
19
23
34
36
44
46
4
24
3
6
53
48
30
49
25
26
11
38
18
42
32
15
10
1
12
20

>  <PUBCHEM_MMFF94_PARTIAL_CHARGES>  (1) 
26
1 -0.08
10 -0.15
11 -0.15
12 -0.11
13 0.08
14 -0.15
15 -0.15
16 -0.15
17 -0.15
18 -0.15
2 -0.36
3 -1.01
31 0.15
32 0.15
33 0.15
34 0.15
35 0.15
36 0.15
37 0.15
38 0.15
4 0.5
5 0.68
6 0.5
7 0.5
8 0.28
9 -0.14

>  <PUBCHEM_EFFECTIVE_ROTOR_COUNT>  (1) 
6

>  <PUBCHEM_PHARMACOPHORE_FEATURES>  (1) 
4
1 2 acceptor
1 3 cation
5 1 9 10 11 12 rings
6 13 14 15 16 17 18 rings

>  <PUBCHEM_HEAVY_ATOM_COUNT>  (1) 
18

>  <PUBCHEM_ATOM_DEF_STEREO_COUNT>  (1) 
0

>  <PUBCHEM_ATOM_UDEF_STEREO_COUNT>  (1) 
0

>  <PUBCHEM_BOND_DEF_STEREO_COUNT>  (1) 
0

>  <PUBCHEM_BOND_UDEF_STEREO_COUNT>  (1) 
0

>  <PUBCHEM_ISOTOPIC_ATOM_COUNT>  (1) 
0

>  <PUBCHEM_COMPONENT_COUNT>  (1) 
1

>  <PUBCHEM_CACTVS_TAUTO_COUNT>  (1) 
1

>  <PUBCHEM_CONFORMER_ID>  (1) 
00004F4600000002

>  <PUBCHEM_MMFF94_ENERGY>  (1) 
65.0752

>  <PUBCHEM_FEATURE_SELFOVERLAP>  (1) 
20.297

>  <PUBCHEM_SHAPE_FINGERPRINT>  (1) 
10014705 185 18408321107464498495
10447042 23 10231750068391040424
10498660 4 18412823612081151272
11089746 13 18343577439442556552
11128504 68 17418368091150972489
11405975 8 18408601453303167162
11595378 159 16370997477986005060
11796584 16 12391505356862507645
12363563 72 10591759926125408170
12390115 104 18340217348903592427
12596602 18 14923951141039585964
12730499 353 18411709759220308130
12892183 10 15864068711599379721
12969540 114 18336254666126302509
13685833 64 10159683717131275261
14123255 352 18334857216463816013
14251752 14 13326583912945753859
14341114 328 15357986654728436644
14528608 73 18272363161980257237
14848178 5 10592039159087232741
14848178 96 18413102892387894848
15183329 4 18201164261265339670
17834072 32 18411982476916418502
17857418 61 10737289051852984825
17870717 6 13758072991901383421
1813 80 11167932602393563587
19784866 240 11815895669466243171
20374829 77 11455886949597391609
20432913 95 10737289034509565933
204376 136 18336825299934757343
20645477 56 18407763629320836135
20645477 70 17988933249691059438
20671657 53 12895061929723982251
21033648 29 18340766056908861000
212847 35 18335981991727420138
21315764 119 15195014790823552997
22289505 5 18202288000846038092
23175994 123 11527652099776410619
23198884 109 17560804311933208325
23227448 37 18336826485029005853
23402655 69 18202002157744876788
23403322 49 10375874069380922481
23557571 272 18200321042440588358
23559900 14 18202282486060732550
283562 15 18264481974592477355
2838139 119 18339635655385908733
3004659 81 12247674976721072976
3472631 163 18412545422459042877
4028521 119 18410571781917793264
4259306 186 10447927265277569225
474 4 18342174419481755209
5104073 3 18261105305605286386
5207 217 18409157828041128655
5352402 22 11674873373334684256
56616090 284 14836400337544904559
5924683 9 11241963785501529039
59682541 35 18261405472922857697
59682541 52 17417533484368289580
59755656 520 17385443228479513130
633830 44 18057044610502263319
960060 61 16415481541224281396

>  <PUBCHEM_SHAPE_MULTIPOLES>  (1) 
363.43
13.11
2.17
1.22
5.21
0.58
-0.01
-8.7
1.77
-0.64
-0.03
-0.77
-0.1
0.53

>  <PUBCHEM_SHAPE_SELFOVERLAP>  (1) 
739.573

>  <PUBCHEM_SHAPE_VOLUME>  (1) 
213.8

>  <PUBCHEM_COORDINATE_TYPE>  (1) 
2
5
10

$$$$
