20292
     RDKit          3D

 22 22  0  0  0  0  0  0  0  0999 V2000
    1.1992    1.0336   -0.3556 O   0  0  0  0  0  0  0  0  0  0  0  0
   -3.5769   -2.4347    0.0416 O   0  0  0  0  0  0  0  0  0  0  0  0
   -3.5446    2.3543    0.0703 O   0  0  0  0  0  0  0  0  0  0  0  0
   -4.9186   -0.0329    0.3606 O   0  0  0  0  0  0  0  0  0  0  0  0
    1.1177   -0.9452   -1.5290 O   0  0  0  0  0  0  0  0  0  0  0  0
    4.7884    0.5166    0.3051 N   0  0  0  0  0  0  0  0  0  0  0  0
    3.3443    0.4472    0.5255 C   0  0  0  0  0  0  0  0  0  0  0  0
    5.5078    0.3116    1.5617 C   0  0  0  0  0  0  0  0  0  0  0  0
    5.2019   -0.4739   -0.6882 C   0  0  0  0  0  0  0  0  0  0  0  0
    2.5953    1.1402   -0.6015 C   0  0  0  0  0  0  0  0  0  0  0  0
    5.2347   -1.0701    2.1314 C   0  0  0  0  0  0  0  0  0  0  0  0
    6.6905   -0.3751   -0.9753 C   0  0  0  0  0  0  0  0  0  0  0  0
   -0.8671   -0.0544   -0.5533 C   0  0  0  0  0  0  0  0  0  0  0  0
    0.5816   -0.0619   -0.8780 C   0  0  0  0  0  0  0  0  0  0  0  0
   -1.5394    1.1570   -0.3922 C   0  0  0  0  0  0  0  0  0  0  0  0
   -1.5554   -1.2587   -0.4069 C   0  0  0  0  0  0  0  0  0  0  0  0
   -2.9160   -1.2516   -0.0993 C   0  0  0  0  0  0  0  0  0  0  0  0
   -2.8999    1.1642   -0.0846 C   0  0  0  0  0  0  0  0  0  0  0  0
   -3.5882   -0.0401    0.0619 C   0  0  0  0  0  0  0  0  0  0  0  0
   -2.8161   -3.6273   -0.1395 C   0  0  0  0  0  0  0  0  0  0  0  0
   -2.7678    3.5388   -0.0964 C   0  0  0  0  0  0  0  0  0  0  0  0
   -5.2714   -0.0376    1.7419 C   0  0  0  0  0  0  0  0  0  0  0  0
  1 10  1  0
  1 14  1  0
  2 17  1  0
  2 20  1  0
  3 18  1  0
  3 21  1  0
  4 19  1  0
  4 22  1  0
  5 14  2  0
  6  7  1  0
  6  8  1  0
  6  9  1  0
  7 10  1  0
  8 11  1  0
  9 12  1  0
 13 14  1  0
 13 15  2  0
 13 16  1  0
 15 18  1  0
 16 17  2  0
 17 19  1  0
 18 19  2  0
M  END
>  <PUBCHEM_COMPOUND_CID>  (1) 
20292

>  <PUBCHEM_CONFORMER_RMSD>  (1) 
1

>  <PUBCHEM_CONFORMER_DIVERSEORDER>  (1) 
2
20
8
30
12
1
27
16
28
31
29
13
26
21
33
19
23
10
3
14
6
32
5
7
4
15
18
9
22
25
11
24
17

>  <PUBCHEM_MMFF94_PARTIAL_CHARGES>  (1) 
22
1 -0.43
10 0.28
13 0.09
14 0.63
15 -0.15
16 -0.15
17 0.08
18 0.08
19 0.08
2 -0.36
20 0.28
21 0.28
22 0.28
3 -0.36
37 0.15
38 0.15
4 -0.36
5 -0.57
6 -0.81
7 0.27
8 0.27
9 0.27

>  <PUBCHEM_EFFECTIVE_ROTOR_COUNT>  (1) 
10

>  <PUBCHEM_PHARMACOPHORE_FEATURES>  (1) 
6
1 2 acceptor
1 3 acceptor
1 4 acceptor
1 5 acceptor
1 6 cation
6 13 15 16 17 18 19 rings

>  <PUBCHEM_HEAVY_ATOM_COUNT>  (1) 
22

>  <PUBCHEM_ATOM_DEF_STEREO_COUNT>  (1) 
0

>  <PUBCHEM_ATOM_UDEF_STEREO_COUNT>  (1) 
0

>  <PUBCHEM_BOND_DEF_STEREO_COUNT>  (1) 
0

>  <PUBCHEM_BOND_UDEF_STEREO_COUNT>  (1) 
0

>  <PUBCHEM_ISOTOPIC_ATOM_COUNT>  (1) 
0

>  <PUBCHEM_COMPONENT_COUNT>  (1) 
1

>  <PUBCHEM_CACTVS_TAUTO_COUNT>  (1) 
1

>  <PUBCHEM_CONFORMER_ID>  (1) 
00004F4400000002

>  <PUBCHEM_MMFF94_ENERGY>  (1) 
81.0315

>  <PUBCHEM_FEATURE_SELFOVERLAP>  (1) 
30.457

>  <PUBCHEM_SHAPE_FINGERPRINT>  (1) 
10319926 262 18341607058982458498
10912923 1 17894346679685046724
11545043 162 18131633387855515594
12107183 9 17901938652587057544
12236239 1 17458345234182576612
12403259 415 17846778477830718008
12596602 18 17458347441949040200
12633257 1 18270973430854056417
12839892 36 18342452685944582742
13140716 1 18197785612188454929
13167823 11 18259983795133602154
13675066 3 17917708028857116116
14341114 176 18410579504585710400
14420673 8 18339361843343426390
14844126 61 18264485255899726787
15042514 8 18338241591254982095
15250474 111 18187916309886965714
15348495 7 18059287764567738114
15537594 2 17967250910308375090
17844677 252 18411425020775347132
1813 80 16805610222658384678
18927931 339 18410579513191346231
19377110 9 17749101215289247512
19784866 240 16008754615082521921
20645477 70 14779539081225127840
21033648 29 17417798535933359384
21065201 7 18342742897300829310
21650355 55 18338799043623397143
22182313 1 17988375757944544548
22950370 63 17895191078876906556
23366157 5 17683529807351715317
23402539 116 18341043095374232957
23522609 53 17750537100202862948
23557571 272 18201447943291134428
23559900 14 18340764957086308172
2838139 119 14979683130941459105
351380 3 17748824133504541410
4214541 1 18411139125870931756
474 4 13542466496898643174
5104073 3 18269275840386965088
5364581 5 18056181708612794824
573450 72 18334006194812128912
57724786 102 16702013227977977792
5924683 9 18200584929758557895
59755656 215 18341616975460402846

>  <PUBCHEM_SHAPE_MULTIPOLES>  (1) 
418.42
14.42
2.78
1.35
18.89
0.24
-0.64
1.54
-4.59
-5
0.19
1.57
0.29
-0.31

>  <PUBCHEM_SHAPE_SELFOVERLAP>  (1) 
845.234

>  <PUBCHEM_SHAPE_VOLUME>  (1) 
247.5

>  <PUBCHEM_COORDINATE_TYPE>  (1) 
2
5
10

$$$$
