20314
     RDKit          3D

  8  8  0  0  0  0  0  0  0  0999 V2000
   -0.7118   -1.2063   -0.0002 N   0  0  0  0  0  0  0  0  0  0  0  0
    2.7882   -0.0372    0.0001 N   0  0  0  0  0  0  0  0  0  0  0  0
   -2.7612    0.0085    0.0004 N   0  0  0  0  0  0  0  0  0  0  0  0
    1.3843   -0.0018    0.0000 C   0  0  0  0  0  0  0  0  0  0  0  0
    0.6979    1.2074    0.0000 C   0  0  0  0  0  0  0  0  0  0  0  0
   -0.6926    1.2111   -0.0001 C   0  0  0  0  0  0  0  0  0  0  0  0
   -1.3444   -0.0115   -0.0003 C   0  0  0  0  0  0  0  0  0  0  0  0
    0.6395   -1.1702    0.0001 C   0  0  0  0  0  0  0  0  0  0  0  0
  1  7  2  0
  1  8  1  0
  2  4  1  0
  3  7  1  0
  4  5  1  0
  4  8  2  0
  5  6  2  0
  6  7  1  0
M  END
>  <PUBCHEM_COMPOUND_CID>  (1) 
20314

>  <PUBCHEM_CONFORMER_RMSD>  (1) 
0.4

>  <PUBCHEM_CONFORMER_DIVERSEORDER>  (1) 
1

>  <PUBCHEM_MMFF94_PARTIAL_CHARGES>  (1) 
15
1 -0.62
10 0.15
11 0.15
12 0.4
13 0.4
14 0.4
15 0.4
2 -0.9
3 -0.9
4 0.1
5 -0.15
6 -0.15
7 0.41
8 0.16
9 0.15

>  <PUBCHEM_EFFECTIVE_ROTOR_COUNT>  (1) 
0

>  <PUBCHEM_PHARMACOPHORE_FEATURES>  (1) 
5
1 2 cation
1 2 donor
1 3 donor
3 1 3 7 cation
6 1 4 5 6 7 8 rings

>  <PUBCHEM_HEAVY_ATOM_COUNT>  (1) 
8

>  <PUBCHEM_ATOM_DEF_STEREO_COUNT>  (1) 
0

>  <PUBCHEM_ATOM_UDEF_STEREO_COUNT>  (1) 
0

>  <PUBCHEM_BOND_DEF_STEREO_COUNT>  (1) 
0

>  <PUBCHEM_BOND_UDEF_STEREO_COUNT>  (1) 
0

>  <PUBCHEM_ISOTOPIC_ATOM_COUNT>  (1) 
0

>  <PUBCHEM_COMPONENT_COUNT>  (1) 
1

>  <PUBCHEM_CACTVS_TAUTO_COUNT>  (1) 
4

>  <PUBCHEM_CONFORMER_ID>  (1) 
00004F5A00000001

>  <PUBCHEM_MMFF94_ENERGY>  (1) 
35.3179

>  <PUBCHEM_FEATURE_SELFOVERLAP>  (1) 
25.371

>  <PUBCHEM_SHAPE_FINGERPRINT>  (1) 
16714656 1 18410577283892075844
18185500 45 18410571803308142750
20096714 4 18339080492176247603
21040471 1 18266458891601876997
23402655 69 18195226842815419837
23552423 10 18044947766093129902
29004967 10 18261399935612935537

>  <PUBCHEM_SHAPE_MULTIPOLES>  (1) 
149.69
2.94
1.32
0.58
0.04
0.04
0
-0.08
0
0
0
-0.01
0.01
0

>  <PUBCHEM_SHAPE_SELFOVERLAP>  (1) 
309.44

>  <PUBCHEM_SHAPE_VOLUME>  (1) 
84.1

>  <PUBCHEM_COORDINATE_TYPE>  (1) 
2
5
10

$$$$
