20312
     RDKit          3D

 11 11  0  0  0  0  0  0  0  0999 V2000
   -0.2481    2.7306   -0.0017 Cl  0  0  0  0  0  0  0  0  0  0  0  0
   -0.2518   -2.7301   -0.0003 Cl  0  0  0  0  0  0  0  0  0  0  0  0
   -2.2880    1.0988   -0.0020 O   0  0  0  0  0  0  0  0  0  0  0  0
   -2.2892   -1.0965    0.0001 O   0  0  0  0  0  0  0  0  0  0  0  0
   -1.6815    0.0008    0.0004 N   0  0  0  0  0  0  0  0  0  0  0  0
    1.8236    1.2039    0.0008 N   0  0  0  0  0  0  0  0  0  0  0  0
    1.8225   -1.2059   -0.0018 N   0  0  0  0  0  0  0  0  0  0  0  0
   -0.2606    0.0001    0.0028 C   0  0  0  0  0  0  0  0  0  0  0  0
    0.4748    1.1676    0.0027 C   0  0  0  0  0  0  0  0  0  0  0  0
    0.4738   -1.1682    0.0002 C   0  0  0  0  0  0  0  0  0  0  0  0
    2.4244   -0.0013   -0.0013 C   0  0  0  0  0  0  0  0  0  0  0  0
  1  9  1  0
  2 10  1  0
  3  5  1  0
  4  5  2  0
  5  8  1  0
  6  9  2  0
  6 11  1  0
  7 10  1  0
  7 11  2  0
  8  9  1  0
  8 10  2  0
M  CHG  2   3  -1   5   1
M  END
>  <PUBCHEM_COMPOUND_CID>  (1) 
20312

>  <PUBCHEM_CONFORMER_RMSD>  (1) 
0.4

>  <PUBCHEM_CONFORMER_DIVERSEORDER>  (1) 
1

>  <PUBCHEM_MMFF94_PARTIAL_CHARGES>  (1) 
12
1 -0.18
10 0.49
11 0.47
12 0.15
2 -0.18
3 -0.52
4 -0.52
5 0.91
6 -0.62
7 -0.62
8 0.13
9 0.49

>  <PUBCHEM_EFFECTIVE_ROTOR_COUNT>  (1) 
1

>  <PUBCHEM_PHARMACOPHORE_FEATURES>  (1) 
6
1 3 acceptor
1 3 anion
1 4 acceptor
1 6 acceptor
3 6 7 11 cation
6 6 7 8 9 10 11 rings

>  <PUBCHEM_HEAVY_ATOM_COUNT>  (1) 
11

>  <PUBCHEM_ATOM_DEF_STEREO_COUNT>  (1) 
0

>  <PUBCHEM_ATOM_UDEF_STEREO_COUNT>  (1) 
0

>  <PUBCHEM_BOND_DEF_STEREO_COUNT>  (1) 
0

>  <PUBCHEM_BOND_UDEF_STEREO_COUNT>  (1) 
0

>  <PUBCHEM_ISOTOPIC_ATOM_COUNT>  (1) 
0

>  <PUBCHEM_COMPONENT_COUNT>  (1) 
1

>  <PUBCHEM_CACTVS_TAUTO_COUNT>  (1) 
1

>  <PUBCHEM_CONFORMER_ID>  (1) 
00004F5800000001

>  <PUBCHEM_MMFF94_ENERGY>  (1) 
41.3844

>  <PUBCHEM_FEATURE_SELFOVERLAP>  (1) 
30.527

>  <PUBCHEM_SHAPE_FINGERPRINT>  (1) 
12423570 1 17702935925377388294
16945 1 18122343750781171906
18185500 45 18412262817842401911
193761 8 17689998933946550530
21040471 1 18338517546739313666
2334 1 18410856594025901697
23552423 10 17614856106017861942
241688 4 18411138017463115584
2748010 2 18410856563950581231
5084963 1 18130509750705413131
528886 8 18411132502714492881
66348 1 18410856542475751185

>  <PUBCHEM_SHAPE_MULTIPOLES>  (1) 
203.43
2.9
2.72
0.58
0
0.14
0
0.43
0
0
0
0
-0.03
0

>  <PUBCHEM_SHAPE_SELFOVERLAP>  (1) 
411.913

>  <PUBCHEM_SHAPE_VOLUME>  (1) 
120.2

>  <PUBCHEM_COORDINATE_TYPE>  (1) 
2
5
10

$$$$
