20311
     RDKit          3D

 15 15  0  0  0  0  0  0  0  0999 V2000
    2.1855   -1.1911    0.8257 O   0  0  0  0  0  0  0  0  0  0  0  0
    2.2363    1.1958    0.8427 O   0  0  0  0  0  0  0  0  0  0  0  0
    2.1701   -0.0384   -1.1999 O   0  0  0  0  0  0  0  0  0  0  0  0
   -3.9170   -0.0129    0.2016 O   0  0  0  0  0  0  0  0  0  0  0  0
    1.7248    0.0218    0.1786 C   0  0  0  0  0  0  0  0  0  0  0  0
    0.1903    0.0128    0.1849 C   0  0  0  0  0  0  0  0  0  0  0  0
   -0.4588   -0.0311    1.3946 C   0  0  0  0  0  0  0  0  0  0  0  0
   -0.4687    0.0481   -1.0200 C   0  0  0  0  0  0  0  0  0  0  0  0
   -1.8537   -0.0402    1.4000 C   0  0  0  0  0  0  0  0  0  0  0  0
   -1.8635    0.0392   -1.0146 C   0  0  0  0  0  0  0  0  0  0  0  0
   -2.5560   -0.0051    0.1954 C   0  0  0  0  0  0  0  0  0  0  0  0
    1.7725   -2.4109    0.2176 C   0  0  0  0  0  0  0  0  0  0  0  0
    1.8298    2.4261    0.2525 C   0  0  0  0  0  0  0  0  0  0  0  0
    3.5811   -0.0386   -1.3939 C   0  0  0  0  0  0  0  0  0  0  0  0
   -4.5724    0.0245   -1.0652 C   0  0  0  0  0  0  0  0  0  0  0  0
  1  5  1  0
  1 12  1  0
  2  5  1  0
  2 13  1  0
  3  5  1  0
  3 14  1  0
  4 11  1  0
  4 15  1  0
  5  6  1  0
  6  7  2  0
  6  8  1  0
  7  9  1  0
  8 10  2  0
  9 11  2  0
 10 11  1  0
M  END
>  <PUBCHEM_COMPOUND_CID>  (1) 
20311

>  <PUBCHEM_CONFORMER_RMSD>  (1) 
0.6

>  <PUBCHEM_CONFORMER_DIVERSEORDER>  (1) 
1
5
3
4
2

>  <PUBCHEM_MMFF94_PARTIAL_CHARGES>  (1) 
19
1 -0.56
10 -0.15
11 0.08
12 0.28
13 0.28
14 0.28
15 0.28
16 0.15
17 0.15
18 0.15
19 0.15
2 -0.56
3 -0.56
4 -0.36
5 0.98
6 -0.14
7 -0.15
8 -0.15
9 -0.15

>  <PUBCHEM_EFFECTIVE_ROTOR_COUNT>  (1) 
5

>  <PUBCHEM_PHARMACOPHORE_FEATURES>  (1) 
5
1 1 acceptor
1 2 acceptor
1 3 acceptor
1 4 acceptor
6 6 7 8 9 10 11 rings

>  <PUBCHEM_HEAVY_ATOM_COUNT>  (1) 
15

>  <PUBCHEM_ATOM_DEF_STEREO_COUNT>  (1) 
0

>  <PUBCHEM_ATOM_UDEF_STEREO_COUNT>  (1) 
0

>  <PUBCHEM_BOND_DEF_STEREO_COUNT>  (1) 
0

>  <PUBCHEM_BOND_UDEF_STEREO_COUNT>  (1) 
0

>  <PUBCHEM_ISOTOPIC_ATOM_COUNT>  (1) 
0

>  <PUBCHEM_COMPONENT_COUNT>  (1) 
1

>  <PUBCHEM_CACTVS_TAUTO_COUNT>  (1) 
1

>  <PUBCHEM_CONFORMER_ID>  (1) 
00004F5700000001

>  <PUBCHEM_MMFF94_ENERGY>  (1) 
60.1758

>  <PUBCHEM_FEATURE_SELFOVERLAP>  (1) 
25.484

>  <PUBCHEM_SHAPE_FINGERPRINT>  (1) 
107287 299 18040444299461857578
11031198 65 18187088355696815118
11543360 7 18339066199279389423
12032990 46 15769775767138371927
12326174 3 18344148090219585594
12932764 1 18410572886003787967
13538477 17 17417799699378872935
14115302 16 17203325645618614797
14993402 34 18059867150907326860
15219456 202 17168439198141813010
15775835 57 18335142015898454534
16945 1 18410579482778175075
18186145 218 18343019999884755249
19765921 60 17699555137380312864
20645476 183 18131630106099822247
20645477 70 18131068251384049887
21501502 16 18044660801847359221
2255824 54 18272088326969965692
23402539 116 16660361519361137710
23526113 38 17676213424550372146
23557571 272 16371877151543780651
23559900 14 16660644029767864650
2748010 2 17975430305871121760
3060560 45 18412824702976457990
3286 77 18261097544134943707
5084963 1 16415212125961680971
8030462 33 18409738326323501489

>  <PUBCHEM_SHAPE_MULTIPOLES>  (1) 
285.22
6.25
1.58
1.41
5.08
0.01
0.05
0.05
2.2
-1.88
-0.33
0.03
0
0.08

>  <PUBCHEM_SHAPE_SELFOVERLAP>  (1) 
579.96

>  <PUBCHEM_SHAPE_VOLUME>  (1) 
165.8

>  <PUBCHEM_COORDINATE_TYPE>  (1) 
2
5
10

$$$$
