20329
     RDKit          3D

 10 11  0  0  0  0  0  0  0  0999 V2000
    1.9801    0.8623   -0.0002 N   0  0  0  0  0  0  0  0  0  0  0  0
    1.3948   -1.2818    0.0001 N   0  0  0  0  0  0  0  0  0  0  0  0
   -1.4969   -2.2037   -0.0002 N   0  0  0  0  0  0  0  0  0  0  0  0
    0.6087    0.8573   -0.0001 C   0  0  0  0  0  0  0  0  0  0  0  0
    0.2678   -0.4925    0.0000 C   0  0  0  0  0  0  0  0  0  0  0  0
   -1.0895   -0.8560    0.0000 C   0  0  0  0  0  0  0  0  0  0  0  0
   -0.3339    1.8860   -0.0001 C   0  0  0  0  0  0  0  0  0  0  0  0
   -2.0533    0.1601    0.0001 C   0  0  0  0  0  0  0  0  0  0  0  0
   -1.6801    1.5062    0.0002 C   0  0  0  0  0  0  0  0  0  0  0  0
    2.4024   -0.4379    0.0001 C   0  0  0  0  0  0  0  0  0  0  0  0
  1  4  1  0
  1 10  1  0
  2  5  1  0
  2 10  2  0
  3  6  1  0
  4  5  2  0
  4  7  1  0
  5  6  1  0
  6  8  2  0
  7  9  2  0
  8  9  1  0
M  END
>  <PUBCHEM_COMPOUND_CID>  (1) 
20329

>  <PUBCHEM_CONFORMER_RMSD>  (1) 
0.4

>  <PUBCHEM_CONFORMER_DIVERSEORDER>  (1) 
1

>  <PUBCHEM_MMFF94_PARTIAL_CHARGES>  (1) 
17
1 0.03
10 0.04
11 0.15
12 0.27
13 0.15
14 0.15
15 0.15
16 0.4
17 0.4
2 -0.57
3 -0.9
4 -0.15
5 0.23
6 0.1
7 -0.15
8 -0.15
9 -0.15

>  <PUBCHEM_EFFECTIVE_ROTOR_COUNT>  (1) 
0

>  <PUBCHEM_PHARMACOPHORE_FEATURES>  (1) 
6
1 1 donor
1 3 cation
1 3 donor
3 1 2 10 cation
5 1 2 4 5 10 rings
6 4 5 6 7 8 9 rings

>  <PUBCHEM_HEAVY_ATOM_COUNT>  (1) 
10

>  <PUBCHEM_ATOM_DEF_STEREO_COUNT>  (1) 
0

>  <PUBCHEM_ATOM_UDEF_STEREO_COUNT>  (1) 
0

>  <PUBCHEM_BOND_DEF_STEREO_COUNT>  (1) 
0

>  <PUBCHEM_BOND_UDEF_STEREO_COUNT>  (1) 
0

>  <PUBCHEM_ISOTOPIC_ATOM_COUNT>  (1) 
0

>  <PUBCHEM_COMPONENT_COUNT>  (1) 
1

>  <PUBCHEM_CACTVS_TAUTO_COUNT>  (1) 
2

>  <PUBCHEM_CONFORMER_ID>  (1) 
00004F6900000001

>  <PUBCHEM_MMFF94_ENERGY>  (1) 
30.9926

>  <PUBCHEM_FEATURE_SELFOVERLAP>  (1) 
30.553

>  <PUBCHEM_SHAPE_FINGERPRINT>  (1) 
12423570 1 17414984764917525831
16945 1 18410573968061415140
18185500 45 18337954618033921031
193761 8 18194402427420202081
20871998 184 18273215313240167095
21040471 1 18266741285780794720
23552423 10 18260551160065516422
241688 4 18265894850837558649
2748010 2 18122904501669204740
29004967 10 18265055906222327754
5084963 1 17914325775838284129

>  <PUBCHEM_SHAPE_MULTIPOLES>  (1) 
190.85
2.83
2.01
0.59
0.84
0.37
0
0.04
0
-0.75
0
-0.02
-0.02
0

>  <PUBCHEM_SHAPE_SELFOVERLAP>  (1) 
421.996

>  <PUBCHEM_SHAPE_VOLUME>  (1) 
103.8

>  <PUBCHEM_COORDINATE_TYPE>  (1) 
2
5
10

$$$$
