20347
     RDKit          3D

  8  7  0  0  1  0  0  0  0  0999 V2000
   -0.6844    0.9881   -1.3525 O   0  0  0  0  0  0  0  0  0  0  0  0
    0.8056    0.5290    0.4878 C   0  0  0  0  0  0  0  0  0  0  0  0
   -0.6547    0.5072   -0.0076 C   0  0  0  0  0  0  0  0  0  0  0  0
    1.7601   -0.3547   -0.3284 C   0  0  0  0  0  0  0  0  0  0  0  0
   -1.5069    1.4494    0.8490 C   0  0  0  0  0  0  0  0  0  0  0  0
    3.1755   -0.2985    0.2276 C   0  0  0  0  0  0  0  0  0  0  0  0
   -1.2169   -0.8562    0.0423 C   0  0  0  0  0  0  0  0  0  0  0  0
   -1.6781   -1.9643    0.0818 C   0  0  0  0  0  0  0  0  0  0  0  0
  1  3  1  0
  2  3  1  0
  2  4  1  0
  3  5  1  0
  3  7  1  0
  4  6  1  0
  7  8  3  0
M  END
>  <PUBCHEM_COMPOUND_CID>  (1) 
20347

>  <PUBCHEM_CONFORMER_RMSD>  (1) 
0.4

>  <PUBCHEM_CONFORMER_DIVERSEORDER>  (1) 
2
11
5
10
6
1
7
12
8
3
9
4

>  <PUBCHEM_MMFF94_PARTIAL_CHARGES>  (1) 
6
1 -0.68
19 0.4
20 0.18
3 0.48
7 -0.2
8 -0.18

>  <PUBCHEM_EFFECTIVE_ROTOR_COUNT>  (1) 
2

>  <PUBCHEM_PHARMACOPHORE_FEATURES>  (1) 
4
1 1 acceptor
1 1 donor
1 6 hydrophobe
1 8 hydrophobe

>  <PUBCHEM_HEAVY_ATOM_COUNT>  (1) 
8

>  <PUBCHEM_ATOM_DEF_STEREO_COUNT>  (1) 
0

>  <PUBCHEM_ATOM_UDEF_STEREO_COUNT>  (1) 
1

>  <PUBCHEM_BOND_DEF_STEREO_COUNT>  (1) 
0

>  <PUBCHEM_BOND_UDEF_STEREO_COUNT>  (1) 
0

>  <PUBCHEM_ISOTOPIC_ATOM_COUNT>  (1) 
0

>  <PUBCHEM_COMPONENT_COUNT>  (1) 
1

>  <PUBCHEM_CACTVS_TAUTO_COUNT>  (1) 
1

>  <PUBCHEM_CONFORMER_ID>  (1) 
00004F7B00000002

>  <PUBCHEM_MMFF94_ENERGY>  (1) 
7.4134

>  <PUBCHEM_FEATURE_SELFOVERLAP>  (1) 
20.297

>  <PUBCHEM_SHAPE_FINGERPRINT>  (1) 
12932764 1 17895194355836635672
14128692 85 17972604560740012382
15310529 11 16951420814598403570
20653085 51 8069484645869701214
21040471 1 18125451816755190000
23235687 12 18261401031230496652
23552423 10 18188491405590505738
24536 1 18201143400076484816
29004967 10 17908983545270817867
5943 1 8408669045284792581

>  <PUBCHEM_SHAPE_MULTIPOLES>  (1) 
158.77
3.35
1.66
0.91
3.33
0.38
0.2
0.84
-0.43
-1.36
-0.19
-0.16
-0.27
-0.03

>  <PUBCHEM_SHAPE_SELFOVERLAP>  (1) 
290.679

>  <PUBCHEM_SHAPE_VOLUME>  (1) 
101.6

>  <PUBCHEM_COORDINATE_TYPE>  (1) 
2
5
10

$$$$
