20357
     RDKit          3D

 12 12  0  0  1  0  0  0  0  0999 V2000
   -2.6654    0.9107   -0.3901 O   0  0  0  0  0  0  0  0  0  0  0  0
   -1.6984   -1.2276   -0.2896 O   0  0  0  0  0  0  0  0  0  0  0  0
   -1.5153    0.1251   -0.7308 C   0  0  0  0  0  0  0  0  0  0  0  0
   -0.2863    0.7217   -0.0726 C   0  0  0  0  0  0  0  0  0  0  0  0
    0.9729   -0.0761   -0.4107 C   0  0  0  0  0  0  0  0  0  0  0  0
   -3.6736   -0.0581   -0.0940 C   0  0  0  0  0  0  0  0  0  0  0  0
    2.2157    0.5483    0.2282 C   0  0  0  0  0  0  0  0  0  0  0  0
   -2.8797   -1.1896    0.5126 C   0  0  0  0  0  0  0  0  0  0  0  0
    3.4798   -0.2302   -0.1432 C   0  0  0  0  0  0  0  0  0  0  0  0
   -4.7192    0.5255    0.8320 C   0  0  0  0  0  0  0  0  0  0  0  0
    4.7567    0.3676    0.4516 C   0  0  0  0  0  0  0  0  0  0  0  0
    6.0128   -0.4172    0.1067 C   0  0  0  0  0  0  0  0  0  0  0  0
  1  3  1  0
  1  6  1  0
  2  3  1  0
  2  8  1  0
  3  4  1  0
  4  5  1  0
  5  7  1  0
  6  8  1  0
  6 10  1  0
  7  9  1  0
  9 11  1  0
 11 12  1  0
M  END
>  <PUBCHEM_COMPOUND_CID>  (1) 
20357

>  <PUBCHEM_CONFORMER_RMSD>  (1) 
0.6

>  <PUBCHEM_CONFORMER_DIVERSEORDER>  (1) 
5
217
54
23
248
63
241
187
70
162
247
13
22
192
40
170
246
101
238
8
251
194
233
104
184
223
2
221
229
29
250
39
200
19
178
73
245
6
240
186
149
237
72
119
224
56
188
25
210
31
227
33
230
1
244
15
154
235
213
183
109
225
41
197
4
236
176
100
208
127
165
201
14
80
64
222
243
57
126
214
53
169
91
3
234
239
92
117
195
77
228
105
99
174
130
216
143
189
12
179
159
36
181
60
198
67
59
191
96
190
136
66
26
167
209
84
232
94
142
140
242
107
102
24
196
148
185
48
150
17
50
156
123
220
207
171
74
37
78
215
211
69
38
71
172
34
116
129
206
219
121
112
152
30
168
98
85
173
212
7
226
141
61
231
182
27
82
88
52
137
202
204
155
124
118
103
21
249
205
133
20
83
145
89
153
177
138
51
46
218
151
158
139
163
106
11
134
93
113
114
147
90
47
16
203
164
132
55
108
144
146
193
161
199
157
58
81
86
135
79
43
62
166
180
175
122
131
28
18
10
160
95
75
45
115
32
49
65
42
110
97
87
35
120
111
9
68
125
128
44
76

>  <PUBCHEM_MMFF94_PARTIAL_CHARGES>  (1) 
5
1 -0.56
2 -0.56
3 0.56
6 0.28
8 0.28

>  <PUBCHEM_EFFECTIVE_ROTOR_COUNT>  (1) 
6

>  <PUBCHEM_PHARMACOPHORE_FEATURES>  (1) 
5
1 1 acceptor
1 12 hydrophobe
1 2 acceptor
5 1 2 3 6 8 rings
5 4 5 7 9 11 hydrophobe

>  <PUBCHEM_HEAVY_ATOM_COUNT>  (1) 
12

>  <PUBCHEM_ATOM_DEF_STEREO_COUNT>  (1) 
0

>  <PUBCHEM_ATOM_UDEF_STEREO_COUNT>  (1) 
2

>  <PUBCHEM_BOND_DEF_STEREO_COUNT>  (1) 
0

>  <PUBCHEM_BOND_UDEF_STEREO_COUNT>  (1) 
0

>  <PUBCHEM_ISOTOPIC_ATOM_COUNT>  (1) 
0

>  <PUBCHEM_COMPONENT_COUNT>  (1) 
1

>  <PUBCHEM_CACTVS_TAUTO_COUNT>  (1) 
1

>  <PUBCHEM_CONFORMER_ID>  (1) 
00004F8500000005

>  <PUBCHEM_MMFF94_ENERGY>  (1) 
11.1972

>  <PUBCHEM_FEATURE_SELFOVERLAP>  (1) 
25.412

>  <PUBCHEM_SHAPE_FINGERPRINT>  (1) 
10680689 15 17385438821573612836
11062470 55 16486975093906949333
11401426 45 13973964303021921152
114248 4 11530482233715340784
124424 183 17989486337818949801
14123238 8 11963391838907706744
1420 363 16298391253742362808
14251718 22 11169918294744601744
14350574 20 13334745643060546641
17802600 8 10952047849302886762
17834072 33 12679168441028066680
17834076 25 17275103924927055880
18342897 14 17775284971727564928
200 152 11458422453206730317
20279233 1 17917999381852484350
20300324 65 8502659203178270791
20645464 45 18131074848522271215
20645477 70 16988286361652016894
20767249 213 13254793547066500466
20828058 44 18409448107062453286
22485316 2 18411978070570285486
23402539 116 17632570548496353661
23402655 69 8646503894261290971
23590187 156 8718823168066892396
42 15 18408604768801102380
42788 4 17632294579672783184

>  <PUBCHEM_SHAPE_MULTIPOLES>  (1) 
235.22
11.99
1
0.79
12.09
0.16
-0.03
0.4
-2.52
-0.57
-0.04
-0.3
-0.02
0.09

>  <PUBCHEM_SHAPE_SELFOVERLAP>  (1) 
443.957

>  <PUBCHEM_SHAPE_VOLUME>  (1) 
147.1

>  <PUBCHEM_COORDINATE_TYPE>  (1) 
2
5
10

$$$$
