20350
     RDKit          3D

 10 10  0  0  1  0  0  0  0  0999 V2000
    2.9476    0.3920   -0.3350 O   0  0  0  0  0  0  0  0  0  0  0  0
    1.3102   -0.8145   -1.3642 O   0  0  0  0  0  0  0  0  0  0  0  0
    0.9548    0.0526    0.8676 C   0  0  0  0  0  0  0  0  0  0  0  0
    0.1877    1.3708    0.7759 C   0  0  0  0  0  0  0  0  0  0  0  0
   -0.9797    1.3102   -0.2156 C   0  0  0  0  0  0  0  0  0  0  0  0
    0.0272   -1.1265    1.1781 C   0  0  0  0  0  0  0  0  0  0  0  0
   -1.7682    0.0279   -0.1496 C   0  0  0  0  0  0  0  0  0  0  0  0
   -1.3082   -1.0580    0.4944 C   0  0  0  0  0  0  0  0  0  0  0  0
    1.7232   -0.1857   -0.4012 C   0  0  0  0  0  0  0  0  0  0  0  0
   -3.0946    0.0312   -0.8503 C   0  0  0  0  0  0  0  0  0  0  0  0
  1  9  1  0
  2  9  2  0
  3  4  1  0
  3  6  1  0
  3  9  1  0
  4  5  1  0
  5  7  1  0
  6  8  1  0
  7  8  2  0
  7 10  1  0
M  END
>  <PUBCHEM_COMPOUND_CID>  (1) 
20350

>  <PUBCHEM_CONFORMER_RMSD>  (1) 
0.4

>  <PUBCHEM_CONFORMER_DIVERSEORDER>  (1) 
1
3
4
2

>  <PUBCHEM_MMFF94_PARTIAL_CHARGES>  (1) 
11
1 -0.65
10 0.14
18 0.15
2 -0.57
22 0.5
3 0.06
5 0.14
6 0.14
7 -0.28
8 -0.29
9 0.66

>  <PUBCHEM_EFFECTIVE_ROTOR_COUNT>  (1) 
1.8

>  <PUBCHEM_PHARMACOPHORE_FEATURES>  (1) 
4
1 1 acceptor
1 2 acceptor
3 1 2 9 anion
6 3 4 5 6 7 8 rings

>  <PUBCHEM_HEAVY_ATOM_COUNT>  (1) 
10

>  <PUBCHEM_ATOM_DEF_STEREO_COUNT>  (1) 
0

>  <PUBCHEM_ATOM_UDEF_STEREO_COUNT>  (1) 
1

>  <PUBCHEM_BOND_DEF_STEREO_COUNT>  (1) 
0

>  <PUBCHEM_BOND_UDEF_STEREO_COUNT>  (1) 
0

>  <PUBCHEM_ISOTOPIC_ATOM_COUNT>  (1) 
0

>  <PUBCHEM_COMPONENT_COUNT>  (1) 
1

>  <PUBCHEM_CACTVS_TAUTO_COUNT>  (1) 
1

>  <PUBCHEM_CONFORMER_ID>  (1) 
00004F7E00000001

>  <PUBCHEM_MMFF94_ENERGY>  (1) 
6.0516

>  <PUBCHEM_FEATURE_SELFOVERLAP>  (1) 
20.353

>  <PUBCHEM_SHAPE_FINGERPRINT>  (1) 
12423570 1 10087642645178101913
12716758 59 18259706713639572586
12897270 3 18273498974502638532
14128692 85 16199862976946915861
15775835 57 16443350887758931196
16945 1 18411418427287923672
20201158 50 18343866619100115958
20653085 51 16226345775538177510
21040471 1 17895740868533574947
21293036 1 18261388979462502269
23235685 24 17676479549604058549
23552423 10 17754161004000477075
2748010 2 17973998754695858409
29004967 10 17632301180826468722
369184 2 17894922857599539688
4369600 1 18410000031708303409
5084963 1 13335305367377497122

>  <PUBCHEM_SHAPE_MULTIPOLES>  (1) 
194.06
3.42
1.3
1.15
0.52
0
0.11
0.35
1.32
0.2
-0.33
-0.25
-0.09
0.13

>  <PUBCHEM_SHAPE_SELFOVERLAP>  (1) 
388.551

>  <PUBCHEM_SHAPE_VOLUME>  (1) 
112.9

>  <PUBCHEM_COORDINATE_TYPE>  (1) 
2
5
10

$$$$
