20359
     RDKit          3D

 11 11  0  0  0  0  0  0  0  0999 V2000
   -2.3774   -0.3950    0.9852 O   0  0  0  0  0  0  0  0  0  0  0  0
   -1.5063    0.5604   -0.9759 O   0  0  0  0  0  0  0  0  0  0  0  0
   -1.3057   -0.4463    0.0295 C   0  0  0  0  0  0  0  0  0  0  0  0
    0.0146   -0.1703    0.7378 C   0  0  0  0  0  0  0  0  0  0  0  0
    1.1876   -0.1752   -0.2421 C   0  0  0  0  0  0  0  0  0  0  0  0
    2.5064    0.1356    0.4675 C   0  0  0  0  0  0  0  0  0  0  0  0
   -1.3048   -1.8210   -0.6274 C   0  0  0  0  0  0  0  0  0  0  0  0
   -3.0546    0.8294    0.7039 C   0  0  0  0  0  0  0  0  0  0  0  0
   -2.8452    1.0113   -0.7742 C   0  0  0  0  0  0  0  0  0  0  0  0
    3.6842    0.0978   -0.5061 C   0  0  0  0  0  0  0  0  0  0  0  0
    5.0012    0.3734    0.2018 C   0  0  0  0  0  0  0  0  0  0  0  0
  1  3  1  0
  1  8  1  0
  2  3  1  0
  2  9  1  0
  3  4  1  0
  3  7  1  0
  4  5  1  0
  5  6  1  0
  6 10  1  0
  8  9  1  0
 10 11  1  0
M  END
>  <PUBCHEM_COMPOUND_CID>  (1) 
20359

>  <PUBCHEM_CONFORMER_RMSD>  (1) 
0.6

>  <PUBCHEM_CONFORMER_DIVERSEORDER>  (1) 
1
24
13
23
26
4
18
30
29
27
12
8
28
2
7
22
25
6
21
15
17
16
3
20
10
14
19
5
11
9

>  <PUBCHEM_MMFF94_PARTIAL_CHARGES>  (1) 
5
1 -0.56
2 -0.56
3 0.56
8 0.28
9 0.28

>  <PUBCHEM_EFFECTIVE_ROTOR_COUNT>  (1) 
5

>  <PUBCHEM_PHARMACOPHORE_FEATURES>  (1) 
5
1 1 acceptor
1 11 hydrophobe
1 2 acceptor
4 4 5 6 10 hydrophobe
5 1 2 3 8 9 rings

>  <PUBCHEM_HEAVY_ATOM_COUNT>  (1) 
11

>  <PUBCHEM_ATOM_DEF_STEREO_COUNT>  (1) 
0

>  <PUBCHEM_ATOM_UDEF_STEREO_COUNT>  (1) 
0

>  <PUBCHEM_BOND_DEF_STEREO_COUNT>  (1) 
0

>  <PUBCHEM_BOND_UDEF_STEREO_COUNT>  (1) 
0

>  <PUBCHEM_ISOTOPIC_ATOM_COUNT>  (1) 
0

>  <PUBCHEM_COMPONENT_COUNT>  (1) 
1

>  <PUBCHEM_CACTVS_TAUTO_COUNT>  (1) 
1

>  <PUBCHEM_CONFORMER_ID>  (1) 
00004F8700000001

>  <PUBCHEM_MMFF94_ENERGY>  (1) 
15.834

>  <PUBCHEM_FEATURE_SELFOVERLAP>  (1) 
25.412

>  <PUBCHEM_SHAPE_FINGERPRINT>  (1) 
10014705 185 18411692218900704388
11062470 55 17060622187776403144
12932764 1 18334848446557264194
13024252 1 16081366371581339315
13214271 11 17385723595058742079
14325111 11 17095522881491076496
15775835 57 18335137579212886506
18186145 218 18202004352457366816
190213 19 16370724829493751596
20279233 1 17418379103847851414
20645464 45 18273221897482794135
20645477 56 18412263943461638468
20645477 70 15984834688365556124
21119208 17 15123508090628319704
23402539 116 17989199339730710797
3248919 1 17275107249643186594
369184 2 16298100982435168417
4175511 318 18412261740016653052

>  <PUBCHEM_SHAPE_MULTIPOLES>  (1) 
214.64
7.57
1.16
0.98
9.82
0.5
0.02
-2.21
0.13
-0.9
0.15
-0.48
-0.09
0.11

>  <PUBCHEM_SHAPE_SELFOVERLAP>  (1) 
410.463

>  <PUBCHEM_SHAPE_VOLUME>  (1) 
133.2

>  <PUBCHEM_COORDINATE_TYPE>  (1) 
2
5
10

$$$$
