20355
     RDKit          3D

 28 32  0  0  1  0  0  0  0  0999 V2000
    2.5958   -1.6239   -1.9430 O   0  0  0  0  0  0  0  0  0  0  0  0
    1.7016    1.8209    0.4672 O   0  0  0  0  0  0  0  0  0  0  0  0
   -0.2918   -2.6097    1.9857 O   0  0  0  0  0  0  0  0  0  0  0  0
   -1.6570    1.0270   -1.6929 O   0  0  0  0  0  0  0  0  0  0  0  0
    2.0064    4.1003    0.3612 O   0  0  0  0  0  0  0  0  0  0  0  0
    4.7074   -1.1340    0.0364 N   0  0  0  0  0  0  0  0  0  0  0  0
    1.7079   -1.3899    0.2624 N   0  0  0  0  0  0  0  0  0  0  0  0
   -3.6594    0.0595   -0.1503 N   0  0  0  0  0  0  0  0  0  0  0  0
    2.1181    2.9787    2.3653 N   0  0  0  0  0  0  0  0  0  0  0  0
    3.6443   -0.1958   -0.3257 C   0  0  0  0  0  0  0  0  0  0  0  0
    2.3478   -0.6991   -0.8845 C   0  0  0  0  0  0  0  0  0  0  0  0
    3.7865   -0.7037    1.0732 C   0  0  0  0  0  0  0  0  0  0  0  0
    2.5835   -1.5293    1.4219 C   0  0  0  0  0  0  0  0  0  0  0  0
    1.2500    0.3227   -1.3381 C   0  0  0  0  0  0  0  0  0  0  0  0
    0.3566   -1.1334    0.2741 C   0  0  0  0  0  0  0  0  0  0  0  0
    0.0224   -0.2130   -0.6279 C   0  0  0  0  0  0  0  0  0  0  0  0
    1.5071    1.7728   -0.9340 C   0  0  0  0  0  0  0  0  0  0  0  0
   -0.6214   -1.7615    1.1641 C   0  0  0  0  0  0  0  0  0  0  0  0
   -1.3646    0.2089   -0.8262 C   0  0  0  0  0  0  0  0  0  0  0  0
   -2.4015   -0.4009    0.0751 C   0  0  0  0  0  0  0  0  0  0  0  0
    3.0489   -0.9600   -3.1124 C   0  0  0  0  0  0  0  0  0  0  0  0
   -2.0463   -1.3165    1.0033 C   0  0  0  0  0  0  0  0  0  0  0  0
   -3.0056   -1.9832    1.9534 C   0  0  0  0  0  0  0  0  0  0  0  0
   -4.2417    1.2200    0.5145 C   0  0  0  0  0  0  0  0  0  0  0  0
   -4.5998   -0.5433   -1.0885 C   0  0  0  0  0  0  0  0  0  0  0  0
   -5.5109    1.5046   -0.2828 C   0  0  0  0  0  0  0  0  0  0  0  0
   -5.9313    0.1234   -0.7571 C   0  0  0  0  0  0  0  0  0  0  0  0
    1.9470    3.0583    1.0055 C   0  0  0  0  0  0  0  0  0  0  0  0
  1 11  1  0
  1 21  1  0
  2 17  1  0
  2 28  1  0
  3 18  2  0
  4 19  2  0
  5 28  2  0
  6 10  1  0
  6 12  1  0
  7 11  1  0
  7 13  1  0
  7 15  1  0
  8 20  1  0
  8 24  1  0
  8 25  1  0
  9 28  1  0
 10 11  1  0
 10 12  1  0
 11 14  1  0
 12 13  1  0
 14 16  1  0
 14 17  1  0
 15 16  2  0
 15 18  1  0
 16 19  1  0
 18 22  1  0
 19 20  1  0
 20 22  2  0
 22 23  1  0
 24 26  1  0
 25 27  1  0
 26 27  1  0
M  END
>  <PUBCHEM_COMPOUND_CID>  (1) 
20355

>  <PUBCHEM_CONFORMER_RMSD>  (1) 
0.8

>  <PUBCHEM_CONFORMER_DIVERSEORDER>  (1) 
1
6
5
4
3
2

>  <PUBCHEM_MMFF94_PARTIAL_CHARGES>  (1) 
31
1 -0.56
10 -0.04
11 0.74
12 -0.04
13 0.46
14 0.14
15 0.11
16 -0.12
17 0.28
18 0.54
19 0.54
2 -0.43
20 0.11
21 0.28
22 -0.12
23 0.14
24 0.37
25 0.37
28 0.78
29 0.1
3 -0.57
30 0.1
31 0.36
4 -0.57
5 -0.57
51 0.37
52 0.37
6 -0.68
7 -0.84
8 -0.84
9 -0.8

>  <PUBCHEM_EFFECTIVE_ROTOR_COUNT>  (1) 
6.6

>  <PUBCHEM_PHARMACOPHORE_FEATURES>  (1) 
13
1 1 acceptor
1 3 acceptor
1 4 acceptor
1 5 acceptor
1 6 cation
1 6 donor
1 7 cation
1 8 cation
1 9 donor
5 7 11 14 15 16 rings
5 8 24 25 26 27 rings
6 15 16 18 19 20 22 rings
6 6 7 10 11 12 13 rings

>  <PUBCHEM_HEAVY_ATOM_COUNT>  (1) 
28

>  <PUBCHEM_ATOM_DEF_STEREO_COUNT>  (1) 
2

>  <PUBCHEM_ATOM_UDEF_STEREO_COUNT>  (1) 
2

>  <PUBCHEM_BOND_DEF_STEREO_COUNT>  (1) 
0

>  <PUBCHEM_BOND_UDEF_STEREO_COUNT>  (1) 
0

>  <PUBCHEM_ISOTOPIC_ATOM_COUNT>  (1) 
0

>  <PUBCHEM_COMPONENT_COUNT>  (1) 
1

>  <PUBCHEM_CACTVS_TAUTO_COUNT>  (1) 
18

>  <PUBCHEM_CONFORMER_ID>  (1) 
00004F8300000001

>  <PUBCHEM_MMFF94_ENERGY>  (1) 
103.5213

>  <PUBCHEM_FEATURE_SELFOVERLAP>  (1) 
66.14

>  <PUBCHEM_SHAPE_FINGERPRINT>  (1) 
10366900 7 18333448729431639911
10906281 52 18341347638441169236
11089746 13 18338503150710908845
11578080 2 18116726302973028145
12236239 1 18337102351553926711
12293681 4 18341338803318791465
12549972 3 18114470079501030993
12633257 1 17825638266284031856
12788726 201 18193288403240526692
13134695 92 18342735213493612212
13140716 1 17821736061015056579
13692114 37 18113895018621510955
14251764 38 18339637962295257697
15131766 46 16841874444695070970
15238133 3 18190751842404387181
15295992 7 18334860545490738633
16945 1 17823155474575967486
17349148 13 17458613562950306815
17980427 23 17629447987128985374
20600515 1 18261965037898866780
20691752 17 17458891747533435519
21033650 10 18126023571623702669
21860390 5 18201720669266625124
23419403 2 18194087825614263628
23559900 14 17967532419085226181
2748010 2 17896894333635845303
335352 9 17676489414949473390
3411729 13 18339916143053346008
345986 75 17609193690049575970
34797466 226 17989486325630198463
350125 39 17749969859270884715
474 4 18267292308805597193
495365 180 18342170128624946577
5104073 3 17313391166211340560
5895379 119 17131286657421893633
81228 2 17910697375220232712
8509985 295 18114454583190344218
9971528 1 17845940623677978620
9981440 41 17623272175923104873

>  <PUBCHEM_SHAPE_MULTIPOLES>  (1) 
526.96
9.45
3.02
2.11
11.5
2.8
0.55
0.73
1.69
-1.92
-2.09
-1.57
-0.33
1.62

>  <PUBCHEM_SHAPE_SELFOVERLAP>  (1) 
1155.304

>  <PUBCHEM_SHAPE_VOLUME>  (1) 
287

>  <PUBCHEM_COORDINATE_TYPE>  (1) 
2
5
10

$$$$
