20363
     RDKit          3D

 17 18  0  0  0  0  0  0  0  0999 V2000
    4.4246   -0.3481    0.3182 N   0  0  0  0  0  0  0  0  0  0  0  0
   -0.2503    0.6845   -0.7402 N   0  0  0  0  0  0  0  0  0  0  0  0
    3.5251    0.1766   -0.7358 C   0  0  0  0  0  0  0  0  0  0  0  0
    2.0854    0.2129   -0.2419 C   0  0  0  0  0  0  0  0  0  0  0  0
    5.8811   -0.3742   -0.1682 C   0  0  0  0  0  0  0  0  0  0  0  0
    4.3601    0.5272    1.5784 C   0  0  0  0  0  0  0  0  0  0  0  0
    4.0298   -1.7789    0.7127 C   0  0  0  0  0  0  0  0  0  0  0  0
    1.0988    0.6986   -1.2998 C   0  0  0  0  0  0  0  0  0  0  0  0
   -0.9883   -0.4258   -0.8670 C   0  0  0  0  0  0  0  0  0  0  0  0
   -0.7005    1.7819   -0.1210 C   0  0  0  0  0  0  0  0  0  0  0  0
   -2.2826   -0.4762   -0.3455 C   0  0  0  0  0  0  0  0  0  0  0  0
   -2.7872    0.6656    0.3138 C   0  0  0  0  0  0  0  0  0  0  0  0
   -1.9775    1.8031    0.4214 C   0  0  0  0  0  0  0  0  0  0  0  0
   -3.0839   -1.6228   -0.4613 C   0  0  0  0  0  0  0  0  0  0  0  0
   -4.0875    0.6310    0.8436 C   0  0  0  0  0  0  0  0  0  0  0  0
   -4.3732   -1.6399    0.0707 C   0  0  0  0  0  0  0  0  0  0  0  0
   -4.8740   -0.5155    0.7219 C   0  0  0  0  0  0  0  0  0  0  0  0
  1  3  1  0
  1  5  1  0
  1  6  1  0
  1  7  1  0
  2  8  1  0
  2  9  2  0
  2 10  1  0
  3  4  1  0
  4  8  1  0
  9 11  1  0
 10 13  2  0
 11 12  2  0
 11 14  1  0
 12 13  1  0
 12 15  1  0
 14 16  2  0
 15 17  2  0
 16 17  1  0
M  CHG  2   1   1   2   1
M  END
>  <PUBCHEM_COMPOUND_CID>  (1) 
20363

>  <PUBCHEM_CONFORMER_RMSD>  (1) 
0.6

>  <PUBCHEM_CONFORMER_DIVERSEORDER>  (1) 
1
3
7
5
2
4
8
6

>  <PUBCHEM_MMFF94_PARTIAL_CHARGES>  (1) 
21
1 -1.01
10 0.21
13 -0.15
14 -0.15
15 -0.15
16 -0.15
17 -0.15
2 -0.21
3 0.5
33 0.15
34 0.15
35 0.15
36 0.15
37 0.15
38 0.15
39 0.15
5 0.5
6 0.5
7 0.5
8 0.49
9 0.21

>  <PUBCHEM_EFFECTIVE_ROTOR_COUNT>  (1) 
4

>  <PUBCHEM_PHARMACOPHORE_FEATURES>  (1) 
3
1 1 cation
6 11 12 14 15 16 17 rings
6 2 9 10 11 12 13 rings

>  <PUBCHEM_HEAVY_ATOM_COUNT>  (1) 
17

>  <PUBCHEM_ATOM_DEF_STEREO_COUNT>  (1) 
0

>  <PUBCHEM_ATOM_UDEF_STEREO_COUNT>  (1) 
0

>  <PUBCHEM_BOND_DEF_STEREO_COUNT>  (1) 
0

>  <PUBCHEM_BOND_UDEF_STEREO_COUNT>  (1) 
0

>  <PUBCHEM_ISOTOPIC_ATOM_COUNT>  (1) 
0

>  <PUBCHEM_COMPONENT_COUNT>  (1) 
1

>  <PUBCHEM_CACTVS_TAUTO_COUNT>  (1) 
1

>  <PUBCHEM_CONFORMER_ID>  (1) 
00004F8B00000001

>  <PUBCHEM_MMFF94_ENERGY>  (1) 
56.3341

>  <PUBCHEM_FEATURE_SELFOVERLAP>  (1) 
15.251

>  <PUBCHEM_SHAPE_FINGERPRINT>  (1) 
10014705 185 9871459929016049870
11045977 3 17918272064825450720
11046707 91 18333448746331986277
11089746 13 11239995638429251146
11132069 177 18130798849644661229
12107183 9 17761213211519847944
12236239 1 18114188535884029180
12251169 10 18131353020210338188
12596602 18 18060138769087301690
12633257 1 17060336361554878986
12670546 177 11314312754025485738
12892183 10 18271801303122374856
13167823 11 18334577923641741002
13288520 33 18334860515003935213
13551218 46 18337393742676953875
13583140 156 18129082468986267388
13675066 3 17775008976722922724
1420 369 18187083949087003002
14341114 176 18131634491477611608
14420673 8 17837497354189183542
15342168 16 14548734045065129288
15880784 105 18131353050581201002
17834072 33 18259991491836582540
17862501 102 18334860519325321561
17870717 6 12901546814896965107
17977361 122 18335421283525842387
1813 80 17604160245986887750
18186145 218 13190338002256182021
18222031 100 17821444669090552916
193927 3 17749682834499880762
19784866 240 17530971288685525575
200 152 16732700545341661708
20281475 54 18260546697874038412
204376 136 14836408042457797061
20645477 56 16559031579933187372
20645477 70 16009034986395010102
20871999 31 11530482242104867487
21033648 29 15984817078508966962
21065199 12 18202278070570192512
21637258 2 17168708660796474203
21650355 55 18343585157409486961
21673915 165 18408040693609032290
22079108 93 13973963233722823007
22646028 1 18186803586480123532
22646028 28 18040716965513242262
22854114 59 16415483748357306732
2297311 6 18130520660423687020
23227448 37 10303516325716703323
23366157 5 17976545232332539845
23379529 103 13699008460118860129
23402539 116 18202842163137850237
23402655 69 10087636010049669874
23559900 14 18337105769483114248
23596394 208 13767919105532283784
2838139 119 13182190492598985691
3009799 131 18270666633309182181
32948 21 12107776411326687278
3472631 163 10015862093626492810
351380 3 17967252001029387186
4028521 119 9295290534124202947
42 15 18411703179503931732
4990 188 12612749133631742100
5104073 3 18127989700873546875
559249 180 18187362100138574751
573450 72 18408606950565588277
5924683 9 17346025792526864271
90316 7 18339368478608936693

>  <PUBCHEM_SHAPE_MULTIPOLES>  (1) 
339.89
12.12
1.69
1.12
9.99
0.09
-0.1
4.23
-3.54
-1.01
-0.13
0.61
-0.1
-0.46

>  <PUBCHEM_SHAPE_SELFOVERLAP>  (1) 
706.39

>  <PUBCHEM_SHAPE_VOLUME>  (1) 
196

>  <PUBCHEM_COORDINATE_TYPE>  (1) 
2
5
10

$$$$
