20375
     RDKit          3D

 11 11  0  0  1  0  0  0  0  0999 V2000
   -3.6000    1.3044   -0.1717 Cl  0  0  0  0  0  0  0  0  0  0  0  0
    3.2564   -0.4768   -0.3238 Cl  0  0  0  0  0  0  0  0  0  0  0  0
    1.9363    2.1176   -0.2993 Cl  0  0  0  0  0  0  0  0  0  0  0  0
    1.4010    0.1921    1.8168 Cl  0  0  0  0  0  0  0  0  0  0  0  0
   -0.6133    0.5129   -0.4285 O   0  0  0  0  0  0  0  0  0  0  0  0
    0.4350   -1.5891   -0.4434 O   0  0  0  0  0  0  0  0  0  0  0  0
   -1.5988   -0.5153   -0.3097 C   0  0  0  0  0  0  0  0  0  0  0  0
    0.5941   -0.1948   -0.7410 C   0  0  0  0  0  0  0  0  0  0  0  0
   -0.8081   -1.6704    0.2554 C   0  0  0  0  0  0  0  0  0  0  0  0
   -2.7407   -0.0607    0.5736 C   0  0  0  0  0  0  0  0  0  0  0  0
    1.7381    0.3800    0.0715 C   0  0  0  0  0  0  0  0  0  0  0  0
  1 10  1  0
  2 11  1  0
  3 11  1  0
  4 11  1  0
  5  7  1  0
  5  8  1  0
  6  8  1  0
  6  9  1  0
  7  9  1  0
  7 10  1  0
  8 11  1  0
M  END
>  <PUBCHEM_COMPOUND_CID>  (1) 
20375

>  <PUBCHEM_CONFORMER_RMSD>  (1) 
0.6

>  <PUBCHEM_CONFORMER_DIVERSEORDER>  (1) 
1
9
6
7
3
10
8
2
5
4

>  <PUBCHEM_MMFF94_PARTIAL_CHARGES>  (1) 
11
1 -0.29
10 0.29
11 0.87
2 -0.29
3 -0.29
4 -0.29
5 -0.56
6 -0.56
7 0.28
8 0.56
9 0.28

>  <PUBCHEM_EFFECTIVE_ROTOR_COUNT>  (1) 
3

>  <PUBCHEM_PHARMACOPHORE_FEATURES>  (1) 
3
1 5 acceptor
1 6 acceptor
5 5 6 7 8 9 rings

>  <PUBCHEM_HEAVY_ATOM_COUNT>  (1) 
11

>  <PUBCHEM_ATOM_DEF_STEREO_COUNT>  (1) 
0

>  <PUBCHEM_ATOM_UDEF_STEREO_COUNT>  (1) 
2

>  <PUBCHEM_BOND_DEF_STEREO_COUNT>  (1) 
0

>  <PUBCHEM_BOND_UDEF_STEREO_COUNT>  (1) 
0

>  <PUBCHEM_ISOTOPIC_ATOM_COUNT>  (1) 
0

>  <PUBCHEM_COMPONENT_COUNT>  (1) 
1

>  <PUBCHEM_CACTVS_TAUTO_COUNT>  (1) 
1

>  <PUBCHEM_CONFORMER_ID>  (1) 
00004F9700000001

>  <PUBCHEM_MMFF94_ENERGY>  (1) 
19.1559

>  <PUBCHEM_FEATURE_SELFOVERLAP>  (1) 
15.263

>  <PUBCHEM_SHAPE_FINGERPRINT>  (1) 
12932764 1 17240751908931359695
14252887 29 12108079820780857009
14325111 11 18411140276789940917
14648413 74 18338241590906510620
15775835 57 17894914018367128793
16945 1 18260254253139598266
18511873 20 18272653424364979786
20233049 118 18187365368250368068
20511035 2 18059287794395209950
20653085 51 18338806705201507409
207724 885 18409171000099014360
21028194 46 18130788992425652387
21040471 1 18270961361663521671
21061003 4 16228818504211662040
21501502 16 18197218259423966022
21947302 44 16056301951215847097
230 275 18272366439071848553
23235685 24 18410852140181797581
23419403 2 11077989261011688514
23552423 10 18191864733208672574
3248919 1 18266728272119467742
5084963 1 18202280337759069247
528886 8 18411138021963791406
53812653 166 18341049610148569483
68250623 7 17972329670280423742

>  <PUBCHEM_SHAPE_MULTIPOLES>  (1) 
222.12
4.92
1.75
1.09
2.39
0.37
-0.55
1.66
0.08
-0.14
0.21
-0.44
0.01
0.1

>  <PUBCHEM_SHAPE_SELFOVERLAP>  (1) 
404.503

>  <PUBCHEM_SHAPE_VOLUME>  (1) 
144.3

>  <PUBCHEM_COORDINATE_TYPE>  (1) 
2
5
10

$$$$
