20378
     RDKit          3D

 13 13  0  0  0  0  0  0  0  0999 V2000
   -3.0973    0.9281   -0.6641 O   0  0  0  0  0  0  0  0  0  0  0  0
   -3.0546   -1.2853    0.1538 O   0  0  0  0  0  0  0  0  0  0  0  0
   -2.4657    0.0191    0.2435 C   0  0  0  0  0  0  0  0  0  0  0  0
    1.4258    0.0149    0.3142 C   0  0  0  0  0  0  0  0  0  0  0  0
   -1.0242   -0.1316   -0.1575 C   0  0  0  0  0  0  0  0  0  0  0  0
    0.0014    0.1380    0.6655 C   0  0  0  0  0  0  0  0  0  0  0  0
    1.7949   -0.7798   -0.7600 C   0  0  0  0  0  0  0  0  0  0  0  0
    2.3723    0.6960    1.0638 C   0  0  0  0  0  0  0  0  0  0  0  0
    3.1444   -0.8967   -1.0927 C   0  0  0  0  0  0  0  0  0  0  0  0
    3.7218    0.5791    0.7309 C   0  0  0  0  0  0  0  0  0  0  0  0
    4.1078   -0.2173   -0.3473 C   0  0  0  0  0  0  0  0  0  0  0  0
   -2.4956    2.2166   -0.6609 C   0  0  0  0  0  0  0  0  0  0  0  0
   -4.4310   -1.2811    0.5108 C   0  0  0  0  0  0  0  0  0  0  0  0
  1  3  1  0
  1 12  1  0
  2  3  1  0
  2 13  1  0
  3  5  1  0
  4  6  1  0
  4  7  2  0
  4  8  1  0
  5  6  2  0
  7  9  1  0
  8 10  2  0
  9 11  2  0
 10 11  1  0
M  END
>  <PUBCHEM_COMPOUND_CID>  (1) 
20378

>  <PUBCHEM_CONFORMER_RMSD>  (1) 
0.6

>  <PUBCHEM_CONFORMER_DIVERSEORDER>  (1) 
1
4
8
5
10
2
9
3
7
6

>  <PUBCHEM_MMFF94_PARTIAL_CHARGES>  (1) 
20
1 -0.56
10 -0.15
11 -0.15
12 0.28
13 0.28
15 0.15
16 0.15
17 0.15
18 0.15
19 0.15
2 -0.56
20 0.15
21 0.15
3 0.7
4 0.03
5 -0.29
6 -0.18
7 -0.15
8 -0.15
9 -0.15

>  <PUBCHEM_EFFECTIVE_ROTOR_COUNT>  (1) 
4

>  <PUBCHEM_PHARMACOPHORE_FEATURES>  (1) 
3
1 1 acceptor
1 2 acceptor
6 4 7 8 9 10 11 rings

>  <PUBCHEM_HEAVY_ATOM_COUNT>  (1) 
13

>  <PUBCHEM_ATOM_DEF_STEREO_COUNT>  (1) 
0

>  <PUBCHEM_ATOM_UDEF_STEREO_COUNT>  (1) 
0

>  <PUBCHEM_BOND_DEF_STEREO_COUNT>  (1) 
0

>  <PUBCHEM_BOND_UDEF_STEREO_COUNT>  (1) 
1

>  <PUBCHEM_ISOTOPIC_ATOM_COUNT>  (1) 
0

>  <PUBCHEM_COMPONENT_COUNT>  (1) 
1

>  <PUBCHEM_CACTVS_TAUTO_COUNT>  (1) 
1

>  <PUBCHEM_CONFORMER_ID>  (1) 
00004F9A00000001

>  <PUBCHEM_MMFF94_ENERGY>  (1) 
36.9037

>  <PUBCHEM_FEATURE_SELFOVERLAP>  (1) 
15.261

>  <PUBCHEM_SHAPE_FINGERPRINT>  (1) 
10608611 8 18343014489088637496
12932764 1 18411698764103679579
13296908 3 18201719535331429002
13705890 14 18273498957744755802
13760787 5 16343984706521746384
14144814 61 15647054854461175568
15219456 202 18202561769801905196
15375462 189 15626507181087711082
17844478 74 18272090508750178417
18186145 218 18272376330307619738
19026448 4 18341892974432704548
19026448 5 17458624493388471336
1986462 14 18335421240232881845
20279233 1 18343579629327400823
20645477 56 18335422301491139893
20645477 70 17346033355620991318
20715346 28 18273208698974479341
22943178 12 18343299236719313598
23402539 116 18040427806618597078
23402655 69 17275101691718479616
23557571 272 18410015424744602141
3268164 11 18113609093424801631
6049 1 18343581837004160953
77492 1 16588023489612384040

>  <PUBCHEM_SHAPE_MULTIPOLES>  (1) 
255.8
8.47
1.46
1.02
2.07
0.51
0.02
-1.4
-0.06
1.49
0.28
-0.41
0.08
1.37

>  <PUBCHEM_SHAPE_SELFOVERLAP>  (1) 
515.184

>  <PUBCHEM_SHAPE_VOLUME>  (1) 
150.6

>  <PUBCHEM_COORDINATE_TYPE>  (1) 
2
5
10

$$$$
