20387
     RDKit          3D

 16 17  0  0  0  0  0  0  0  0999 V2000
   -0.8329   -1.6840    1.5027 O   0  0  0  0  0  0  0  0  0  0  0  0
    0.8329    1.6838    1.5029 O   0  0  0  0  0  0  0  0  0  0  0  0
   -4.8732    0.1347   -0.2397 O   0  0  0  0  0  0  0  0  0  0  0  0
    4.8733   -0.1347   -0.2398 O   0  0  0  0  0  0  0  0  0  0  0  0
   -0.7244    0.0132   -0.1962 C   0  0  0  0  0  0  0  0  0  0  0  0
    0.7244   -0.0132   -0.1962 C   0  0  0  0  0  0  0  0  0  0  0  0
   -1.4554   -0.8196    0.6509 C   0  0  0  0  0  0  0  0  0  0  0  0
    1.4554    0.8195    0.6511 C   0  0  0  0  0  0  0  0  0  0  0  0
   -1.3876    0.8870   -1.0577 C   0  0  0  0  0  0  0  0  0  0  0  0
    1.3876   -0.8868   -1.0579 C   0  0  0  0  0  0  0  0  0  0  0  0
   -2.8495   -0.7784    0.6368 C   0  0  0  0  0  0  0  0  0  0  0  0
    2.8495    0.7783    0.6369 C   0  0  0  0  0  0  0  0  0  0  0  0
   -2.7818    0.9281   -1.0721 C   0  0  0  0  0  0  0  0  0  0  0  0
    2.7818   -0.9280   -1.0722 C   0  0  0  0  0  0  0  0  0  0  0  0
   -3.5127    0.0954   -0.2247 C   0  0  0  0  0  0  0  0  0  0  0  0
    3.5127   -0.0954   -0.2247 C   0  0  0  0  0  0  0  0  0  0  0  0
  1  7  1  0
  2  8  1  0
  3 15  1  0
  4 16  1  0
  5  6  1  0
  5  7  2  0
  5  9  1  0
  6  8  2  0
  6 10  1  0
  7 11  1  0
  8 12  1  0
  9 13  2  0
 10 14  2  0
 11 15  2  0
 12 16  2  0
 13 15  1  0
 14 16  1  0
M  END
>  <PUBCHEM_COMPOUND_CID>  (1) 
20387

>  <PUBCHEM_CONFORMER_RMSD>  (1) 
0.6

>  <PUBCHEM_CONFORMER_DIVERSEORDER>  (1) 
2
1

>  <PUBCHEM_MMFF94_PARTIAL_CHARGES>  (1) 
24
1 -0.53
10 -0.15
11 -0.15
12 -0.15
13 -0.15
14 -0.15
15 0.08
16 0.08
17 0.15
18 0.15
19 0.15
2 -0.53
20 0.15
21 0.15
22 0.15
23 0.45
24 0.45
25 0.45
26 0.45
3 -0.53
4 -0.53
7 0.08
8 0.08
9 -0.15

>  <PUBCHEM_EFFECTIVE_ROTOR_COUNT>  (1) 
1

>  <PUBCHEM_PHARMACOPHORE_FEATURES>  (1) 
6
1 1 donor
1 2 donor
1 3 donor
1 4 donor
6 5 7 9 11 13 15 rings
6 6 8 10 12 14 16 rings

>  <PUBCHEM_HEAVY_ATOM_COUNT>  (1) 
16

>  <PUBCHEM_ATOM_DEF_STEREO_COUNT>  (1) 
0

>  <PUBCHEM_ATOM_UDEF_STEREO_COUNT>  (1) 
0

>  <PUBCHEM_BOND_DEF_STEREO_COUNT>  (1) 
0

>  <PUBCHEM_BOND_UDEF_STEREO_COUNT>  (1) 
0

>  <PUBCHEM_ISOTOPIC_ATOM_COUNT>  (1) 
0

>  <PUBCHEM_COMPONENT_COUNT>  (1) 
1

>  <PUBCHEM_CACTVS_TAUTO_COUNT>  (1) 
60

>  <PUBCHEM_CONFORMER_ID>  (1) 
00004FA300000002

>  <PUBCHEM_MMFF94_ENERGY>  (1) 
49.0959

>  <PUBCHEM_FEATURE_SELFOVERLAP>  (1) 
30.449

>  <PUBCHEM_SHAPE_FINGERPRINT>  (1) 
10219947 1 17561085808674717508
10465860 250 18408878517369095984
11471102 20 17917710214710723900
124424 183 18411982464237348938
13538477 17 16153709872749019987
13581323 91 17385999572387636494
14943859 89 17313106349607557339
14993402 34 16702304559387336100
15219456 202 18340205305514523088
15279308 132 18260830410006789243
15775835 57 15719112452577728292
16752209 62 16951123031852878003
16945 1 18410855442948292708
1813 80 16629705963254181484
18175812 5 18410856606884436638
18186145 218 18336548205270618925
19049666 15 18266740186152960093
200 152 17132112437877218423
20201158 50 18342181055000739502
20279233 1 18411143532348998438
20510252 161 18041275465981265781
20645476 183 15864070996627690819
20645477 70 17988083279525592926
23175994 123 18272095984949752684
23402539 116 17968088733488404551
23526113 38 18340210691509234802
23559900 14 18187368718920769206
3286 77 18059571455457559069
474 4 16199286859103709610
57426455 114 18335133215320431106
69090 78 18342171189761742607
77492 1 15769777961265266807

>  <PUBCHEM_SHAPE_MULTIPOLES>  (1) 
305.8
7.35
1.26
1.24
0
0
0.12
0
-1.04
0
0.31
0
0
1.06

>  <PUBCHEM_SHAPE_SELFOVERLAP>  (1) 
672.799

>  <PUBCHEM_SHAPE_VOLUME>  (1) 
165.6

>  <PUBCHEM_COORDINATE_TYPE>  (1) 
2
5
10

$$$$
