20396
     RDKit          3D

 15 16  0  0  1  0  0  0  0  0999 V2000
   -1.4718   -0.4443    0.5390 O   0  0  0  0  0  0  0  0  0  0  0  0
   -0.7197    1.6702   -0.1316 O   0  0  0  0  0  0  0  0  0  0  0  0
   -3.9976   -1.6298   -0.0703 O   0  0  0  0  0  0  0  0  0  0  0  0
   -0.4110    0.5211    0.6837 C   0  0  0  0  0  0  0  0  0  0  0  0
   -2.5119    0.2385   -0.1649 C   0  0  0  0  0  0  0  0  0  0  0  0
   -1.7569    1.2323   -1.0090 C   0  0  0  0  0  0  0  0  0  0  0  0
    0.9224   -0.0870    0.2747 C   0  0  0  0  0  0  0  0  0  0  0  0
   -0.3639    0.9768    2.1416 C   0  0  0  0  0  0  0  0  0  0  0  0
   -3.3442   -0.7410   -0.9640 C   0  0  0  0  0  0  0  0  0  0  0  0
    1.9374    0.7032   -0.2677 C   0  0  0  0  0  0  0  0  0  0  0  0
    1.1258   -1.4570    0.4481 C   0  0  0  0  0  0  0  0  0  0  0  0
    3.1521    0.1249   -0.6358 C   0  0  0  0  0  0  0  0  0  0  0  0
    1.7452    2.1716   -0.4618 C   0  0  0  0  0  0  0  0  0  0  0  0
    2.3406   -2.0353    0.0800 C   0  0  0  0  0  0  0  0  0  0  0  0
    3.3536   -1.2443   -0.4620 C   0  0  0  0  0  0  0  0  0  0  0  0
  1  4  1  0
  1  5  1  0
  2  4  1  0
  2  6  1  0
  3  9  1  0
  4  7  1  0
  4  8  1  0
  5  6  1  0
  5  9  1  0
  7 10  2  0
  7 11  1  0
 10 12  1  0
 10 13  1  0
 11 14  2  0
 12 15  2  0
 14 15  1  0
M  END
>  <PUBCHEM_COMPOUND_CID>  (1) 
20396

>  <PUBCHEM_CONFORMER_RMSD>  (1) 
0.6

>  <PUBCHEM_CONFORMER_DIVERSEORDER>  (1) 
2
17
8
9
3
12
18
7
10
15
1
6
16
5
13
11
4
14

>  <PUBCHEM_MMFF94_PARTIAL_CHARGES>  (1) 
19
1 -0.56
10 -0.14
11 -0.15
12 -0.15
13 0.14
14 -0.15
15 -0.15
2 -0.56
24 0.15
25 0.15
29 0.15
3 -0.68
30 0.15
31 0.4
4 0.7
5 0.28
6 0.28
7 -0.14
9 0.28

>  <PUBCHEM_EFFECTIVE_ROTOR_COUNT>  (1) 
3

>  <PUBCHEM_PHARMACOPHORE_FEATURES>  (1) 
6
1 1 acceptor
1 2 acceptor
1 3 acceptor
1 3 donor
5 1 2 4 5 6 rings
6 7 10 11 12 14 15 rings

>  <PUBCHEM_HEAVY_ATOM_COUNT>  (1) 
15

>  <PUBCHEM_ATOM_DEF_STEREO_COUNT>  (1) 
0

>  <PUBCHEM_ATOM_UDEF_STEREO_COUNT>  (1) 
2

>  <PUBCHEM_BOND_DEF_STEREO_COUNT>  (1) 
0

>  <PUBCHEM_BOND_UDEF_STEREO_COUNT>  (1) 
0

>  <PUBCHEM_ISOTOPIC_ATOM_COUNT>  (1) 
0

>  <PUBCHEM_COMPONENT_COUNT>  (1) 
1

>  <PUBCHEM_CACTVS_TAUTO_COUNT>  (1) 
1

>  <PUBCHEM_CONFORMER_ID>  (1) 
00004FAC00000002

>  <PUBCHEM_MMFF94_ENERGY>  (1) 
45.7285

>  <PUBCHEM_FEATURE_SELFOVERLAP>  (1) 
30.491

>  <PUBCHEM_SHAPE_FINGERPRINT>  (1) 
11206711 2 18115031805267336084
11578080 2 17987779839780591273
11769659 78 18342734079142276070
11806522 49 18412824686054992822
12138202 97 16443359696810864226
12400797 292 18410855498951835158
12423570 1 11892706520790349360
12897270 3 18260265261035172565
13299463 15 18335702719399077692
13538477 17 17702679734656923609
13705890 14 18408317783286541926
14115302 16 18059011657968117049
14128692 85 18343016657957041806
14787075 74 17701240663394650088
14817 1 15609575041391111776
15001771 113 18343024345843097745
15375462 189 17917149515315027367
15477762 27 18410011044078270910
15906896 17 16985756290606867857
16945 1 18335144210600148080
18186145 218 16950562181837328661
18522851 268 18335977580184253287
18534176 82 16443932503819633672
19422 9 18201164329578549815
200 152 18344146981828041814
20201158 50 18260268551032894662
20281475 54 18271241720581887495
20361792 2 16917054560533082293
20645477 70 18341043112385537487
20671657 53 18409167675652032574
21501502 16 18262238811392703340
22112679 90 17489046897444159097
221490 88 18334583489671872002
22802520 49 18186525422976017017
23402539 116 16805321059368259020
23402655 69 18115306657330850789
23557571 272 18122316056885165528
23559900 14 17979902827711731050
2748010 2 17757853477615792202
2871803 45 18261666052140419903
3323516 105 18188209913639836127
59915604 170 17676490574505785801
7364860 26 18341608265425065996
7832392 63 18190737527357783821
81228 2 16342584912044604753
94968 8 18270394022623048959

>  <PUBCHEM_SHAPE_MULTIPOLES>  (1) 
291.09
5.52
2.04
1.19
2.18
0.03
-0.56
-2.84
1.85
-0.53
0.14
0.34
0.36
-0.24

>  <PUBCHEM_SHAPE_SELFOVERLAP>  (1) 
614.109

>  <PUBCHEM_SHAPE_VOLUME>  (1) 
165

>  <PUBCHEM_COORDINATE_TYPE>  (1) 
2
5
10

$$$$
