20394
     RDKit          3D

 12 13  0  0  0  0  0  0  0  0999 V2000
   -3.9204   -0.7140    1.0246 Cl  0  0  0  0  0  0  0  0  0  0  0  0
   -0.7891   -0.9125   -0.3182 N   0  0  0  0  0  0  0  0  0  0  0  0
    0.8798    0.7894    0.0360 C   0  0  0  0  0  0  0  0  0  0  0  0
    0.4969   -0.5572   -0.1367 C   0  0  0  0  0  0  0  0  0  0  0  0
   -1.7262    0.0630   -0.3325 C   0  0  0  0  0  0  0  0  0  0  0  0
   -0.1227    1.7683    0.0146 C   0  0  0  0  0  0  0  0  0  0  0  0
   -1.4486    1.4054   -0.1723 C   0  0  0  0  0  0  0  0  0  0  0  0
    2.2316    1.1244    0.2234 C   0  0  0  0  0  0  0  0  0  0  0  0
    1.4933   -1.5292   -0.1153 C   0  0  0  0  0  0  0  0  0  0  0  0
    3.2073    0.1318    0.2407 C   0  0  0  0  0  0  0  0  0  0  0  0
    2.8373   -1.1964    0.0710 C   0  0  0  0  0  0  0  0  0  0  0  0
   -3.1392   -0.3731   -0.5353 C   0  0  0  0  0  0  0  0  0  0  0  0
  1 12  1  0
  2  4  2  0
  2  5  1  0
  3  4  1  0
  3  6  2  0
  3  8  1  0
  4  9  1  0
  5  7  2  0
  5 12  1  0
  6  7  1  0
  8 10  2  0
  9 11  2  0
 10 11  1  0
M  END
>  <PUBCHEM_COMPOUND_CID>  (1) 
20394

>  <PUBCHEM_CONFORMER_RMSD>  (1) 
0.4

>  <PUBCHEM_CONFORMER_DIVERSEORDER>  (1) 
1
3
4
2

>  <PUBCHEM_MMFF94_PARTIAL_CHARGES>  (1) 
17
1 -0.29
10 -0.15
11 -0.15
12 0.43
13 0.15
14 0.15
15 0.15
16 0.15
17 0.15
18 0.15
2 -0.62
4 0.31
5 0.17
6 -0.15
7 -0.15
8 -0.15
9 -0.15

>  <PUBCHEM_EFFECTIVE_ROTOR_COUNT>  (1) 
1

>  <PUBCHEM_PHARMACOPHORE_FEATURES>  (1) 
3
1 2 acceptor
6 2 3 4 5 6 7 rings
6 3 4 8 9 10 11 rings

>  <PUBCHEM_HEAVY_ATOM_COUNT>  (1) 
12

>  <PUBCHEM_ATOM_DEF_STEREO_COUNT>  (1) 
0

>  <PUBCHEM_ATOM_UDEF_STEREO_COUNT>  (1) 
0

>  <PUBCHEM_BOND_DEF_STEREO_COUNT>  (1) 
0

>  <PUBCHEM_BOND_UDEF_STEREO_COUNT>  (1) 
0

>  <PUBCHEM_ISOTOPIC_ATOM_COUNT>  (1) 
0

>  <PUBCHEM_COMPONENT_COUNT>  (1) 
1

>  <PUBCHEM_CACTVS_TAUTO_COUNT>  (1) 
1

>  <PUBCHEM_CONFORMER_ID>  (1) 
00004FAA00000001

>  <PUBCHEM_MMFF94_ENERGY>  (1) 
31.2956

>  <PUBCHEM_FEATURE_SELFOVERLAP>  (1) 
15.254

>  <PUBCHEM_SHAPE_FINGERPRINT>  (1) 
10219947 1 18342175591823314623
11132069 177 18271513282167268098
11471102 20 18411411826181639613
11471102 22 18409740581329077107
11543360 7 15719402749449238047
12032990 46 18409452470416981639
12251169 10 18272377498839508563
12932764 1 17704060802865671348
14252887 29 18271818920714654907
14325111 11 18411695461347759820
15501101 241 18411135874364300269
16945 1 18340760528874513468
17844478 74 18260268542632883749
20201158 50 18334292071961655915
20645477 70 18340757161915838791
20871998 22 18270691856760782047
21501502 16 18267303140644208080
23463225 33 18410854352090000492
23552423 10 18262798458774548516
23559900 14 17191785979851379902
25610 137 18335707156116307157
2748010 2 18268421339579724252
528886 8 18341321292821384930
8809292 202 18186806910785363043

>  <PUBCHEM_SHAPE_MULTIPOLES>  (1) 
243.84
5.57
1.66
0.76
2.73
0.28
-0.08
-1.64
-1.11
-0.41
-0.01
0.43
-0.07
0.29

>  <PUBCHEM_SHAPE_SELFOVERLAP>  (1) 
520.444

>  <PUBCHEM_SHAPE_VOLUME>  (1) 
136.4

>  <PUBCHEM_COORDINATE_TYPE>  (1) 
2
5
10

$$$$
