20403
     RDKit          3D

 18 19  0  0  0  0  0  0  0  0999 V2000
   -5.9878   -1.4929    1.3029 F   0  0  0  0  0  0  0  0  0  0  0  0
   -0.6601    0.7579   -0.8324 O   0  0  0  0  0  0  0  0  0  0  0  0
   -4.0464   -0.1535   -0.1321 O   0  0  0  0  0  0  0  0  0  0  0  0
   -2.9771    1.8912   -0.0666 O   0  0  0  0  0  0  0  0  0  0  0  0
    2.8789    0.5403    0.1281 C   0  0  0  0  0  0  0  0  0  0  0  0
    3.1291   -0.8305   -0.1190 C   0  0  0  0  0  0  0  0  0  0  0  0
    1.5973    1.0596   -0.1176 C   0  0  0  0  0  0  0  0  0  0  0  0
    0.5772    0.2395   -0.6002 C   0  0  0  0  0  0  0  0  0  0  0  0
    2.0903   -1.6415   -0.6043 C   0  0  0  0  0  0  0  0  0  0  0  0
    0.8232   -1.1087   -0.8428 C   0  0  0  0  0  0  0  0  0  0  0  0
    3.9174    1.3514    0.6137 C   0  0  0  0  0  0  0  0  0  0  0  0
    4.4107   -1.3498    0.1267 C   0  0  0  0  0  0  0  0  0  0  0  0
    5.1846    0.8188    0.8519 C   0  0  0  0  0  0  0  0  0  0  0  0
    5.4309   -0.5291    0.6088 C   0  0  0  0  0  0  0  0  0  0  0  0
   -1.7721   -0.1220   -0.6766 C   0  0  0  0  0  0  0  0  0  0  0  0
   -2.9743    0.6828   -0.2584 C   0  0  0  0  0  0  0  0  0  0  0  0
   -5.2720    0.4716    0.2624 C   0  0  0  0  0  0  0  0  0  0  0  0
   -6.3499   -0.5851    0.3553 C   0  0  0  0  0  0  0  0  0  0  0  0
  1 18  1  0
  2  8  1  0
  2 15  1  0
  3 16  1  0
  3 17  1  0
  4 16  2  0
  5  6  1  0
  5  7  2  0
  5 11  1  0
  6  9  2  0
  6 12  1  0
  7  8  1  0
  8 10  2  0
  9 10  1  0
 11 13  2  0
 12 14  2  0
 13 14  1  0
 15 16  1  0
 17 18  1  0
M  END
>  <PUBCHEM_COMPOUND_CID>  (1) 
20403

>  <PUBCHEM_CONFORMER_RMSD>  (1) 
0.8

>  <PUBCHEM_CONFORMER_DIVERSEORDER>  (1) 
1
99
76
4
45
132
39
119
98
123
48
52
8
11
30
57
38
125
61
67
81
36
5
59
19
65
122
58
62
94
7
84
103
37
33
18
66
64
10
20
23
14
44
29
3
96
108
107
74
112
27
78
70
111
2
56
82
126
12
101
113
15
13
35
121
17
77
43
80
114
34
87
51
115
117
9
50
93
73
75
16
49
71
130
28
72
88
68
22
21
6
90
53
131
118
83
104
41
24
47
102
31
110
97
92
85
40
116
120
124
32
60
46
26
86
25
105
42
91
129
54
95
69
89
63
100
55
127
106
128
109
79

>  <PUBCHEM_MMFF94_PARTIAL_CHARGES>  (1) 
23
1 -0.34
10 -0.15
11 -0.15
12 -0.15
13 -0.15
14 -0.15
15 0.34
16 0.66
17 0.28
18 0.34
19 0.15
2 -0.36
20 0.15
21 0.15
22 0.15
23 0.15
24 0.15
25 0.15
3 -0.43
4 -0.57
7 -0.15
8 0.08
9 -0.15

>  <PUBCHEM_EFFECTIVE_ROTOR_COUNT>  (1) 
6

>  <PUBCHEM_PHARMACOPHORE_FEATURES>  (1) 
4
1 2 acceptor
1 4 acceptor
6 5 6 11 12 13 14 rings
6 5 6 7 8 9 10 rings

>  <PUBCHEM_HEAVY_ATOM_COUNT>  (1) 
18

>  <PUBCHEM_ATOM_DEF_STEREO_COUNT>  (1) 
0

>  <PUBCHEM_ATOM_UDEF_STEREO_COUNT>  (1) 
0

>  <PUBCHEM_BOND_DEF_STEREO_COUNT>  (1) 
0

>  <PUBCHEM_BOND_UDEF_STEREO_COUNT>  (1) 
0

>  <PUBCHEM_ISOTOPIC_ATOM_COUNT>  (1) 
0

>  <PUBCHEM_COMPONENT_COUNT>  (1) 
1

>  <PUBCHEM_CACTVS_TAUTO_COUNT>  (1) 
1

>  <PUBCHEM_CONFORMER_ID>  (1) 
00004FB300000001

>  <PUBCHEM_MMFF94_ENERGY>  (1) 
45.1036

>  <PUBCHEM_FEATURE_SELFOVERLAP>  (1) 
20.331

>  <PUBCHEM_SHAPE_FINGERPRINT>  (1) 
10 15 18338227258859250128
10354089 29 18060700593801345936
106641 1 18114177579907825192
10688039 33 18335981991137602708
10693767 8 11891594820578787464
11724838 91 18201150056996063030
12107183 9 17409093495706104307
12236239 1 16989120954716127463
12507560 40 18342456993886022693
12596602 18 18060142029141591675
12616971 3 17703498939723553676
12670543 26 9007064564835705763
12916748 109 17418380181494408304
13533116 47 14836132009716204142
13668630 136 14706929531864766443
13955234 65 17704069548147599742
1420 363 18334860515368029335
14251732 16 18411981403348680993
14251752 14 14490462085520640295
14251764 18 18411131451196552634
14341114 176 18342459239831917904
14848160 23 17967811656964243491
15048467 5 12535344610353160154
15183329 4 7853584512933440087
15188451 53 17749388204776905195
15475509 35 17386549277669610146
18222031 100 16732986418253925644
19489759 90 17095238099848678829
20281389 69 13542469743904747867
20645477 56 11600004345587143981
21065199 12 18341333284486197933
21267235 1 18271246028745133398
21623969 137 18343025497401059851
21637258 2 15864621775044488154
22224240 67 18342730853674688178
23402539 116 13840259269927165215
23559900 14 11530774725082855655
26918003 58 18334858316713941485
29717793 49 13262673712543156082
3004659 81 9223237355924747392
3545911 37 18131068234214509030
4072396 5 9439403489724407236
42 15 18409168788122415181
42630746 31 18060700572416310566
4340502 62 18412262843781387626
465052 167 18333448721232322762
5104073 3 18269834216205516881
542803 24 15913607267939053805
59682541 35 18341327906817761787

>  <PUBCHEM_SHAPE_MULTIPOLES>  (1) 
345.55
14.75
1.56
0.9
17.93
0.04
0.08
1.62
6
-0.59
0.04
0.29
0.13
0.97

>  <PUBCHEM_SHAPE_SELFOVERLAP>  (1) 
734.507

>  <PUBCHEM_SHAPE_VOLUME>  (1) 
193.4

>  <PUBCHEM_COORDINATE_TYPE>  (1) 
2
5
10

$$$$
