20413
     RDKit          3D

 14 14  0  0  0  0  0  0  0  0999 V2000
   -2.2454    1.5592   -0.0378 O   0  0  0  0  0  0  0  0  0  0  0  0
    0.7738    2.3305    1.2001 O   0  0  0  0  0  0  0  0  0  0  0  0
    0.8572    2.4693   -1.0671 O   0  0  0  0  0  0  0  0  0  0  0  0
    2.1894   -0.5503   -0.0146 C   0  0  0  0  0  0  0  0  0  0  0  0
    0.6970   -0.6242   -0.0098 C   0  0  0  0  0  0  0  0  0  0  0  0
   -0.0845    0.5311   -0.0276 C   0  0  0  0  0  0  0  0  0  0  0  0
    2.8045   -1.2039   -1.2653 C   0  0  0  0  0  0  0  0  0  0  0  0
    2.8104   -1.1598    1.2552 C   0  0  0  0  0  0  0  0  0  0  0  0
    0.0872   -1.8786    0.0134 C   0  0  0  0  0  0  0  0  0  0  0  0
   -1.4759    0.4319   -0.0222 C   0  0  0  0  0  0  0  0  0  0  0  0
   -2.0856   -0.8225    0.0010 C   0  0  0  0  0  0  0  0  0  0  0  0
   -1.3041   -1.9777    0.0188 C   0  0  0  0  0  0  0  0  0  0  0  0
   -3.5734   -0.9500    0.0059 C   0  0  0  0  0  0  0  0  0  0  0  0
    0.5494    1.8451   -0.0498 C   0  0  0  0  0  0  0  0  0  0  0  0
  1 10  1  0
  2 14  1  0
  3 14  2  0
  4  5  1  0
  4  7  1  0
  4  8  1  0
  5  6  2  0
  5  9  1  0
  6 10  1  0
  6 14  1  0
  9 12  2  0
 10 11  2  0
 11 12  1  0
 11 13  1  0
M  END
>  <PUBCHEM_COMPOUND_CID>  (1) 
20413

>  <PUBCHEM_CONFORMER_RMSD>  (1) 
0.6

>  <PUBCHEM_CONFORMER_DIVERSEORDER>  (1) 
1

>  <PUBCHEM_MMFF94_PARTIAL_CHARGES>  (1) 
16
1 -0.53
10 0.08
11 -0.14
12 -0.15
13 0.14
14 0.63
2 -0.65
22 0.15
23 0.15
27 0.45
28 0.5
3 -0.57
4 0.14
5 -0.14
6 0.09
9 -0.15

>  <PUBCHEM_EFFECTIVE_ROTOR_COUNT>  (1) 
2

>  <PUBCHEM_PHARMACOPHORE_FEATURES>  (1) 
6
1 1 donor
1 2 acceptor
1 3 acceptor
3 2 3 14 anion
3 4 7 8 hydrophobe
6 5 6 9 10 11 12 rings

>  <PUBCHEM_HEAVY_ATOM_COUNT>  (1) 
14

>  <PUBCHEM_ATOM_DEF_STEREO_COUNT>  (1) 
0

>  <PUBCHEM_ATOM_UDEF_STEREO_COUNT>  (1) 
0

>  <PUBCHEM_BOND_DEF_STEREO_COUNT>  (1) 
0

>  <PUBCHEM_BOND_UDEF_STEREO_COUNT>  (1) 
0

>  <PUBCHEM_ISOTOPIC_ATOM_COUNT>  (1) 
0

>  <PUBCHEM_COMPONENT_COUNT>  (1) 
1

>  <PUBCHEM_CACTVS_TAUTO_COUNT>  (1) 
13

>  <PUBCHEM_CONFORMER_ID>  (1) 
00004FBD00000001

>  <PUBCHEM_MMFF94_ENERGY>  (1) 
44.2144

>  <PUBCHEM_FEATURE_SELFOVERLAP>  (1) 
30.503

>  <PUBCHEM_SHAPE_FINGERPRINT>  (1) 
11206711 2 18335417937777720951
11680986 33 18193555794570886139
12382932 28 18196083352807108563
12423570 1 11788280923897019421
12524768 44 18195809797919104375
13380535 21 17905061591848191675
13380535 220 18408893927274157549
13380535 76 17906727355921460595
14181834 199 18124573521660188567
14614273 12 17759797053243706932
14817 1 11356679183548890120
161256 15 18266461082198702365
16945 1 18409450297448652283
193761 8 17977948213084299223
19868273 325 18337115561950280094
20511035 2 18124309664766127711
20588541 1 18122900924235766677
20645477 70 18195523916891965479
21501502 16 18051129491042248911
22802520 49 17771072592152348302
2334 1 18410572885645130592
23402539 116 18270382911263196366
23419403 2 15758156204969737039
23552423 10 17973442392979734391
23557571 272 18271538511586016902
23559900 14 18126849301352992894
2748010 2 18411411782947058469
528862 383 18191864737091864744
53812654 25 18409719656269814938
7364860 26 18128540568371956616
81228 2 18123474882090082632

>  <PUBCHEM_SHAPE_MULTIPOLES>  (1) 
270.51
4.17
2.58
0.98
1.03
1.42
-0.03
-1.94
0.02
-0.24
0.02
-0.79
0.06
0.02

>  <PUBCHEM_SHAPE_SELFOVERLAP>  (1) 
564.141

>  <PUBCHEM_SHAPE_VOLUME>  (1) 
155.2

>  <PUBCHEM_COORDINATE_TYPE>  (1) 
2
5
10

$$$$
