2041
     RDKit          3D

 15 15  0  0  0  0  0  0  0  0999 V2000
    4.3930   -0.1250    1.1089 O   0  0  0  0  0  0  0  0  0  0  0  0
    4.3777   -0.3780   -1.0717 O   0  0  0  0  0  0  0  0  0  0  0  0
    3.7881   -0.1374    0.0095 N   0  0  0  0  0  0  0  0  0  0  0  0
   -5.2318    0.8195   -0.0717 N   0  0  0  0  0  0  0  0  0  0  0  0
   -2.2858   -2.5238    0.2082 N   0  0  0  0  0  0  0  0  0  0  0  0
   -0.3463    0.6521   -0.0545 C   0  0  0  0  0  0  0  0  0  0  0  0
    2.3935    0.1286   -0.0115 C   0  0  0  0  0  0  0  0  0  0  0  0
    0.3462    0.6600    1.1562 C   0  0  0  0  0  0  0  0  0  0  0  0
    0.3309    0.3824   -1.2437 C   0  0  0  0  0  0  0  0  0  0  0  0
    1.7162    0.3983    1.1777 C   0  0  0  0  0  0  0  0  0  0  0  0
    1.7009    0.1206   -1.2221 C   0  0  0  0  0  0  0  0  0  0  0  0
   -1.7753    0.9224   -0.0776 C   0  0  0  0  0  0  0  0  0  0  0  0
   -2.7748    0.0098    0.0090 C   0  0  0  0  0  0  0  0  0  0  0  0
   -4.1297    0.4576   -0.0359 C   0  0  0  0  0  0  0  0  0  0  0  0
   -2.5028   -1.3871    0.1193 C   0  0  0  0  0  0  0  0  0  0  0  0
  1  3  1  0
  2  3  2  0
  3  7  1  0
  4 14  3  0
  5 15  3  0
  6  8  2  0
  6  9  1  0
  6 12  1  0
  7 10  2  0
  7 11  1  0
  8 10  1  0
  9 11  2  0
 12 13  2  3
 13 14  1  0
 13 15  1  0
M  CHG  2   1  -1   3   1
M  END
>  <PUBCHEM_COMPOUND_CID>  (1) 
2041

>  <PUBCHEM_CONFORMER_RMSD>  (1) 
0.6

>  <PUBCHEM_CONFORMER_DIVERSEORDER>  (1) 
1
2

>  <PUBCHEM_MMFF94_PARTIAL_CHARGES>  (1) 
20
1 -0.52
10 -0.15
11 -0.15
12 -0.18
13 0.13
14 0.49
15 0.49
16 0.15
17 0.15
18 0.15
19 0.15
2 -0.52
20 0.15
3 0.91
4 -0.56
5 -0.56
6 0.03
7 0.13
8 -0.15
9 -0.15

>  <PUBCHEM_EFFECTIVE_ROTOR_COUNT>  (1) 
2

>  <PUBCHEM_PHARMACOPHORE_FEATURES>  (1) 
6
1 1 acceptor
1 1 anion
1 2 acceptor
1 4 acceptor
1 5 acceptor
6 6 7 8 9 10 11 rings

>  <PUBCHEM_HEAVY_ATOM_COUNT>  (1) 
15

>  <PUBCHEM_ATOM_DEF_STEREO_COUNT>  (1) 
0

>  <PUBCHEM_ATOM_UDEF_STEREO_COUNT>  (1) 
0

>  <PUBCHEM_BOND_DEF_STEREO_COUNT>  (1) 
0

>  <PUBCHEM_BOND_UDEF_STEREO_COUNT>  (1) 
0

>  <PUBCHEM_ISOTOPIC_ATOM_COUNT>  (1) 
0

>  <PUBCHEM_COMPONENT_COUNT>  (1) 
1

>  <PUBCHEM_CACTVS_TAUTO_COUNT>  (1) 
1

>  <PUBCHEM_CONFORMER_ID>  (1) 
000007F900000001

>  <PUBCHEM_MMFF94_ENERGY>  (1) 
37.846

>  <PUBCHEM_FEATURE_SELFOVERLAP>  (1) 
30.53

>  <PUBCHEM_SHAPE_FINGERPRINT>  (1) 
10219947 1 16128658552640519084
10465860 250 18273210893734507328
11401426 45 16443344286705660564
11471102 20 16343981403655102432
11471102 22 16774087292550417954
12236239 1 17385725781677403421
12346177 29 18341886446478385079
124424 183 17846781810355619897
12500047 106 18411695491734193311
12932764 1 17313651741872050117
13760787 19 18335143115636734158
13760787 5 16081082697380971506
14115302 16 18409455799253961037
15207287 21 17917994962542152847
15375358 24 17846780706517376319
17802600 8 9871745780395922331
18175812 5 18131064978228690221
18186145 218 14490189444748091376
19422 9 17313675961503764539
200 152 16370998586461834056
20201158 50 17704077282866130815
20279233 1 17703515453893840639
20645476 183 17676488363251873331
20645477 70 16558754460369702852
20681677 155 18186521020597570043
21119208 17 17821730528801598141
21618674 57 17917713470301131523
22485316 2 18409444799879541770
22854114 59 15769772463870716664
23402539 116 18342729698945813725
23402655 69 15502366816906788757
23559900 14 18342177778473254176
23598291 2 17531815782751775119
26918003 58 18131630080403617778
474 4 13685710884603184874
568465 68 17274269472853333178
57426455 114 18343860026673378763
81228 2 17630352773334771793

>  <PUBCHEM_SHAPE_MULTIPOLES>  (1) 
282.01
8.54
1.29
1.14
0.63
0.96
-0.04
0.1
0.02
1.4
0.14
-0.97
-0.1
0.32

>  <PUBCHEM_SHAPE_SELFOVERLAP>  (1) 
594.074

>  <PUBCHEM_SHAPE_VOLUME>  (1) 
154.2

>  <PUBCHEM_COORDINATE_TYPE>  (1) 
2
5
10

$$$$
