20419
     RDKit          3D

 24 27  0  0  0  0  0  0  0  0999 V2000
   -0.1068    2.0370    0.2888 O   0  0  0  0  0  0  0  0  0  0  0  0
   -3.4992   -2.0614   -0.2023 O   0  0  0  0  0  0  0  0  0  0  0  0
    1.9692    0.4706    0.5070 N   0  0  0  0  0  0  0  0  0  0  0  0
   -1.5961   -3.8373   -0.0133 N   0  0  0  0  0  0  0  0  0  0  0  0
   -0.3576   -0.3184    0.2106 C   0  0  0  0  0  0  0  0  0  0  0  0
   -1.2441   -1.3896    0.0817 C   0  0  0  0  0  0  0  0  0  0  0  0
    1.0120   -0.5609    0.3698 C   0  0  0  0  0  0  0  0  0  0  0  0
   -2.3013    1.3142    0.0125 C   0  0  0  0  0  0  0  0  0  0  0  0
   -3.1879    0.2429   -0.1161 C   0  0  0  0  0  0  0  0  0  0  0  0
   -0.8537    1.0726    0.1805 C   0  0  0  0  0  0  0  0  0  0  0  0
   -2.6918   -1.1480   -0.0860 C   0  0  0  0  0  0  0  0  0  0  0  0
   -0.7610   -2.7033    0.1114 C   0  0  0  0  0  0  0  0  0  0  0  0
    1.4893   -1.8716    0.3990 C   0  0  0  0  0  0  0  0  0  0  0  0
    0.6047   -2.9405    0.2699 C   0  0  0  0  0  0  0  0  0  0  0  0
   -2.7844    2.6279   -0.0173 C   0  0  0  0  0  0  0  0  0  0  0  0
   -4.5576    0.4854   -0.2745 C   0  0  0  0  0  0  0  0  0  0  0  0
    3.3259    0.5620    0.1492 C   0  0  0  0  0  0  0  0  0  0  0  0
   -4.1502    2.8651   -0.1751 C   0  0  0  0  0  0  0  0  0  0  0  0
   -5.0348    1.7961   -0.3036 C   0  0  0  0  0  0  0  0  0  0  0  0
    4.1955    1.3638    0.8925 C   0  0  0  0  0  0  0  0  0  0  0  0
    3.8106   -0.1484   -0.9519 C   0  0  0  0  0  0  0  0  0  0  0  0
    5.5413    1.4549    0.5371 C   0  0  0  0  0  0  0  0  0  0  0  0
    5.1564   -0.0574   -1.3072 C   0  0  0  0  0  0  0  0  0  0  0  0
    6.0216    0.7444   -0.5627 C   0  0  0  0  0  0  0  0  0  0  0  0
  1 10  2  0
  2 11  2  0
  3  7  1  0
  3 17  1  0
  4 12  1  0
  5  6  2  0
  5  7  1  0
  5 10  1  0
  6 11  1  0
  6 12  1  0
  7 13  2  0
  8  9  2  0
  8 10  1  0
  8 15  1  0
  9 11  1  0
  9 16  1  0
 12 14  2  0
 13 14  1  0
 15 18  2  0
 16 19  2  0
 17 20  2  0
 17 21  1  0
 18 19  1  0
 20 22  1  0
 21 23  2  0
 22 24  2  0
 23 24  1  0
M  END
>  <PUBCHEM_COMPOUND_CID>  (1) 
20419

>  <PUBCHEM_CONFORMER_RMSD>  (1) 
0.6

>  <PUBCHEM_CONFORMER_DIVERSEORDER>  (1) 
1
3
4
2

>  <PUBCHEM_MMFF94_PARTIAL_CHARGES>  (1) 
38
1 -0.57
10 0.4
11 0.4
12 0.1
13 -0.15
14 -0.15
15 -0.15
16 -0.15
17 0.1
18 -0.15
19 -0.15
2 -0.57
20 -0.15
21 -0.15
22 -0.15
23 -0.15
24 -0.15
25 0.15
26 0.15
27 0.4
28 0.15
29 0.15
3 -0.6
30 0.15
31 0.15
32 0.4
33 0.4
34 0.15
35 0.15
36 0.15
37 0.15
38 0.15
4 -0.9
5 0.09
6 0.09
7 0.1
8 0.09
9 0.09

>  <PUBCHEM_EFFECTIVE_ROTOR_COUNT>  (1) 
2

>  <PUBCHEM_PHARMACOPHORE_FEATURES>  (1) 
10
1 1 acceptor
1 2 acceptor
1 3 cation
1 3 donor
1 4 cation
1 4 donor
6 17 20 21 22 23 24 rings
6 5 6 7 12 13 14 rings
6 5 6 8 9 10 11 rings
6 8 9 15 16 18 19 rings

>  <PUBCHEM_HEAVY_ATOM_COUNT>  (1) 
24

>  <PUBCHEM_ATOM_DEF_STEREO_COUNT>  (1) 
0

>  <PUBCHEM_ATOM_UDEF_STEREO_COUNT>  (1) 
0

>  <PUBCHEM_BOND_DEF_STEREO_COUNT>  (1) 
0

>  <PUBCHEM_BOND_UDEF_STEREO_COUNT>  (1) 
0

>  <PUBCHEM_ISOTOPIC_ATOM_COUNT>  (1) 
0

>  <PUBCHEM_COMPONENT_COUNT>  (1) 
1

>  <PUBCHEM_CACTVS_TAUTO_COUNT>  (1) 
9

>  <PUBCHEM_CONFORMER_ID>  (1) 
00004FC300000001

>  <PUBCHEM_MMFF94_ENERGY>  (1) 
105.3864

>  <PUBCHEM_FEATURE_SELFOVERLAP>  (1) 
50.788

>  <PUBCHEM_SHAPE_FINGERPRINT>  (1) 
10319926 262 18197476593971468024
10411042 1 17689434214493971075
10493431 412 18410576159001320297
10498660 4 18411135809966236032
10670039 82 18335419071548782212
10967382 1 18195240019410475827
1100329 8 18338517564062146977
11135609 187 18264474115197672469
11578080 2 17242437318992312205
12107183 9 18190165816588437778
12173636 292 18410288094990584615
12236239 1 17603863438520229152
12293681 160 18059856112794228697
12390115 104 18342187635027839297
12403259 415 18272933868813452840
12422481 6 16951405421082428028
12788726 201 17609512866413045690
13140716 1 17831020487413290747
13540713 5 18265314145885649939
13544592 145 18271815609879964620
138480 1 17474104302642369171
14767858 380 18339625807848455709
14790565 3 18196375814584904081
14840074 17 17240777185046402396
15042514 8 18192436496477508195
15196674 1 18410290285434636642
16087824 20 18411133655364407055
17980427 23 17386018281602970461
18608769 82 18411141376955910907
19591789 44 18338517559814275689
21033648 29 18342731949165954712
21236236 1 18412544349028285771
21279426 13 18342181016757529806
21796203 349 17042360158453805587
22182313 1 18266765548072616595
23227448 37 18339360880721807764
23366157 5 17826513258290765123
23402539 116 18340763827752132484
23557571 272 18271813479481383028
23559900 14 18343868827636413588
25147074 1 18261937570976944922
283562 15 18411415155172041499
293599 30 18410013217173486385
3004659 81 18336550405306782726
3298306 158 18202005404640478406
335352 9 18338515228032318358
350125 39 18119245069827848778
3759504 43 18113623399470559243
394222 165 18042962069320238555
469060 322 18189920741063869953
474 4 17676778595249857100
5104073 3 18189338961963377457
5283173 99 18341332288307116224
59755656 215 18340492158491824286
59755656 520 18334572430563315982
7288768 16 17967816024793412395
7808743 9 18408881875870244536
8863177 126 12318012990640629565
9709674 26 18199751508855858764
9981440 41 18333452032193406659

>  <PUBCHEM_SHAPE_MULTIPOLES>  (1) 
472.21
11.53
3.51
0.82
10.66
2.31
0.09
-8.37
2.15
-3.25
-0.24
0.82
-0.08
0.42

>  <PUBCHEM_SHAPE_SELFOVERLAP>  (1) 
1069.079

>  <PUBCHEM_SHAPE_VOLUME>  (1) 
244.7

>  <PUBCHEM_COORDINATE_TYPE>  (1) 
2
5
10

$$$$
