20423
     RDKit          3D

 24 26  0  0  0  0  0  0  0  0999 V2000
   -0.6935   -0.2214    0.3113 O   0  0  0  0  0  0  0  0  0  0  0  0
    2.0945    0.0800    2.2678 O   0  0  0  0  0  0  0  0  0  0  0  0
    0.0271   -1.4527    2.1148 O   0  0  0  0  0  0  0  0  0  0  0  0
   -4.2779   -0.6157   -0.4194 N   0  0  0  0  0  0  0  0  0  0  0  0
   -5.1745   -0.0948   -1.4508 C   0  0  0  0  0  0  0  0  0  0  0  0
   -4.8863   -0.2167    0.8495 C   0  0  0  0  0  0  0  0  0  0  0  0
   -6.5545   -0.4108   -0.8932 C   0  0  0  0  0  0  0  0  0  0  0  0
   -6.3657   -0.4874    0.6187 C   0  0  0  0  0  0  0  0  0  0  0  0
   -2.9173   -0.1194   -0.5637 C   0  0  0  0  0  0  0  0  0  0  0  0
   -2.0117   -0.7189    0.5003 C   0  0  0  0  0  0  0  0  0  0  0  0
    1.6145   -0.0299    0.9123 C   0  0  0  0  0  0  0  0  0  0  0  0
    0.2542   -0.6707    1.1992 C   0  0  0  0  0  0  0  0  0  0  0  0
    1.5264    1.3557    0.2679 C   0  0  0  0  0  0  0  0  0  0  0  0
    2.5418   -0.9464    0.1110 C   0  0  0  0  0  0  0  0  0  0  0  0
    1.0538    1.4536   -1.0205 C   0  0  0  0  0  0  0  0  0  0  0  0
    3.8565   -0.5741   -0.0511 C   0  0  0  0  0  0  0  0  0  0  0  0
    1.9226    2.4497    1.0020 C   0  0  0  0  0  0  0  0  0  0  0  0
    2.0256   -2.1077   -0.4163 C   0  0  0  0  0  0  0  0  0  0  0  0
    0.9732    2.7162   -1.6077 C   0  0  0  0  0  0  0  0  0  0  0  0
    4.7019   -1.4094   -0.7813 C   0  0  0  0  0  0  0  0  0  0  0  0
    1.8418    3.7123    0.4146 C   0  0  0  0  0  0  0  0  0  0  0  0
    2.8712   -2.9431   -1.1463 C   0  0  0  0  0  0  0  0  0  0  0  0
    1.3671    3.8455   -0.8903 C   0  0  0  0  0  0  0  0  0  0  0  0
    4.2092   -2.5939   -1.3288 C   0  0  0  0  0  0  0  0  0  0  0  0
  1 10  1  0
  1 12  1  0
  2 11  1  0
  3 12  2  0
  4  5  1  0
  4  6  1  0
  4  9  1  0
  5  7  1  0
  6  8  1  0
  7  8  1  0
  9 10  1  0
 11 12  1  0
 11 13  1  0
 11 14  1  0
 13 15  2  0
 13 17  1  0
 14 16  2  0
 14 18  1  0
 15 19  1  0
 16 20  1  0
 17 21  2  0
 18 22  2  0
 19 23  2  0
 20 24  2  0
 21 23  1  0
 22 24  1  0
M  END
>  <PUBCHEM_COMPOUND_CID>  (1) 
20423

>  <PUBCHEM_CONFORMER_RMSD>  (1) 
0.8

>  <PUBCHEM_CONFORMER_DIVERSEORDER>  (1) 
1
115
146
56
19
160
89
122
132
41
76
93
148
113
83
170
70
67
120
145
99
38
153
36
27
175
50
97
140
75
81
179
181
32
84
8
63
66
172
42
5
161
33
117
69
118
11
12
159
18
177
156
137
119
82
47
147
107
98
96
79
138
106
111
165
35
10
126
61
92
178
176
68
59
13
29
78
15
102
52
171
163
9
180
87
21
142
51
139
14
144
136
55
37
125
53
28
91
26
74
2
141
158
166
131
129
6
151
31
100
157
7
128
17
64
154
182
104
62
150
20
30
57
3
48
133
164
169
149
174
16
112
88
116
45
152
73
134
77
94
103
143
105
173
130
124
44
60
24
39
4
43
34
72
167
127
86
168
121
108
58
54
123
65
22
162
114
135
46
40
110
101
80
109
49
25
23
95
155
85
71
90

>  <PUBCHEM_MMFF94_PARTIAL_CHARGES>  (1) 
33
1 -0.43
10 0.28
11 0.63
12 0.66
13 -0.14
14 -0.14
15 -0.15
16 -0.15
17 -0.15
18 -0.15
19 -0.15
2 -0.68
20 -0.15
21 -0.15
22 -0.15
23 -0.15
24 -0.15
3 -0.57
37 0.15
38 0.15
39 0.15
4 -0.81
40 0.15
41 0.4
42 0.15
43 0.15
44 0.15
45 0.15
46 0.15
47 0.15
5 0.27
6 0.27
9 0.27

>  <PUBCHEM_EFFECTIVE_ROTOR_COUNT>  (1) 
8

>  <PUBCHEM_PHARMACOPHORE_FEATURES>  (1) 
7
1 2 acceptor
1 2 donor
1 3 acceptor
1 4 cation
5 4 5 6 7 8 rings
6 13 15 17 19 21 23 rings
6 14 16 18 20 22 24 rings

>  <PUBCHEM_HEAVY_ATOM_COUNT>  (1) 
24

>  <PUBCHEM_ATOM_DEF_STEREO_COUNT>  (1) 
0

>  <PUBCHEM_ATOM_UDEF_STEREO_COUNT>  (1) 
0

>  <PUBCHEM_BOND_DEF_STEREO_COUNT>  (1) 
0

>  <PUBCHEM_BOND_UDEF_STEREO_COUNT>  (1) 
0

>  <PUBCHEM_ISOTOPIC_ATOM_COUNT>  (1) 
0

>  <PUBCHEM_COMPONENT_COUNT>  (1) 
1

>  <PUBCHEM_CACTVS_TAUTO_COUNT>  (1) 
1

>  <PUBCHEM_CONFORMER_ID>  (1) 
00004FC700000001

>  <PUBCHEM_MMFF94_ENERGY>  (1) 
63.2906

>  <PUBCHEM_FEATURE_SELFOVERLAP>  (1) 
35.534

>  <PUBCHEM_SHAPE_FINGERPRINT>  (1) 
10366900 7 17240483590146332633
10763959 59 18411132499305918085
10930396 42 18263338384384535362
11315621 136 18269829986148767439
11421498 54 13479127978044146807
12035758 1 18189876773536875816
12166972 35 18202283598319794153
12617007 42 18334861610463273324
12788726 201 18116439133565963170
13149001 5 17968958481609199146
13533116 47 18272088336113853181
13590594 115 18265628597447199225
13726171 33 14779539025042673903
13911987 19 18117589325866179662
14170010 4 18412825819441166336
15081414 286 18261674878193114469
15210252 30 17676776344819175292
15420108 30 17764005262591224776
15806764 133 17895777178345461619
16988056 13 18334853935236260541
17357779 13 18337104558159587428
17492 54 18189074104425968916
17844677 252 18410577289041598385
1813 80 18339924809763982098
21285901 2 18339083662332020294
21365058 113 18336279954698686357
21503847 285 18335136505850955265
21860390 5 18335133254107142221
221357 26 18334293137456307005
22289505 5 18260822674912899621
23558518 356 17830163963323246722
23559900 14 18411418440753399083
239999 70 18260261997329571667
3060560 45 18335413569326969410
338550 245 18059004111916813647
340366 18 18341894121205440447
4340502 62 17060039472605532338
46194498 28 18335137618031045005
465052 167 14549016576588054926
495365 180 18197216060263820224
5281201 14 18410571769634109365
6443956 14 18412830179054433388
6823239 73 16805612511860187229
7471813 234 18060142028846354697
81228 2 17973466320970391496
9841814 1 18114451314583205481
9971528 1 18343015588557762017

>  <PUBCHEM_SHAPE_MULTIPOLES>  (1) 
471.32
11.67
3.75
1.62
25.65
3.67
-0.35
-6.88
3.06
-5.99
1.31
-0.19
-0.01
1.07

>  <PUBCHEM_SHAPE_SELFOVERLAP>  (1) 
1009.835

>  <PUBCHEM_SHAPE_VOLUME>  (1) 
260.9

>  <PUBCHEM_COORDINATE_TYPE>  (1) 
2
5
10

$$$$
