20430
     RDKit          3D

 15 15  0  0  0  0  0  0  0  0999 V2000
   -3.2322   -3.1439   -0.0062 Cl  0  0  0  0  0  0  0  0  0  0  0  0
    1.2889   -1.2098    0.0007 O   0  0  0  0  0  0  0  0  0  0  0  0
   -2.3318    1.7216    0.0085 N   0  0  0  0  0  0  0  0  0  0  0  0
   -0.4835    0.2779    0.0058 N   0  0  0  0  0  0  0  0  0  0  0  0
   -0.8493   -2.0936   -0.0002 N   0  0  0  0  0  0  0  0  0  0  0  0
   -2.7202   -0.5911    0.0021 N   0  0  0  0  0  0  0  0  0  0  0  0
    3.5734   -0.4933   -0.0216 C   0  0  0  0  0  0  0  0  0  0  0  0
    4.5221    0.7019   -0.0056 C   0  0  0  0  0  0  0  0  0  0  0  0
    2.1161   -0.0545    0.0017 C   0  0  0  0  0  0  0  0  0  0  0  0
    5.9762    0.2589    0.0147 C   0  0  0  0  0  0  0  0  0  0  0  0
   -1.4933    2.8790    0.0124 C   0  0  0  0  0  0  0  0  0  0  0  0
   -0.0659   -1.0005    0.0028 C   0  0  0  0  0  0  0  0  0  0  0  0
   -1.8202    0.4055    0.0051 C   0  0  0  0  0  0  0  0  0  0  0  0
   -2.3182    4.1546   -0.0194 C   0  0  0  0  0  0  0  0  0  0  0  0
   -2.1623   -1.8125   -0.0006 C   0  0  0  0  0  0  0  0  0  0  0  0
  1 15  1  0
  2  9  1  0
  2 12  1  0
  3 11  1  0
  3 13  1  0
  4 12  2  0
  4 13  1  0
  5 12  1  0
  5 15  2  0
  6 13  2  0
  6 15  1  0
  7  8  1  0
  7  9  1  0
  8 10  1  0
 11 14  1  0
M  END
>  <PUBCHEM_COMPOUND_CID>  (1) 
20430

>  <PUBCHEM_CONFORMER_RMSD>  (1) 
0.8

>  <PUBCHEM_CONFORMER_DIVERSEORDER>  (1) 
1
36
54
22
14
11
42
39
41
38
25
8
49
53
59
43
16
57
17
12
46
37
20
47
58
34
35
13
19
23
2
9
32
48
56
28
15
44
5
55
51
10
26
6
45
21
33
31
7
18
3
24
29
27
52
4
50
40
30

>  <PUBCHEM_MMFF94_PARTIAL_CHARGES>  (1) 
12
1 -0.18
11 0.37
12 0.7
13 0.72
15 0.8
2 -0.36
27 0.4
3 -0.87
4 -0.62
5 -0.62
6 -0.62
9 0.28

>  <PUBCHEM_EFFECTIVE_ROTOR_COUNT>  (1) 
6

>  <PUBCHEM_PHARMACOPHORE_FEATURES>  (1) 
4
1 10 hydrophobe
1 3 donor
4 3 4 6 13 cation
6 4 5 6 12 13 15 rings

>  <PUBCHEM_HEAVY_ATOM_COUNT>  (1) 
15

>  <PUBCHEM_ATOM_DEF_STEREO_COUNT>  (1) 
0

>  <PUBCHEM_ATOM_UDEF_STEREO_COUNT>  (1) 
0

>  <PUBCHEM_BOND_DEF_STEREO_COUNT>  (1) 
0

>  <PUBCHEM_BOND_UDEF_STEREO_COUNT>  (1) 
0

>  <PUBCHEM_ISOTOPIC_ATOM_COUNT>  (1) 
0

>  <PUBCHEM_COMPONENT_COUNT>  (1) 
1

>  <PUBCHEM_CACTVS_TAUTO_COUNT>  (1) 
4

>  <PUBCHEM_CONFORMER_ID>  (1) 
00004FCE00000001

>  <PUBCHEM_MMFF94_ENERGY>  (1) 
26.7392

>  <PUBCHEM_FEATURE_SELFOVERLAP>  (1) 
20.297

>  <PUBCHEM_SHAPE_FINGERPRINT>  (1) 
10411042 1 18122344841983096035
12107183 9 17902220119369518106
12173636 292 18338797801739629900
12390115 104 18055931908487148065
13955234 65 17112983959696936569
14123255 52 18050005493605620684
14508225 48 18198047278606925527
17134986 127 17762056536585092693
1741750 31 18268427919585783080
17834072 32 18194684761475151256
20510252 161 18341897363620249475
20645477 56 18341901740455862856
21304253 13 18270126846061523587
21339142 36 18265886029307327911
21339142 51 18336256968266053519
21426921 1 18410856568614781086
21524375 3 17900261897085569313
21650355 55 18337674247033013275
22182937 141 18271813371701532280
2297311 6 18340499975105683326
2306618 200 18273223001326280482
23402539 116 18270396225630262951
23557571 272 18271814539910907518
23558518 356 18261119521641392066
23559900 14 17985266267049510966
2748010 2 18125422353754169635
4214541 1 18410856547583108198
573450 72 18261661615797698098
68521 5 18410855503246821775
77188 2 18050568740264693717

>  <PUBCHEM_SHAPE_MULTIPOLES>  (1) 
284.77
8.69
4.09
0.59
17.89
4.02
0
-0.63
0.01
-7.23
-0.02
0.02
0
0

>  <PUBCHEM_SHAPE_SELFOVERLAP>  (1) 
552.186

>  <PUBCHEM_SHAPE_VOLUME>  (1) 
172.3

>  <PUBCHEM_COORDINATE_TYPE>  (1) 
2
5
10

$$$$
