20442
     RDKit          3D

 21 20  0  0  1  0  0  0  0  0999 V2000
    4.2247    2.5704   -0.5288 O   0  0  0  0  0  0  0  0  0  0  0  0
    2.8975   -3.4885   -0.3775 O   0  0  0  0  0  0  0  0  0  0  0  0
   -2.8016    3.4089    0.9422 O   0  0  0  0  0  0  0  0  0  0  0  0
   -4.2632   -2.5760    0.5534 O   0  0  0  0  0  0  0  0  0  0  0  0
    3.5858    1.4642    1.3502 O   0  0  0  0  0  0  0  0  0  0  0  0
    2.3795   -2.2581    1.4609 O   0  0  0  0  0  0  0  0  0  0  0  0
   -2.4936    2.3843   -1.0622 O   0  0  0  0  0  0  0  0  0  0  0  0
   -3.7172   -1.3294   -1.2659 O   0  0  0  0  0  0  0  0  0  0  0  0
    1.8566   -0.0776   -0.1282 N   0  0  0  0  0  0  0  0  0  0  0  0
   -1.8711    0.0440    0.2363 N   0  0  0  0  0  0  0  0  0  0  0  0
    0.4689   -0.3713   -0.4965 C   0  0  0  0  0  0  0  0  0  0  0  0
   -0.4627    0.2994    0.5242 C   0  0  0  0  0  0  0  0  0  0  0  0
    0.2328    0.1079   -1.9287 C   0  0  0  0  0  0  0  0  0  0  0  0
    2.2532    1.2307   -0.6447 C   0  0  0  0  0  0  0  0  0  0  0  0
    2.7477   -1.1204   -0.6320 C   0  0  0  0  0  0  0  0  0  0  0  0
   -2.7198    1.0241    0.9149 C   0  0  0  0  0  0  0  0  0  0  0  0
   -2.2397   -1.3138    0.6386 C   0  0  0  0  0  0  0  0  0  0  0  0
    3.4106    1.7387    0.1698 C   0  0  0  0  0  0  0  0  0  0  0  0
    2.6384   -2.3217    0.2657 C   0  0  0  0  0  0  0  0  0  0  0  0
   -2.6704    2.3165    0.1476 C   0  0  0  0  0  0  0  0  0  0  0  0
   -3.4566   -1.7323   -0.1394 C   0  0  0  0  0  0  0  0  0  0  0  0
  1 18  1  0
  2 19  1  0
  3 20  1  0
  4 21  1  0
  5 18  2  0
  6 19  2  0
  7 20  2  0
  8 21  2  0
  9 11  1  0
  9 14  1  0
  9 15  1  0
 10 12  1  0
 10 16  1  0
 10 17  1  0
 11 12  1  0
 11 13  1  0
 14 18  1  0
 15 19  1  0
 16 20  1  0
 17 21  1  0
M  END
>  <PUBCHEM_COMPOUND_CID>  (1) 
20442

>  <PUBCHEM_CONFORMER_RMSD>  (1) 
1

>  <PUBCHEM_CONFORMER_DIVERSEORDER>  (1) 
1
15
13
5
11
9
14
2
8
16
4
12
7
10
6
3

>  <PUBCHEM_MMFF94_PARTIAL_CHARGES>  (1) 
24
1 -0.65
10 -0.81
11 0.27
12 0.27
14 0.33
15 0.33
16 0.33
17 0.33
18 0.66
19 0.66
2 -0.65
20 0.66
21 0.66
3 -0.65
36 0.5
37 0.5
38 0.5
39 0.5
4 -0.65
5 -0.57
6 -0.57
7 -0.57
8 -0.57
9 -0.81

>  <PUBCHEM_EFFECTIVE_ROTOR_COUNT>  (1) 
11

>  <PUBCHEM_PHARMACOPHORE_FEATURES>  (1) 
14
1 1 acceptor
1 10 cation
1 2 acceptor
1 3 acceptor
1 4 acceptor
1 5 acceptor
1 6 acceptor
1 7 acceptor
1 8 acceptor
1 9 cation
3 1 5 18 anion
3 2 6 19 anion
3 3 7 20 anion
3 4 8 21 anion

>  <PUBCHEM_HEAVY_ATOM_COUNT>  (1) 
21

>  <PUBCHEM_ATOM_DEF_STEREO_COUNT>  (1) 
0

>  <PUBCHEM_ATOM_UDEF_STEREO_COUNT>  (1) 
1

>  <PUBCHEM_BOND_DEF_STEREO_COUNT>  (1) 
0

>  <PUBCHEM_BOND_UDEF_STEREO_COUNT>  (1) 
0

>  <PUBCHEM_ISOTOPIC_ATOM_COUNT>  (1) 
0

>  <PUBCHEM_COMPONENT_COUNT>  (1) 
1

>  <PUBCHEM_CACTVS_TAUTO_COUNT>  (1) 
1

>  <PUBCHEM_CONFORMER_ID>  (1) 
00004FDA00000001

>  <PUBCHEM_MMFF94_ENERGY>  (1) 
42.48

>  <PUBCHEM_FEATURE_SELFOVERLAP>  (1) 
71.286

>  <PUBCHEM_SHAPE_FINGERPRINT>  (1) 
10090160 65 18120370123114320972
10366900 7 18266743673851261408
12346177 29 18196926669973638871
12507560 14 17545882624794722082
12633257 1 18050567348294402112
13140716 1 18339926991533353281
13583140 156 17988345027674996224
13911987 19 17902234751558081109
14178342 30 18335417976311197872
14223421 5 18411421721554304294
14289901 80 18410858771600902744
14466204 15 17184752390102146504
14787075 74 17833268996981151727
15375462 6 18412263977499428725
15442244 35 18266180521965616666
17349148 13 17822570641431558094
17492 89 18411420583663004939
20286276 3 18339654342709570154
21501502 16 18411982429592780365
21524375 3 18057047020015930492
23402539 116 18196652015541793583
23557571 272 18270414891906005101
23558518 356 18261399935755483875
23559900 14 18340761542518391906
53777708 50 18411986827565328187
58051976 100 18339648836888421135
603831 33 18271802488169657319
7097593 13 18120375363053946066
7164475 11 18411695470359616231
74978 22 18267024946795489416
7832392 63 18120656825029807858
81228 2 18187656820768293073
9709674 26 18409451362331678899

>  <PUBCHEM_SHAPE_MULTIPOLES>  (1) 
375.25
7.89
3.83
1.25
0.46
0.02
-0.22
0.09
0.66
-0.04
0.53
-0.04
-0.06
-0.38

>  <PUBCHEM_SHAPE_SELFOVERLAP>  (1) 
740.382

>  <PUBCHEM_SHAPE_VOLUME>  (1) 
223.2

>  <PUBCHEM_COORDINATE_TYPE>  (1) 
2
5
10

$$$$
