20444
     RDKit          3D

 13 14  0  0  0  0  0  0  0  0999 V2000
    1.1629    0.4039    0.1113 C   0  0  0  0  0  0  0  0  0  0  0  0
    2.3961    1.2714    0.3977 C   0  0  0  0  0  0  0  0  0  0  0  0
    1.4969   -1.0865    0.2597 C   0  0  0  0  0  0  0  0  0  0  0  0
    3.5840    0.8671   -0.4724 C   0  0  0  0  0  0  0  0  0  0  0  0
    2.6865   -1.4870   -0.6100 C   0  0  0  0  0  0  0  0  0  0  0  0
    3.9075   -0.6168   -0.3288 C   0  0  0  0  0  0  0  0  0  0  0  0
    0.0056    0.7915    1.0300 C   0  0  0  0  0  0  0  0  0  0  0  0
   -1.3197    0.3670    0.4603 C   0  0  0  0  0  0  0  0  0  0  0  0
   -2.0190    1.2350   -0.3680 C   0  0  0  0  0  0  0  0  0  0  0  0
   -1.8280   -0.8881    0.7691 C   0  0  0  0  0  0  0  0  0  0  0  0
   -3.2483    0.8413   -0.8966 C   0  0  0  0  0  0  0  0  0  0  0  0
   -3.0573   -1.2818    0.2403 C   0  0  0  0  0  0  0  0  0  0  0  0
   -3.7674   -0.4170   -0.5925 C   0  0  0  0  0  0  0  0  0  0  0  0
  1  2  1  0
  1  3  1  0
  1  7  1  0
  2  4  1  0
  3  5  1  0
  4  6  1  0
  5  6  1  0
  7  8  1  0
  8  9  2  0
  8 10  1  0
  9 11  1  0
 10 12  2  0
 11 13  2  0
 12 13  1  0
M  END
>  <PUBCHEM_COMPOUND_CID>  (1) 
20444

>  <PUBCHEM_CONFORMER_RMSD>  (1) 
0.6

>  <PUBCHEM_CONFORMER_DIVERSEORDER>  (1) 
1
5
7
3
8
6
4
9
2

>  <PUBCHEM_MMFF94_PARTIAL_CHARGES>  (1) 
12
10 -0.15
11 -0.15
12 -0.15
13 -0.15
27 0.15
28 0.15
29 0.15
30 0.15
31 0.15
7 0.14
8 -0.14
9 -0.15

>  <PUBCHEM_EFFECTIVE_ROTOR_COUNT>  (1) 
3.2

>  <PUBCHEM_PHARMACOPHORE_FEATURES>  (1) 
2
6 1 2 3 4 5 6 rings
6 8 9 10 11 12 13 rings

>  <PUBCHEM_HEAVY_ATOM_COUNT>  (1) 
13

>  <PUBCHEM_ATOM_DEF_STEREO_COUNT>  (1) 
0

>  <PUBCHEM_ATOM_UDEF_STEREO_COUNT>  (1) 
0

>  <PUBCHEM_BOND_DEF_STEREO_COUNT>  (1) 
0

>  <PUBCHEM_BOND_UDEF_STEREO_COUNT>  (1) 
0

>  <PUBCHEM_ISOTOPIC_ATOM_COUNT>  (1) 
0

>  <PUBCHEM_COMPONENT_COUNT>  (1) 
1

>  <PUBCHEM_CACTVS_TAUTO_COUNT>  (1) 
1

>  <PUBCHEM_CONFORMER_ID>  (1) 
00004FDC00000001

>  <PUBCHEM_MMFF94_ENERGY>  (1) 
21.9989

>  <PUBCHEM_FEATURE_SELFOVERLAP>  (1) 
10.149

>  <PUBCHEM_SHAPE_FINGERPRINT>  (1) 
10608611 8 18335416880757083108
10799339 124 9943808884807890686
12897270 3 18335421274481882953
12932764 1 17822573815407180273
13296908 3 18413389838756840331
13581323 91 12391513096208769913
13705890 14 18413108359975753248
15219456 202 18410291436491049297
15775835 57 12252192873967563066
17134986 127 17176286211103807301
18186145 218 18187646868780227585
200 152 17917709093317921830
20201158 50 18413108342300284754
20279233 1 18410011048315059930
20281475 54 18131351920988867131
20361792 2 16486967397415453329
20645476 183 16732699467674311307
20645477 56 18186518787489356853
20645477 70 18201438060349703854
20671657 53 18272656701583249728
20871999 31 18187075179306876415
221490 88 18338805618981307666
22169311 14 10519992560096776972
22485316 2 17704068516711220533
23402539 116 17603577530841850572
23402655 69 18411135805597344468
23557571 272 18040718103853720597
23559900 14 18337946788915396970
2748010 2 17473827706515891779
2871803 45 18335696200024344407
4028521 119 17676195845703007973
57812782 119 18409729569080285612
58051976 378 18339079397302686564
581208 293 18200871872359946312
93112 12 18335138674239610476
9709674 26 18409733966884697334

>  <PUBCHEM_SHAPE_MULTIPOLES>  (1) 
267.53
7.38
1.53
0.94
0.83
0.15
-0.03
0.76
2.02
0.25
0.03
-0.23
-0.06
0.54

>  <PUBCHEM_SHAPE_SELFOVERLAP>  (1) 
551.154

>  <PUBCHEM_SHAPE_VOLUME>  (1) 
147.8

>  <PUBCHEM_COORDINATE_TYPE>  (1) 
2
5
10

$$$$
