20458
     RDKit          3D

 29 32  0  0  0  0  0  0  0  0999 V2000
   11.0253    1.0766    0.5047 Cl  0  0  0  0  0  0  0  0  0  0  0  0
   -1.1486   -0.6090   -0.1797 O   0  0  0  0  0  0  0  0  0  0  0  0
   -2.0508    1.4028   -0.8696 O   0  0  0  0  0  0  0  0  0  0  0  0
    2.5133   -0.8430   -0.5281 N   0  0  0  0  0  0  0  0  0  0  0  0
    5.2723   -0.2928   -0.0332 N   0  0  0  0  0  0  0  0  0  0  0  0
   -7.3859   -1.6538    0.9212 N   0  0  0  0  0  0  0  0  0  0  0  0
    2.9060    0.3292    0.2640 C   0  0  0  0  0  0  0  0  0  0  0  0
    3.4606   -1.9407   -0.2986 C   0  0  0  0  0  0  0  0  0  0  0  0
    4.3065    0.8095   -0.1235 C   0  0  0  0  0  0  0  0  0  0  0  0
    4.8802   -1.5363   -0.7038 C   0  0  0  0  0  0  0  0  0  0  0  0
    1.1533   -1.2594   -0.1881 C   0  0  0  0  0  0  0  0  0  0  0  0
    6.6280    0.0296    0.0938 C   0  0  0  0  0  0  0  0  0  0  0  0
    0.1580   -0.1558   -0.5089 C   0  0  0  0  0  0  0  0  0  0  0  0
    7.5671   -0.3908   -0.8692 C   0  0  0  0  0  0  0  0  0  0  0  0
    7.0949    0.7844    1.1883 C   0  0  0  0  0  0  0  0  0  0  0  0
    8.9185   -0.0694   -0.7426 C   0  0  0  0  0  0  0  0  0  0  0  0
    8.4464    1.1059    1.3146 C   0  0  0  0  0  0  0  0  0  0  0  0
    9.3582    0.6790    0.3493 C   0  0  0  0  0  0  0  0  0  0  0  0
   -2.1611    0.2762   -0.4124 C   0  0  0  0  0  0  0  0  0  0  0  0
   -7.1259    0.3729    0.0256 C   0  0  0  0  0  0  0  0  0  0  0  0
   -5.8676   -0.2433    0.1839 C   0  0  0  0  0  0  0  0  0  0  0  0
   -8.0728   -0.5380    0.4988 C   0  0  0  0  0  0  0  0  0  0  0  0
   -3.4332   -0.3687   -0.0110 C   0  0  0  0  0  0  0  0  0  0  0  0
   -4.5861    0.3002   -0.1592 C   0  0  0  0  0  0  0  0  0  0  0  0
   -6.0411   -1.4802    0.7319 C   0  0  0  0  0  0  0  0  0  0  0  0
   -7.5688    1.6146   -0.4720 C   0  0  0  0  0  0  0  0  0  0  0  0
   -9.4460   -0.2680    0.4996 C   0  0  0  0  0  0  0  0  0  0  0  0
   -8.9392    1.8983   -0.4773 C   0  0  0  0  0  0  0  0  0  0  0  0
   -9.8617    0.9700    0.0014 C   0  0  0  0  0  0  0  0  0  0  0  0
  1 18  1  0
  2 13  1  0
  2 19  1  0
  3 19  2  0
  4  7  1  0
  4  8  1  0
  4 11  1  0
  5  9  1  0
  5 10  1  0
  5 12  1  0
  6 22  1  0
  6 25  1  0
  7  9  1  0
  8 10  1  0
 11 13  1  0
 12 14  2  0
 12 15  1  0
 14 16  1  0
 15 17  2  0
 16 18  2  0
 17 18  1  0
 19 23  1  0
 20 21  1  0
 20 22  2  0
 20 26  1  0
 21 24  1  0
 21 25  2  0
 22 27  1  0
 23 24  2  0
 26 28  2  0
 27 29  2  0
 28 29  1  0
M  END
>  <PUBCHEM_COMPOUND_CID>  (1) 
20458

>  <PUBCHEM_CONFORMER_RMSD>  (1) 
1

>  <PUBCHEM_CONFORMER_DIVERSEORDER>  (1) 
1
34
51
107
143
44
9
74
151
40
70
76
93
119
144
33
75
45
136
100
112
38
39
30
61
46
29
42
17
110
48
52
132
64
71
86
6
82
91
106
140
77
53
11
37
126
20
5
31
141
115
83
94
130
135
150
73
24
139
81
66
58
7
95
10
55
89
88
57
13
84
114
3
147
63
137
118
18
35
2
19
125
62
121
123
105
32
142
85
59
138
54
21
101
65
90
122
80
96
22
56
41
103
28
127
146
26
25
79
69
102
78
124
14
60
109
87
120
8
104
47
27
134
16
43
92
117
99
148
49
116
15
12
145
97
4
67
108
128
149
131
72
23
50
129
98
133
68
36
113
111

>  <PUBCHEM_MMFF94_PARTIAL_CHARGES>  (1) 
40
1 -0.18
10 0.37
11 0.27
12 0.1
13 0.28
14 -0.15
15 -0.15
16 -0.15
17 -0.15
18 0.18
19 0.71
2 -0.43
21 -0.05
22 -0.15
23 -0.14
24 -0.1
25 -0.3
26 -0.15
27 -0.15
28 -0.15
29 -0.15
3 -0.57
4 -0.81
42 0.15
43 0.15
44 0.15
45 0.15
46 0.15
47 0.15
48 0.15
49 0.27
5 -0.84
50 0.15
51 0.15
52 0.15
53 0.15
6 0.03
7 0.27
8 0.27
9 0.37

>  <PUBCHEM_EFFECTIVE_ROTOR_COUNT>  (1) 
8.2

>  <PUBCHEM_PHARMACOPHORE_FEATURES>  (1) 
9
1 3 acceptor
1 4 cation
1 5 cation
1 6 cation
1 6 donor
5 6 20 21 22 25 rings
6 12 14 15 16 17 18 rings
6 20 22 26 27 28 29 rings
6 4 5 7 8 9 10 rings

>  <PUBCHEM_HEAVY_ATOM_COUNT>  (1) 
29

>  <PUBCHEM_ATOM_DEF_STEREO_COUNT>  (1) 
0

>  <PUBCHEM_ATOM_UDEF_STEREO_COUNT>  (1) 
0

>  <PUBCHEM_BOND_DEF_STEREO_COUNT>  (1) 
0

>  <PUBCHEM_BOND_UDEF_STEREO_COUNT>  (1) 
1

>  <PUBCHEM_ISOTOPIC_ATOM_COUNT>  (1) 
0

>  <PUBCHEM_COMPONENT_COUNT>  (1) 
1

>  <PUBCHEM_CACTVS_TAUTO_COUNT>  (1) 
2

>  <PUBCHEM_CONFORMER_ID>  (1) 
00004FEA00000001

>  <PUBCHEM_MMFF94_ENERGY>  (1) 
75.137

>  <PUBCHEM_FEATURE_SELFOVERLAP>  (1) 
45.767

>  <PUBCHEM_SHAPE_FINGERPRINT>  (1) 
10 15 18410290311521159346
106641 1 17822008727235148678
10674148 151 17967249819012083881
11135609 127 13470110940217017842
11135926 11 14707204423205284307
11315181 36 17988927752744330443
11408170 108 14129328560840281704
11409948 35 18059298653107139726
11638347 137 14923941241661642912
12013929 94 17917710249814832959
12089408 11 16443067213664278878
12522641 33 16200436866820234062
12664476 115 18410851062082287325
14118638 360 17274548624347507186
14150022 121 18041556945554059941
14251764 46 18409729564516286473
14344974 52 15626213659007089162
14617042 71 18059291076188769560
15061470 23 18186800284030639780
15219723 13 17458616785199114450
15247644 1 13623531255610749793
15347591 1 18122906430225480638
15510794 2 18411704266036335839
155225 1 18131068256338477896
15530121 191 18273207595459081240
15840311 113 17749395897596154452
17093844 174 18260269634540890707
1754911 235 17275101734409468900
1818759 1 12829206655013530264
19315958 150 18202569462099590614
19841028 212 18187644644520730938
20501277 279 17989200470135421656
21362267 2 17703210902417676016
21362267 20 13623537882882847305
21362267 313 18115301164568514320
232437 2 9943808885214254316
3092352 35 12684815516744822321
335352 9 11743836971848495262
335507 130 18335424599588663983
44389302 135 15213292029190389584
4625314 4 18412828018533045614
4874694 18 18334575738068539395
5219985 9 16370444462207349053
59521099 67 10879984779952628498
59682541 35 18335422387015660202
6126387 218 18408887317984191921
6201320 215 14852150790711622767
67123 10 18060419118766645519
9663363 56 17822008714830255933
9953998 17 18407759253324154903

>  <PUBCHEM_SHAPE_MULTIPOLES>  (1) 
571.99
43.99
1.57
0.92
3.89
0.13
-0.1
-14.31
-6.25
-1.03
0.03
0.7
-0.05
2.69

>  <PUBCHEM_SHAPE_SELFOVERLAP>  (1) 
1222.929

>  <PUBCHEM_SHAPE_VOLUME>  (1) 
318.4

>  <PUBCHEM_COORDINATE_TYPE>  (1) 
2
5
10

$$$$
