20457
     RDKit          3D

 25 27  0  0  0  0  0  0  0  0999 V2000
    9.6337   -0.8427   -0.3632 Cl  0  0  0  0  0  0  0  0  0  0  0  0
   -2.6078    0.3412    0.1421 O   0  0  0  0  0  0  0  0  0  0  0  0
   -3.4021   -1.5290    1.2416 O   0  0  0  0  0  0  0  0  0  0  0  0
   -7.4894    0.7592   -0.8492 O   0  0  0  0  0  0  0  0  0  0  0  0
    1.0386    0.8230    0.3813 N   0  0  0  0  0  0  0  0  0  0  0  0
    3.8200    0.3207   -0.0315 N   0  0  0  0  0  0  0  0  0  0  0  0
    1.9270    1.8960   -0.0814 C   0  0  0  0  0  0  0  0  0  0  0  0
    1.4878   -0.4656   -0.1603 C   0  0  0  0  0  0  0  0  0  0  0  0
    3.3673    1.6540    0.3768 C   0  0  0  0  0  0  0  0  0  0  0  0
    2.9128   -0.7863    0.2964 C   0  0  0  0  0  0  0  0  0  0  0  0
   -0.3426    1.0929   -0.0164 C   0  0  0  0  0  0  0  0  0  0  0  0
    5.1901    0.0468   -0.1100 C   0  0  0  0  0  0  0  0  0  0  0  0
   -1.2782    0.0304    0.5377 C   0  0  0  0  0  0  0  0  0  0  0  0
    5.6906   -0.8920   -1.0340 C   0  0  0  0  0  0  0  0  0  0  0  0
    6.1103    0.7014    0.7329 C   0  0  0  0  0  0  0  0  0  0  0  0
    7.0563   -1.1650   -1.1120 C   0  0  0  0  0  0  0  0  0  0  0  0
    7.4760    0.4284    0.6548 C   0  0  0  0  0  0  0  0  0  0  0  0
    7.9490   -0.5049   -0.2676 C   0  0  0  0  0  0  0  0  0  0  0  0
   -3.5723   -0.5268    0.5657 C   0  0  0  0  0  0  0  0  0  0  0  0
   -4.8777   -0.0417    0.0598 C   0  0  0  0  0  0  0  0  0  0  0  0
   -5.9940   -0.7224    0.3586 C   0  0  0  0  0  0  0  0  0  0  0  0
   -7.3032   -0.3249   -0.0693 C   0  0  0  0  0  0  0  0  0  0  0  0
   -8.4800   -0.9463    0.2285 C   0  0  0  0  0  0  0  0  0  0  0  0
   -9.4828   -0.1864   -0.4196 C   0  0  0  0  0  0  0  0  0  0  0  0
   -8.8293    0.8398   -1.0615 C   0  0  0  0  0  0  0  0  0  0  0  0
  1 18  1  0
  2 13  1  0
  2 19  1  0
  3 19  2  0
  4 22  1  0
  4 25  1  0
  5  7  1  0
  5  8  1  0
  5 11  1  0
  6  9  1  0
  6 10  1  0
  6 12  1  0
  7  9  1  0
  8 10  1  0
 11 13  1  0
 12 14  2  0
 12 15  1  0
 14 16  1  0
 15 17  2  0
 16 18  2  0
 17 18  1  0
 19 20  1  0
 20 21  2  0
 21 22  1  0
 22 23  2  0
 23 24  1  0
 24 25  2  0
M  END
>  <PUBCHEM_COMPOUND_CID>  (1) 
20457

>  <PUBCHEM_CONFORMER_RMSD>  (1) 
0.8

>  <PUBCHEM_CONFORMER_DIVERSEORDER>  (1) 
1
41
67
195
40
89
126
61
32
159
243
168
157
313
240
118
2
279
276
146
59
236
152
130
225
262
74
37
284
338
81
300
172
235
263
198
174
241
265
207
128
109
335
317
103
221
66
86
267
77
191
145
186
252
277
222
234
180
339
96
68
76
141
292
82
325
6
196
293
36
320
259
260
250
226
280
46
87
42
163
319
184
111
93
14
316
290
158
282
247
269
187
72
30
242
254
309
298
178
28
249
80
58
238
185
38
193
190
299
53
161
192
231
314
189
55
336
216
281
104
233
21
315
15
25
144
304
12
95
91
26
318
11
147
153
129
149
333
88
177
306
340
127
29
257
275
321
56
167
33
175
285
63
312
18
342
251
248
341
210
169
138
179
170
102
120
22
7
156
47
132
171
23
69
327
154
272
85
266
90
324
137
199
200
44
328
283
50
173
83
48
125
256
92
323
322
253
139
246
101
220
289
45
326
10
258
162
117
305
164
116
228
274
237
218
119
3
114
75
197
134
31
5
271
206
97
131
71
34
295
330
124
310
183
268
208
308
122
182
230
165
176
70
217
155
121
79
17
229
73
78
143
49
107
24
64
19
115
8
160
98
136
205
16
4
142
273
151
294
106
148
181
62
255
105
232
65
288
287
100
239
13
112
54
224
203
57
27
296
133
302
227
331
202
329
9
245
286
94
194
135
212
39
20
140
113
213
211
209
188
43
201
270
214
123
110
166
301
223
332
204
291
35
278
52
311
215
244
84
51
99
297
261
307
108
60
337
303
150
264
219
334

>  <PUBCHEM_MMFF94_PARTIAL_CHARGES>  (1) 
34
1 -0.18
10 0.37
11 0.27
12 0.1
13 0.28
14 -0.15
15 -0.15
16 -0.15
17 -0.15
18 0.18
19 0.71
2 -0.43
20 -0.14
21 -0.11
22 0.09
23 -0.15
24 -0.15
25 -0.01
3 -0.57
38 0.15
39 0.15
4 -0.28
40 0.15
41 0.15
42 0.15
43 0.15
44 0.15
45 0.15
46 0.15
5 -0.81
6 -0.84
7 0.27
8 0.27
9 0.37

>  <PUBCHEM_EFFECTIVE_ROTOR_COUNT>  (1) 
8.2

>  <PUBCHEM_PHARMACOPHORE_FEATURES>  (1) 
7
1 3 acceptor
1 4 acceptor
1 5 cation
1 6 cation
5 4 22 23 24 25 rings
6 12 14 15 16 17 18 rings
6 5 6 7 8 9 10 rings

>  <PUBCHEM_HEAVY_ATOM_COUNT>  (1) 
25

>  <PUBCHEM_ATOM_DEF_STEREO_COUNT>  (1) 
0

>  <PUBCHEM_ATOM_UDEF_STEREO_COUNT>  (1) 
0

>  <PUBCHEM_BOND_DEF_STEREO_COUNT>  (1) 
0

>  <PUBCHEM_BOND_UDEF_STEREO_COUNT>  (1) 
1

>  <PUBCHEM_ISOTOPIC_ATOM_COUNT>  (1) 
0

>  <PUBCHEM_COMPONENT_COUNT>  (1) 
1

>  <PUBCHEM_CACTVS_TAUTO_COUNT>  (1) 
1

>  <PUBCHEM_CONFORMER_ID>  (1) 
00004FE900000001

>  <PUBCHEM_MMFF94_ENERGY>  (1) 
61.0054

>  <PUBCHEM_FEATURE_SELFOVERLAP>  (1) 
35.524

>  <PUBCHEM_SHAPE_FINGERPRINT>  (1) 
10 15 10519988153692634821
10162869 55 11311766264390983609
10299344 5 16056880230050043639
106641 1 13038903330771992602
10666366 153 18408884027237520156
10674148 151 17603583049400358360
10883706 142 9583520902445719892
11135609 127 16516258452484559340
11408170 108 17417541224184589830
11638347 137 13758082874752909916
12089408 11 15140958465674450721
12838862 33 18339348725742742435
13885169 127 18342459214690238505
13974486 27 17822294647762878349
14040221 8 17676776392216926548
14117953 113 18334860519272646031
14216079 64 18342177748318987822
14251764 18 15698001837967130407
14251764 46 18410573985156745391
14294032 229 16951680295280539141
14428016 248 14129062499704701983
14617042 71 11170208565920713718
15065858 18 18412821399872170562
15183329 4 18334575729472713297
15247644 1 16845576405213544510
15419008 47 18334568045428977085
15510794 2 18408887373011652122
155225 1 11241974785345518254
15690457 1 17131832062185399374
15849732 13 18273777159444690997
16120349 18 17632572786670271856
18006028 8 17918275355124054713
18335252 98 10592049067977659229
20238998 120 18259703402247116485
21095086 128 15554452877632684878
21267235 1 18412266137952744824
21792934 111 18412819210494410992
22224240 67 12607404394703382061
232437 2 18410856568710090411
249057 3 18335984250611315815
28498 318 18410856559639796077
3092352 35 15068341224681829201
335352 9 18408324401672889502
33684 2 18411699880795104963
3633792 109 18201441355169628195
4073 2 17532093959409951859
4325135 7 16588025706074088830
5283156 175 17418376895796785217
5758199 1 9079118856107411477
58083652 198 18202008754714904864
59520757 100 17604438513051251442
59521270 166 17749387036034123927
59682541 35 10807931574657937439
6081469 158 18187364311782923494
67123 10 12391511992370571818
8209 1 18333731325436967329
9663363 56 18408882941765763448
9953998 17 9439399139017624325

>  <PUBCHEM_SHAPE_MULTIPOLES>  (1) 
488.79
35.31
1.34
0.92
29.89
0.3
0.05
-7.79
6.87
-0.96
0.01
0.16
-0.1
1.81

>  <PUBCHEM_SHAPE_SELFOVERLAP>  (1) 
1021.201

>  <PUBCHEM_SHAPE_VOLUME>  (1) 
277.4

>  <PUBCHEM_COORDINATE_TYPE>  (1) 
2
5
10

$$$$
