20456
     RDKit          3D

 30 33  0  0  0  0  0  0  0  0999 V2000
   11.0436   -1.2794    0.3258 Cl  0  0  0  0  0  0  0  0  0  0  0  0
   -1.0712    0.8609   -0.0792 O   0  0  0  0  0  0  0  0  0  0  0  0
   -1.8424    0.6740    2.0905 O   0  0  0  0  0  0  0  0  0  0  0  0
    2.5974    1.0349   -0.3896 N   0  0  0  0  0  0  0  0  0  0  0  0
    5.3185    0.1713   -0.2916 N   0  0  0  0  0  0  0  0  0  0  0  0
    2.9569   -0.2089    0.3027 C   0  0  0  0  0  0  0  0  0  0  0  0
    3.4840    1.2393   -1.5416 C   0  0  0  0  0  0  0  0  0  0  0  0
    4.4012   -0.1591    0.8064 C   0  0  0  0  0  0  0  0  0  0  0  0
    4.9464    1.3364   -1.1001 C   0  0  0  0  0  0  0  0  0  0  0  0
    1.1997    0.9977   -0.8181 C   0  0  0  0  0  0  0  0  0  0  0  0
    6.6675   -0.1710   -0.1469 C   0  0  0  0  0  0  0  0  0  0  0  0
    0.2735    0.8761    0.3815 C   0  0  0  0  0  0  0  0  0  0  0  0
    7.6736    0.8155   -0.1779 C   0  0  0  0  0  0  0  0  0  0  0  0
    7.0609   -1.5118    0.0348 C   0  0  0  0  0  0  0  0  0  0  0  0
    9.0184    0.4749   -0.0327 C   0  0  0  0  0  0  0  0  0  0  0  0
    8.4057   -1.8524    0.1801 C   0  0  0  0  0  0  0  0  0  0  0  0
    9.3846   -0.8592    0.1461 C   0  0  0  0  0  0  0  0  0  0  0  0
   -2.0294    0.7552    0.8869 C   0  0  0  0  0  0  0  0  0  0  0  0
   -6.5088   -0.5067    0.0827 C   0  0  0  0  0  0  0  0  0  0  0  0
   -5.8348    0.6708    0.4196 C   0  0  0  0  0  0  0  0  0  0  0  0
   -3.3517    0.7543    0.2209 C   0  0  0  0  0  0  0  0  0  0  0  0
   -7.8232   -0.4172   -0.4339 C   0  0  0  0  0  0  0  0  0  0  0  0
   -4.4651    0.6707    0.9629 C   0  0  0  0  0  0  0  0  0  0  0  0
   -6.4256    1.9184    0.2581 C   0  0  0  0  0  0  0  0  0  0  0  0
   -5.9183   -1.7709    0.2429 C   0  0  0  0  0  0  0  0  0  0  0  0
   -8.4139    0.8469   -0.5939 C   0  0  0  0  0  0  0  0  0  0  0  0
   -8.5087   -1.5946   -0.7752 C   0  0  0  0  0  0  0  0  0  0  0  0
   -7.7184    2.0064   -0.2497 C   0  0  0  0  0  0  0  0  0  0  0  0
   -6.6139   -2.9301   -0.1016 C   0  0  0  0  0  0  0  0  0  0  0  0
   -7.9066   -2.8422   -0.6097 C   0  0  0  0  0  0  0  0  0  0  0  0
  1 17  1  0
  2 12  1  0
  2 18  1  0
  3 18  2  0
  4  6  1  0
  4  7  1  0
  4 10  1  0
  5  8  1  0
  5  9  1  0
  5 11  1  0
  6  8  1  0
  7  9  1  0
 10 12  1  0
 11 13  2  0
 11 14  1  0
 13 15  1  0
 14 16  2  0
 15 17  2  0
 16 17  1  0
 18 21  1  0
 19 20  1  0
 19 22  2  0
 19 25  1  0
 20 23  1  0
 20 24  2  0
 21 23  2  0
 22 26  1  0
 22 27  1  0
 24 28  1  0
 25 29  2  0
 26 28  2  0
 27 30  2  0
 29 30  1  0
M  END
>  <PUBCHEM_COMPOUND_CID>  (1) 
20456

>  <PUBCHEM_CONFORMER_RMSD>  (1) 
1

>  <PUBCHEM_CONFORMER_DIVERSEORDER>  (1) 
1
132
3
36
162
91
39
151
166
76
83
111
100
22
106
11
122
7
51
23
90
154
38
175
124
8
79
29
48
167
12
77
127
156
28
2
13
146
165
116
30
168
73
43
123
135
63
133
103
93
84
67
182
25
142
149
94
134
178
174
80
96
187
62
42
125
147
102
163
34
75
173
105
130
20
60
61
35
58
86
37
95
110
112
24
59
118
140
107
170
88
183
158
69
82
53
160
64
5
145
68
15
54
46
184
6
138
115
99
56
81
155
131
65
172
55
4
117
104
19
44
157
87
98
120
114
31
150
49
186
129
113
185
169
148
85
10
180
21
128
141
136
32
47
144
41
108
126
78
121
57
33
16
45
70
72
119
143
26
181
27
97
164
171
74
153
179
40
109
152
139
101
176
66
14
137
92
161
17
52
177
18
50
71
159
9
89

>  <PUBCHEM_MMFF94_PARTIAL_CHARGES>  (1) 
41
1 -0.18
10 0.27
11 0.1
12 0.28
13 -0.15
14 -0.15
15 -0.15
16 -0.15
17 0.18
18 0.71
2 -0.43
20 0.03
21 -0.14
23 -0.18
24 -0.15
25 -0.15
26 -0.15
27 -0.15
28 -0.15
29 -0.15
3 -0.57
30 -0.15
4 -0.81
43 0.15
44 0.15
45 0.15
46 0.15
47 0.15
48 0.15
49 0.15
5 -0.84
50 0.15
51 0.15
52 0.15
53 0.15
54 0.15
55 0.15
6 0.27
7 0.27
8 0.37
9 0.37

>  <PUBCHEM_EFFECTIVE_ROTOR_COUNT>  (1) 
8.2

>  <PUBCHEM_PHARMACOPHORE_FEATURES>  (1) 
7
1 3 acceptor
1 4 cation
1 5 cation
6 11 13 14 15 16 17 rings
6 19 20 22 24 26 28 rings
6 19 22 25 27 29 30 rings
6 4 5 6 7 8 9 rings

>  <PUBCHEM_HEAVY_ATOM_COUNT>  (1) 
30

>  <PUBCHEM_ATOM_DEF_STEREO_COUNT>  (1) 
0

>  <PUBCHEM_ATOM_UDEF_STEREO_COUNT>  (1) 
0

>  <PUBCHEM_BOND_DEF_STEREO_COUNT>  (1) 
0

>  <PUBCHEM_BOND_UDEF_STEREO_COUNT>  (1) 
1

>  <PUBCHEM_ISOTOPIC_ATOM_COUNT>  (1) 
0

>  <PUBCHEM_COMPONENT_COUNT>  (1) 
1

>  <PUBCHEM_CACTVS_TAUTO_COUNT>  (1) 
1

>  <PUBCHEM_CONFORMER_ID>  (1) 
00004FE800000001

>  <PUBCHEM_MMFF94_ENERGY>  (1) 
95.0273

>  <PUBCHEM_FEATURE_SELFOVERLAP>  (1) 
35.551

>  <PUBCHEM_SHAPE_FINGERPRINT>  (1) 
10162869 55 18409449207428688348
10299344 5 18334295370332768573
10369192 42 7925913664990107121
11181472 205 11530746090836527852
11211813 163 18260267456623576931
11386260 185 16733269057652486780
11828042 53 18051408471482874117
12082328 90 18412542102940024245
12089408 11 18409452488214217716
12539765 74 8358260358826209152
12559415 86 11602811351749866202
12592606 108 18408885144245164212
12838862 33 16371001941095238224
13885169 127 18408886213829560725
13974486 7 17699839916380131719
14118638 360 15430306993580731148
14202775 3 17988649550412270470
14251764 46 18412826867434298408
15065858 18 18412539908364619120
15152005 1 17554038128980644135
15183329 4 17530960311392454827
15198563 99 16009022844322051324
15247644 1 17846780689955570070
15392192 104 17775851208264703230
15461852 350 18411703187893718009
15510794 2 18131349713064193730
15690457 1 18411136935912039430
15840311 113 18409450315646782876
16120349 18 18260269681733485156
1754911 235 17894628149533164890
17686467 74 17775563152370038512
21095123 293 8718827591725620818
212700 22 18272368663749578358
21360442 43 18260831544981189363
21362267 20 18343580754937225118
232437 2 18410856555951509722
24204213 200 14189302504355591436
249057 25 18338535083049637612
249057 3 15791739615625545708
335352 9 17748832913034742718
3663271 9 11095891454170540309
3711267 37 8286197288309482526
395649 100 18260831522994370579
4339292 15 17774995830993828295
437795 160 18343012316035347392
44389302 135 18339356350565772794
4625314 4 18409167722796764140
57676310 188 18114177502319515123
58902169 19 17968099763486666965
59521660 218 16199857479547027121
59682541 35 16056879135176118512
6081469 158 14851603263922242078
6126387 218 18335984194365674257
6691757 9 15554441916718072429
67123 10 18413107260706907048
9663363 56 15985102999668651561
99344 41 18410013213037184063
9953998 17 12607405499353774845

>  <PUBCHEM_SHAPE_MULTIPOLES>  (1) 
597.55
41.26
2.3
1.03
38.49
1.45
-0.09
17.38
3.15
-4.71
0.32
-0.21
-0.24
-1.91

>  <PUBCHEM_SHAPE_SELFOVERLAP>  (1) 
1276.596

>  <PUBCHEM_SHAPE_VOLUME>  (1) 
331.3

>  <PUBCHEM_COORDINATE_TYPE>  (1) 
2
5
10

$$$$
