20451
     RDKit          3D

 10  9  0  0  0  0  0  0  0  0999 V2000
   -0.5754    0.3027    0.0009 O   0  0  0  0  0  0  0  0  0  0  0  0
    3.0105   -0.2811    0.0158 O   0  0  0  0  0  0  0  0  0  0  0  0
   -2.9695    0.3456   -0.0142 C   0  0  0  0  0  0  0  0  0  0  0  0
   -1.7256   -0.5316   -0.0131 C   0  0  0  0  0  0  0  0  0  0  0  0
   -4.2473   -0.4886   -0.0129 C   0  0  0  0  0  0  0  0  0  0  0  0
    0.6233   -0.4607    0.0026 C   0  0  0  0  0  0  0  0  0  0  0  0
    1.8108    0.4827   -0.0066 C   0  0  0  0  0  0  0  0  0  0  0  0
   -5.4867    0.3907    0.0296 C   0  0  0  0  0  0  0  0  0  0  0  0
    4.1597    0.5538   -0.0139 C   0  0  0  0  0  0  0  0  0  0  0  0
    5.4001   -0.3135    0.0118 C   0  0  0  0  0  0  0  0  0  0  0  0
  1  4  1  0
  1  6  1  0
  2  7  1  0
  2  9  1  0
  3  4  1  0
  3  5  1  0
  5  8  1  0
  6  7  1  0
  9 10  1  0
M  END
>  <PUBCHEM_COMPOUND_CID>  (1) 
20451

>  <PUBCHEM_CONFORMER_RMSD>  (1) 
0.6

>  <PUBCHEM_CONFORMER_DIVERSEORDER>  (1) 
2
225
125
164
241
87
315
193
228
215
211
169
11
26
252
226
92
289
175
232
7
307
181
308
254
220
195
82
317
151
168
219
316
229
214
286
305
50
84
205
91
75
5
44
145
106
294
186
12
250
45
207
272
61
15
273
146
101
76
199
235
55
247
176
80
90
89
218
284
240
121
206
208
236
48
155
227
23
21
244
154
266
62
63
49
25
285
239
107
290
22
313
238
38
279
100
110
223
190
184
295
311
109
300
93
237
301
183
34
18
170
39
304
153
72
221
276
259
314
234
204
37
54
160
133
210
132
258
261
86
58
83
40
312
309
108
166
69
302
59
70
270
66
269
231
85
291
245
115
282
293
124
303
19
167
224
173
196
188
96
17
147
77
283
94
113
78
253
280
14
142
230
306
191
182
255
79
180
212
138
68
274
192
65
299
95
263
1
112
222
136
172
281
9
278
81
51
265
256
201
104
202
292
130
194
213
179
297
287
99
198
174
233
116
271
189
13
277
246
137
298
243
159
288
57
8
209
122
152
267
216
275
119
296
144
53
97
111
134
47
163
73
257
114
16
171
52
242
268
143
36
6
310
3
117
128
103
71
20
43
185
165
197
88
129
217
200
157
56
31
262
156
105
24
139
203
177
33
60
102
264
118
251
249
162
150
67
41
64
35
158
148
98
74
149
46
248
127
260
187
10
32
178
27
42
28
30
123
29
161
131
140
4
120
135
141
126

>  <PUBCHEM_MMFF94_PARTIAL_CHARGES>  (1) 
6
1 -0.56
2 -0.56
4 0.28
6 0.28
7 0.28
9 0.28

>  <PUBCHEM_EFFECTIVE_ROTOR_COUNT>  (1) 
7

>  <PUBCHEM_PHARMACOPHORE_FEATURES>  (1) 
3
1 1 acceptor
1 2 acceptor
1 8 hydrophobe

>  <PUBCHEM_HEAVY_ATOM_COUNT>  (1) 
10

>  <PUBCHEM_ATOM_DEF_STEREO_COUNT>  (1) 
0

>  <PUBCHEM_ATOM_UDEF_STEREO_COUNT>  (1) 
0

>  <PUBCHEM_BOND_DEF_STEREO_COUNT>  (1) 
0

>  <PUBCHEM_BOND_UDEF_STEREO_COUNT>  (1) 
0

>  <PUBCHEM_ISOTOPIC_ATOM_COUNT>  (1) 
0

>  <PUBCHEM_COMPONENT_COUNT>  (1) 
1

>  <PUBCHEM_CACTVS_TAUTO_COUNT>  (1) 
1

>  <PUBCHEM_CONFORMER_ID>  (1) 
00004FE300000002

>  <PUBCHEM_MMFF94_ENERGY>  (1) 
7.4452

>  <PUBCHEM_FEATURE_SELFOVERLAP>  (1) 
15.223

>  <PUBCHEM_SHAPE_FINGERPRINT>  (1) 
11062470 55 18411982468162960047
114248 4 10447929472800861167
12815109 37 11383833766153240595
14123238 8 18410856568229724205
14251718 22 10159693595044047533
17834072 33 18341612671723615964
17834076 25 18410293613991898055
18342897 14 18410573989683990225
187816 3 15913330199868002523
20645477 70 18130511817044119030
20719005 15 18410292514712352868
20767249 13 12319738063663404796
23402539 116 17988637502300263885
366044 4 18410855473061056219
42788 4 18410856568461884709

>  <PUBCHEM_SHAPE_MULTIPOLES>  (1) 
194.06
12.98
0.78
0.6
0.75
0
0
-0.49
-0.08
-0.03
0
-0.02
0
-0.02

>  <PUBCHEM_SHAPE_SELFOVERLAP>  (1) 
340.329

>  <PUBCHEM_SHAPE_VOLUME>  (1) 
128.7

>  <PUBCHEM_COORDINATE_TYPE>  (1) 
2
5
10

$$$$
