20469
     RDKit          3D

 28 31  0  0  1  0  0  0  0  0999 V2000
    1.5587   -0.1181   -1.8945 Cl  0  0  0  0  0  0  0  0  0  0  0  0
   -3.0310   -0.1462   -1.9702 O   0  0  0  0  0  0  0  0  0  0  0  0
    0.4141   -2.1529    1.3805 O   0  0  0  0  0  0  0  0  0  0  0  0
   -4.2091   -1.6007    0.6504 O   0  0  0  0  0  0  0  0  0  0  0  0
   -6.6851   -0.6521   -0.1046 O   0  0  0  0  0  0  0  0  0  0  0  0
    6.4614    0.0717   -1.2897 O   0  0  0  0  0  0  0  0  0  0  0  0
   -1.7531   -0.3022    0.1410 C   0  0  0  0  0  0  0  0  0  0  0  0
   -0.9006    0.9571   -0.1408 C   0  0  0  0  0  0  0  0  0  0  0  0
    0.5031    0.8899    0.4850 C   0  0  0  0  0  0  0  0  0  0  0  0
    1.3044   -0.3567   -0.0662 C   0  0  0  0  0  0  0  0  0  0  0  0
   -3.0834    0.1130   -0.5616 C   0  0  0  0  0  0  0  0  0  0  0  0
   -1.8356    2.0961    0.2556 C   0  0  0  0  0  0  0  0  0  0  0  0
   -1.0135   -1.5176   -0.4636 C   0  0  0  0  0  0  0  0  0  0  0  0
   -3.2041    1.6536   -0.3253 C   0  0  0  0  0  0  0  0  0  0  0  0
    0.4449   -1.6658    0.0443 C   0  0  0  0  0  0  0  0  0  0  0  0
    2.7554   -0.4217    0.5993 C   0  0  0  0  0  0  0  0  0  0  0  0
    1.2734    2.2116    0.2988 C   0  0  0  0  0  0  0  0  0  0  0  0
   -2.0189   -0.5391    1.6549 C   0  0  0  0  0  0  0  0  0  0  0  0
    2.6802    2.1470    0.8890 C   0  0  0  0  0  0  0  0  0  0  0  0
    3.4380    0.9400    0.3932 C   0  0  0  0  0  0  0  0  0  0  0  0
   -4.2803   -0.7107   -0.1959 C   0  0  0  0  0  0  0  0  0  0  0  0
   -4.3459    2.1276    0.5695 C   0  0  0  0  0  0  0  0  0  0  0  0
    2.7466   -0.6906    2.1262 C   0  0  0  0  0  0  0  0  0  0  0  0
    3.5830   -1.5559    0.0064 C   0  0  0  0  0  0  0  0  0  0  0  0
    4.6253    1.0883   -0.2157 C   0  0  0  0  0  0  0  0  0  0  0  0
   -5.5668   -0.3841   -0.9238 C   0  0  0  0  0  0  0  0  0  0  0  0
    4.7660   -1.4091   -0.5984 C   0  0  0  0  0  0  0  0  0  0  0  0
    5.3727   -0.0724   -0.7437 C   0  0  0  0  0  0  0  0  0  0  0  0
  1 10  1  0
  2 11  1  0
  3 15  1  0
  4 21  2  0
  5 26  1  0
  6 28  2  0
  7  8  1  0
  7 11  1  0
  7 13  1  0
  7 18  1  0
  8  9  1  0
  8 12  1  0
  9 10  1  0
  9 17  1  0
 10 15  1  0
 10 16  1  0
 11 14  1  0
 11 21  1  0
 12 14  1  0
 13 15  1  0
 14 22  1  0
 16 20  1  0
 16 23  1  0
 16 24  1  0
 17 19  1  0
 19 20  1  0
 20 25  2  0
 21 26  1  0
 24 27  2  0
 25 28  1  0
 27 28  1  0
M  END
>  <PUBCHEM_COMPOUND_CID>  (1) 
20469

>  <PUBCHEM_CONFORMER_RMSD>  (1) 
0.8

>  <PUBCHEM_CONFORMER_DIVERSEORDER>  (1) 
1
2

>  <PUBCHEM_MMFF94_PARTIAL_CHARGES>  (1) 
24
1 -0.29
10 0.29
11 0.34
15 0.28
16 0.28
19 0.14
2 -0.68
20 -0.28
21 0.45
24 -0.29
25 -0.14
26 0.34
27 -0.14
28 0.54
3 -0.68
4 -0.57
5 -0.68
50 0.4
51 0.15
52 0.4
53 0.15
56 0.15
57 0.4
6 -0.57

>  <PUBCHEM_EFFECTIVE_ROTOR_COUNT>  (1) 
3.4

>  <PUBCHEM_PHARMACOPHORE_FEATURES>  (1) 
12
1 2 acceptor
1 2 donor
1 3 acceptor
1 3 donor
1 4 acceptor
1 5 acceptor
1 5 donor
1 6 acceptor
5 7 8 11 12 14 rings
6 16 20 24 25 27 28 rings
6 7 8 9 10 13 15 rings
6 9 10 16 17 19 20 rings

>  <PUBCHEM_HEAVY_ATOM_COUNT>  (1) 
28

>  <PUBCHEM_ATOM_DEF_STEREO_COUNT>  (1) 
8

>  <PUBCHEM_ATOM_UDEF_STEREO_COUNT>  (1) 
0

>  <PUBCHEM_BOND_DEF_STEREO_COUNT>  (1) 
0

>  <PUBCHEM_BOND_UDEF_STEREO_COUNT>  (1) 
0

>  <PUBCHEM_ISOTOPIC_ATOM_COUNT>  (1) 
0

>  <PUBCHEM_COMPONENT_COUNT>  (1) 
1

>  <PUBCHEM_CACTVS_TAUTO_COUNT>  (1) 
9

>  <PUBCHEM_CONFORMER_ID>  (1) 
00004FF500000001

>  <PUBCHEM_MMFF94_ENERGY>  (1) 
108.3032

>  <PUBCHEM_FEATURE_SELFOVERLAP>  (1) 
60.996

>  <PUBCHEM_SHAPE_FINGERPRINT>  (1) 
10366900 7 18186238428765949185
10863032 1 18334857195421509378
11488393 25 17416138182659580071
11963148 33 18342449374652015631
12011746 2 18407761456188391828
12107698 1 18202001031988977453
12166972 35 17967534583844040053
12236239 1 17968095291697626455
12403259 415 18261382365097263845
12788726 201 18335979783666376729
13140716 1 18339632348208610064
13224815 77 18259982660761186529
13533116 47 17704070750205341952
13782708 43 16200423702323621391
13944108 23 16318358049453708813
14341114 176 18411983585250219305
14787075 74 18335143063991573082
14790565 3 18410863126772015856
15142383 8 13686305651310032363
15196674 1 18412824659752581992
15788980 27 15697995215111982580
1601671 61 18340769230721036608
16945 1 18271793675165479264
17349148 13 17275107240647057222
17844677 252 18130792260653600392
18186145 218 18187075135671517816
18608769 82 18261960776674552883
18681886 176 18343860043874756208
200 152 17775564234727617681
20028762 73 17917984014370582591
20691752 17 17822010874043998760
21033648 29 18260817228805093500
21236236 1 18341898459464930009
21267235 1 18342744031029724877
21279426 13 18268713818626527324
221357 26 18342455941381605996
22393880 68 18336539417773085340
23402539 116 18272370841481963748
23522609 53 18055946313749761489
23557571 272 17988927751837183229
23559900 14 18335137647826972105
23569914 152 17335034782395692703
296302 2 15502375621463118824
3004659 81 18262803961403543486
335352 9 18269836410944614093
34797466 226 17846223284809636852
350125 39 18412265017477950953
4340502 62 16008744719203565778
46194498 28 17988648514681002028
465052 167 17988646319678244686
5104073 3 18342171141999982385
542803 24 18186802465298558348
59755656 215 18335421274719701479
633830 44 18411410696483901980
9709674 26 18339358681487165752

>  <PUBCHEM_SHAPE_MULTIPOLES>  (1) 
548.75
12.14
2.16
1.4
2.41
0.71
-0.08
-1.22
3.08
0.23
-0.43
-0.44
-0.32
0.05

>  <PUBCHEM_SHAPE_SELFOVERLAP>  (1) 
1176.492

>  <PUBCHEM_SHAPE_VOLUME>  (1) 
302.2

>  <PUBCHEM_COORDINATE_TYPE>  (1) 
2
5
10

$$$$
