20465
     RDKit          3D

  8  8  0  0  1  0  0  0  0  0999 V2000
   -0.6651    1.2224   -0.2456 O   0  0  0  0  0  0  0  0  0  0  0  0
    1.9813    0.9040    0.4445 O   0  0  0  0  0  0  0  0  0  0  0  0
    1.9771   -1.2818   -0.2745 N   0  0  0  0  0  0  0  0  0  0  0  0
   -1.1735   -0.0814    0.0642 C   0  0  0  0  0  0  0  0  0  0  0  0
    0.0587    0.1053   -0.7389 C   0  0  0  0  0  0  0  0  0  0  0  0
   -1.1644   -0.4224    1.5080 C   0  0  0  0  0  0  0  0  0  0  0  0
   -2.4379   -0.4138   -0.6349 C   0  0  0  0  0  0  0  0  0  0  0  0
    1.4237   -0.0323   -0.1227 C   0  0  0  0  0  0  0  0  0  0  0  0
  1  4  1  0
  1  5  1  0
  2  8  2  0
  3  8  1  0
  4  5  1  0
  4  6  1  0
  4  7  1  0
  5  8  1  0
M  END
>  <PUBCHEM_COMPOUND_CID>  (1) 
20465

>  <PUBCHEM_CONFORMER_RMSD>  (1) 
0.4

>  <PUBCHEM_CONFORMER_DIVERSEORDER>  (1) 
1
3
4
2

>  <PUBCHEM_MMFF94_PARTIAL_CHARGES>  (1) 
11
1 -0.3
16 0.37
17 0.37
2 -0.57
3 -0.8
4 -0.04
5 0.05
6 0.09
7 0.09
8 0.63
9 0.1

>  <PUBCHEM_EFFECTIVE_ROTOR_COUNT>  (1) 
1.6

>  <PUBCHEM_PHARMACOPHORE_FEATURES>  (1) 
4
1 1 acceptor
1 2 acceptor
1 3 donor
3 4 6 7 hydrophobe

>  <PUBCHEM_HEAVY_ATOM_COUNT>  (1) 
8

>  <PUBCHEM_ATOM_DEF_STEREO_COUNT>  (1) 
0

>  <PUBCHEM_ATOM_UDEF_STEREO_COUNT>  (1) 
1

>  <PUBCHEM_BOND_DEF_STEREO_COUNT>  (1) 
0

>  <PUBCHEM_BOND_UDEF_STEREO_COUNT>  (1) 
0

>  <PUBCHEM_ISOTOPIC_ATOM_COUNT>  (1) 
0

>  <PUBCHEM_COMPONENT_COUNT>  (1) 
1

>  <PUBCHEM_CACTVS_TAUTO_COUNT>  (1) 
2

>  <PUBCHEM_CONFORMER_ID>  (1) 
00004FF100000001

>  <PUBCHEM_MMFF94_ENERGY>  (1) 
12.4022

>  <PUBCHEM_FEATURE_SELFOVERLAP>  (1) 
20.302

>  <PUBCHEM_SHAPE_FINGERPRINT>  (1) 
20096714 4 9439405726468555094
21040471 1 16298374734965754763
21922407 69 17418106424357676882
23552333 60 17917985105133389135
24536 1 17822023007394804964
29004967 10 18336548325603426161
5084963 1 17632857499413785910

>  <PUBCHEM_SHAPE_MULTIPOLES>  (1) 
147.92
2.9
1.07
1.03
0.18
0.4
0.05
-0.01
0.51
-0.46
-0.08
0.37
-0.04
0.14

>  <PUBCHEM_SHAPE_SELFOVERLAP>  (1) 
289.765

>  <PUBCHEM_SHAPE_VOLUME>  (1) 
90.9

>  <PUBCHEM_COORDINATE_TYPE>  (1) 
2
5
10

$$$$
