20464
     RDKit          3D

 20 21  0  0  1  0  0  0  0  0999 V2000
   -0.3671    1.3832   -0.0229 O   0  0  0  0  0  0  0  0  0  0  0  0
   -2.5946    1.1897    0.7826 O   0  0  0  0  0  0  0  0  0  0  0  0
    1.1363   -1.7452    0.1351 N   0  0  0  0  0  0  0  0  0  0  0  0
    1.2631   -0.3428    0.1609 N   0  0  0  0  0  0  0  0  0  0  0  0
   -2.2620   -0.7671   -0.4400 N   0  0  0  0  0  0  0  0  0  0  0  0
   -0.1991   -2.0372   -0.1463 C   0  0  0  0  0  0  0  0  0  0  0  0
   -0.9386   -0.9233   -0.2152 C   0  0  0  0  0  0  0  0  0  0  0  0
   -0.0125    0.2163    0.0129 C   0  0  0  0  0  0  0  0  0  0  0  0
    2.5022    0.3301    0.0177 C   0  0  0  0  0  0  0  0  0  0  0  0
    1.8825   -2.5275    1.1158 C   0  0  0  0  0  0  0  0  0  0  0  0
   -0.6697   -3.4458   -0.2850 C   0  0  0  0  0  0  0  0  0  0  0  0
   -4.4793    0.1871   -0.3555 C   0  0  0  0  0  0  0  0  0  0  0  0
   -3.0243    0.2850    0.0714 C   0  0  0  0  0  0  0  0  0  0  0  0
   -5.3273    1.3299    0.1952 C   0  0  0  0  0  0  0  0  0  0  0  0
    2.6032    1.6921    0.3181 C   0  0  0  0  0  0  0  0  0  0  0  0
    3.6332   -0.3632   -0.4241 C   0  0  0  0  0  0  0  0  0  0  0  0
    3.8231    2.3541    0.1780 C   0  0  0  0  0  0  0  0  0  0  0  0
    4.8531    0.2985   -0.5641 C   0  0  0  0  0  0  0  0  0  0  0  0
   -6.7703    1.2288   -0.2715 C   0  0  0  0  0  0  0  0  0  0  0  0
    4.9479    1.6573   -0.2630 C   0  0  0  0  0  0  0  0  0  0  0  0
  1  8  2  0
  2 13  2  0
  3  4  1  0
  3  6  1  0
  3 10  1  0
  4  8  1  0
  4  9  1  0
  5  7  1  0
  5 13  1  0
  6  7  2  0
  6 11  1  0
  7  8  1  0
  9 15  2  0
  9 16  1  0
 12 13  1  0
 12 14  1  0
 14 19  1  0
 15 17  1  0
 16 18  2  0
 17 20  2  0
 18 20  1  0
M  END
>  <PUBCHEM_COMPOUND_CID>  (1) 
20464

>  <PUBCHEM_CONFORMER_RMSD>  (1) 
0.8

>  <PUBCHEM_CONFORMER_DIVERSEORDER>  (1) 
1
9
11
21
19
14
6
16
12
5
8
18
17
15
3
10
20
13
7
4
2

>  <PUBCHEM_MMFF94_PARTIAL_CHARGES>  (1) 
24
1 -0.57
10 0.37
11 0.14
12 0.06
13 0.57
15 -0.15
16 -0.15
17 -0.15
18 -0.15
2 -0.57
20 -0.15
21 0.37
3 -0.49
32 0.15
33 0.15
34 0.15
35 0.15
39 0.15
4 -0.16
5 -0.54
6 -0.04
7 0.12
8 0.62
9 0.12

>  <PUBCHEM_EFFECTIVE_ROTOR_COUNT>  (1) 
5

>  <PUBCHEM_PHARMACOPHORE_FEATURES>  (1) 
6
1 1 acceptor
1 19 hydrophobe
1 2 acceptor
1 5 donor
5 3 4 6 7 8 rings
6 9 15 16 17 18 20 rings

>  <PUBCHEM_HEAVY_ATOM_COUNT>  (1) 
20

>  <PUBCHEM_ATOM_DEF_STEREO_COUNT>  (1) 
0

>  <PUBCHEM_ATOM_UDEF_STEREO_COUNT>  (1) 
0

>  <PUBCHEM_BOND_DEF_STEREO_COUNT>  (1) 
0

>  <PUBCHEM_BOND_UDEF_STEREO_COUNT>  (1) 
0

>  <PUBCHEM_ISOTOPIC_ATOM_COUNT>  (1) 
0

>  <PUBCHEM_COMPONENT_COUNT>  (1) 
1

>  <PUBCHEM_CACTVS_TAUTO_COUNT>  (1) 
2

>  <PUBCHEM_CONFORMER_ID>  (1) 
00004FF000000001

>  <PUBCHEM_MMFF94_ENERGY>  (1) 
71.1825

>  <PUBCHEM_FEATURE_SELFOVERLAP>  (1) 
30.481

>  <PUBCHEM_SHAPE_FINGERPRINT>  (1) 
10411042 1 17617940236108393610
10493431 412 18337390542994331485
10608611 8 18054227906662297400
11796584 16 13470681547332321173
12236239 1 18060417993880950333
12644460 14 18187927227155281458
12730499 353 18335709317007038211
12969540 114 18335405885909590997
13140716 1 18335975484799472834
13583140 156 16154526792434509252
13955234 65 18263364681594004195
14123255 52 18410009957161238534
14528608 73 18342172267898591701
14790565 3 18411142454444614933
15196674 1 18411982506791278997
15342168 16 18334296495814868485
18186145 218 18336822082924956196
20510252 161 17980202212248151650
20645477 70 18264204704419683251
21049683 118 18190157139963203019
21524375 3 18409171008631153930
23402539 116 18201434813301511661
23402655 69 18201717370673284269
23558518 356 17757266359865708528
23559900 14 18271527602685465828
23845131 108 18186801392053373603
25147074 1 18339341029319999671
283562 15 17758106382281068450
293599 30 18410857676458082109
335352 9 18411702072024952878
350125 39 18263923242111427796
3545911 37 18334297557146498277
3759504 43 18187929533526572547
4340502 62 17167865249035467083
474 4 18334580169667329489
5104073 3 18260822748080526322
59755656 215 18339931419739633212
59755656 520 18408881862563395262
633830 44 18339637944893296886
7364860 26 18339079268596365126
77188 2 17616529554057603594
8272917 22 18340769217925779663
9709674 26 18128826411947755174
9999458 23 18187367623434830222

>  <PUBCHEM_SHAPE_MULTIPOLES>  (1) 
384.91
11.72
2.91
0.75
12.94
2.2
0.06
-9.79
-1.31
-1.07
0.27
-0.14
0.13
-0.37

>  <PUBCHEM_SHAPE_SELFOVERLAP>  (1) 
807.369

>  <PUBCHEM_SHAPE_VOLUME>  (1) 
217.6

>  <PUBCHEM_COORDINATE_TYPE>  (1) 
2
5
10

$$$$
