20461
     RDKit          3D

 15 15  0  0  0  0  0  0  0  0999 V2000
   -0.7761    4.1453   -0.1798 Cl  0  0  0  0  0  0  0  0  0  0  0  0
   -2.2778   -0.5082    0.3404 O   0  0  0  0  0  0  0  0  0  0  0  0
    2.3015    0.2747   -0.0044 N   0  0  0  0  0  0  0  0  0  0  0  0
    0.0036   -0.1595    0.1735 N   0  0  0  0  0  0  0  0  0  0  0  0
    0.8127    2.0849   -0.0828 N   0  0  0  0  0  0  0  0  0  0  0  0
   -1.5442    1.6725    0.0972 N   0  0  0  0  0  0  0  0  0  0  0  0
    2.6503   -1.1210    0.1061 C   0  0  0  0  0  0  0  0  0  0  0  0
   -2.0897   -1.8117   -0.1915 C   0  0  0  0  0  0  0  0  0  0  0  0
    4.0951   -1.2708    0.5643 C   0  0  0  0  0  0  0  0  0  0  0  0
    2.4137   -1.8377   -1.2174 C   0  0  0  0  0  0  0  0  0  0  0  0
    0.9989    0.7479    0.0297 C   0  0  0  0  0  0  0  0  0  0  0  0
   -1.4567   -2.6989    0.8696 C   0  0  0  0  0  0  0  0  0  0  0  0
   -3.4287   -2.3585   -0.6623 C   0  0  0  0  0  0  0  0  0  0  0  0
   -1.2296    0.3710    0.1986 C   0  0  0  0  0  0  0  0  0  0  0  0
   -0.4730    2.4701   -0.0413 C   0  0  0  0  0  0  0  0  0  0  0  0
  1 15  1  0
  2  8  1  0
  2 14  1  0
  3  7  1  0
  3 11  1  0
  4 11  2  0
  4 14  1  0
  5 11  1  0
  5 15  2  0
  6 14  2  0
  6 15  1  0
  7  9  1  0
  7 10  1  0
  8 12  1  0
  8 13  1  0
M  END
>  <PUBCHEM_COMPOUND_CID>  (1) 
20461

>  <PUBCHEM_CONFORMER_RMSD>  (1) 
0.6

>  <PUBCHEM_CONFORMER_DIVERSEORDER>  (1) 
2
55
56
87
77
54
86
44
43
61
63
45
35
84
39
76
11
47
49
48
18
82
50
78
68
10
62
58
23
95
89
20
46
51
94
53
40
26
52
93
38
32
67
22
19
31
15
59
79
88
5
34
73
80
90
21
70
75
1
27
65
41
66
9
42
6
96
30
81
7
83
91
74
72
69
16
64
13
57
36
60
85
33
8
37
12
17
25
29
28
24
4
14
92
71
3

>  <PUBCHEM_MMFF94_PARTIAL_CHARGES>  (1) 
12
1 -0.18
11 0.72
14 0.7
15 0.8
18 0.4
2 -0.36
3 -0.87
4 -0.62
5 -0.62
6 -0.62
7 0.37
8 0.28

>  <PUBCHEM_EFFECTIVE_ROTOR_COUNT>  (1) 
4

>  <PUBCHEM_PHARMACOPHORE_FEATURES>  (1) 
5
1 3 donor
3 7 9 10 hydrophobe
3 8 12 13 hydrophobe
4 3 4 5 11 cation
6 4 5 6 11 14 15 rings

>  <PUBCHEM_HEAVY_ATOM_COUNT>  (1) 
15

>  <PUBCHEM_ATOM_DEF_STEREO_COUNT>  (1) 
0

>  <PUBCHEM_ATOM_UDEF_STEREO_COUNT>  (1) 
0

>  <PUBCHEM_BOND_DEF_STEREO_COUNT>  (1) 
0

>  <PUBCHEM_BOND_UDEF_STEREO_COUNT>  (1) 
0

>  <PUBCHEM_ISOTOPIC_ATOM_COUNT>  (1) 
0

>  <PUBCHEM_COMPONENT_COUNT>  (1) 
1

>  <PUBCHEM_CACTVS_TAUTO_COUNT>  (1) 
4

>  <PUBCHEM_CONFORMER_ID>  (1) 
00004FED00000002

>  <PUBCHEM_MMFF94_ENERGY>  (1) 
34.7615

>  <PUBCHEM_FEATURE_SELFOVERLAP>  (1) 
25.371

>  <PUBCHEM_SHAPE_FINGERPRINT>  (1) 
1 1 17400923497220135685
11265709 11 18410572924294782467
11322862 65 17906744600183440951
116883 192 18413388709412517871
12500047 106 17906733601436918294
12532896 13 17764020268726493132
12553582 1 18338249257143799442
14648413 74 17903634434434788051
15042514 8 18337114436874499083
16945 1 18194689172237272036
17990270 104 18122061176398646947
19591789 44 17691415105255383513
20510252 161 17911235018809946344
20524608 308 18122908620801200434
20645476 183 17612621937308684238
20645477 70 17761482995780941791
20671657 53 18339358694583460343
20711985 344 18336257934127130570
20871998 184 18268998578778393886
21452121 199 18264476442388795592
2255824 54 17764033858034425757
23402539 116 18198328581769340773
23419403 2 17700662255674718873
23557571 272 18271249309878400094
257057 1 18338790216758773924
2748010 2 18340483464665581509
3091708 16 9279923759714801473
33824 294 16968582369884338603
6338986 31 18339917220477869687
6992083 37 18270983279350969633
7364860 26 17907298006877792225
81228 2 18339086994746178049
88987 49 18121228576072397006
9709674 26 18056192471742490958

>  <PUBCHEM_SHAPE_MULTIPOLES>  (1) 
284.77
5.02
4.46
0.82
4.16
3.63
-0.1
-4.46
-0.12
-3.66
-0.27
0.17
-0.43
0.04

>  <PUBCHEM_SHAPE_SELFOVERLAP>  (1) 
558.418

>  <PUBCHEM_SHAPE_VOLUME>  (1) 
171.3

>  <PUBCHEM_COORDINATE_TYPE>  (1) 
2
5
10

$$$$
