20474
     RDKit          3D

  9  9  0  0  1  0  0  0  0  0999 V2000
   -0.1228   -2.1996   -0.2951 O   0  0  0  0  0  0  0  0  0  0  0  0
    0.6232    0.0190    0.3363 C   0  0  0  0  0  0  0  0  0  0  0  0
    0.1835    1.3269   -0.3293 C   0  0  0  0  0  0  0  0  0  0  0  0
   -1.2333    1.7245    0.0822 C   0  0  0  0  0  0  0  0  0  0  0  0
   -2.2312    0.6196   -0.2547 C   0  0  0  0  0  0  0  0  0  0  0  0
   -1.8510   -0.6998    0.4009 C   0  0  0  0  0  0  0  0  0  0  0  0
   -0.4188   -1.0637    0.0726 C   0  0  0  0  0  0  0  0  0  0  0  0
    2.0066   -0.3971   -0.1538 C   0  0  0  0  0  0  0  0  0  0  0  0
    3.0438    0.6702    0.1409 C   0  0  0  0  0  0  0  0  0  0  0  0
  1  7  2  0
  2  3  1  0
  2  7  1  0
  2  8  1  0
  3  4  1  0
  4  5  1  0
  5  6  1  0
  6  7  1  0
  8  9  1  0
M  END
>  <PUBCHEM_COMPOUND_CID>  (1) 
20474

>  <PUBCHEM_CONFORMER_RMSD>  (1) 
0.4

>  <PUBCHEM_CONFORMER_DIVERSEORDER>  (1) 
3
2
1
9
5
6
7
10
8
4

>  <PUBCHEM_MMFF94_PARTIAL_CHARGES>  (1) 
4
1 -0.57
2 0.06
6 0.06
7 0.45

>  <PUBCHEM_EFFECTIVE_ROTOR_COUNT>  (1) 
2

>  <PUBCHEM_PHARMACOPHORE_FEATURES>  (1) 
3
1 1 acceptor
1 9 hydrophobe
6 2 3 4 5 6 7 rings

>  <PUBCHEM_HEAVY_ATOM_COUNT>  (1) 
9

>  <PUBCHEM_ATOM_DEF_STEREO_COUNT>  (1) 
0

>  <PUBCHEM_ATOM_UDEF_STEREO_COUNT>  (1) 
1

>  <PUBCHEM_BOND_DEF_STEREO_COUNT>  (1) 
0

>  <PUBCHEM_BOND_UDEF_STEREO_COUNT>  (1) 
0

>  <PUBCHEM_ISOTOPIC_ATOM_COUNT>  (1) 
0

>  <PUBCHEM_COMPONENT_COUNT>  (1) 
1

>  <PUBCHEM_CACTVS_TAUTO_COUNT>  (1) 
3

>  <PUBCHEM_CONFORMER_ID>  (1) 
00004FFA00000003

>  <PUBCHEM_MMFF94_ENERGY>  (1) 
5.7014

>  <PUBCHEM_FEATURE_SELFOVERLAP>  (1) 
15.223

>  <PUBCHEM_SHAPE_FINGERPRINT>  (1) 
12897270 3 18338796693585456125
13024252 1 15285352933645417880
14325111 11 18410573942476299152
16714656 1 18410012156210887352
16945 1 18337394932218727888
18185500 45 17546170061196459159
20645464 45 18131627911487318320
20871998 184 18199755923592005590
21040471 1 18337953394068481416
23235685 24 18336823100579166381
23552423 10 18187651254237469682
241688 4 16177910814965670451
2748010 2 18337677403633119646
369184 2 18410852170431223960
5084963 1 18131630058480375320
6333449 129 18340482365470627216

>  <PUBCHEM_SHAPE_MULTIPOLES>  (1) 
179.35
3.34
1.84
0.67
1.92
0.34
-0.01
-0.73
-0.11
-0.49
0.14
-0.02
-0.01
0.11

>  <PUBCHEM_SHAPE_SELFOVERLAP>  (1) 
348.171

>  <PUBCHEM_SHAPE_VOLUME>  (1) 
108

>  <PUBCHEM_COORDINATE_TYPE>  (1) 
2
5
10

$$$$
