20476
     RDKit          3D

 23 25  0  0  0  0  0  0  0  0999 V2000
   -0.1551    1.1780   -0.4132 O   0  0  0  0  0  0  0  0  0  0  0  0
    1.1836    0.4340   -2.1388 O   0  0  0  0  0  0  0  0  0  0  0  0
    4.5083    0.4902    0.5235 N   0  0  0  0  0  0  0  0  0  0  0  0
   -1.3251    0.5937   -0.9556 C   0  0  0  0  0  0  0  0  0  0  0  0
   -2.5788    1.0944   -0.2666 C   0  0  0  0  0  0  0  0  0  0  0  0
   -1.3621   -0.8887   -0.6339 C   0  0  0  0  0  0  0  0  0  0  0  0
   -3.2530    0.0249    0.3652 C   0  0  0  0  0  0  0  0  0  0  0  0
   -2.5052   -1.1939    0.1395 C   0  0  0  0  0  0  0  0  0  0  0  0
    3.4728    0.3916   -0.4975 C   0  0  0  0  0  0  0  0  0  0  0  0
   -3.0725    2.3872   -0.2189 C   0  0  0  0  0  0  0  0  0  0  0  0
   -0.4625   -1.8719   -1.0095 C   0  0  0  0  0  0  0  0  0  0  0  0
    2.1290    0.8465    0.0643 C   0  0  0  0  0  0  0  0  0  0  0  0
   -4.4325    0.2466    1.0566 C   0  0  0  0  0  0  0  0  0  0  0  0
   -2.7519   -2.4939    0.5492 C   0  0  0  0  0  0  0  0  0  0  0  0
    1.0335    0.7834   -0.9761 C   0  0  0  0  0  0  0  0  0  0  0  0
    5.8010    0.0550   -0.0090 C   0  0  0  0  0  0  0  0  0  0  0  0
    4.1508   -0.3049    1.6997 C   0  0  0  0  0  0  0  0  0  0  0  0
   -4.2613    2.6100    0.4781 C   0  0  0  0  0  0  0  0  0  0  0  0
   -0.7113   -3.1819   -0.5960 C   0  0  0  0  0  0  0  0  0  0  0  0
   -4.9344    1.5505    1.1098 C   0  0  0  0  0  0  0  0  0  0  0  0
   -1.8442   -3.4897    0.1760 C   0  0  0  0  0  0  0  0  0  0  0  0
    6.1685    0.8803   -1.2271 C   0  0  0  0  0  0  0  0  0  0  0  0
    5.2025   -0.1413    2.7801 C   0  0  0  0  0  0  0  0  0  0  0  0
  1  4  1  0
  1 15  1  0
  2 15  2  0
  3  9  1  0
  3 16  1  0
  3 17  1  0
  4  5  1  0
  4  6  1  0
  5  7  2  0
  5 10  1  0
  6  8  2  0
  6 11  1  0
  7  8  1  0
  7 13  1  0
  8 14  1  0
  9 12  1  0
 10 18  2  0
 11 19  2  0
 12 15  1  0
 13 20  2  0
 14 21  2  0
 16 22  1  0
 17 23  1  0
 18 20  1  0
 19 21  1  0
M  END
>  <PUBCHEM_COMPOUND_CID>  (1) 
20476

>  <PUBCHEM_CONFORMER_RMSD>  (1) 
0.8

>  <PUBCHEM_CONFORMER_DIVERSEORDER>  (1) 
1
75
61
68
46
5
66
71
59
67
80
78
51
10
16
76
50
21
70
29
38
42
33
40
9
37
69
56
52
57
58
23
35
30
62
8
72
34
73
65
7
18
79
39
15
44
53
77
26
20
43
81
32
11
27
45
54
6
64
60
24
25
74
3
55
13
49
41
19
48
14
31
12
28
63
17
36
47
22
2
4

>  <PUBCHEM_MMFF94_PARTIAL_CHARGES>  (1) 
27
1 -0.43
10 -0.15
11 -0.15
12 0.06
13 -0.15
14 -0.15
15 0.66
16 0.27
17 0.27
18 -0.15
19 -0.15
2 -0.57
20 -0.15
21 -0.15
29 0.15
3 -0.81
30 0.15
31 0.15
32 0.15
37 0.15
38 0.15
39 0.15
4 0.57
40 0.15
5 -0.14
6 -0.14
9 0.27

>  <PUBCHEM_EFFECTIVE_ROTOR_COUNT>  (1) 
7.2

>  <PUBCHEM_PHARMACOPHORE_FEATURES>  (1) 
5
1 2 acceptor
1 3 cation
5 4 5 6 7 8 rings
6 5 7 10 13 18 20 rings
6 6 8 11 14 19 21 rings

>  <PUBCHEM_HEAVY_ATOM_COUNT>  (1) 
23

>  <PUBCHEM_ATOM_DEF_STEREO_COUNT>  (1) 
0

>  <PUBCHEM_ATOM_UDEF_STEREO_COUNT>  (1) 
0

>  <PUBCHEM_BOND_DEF_STEREO_COUNT>  (1) 
0

>  <PUBCHEM_BOND_UDEF_STEREO_COUNT>  (1) 
0

>  <PUBCHEM_ISOTOPIC_ATOM_COUNT>  (1) 
0

>  <PUBCHEM_COMPONENT_COUNT>  (1) 
1

>  <PUBCHEM_CACTVS_TAUTO_COUNT>  (1) 
1

>  <PUBCHEM_CONFORMER_ID>  (1) 
00004FFC00000001

>  <PUBCHEM_MMFF94_ENERGY>  (1) 
65.9015

>  <PUBCHEM_FEATURE_SELFOVERLAP>  (1) 
25.535

>  <PUBCHEM_SHAPE_FINGERPRINT>  (1) 
10319926 262 18343858940384367106
10692045 39 18057320574714673634
11112241 14 17131538514456617818
11370993 144 18130780179648659290
11720765 8 16263452326477442967
11725454 13 17417806214902198773
12166972 35 13110667333820203992
12236239 1 17822017514400996628
12422481 6 17970620792861129898
12596602 18 17894919516147242904
12616971 3 17458334240041978712
12633257 1 18411979182703272488
12788726 201 17902532689107909751
12839892 36 18335710438188876179
13004483 165 17768240572648967647
13140716 1 18122923177057341849
13540713 4 17902811669631527557
13726171 33 17981638101610156100
14420673 8 18337113346343754398
14840074 17 17676211268993884270
15042514 8 18193003827566499123
15230672 131 18338244757073602542
15537594 2 17675923205790457986
15842332 3 17751655465734150940
16110190 28 18261664879999528666
16728300 4 17604420796257374835
16994733 274 16128656306979240353
1813 80 16588032268868520070
19377110 9 17604418700714754096
19438510 23 16629138559334992945
20554085 129 18127956539215360993
20567600 254 18270959043019725685
21033648 29 17561077034309733040
212916 134 18271802389364095977
21403212 168 18190450580971987449
23559900 14 18201732708724055350
23728640 28 18337675312332660883
25147074 1 17896898739855268084
2748010 2 17973753310822097901
2838139 119 15697722514779871121
495365 180 17417816084890305566
5104073 3 18337944706056796880
5265222 85 18268728262965436996
5385378 56 18126861395436838929
58807428 26 18335709286937141723
7064713 232 18410001127141339354
7097593 13 18261389013680244628
7226269 152 17988648462666952544
90127 26 17704066344069913096
9862522 239 18261944142651006029
9981440 41 18265901263946652321

>  <PUBCHEM_SHAPE_MULTIPOLES>  (1) 
456.61
12.34
3.06
1.63
17.96
2.56
-0.7
-5.97
-4.82
-4.64
0.13
2.4
-0.09
-0.88

>  <PUBCHEM_SHAPE_SELFOVERLAP>  (1) 
978.457

>  <PUBCHEM_SHAPE_VOLUME>  (1) 
255.3

>  <PUBCHEM_COORDINATE_TYPE>  (1) 
2
5
10

$$$$
