20481
     RDKit          3D

  8  8  0  0  1  0  0  0  0  0999 V2000
   -1.3232    0.3846   -0.4500 S   0  0  0  0  0  0  0  0  0  0  0  0
    0.0627    1.0274    0.0731 O   0  0  0  0  0  0  0  0  0  0  0  0
   -1.1867   -1.0691    0.2391 O   0  0  0  0  0  0  0  0  0  0  0  0
   -2.4430    1.1065    0.2387 O   0  0  0  0  0  0  0  0  0  0  0  0
    1.2429    0.3302   -0.3384 C   0  0  0  0  0  0  0  0  0  0  0  0
    1.2385   -1.0862    0.2450 C   0  0  0  0  0  0  0  0  0  0  0  0
   -0.0382   -1.8151   -0.1620 C   0  0  0  0  0  0  0  0  0  0  0  0
    2.4470    1.1216    0.1544 C   0  0  0  0  0  0  0  0  0  0  0  0
  1  2  1  0
  1  3  1  0
  1  4  2  0
  2  5  1  0
  3  7  1  0
  5  6  1  0
  5  8  1  0
  6  7  1  0
M  END
>  <PUBCHEM_COMPOUND_CID>  (1) 
20481

>  <PUBCHEM_CONFORMER_RMSD>  (1) 
0.4

>  <PUBCHEM_CONFORMER_DIVERSEORDER>  (1) 
1
8
2
7
3
6
4
5

>  <PUBCHEM_MMFF94_PARTIAL_CHARGES>  (1) 
6
1 0.6
2 -0.33
3 -0.33
4 -0.5
5 0.28
7 0.28

>  <PUBCHEM_EFFECTIVE_ROTOR_COUNT>  (1) 
1

>  <PUBCHEM_PHARMACOPHORE_FEATURES>  (1) 
2
1 4 acceptor
6 1 2 3 5 6 7 rings

>  <PUBCHEM_HEAVY_ATOM_COUNT>  (1) 
8

>  <PUBCHEM_ATOM_DEF_STEREO_COUNT>  (1) 
0

>  <PUBCHEM_ATOM_UDEF_STEREO_COUNT>  (1) 
2

>  <PUBCHEM_BOND_DEF_STEREO_COUNT>  (1) 
0

>  <PUBCHEM_BOND_UDEF_STEREO_COUNT>  (1) 
0

>  <PUBCHEM_ISOTOPIC_ATOM_COUNT>  (1) 
0

>  <PUBCHEM_COMPONENT_COUNT>  (1) 
1

>  <PUBCHEM_CACTVS_TAUTO_COUNT>  (1) 
1

>  <PUBCHEM_CONFORMER_ID>  (1) 
0000500100000001

>  <PUBCHEM_MMFF94_ENERGY>  (1) 
10.0227

>  <PUBCHEM_FEATURE_SELFOVERLAP>  (1) 
10.148

>  <PUBCHEM_SHAPE_FINGERPRINT>  (1) 
16714656 1 18049164659394164166
18185500 45 17402610749315616103
20096714 4 18410573950807679999
21040471 1 18410013260159926772
23235685 24 18410289207397929748
23552423 10 18115305717313170310
23552449 1 17620188071819128190
241688 4 16898774887473671842
29004967 10 17903077729057769011

>  <PUBCHEM_SHAPE_MULTIPOLES>  (1) 
150.88
2.82
1.74
0.66
0.13
0.59
0.05
-1.41
-0.21
-0.05
-0.06
-0.01
0
-0.04

>  <PUBCHEM_SHAPE_SELFOVERLAP>  (1) 
280.312

>  <PUBCHEM_SHAPE_VOLUME>  (1) 
95.3

>  <PUBCHEM_COORDINATE_TYPE>  (1) 
2
5
10

$$$$
