20485
     RDKit          3D

 25 29  0  0  1  0  0  0  0  0999 V2000
    3.4440   -2.1551    0.4671 O   0  0  0  0  0  0  0  0  0  0  0  0
    1.6588   -3.3252   -0.4290 O   0  0  0  0  0  0  0  0  0  0  0  0
    0.2973    2.3095    1.1943 N   0  0  0  0  0  0  0  0  0  0  0  0
   -0.7807   -2.1182    0.3893 N   0  0  0  0  0  0  0  0  0  0  0  0
   -0.6887    0.2367    0.6567 C   0  0  0  0  0  0  0  0  0  0  0  0
   -0.0490    1.4898    0.0193 C   0  0  0  0  0  0  0  0  0  0  0  0
    1.2660    1.2557   -0.7802 C   0  0  0  0  0  0  0  0  0  0  0  0
   -0.8590    0.6174    2.1549 C   0  0  0  0  0  0  0  0  0  0  0  0
    0.1187   -1.0721    0.4886 C   0  0  0  0  0  0  0  0  0  0  0  0
   -0.7551    2.1366    2.1714 C   0  0  0  0  0  0  0  0  0  0  0  0
    2.1710    0.2240   -0.0395 C   0  0  0  0  0  0  0  0  0  0  0  0
   -2.0453   -0.2057    0.1312 C   0  0  0  0  0  0  0  0  0  0  0  0
    1.4395   -1.0626    0.2420 C   0  0  0  0  0  0  0  0  0  0  0  0
    0.9167    0.7595   -2.2005 C   0  0  0  0  0  0  0  0  0  0  0  0
    2.0263    2.5739   -0.9309 C   0  0  0  0  0  0  0  0  0  0  0  0
    0.6398    3.6748    0.8279 C   0  0  0  0  0  0  0  0  0  0  0  0
   -2.0400   -1.6148    0.0485 C   0  0  0  0  0  0  0  0  0  0  0  0
    1.7144    3.6764   -0.2276 C   0  0  0  0  0  0  0  0  0  0  0  0
   -3.1818    0.5234   -0.1678 C   0  0  0  0  0  0  0  0  0  0  0  0
    0.0843    1.7828   -2.9357 C   0  0  0  0  0  0  0  0  0  0  0  0
    2.1661   -2.3217    0.0437 C   0  0  0  0  0  0  0  0  0  0  0  0
   -3.1759   -2.3161   -0.3022 C   0  0  0  0  0  0  0  0  0  0  0  0
   -4.3274   -0.1794   -0.5481 C   0  0  0  0  0  0  0  0  0  0  0  0
   -4.3260   -1.5847   -0.6099 C   0  0  0  0  0  0  0  0  0  0  0  0
    4.2860   -3.3051    0.3367 C   0  0  0  0  0  0  0  0  0  0  0  0
  1 21  1  0
  1 25  1  0
  2 21  2  0
  3  6  1  0
  3 10  1  0
  3 16  1  0
  4  9  1  0
  4 17  1  0
  5  6  1  0
  5  8  1  0
  5  9  1  0
  5 12  1  0
  6  7  1  0
  7 11  1  0
  7 14  1  0
  7 15  1  0
  8 10  1  0
  9 13  2  0
 11 13  1  0
 12 17  2  0
 12 19  1  0
 13 21  1  0
 14 20  1  0
 15 18  2  0
 16 18  1  0
 17 22  1  0
 19 23  2  0
 22 24  2  0
 23 24  1  0
M  END
>  <PUBCHEM_COMPOUND_CID>  (1) 
20485

>  <PUBCHEM_CONFORMER_RMSD>  (1) 
0.8

>  <PUBCHEM_CONFORMER_DIVERSEORDER>  (1) 
1
3
2

>  <PUBCHEM_MMFF94_PARTIAL_CHARGES>  (1) 
29
1 -0.43
10 0.27
11 0.14
12 -0.14
13 -0.12
15 -0.29
16 0.41
17 0.1
18 -0.29
19 -0.15
2 -0.57
21 0.71
22 -0.15
23 -0.15
24 -0.15
25 0.28
3 -0.81
35 0.15
38 0.4
39 0.15
4 -0.6
40 0.15
44 0.15
45 0.15
46 0.15
5 0.28
6 0.27
7 0.14
9 -0.04

>  <PUBCHEM_EFFECTIVE_ROTOR_COUNT>  (1) 
4

>  <PUBCHEM_PHARMACOPHORE_FEATURES>  (1) 
10
1 2 acceptor
1 20 hydrophobe
1 3 cation
1 4 cation
1 4 donor
5 3 5 6 8 10 rings
5 4 5 9 12 17 rings
6 12 17 19 22 23 24 rings
6 3 6 7 15 16 18 rings
6 5 6 7 9 11 13 rings

>  <PUBCHEM_HEAVY_ATOM_COUNT>  (1) 
25

>  <PUBCHEM_ATOM_DEF_STEREO_COUNT>  (1) 
3

>  <PUBCHEM_ATOM_UDEF_STEREO_COUNT>  (1) 
0

>  <PUBCHEM_BOND_DEF_STEREO_COUNT>  (1) 
0

>  <PUBCHEM_BOND_UDEF_STEREO_COUNT>  (1) 
0

>  <PUBCHEM_ISOTOPIC_ATOM_COUNT>  (1) 
0

>  <PUBCHEM_COMPONENT_COUNT>  (1) 
1

>  <PUBCHEM_CACTVS_TAUTO_COUNT>  (1) 
3

>  <PUBCHEM_CONFORMER_ID>  (1) 
0000500500000001

>  <PUBCHEM_MMFF94_ENERGY>  (1) 
94.9426

>  <PUBCHEM_FEATURE_SELFOVERLAP>  (1) 
51.28

>  <PUBCHEM_SHAPE_FINGERPRINT>  (1) 
10165383 225 17760944226434666521
10863032 1 17975974581227871949
10948715 1 17687178003753556349
1100329 8 18195529186378695377
11045515 52 18188771617667606870
11265709 11 18339645516657259090
11370993 70 17832420173978219437
11578080 2 18191848077188757716
11582403 64 16123570214342787561
11640471 11 16162142254897991365
12035759 4 18267328493946816158
12156800 1 16810067565229598156
12553582 1 18195830499624742658
12730499 353 17978232978712989963
13004483 165 18122611774015835410
13134695 92 17702359867379068641
13140716 1 17619636121119190595
133893 2 17824573891646047020
138480 1 18410853261316143234
14142880 1 17616533960877775872
14181834 199 18261679254458093310
14910302 57 17552927230840125710
14955137 171 18193860149402872291
16945 1 18409451426866509857
17980427 23 17418088772195220905
17980427 26 17698984499593972853
19591789 44 17402897120492332058
20600515 1 18129101121770504559
21330990 113 18116981381466106316
21421861 104 18199774529701230675
22112679 90 18054254058048087464
22149856 69 17829621896687975995
229495 10 18266998700472208764
23227448 37 16393805021428195165
23419403 2 17981850169503107664
23559900 14 18341039809006813562
238 59 17269748401916025389
2748010 2 15886895371618770560
3380486 77 18131358483978522307
497634 4 18056197961069728818
5262128 65 17270922563879983805
5845 1 10945500334947779264
6442390 28 17330556956714499315
6443956 14 18409726240312060118
6992083 37 18051709740796689802
7364860 26 18338513157098335211
7471813 234 18130211718914716959
81228 2 18049449140737738722
84936 182 18196936788768680793
9925002 15 18124896567678247416
9981440 41 17760077815150313025

>  <PUBCHEM_SHAPE_MULTIPOLES>  (1) 
492.79
5.57
4.52
1.78
5.03
1.09
-0.55
3.91
-1.04
-5.33
0.57
-0.17
-1.52
-0.8

>  <PUBCHEM_SHAPE_SELFOVERLAP>  (1) 
1099.902

>  <PUBCHEM_SHAPE_VOLUME>  (1) 
263.6

>  <PUBCHEM_COORDINATE_TYPE>  (1) 
2
5
10

$$$$
