20489
     RDKit          3D

 21 23  0  0  0  0  0  0  0  0999 V2000
    0.4467    0.5811   -0.0584 O   0  0  0  0  0  0  0  0  0  0  0  0
   -4.0969    1.9802   -0.1914 O   0  0  0  0  0  0  0  0  0  0  0  0
   -1.3948    2.5687   -0.1303 O   0  0  0  0  0  0  0  0  0  0  0  0
   -3.1514   -2.6664   -0.1019 O   0  0  0  0  0  0  0  0  0  0  0  0
   -0.6195   -3.3508   -0.0262 O   0  0  0  0  0  0  0  0  0  0  0  0
   -1.3134   -1.0927   -0.0794 C   0  0  0  0  0  0  0  0  0  0  0  0
   -0.8797    0.2320   -0.0871 C   0  0  0  0  0  0  0  0  0  0  0  0
    1.3953   -0.4298   -0.0287 C   0  0  0  0  0  0  0  0  0  0  0  0
   -1.8107    1.2702   -0.1244 C   0  0  0  0  0  0  0  0  0  0  0  0
   -2.6780   -1.3895   -0.1094 C   0  0  0  0  0  0  0  0  0  0  0  0
   -0.3102   -2.1675   -0.0382 C   0  0  0  0  0  0  0  0  0  0  0  0
    1.1032   -1.7399   -0.0116 C   0  0  0  0  0  0  0  0  0  0  0  0
   -3.1746    0.9780   -0.1547 C   0  0  0  0  0  0  0  0  0  0  0  0
    2.7893    0.0565    0.0054 C   0  0  0  0  0  0  0  0  0  0  0  0
   -3.6070   -0.3490   -0.1472 C   0  0  0  0  0  0  0  0  0  0  0  0
    3.7767   -0.6879    0.6561 C   0  0  0  0  0  0  0  0  0  0  0  0
    3.1275    1.2630   -0.6127 C   0  0  0  0  0  0  0  0  0  0  0  0
    5.0934   -0.2287    0.6886 C   0  0  0  0  0  0  0  0  0  0  0  0
    4.4443    1.7222   -0.5801 C   0  0  0  0  0  0  0  0  0  0  0  0
    5.4271    0.9763    0.0706 C   0  0  0  0  0  0  0  0  0  0  0  0
   -4.5672    2.4741    1.0611 C   0  0  0  0  0  0  0  0  0  0  0  0
  1  7  1  0
  1  8  1  0
  2 13  1  0
  2 21  1  0
  3  9  1  0
  4 10  1  0
  5 11  2  0
  6  7  2  0
  6 10  1  0
  6 11  1  0
  7  9  1  0
  8 12  2  0
  8 14  1  0
  9 13  2  0
 10 15  2  0
 11 12  1  0
 13 15  1  0
 14 16  2  0
 14 17  1  0
 16 18  1  0
 17 19  2  0
 18 20  2  0
 19 20  1  0
M  END
>  <PUBCHEM_COMPOUND_CID>  (1) 
20489

>  <PUBCHEM_CONFORMER_RMSD>  (1) 
0.6

>  <PUBCHEM_CONFORMER_DIVERSEORDER>  (1) 
1
2

>  <PUBCHEM_MMFF94_PARTIAL_CHARGES>  (1) 
30
1 -0.16
10 0.08
11 0.47
12 -0.14
13 0.08
14 0.03
15 -0.15
16 -0.15
17 -0.15
18 -0.15
19 -0.15
2 -0.36
20 -0.15
21 0.28
22 0.15
23 0.15
24 0.15
25 0.15
26 0.15
27 0.15
28 0.15
29 0.45
3 -0.53
30 0.45
4 -0.53
5 -0.57
6 0.09
7 0.08
8 0.05
9 0.08

>  <PUBCHEM_EFFECTIVE_ROTOR_COUNT>  (1) 
2

>  <PUBCHEM_PHARMACOPHORE_FEATURES>  (1) 
8
1 1 acceptor
1 2 acceptor
1 3 donor
1 4 donor
1 5 acceptor
6 1 6 7 8 11 12 rings
6 14 16 17 18 19 20 rings
6 6 7 9 10 13 15 rings

>  <PUBCHEM_HEAVY_ATOM_COUNT>  (1) 
21

>  <PUBCHEM_ATOM_DEF_STEREO_COUNT>  (1) 
0

>  <PUBCHEM_ATOM_UDEF_STEREO_COUNT>  (1) 
0

>  <PUBCHEM_BOND_DEF_STEREO_COUNT>  (1) 
0

>  <PUBCHEM_BOND_UDEF_STEREO_COUNT>  (1) 
0

>  <PUBCHEM_ISOTOPIC_ATOM_COUNT>  (1) 
0

>  <PUBCHEM_COMPONENT_COUNT>  (1) 
1

>  <PUBCHEM_CACTVS_TAUTO_COUNT>  (1) 
9

>  <PUBCHEM_CONFORMER_ID>  (1) 
0000500900000001

>  <PUBCHEM_MMFF94_ENERGY>  (1) 
75.1328

>  <PUBCHEM_FEATURE_SELFOVERLAP>  (1) 
40.625

>  <PUBCHEM_SHAPE_FINGERPRINT>  (1) 
10319926 262 18270097120819669882
10411042 1 17618222144760685247
10493431 412 18340775845266175681
10616163 171 18337673134979543886
10967382 1 18194401096006363383
12107183 9 18191576455283457354
12173636 292 18411131454832137164
12236239 1 17822285812122364458
12390115 104 18271261455418477593
12403259 415 17988360468488497032
12403260 363 18338790238434096646
12403814 3 17748820826137163013
13140716 1 18264493884219797427
13167823 11 18261388988268968018
138480 1 17257652214568407359
14739800 52 18051962908704866536
14767858 380 18270098177276298413
14790565 3 18269000790988206409
15042514 8 18120940761360843723
15196674 1 18409446999103166334
15256400 18 18338231553895026410
15442244 35 18334569123770859154
16087824 20 18413385455188700343
16945 1 18121497947694325071
17492 89 18335417985139230578
17834072 32 18410858750316093416
204376 136 18338519642667653369
20510252 161 18342179998354343426
20715895 44 18190733129385242741
21033648 29 17631715167679416344
21065198 48 18260823830828768746
21236236 1 18412543232510888095
21267235 1 18263087759387855410
23227448 37 18410291402231719949
23366157 5 18043532716309266682
23402539 116 18341040912950675742
23557571 272 18200887278428788284
23559900 14 18200316516278326998
25147074 1 18267567058063975819
283562 15 18338514261475194811
335352 9 18338234843787332006
350125 39 18339082696106601681
4214541 1 18409164433305093236
474 4 18337955567279793841
5104073 3 18334289890566539792
573450 72 18335128817769655786
59755656 215 18198347260745524590
633830 44 18271525282258375446
7064713 232 18410570669806463964
7364860 26 17981323391574764871
77779 3 18408603691006956118
9709674 26 18411423946954479958
9981440 41 18408321064684157395

>  <PUBCHEM_SHAPE_MULTIPOLES>  (1) 
402.82
10.18
2.99
0.74
7.39
0.9
-0.07
-5.67
-1.25
-2.97
-0.06
0.1
-0.18
-1.01

>  <PUBCHEM_SHAPE_SELFOVERLAP>  (1) 
895.734

>  <PUBCHEM_SHAPE_VOLUME>  (1) 
213.9

>  <PUBCHEM_COORDINATE_TYPE>  (1) 
2
5
10

$$$$
