20495
     RDKit          3D

 30 33  0  0  0  0  0  0  0  0999 V2000
    6.2254    4.1454    1.1924 Cl  0  0  0  0  0  0  0  0  0  0  0  0
    5.1461   -1.3941   -1.6271 S   0  0  0  0  0  0  0  0  0  0  0  0
   -8.5518   -0.9954    0.4364 O   0  0  0  0  0  0  0  0  0  0  0  0
   -1.7529    0.4456   -0.3120 N   0  0  0  0  0  0  0  0  0  0  0  0
   -4.5401    0.3966    0.4543 N   0  0  0  0  0  0  0  0  0  0  0  0
   -9.2413    0.9424   -0.6385 N   0  0  0  0  0  0  0  0  0  0  0  0
   -2.7488    1.2726   -1.0044 C   0  0  0  0  0  0  0  0  0  0  0  0
   -2.1567    0.2147    1.0804 C   0  0  0  0  0  0  0  0  0  0  0  0
   -4.1365    0.6254   -0.9383 C   0  0  0  0  0  0  0  0  0  0  0  0
   -3.5449   -0.4312    1.1466 C   0  0  0  0  0  0  0  0  0  0  0  0
   -0.4306    1.0653   -0.3732 C   0  0  0  0  0  0  0  0  0  0  0  0
   -5.8631   -0.2214    0.5166 C   0  0  0  0  0  0  0  0  0  0  0  0
    0.6035    0.1759    0.3161 C   0  0  0  0  0  0  0  0  0  0  0  0
   -6.9067    0.6940   -0.1150 C   0  0  0  0  0  0  0  0  0  0  0  0
    1.9669    0.7859    0.2449 C   0  0  0  0  0  0  0  0  0  0  0  0
    3.1057    0.0678    0.1960 C   0  0  0  0  0  0  0  0  0  0  0  0
   -8.3029    0.0996   -0.0610 C   0  0  0  0  0  0  0  0  0  0  0  0
    4.3984    0.7751   -0.0089 C   0  0  0  0  0  0  0  0  0  0  0  0
    3.0252   -1.4177    0.2128 C   0  0  0  0  0  0  0  0  0  0  0  0
    5.3901    0.1810   -0.8124 C   0  0  0  0  0  0  0  0  0  0  0  0
    3.9203   -2.1658   -0.5753 C   0  0  0  0  0  0  0  0  0  0  0  0
    4.6806    2.0022    0.6167 C   0  0  0  0  0  0  0  0  0  0  0  0
    2.1101   -2.1026    1.0315 C   0  0  0  0  0  0  0  0  0  0  0  0
    6.6158    0.8346   -1.0090 C   0  0  0  0  0  0  0  0  0  0  0  0
    3.8591   -3.5675   -0.5642 C   0  0  0  0  0  0  0  0  0  0  0  0
    5.9059    2.6409    0.4201 C   0  0  0  0  0  0  0  0  0  0  0  0
    2.0620   -3.4974    1.0403 C   0  0  0  0  0  0  0  0  0  0  0  0
    6.8704    2.0602   -0.3959 C   0  0  0  0  0  0  0  0  0  0  0  0
    2.9319   -4.2289    0.2393 C   0  0  0  0  0  0  0  0  0  0  0  0
  -10.6410    0.5968   -0.7093 C   0  0  0  0  0  0  0  0  0  0  0  0
  1 26  1  0
  2 20  1  0
  2 21  1  0
  3 17  2  0
  4  7  1  0
  4  8  1  0
  4 11  1  0
  5  9  1  0
  5 10  1  0
  5 12  1  0
  6 17  1  0
  6 30  1  0
  7  9  1  0
  8 10  1  0
 11 13  1  0
 12 14  1  0
 13 15  1  0
 14 17  1  0
 15 16  2  0
 16 18  1  0
 16 19  1  0
 18 20  2  0
 18 22  1  0
 19 21  2  0
 19 23  1  0
 20 24  1  0
 21 25  1  0
 22 26  2  0
 23 27  2  0
 24 28  2  0
 25 29  2  0
 26 28  1  0
 27 29  1  0
M  END
>  <PUBCHEM_COMPOUND_CID>  (1) 
20495

>  <PUBCHEM_CONFORMER_RMSD>  (1) 
1

>  <PUBCHEM_CONFORMER_DIVERSEORDER>  (1) 
1
67
127
130
81
88
85
73
108
50
63
120
92
111
69
110
70
118
6
83
62
57
90
40
112
123
124
80
125
11
75
132
131
20
117
78
96
3
42
32
101
53
95
121
60
49
74
65
107
106
93
16
72
89
86
122
128
84
115
126
82
99
71
68
100
45
109
48
97
52
47
113
58
66
28
104
10
91
34
36
41
4
29
119
43
116
114
31
25
54
103
30
37
79
35
59
7
98
2
33
64
12
129
105
15
61
39
44
24
51
76
87
23
46
94
22
38
56
21
55
27
5
9
8
13
102
77
14
26
19
18
17

>  <PUBCHEM_MMFF94_PARTIAL_CHARGES>  (1) 
39
1 -0.18
10 0.27
11 0.27
12 0.27
13 0.14
14 0.06
15 -0.29
16 -0.06
17 0.57
18 0.03
19 0.03
2 -0.2
20 0.1
21 0.1
22 -0.15
23 -0.15
24 -0.15
25 -0.15
26 0.18
27 -0.15
28 -0.15
29 -0.15
3 -0.57
30 0.3
4 -0.81
47 0.15
48 0.37
49 0.15
5 -0.81
50 0.15
51 0.15
52 0.15
53 0.15
54 0.15
55 0.15
6 -0.73
7 0.27
8 0.27
9 0.27

>  <PUBCHEM_EFFECTIVE_ROTOR_COUNT>  (1) 
8.4

>  <PUBCHEM_PHARMACOPHORE_FEATURES>  (1) 
8
1 3 acceptor
1 4 cation
1 5 cation
1 6 donor
6 18 20 22 24 26 28 rings
6 19 21 23 25 27 29 rings
6 2 16 18 19 20 21 rings
6 4 5 7 8 9 10 rings

>  <PUBCHEM_HEAVY_ATOM_COUNT>  (1) 
30

>  <PUBCHEM_ATOM_DEF_STEREO_COUNT>  (1) 
0

>  <PUBCHEM_ATOM_UDEF_STEREO_COUNT>  (1) 
0

>  <PUBCHEM_BOND_DEF_STEREO_COUNT>  (1) 
0

>  <PUBCHEM_BOND_UDEF_STEREO_COUNT>  (1) 
1

>  <PUBCHEM_ISOTOPIC_ATOM_COUNT>  (1) 
0

>  <PUBCHEM_COMPONENT_COUNT>  (1) 
1

>  <PUBCHEM_CACTVS_TAUTO_COUNT>  (1) 
2

>  <PUBCHEM_CONFORMER_ID>  (1) 
0000500F00000001

>  <PUBCHEM_MMFF94_ENERGY>  (1) 
82.1335

>  <PUBCHEM_FEATURE_SELFOVERLAP>  (1) 
40.627

>  <PUBCHEM_SHAPE_FINGERPRINT>  (1) 
10050765 1 18192711146767003009
10165383 225 18334298700140789868
10319688 140 18339644413141392398
10391435 84 18040716996459014339
10411042 1 17979075978067855590
10951579 204 17169271430408885661
11181472 205 17987807285639412153
11211813 74 18408039594429720365
12522641 33 18260831513818665274
12730499 353 18408890633693429362
13383665 225 17750251226203753981
13533116 47 18271804588709261003
13617811 41 17967822638663292573
13835254 42 18263081024510572341
14118638 360 18341896251793964601
14675020 138 16225764107853595323
150020 25 18336274495705776439
15183329 4 18334859360696956411
15439362 3 17839738502357816400
15510794 2 18113340813194506595
15890870 6 18338519767966341360
19315958 150 18408608072142772995
19427546 62 18338518672654020800
20771845 140 16988273172129912126
20775438 99 17320379486477968380
21049683 118 18194382611284774048
21360442 67 18335704957294018282
21360443 126 17968103061320384371
23516275 137 17702409319448808559
27425 322 18129381673904507108
3633792 109 18409733933321225985
4073 2 18337392746655744771
437795 51 18411705408544589562
45270241 37 18411141312098540805
45377200 153 16486969657486234351
4874694 18 18261387884747352723
5109719 28 18337960098618731584
57359948 33 17458347403494554703
59520757 100 17604440716095005138

>  <PUBCHEM_SHAPE_MULTIPOLES>  (1) 
602.29
27.25
3.96
1.16
80.85
2.43
-0.07
-13.71
-5.17
-11.48
1.13
-0.63
0.07
2.07

>  <PUBCHEM_SHAPE_SELFOVERLAP>  (1) 
1257.151

>  <PUBCHEM_SHAPE_VOLUME>  (1) 
342.9

>  <PUBCHEM_COORDINATE_TYPE>  (1) 
2
5
10

$$$$
