20493
     RDKit          3D

  9  8  0  0  1  0  0  0  0  0999 V2000
   -2.4066   -0.7597    0.4875 O   0  0  0  0  0  0  0  0  0  0  0  0
    1.1005    1.2389   -1.1322 O   0  0  0  0  0  0  0  0  0  0  0  0
   -1.8144    1.2323   -0.4150 O   0  0  0  0  0  0  0  0  0  0  0  0
   -0.0636   -0.2787    0.3576 C   0  0  0  0  0  0  0  0  0  0  0  0
    0.2615   -1.5507   -0.4374 C   0  0  0  0  0  0  0  0  0  0  0  0
    0.9713    0.7897    0.0063 C   0  0  0  0  0  0  0  0  0  0  0  0
    1.6223   -2.1396   -0.0931 C   0  0  0  0  0  0  0  0  0  0  0  0
   -1.4937    0.1627    0.0866 C   0  0  0  0  0  0  0  0  0  0  0  0
    1.8227    1.3052    1.1397 C   0  0  0  0  0  0  0  0  0  0  0  0
  1  8  1  0
  2  6  2  0
  3  8  2  0
  4  5  1  0
  4  6  1  0
  4  8  1  0
  5  7  1  0
  6  9  1  0
M  END
>  <PUBCHEM_COMPOUND_CID>  (1) 
20493

>  <PUBCHEM_CONFORMER_RMSD>  (1) 
0.6

>  <PUBCHEM_CONFORMER_DIVERSEORDER>  (1) 
1
2
7
14
13
30
21
18
11
26
6
29
28
16
23
10
24
22
8
12
20
17
5
15
19
27
31
9
25
4
3

>  <PUBCHEM_MMFF94_PARTIAL_CHARGES>  (1) 
8
1 -0.65
19 0.5
2 -0.57
3 -0.57
4 0.12
6 0.45
8 0.66
9 0.06

>  <PUBCHEM_EFFECTIVE_ROTOR_COUNT>  (1) 
3

>  <PUBCHEM_PHARMACOPHORE_FEATURES>  (1) 
6
1 1 acceptor
1 2 acceptor
1 3 acceptor
1 4 anion
1 7 hydrophobe
3 1 3 8 anion

>  <PUBCHEM_HEAVY_ATOM_COUNT>  (1) 
9

>  <PUBCHEM_ATOM_DEF_STEREO_COUNT>  (1) 
0

>  <PUBCHEM_ATOM_UDEF_STEREO_COUNT>  (1) 
1

>  <PUBCHEM_BOND_DEF_STEREO_COUNT>  (1) 
0

>  <PUBCHEM_BOND_UDEF_STEREO_COUNT>  (1) 
0

>  <PUBCHEM_ISOTOPIC_ATOM_COUNT>  (1) 
0

>  <PUBCHEM_COMPONENT_COUNT>  (1) 
1

>  <PUBCHEM_CACTVS_TAUTO_COUNT>  (1) 
5

>  <PUBCHEM_CONFORMER_ID>  (1) 
0000500D00000001

>  <PUBCHEM_MMFF94_ENERGY>  (1) 
8.6154

>  <PUBCHEM_FEATURE_SELFOVERLAP>  (1) 
30.752

>  <PUBCHEM_SHAPE_FINGERPRINT>  (1) 
12423570 1 9234787007840079810
21040471 1 18124320659839915072
23211744 41 17630882909547952336
23552423 10 18260840275757592951
24536 1 18186236225722019589
29004967 10 17983013349510061426
5084963 1 18339374070318037920

>  <PUBCHEM_SHAPE_MULTIPOLES>  (1) 
167.61
2.61
2.06
0.92
1.19
0.71
-0.04
-0.08
0.4
-1.2
-0.05
-0.24
-0.3
0.38

>  <PUBCHEM_SHAPE_SELFOVERLAP>  (1) 
315.44

>  <PUBCHEM_SHAPE_VOLUME>  (1) 
104.5

>  <PUBCHEM_COORDINATE_TYPE>  (1) 
2
5
10

$$$$
