20491
     RDKit          3D

 15 16  0  0  1  0  0  0  0  0999 V2000
    4.5929    0.5209   -0.1949 O   0  0  0  0  0  0  0  0  0  0  0  0
   -0.3073   -1.0754    1.6151 O   0  0  0  0  0  0  0  0  0  0  0  0
    1.8809   -0.3391   -0.1110 N   0  0  0  0  0  0  0  0  0  0  0  0
    0.4843   -0.2647   -0.5348 C   0  0  0  0  0  0  0  0  0  0  0  0
    2.3061    0.9236    0.5089 C   0  0  0  0  0  0  0  0  0  0  0  0
    2.7546   -0.6612   -1.2479 C   0  0  0  0  0  0  0  0  0  0  0  0
   -0.4376   -0.0180    0.6658 C   0  0  0  0  0  0  0  0  0  0  0  0
    3.7694    0.8266    0.9312 C   0  0  0  0  0  0  0  0  0  0  0  0
    4.2069   -0.7216   -0.7835 C   0  0  0  0  0  0  0  0  0  0  0  0
   -1.8882    0.0619    0.2434 C   0  0  0  0  0  0  0  0  0  0  0  0
   -2.4241    1.2899   -0.1049 C   0  0  0  0  0  0  0  0  0  0  0  0
   -2.6485   -1.0946    0.2136 C   0  0  0  0  0  0  0  0  0  0  0  0
   -3.7614    1.3637   -0.4946 C   0  0  0  0  0  0  0  0  0  0  0  0
   -3.9857   -1.0207   -0.1762 C   0  0  0  0  0  0  0  0  0  0  0  0
   -4.5421    0.2085   -0.5303 C   0  0  0  0  0  0  0  0  0  0  0  0
  1  8  1  0
  1  9  1  0
  2  7  1  0
  3  4  1  0
  3  5  1  0
  3  6  1  0
  4  7  1  0
  5  8  1  0
  6  9  1  0
  7 10  1  0
 10 11  2  0
 10 12  1  0
 11 13  1  0
 12 14  2  0
 13 15  2  0
 14 15  1  0
M  END
>  <PUBCHEM_COMPOUND_CID>  (1) 
20491

>  <PUBCHEM_CONFORMER_RMSD>  (1) 
0.6

>  <PUBCHEM_CONFORMER_DIVERSEORDER>  (1) 
1
10
7
9
2
11
13
8
12
3
5
4
6

>  <PUBCHEM_MMFF94_PARTIAL_CHARGES>  (1) 
21
1 -0.56
10 -0.14
11 -0.15
12 -0.15
13 -0.15
14 -0.15
15 -0.15
2 -0.68
27 0.15
28 0.15
29 0.4
3 -0.81
30 0.15
31 0.15
32 0.15
4 0.27
5 0.27
6 0.27
7 0.42
8 0.28
9 0.28

>  <PUBCHEM_EFFECTIVE_ROTOR_COUNT>  (1) 
4.2

>  <PUBCHEM_PHARMACOPHORE_FEATURES>  (1) 
6
1 1 acceptor
1 2 acceptor
1 2 donor
1 3 cation
6 1 3 5 6 8 9 rings
6 10 11 12 13 14 15 rings

>  <PUBCHEM_HEAVY_ATOM_COUNT>  (1) 
15

>  <PUBCHEM_ATOM_DEF_STEREO_COUNT>  (1) 
0

>  <PUBCHEM_ATOM_UDEF_STEREO_COUNT>  (1) 
1

>  <PUBCHEM_BOND_DEF_STEREO_COUNT>  (1) 
0

>  <PUBCHEM_BOND_UDEF_STEREO_COUNT>  (1) 
0

>  <PUBCHEM_ISOTOPIC_ATOM_COUNT>  (1) 
0

>  <PUBCHEM_COMPONENT_COUNT>  (1) 
1

>  <PUBCHEM_CACTVS_TAUTO_COUNT>  (1) 
1

>  <PUBCHEM_CONFORMER_ID>  (1) 
0000500B00000001

>  <PUBCHEM_MMFF94_ENERGY>  (1) 
36.391

>  <PUBCHEM_FEATURE_SELFOVERLAP>  (1) 
30.446

>  <PUBCHEM_SHAPE_FINGERPRINT>  (1) 
10680689 15 18408329895231427699
11287383 113 18202281437413076327
114248 4 18273495680183555669
11615757 297 16486976210598368442
12236239 1 16515400776572834161
12251169 10 9583514317812280283
12916748 109 18040438793424508561
13296908 3 18202567275918265215
13760787 5 15913329099923624265
14993402 34 16805606987978194039
15309172 13 15357698586987268323
1813 80 13614243706327685641
18186145 218 18341899567012325273
19026448 4 18272369780192316935
1986462 14 18410295800415095013
200 152 16630528418603297290
20279233 1 18343025492710232926
20281475 54 12751239185849757564
20300324 65 18408885148740526645
20645477 56 18409450246341444573
20645477 70 17703795777956791246
20871999 31 18200861955755330831
21065201 7 18334010583973351938
22485316 2 17275101743310574943
23402539 116 18260541242695886295
23402655 69 17846500322615534596
23557571 272 18342181063785943981
23559900 14 18411700963696627726
26918003 58 17203611479839677878
2838139 119 15141779771371090519
3268164 11 18187917387817593133
351380 180 18409725175339538184
4028521 119 18335134255135247773
4990 188 18411983537894783334
5281201 14 18273502260232053084
53428517 58 17918273164368596712
573450 72 17967801743667982835
57812782 119 18343302578166927052
633830 44 18186800292039753999
69090 78 18272649073436742471
74978 22 16733559341226889932
77779 3 18201721751518807517
9971528 1 17530685394883598478

>  <PUBCHEM_SHAPE_MULTIPOLES>  (1) 
291.97
9.76
1.27
1.06
2.1
0.13
0.19
0.46
-1.96
-0.32
-0.04
0.25
-0.14
1

>  <PUBCHEM_SHAPE_SELFOVERLAP>  (1) 
603.024

>  <PUBCHEM_SHAPE_VOLUME>  (1) 
166.9

>  <PUBCHEM_COORDINATE_TYPE>  (1) 
2
5
10

$$$$
