20498
     RDKit          3D

 10  9  0  0  1  0  0  0  0  0999 V2000
    2.3267   -0.7878    0.4802 O   0  0  0  0  0  0  0  0  0  0  0  0
   -1.6814    0.5673    0.1325 O   0  0  0  0  0  0  0  0  0  0  0  0
   -2.8363   -1.3570   -0.4154 O   0  0  0  0  0  0  0  0  0  0  0  0
    2.0501    0.3438   -0.3406 C   0  0  0  0  0  0  0  0  0  0  0  0
    0.6842    0.9311    0.0189 C   0  0  0  0  0  0  0  0  0  0  0  0
   -0.4522   -0.0597   -0.2084 C   0  0  0  0  0  0  0  0  0  0  0  0
    3.1640    1.3653   -0.1567 C   0  0  0  0  0  0  0  0  0  0  0  0
    3.5645   -1.3900    0.1323 C   0  0  0  0  0  0  0  0  0  0  0  0
   -2.8034   -0.1998   -0.0189 C   0  0  0  0  0  0  0  0  0  0  0  0
   -4.0164    0.5867    0.3761 C   0  0  0  0  0  0  0  0  0  0  0  0
  1  4  1  0
  1  8  1  0
  2  6  1  0
  2  9  1  0
  3  9  2  0
  4  5  1  0
  4  7  1  0
  5  6  1  0
  9 10  1  0
M  END
>  <PUBCHEM_COMPOUND_CID>  (1) 
20498

>  <PUBCHEM_CONFORMER_RMSD>  (1) 
0.6

>  <PUBCHEM_CONFORMER_DIVERSEORDER>  (1) 
1
90
108
122
91
106
110
139
40
77
5
83
74
18
126
68
100
73
127
60
123
26
82
101
9
25
107
86
52
65
45
62
134
39
30
138
129
96
104
88
130
125
23
53
109
57
8
121
120
115
16
102
142
32
119
72
71
105
14
113
29
98
22
92
141
20
50
112
64
89
94
33
59
93
12
43
135
13
87
10
55
42
95
54
7
17
67
15
133
37
46
3
114
136
44
69
140
66
85
124
31
103
49
34
128
78
111
28
99
35
6
81
61
117
84
75
80
137
132
48
118
58
38
70
36
2
56
47
116
4
97
21
11
63
41
76
79
131
27
24
143
19
51

>  <PUBCHEM_MMFF94_PARTIAL_CHARGES>  (1) 
8
1 -0.56
10 0.06
2 -0.43
3 -0.57
4 0.28
6 0.28
8 0.28
9 0.66

>  <PUBCHEM_EFFECTIVE_ROTOR_COUNT>  (1) 
5

>  <PUBCHEM_PHARMACOPHORE_FEATURES>  (1) 
2
1 1 acceptor
1 3 acceptor

>  <PUBCHEM_HEAVY_ATOM_COUNT>  (1) 
10

>  <PUBCHEM_ATOM_DEF_STEREO_COUNT>  (1) 
0

>  <PUBCHEM_ATOM_UDEF_STEREO_COUNT>  (1) 
1

>  <PUBCHEM_BOND_DEF_STEREO_COUNT>  (1) 
0

>  <PUBCHEM_BOND_UDEF_STEREO_COUNT>  (1) 
0

>  <PUBCHEM_ISOTOPIC_ATOM_COUNT>  (1) 
0

>  <PUBCHEM_COMPONENT_COUNT>  (1) 
1

>  <PUBCHEM_CACTVS_TAUTO_COUNT>  (1) 
1

>  <PUBCHEM_CONFORMER_ID>  (1) 
0000501200000001

>  <PUBCHEM_MMFF94_ENERGY>  (1) 
16.4351

>  <PUBCHEM_FEATURE_SELFOVERLAP>  (1) 
10.149

>  <PUBCHEM_SHAPE_FINGERPRINT>  (1) 
10130415 120 18272369745885488737
11062470 55 18342460361034835377
12932764 1 18407761443113813357
14325111 11 18410856589889235477
177051 138 18344144795457735558
18186145 218 17530679909492910259
190213 19 17603305964301989501
20279233 1 16443338810421664329
20645477 70 18409163290327185319
20711985 365 18266177236289722749
20871998 22 18196936565926312070
21293036 1 13551483544059797566
22485316 2 18411697698919992109
23402539 116 17917420992209376741
3248919 1 17458347489061466949
581208 293 18260544563164580720

>  <PUBCHEM_SHAPE_MULTIPOLES>  (1) 
188.19
7.5
1.37
0.66
2.63
0.17
0
0.77
0.49
-0.96
-0.02
0.01
0.01
-0.46

>  <PUBCHEM_SHAPE_SELFOVERLAP>  (1) 
344.501

>  <PUBCHEM_SHAPE_VOLUME>  (1) 
120.5

>  <PUBCHEM_COORDINATE_TYPE>  (1) 
2
5
10

$$$$
