20490
     RDKit          3D

 12 13  0  0  0  0  0  0  0  0999 V2000
   -1.5377   -0.1555    0.3490 C   0  0  0  0  0  0  0  0  0  0  0  0
    0.9109   -0.3606   -0.1917 C   0  0  0  0  0  0  0  0  0  0  0  0
   -0.3471   -1.0945    0.2689 C   0  0  0  0  0  0  0  0  0  0  0  0
   -1.8942    0.4797   -0.9914 C   0  0  0  0  0  0  0  0  0  0  0  0
   -2.8355   -0.8608    0.7301 C   0  0  0  0  0  0  0  0  0  0  0  0
    1.2481    0.7903    0.7659 C   0  0  0  0  0  0  0  0  0  0  0  0
    2.0917   -1.3332   -0.3141 C   0  0  0  0  0  0  0  0  0  0  0  0
   -3.3221    0.9804   -0.7970 C   0  0  0  0  0  0  0  0  0  0  0  0
   -3.9241    0.1254    0.3195 C   0  0  0  0  0  0  0  0  0  0  0  0
    2.5328    1.5067    0.3560 C   0  0  0  0  0  0  0  0  0  0  0  0
    3.3751   -0.6133   -0.7221 C   0  0  0  0  0  0  0  0  0  0  0  0
    3.7021    0.5355    0.2269 C   0  0  0  0  0  0  0  0  0  0  0  0
  1  3  1  0
  1  4  1  0
  1  5  1  0
  2  3  1  0
  2  6  1  0
  2  7  1  0
  4  8  1  0
  5  9  1  0
  6 10  1  0
  7 11  1  0
  8  9  1  0
 10 12  1  0
 11 12  1  0
M  END
>  <PUBCHEM_COMPOUND_CID>  (1) 
20490

>  <PUBCHEM_CONFORMER_RMSD>  (1) 
0.6

>  <PUBCHEM_CONFORMER_DIVERSEORDER>  (1) 
1
8
2
7
6
4
3
5

>  <PUBCHEM_MMFF94_PARTIAL_CHARGES>  (1) 
0

>  <PUBCHEM_EFFECTIVE_ROTOR_COUNT>  (1) 
4.2

>  <PUBCHEM_PHARMACOPHORE_FEATURES>  (1) 
2
5 1 4 5 8 9 rings
6 2 6 7 10 11 12 rings

>  <PUBCHEM_HEAVY_ATOM_COUNT>  (1) 
12

>  <PUBCHEM_ATOM_DEF_STEREO_COUNT>  (1) 
0

>  <PUBCHEM_ATOM_UDEF_STEREO_COUNT>  (1) 
0

>  <PUBCHEM_BOND_DEF_STEREO_COUNT>  (1) 
0

>  <PUBCHEM_BOND_UDEF_STEREO_COUNT>  (1) 
0

>  <PUBCHEM_ISOTOPIC_ATOM_COUNT>  (1) 
0

>  <PUBCHEM_COMPONENT_COUNT>  (1) 
1

>  <PUBCHEM_CACTVS_TAUTO_COUNT>  (1) 
1

>  <PUBCHEM_CONFORMER_ID>  (1) 
0000500A00000001

>  <PUBCHEM_MMFF94_ENERGY>  (1) 
13.2122

>  <PUBCHEM_FEATURE_SELFOVERLAP>  (1) 
10.149

>  <PUBCHEM_SHAPE_FINGERPRINT>  (1) 
10219947 1 17561086886648341750
10608611 8 18408319999284126597
11031198 65 18271810146191031588
11471102 20 18272369767639730868
124424 183 18333725797882765714
12654215 9 18412259511292661900
12932764 1 18333447642636427275
14144814 61 16702023075630773563
14325111 11 18410855481703316075
14993402 34 16630808815907259172
15219456 202 18409730668322888042
15653759 3 18040718073403814689
15775835 57 17846495967186322221
17844478 74 18334020496905564057
18175812 5 18335423486643326015
18186145 218 18343026570678419890
190213 19 17060340725252051647
20201158 50 18413109446270247738
20279233 1 18335138695761991107
20606313 2 18272369776319479184
20645464 45 18260827107540675379
20645477 70 18130790010254261390
20715346 28 18334579065881489147
21119208 17 16702304546270377397
21639500 275 17917421085944179344
23402539 116 17967523597280513294
23402655 69 18131912637269248109
25 1 18413108333799897494
3248919 1 16917352532357909719
57812782 119 18407758144515437915
69090 78 18341046402182903135
7364860 26 17970336023428634738
74978 22 16343411912281613095
77492 1 16415482644529651451
81228 2 17758111884049616347

>  <PUBCHEM_SHAPE_MULTIPOLES>  (1) 
246.95
7.18
1.34
0.94
1.09
0.04
0.08
1.01
0.32
-0.54
-0.03
0.24
0.06
0.86

>  <PUBCHEM_SHAPE_SELFOVERLAP>  (1) 
491.248

>  <PUBCHEM_SHAPE_VOLUME>  (1) 
141.7

>  <PUBCHEM_COORDINATE_TYPE>  (1) 
2
5
10

$$$$
