20502
     RDKit          3D

 19 21  0  0  1  0  0  0  0  0999 V2000
    0.0023    3.2728    0.6028 O   0  0  0  0  0  0  0  0  0  0  0  0
   -1.8143    2.1709   -1.0404 O   0  0  0  0  0  0  0  0  0  0  0  0
    1.5273    2.1309   -1.3189 O   0  0  0  0  0  0  0  0  0  0  0  0
   -0.6593    2.1066    1.0439 C   0  0  0  0  0  0  0  0  0  0  0  0
    0.8078    2.1294    0.9161 C   0  0  0  0  0  0  0  0  0  0  0  0
   -1.4919    1.4673   -0.0623 C   0  0  0  0  0  0  0  0  0  0  0  0
    1.4091    1.5055   -0.2678 C   0  0  0  0  0  0  0  0  0  0  0  0
   -1.8916    0.0725    0.0339 C   0  0  0  0  0  0  0  0  0  0  0  0
    1.8798    0.0941   -0.1827 C   0  0  0  0  0  0  0  0  0  0  0  0
   -1.5135   -0.6865    1.1414 C   0  0  0  0  0  0  0  0  0  0  0  0
    2.3268   -0.3820    1.0296 C   0  0  0  0  0  0  0  0  0  0  0  0
   -2.6527   -0.5066   -0.9814 C   0  0  0  0  0  0  0  0  0  0  0  0
    1.8509   -0.6823   -1.3198 C   0  0  0  0  0  0  0  0  0  0  0  0
   -1.8967   -2.0245    1.2336 C   0  0  0  0  0  0  0  0  0  0  0  0
    2.7678   -1.7030    1.1091 C   0  0  0  0  0  0  0  0  0  0  0  0
   -3.0359   -1.8446   -0.8893 C   0  0  0  0  0  0  0  0  0  0  0  0
    2.2918   -2.0032   -1.2403 C   0  0  0  0  0  0  0  0  0  0  0  0
   -2.6579   -2.6036    0.2182 C   0  0  0  0  0  0  0  0  0  0  0  0
    2.7502   -2.5136   -0.0258 C   0  0  0  0  0  0  0  0  0  0  0  0
  1  4  1  0
  1  5  1  0
  2  6  2  0
  3  7  2  0
  4  5  1  0
  4  6  1  0
  5  7  1  0
  6  8  1  0
  7  9  1  0
  8 10  2  0
  8 12  1  0
  9 11  2  0
  9 13  1  0
 10 14  1  0
 11 15  1  0
 12 16  2  0
 13 17  2  0
 14 18  2  0
 15 19  2  0
 16 18  1  0
 17 19  1  0
M  END
>  <PUBCHEM_COMPOUND_CID>  (1) 
20502

>  <PUBCHEM_CONFORMER_RMSD>  (1) 
0.6

>  <PUBCHEM_CONFORMER_DIVERSEORDER>  (1) 
2
8
169
45
168
112
19
29
90
11
84
82
170
76
20
78
171
63
25
9
157
89
117
61
92
51
149
166
21
47
5
86
66
128
22
106
48
137
121
58
120
101
124
33
151
70
42
81
115
132
39
27
102
108
14
113
24
10
94
16
17
83
159
122
43
6
52
119
37
118
110
65
15
103
64
28
152
146
142
85
136
44
79
96
53
32
26
7
77
91
80
98
23
162
3
69
54
135
18
55
73
35
153
38
97
133
67
49
109
148
130
34
46
144
36
71
50
74
12
164
87
165
13
160
154
161
143
104
88
150
145
59
116
31
30
62
100
155
60
163
156
134
56
75
41
99
40
105
1
139
57
158
4
125
126
141
93
123
129
147
95
111
131
72
127
167
68
140
114
107
138

>  <PUBCHEM_MMFF94_PARTIAL_CHARGES>  (1) 
31
1 -0.3
10 -0.15
11 -0.15
12 -0.15
13 -0.15
14 -0.15
15 -0.15
16 -0.15
17 -0.15
18 -0.15
19 -0.15
2 -0.57
20 0.1
21 0.1
22 0.15
23 0.15
24 0.15
25 0.15
26 0.15
27 0.15
28 0.15
29 0.15
3 -0.57
30 0.15
31 0.15
4 0.05
5 0.05
6 0.48
7 0.48
8 0.09
9 0.09

>  <PUBCHEM_EFFECTIVE_ROTOR_COUNT>  (1) 
4.6

>  <PUBCHEM_PHARMACOPHORE_FEATURES>  (1) 
5
1 1 acceptor
1 2 acceptor
1 3 acceptor
6 8 10 12 14 16 18 rings
6 9 11 13 15 17 19 rings

>  <PUBCHEM_HEAVY_ATOM_COUNT>  (1) 
19

>  <PUBCHEM_ATOM_DEF_STEREO_COUNT>  (1) 
0

>  <PUBCHEM_ATOM_UDEF_STEREO_COUNT>  (1) 
2

>  <PUBCHEM_BOND_DEF_STEREO_COUNT>  (1) 
0

>  <PUBCHEM_BOND_UDEF_STEREO_COUNT>  (1) 
0

>  <PUBCHEM_ISOTOPIC_ATOM_COUNT>  (1) 
0

>  <PUBCHEM_COMPONENT_COUNT>  (1) 
1

>  <PUBCHEM_CACTVS_TAUTO_COUNT>  (1) 
3

>  <PUBCHEM_CONFORMER_ID>  (1) 
0000501600000002

>  <PUBCHEM_MMFF94_ENERGY>  (1) 
52.3386

>  <PUBCHEM_FEATURE_SELFOVERLAP>  (1) 
25.386

>  <PUBCHEM_SHAPE_FINGERPRINT>  (1) 
11067466 332 17902799896049749492
12553582 1 18340497706793297051
128993 33 8862936212516704846
14081887 123 18196636429237514506
14178342 30 17764312039077227947
1420 336 18265615368588776379
14251740 79 15681710039509484030
15635459 17 17975977888595692243
16752209 62 17975977557655993241
16945 1 18114185284430307436
17492 54 16528085034789883175
18981168 100 12107797306237048438
20645476 183 17244733077231846754
20645477 70 17910387622120907695
20905425 154 18264481965479335226
21731516 1 18341065063372517138
22802520 49 18190731115445740745
23184049 29 18410008823300707794
23419403 2 17543009854514958412
23557571 272 18272360928544632906
23559900 14 18053084144118554338
23728640 28 17762904264276887026
238 59 17762888166992493687
257057 1 18340474608469390946
3060560 45 17547005690149509521
465052 167 17394496474152734777
495365 180 17697581548995661097
5262128 65 18409172120785317854
81228 2 18196936565229700704
90525 40 16961839614931788996

>  <PUBCHEM_SHAPE_MULTIPOLES>  (1) 
373.4
4.73
3.7
1.4
0.44
1.18
0.05
-3.8
0.48
0.03
-0.25
-0.17
-0.15
0.13

>  <PUBCHEM_SHAPE_SELFOVERLAP>  (1) 
816.691

>  <PUBCHEM_SHAPE_VOLUME>  (1) 
201.7

>  <PUBCHEM_COORDINATE_TYPE>  (1) 
2
5
10

$$$$
