20504
     RDKit          3D

 16 17  0  0  1  0  0  0  0  0999 V2000
    1.1569   -1.1673    0.0825 O   0  0  0  0  0  0  0  0  0  0  0  0
    1.5501    1.6874    0.0547 O   0  0  0  0  0  0  0  0  0  0  0  0
   -2.3312   -0.0079   -0.1986 N   0  0  0  0  0  0  0  0  0  0  0  0
    0.1134   -0.2407   -0.2492 C   0  0  0  0  0  0  0  0  0  0  0  0
   -1.2128   -0.8785    0.1378 C   0  0  0  0  0  0  0  0  0  0  0  0
    0.3355    1.0704    0.4932 C   0  0  0  0  0  0  0  0  0  0  0  0
   -3.5983   -0.6168    0.1828 C   0  0  0  0  0  0  0  0  0  0  0  0
   -4.7625    0.2922   -0.2076 C   0  0  0  0  0  0  0  0  0  0  0  0
    2.3975   -0.5891    0.0251 C   0  0  0  0  0  0  0  0  0  0  0  0
   -6.1049   -0.3384    0.1649 C   0  0  0  0  0  0  0  0  0  0  0  0
    2.5875    0.7942    0.0006 C   0  0  0  0  0  0  0  0  0  0  0  0
    3.4979   -1.4464    0.0014 C   0  0  0  0  0  0  0  0  0  0  0  0
   -7.2674    0.5757   -0.1883 C   0  0  0  0  0  0  0  0  0  0  0  0
    3.8761    1.3209   -0.0921 C   0  0  0  0  0  0  0  0  0  0  0  0
    4.7869   -0.9186   -0.0775 C   0  0  0  0  0  0  0  0  0  0  0  0
    4.9754    0.4629   -0.1296 C   0  0  0  0  0  0  0  0  0  0  0  0
  1  4  1  0
  1  9  1  0
  2  6  1  0
  2 11  1  0
  3  5  1  0
  3  7  1  0
  4  5  1  0
  4  6  1  0
  7  8  1  0
  8 10  1  0
  9 11  2  0
  9 12  1  0
 10 13  1  0
 11 14  1  0
 12 15  2  0
 14 16  2  0
 15 16  1  0
M  END
>  <PUBCHEM_COMPOUND_CID>  (1) 
20504

>  <PUBCHEM_CONFORMER_RMSD>  (1) 
0.6

>  <PUBCHEM_CONFORMER_DIVERSEORDER>  (1) 
1
85
93
44
33
59
74
91
90
3
68
67
31
54
34
15
78
87
45
94
72
24
46
11
52
10
80
48
35
17
14
43
84
25
47
88
92
2
61
64
77
18
39
21
69
86
27
30
81
49
41
76
29
23
96
32
20
42
79
50
83
70
53
62
26
63
57
55
95
71
97
40
60
4
28
37
16
58
73
51
5
75
36
66
38
19
13
89
82
9
56
8
12
22
7
65
6

>  <PUBCHEM_MMFF94_PARTIAL_CHARGES>  (1) 
18
1 -0.36
11 0.08
12 -0.15
14 -0.15
15 -0.15
16 -0.15
2 -0.36
24 0.36
29 0.15
3 -0.9
33 0.15
34 0.15
35 0.15
4 0.28
5 0.27
6 0.28
7 0.27
9 0.08

>  <PUBCHEM_EFFECTIVE_ROTOR_COUNT>  (1) 
5.8

>  <PUBCHEM_PHARMACOPHORE_FEATURES>  (1) 
7
1 1 acceptor
1 13 hydrophobe
1 2 acceptor
1 3 cation
1 3 donor
6 1 2 4 6 9 11 rings
6 9 11 12 14 15 16 rings

>  <PUBCHEM_HEAVY_ATOM_COUNT>  (1) 
16

>  <PUBCHEM_ATOM_DEF_STEREO_COUNT>  (1) 
0

>  <PUBCHEM_ATOM_UDEF_STEREO_COUNT>  (1) 
1

>  <PUBCHEM_BOND_DEF_STEREO_COUNT>  (1) 
0

>  <PUBCHEM_BOND_UDEF_STEREO_COUNT>  (1) 
0

>  <PUBCHEM_ISOTOPIC_ATOM_COUNT>  (1) 
0

>  <PUBCHEM_COMPONENT_COUNT>  (1) 
1

>  <PUBCHEM_CACTVS_TAUTO_COUNT>  (1) 
1

>  <PUBCHEM_CONFORMER_ID>  (1) 
0000501800000001

>  <PUBCHEM_MMFF94_ENERGY>  (1) 
29.4715

>  <PUBCHEM_FEATURE_SELFOVERLAP>  (1) 
35.562

>  <PUBCHEM_SHAPE_FINGERPRINT>  (1) 
10354089 29 18410856568440727259
10411042 1 18050003286852630898
106641 1 9583238298240510908
11287383 113 17968099754532591867
11471102 20 18411138052318602350
12236239 1 17775003496866833663
12916748 109 16225763004120729165
13167372 99 18271529693907505265
13533116 47 13829864473601521036
1420 363 17749394763175946955
15048467 5 18040719198986050244
17834072 33 18272367603081871263
17834072 8 18412549807615214606
200 152 18131632279447913865
20281389 69 18334856109148652817
20645477 70 18411700946168969286
21267235 1 18340492175555810926
212847 35 18413108381034027281
221357 26 18410569570511133661
23402539 116 17775280578308272117
23402655 69 18342454863613684319
23536379 177 18412545397316778283
23557571 272 17168141196109647543
29717793 49 17704359852795764540
300161 21 18060413646725174247
3014965 18 18261949648751833711
335352 9 18411421718024306326
3545911 37 18409730677477279563
4072396 5 18411127035880735634
4073 2 17968100875619712139
42788 4 18409730660360733399
4340502 62 16660640765323649258
4463277 17 18410575080937986253
5104073 3 18338796831151166787
522135 26 18410293614387595406
542803 24 17489872635609596827
59755656 520 17748823038805378467
8272917 22 18342460318011615086

>  <PUBCHEM_SHAPE_MULTIPOLES>  (1) 
312.55
15.18
1.37
0.63
26.32
0.13
-0.01
0.84
0.87
-1.36
-0.04
0.04
0.01
0.11

>  <PUBCHEM_SHAPE_SELFOVERLAP>  (1) 
640.187

>  <PUBCHEM_SHAPE_VOLUME>  (1) 
180.5

>  <PUBCHEM_COORDINATE_TYPE>  (1) 
2
5
10

$$$$
