20524
     RDKit          3D

  8  7  0  0  0  0  0  0  0  0999 V2000
   -2.5741   -1.0001   -0.6452 O   0  0  0  0  0  0  0  0  0  0  0  0
    2.8505   -1.2390   -0.0242 O   0  0  0  0  0  0  0  0  0  0  0  0
   -0.2752    0.9020   -0.3595 C   0  0  0  0  0  0  0  0  0  0  0  0
   -1.2063    0.4027    0.7650 C   0  0  0  0  0  0  0  0  0  0  0  0
    0.8811   -0.0574   -0.6979 C   0  0  0  0  0  0  0  0  0  0  0  0
    0.2480    2.3002   -0.0120 C   0  0  0  0  0  0  0  0  0  0  0  0
   -1.7898   -0.9883    0.5381 C   0  0  0  0  0  0  0  0  0  0  0  0
    1.8659   -0.3202    0.4357 C   0  0  0  0  0  0  0  0  0  0  0  0
  1  7  1  0
  2  8  1  0
  3  4  1  0
  3  5  1  0
  3  6  1  0
  4  7  1  0
  5  8  1  0
M  END
>  <PUBCHEM_COMPOUND_CID>  (1) 
20524

>  <PUBCHEM_CONFORMER_RMSD>  (1) 
0.6

>  <PUBCHEM_CONFORMER_DIVERSEORDER>  (1) 
1
30
5
32
22
25
11
37
23
10
16
27
26
8
6
18
15
35
21
31
20
3
33
12
28
4
24
36
2
17
13
29
7
14
19
34
9

>  <PUBCHEM_MMFF94_PARTIAL_CHARGES>  (1) 
6
1 -0.68
2 -0.68
21 0.4
22 0.4
7 0.28
8 0.28

>  <PUBCHEM_EFFECTIVE_ROTOR_COUNT>  (1) 
4

>  <PUBCHEM_PHARMACOPHORE_FEATURES>  (1) 
5
1 1 acceptor
1 1 donor
1 2 acceptor
1 2 donor
1 6 hydrophobe

>  <PUBCHEM_HEAVY_ATOM_COUNT>  (1) 
8

>  <PUBCHEM_ATOM_DEF_STEREO_COUNT>  (1) 
0

>  <PUBCHEM_ATOM_UDEF_STEREO_COUNT>  (1) 
0

>  <PUBCHEM_BOND_DEF_STEREO_COUNT>  (1) 
0

>  <PUBCHEM_BOND_UDEF_STEREO_COUNT>  (1) 
0

>  <PUBCHEM_ISOTOPIC_ATOM_COUNT>  (1) 
0

>  <PUBCHEM_COMPONENT_COUNT>  (1) 
1

>  <PUBCHEM_CACTVS_TAUTO_COUNT>  (1) 
1

>  <PUBCHEM_CONFORMER_ID>  (1) 
0000502C00000001

>  <PUBCHEM_MMFF94_ENERGY>  (1) 
7.9481

>  <PUBCHEM_FEATURE_SELFOVERLAP>  (1) 
25.371

>  <PUBCHEM_SHAPE_FINGERPRINT>  (1) 
137420 1 17108682987392675405
18185500 45 18335994128651150291
20651381 22 17846214513979684616
20653085 51 11747221212472100438
21040471 1 17543922200100074860
23552333 60 17842016655978636969
23552449 1 18267299833625054092
23552449 11 18268147741630926593
29004967 10 18263081166085184736

>  <PUBCHEM_SHAPE_MULTIPOLES>  (1) 
152.9
3.23
1.82
0.86
0.43
1.09
0
-2.28
-0.03
0.25
0
-0.17
-0.04
-0.14

>  <PUBCHEM_SHAPE_SELFOVERLAP>  (1) 
269.994

>  <PUBCHEM_SHAPE_VOLUME>  (1) 
100.4

>  <PUBCHEM_COORDINATE_TYPE>  (1) 
2
5
10

$$$$
