20522
     RDKit          3D

 19 20  0  0  0  0  0  0  0  0999 V2000
   -0.8584    1.8462    0.4825 S   0  0  0  0  0  0  0  0  0  0  0  0
    0.4669    1.3278   -0.3319 O   0  0  0  0  0  0  0  0  0  0  0  0
   -1.3665    3.0413   -0.1743 O   0  0  0  0  0  0  0  0  0  0  0  0
   -0.5184    1.8637    1.8987 O   0  0  0  0  0  0  0  0  0  0  0  0
    2.7280    1.4377   -1.1558 C   0  0  0  0  0  0  0  0  0  0  0  0
    1.6407    2.1260   -0.3380 C   0  0  0  0  0  0  0  0  0  0  0  0
    3.1222    0.1008   -0.5762 C   0  0  0  0  0  0  0  0  0  0  0  0
   -2.0504    0.5944    0.2377 C   0  0  0  0  0  0  0  0  0  0  0  0
   -2.1365   -0.4709    1.1343 C   0  0  0  0  0  0  0  0  0  0  0  0
   -2.9165    0.6588   -0.8539 C   0  0  0  0  0  0  0  0  0  0  0  0
   -3.9544   -1.4071   -0.1523 C   0  0  0  0  0  0  0  0  0  0  0  0
    4.1461    0.0396    0.3559 C   0  0  0  0  0  0  0  0  0  0  0  0
    2.4530   -1.0417   -0.9863 C   0  0  0  0  0  0  0  0  0  0  0  0
   -3.0883   -1.4716    0.9392 C   0  0  0  0  0  0  0  0  0  0  0  0
   -3.8685   -0.3419   -1.0489 C   0  0  0  0  0  0  0  0  0  0  0  0
    4.5104   -1.1956    0.8917 C   0  0  0  0  0  0  0  0  0  0  0  0
    2.8173   -2.2769   -0.4503 C   0  0  0  0  0  0  0  0  0  0  0  0
   -4.9726   -2.4767   -0.3608 C   0  0  0  0  0  0  0  0  0  0  0  0
    3.8459   -2.3538    0.4886 C   0  0  0  0  0  0  0  0  0  0  0  0
  1  2  1  0
  1  3  2  0
  1  4  2  0
  1  8  1  0
  2  6  1  0
  5  6  1  0
  5  7  1  0
  7 12  2  0
  7 13  1  0
  8  9  2  0
  8 10  1  0
  9 14  1  0
 10 15  2  0
 11 14  2  0
 11 15  1  0
 11 18  1  0
 12 16  1  0
 13 17  2  0
 16 19  2  0
 17 19  1  0
M  END
>  <PUBCHEM_COMPOUND_CID>  (1) 
20522

>  <PUBCHEM_CONFORMER_RMSD>  (1) 
0.6

>  <PUBCHEM_CONFORMER_DIVERSEORDER>  (1) 
1
10
7
16
3
5
6
9
8
15
2
12
4
11
14
13
17

>  <PUBCHEM_MMFF94_PARTIAL_CHARGES>  (1) 
28
1 1.49
10 -0.15
11 -0.14
12 -0.15
13 -0.15
14 -0.15
15 -0.15
16 -0.15
17 -0.15
18 0.14
19 -0.15
2 -0.46
24 0.15
25 0.15
26 0.15
27 0.15
28 0.15
29 0.15
3 -0.65
30 0.15
31 0.15
35 0.15
4 -0.65
5 0.14
6 0.28
7 -0.14
8 -0.01
9 -0.15

>  <PUBCHEM_EFFECTIVE_ROTOR_COUNT>  (1) 
5

>  <PUBCHEM_PHARMACOPHORE_FEATURES>  (1) 
4
1 3 acceptor
1 4 acceptor
6 7 12 13 16 17 19 rings
6 8 9 10 11 14 15 rings

>  <PUBCHEM_HEAVY_ATOM_COUNT>  (1) 
19

>  <PUBCHEM_ATOM_DEF_STEREO_COUNT>  (1) 
0

>  <PUBCHEM_ATOM_UDEF_STEREO_COUNT>  (1) 
0

>  <PUBCHEM_BOND_DEF_STEREO_COUNT>  (1) 
0

>  <PUBCHEM_BOND_UDEF_STEREO_COUNT>  (1) 
0

>  <PUBCHEM_ISOTOPIC_ATOM_COUNT>  (1) 
0

>  <PUBCHEM_COMPONENT_COUNT>  (1) 
1

>  <PUBCHEM_CACTVS_TAUTO_COUNT>  (1) 
1

>  <PUBCHEM_CONFORMER_ID>  (1) 
0000502A00000001

>  <PUBCHEM_MMFF94_ENERGY>  (1) 
33.8242

>  <PUBCHEM_FEATURE_SELFOVERLAP>  (1) 
20.314

>  <PUBCHEM_SHAPE_FINGERPRINT>  (1) 
10447042 23 18339915013054324230
10730089 43 11959466595097274195
10764073 3 17247841388805420377
11118852 30 18060421343633993654
12346177 29 18119528743522197812
12363563 72 18409737256850270902
12553582 1 18338818761238030184
12596599 1 18054799377546003970
12824470 246 18272097114499836577
128993 33 9366763158296426954
13083527 12 18410004477326749000
13911987 19 17538868165970374372
14178342 30 17985839129169720712
1420 369 18413673512778230382
14251705 54 18412268302784950238
14251757 17 17895184524155634083
14848160 33 18409451413870981150
15099037 8 18337115579130428472
15342168 16 9078847281283213931
15342816 4 18198919169526160109
15352361 1 18409164411281883958
17492 89 18339080393582741982
17834072 14 18334571317976725988
18186145 218 11458434535134532534
19141452 34 18193841435708435457
192875 21 18260547797174818802
20621476 51 17755282488786909042
20626108 58 18334001800997346784
20645477 70 18188207722905672484
20671657 53 18260831505228750325
21250096 35 18343863329345051595
21315764 371 15410609324495024375
21452121 199 18409162242555735616
23403322 49 18408038524613150231
23526113 38 18042121132341257305
23557571 272 17844808092526169146
23559900 14 18408595981282918056
27216 239 10663814191980400453
3004659 81 18186517721909835742
312425 83 16732984214972750102
339767 52 18338219501784413570
463206 1 18266457805308175103
5161694 15 16515687736328205374
556388 4 18408884074461106607
6433294 58 18048883184312750971
7808743 9 10447629336687394602
9709674 26 18260834803800342386

>  <PUBCHEM_SHAPE_MULTIPOLES>  (1) 
377.25
9.93
3.09
1.22
0.87
0.4
-0.22
-7.77
0.63
0.04
-0.1
0.1
0.17
-0.61

>  <PUBCHEM_SHAPE_SELFOVERLAP>  (1) 
781.801

>  <PUBCHEM_SHAPE_VOLUME>  (1) 
215.6

>  <PUBCHEM_COORDINATE_TYPE>  (1) 
2
5
10

$$$$
