20530
     RDKit          3D

 15 14  0  0  1  0  0  0  0  0999 V2000
    4.3616    2.3134    1.5452 Cl  0  0  0  0  0  0  0  0  0  0  0  0
    1.3372   -3.8347    0.8750 Cl  0  0  0  0  0  0  0  0  0  0  0  0
    0.2390    0.2069   -1.1889 P   0  0  0  0  0  0  0  0  0  0  0  0
    0.3383    1.6930   -1.8523 O   0  0  0  0  0  0  0  0  0  0  0  0
   -0.0429   -0.8192   -2.2607 O   0  0  0  0  0  0  0  0  0  0  0  0
   -5.5697    0.2438    1.4043 O   0  0  0  0  0  0  0  0  0  0  0  0
    1.6798   -0.0143   -0.3641 N   0  0  0  0  0  0  0  0  0  0  0  0
   -0.9480    0.3603   -0.0315 N   0  0  0  0  0  0  0  0  0  0  0  0
    2.2287    1.1501    0.3389 C   0  0  0  0  0  0  0  0  0  0  0  0
    1.7775   -1.1823    0.5160 C   0  0  0  0  0  0  0  0  0  0  0  0
   -2.3240    0.5658   -0.4558 C   0  0  0  0  0  0  0  0  0  0  0  0
   -3.2794    0.3166    0.7068 C   0  0  0  0  0  0  0  0  0  0  0  0
    3.6929    0.9125    0.6745 C   0  0  0  0  0  0  0  0  0  0  0  0
    1.2400   -2.4151   -0.1942 C   0  0  0  0  0  0  0  0  0  0  0  0
   -4.7311    0.5031    0.2868 C   0  0  0  0  0  0  0  0  0  0  0  0
  1 13  1  0
  2 14  1  0
  3  4  1  0
  3  5  2  0
  3  7  1  0
  3  8  1  0
  6 15  1  0
  7  9  1  0
  7 10  1  0
  8 11  1  0
  9 13  1  0
 10 14  1  0
 11 12  1  0
 12 15  1  0
M  END
>  <PUBCHEM_COMPOUND_CID>  (1) 
20530

>  <PUBCHEM_CONFORMER_RMSD>  (1) 
0.8

>  <PUBCHEM_CONFORMER_DIVERSEORDER>  (1) 
1
11
175
116
49
71
109
13
144
130
5
125
155
104
107
171
32
159
47
176
157
55
51
65
6
121
50
44
79
128
126
83
85
40
90
132
31
120
69
38
124
28
68
86
16
2
127
102
141
91
9
122
80
58
105
22
118
54
129
10
145
162
98
152
150
139
34
67
97
148
70
63
81
12
62
20
173
3
134
7
177
76
133
75
21
72
53
165
172
164
131
41
60
95
33
64
57
27
59
88
77
42
19
96
140
84
92
29
8
15
101
73
14
61
117
36
48
52
103
4
82
111
169
136
170
151
153
147
114
18
142
46
112
23
156
115
74
17
146
166
123
99
89
93
108
87
137
56
135
39
100
78
45
37
174
158
66
143
24
110
119
160
35
94
168
43
30
138
106
154
149
25
26
163
113
161
167

>  <PUBCHEM_MMFF94_PARTIAL_CHARGES>  (1) 
17
1 -0.29
10 0.27
11 0.27
13 0.29
14 0.29
15 0.28
2 -0.29
20 0.36
3 1.51
31 0.5
32 0.4
4 -0.77
5 -0.7
6 -0.68
7 -0.81
8 -0.9
9 0.27

>  <PUBCHEM_EFFECTIVE_ROTOR_COUNT>  (1) 
9

>  <PUBCHEM_PHARMACOPHORE_FEATURES>  (1) 
2
1 6 acceptor
1 6 donor

>  <PUBCHEM_HEAVY_ATOM_COUNT>  (1) 
15

>  <PUBCHEM_ATOM_DEF_STEREO_COUNT>  (1) 
0

>  <PUBCHEM_ATOM_UDEF_STEREO_COUNT>  (1) 
0

>  <PUBCHEM_BOND_DEF_STEREO_COUNT>  (1) 
0

>  <PUBCHEM_BOND_UDEF_STEREO_COUNT>  (1) 
0

>  <PUBCHEM_ISOTOPIC_ATOM_COUNT>  (1) 
0

>  <PUBCHEM_COMPONENT_COUNT>  (1) 
1

>  <PUBCHEM_CACTVS_TAUTO_COUNT>  (1) 
2

>  <PUBCHEM_CONFORMER_ID>  (1) 
0000503200000001

>  <PUBCHEM_MMFF94_ENERGY>  (1) 
-1.2054

>  <PUBCHEM_FEATURE_SELFOVERLAP>  (1) 
10.148

>  <PUBCHEM_SHAPE_FINGERPRINT>  (1) 
122479 349 17843678005337852120
12596602 18 17774739618840958923
12616999 72 17314256426133593111
13533116 47 18265062336669390243
14178342 30 18261396701887988811
14252887 29 17968384450750553497
14863182 85 17968394380467521859
15142526 21 18058441187295002033
15502708 68 18409719652196081978
18380122 1 17968363551365968068
20344682 10 18408879663672177004
204376 136 18338792428904509712
20871998 22 17822579274590071415
22224240 67 18338512044680700416
23557571 272 17168985582575049133
23558518 356 17552620866026254576
298252 57 16486691484748314972
31174 14 18193551173233691182
3250762 1 17683786736510785676
56616090 13 17058921350604823208
57003041 14 17613721409981346790
59755656 520 18338788044338856632
633830 44 18131346453574731212
9999458 23 18342179960084668644

>  <PUBCHEM_SHAPE_MULTIPOLES>  (1) 
288.71
8.41
3.07
1.61
10.24
4
-0.67
-5.91
6.02
-3.93
1.12
0.11
-0.31
0.56

>  <PUBCHEM_SHAPE_SELFOVERLAP>  (1) 
502.636

>  <PUBCHEM_SHAPE_VOLUME>  (1) 
192.4

>  <PUBCHEM_COORDINATE_TYPE>  (1) 
2
5
10

$$$$
