20532
     RDKit          3D

 21 23  0  0  0  0  0  0  0  0999 V2000
    0.4708    2.4474   -0.9051 O   0  0  0  0  0  0  0  0  0  0  0  0
   -0.4842    0.3349   -0.9924 N   0  0  0  0  0  0  0  0  0  0  0  0
    1.0762   -0.9621    1.2578 N   0  0  0  0  0  0  0  0  0  0  0  0
   -4.0784    1.7590    1.0670 N   0  0  0  0  0  0  0  0  0  0  0  0
   -1.6081    0.8947   -1.7623 C   0  0  0  0  0  0  0  0  0  0  0  0
   -2.9046    0.9413   -0.9561 C   0  0  0  0  0  0  0  0  0  0  0  0
   -0.6107   -1.0412   -0.5783 C   0  0  0  0  0  0  0  0  0  0  0  0
    0.0486   -1.5876    0.5355 C   0  0  0  0  0  0  0  0  0  0  0  0
    0.5626    1.2287   -0.7153 C   0  0  0  0  0  0  0  0  0  0  0  0
    1.8943    0.7814   -0.2655 C   0  0  0  0  0  0  0  0  0  0  0  0
   -2.8180    1.7613    0.3343 C   0  0  0  0  0  0  0  0  0  0  0  0
    2.0885   -0.1456    0.7512 C   0  0  0  0  0  0  0  0  0  0  0  0
   -1.5459   -1.8702   -1.2488 C   0  0  0  0  0  0  0  0  0  0  0  0
   -0.2705   -2.9066    0.9499 C   0  0  0  0  0  0  0  0  0  0  0  0
    2.9993    1.4729   -0.8029 C   0  0  0  0  0  0  0  0  0  0  0  0
    3.4004   -0.3542    1.2270 C   0  0  0  0  0  0  0  0  0  0  0  0
   -1.8339   -3.1724   -0.8344 C   0  0  0  0  0  0  0  0  0  0  0  0
   -1.2009   -3.6907    0.2780 C   0  0  0  0  0  0  0  0  0  0  0  0
    4.2899    1.2438   -0.3305 C   0  0  0  0  0  0  0  0  0  0  0  0
    4.4907    0.3331    0.6952 C   0  0  0  0  0  0  0  0  0  0  0  0
   -3.9663    2.5321    2.2959 C   0  0  0  0  0  0  0  0  0  0  0  0
  1  9  2  0
  2  5  1  0
  2  7  1  0
  2  9  1  0
  3  8  1  0
  3 12  1  0
  4 11  1  0
  4 21  1  0
  5  6  1  0
  6 11  1  0
  7  8  2  0
  7 13  1  0
  8 14  1  0
  9 10  1  0
 10 12  2  0
 10 15  1  0
 12 16  1  0
 13 17  2  0
 14 18  2  0
 15 19  2  0
 16 20  2  0
 17 18  1  0
 19 20  1  0
M  END
>  <PUBCHEM_COMPOUND_CID>  (1) 
20532

>  <PUBCHEM_CONFORMER_RMSD>  (1) 
0.6

>  <PUBCHEM_CONFORMER_DIVERSEORDER>  (1) 
1
29
28
14
2
32
10
6
3
7
11
26
31
30
5
21
17
24
13
9
16
25
23
19
8
15
12
18
20
22
4
27

>  <PUBCHEM_MMFF94_PARTIAL_CHARGES>  (1) 
30
1 -0.57
10 0.09
11 0.27
12 0.1
13 -0.15
14 -0.15
15 -0.15
16 -0.15
17 -0.15
18 -0.15
19 -0.15
2 -0.48
20 -0.15
21 0.27
28 0.4
29 0.15
3 -0.6
30 0.15
31 0.15
32 0.15
33 0.15
34 0.36
35 0.15
36 0.15
37 0.15
4 -0.9
5 0.3
7 0.12
8 0.1
9 0.54

>  <PUBCHEM_EFFECTIVE_ROTOR_COUNT>  (1) 
4.4

>  <PUBCHEM_PHARMACOPHORE_FEATURES>  (1) 
8
1 1 acceptor
1 3 cation
1 3 donor
1 4 cation
1 4 donor
6 10 12 15 16 19 20 rings
6 7 8 13 14 17 18 rings
7 2 3 7 8 9 10 12 rings

>  <PUBCHEM_HEAVY_ATOM_COUNT>  (1) 
21

>  <PUBCHEM_ATOM_DEF_STEREO_COUNT>  (1) 
0

>  <PUBCHEM_ATOM_UDEF_STEREO_COUNT>  (1) 
0

>  <PUBCHEM_BOND_DEF_STEREO_COUNT>  (1) 
0

>  <PUBCHEM_BOND_UDEF_STEREO_COUNT>  (1) 
0

>  <PUBCHEM_ISOTOPIC_ATOM_COUNT>  (1) 
0

>  <PUBCHEM_COMPONENT_COUNT>  (1) 
1

>  <PUBCHEM_CACTVS_TAUTO_COUNT>  (1) 
2

>  <PUBCHEM_CONFORMER_ID>  (1) 
0000503400000001

>  <PUBCHEM_MMFF94_ENERGY>  (1) 
89.636

>  <PUBCHEM_FEATURE_SELFOVERLAP>  (1) 
40.612

>  <PUBCHEM_SHAPE_FINGERPRINT>  (1) 
10382601 240 18052547564736484649
104564 63 18192150618800349982
10493431 412 18409444778130703920
1100329 8 18265329702377950237
11578080 2 17126817249859848084
12715332 25 18262790771136601114
12788726 201 18124885809096407287
13134695 92 17189818377543031871
13140716 1 18188188958541800610
13583140 156 16081914963258844476
14251757 17 14836115512282901601
14790565 3 18261376828874097701
15309172 13 18262512598462499725
15475509 84 17248953355828123587
16752209 62 17973974487951703975
17138139 8 17839703202431885167
19591789 44 17904188240392611342
20157964 124 17905035964433205213
20261772 1 18187364328746735504
20739085 24 17974583402724260864
20775438 99 15675719479070442742
21041028 32 17830465238278280155
21731228 192 18410579444408338353
2334 1 18042945722975337494
23419403 2 17554655795814296679
23557571 272 18196641007851733392
23558518 356 17829903374635203644
23559900 14 18337652202004905520
2748010 2 16966006776870371670
427121 178 18058184842509270441
5104073 3 18263911298445961232
6438718 38 18342177833638228158
81228 2 17899686040554853002

>  <PUBCHEM_SHAPE_MULTIPOLES>  (1) 
411.36
6.78
3.79
1.63
3.71
2.91
-0.35
-5.26
-2.38
-4.14
-0.69
-1.19
-0.67
-2.09

>  <PUBCHEM_SHAPE_SELFOVERLAP>  (1) 
883.044

>  <PUBCHEM_SHAPE_VOLUME>  (1) 
225.5

>  <PUBCHEM_COORDINATE_TYPE>  (1) 
2
5
10

$$$$
