20545
     RDKit          3D

 23 24  0  0  1  0  0  0  0  0999 V2000
   -4.5053    2.8834   -0.4320 O   0  0  0  0  0  0  0  0  0  0  0  0
    5.4962    1.9180    0.5132 O   0  0  0  0  0  0  0  0  0  0  0  0
    0.1025   -1.5765    0.2455 C   0  0  0  0  0  0  0  0  0  0  0  0
   -1.4380   -1.8261    0.0622 C   0  0  0  0  0  0  0  0  0  0  0  0
    0.7371   -0.7576   -0.9096 C   0  0  0  0  0  0  0  0  0  0  0  0
    0.9077   -2.8818    0.4791 C   0  0  0  0  0  0  0  0  0  0  0  0
   -1.9892   -2.7942    1.1422 C   0  0  0  0  0  0  0  0  0  0  0  0
   -2.2673   -0.5535   -0.0711 C   0  0  0  0  0  0  0  0  0  0  0  0
    2.0131   -0.0404   -0.5278 C   0  0  0  0  0  0  0  0  0  0  0  0
    0.8852   -3.8418   -0.7036 C   0  0  0  0  0  0  0  0  0  0  0  0
   -3.3903   -3.3064    0.8225 C   0  0  0  0  0  0  0  0  0  0  0  0
   -2.9545   -0.3288   -1.2446 C   0  0  0  0  0  0  0  0  0  0  0  0
   -2.3014    0.3303    0.9861 C   0  0  0  0  0  0  0  0  0  0  0  0
    1.9404    1.2474   -0.0257 C   0  0  0  0  0  0  0  0  0  0  0  0
    3.2261   -0.6874   -0.6896 C   0  0  0  0  0  0  0  0  0  0  0  0
   -3.7123    0.8360   -1.3667 C   0  0  0  0  0  0  0  0  0  0  0  0
   -3.0593    1.4949    0.8640 C   0  0  0  0  0  0  0  0  0  0  0  0
   -3.7648    1.7477   -0.3123 C   0  0  0  0  0  0  0  0  0  0  0  0
    3.1172    1.9088    0.3255 C   0  0  0  0  0  0  0  0  0  0  0  0
    4.4029   -0.0259   -0.3382 C   0  0  0  0  0  0  0  0  0  0  0  0
    4.3485    1.2721    0.1693 C   0  0  0  0  0  0  0  0  0  0  0  0
   -4.5152    3.7727    0.6836 C   0  0  0  0  0  0  0  0  0  0  0  0
    6.7205    1.2092    0.3279 C   0  0  0  0  0  0  0  0  0  0  0  0
  1 18  1  0
  1 22  1  0
  2 21  1  0
  2 23  1  0
  3  4  1  0
  3  5  1  0
  3  6  1  0
  4  7  1  0
  4  8  1  0
  5  9  1  0
  6 10  1  0
  7 11  1  0
  8 12  2  0
  8 13  1  0
  9 14  2  0
  9 15  1  0
 12 16  1  0
 13 17  2  0
 14 19  1  0
 15 20  2  0
 16 18  2  0
 17 18  1  0
 19 21  2  0
 20 21  1  0
M  END
>  <PUBCHEM_COMPOUND_CID>  (1) 
20545

>  <PUBCHEM_CONFORMER_RMSD>  (1) 
0.8

>  <PUBCHEM_CONFORMER_DIVERSEORDER>  (1) 
2
31
41
27
49
85
28
81
50
25
66
42
29
56
34
69
58
30
84
57
36
3
77
61
19
52
68
8
6
76
9
32
59
22
26
21
78
83
4
16
74
65
40
7
67
33
63
62
45
13
71
38
53
64
18
39
1
23
73
5
14
79
72
24
51
82
75
11
10
15
70
55
37
48
46
80
47
44
60
12
20
17
35
54
43

>  <PUBCHEM_MMFF94_PARTIAL_CHARGES>  (1) 
26
1 -0.36
12 -0.15
13 -0.15
14 -0.15
15 -0.15
16 -0.15
17 -0.15
18 0.08
19 -0.15
2 -0.36
20 -0.15
21 0.08
22 0.28
23 0.28
38 0.15
39 0.15
4 0.14
40 0.15
41 0.15
42 0.15
43 0.15
44 0.15
45 0.15
5 0.14
8 -0.14
9 -0.14

>  <PUBCHEM_EFFECTIVE_ROTOR_COUNT>  (1) 
8

>  <PUBCHEM_PHARMACOPHORE_FEATURES>  (1) 
7
1 1 acceptor
1 10 hydrophobe
1 11 hydrophobe
1 2 acceptor
5 3 4 5 6 7 hydrophobe
6 8 12 13 16 17 18 rings
6 9 14 15 19 20 21 rings

>  <PUBCHEM_HEAVY_ATOM_COUNT>  (1) 
23

>  <PUBCHEM_ATOM_DEF_STEREO_COUNT>  (1) 
0

>  <PUBCHEM_ATOM_UDEF_STEREO_COUNT>  (1) 
2

>  <PUBCHEM_BOND_DEF_STEREO_COUNT>  (1) 
0

>  <PUBCHEM_BOND_UDEF_STEREO_COUNT>  (1) 
0

>  <PUBCHEM_ISOTOPIC_ATOM_COUNT>  (1) 
0

>  <PUBCHEM_COMPONENT_COUNT>  (1) 
1

>  <PUBCHEM_CACTVS_TAUTO_COUNT>  (1) 
1

>  <PUBCHEM_CONFORMER_ID>  (1) 
0000504100000002

>  <PUBCHEM_MMFF94_ENERGY>  (1) 
81.427

>  <PUBCHEM_FEATURE_SELFOVERLAP>  (1) 
35.551

>  <PUBCHEM_SHAPE_FINGERPRINT>  (1) 
1100329 8 16896803463494152500
11370993 70 18410571786180956132
12107183 9 18189322486616600906
12403259 415 18340219547979608550
12633257 1 17970051271639621546
12788726 201 17754753936714546019
12930653 34 18409172133828624799
13140716 1 18335138648929372794
13464514 151 18340208466499839215
13965767 371 17968373438333119628
14142880 1 18334009519296184039
14178342 30 18187656824741526455
14251751 93 18334857276720225330
14251764 38 18339923830691183108
14466204 15 18410849967487729560
14713325 29 18335423525419539643
15042514 8 17759808430597152826
20510252 161 18194688287421502091
21033648 144 18260819376277991190
21033648 29 17169269235438081613
21279426 13 18343032069233519798
21401589 2 18411707552171438913
21421861 104 17750500803475669482
22122407 14 17476094423675273457
22182937 141 18410299112035411689
23402539 116 18054789756345027015
23558518 356 18187093849351124027
23845131 108 18116157663173961259
283562 15 18263641930449645211
2838139 119 18201993344309013684
3380486 145 18120671377292130155
350125 39 18193002731631939650
474 4 18194115206072434331
5104073 3 18187083910284617914
5895379 119 16909750277082822401
6328613 192 18262801886966365036
633830 44 18342453703998836694
7288768 16 18187088304542401201
84936 182 18268985380660430537
9981440 41 18411414020720472419

>  <PUBCHEM_SHAPE_MULTIPOLES>  (1) 
461.59
11.49
4.45
1.09
13.06
1.6
0.1
-11.33
-0.81
-4.61
-0.94
-0.79
0.16
1

>  <PUBCHEM_SHAPE_SELFOVERLAP>  (1) 
954.613

>  <PUBCHEM_SHAPE_VOLUME>  (1) 
265.8

>  <PUBCHEM_COORDINATE_TYPE>  (1) 
2
5
10

$$$$
