20548
     RDKit          3D

 10  9  0  0  0  0  0  0  0  0999 V2000
   -1.0109    0.1355   -0.3186 O   0  0  0  0  0  0  0  0  0  0  0  0
   -4.6067    0.0891    0.1993 O   0  0  0  0  0  0  0  0  0  0  0  0
    1.4083    0.3416   -0.3365 C   0  0  0  0  0  0  0  0  0  0  0  0
    2.5911    0.9615    0.4329 C   0  0  0  0  0  0  0  0  0  0  0  0
    1.5580   -1.1713   -0.6122 C   0  0  0  0  0  0  0  0  0  0  0  0
    0.0955    0.6782    0.3891 C   0  0  0  0  0  0  0  0  0  0  0  0
    3.9372    0.7733   -0.2518 C   0  0  0  0  0  0  0  0  0  0  0  0
    1.6457   -2.0497    0.6282 C   0  0  0  0  0  0  0  0  0  0  0  0
   -2.2399    0.4224    0.3349 C   0  0  0  0  0  0  0  0  0  0  0  0
   -3.3783   -0.1805   -0.4654 C   0  0  0  0  0  0  0  0  0  0  0  0
  1  6  1  0
  1  9  1  0
  2 10  1  0
  3  4  1  0
  3  5  1  0
  3  6  1  0
  4  7  1  0
  5  8  1  0
  9 10  1  0
M  END
>  <PUBCHEM_COMPOUND_CID>  (1) 
20548

>  <PUBCHEM_CONFORMER_RMSD>  (1) 
0.6

>  <PUBCHEM_CONFORMER_DIVERSEORDER>  (1) 
2
78
69
9
81
95
84
4
85
92
90
72
8
70
39
93
45
76
86
80
89
10
94
57
37
66
75
3
19
11
29
87
33
73
71
24
83
60
20
1
15
68
56
30
41
25
51
26
46
79
91
22
43
27
32
38
31
59
58
82
23
40
77
63
34
65
88
49
21
28
42
13
47
74
52
54
44
62
53
67
5
14
36
64
12
50
7
16
17
61
18
6
35
55
48

>  <PUBCHEM_MMFF94_PARTIAL_CHARGES>  (1) 
6
1 -0.56
10 0.28
2 -0.68
28 0.4
6 0.28
9 0.28

>  <PUBCHEM_EFFECTIVE_ROTOR_COUNT>  (1) 
6

>  <PUBCHEM_PHARMACOPHORE_FEATURES>  (1) 
5
1 1 acceptor
1 2 acceptor
1 2 donor
1 7 hydrophobe
1 8 hydrophobe

>  <PUBCHEM_HEAVY_ATOM_COUNT>  (1) 
10

>  <PUBCHEM_ATOM_DEF_STEREO_COUNT>  (1) 
0

>  <PUBCHEM_ATOM_UDEF_STEREO_COUNT>  (1) 
0

>  <PUBCHEM_BOND_DEF_STEREO_COUNT>  (1) 
0

>  <PUBCHEM_BOND_UDEF_STEREO_COUNT>  (1) 
0

>  <PUBCHEM_ISOTOPIC_ATOM_COUNT>  (1) 
0

>  <PUBCHEM_COMPONENT_COUNT>  (1) 
1

>  <PUBCHEM_CACTVS_TAUTO_COUNT>  (1) 
1

>  <PUBCHEM_CONFORMER_ID>  (1) 
0000504400000002

>  <PUBCHEM_MMFF94_ENERGY>  (1) 
11.0473

>  <PUBCHEM_FEATURE_SELFOVERLAP>  (1) 
25.372

>  <PUBCHEM_SHAPE_FINGERPRINT>  (1) 
10219947 1 18113337531211764084
11062470 55 17240480329464593749
12932764 1 17703776016769979221
14251717 144 18409727331376295002
14325111 11 18413107234683817669
15775835 57 18343301487403625999
170605 34 18272653463114514196
20201158 50 18260832604840312587
20279233 1 17822016410736508099
20645477 70 18340200779083450943
20653091 64 18196653999758597202
22485316 2 18409445882691341743
23235685 24 18335978757279611404
23402539 116 16878213255841090919
23402655 69 18343579616917447661
23552333 60 18202000988970524954
23557571 272 16805598140641009381
3248919 1 17095818637170957061
366044 4 18341613763431234014
528862 383 18409722933345595110
581208 293 18408318891145420082
81539 233 18186517718031632238

>  <PUBCHEM_SHAPE_MULTIPOLES>  (1) 
194.06
7.11
1.44
0.78
6.43
0.9
0
-1.36
-0.25
-1.33
0.23
-0.13
0.09
-0.16

>  <PUBCHEM_SHAPE_SELFOVERLAP>  (1) 
344.938

>  <PUBCHEM_SHAPE_VOLUME>  (1) 
126.9

>  <PUBCHEM_COORDINATE_TYPE>  (1) 
2
5
10

$$$$
