20557
     RDKit          3D

 30 33  0  0  0  0  0  0  0  0999 V2000
   -1.8533   -1.8067    0.2161 O   0  0  0  0  0  0  0  0  0  0  0  0
    4.3797    2.2423    2.4006 O   0  0  0  0  0  0  0  0  0  0  0  0
    4.7681    2.6921   -3.0488 O   0  0  0  0  0  0  0  0  0  0  0  0
    0.3740    1.0100    1.7235 N   0  0  0  0  0  0  0  0  0  0  0  0
    0.5990    1.2397   -1.0492 N   0  0  0  0  0  0  0  0  0  0  0  0
    0.4398   -0.9934    0.1486 C   0  0  0  0  0  0  0  0  0  0  0  0
   -1.5652    0.6084    0.1185 C   0  0  0  0  0  0  0  0  0  0  0  0
   -1.0874   -0.8497    0.1221 C   0  0  0  0  0  0  0  0  0  0  0  0
    0.8395   -0.3742    1.5281 C   0  0  0  0  0  0  0  0  0  0  0  0
    1.0281   -0.1666   -1.0369 C   0  0  0  0  0  0  0  0  0  0  0  0
   -1.0751    1.1551    1.4995 C   0  0  0  0  0  0  0  0  0  0  0  0
   -0.8672    1.3478   -1.0649 C   0  0  0  0  0  0  0  0  0  0  0  0
    0.8721   -2.4629   -0.0179 C   0  0  0  0  0  0  0  0  0  0  0  0
   -3.0906    0.7023   -0.0775 C   0  0  0  0  0  0  0  0  0  0  0  0
    0.7536    1.5101    3.0433 C   0  0  0  0  0  0  0  0  0  0  0  0
    1.1907    1.9593   -2.1751 C   0  0  0  0  0  0  0  0  0  0  0  0
    0.5174   -3.1654   -1.1682 C   0  0  0  0  0  0  0  0  0  0  0  0
   -3.6762    0.1842   -1.2312 C   0  0  0  0  0  0  0  0  0  0  0  0
    1.6170   -3.0859    0.9817 C   0  0  0  0  0  0  0  0  0  0  0  0
   -3.8813    1.3046    0.8995 C   0  0  0  0  0  0  0  0  0  0  0  0
    2.2684    1.4565    3.2141 C   0  0  0  0  0  0  0  0  0  0  0  0
    2.7120    1.9559   -2.0651 C   0  0  0  0  0  0  0  0  0  0  0  0
    0.9088   -4.4957   -1.3192 C   0  0  0  0  0  0  0  0  0  0  0  0
   -5.0571    0.2690   -1.4087 C   0  0  0  0  0  0  0  0  0  0  0  0
    2.0085   -4.4162    0.8305 C   0  0  0  0  0  0  0  0  0  0  0  0
   -5.2622    1.3892    0.7220 C   0  0  0  0  0  0  0  0  0  0  0  0
    2.9781    2.3217    2.1813 C   0  0  0  0  0  0  0  0  0  0  0  0
    3.3570    2.7182   -3.2146 C   0  0  0  0  0  0  0  0  0  0  0  0
    1.6543   -5.1211   -0.3200 C   0  0  0  0  0  0  0  0  0  0  0  0
   -5.8501    0.8714   -0.4322 C   0  0  0  0  0  0  0  0  0  0  0  0
  1  8  2  0
  2 27  1  0
  3 28  1  0
  4  9  1  0
  4 11  1  0
  4 15  1  0
  5 10  1  0
  5 12  1  0
  5 16  1  0
  6  8  1  0
  6  9  1  0
  6 10  1  0
  6 13  1  0
  7  8  1  0
  7 11  1  0
  7 12  1  0
  7 14  1  0
 13 17  2  0
 13 19  1  0
 14 18  2  0
 14 20  1  0
 15 21  1  0
 16 22  1  0
 17 23  1  0
 18 24  1  0
 19 25  2  0
 20 26  2  0
 21 27  1  0
 22 28  1  0
 23 29  2  0
 24 30  2  0
 25 29  1  0
 26 30  1  0
M  END
>  <PUBCHEM_COMPOUND_CID>  (1) 
20557

>  <PUBCHEM_CONFORMER_RMSD>  (1) 
1

>  <PUBCHEM_CONFORMER_DIVERSEORDER>  (1) 
1
9
7
10
2
6
8
5
4
3

>  <PUBCHEM_MMFF94_PARTIAL_CHARGES>  (1) 
40
1 -0.57
10 0.27
11 0.27
12 0.27
13 -0.14
14 -0.14
15 0.27
16 0.27
17 -0.15
18 -0.15
19 -0.15
2 -0.68
20 -0.15
23 -0.15
24 -0.15
25 -0.15
26 -0.15
27 0.28
28 0.28
29 -0.15
3 -0.68
30 -0.15
4 -0.81
43 0.15
44 0.15
45 0.15
46 0.15
5 -0.81
51 0.15
52 0.15
53 0.15
54 0.15
59 0.15
6 0.2
60 0.15
61 0.4
62 0.4
7 0.2
8 0.45
9 0.27

>  <PUBCHEM_EFFECTIVE_ROTOR_COUNT>  (1) 
9.2

>  <PUBCHEM_PHARMACOPHORE_FEATURES>  (1) 
11
1 1 acceptor
1 2 acceptor
1 2 donor
1 3 acceptor
1 3 donor
1 4 cation
1 5 cation
6 13 17 19 23 25 29 rings
6 14 18 20 24 26 30 rings
6 4 6 7 8 9 11 rings
6 5 6 7 8 10 12 rings

>  <PUBCHEM_HEAVY_ATOM_COUNT>  (1) 
30

>  <PUBCHEM_ATOM_DEF_STEREO_COUNT>  (1) 
0

>  <PUBCHEM_ATOM_UDEF_STEREO_COUNT>  (1) 
0

>  <PUBCHEM_BOND_DEF_STEREO_COUNT>  (1) 
0

>  <PUBCHEM_BOND_UDEF_STEREO_COUNT>  (1) 
0

>  <PUBCHEM_ISOTOPIC_ATOM_COUNT>  (1) 
0

>  <PUBCHEM_COMPONENT_COUNT>  (1) 
1

>  <PUBCHEM_CACTVS_TAUTO_COUNT>  (1) 
1

>  <PUBCHEM_CONFORMER_ID>  (1) 
0000504D00000001

>  <PUBCHEM_MMFF94_ENERGY>  (1) 
93.7645

>  <PUBCHEM_FEATURE_SELFOVERLAP>  (1) 
57.578

>  <PUBCHEM_SHAPE_FINGERPRINT>  (1) 
10721379 63 18048623454818140549
107951 10 17772170158360295616
11443803 9 17752487826228287853
11445158 3 17907537456163884754
11578080 2 16331923325768151664
11582403 64 16268792511848490145
12058002 1 18042133071902487144
12160290 23 17759239987342791951
12977781 61 17058093465978324428
13009979 54 17408543748614395871
133893 2 17974882512646291269
14790565 3 18056735810326333713
14863182 85 18339625846192197111
15878777 1 8591271460969694656
15927050 60 17914870236464600218
16090146 7 17757516988250539094
17980427 26 17700942579252066597
1813 80 17905052452321504815
20554085 129 18343021120317922861
20600515 1 17117764648411051148
23419403 2 17834080110202769757
23559900 14 18042688291768693339
25222932 49 16910830363438656871
27425 322 17914313921934983469
376196 1 17532107144474682525
46194498 28 18040996182054535447
469060 322 17326071554700090267
6669772 16 17702937162544026154

>  <PUBCHEM_SHAPE_MULTIPOLES>  (1) 
589.82
8.01
5.45
3.19
13.13
7.3
0.09
-4.37
-1.79
-9.45
-1.48
-4.36
-4.27
-1.34

>  <PUBCHEM_SHAPE_SELFOVERLAP>  (1) 
1258.456

>  <PUBCHEM_SHAPE_VOLUME>  (1) 
320.6

>  <PUBCHEM_COORDINATE_TYPE>  (1) 
2
5
10

$$$$
