20553
     RDKit          3D

  6  5  0  0  1  0  0  0  0  0999 V2000
   -0.3849    1.8643   -0.0783 O   0  0  0  0  0  0  0  0  0  0  0  0
   -1.8817   -1.1485   -0.1453 N   0  0  0  0  0  0  0  0  0  0  0  0
    1.3429    0.2129   -0.3402 C   0  0  0  0  0  0  0  0  0  0  0  0
    0.0349    0.5765    0.3680 C   0  0  0  0  0  0  0  0  0  0  0  0
    1.9239   -1.1178    0.1160 C   0  0  0  0  0  0  0  0  0  0  0  0
   -1.0352   -0.3873    0.0799 C   0  0  0  0  0  0  0  0  0  0  0  0
  1  4  1  0
  2  6  3  0
  3  4  1  0
  3  5  1  0
  4  6  1  0
M  END
>  <PUBCHEM_COMPOUND_CID>  (1) 
20553

>  <PUBCHEM_CONFORMER_RMSD>  (1) 
0.4

>  <PUBCHEM_CONFORMER_DIVERSEORDER>  (1) 
1
4
5
2
3

>  <PUBCHEM_MMFF94_PARTIAL_CHARGES>  (1) 
5
1 -0.68
13 0.4
2 -0.56
4 0.48
6 0.36

>  <PUBCHEM_EFFECTIVE_ROTOR_COUNT>  (1) 
1

>  <PUBCHEM_PHARMACOPHORE_FEATURES>  (1) 
4
1 1 acceptor
1 1 donor
1 2 acceptor
1 5 hydrophobe

>  <PUBCHEM_HEAVY_ATOM_COUNT>  (1) 
6

>  <PUBCHEM_ATOM_DEF_STEREO_COUNT>  (1) 
0

>  <PUBCHEM_ATOM_UDEF_STEREO_COUNT>  (1) 
1

>  <PUBCHEM_BOND_DEF_STEREO_COUNT>  (1) 
0

>  <PUBCHEM_BOND_UDEF_STEREO_COUNT>  (1) 
0

>  <PUBCHEM_ISOTOPIC_ATOM_COUNT>  (1) 
0

>  <PUBCHEM_COMPONENT_COUNT>  (1) 
1

>  <PUBCHEM_CACTVS_TAUTO_COUNT>  (1) 
1

>  <PUBCHEM_CONFORMER_ID>  (1) 
0000504900000001

>  <PUBCHEM_MMFF94_ENERGY>  (1) 
1.3152

>  <PUBCHEM_FEATURE_SELFOVERLAP>  (1) 
20.297

>  <PUBCHEM_SHAPE_FINGERPRINT>  (1) 
139733 1 8790892873400996026
16714656 1 18193845833786075417
18185500 45 18340208599728279742
21040471 1 17690564078781247392
29004967 10 18264210386001766746
5943 1 13415039657106086609

>  <PUBCHEM_SHAPE_MULTIPOLES>  (1) 
112.63
2.29
1.54
0.64
0.45
0.44
0.01
-1.15
-0.09
-0.37
-0.04
0.06
0
-0.11

>  <PUBCHEM_SHAPE_SELFOVERLAP>  (1) 
200.361

>  <PUBCHEM_SHAPE_VOLUME>  (1) 
71.8

>  <PUBCHEM_COORDINATE_TYPE>  (1) 
2
5
10

$$$$
