20558
     RDKit          3D

  8  8  0  0  1  0  0  0  0  0999 V2000
    0.5685   -1.1399   -0.4914 O   0  0  0  0  0  0  0  0  0  0  0  0
   -1.6685    1.2711    0.4978 O   0  0  0  0  0  0  0  0  0  0  0  0
    1.1968    0.0624   -0.0288 C   0  0  0  0  0  0  0  0  0  0  0  0
   -0.0325   -0.4698    0.6059 C   0  0  0  0  0  0  0  0  0  0  0  0
    1.1556    1.1655   -1.0197 C   0  0  0  0  0  0  0  0  0  0  0  0
    2.4945   -0.1757    0.6474 C   0  0  0  0  0  0  0  0  0  0  0  0
   -1.3749    0.1044    0.2418 C   0  0  0  0  0  0  0  0  0  0  0  0
   -2.3395   -0.8180   -0.4530 C   0  0  0  0  0  0  0  0  0  0  0  0
  1  3  1  0
  1  4  1  0
  2  7  2  0
  3  4  1  0
  3  5  1  0
  3  6  1  0
  4  7  1  0
  7  8  1  0
M  END
>  <PUBCHEM_COMPOUND_CID>  (1) 
20558

>  <PUBCHEM_CONFORMER_RMSD>  (1) 
0.4

>  <PUBCHEM_CONFORMER_DIVERSEORDER>  (1) 
2
3
1
5
4

>  <PUBCHEM_MMFF94_PARTIAL_CHARGES>  (1) 
9
1 -0.3
2 -0.57
3 -0.04
4 0.05
5 0.09
6 0.09
7 0.51
8 0.06
9 0.1

>  <PUBCHEM_EFFECTIVE_ROTOR_COUNT>  (1) 
1.6

>  <PUBCHEM_PHARMACOPHORE_FEATURES>  (1) 
3
1 1 acceptor
1 2 acceptor
3 3 5 6 hydrophobe

>  <PUBCHEM_HEAVY_ATOM_COUNT>  (1) 
8

>  <PUBCHEM_ATOM_DEF_STEREO_COUNT>  (1) 
0

>  <PUBCHEM_ATOM_UDEF_STEREO_COUNT>  (1) 
1

>  <PUBCHEM_BOND_DEF_STEREO_COUNT>  (1) 
0

>  <PUBCHEM_BOND_UDEF_STEREO_COUNT>  (1) 
0

>  <PUBCHEM_ISOTOPIC_ATOM_COUNT>  (1) 
0

>  <PUBCHEM_COMPONENT_COUNT>  (1) 
1

>  <PUBCHEM_CACTVS_TAUTO_COUNT>  (1) 
3

>  <PUBCHEM_CONFORMER_ID>  (1) 
0000504E00000002

>  <PUBCHEM_MMFF94_ENERGY>  (1) 
12.4742

>  <PUBCHEM_FEATURE_SELFOVERLAP>  (1) 
15.223

>  <PUBCHEM_SHAPE_FINGERPRINT>  (1) 
15310529 11 13038920940064079163
20096714 4 18115040700144716228
21040471 1 18128266583828772817
23552423 10 18339088094215997367
24536 1 18261407645084499971
29004967 10 13623534528427854664
5084963 1 18187357765925748904

>  <PUBCHEM_SHAPE_MULTIPOLES>  (1) 
152.9
3.1
1.18
0.91
0.27
0.29
0.04
-0.24
-0.12
0
0.13
-0.04
0.08
-0.46

>  <PUBCHEM_SHAPE_SELFOVERLAP>  (1) 
296.913

>  <PUBCHEM_SHAPE_VOLUME>  (1) 
95

>  <PUBCHEM_COORDINATE_TYPE>  (1) 
2
5
10

$$$$
