2055
     RDKit          3D

 21 22  0  0  0  0  0  0  0  0999 V2000
    5.2095    0.1961   -2.0856 O   0  0  0  0  0  0  0  0  0  0  0  0
    6.4927    0.3174    0.3770 O   0  0  0  0  0  0  0  0  0  0  0  0
   -1.5868   -1.7882   -0.0149 O   0  0  0  0  0  0  0  0  0  0  0  0
   -2.3865    0.4046    0.0480 N   0  0  0  0  0  0  0  0  0  0  0  0
    0.4555    2.5252    0.2571 N   0  0  0  0  0  0  0  0  0  0  0  0
    2.4469   -0.5930    0.1746 C   0  0  0  0  0  0  0  0  0  0  0  0
    3.1622   -0.3478   -0.9976 C   0  0  0  0  0  0  0  0  0  0  0  0
    1.0296   -0.9127    0.1088 C   0  0  0  0  0  0  0  0  0  0  0  0
    3.0912   -0.5325    1.4104 C   0  0  0  0  0  0  0  0  0  0  0  0
   -3.7904    0.2155   -0.0175 C   0  0  0  0  0  0  0  0  0  0  0  0
    4.5217   -0.0421   -0.9341 C   0  0  0  0  0  0  0  0  0  0  0  0
    0.0061   -0.0209    0.1267 C   0  0  0  0  0  0  0  0  0  0  0  0
    5.1658    0.0185    0.3018 C   0  0  0  0  0  0  0  0  0  0  0  0
    4.4506   -0.2269    1.4740 C   0  0  0  0  0  0  0  0  0  0  0  0
   -1.4000   -0.5755    0.0448 C   0  0  0  0  0  0  0  0  0  0  0  0
   -4.6213    1.3218   -0.0023 C   0  0  0  0  0  0  0  0  0  0  0  0
   -4.2953   -1.0703   -0.0958 C   0  0  0  0  0  0  0  0  0  0  0  0
   -6.0023    1.1362   -0.0672 C   0  0  0  0  0  0  0  0  0  0  0  0
   -5.6762   -1.2559   -0.1608 C   0  0  0  0  0  0  0  0  0  0  0  0
   -6.5297   -0.1525   -0.1466 C   0  0  0  0  0  0  0  0  0  0  0  0
    0.2567    1.3832    0.1992 C   0  0  0  0  0  0  0  0  0  0  0  0
  1 11  1  0
  2 13  1  0
  3 15  2  0
  4 10  1  0
  4 15  1  0
  5 21  3  0
  6  7  2  0
  6  8  1  0
  6  9  1  0
  7 11  1  0
  8 12  2  0
  9 14  2  0
 10 16  2  0
 10 17  1  0
 11 13  2  0
 12 15  1  0
 12 21  1  0
 13 14  1  0
 16 18  1  0
 17 19  2  0
 18 20  2  0
 19 20  1  0
M  END
>  <PUBCHEM_COMPOUND_CID>  (1) 
2055

>  <PUBCHEM_CONFORMER_RMSD>  (1) 
0.6

>  <PUBCHEM_CONFORMER_DIVERSEORDER>  (1) 
1
27
39
37
15
33
40
21
35
24
22
2
26
38
29
34
36
13
17
30
18
11
20
16
31
32
19
23
6
28
12
14
25
8
4
5
9
7
3
10

>  <PUBCHEM_MMFF94_PARTIAL_CHARGES>  (1) 
33
1 -0.53
10 0.12
11 0.08
12 0.08
13 0.08
14 -0.15
15 0.62
16 -0.15
17 -0.15
18 -0.15
19 -0.15
2 -0.53
20 -0.15
21 0.49
22 0.15
23 0.15
24 0.15
25 0.15
26 0.37
27 0.15
28 0.15
29 0.15
3 -0.57
30 0.15
31 0.15
32 0.45
33 0.45
4 -0.55
5 -0.56
6 0.03
7 -0.15
8 -0.18
9 -0.15

>  <PUBCHEM_EFFECTIVE_ROTOR_COUNT>  (1) 
4

>  <PUBCHEM_PHARMACOPHORE_FEATURES>  (1) 
7
1 1 donor
1 2 donor
1 3 acceptor
1 4 donor
1 5 acceptor
6 10 16 17 18 19 20 rings
6 6 7 9 11 13 14 rings

>  <PUBCHEM_HEAVY_ATOM_COUNT>  (1) 
21

>  <PUBCHEM_ATOM_DEF_STEREO_COUNT>  (1) 
0

>  <PUBCHEM_ATOM_UDEF_STEREO_COUNT>  (1) 
0

>  <PUBCHEM_BOND_DEF_STEREO_COUNT>  (1) 
0

>  <PUBCHEM_BOND_UDEF_STEREO_COUNT>  (1) 
1

>  <PUBCHEM_ISOTOPIC_ATOM_COUNT>  (1) 
0

>  <PUBCHEM_COMPONENT_COUNT>  (1) 
1

>  <PUBCHEM_CACTVS_TAUTO_COUNT>  (1) 
20

>  <PUBCHEM_CONFORMER_ID>  (1) 
0000080700000001

>  <PUBCHEM_MMFF94_ENERGY>  (1) 
62.1517

>  <PUBCHEM_FEATURE_SELFOVERLAP>  (1) 
35.526

>  <PUBCHEM_SHAPE_FINGERPRINT>  (1) 
10906281 52 18263099772231599235
10912923 1 17748543732227437211
11646440 116 18131639997567520297
12236239 1 17967531268556321026
12516196 113 18131912663160377809
12730499 353 17060338531236101958
13167372 99 17022897904750846685
13533116 47 17749380422433315530
1420 363 17561084709147434215
14251764 18 18113339713519088219
14573314 32 17203612553544429369
15048467 5 17530687614606223783
15183329 4 18334298665021357069
1601671 61 18411136913788298071
17844677 252 16128661838227119713
18222031 100 18272373074522027232
20567600 75 16774082843064870365
21033648 29 16844994737718137523
21033650 10 17899438414120755828
21267235 1 18340491158133799895
21641784 216 17895768295989720708
22061861 79 16343706512657301189
221357 26 16128657427390587346
2303208 19 17489315204315040031
23081809 10 18040150712904212643
23402539 116 18343294869149036807
23536379 177 16443060582598497857
23559900 14 17417805175330300315
23569943 247 17487354637528445479
300161 21 17967809436318575387
3004659 81 18334581256636901628
335352 9 18411132542614280597
3411729 13 18197487644522121168
34797466 226 17704075126613420896
4325135 7 17822008700758476358
4340502 62 15936130754986082498
4463277 17 18410853269716180337
5104073 3 16081656702918050704
542803 24 17749391464060912271
7495541 125 17822013150661216321

>  <PUBCHEM_SHAPE_MULTIPOLES>  (1) 
404.6
16.68
1.46
1.08
6.11
0.51
0.17
0.18
1.33
1.35
-0.08
-2.06
-0.04
-0.28

>  <PUBCHEM_SHAPE_SELFOVERLAP>  (1) 
871.44

>  <PUBCHEM_SHAPE_VOLUME>  (1) 
219

>  <PUBCHEM_COORDINATE_TYPE>  (1) 
2
5
10

$$$$
