20566
     RDKit          3D

 26 27  0  0  1  0  0  0  0  0999 V2000
    0.9405    3.7361   -0.8672 Cl  0  0  0  0  0  0  0  0  0  0  0  0
    6.5528   -0.3213    0.6728 Cl  0  0  0  0  0  0  0  0  0  0  0  0
   -6.7014    0.3708   -0.3242 Cl  0  0  0  0  0  0  0  0  0  0  0  0
    2.0737   -0.1867    1.1056 P   0  0  0  0  0  0  0  0  0  0  0  0
    1.1884   -1.3487    0.4040 O   0  0  0  0  0  0  0  0  0  0  0  0
    2.0324    1.0353    0.0417 O   0  0  0  0  0  0  0  0  0  0  0  0
    3.5924   -0.7465    1.0027 O   0  0  0  0  0  0  0  0  0  0  0  0
   -2.9139    1.0553    0.7141 O   0  0  0  0  0  0  0  0  0  0  0  0
    1.6575    0.1669    2.5056 O   0  0  0  0  0  0  0  0  0  0  0  0
   -4.8395    2.2509    0.8897 O   0  0  0  0  0  0  0  0  0  0  0  0
   -2.9344   -1.1608   -0.3022 C   0  0  0  0  0  0  0  0  0  0  0  0
   -2.2469   -0.1136    0.3085 C   0  0  0  0  0  0  0  0  0  0  0  0
   -0.1507   -1.2856    0.1761 C   0  0  0  0  0  0  0  0  0  0  0  0
   -4.3897   -1.0302   -0.5221 C   0  0  0  0  0  0  0  0  0  0  0  0
   -0.8719   -0.1584    0.5522 C   0  0  0  0  0  0  0  0  0  0  0  0
    2.8396    2.1731    0.2898 C   0  0  0  0  0  0  0  0  0  0  0  0
    4.1266   -1.1217   -0.2553 C   0  0  0  0  0  0  0  0  0  0  0  0
   -2.1856   -2.2882   -0.6736 C   0  0  0  0  0  0  0  0  0  0  0  0
   -0.8071   -2.3498   -0.4368 C   0  0  0  0  0  0  0  0  0  0  0  0
    2.6480    3.1929   -0.8282 C   0  0  0  0  0  0  0  0  0  0  0  0
    5.5608   -1.6107   -0.0796 C   0  0  0  0  0  0  0  0  0  0  0  0
   -4.9992    0.1015   -0.1222 C   0  0  0  0  0  0  0  0  0  0  0  0
   -5.0955   -2.1874   -1.1848 C   0  0  0  0  0  0  0  0  0  0  0  0
    3.0172    2.6107   -2.1847 C   0  0  0  0  0  0  0  0  0  0  0  0
    6.1833   -2.0061   -1.4106 C   0  0  0  0  0  0  0  0  0  0  0  0
   -4.2774    1.2222    0.5287 C   0  0  0  0  0  0  0  0  0  0  0  0
  1 20  1  0
  2 21  1  0
  3 22  1  0
  4  5  1  0
  4  6  1  0
  4  7  1  0
  4  9  2  0
  5 13  1  0
  6 16  1  0
  7 17  1  0
  8 12  1  0
  8 26  1  0
 10 26  2  0
 11 12  2  0
 11 14  1  0
 11 18  1  0
 12 15  1  0
 13 15  2  0
 13 19  1  0
 14 22  2  0
 14 23  1  0
 16 20  1  0
 17 21  1  0
 18 19  2  0
 20 24  1  0
 21 25  1  0
 22 26  1  0
M  END
>  <PUBCHEM_COMPOUND_CID>  (1) 
20566

>  <PUBCHEM_CONFORMER_RMSD>  (1) 
1

>  <PUBCHEM_CONFORMER_DIVERSEORDER>  (1) 
1
177
68
152
221
36
93
212
85
231
41
139
216
247
123
263
30
277
87
180
252
56
187
185
198
165
124
162
40
269
81
107
116
51
115
172
63
54
38
260
92
147
278
230
101
59
186
242
46
97
25
169
280
127
95
174
166
255
66
132
188
80
20
65
77
89
251
57
24
282
207
10
64
121
273
245
261
78
240
8
47
122
266
99
42
43
58
173
18
241
146
37
155
197
3
175
102
145
119
267
6
44
31
161
144
270
90
238
211
281
220
88
191
71
76
84
193
137
225
32
156
11
91
224
142
83
28
14
110
239
243
5
73
34
215
67
235
259
96
143
151
244
100
189
148
12
141
153
154
13
236
113
49
17
140
199
117
114
19
219
279
86
50
159
94
7
226
201
120
254
33
74
213
35
176
268
75
106
138
104
22
128
223
160
23
53
217
250
52
178
48
184
103
60
16
4
237
70
158
45
98
69
134
62
157
271
2
205
200
82
111
164
167
248
275
129
249
227
229
55
256
133
136
183
108
61
27
265
150
126
210
135
206
190
204
228
283
21
112
246
192
149
168
130
109
203
276
29
233
196
118
234
170
264
26
125
181
182
163
105
79
9
262
257
202
15
72
272
194
214
171
218
222
258
179
253
195
232
39
208
274
131
209

>  <PUBCHEM_MMFF94_PARTIAL_CHARGES>  (1) 
27
1 -0.29
10 -0.57
11 0.03
12 0.08
13 0.08
14 -0.17
15 -0.15
16 0.28
17 0.28
18 -0.15
19 -0.15
2 -0.29
20 0.29
21 0.29
22 0.15
23 0.14
26 0.71
27 0.15
3 -0.14
32 0.15
33 0.15
4 1.51
5 -0.35
6 -0.55
7 -0.55
8 -0.23
9 -0.7

>  <PUBCHEM_EFFECTIVE_ROTOR_COUNT>  (1) 
8

>  <PUBCHEM_PHARMACOPHORE_FEATURES>  (1) 
4
1 10 acceptor
1 9 acceptor
6 11 12 13 15 18 19 rings
6 8 11 12 14 22 26 rings

>  <PUBCHEM_HEAVY_ATOM_COUNT>  (1) 
26

>  <PUBCHEM_ATOM_DEF_STEREO_COUNT>  (1) 
0

>  <PUBCHEM_ATOM_UDEF_STEREO_COUNT>  (1) 
2

>  <PUBCHEM_BOND_DEF_STEREO_COUNT>  (1) 
0

>  <PUBCHEM_BOND_UDEF_STEREO_COUNT>  (1) 
0

>  <PUBCHEM_ISOTOPIC_ATOM_COUNT>  (1) 
0

>  <PUBCHEM_COMPONENT_COUNT>  (1) 
1

>  <PUBCHEM_CACTVS_TAUTO_COUNT>  (1) 
1

>  <PUBCHEM_CONFORMER_ID>  (1) 
0000505600000001

>  <PUBCHEM_MMFF94_ENERGY>  (1) 
58.7136

>  <PUBCHEM_FEATURE_SELFOVERLAP>  (1) 
20.324

>  <PUBCHEM_SHAPE_FINGERPRINT>  (1) 
10074138 170 15519219812867441243
10366900 7 17167858651786228737
10763959 59 18187921725660942725
10906281 52 17824268314315873008
10940486 97 18270396230579228254
12166972 35 18343582945000124656
13009979 54 18272944812047303368
13583140 156 17749107760702888387
13590594 115 18187085010218673452
14117953 113 18339355259242750341
15021287 119 18408324393146135043
15183329 4 18341337734114430302
15420108 30 17623021087818875497
15475509 8 18339653222329644102
15849732 13 18272931605418324902
17492 89 18194402418577521207
17844677 252 18337113470470349771
1813 80 18334850603037158482
18335252 114 18335692841649725661
18681886 176 18341885316268853715
21033648 29 17703208681744951546
21267235 1 18343303665569476875
21285901 2 18127417748558331862
21503847 285 18186518821521755312
21709351 56 18410005525250998007
23559900 14 18272361001511707891
24771293 8 18411412947954555296
249057 3 18410572886120105359
3004659 81 18413383250340519898
340366 18 18411420639560312062
350125 39 18343298154688475795
474 4 17751070517016456081
513532 50 18129952294785842828
59755656 215 18059573529805957159
6034566 193 16375242928662364693
633830 44 18115015424394450947
9971528 1 18411695500635305928
9981440 41 17327456329756005952

>  <PUBCHEM_SHAPE_MULTIPOLES>  (1) 
509.31
15.1
3.56
1.4
0.06
3.08
-0.03
-4.21
2.06
-2.18
1.7
-1.17
0.35
-1.63

>  <PUBCHEM_SHAPE_SELFOVERLAP>  (1) 
1011.099

>  <PUBCHEM_SHAPE_VOLUME>  (1) 
305.9

>  <PUBCHEM_COORDINATE_TYPE>  (1) 
2
5
10

$$$$
