20560
     RDKit          3D

  7  6  0  0  0  0  0  0  0  0999 V2000
    1.4864   -1.1565    0.3107 O   0  0  0  0  0  0  0  0  0  0  0  0
    2.2974    0.9005   -0.3139 N   0  0  0  0  0  0  0  0  0  0  0  0
   -1.2175    0.1109   -0.0065 C   0  0  0  0  0  0  0  0  0  0  0  0
   -2.5625    0.7737    0.0972 C   0  0  0  0  0  0  0  0  0  0  0  0
   -1.2825   -1.3608   -0.3264 C   0  0  0  0  0  0  0  0  0  0  0  0
   -0.0225    0.7027    0.1728 C   0  0  0  0  0  0  0  0  0  0  0  0
    1.3012    0.0295    0.0661 C   0  0  0  0  0  0  0  0  0  0  0  0
  1  7  2  0
  2  7  1  0
  3  4  1  0
  3  5  1  0
  3  6  2  3
  6  7  1  0
M  END
>  <PUBCHEM_COMPOUND_CID>  (1) 
20560

>  <PUBCHEM_CONFORMER_RMSD>  (1) 
0.4

>  <PUBCHEM_CONFORMER_DIVERSEORDER>  (1) 
4
2
3
1

>  <PUBCHEM_MMFF94_PARTIAL_CHARGES>  (1) 
10
1 -0.57
14 0.15
15 0.37
16 0.37
2 -0.8
3 -0.28
4 0.14
5 0.14
6 -0.14
7 0.62

>  <PUBCHEM_EFFECTIVE_ROTOR_COUNT>  (1) 
1

>  <PUBCHEM_PHARMACOPHORE_FEATURES>  (1) 
3
1 1 acceptor
1 2 donor
3 3 4 5 hydrophobe

>  <PUBCHEM_HEAVY_ATOM_COUNT>  (1) 
7

>  <PUBCHEM_ATOM_DEF_STEREO_COUNT>  (1) 
0

>  <PUBCHEM_ATOM_UDEF_STEREO_COUNT>  (1) 
0

>  <PUBCHEM_BOND_DEF_STEREO_COUNT>  (1) 
0

>  <PUBCHEM_BOND_UDEF_STEREO_COUNT>  (1) 
0

>  <PUBCHEM_ISOTOPIC_ATOM_COUNT>  (1) 
0

>  <PUBCHEM_COMPONENT_COUNT>  (1) 
1

>  <PUBCHEM_CACTVS_TAUTO_COUNT>  (1) 
2

>  <PUBCHEM_CONFORMER_ID>  (1) 
0000505000000004

>  <PUBCHEM_MMFF94_ENERGY>  (1) 
13.6039

>  <PUBCHEM_FEATURE_SELFOVERLAP>  (1) 
15.223

>  <PUBCHEM_SHAPE_FINGERPRINT>  (1) 
14325111 11 18411138000868879961
14390081 3 18271523186314665832
16714656 1 18412266133831616981
18185500 45 18410288146519681254
20096714 4 18409449176176883721
21040471 1 18342453720936021185
23552423 10 18335420157859276022
24536 1 18262502784345917307
29004967 10 17313110738995763473
5460574 1 9439402428187022089

>  <PUBCHEM_SHAPE_MULTIPOLES>  (1) 
133.21
3.19
1.29
0.63
0.05
0.38
0
-0.7
-0.11
0.14
-0.04
0.01
0.01
-0.25

>  <PUBCHEM_SHAPE_SELFOVERLAP>  (1) 
246.924

>  <PUBCHEM_SHAPE_VOLUME>  (1) 
84.6

>  <PUBCHEM_COORDINATE_TYPE>  (1) 
2
5
10

$$$$
