20587
     RDKit          3D

 13 13  0  0  0  0  0  0  0  0999 V2000
   -1.9389   -3.0768   -0.5552 O   0  0  0  0  0  0  0  0  0  0  0  0
   -3.6313    2.1145   -0.2411 O   0  0  0  0  0  0  0  0  0  0  0  0
   -0.6057    0.1707    0.5688 N   0  0  0  0  0  0  0  0  0  0  0  0
    0.7082    0.0623   -0.0622 C   0  0  0  0  0  0  0  0  0  0  0  0
    1.3463    1.4510   -0.1786 C   0  0  0  0  0  0  0  0  0  0  0  0
    1.5976   -0.8884    0.7466 C   0  0  0  0  0  0  0  0  0  0  0  0
    2.7549    1.3690   -0.7644 C   0  0  0  0  0  0  0  0  0  0  0  0
    3.0056   -0.9679    0.1591 C   0  0  0  0  0  0  0  0  0  0  0  0
    3.6405    0.4140    0.0308 C   0  0  0  0  0  0  0  0  0  0  0  0
   -1.2273   -1.1480    0.6868 C   0  0  0  0  0  0  0  0  0  0  0  0
   -1.4666    1.0747   -0.1938 C   0  0  0  0  0  0  0  0  0  0  0  0
   -1.3664   -1.7818   -0.6869 C   0  0  0  0  0  0  0  0  0  0  0  0
   -2.8169    1.2065    0.4900 C   0  0  0  0  0  0  0  0  0  0  0  0
  1 12  1  0
  2 13  1  0
  3  4  1  0
  3 10  1  0
  3 11  1  0
  4  5  1  0
  4  6  1  0
  5  7  1  0
  6  8  1  0
  7  9  1  0
  8  9  1  0
 10 12  1  0
 11 13  1  0
M  END
>  <PUBCHEM_COMPOUND_CID>  (1) 
20587

>  <PUBCHEM_CONFORMER_RMSD>  (1) 
0.6

>  <PUBCHEM_CONFORMER_DIVERSEORDER>  (1) 
1
17
19
5
22
7
12
15
20
21
9
2
16
8
13
3
6
14
18
11
4
10

>  <PUBCHEM_MMFF94_PARTIAL_CHARGES>  (1) 
10
1 -0.68
10 0.27
11 0.27
12 0.28
13 0.28
2 -0.68
3 -0.81
33 0.4
34 0.4
4 0.27

>  <PUBCHEM_EFFECTIVE_ROTOR_COUNT>  (1) 
6.2

>  <PUBCHEM_PHARMACOPHORE_FEATURES>  (1) 
6
1 1 acceptor
1 1 donor
1 2 acceptor
1 2 donor
1 3 cation
6 4 5 6 7 8 9 rings

>  <PUBCHEM_HEAVY_ATOM_COUNT>  (1) 
13

>  <PUBCHEM_ATOM_DEF_STEREO_COUNT>  (1) 
0

>  <PUBCHEM_ATOM_UDEF_STEREO_COUNT>  (1) 
0

>  <PUBCHEM_BOND_DEF_STEREO_COUNT>  (1) 
0

>  <PUBCHEM_BOND_UDEF_STEREO_COUNT>  (1) 
0

>  <PUBCHEM_ISOTOPIC_ATOM_COUNT>  (1) 
0

>  <PUBCHEM_COMPONENT_COUNT>  (1) 
1

>  <PUBCHEM_CACTVS_TAUTO_COUNT>  (1) 
1

>  <PUBCHEM_CONFORMER_ID>  (1) 
0000506B00000001

>  <PUBCHEM_MMFF94_ENERGY>  (1) 
21.99

>  <PUBCHEM_FEATURE_SELFOVERLAP>  (1) 
30.446

>  <PUBCHEM_SHAPE_FINGERPRINT>  (1) 
1 1 18122624942643495007
10465860 228 17623300364241900137
12138202 97 18272093785741627743
12500047 106 18343014484978020192
12932764 1 18198637699049949856
13380535 21 18334871518894835208
13380535 76 18271243828798776839
14178342 30 18337374033424830722
14325111 11 18334861571761484513
14897335 6 18408882932147323568
14993402 34 18267022765026137948
15279307 12 18408323272149420098
15279308 51 18335696118424967702
15309172 13 18267593416135509105
15775835 57 18261680293850975108
15852999 172 17774725255531226286
15906896 17 18335426793979445947
16945 1 17975421531432238458
18186145 218 18198913500153595533
18511873 20 18335138635933070960
20711985 365 18339921614435102855
20871998 184 18340218474148126667
21501502 16 18262517104162534044
21524375 3 18262520286770477057
23402539 116 18129652002734397245
23552423 10 18188771772602797594
23557571 272 18059858428187620096
23559900 14 18202565060838805712
2748010 2 17469590820474085452
3060560 45 18122337974340270613
3248919 1 17532089578353320728
3250762 1 17914033555143900489
53812653 217 18339371875753500787
69090 78 18409445860715455705
74978 22 18341614832356182576
7832392 63 18408604760253658092
8030462 33 18116437140357902158
81228 2 18120364613124973961
81539 233 18048594824993321845
9939556 21 18408041827384861630

>  <PUBCHEM_SHAPE_MULTIPOLES>  (1) 
250.81
5.55
2.48
0.84
0.87
1.13
0
-1.99
0.23
-2.21
0.55
-0.02
0.13
-0.67

>  <PUBCHEM_SHAPE_SELFOVERLAP>  (1) 
483.143

>  <PUBCHEM_SHAPE_VOLUME>  (1) 
152.5

>  <PUBCHEM_COORDINATE_TYPE>  (1) 
2
5
10

$$$$
