20609
     RDKit          3D

 27 29  0  0  1  0  0  0  0  0999 V2000
    0.4404    0.6004    0.4799 O   0  0  0  0  0  0  0  0  0  0  0  0
   -0.5843    2.5679    1.0944 O   0  0  0  0  0  0  0  0  0  0  0  0
   -5.3665    0.7185    1.4452 O   0  0  0  0  0  0  0  0  0  0  0  0
   -3.0857   -1.8931   -1.8588 O   0  0  0  0  0  0  0  0  0  0  0  0
   -5.4143   -1.2484   -0.5048 O   0  0  0  0  0  0  0  0  0  0  0  0
    5.4339   -0.8562    0.4895 N   0  0  0  0  0  0  0  0  0  0  0  0
    2.7708    0.2147   -0.1005 C   0  0  0  0  0  0  0  0  0  0  0  0
    4.0603    0.8979   -0.5906 C   0  0  0  0  0  0  0  0  0  0  0  0
    1.6510    1.2479    0.0984 C   0  0  0  0  0  0  0  0  0  0  0  0
    3.8006    1.6726   -1.8890 C   0  0  0  0  0  0  0  0  0  0  0  0
    3.0667   -0.5815    1.1769 C   0  0  0  0  0  0  0  0  0  0  0  0
    5.1823   -0.1369   -0.7685 C   0  0  0  0  0  0  0  0  0  0  0  0
    1.4027    2.0485   -1.1820 C   0  0  0  0  0  0  0  0  0  0  0  0
    2.6793    2.6949   -1.7090 C   0  0  0  0  0  0  0  0  0  0  0  0
    4.2294   -1.5539    0.9593 C   0  0  0  0  0  0  0  0  0  0  0  0
    6.5408   -1.7987    0.3276 C   0  0  0  0  0  0  0  0  0  0  0  0
    6.8979   -2.4582    1.6489 C   0  0  0  0  0  0  0  0  0  0  0  0
   -0.6277    1.4147    0.6947 C   0  0  0  0  0  0  0  0  0  0  0  0
   -1.8952    0.7105    0.3759 C   0  0  0  0  0  0  0  0  0  0  0  0
   -1.8893   -0.2654   -0.5994 C   0  0  0  0  0  0  0  0  0  0  0  0
   -3.0398    1.0526    1.0667 C   0  0  0  0  0  0  0  0  0  0  0  0
   -4.2304    0.3898    0.7690 C   0  0  0  0  0  0  0  0  0  0  0  0
   -3.0800   -0.9282   -0.8972 C   0  0  0  0  0  0  0  0  0  0  0  0
   -4.2506   -0.6005   -0.2130 C   0  0  0  0  0  0  0  0  0  0  0  0
   -5.6374   -0.0021    2.6459 C   0  0  0  0  0  0  0  0  0  0  0  0
   -2.8203   -3.2295   -1.4374 C   0  0  0  0  0  0  0  0  0  0  0  0
   -6.2346   -0.6783   -1.5221 C   0  0  0  0  0  0  0  0  0  0  0  0
  1  9  1  0
  1 18  1  0
  2 18  2  0
  3 22  1  0
  3 25  1  0
  4 23  1  0
  4 26  1  0
  5 24  1  0
  5 27  1  0
  6 12  1  0
  6 15  1  0
  6 16  1  0
  7  8  1  0
  7  9  1  0
  7 11  1  0
  8 10  1  0
  8 12  1  0
  9 13  1  0
 10 14  1  0
 11 15  1  0
 13 14  1  0
 16 17  1  0
 18 19  1  0
 19 20  2  0
 19 21  1  0
 20 23  1  0
 21 22  2  0
 22 24  1  0
 23 24  2  0
M  END
>  <PUBCHEM_COMPOUND_CID>  (1) 
20609

>  <PUBCHEM_CONFORMER_RMSD>  (1) 
1

>  <PUBCHEM_CONFORMER_DIVERSEORDER>  (1) 
1
126
116
100
34
72
89
28
18
99
19
134
143
142
66
39
138
13
94
62
135
76
117
41
111
81
11
105
129
90
102
24
84
79
118
56
49
69
68
107
137
110
130
109
83
65
132
120
128
139
8
6
96
71
95
60
78
101
75
44
38
131
77
61
16
31
67
4
119
33
54
59
3
92
45
113
46
48
12
141
55
58
29
17
114
42
106
85
20
136
63
112
122
97
43
53
123
80
50
124
22
104
108
21
115
15
73
64
14
74
98
26
87
52
125
91
51
25
82
36
103
30
127
70
32
57
86
121
7
10
5
133
140
37
93
47
144
2
27
88
40
35
23
9

>  <PUBCHEM_MMFF94_PARTIAL_CHARGES>  (1) 
22
1 -0.43
12 0.27
15 0.27
16 0.27
18 0.63
19 0.09
2 -0.57
20 -0.15
21 -0.15
22 0.08
23 0.08
24 0.08
25 0.28
26 0.28
27 0.28
3 -0.36
4 -0.36
48 0.15
49 0.15
5 -0.36
6 -0.81
9 0.28

>  <PUBCHEM_EFFECTIVE_ROTOR_COUNT>  (1) 
8.6

>  <PUBCHEM_PHARMACOPHORE_FEATURES>  (1) 
8
1 2 acceptor
1 3 acceptor
1 4 acceptor
1 5 acceptor
1 6 cation
6 19 20 21 22 23 24 rings
6 6 7 8 11 12 15 rings
6 7 8 9 10 13 14 rings

>  <PUBCHEM_HEAVY_ATOM_COUNT>  (1) 
27

>  <PUBCHEM_ATOM_DEF_STEREO_COUNT>  (1) 
0

>  <PUBCHEM_ATOM_UDEF_STEREO_COUNT>  (1) 
3

>  <PUBCHEM_BOND_DEF_STEREO_COUNT>  (1) 
0

>  <PUBCHEM_BOND_UDEF_STEREO_COUNT>  (1) 
0

>  <PUBCHEM_ISOTOPIC_ATOM_COUNT>  (1) 
0

>  <PUBCHEM_COMPONENT_COUNT>  (1) 
1

>  <PUBCHEM_CACTVS_TAUTO_COUNT>  (1) 
1

>  <PUBCHEM_CONFORMER_ID>  (1) 
0000508100000001

>  <PUBCHEM_MMFF94_ENERGY>  (1) 
94.1751

>  <PUBCHEM_FEATURE_SELFOVERLAP>  (1) 
40.623

>  <PUBCHEM_SHAPE_FINGERPRINT>  (1) 
10 15 15051722093701465026
10319926 262 16917068849978745778
11135926 11 17969510484302886804
11578080 2 18267279045973675476
12236239 1 18411422808376325928
12403259 415 15864073204093304497
12616971 3 18408608067251602716
12633257 1 18131358526748840797
12788726 201 18199489717134738576
13533116 47 18335425677704751744
13726171 33 17341844422399187752
13782708 43 16370735862747992249
15021287 119 18261399918634020025
15183329 4 18411989073806967580
15188451 53 17489577983340912815
15250474 111 18343582966475188382
15320294 125 18341334401014379159
15326921 28 17484811415799339025
15537594 2 18336839683147040605
17349148 13 18408889521048869520
17857418 61 18343861138626829319
1813 80 18262242127655874660
18222031 100 18113612358032586488
20028762 73 18341327821610356342
20511986 3 18340480153462554988
20554085 129 16844458133495016857
20600515 1 17275392005469120608
20645477 70 17385734620757255832
21033648 29 15123518007934471105
22061861 79 17312821576301795534
221357 26 17385715889966820700
22393880 68 16298386889675834408
2303208 19 16443073819545455017
23522609 53 18125752120874749865
23559900 14 17676775361213791312
3004659 81 18334286574477259510
312425 54 17203329962193148698
3383291 50 17704068543188848799
34797466 226 14924243650066302684
351380 3 18408882919457613682
3729539 64 16660918868814303914
46194498 28 15719688653148849334
463206 1 18411701023520487714
5080951 261 16987981822754154605
5104073 3 17703232935387809729
559249 180 18341608188326339455
602551 16 17632860836777311846
7471813 234 18333450924740813716
9953998 17 17632002080037588562

>  <PUBCHEM_SHAPE_MULTIPOLES>  (1) 
521.32
16.65
2.75
1.94
4.17
0.23
-0.16
10.56
-2.63
3
0.88
-2.25
0.27
-4.06

>  <PUBCHEM_SHAPE_SELFOVERLAP>  (1) 
1088.113

>  <PUBCHEM_SHAPE_VOLUME>  (1) 
295.7

>  <PUBCHEM_COORDINATE_TYPE>  (1) 
2
5
10

$$$$
