20607
     RDKit          3D

 13 14  0  0  1  0  0  0  0  0999 V2000
   -2.2345    1.5799    1.0856 O   0  0  0  0  0  0  0  0  0  0  0  0
    2.0180   -0.2257    0.2354 N   0  0  0  0  0  0  0  0  0  0  0  0
   -0.7048    0.5472   -0.5276 C   0  0  0  0  0  0  0  0  0  0  0  0
   -0.4048   -0.7462    0.2554 C   0  0  0  0  0  0  0  0  0  0  0  0
   -2.1203    1.0782   -0.2439 C   0  0  0  0  0  0  0  0  0  0  0  0
   -1.4624   -1.8146   -0.0494 C   0  0  0  0  0  0  0  0  0  0  0  0
    0.3873    1.5816   -0.2288 C   0  0  0  0  0  0  0  0  0  0  0  0
    1.0102   -1.2520   -0.0721 C   0  0  0  0  0  0  0  0  0  0  0  0
   -3.1803   -0.0016   -0.4828 C   0  0  0  0  0  0  0  0  0  0  0  0
   -2.8722   -1.3083    0.2497 C   0  0  0  0  0  0  0  0  0  0  0  0
    1.7766    1.0089   -0.5234 C   0  0  0  0  0  0  0  0  0  0  0  0
    3.3638   -0.7341   -0.0291 C   0  0  0  0  0  0  0  0  0  0  0  0
    4.4234    0.2867    0.3310 C   0  0  0  0  0  0  0  0  0  0  0  0
  1  5  1  0
  2  8  1  0
  2 11  1  0
  2 12  1  0
  3  4  1  0
  3  5  1  0
  3  7  1  0
  4  6  1  0
  4  8  1  0
  5  9  1  0
  6 10  1  0
  7 11  1  0
  9 10  1  0
 12 13  1  0
M  END
>  <PUBCHEM_COMPOUND_CID>  (1) 
20607

>  <PUBCHEM_CONFORMER_RMSD>  (1) 
0.6

>  <PUBCHEM_CONFORMER_DIVERSEORDER>  (1) 
3
13
18
6
19
17
14
16
1
10
2
5
8
4
11
12
15
7
9

>  <PUBCHEM_MMFF94_PARTIAL_CHARGES>  (1) 
7
1 -0.68
11 0.27
12 0.27
2 -0.81
31 0.4
5 0.28
8 0.27

>  <PUBCHEM_EFFECTIVE_ROTOR_COUNT>  (1) 
2.6

>  <PUBCHEM_PHARMACOPHORE_FEATURES>  (1) 
5
1 1 acceptor
1 1 donor
1 2 cation
6 2 3 4 7 8 11 rings
6 3 4 5 6 9 10 rings

>  <PUBCHEM_HEAVY_ATOM_COUNT>  (1) 
13

>  <PUBCHEM_ATOM_DEF_STEREO_COUNT>  (1) 
0

>  <PUBCHEM_ATOM_UDEF_STEREO_COUNT>  (1) 
3

>  <PUBCHEM_BOND_DEF_STEREO_COUNT>  (1) 
0

>  <PUBCHEM_BOND_UDEF_STEREO_COUNT>  (1) 
0

>  <PUBCHEM_ISOTOPIC_ATOM_COUNT>  (1) 
0

>  <PUBCHEM_COMPONENT_COUNT>  (1) 
1

>  <PUBCHEM_CACTVS_TAUTO_COUNT>  (1) 
1

>  <PUBCHEM_CONFORMER_ID>  (1) 
0000507F00000003

>  <PUBCHEM_MMFF94_ENERGY>  (1) 
15.5287

>  <PUBCHEM_FEATURE_SELFOVERLAP>  (1) 
25.388

>  <PUBCHEM_SHAPE_FINGERPRINT>  (1) 
11132069 177 18335698330280098316
12032990 46 18409452487923963462
12251169 10 18409453587113629993
12382932 28 18339643330571341128
12491281 212 18339934709584393976
12932764 1 17531242825408431028
13024252 1 14706926229214159375
13380535 76 18410291389194038327
14144814 61 18335136466874398610
14325111 11 18410572860228728764
14993402 34 18334571326260686245
15536298 74 18339643464227290036
15775835 57 17968374550655763591
16945 1 18335426724911393669
18522853 276 18411418435877793201
193761 8 17759806235836150542
200 152 18200864163009811799
20201158 50 18409727361208931575
20510252 161 18272934899135969057
20871998 184 18272370884020245223
21501502 16 18263370350565218980
23402539 116 18201146720312986807
23402655 69 18266440033260616453
23463225 33 18333448733853285734
23552423 10 17970066853632823423
23559900 14 18340763750922892158
2748010 2 18192147307322172341
5084963 1 18041276655544333525
528886 8 18409159987444216723
63268167 104 18260825956257279521
6333449 129 18412260627435571654
7364860 26 18194683902455162516
75552 356 18411981355740063118
8809292 202 18041846241196301819

>  <PUBCHEM_SHAPE_MULTIPOLES>  (1) 
256.68
6.02
1.77
0.76
4.67
0.02
-0.05
0.42
-0.46
-0.78
-0.08
-0.18
-0.15
-0.16

>  <PUBCHEM_SHAPE_SELFOVERLAP>  (1) 
514.101

>  <PUBCHEM_SHAPE_VOLUME>  (1) 
150.6

>  <PUBCHEM_COORDINATE_TYPE>  (1) 
2
5
10

$$$$
