20603
     RDKit          3D

 13 14  0  0  1  0  0  0  0  0999 V2000
   -2.8223   -1.8002   -0.2571 O   0  0  0  0  0  0  0  0  0  0  0  0
    2.0331   -0.3533   -0.1586 N   0  0  0  0  0  0  0  0  0  0  0  0
    1.4586   -1.5524    0.4638 C   0  0  0  0  0  0  0  0  0  0  0  0
    1.3094    0.8495    0.2900 C   0  0  0  0  0  0  0  0  0  0  0  0
    0.0290   -1.7681   -0.0436 C   0  0  0  0  0  0  0  0  0  0  0  0
   -0.8063   -0.5156    0.0106 C   0  0  0  0  0  0  0  0  0  0  0  0
   -0.1894    0.7420    0.1253 C   0  0  0  0  0  0  0  0  0  0  0  0
    3.4568   -0.2373    0.1546 C   0  0  0  0  0  0  0  0  0  0  0  0
   -2.1994   -0.5955   -0.1138 C   0  0  0  0  0  0  0  0  0  0  0  0
   -0.9798    1.8991    0.1511 C   0  0  0  0  0  0  0  0  0  0  0  0
    4.0528    0.9604   -0.5600 C   0  0  0  0  0  0  0  0  0  0  0  0
   -2.9757    0.5629   -0.0983 C   0  0  0  0  0  0  0  0  0  0  0  0
   -2.3667    1.8085    0.0361 C   0  0  0  0  0  0  0  0  0  0  0  0
  1  9  1  0
  2  3  1  0
  2  4  1  0
  2  8  1  0
  3  5  1  0
  4  7  1  0
  5  6  1  0
  6  7  2  0
  6  9  1  0
  7 10  1  0
  8 11  1  0
  9 12  2  0
 10 13  2  0
 12 13  1  0
M  END
>  <PUBCHEM_COMPOUND_CID>  (1) 
20603

>  <PUBCHEM_CONFORMER_RMSD>  (1) 
0.6

>  <PUBCHEM_CONFORMER_DIVERSEORDER>  (1) 
1
3
2
4

>  <PUBCHEM_MMFF94_PARTIAL_CHARGES>  (1) 
16
1 -0.53
10 -0.15
12 -0.15
13 -0.15
2 -0.81
22 0.15
26 0.15
27 0.15
28 0.45
3 0.27
4 0.41
5 0.14
6 -0.14
7 -0.14
8 0.27
9 0.08

>  <PUBCHEM_EFFECTIVE_ROTOR_COUNT>  (1) 
1.8

>  <PUBCHEM_PHARMACOPHORE_FEATURES>  (1) 
4
1 1 donor
1 2 cation
6 2 3 4 5 6 7 rings
6 6 7 9 10 12 13 rings

>  <PUBCHEM_HEAVY_ATOM_COUNT>  (1) 
13

>  <PUBCHEM_ATOM_DEF_STEREO_COUNT>  (1) 
0

>  <PUBCHEM_ATOM_UDEF_STEREO_COUNT>  (1) 
0

>  <PUBCHEM_BOND_DEF_STEREO_COUNT>  (1) 
0

>  <PUBCHEM_BOND_UDEF_STEREO_COUNT>  (1) 
0

>  <PUBCHEM_ISOTOPIC_ATOM_COUNT>  (1) 
0

>  <PUBCHEM_COMPONENT_COUNT>  (1) 
1

>  <PUBCHEM_CACTVS_TAUTO_COUNT>  (1) 
3

>  <PUBCHEM_CONFORMER_ID>  (1) 
0000507B00000001

>  <PUBCHEM_MMFF94_ENERGY>  (1) 
28.6615

>  <PUBCHEM_FEATURE_SELFOVERLAP>  (1) 
20.319

>  <PUBCHEM_SHAPE_FINGERPRINT>  (1) 
10608611 8 18413103944607312024
10967382 1 18339078172909751537
11132069 177 18411694362062823056
11206711 2 18411694404754007349
12897270 3 18411978048615225712
12932764 1 17489576875075969270
13024252 1 17822012016905836257
13380535 21 18270126699183419531
13380535 76 18339074865811515219
14325111 11 18410012109335577168
14614273 12 18188202096535568189
14897335 6 18265327322338242661
15536298 74 18269835320703422090
15669948 3 18341604914997082390
15775835 57 18338240370845700208
16945 1 18340198592644098337
18186145 218 18411142394583500724
20510252 161 18343586269531496096
20871998 184 18202284727505913399
21501502 16 18338792291312568899
2334 1 18195522825363110377
23402539 116 18412255164833108014
23402655 69 18197481953885184397
23463225 33 18263076618163282658
23552423 10 18334011674921301787
23559900 14 18272931588718295332
2748010 2 17835230521482669883
3312278 4 18410573989678520643
43471831 8 18335134272120243498
528886 8 18411693266687783643
53812653 166 18271518728381004576
53812653 8 18408886256578461786
57096353 35 18336545009983736614
6333449 129 18341890783772673097
7364860 26 18053381007514758070

>  <PUBCHEM_SHAPE_MULTIPOLES>  (1) 
256.68
5.57
2.04
0.66
3.72
0.16
0
-1.03
0.72
-0.85
-0.03
0.12
-0.02
-0.37

>  <PUBCHEM_SHAPE_SELFOVERLAP>  (1) 
538.757

>  <PUBCHEM_SHAPE_VOLUME>  (1) 
146

>  <PUBCHEM_COORDINATE_TYPE>  (1) 
2
5
10

$$$$
