20618
     RDKit          3D

  8  9  0  0  1  0  0  0  0  0999 V2000
    1.0518   -0.1674   -0.4938 N   0  0  0  0  0  0  0  0  0  0  0  0
   -0.8206    1.0467    0.2703 C   0  0  0  0  0  0  0  0  0  0  0  0
    0.1362   -0.9407    0.3795 C   0  0  0  0  0  0  0  0  0  0  0  0
   -0.3803    0.0934    1.3736 C   0  0  0  0  0  0  0  0  0  0  0  0
   -1.7857    0.1688   -0.5463 C   0  0  0  0  0  0  0  0  0  0  0  0
   -1.1241   -1.2163   -0.4630 C   0  0  0  0  0  0  0  0  0  0  0  0
    0.4935    1.2057   -0.5063 C   0  0  0  0  0  0  0  0  0  0  0  0
    2.4292   -0.1902   -0.0141 C   0  0  0  0  0  0  0  0  0  0  0  0
  1  3  1  0
  1  7  1  0
  1  8  1  0
  2  4  1  0
  2  5  1  0
  2  7  1  0
  3  4  1  0
  3  6  1  0
  5  6  1  0
M  END
>  <PUBCHEM_COMPOUND_CID>  (1) 
20618

>  <PUBCHEM_CONFORMER_RMSD>  (1) 
0.4

>  <PUBCHEM_CONFORMER_DIVERSEORDER>  (1) 
1
2

>  <PUBCHEM_MMFF94_PARTIAL_CHARGES>  (1) 
4
1 -0.81
3 0.27
7 0.27
8 0.27

>  <PUBCHEM_EFFECTIVE_ROTOR_COUNT>  (1) 
1

>  <PUBCHEM_PHARMACOPHORE_FEATURES>  (1) 
2
1 1 cation
7 1 2 3 4 5 6 7 rings

>  <PUBCHEM_HEAVY_ATOM_COUNT>  (1) 
8

>  <PUBCHEM_ATOM_DEF_STEREO_COUNT>  (1) 
0

>  <PUBCHEM_ATOM_UDEF_STEREO_COUNT>  (1) 
2

>  <PUBCHEM_BOND_DEF_STEREO_COUNT>  (1) 
0

>  <PUBCHEM_BOND_UDEF_STEREO_COUNT>  (1) 
0

>  <PUBCHEM_ISOTOPIC_ATOM_COUNT>  (1) 
0

>  <PUBCHEM_COMPONENT_COUNT>  (1) 
1

>  <PUBCHEM_CACTVS_TAUTO_COUNT>  (1) 
1

>  <PUBCHEM_CONFORMER_ID>  (1) 
0000508A00000001

>  <PUBCHEM_MMFF94_ENERGY>  (1) 
23.6332

>  <PUBCHEM_FEATURE_SELFOVERLAP>  (1) 
10.148

>  <PUBCHEM_SHAPE_FINGERPRINT>  (1) 
12423570 1 13464989332347670857
13024252 1 16515693225433592150
137420 1 13754181678073352847
16945 1 18343295959617010213
21040471 1 18195811764808215685
29004967 10 18409173241734449723
369184 2 18411133624107093514
5084963 1 16515682273124588671
5943 1 12218246350187180945

>  <PUBCHEM_SHAPE_MULTIPOLES>  (1) 
159.66
2.19
1.25
1
1.09
0.04
0.29
-0.18
-0.37
-0.2
-0.1
-0.14
0.02
-0.13

>  <PUBCHEM_SHAPE_SELFOVERLAP>  (1) 
333.256

>  <PUBCHEM_SHAPE_VOLUME>  (1) 
96.1

>  <PUBCHEM_COORDINATE_TYPE>  (1) 
2
5
10

$$$$
