20612
     RDKit          3D

 15 16  0  0  0  0  0  0  0  0999 V2000
    5.2917   -0.0007   -0.0012 Cl  0  0  0  0  0  0  0  0  0  0  0  0
   -1.2612   -1.1898   -0.1532 N   0  0  0  0  0  0  0  0  0  0  0  0
   -1.2616    1.1900    0.1534 N   0  0  0  0  0  0  0  0  0  0  0  0
   -3.3394   -0.0003    0.0002 N   0  0  0  0  0  0  0  0  0  0  0  0
   -3.3074   -2.3258   -0.3003 N   0  0  0  0  0  0  0  0  0  0  0  0
   -3.3078    2.3252    0.2991 N   0  0  0  0  0  0  0  0  0  0  0  0
    0.7810    0.0005    0.0006 C   0  0  0  0  0  0  0  0  0  0  0  0
   -0.6659    0.0003   -0.0001 C   0  0  0  0  0  0  0  0  0  0  0  0
    1.4784   -1.1140    0.4667 C   0  0  0  0  0  0  0  0  0  0  0  0
    1.4787    1.1147   -0.4657 C   0  0  0  0  0  0  0  0  0  0  0  0
    2.8732   -1.1143    0.4664 C   0  0  0  0  0  0  0  0  0  0  0  0
    2.8735    1.1145   -0.4660 C   0  0  0  0  0  0  0  0  0  0  0  0
    3.5708    0.0000    0.0001 C   0  0  0  0  0  0  0  0  0  0  0  0
   -2.6017   -1.1130   -0.1434 C   0  0  0  0  0  0  0  0  0  0  0  0
   -2.6021    1.1128    0.1435 C   0  0  0  0  0  0  0  0  0  0  0  0
  1 13  1  0
  2  8  2  0
  2 14  1  0
  3  8  1  0
  3 15  2  0
  4 14  2  0
  4 15  1  0
  5 14  1  0
  6 15  1  0
  7  8  1  0
  7  9  2  0
  7 10  1  0
  9 11  1  0
 10 12  2  0
 11 13  2  0
 12 13  1  0
M  END
>  <PUBCHEM_COMPOUND_CID>  (1) 
20612

>  <PUBCHEM_CONFORMER_RMSD>  (1) 
0.4

>  <PUBCHEM_CONFORMER_DIVERSEORDER>  (1) 
2
1
3

>  <PUBCHEM_MMFF94_PARTIAL_CHARGES>  (1) 
22
1 -0.18
10 -0.15
11 -0.15
12 -0.15
13 0.18
14 0.72
15 0.72
16 0.15
17 0.15
18 0.15
19 0.15
2 -0.62
20 0.4
21 0.4
22 0.4
23 0.4
3 -0.62
4 -0.62
5 -0.9
6 -0.9
8 0.62
9 -0.15

>  <PUBCHEM_EFFECTIVE_ROTOR_COUNT>  (1) 
1

>  <PUBCHEM_PHARMACOPHORE_FEATURES>  (1) 
6
1 5 donor
1 6 donor
4 2 4 5 14 cation
4 3 4 6 15 cation
6 2 3 4 8 14 15 rings
6 7 9 10 11 12 13 rings

>  <PUBCHEM_HEAVY_ATOM_COUNT>  (1) 
15

>  <PUBCHEM_ATOM_DEF_STEREO_COUNT>  (1) 
0

>  <PUBCHEM_ATOM_UDEF_STEREO_COUNT>  (1) 
0

>  <PUBCHEM_BOND_DEF_STEREO_COUNT>  (1) 
0

>  <PUBCHEM_BOND_UDEF_STEREO_COUNT>  (1) 
0

>  <PUBCHEM_ISOTOPIC_ATOM_COUNT>  (1) 
0

>  <PUBCHEM_COMPONENT_COUNT>  (1) 
1

>  <PUBCHEM_CACTVS_TAUTO_COUNT>  (1) 
5

>  <PUBCHEM_CONFORMER_ID>  (1) 
0000508400000002

>  <PUBCHEM_MMFF94_ENERGY>  (1) 
46.1856

>  <PUBCHEM_FEATURE_SELFOVERLAP>  (1) 
30.489

>  <PUBCHEM_SHAPE_FINGERPRINT>  (1) 
10062212 137 18334288760668425906
10608611 8 18413666924403984328
10616163 171 18411982485369963158
11132069 177 18409445860831532760
11806522 49 18335136557327226590
12251169 10 18408606937532973853
12500047 106 18342170016755460257
12932764 1 17346308336565055678
13675066 3 17988922284586337038
14144814 61 18408322163973738296
14325111 11 18409450293074219420
14965852 173 18410009931412540299
15196674 1 18408886235499088748
15442244 35 18264486179058576026
15536298 74 18412263935240722114
15669948 3 18342731927548387527
15775835 57 18335144146086143160
18186145 218 18040433270175700126
18522853 276 18410572907383834664
19026448 4 17704071798609488640
19050596 39 18335986445001916152
19422 9 18335422382894785582
200 152 18337663217625452239
20279233 1 16487256564646702260
20281475 54 18260822679614243386
20510252 161 18201723963643158635
20645477 56 18341334392566940577
20871998 184 18130508612903317191
21267235 1 18336837458412198338
21501502 16 18408041814172925062
2306618 200 18131360704323432641
23402539 116 18340761623948710446
23402655 69 18261108543625453156
23463225 33 18335420136595156774
23557571 272 18060423512243908648
23559900 14 18341884246948779176
3312278 4 18341895177534623736
3545911 37 18412265004096930032
4214541 1 18411700967696182868
474 4 17532099461089289668
4990 188 18272099279743245278
5104073 3 18409728456979194992
57096353 35 18263084486226812766
573450 72 18335973199739610882
77779 3 18412265030336115302
7832392 63 18409730617010452124
9709674 26 18410863182859843806

>  <PUBCHEM_SHAPE_MULTIPOLES>  (1) 
285.66
8.18
1.87
0.67
4.6
0
0
0
0
-2.03
0
0.13
0
-0.71

>  <PUBCHEM_SHAPE_SELFOVERLAP>  (1) 
610.513

>  <PUBCHEM_SHAPE_VOLUME>  (1) 
158.5

>  <PUBCHEM_COORDINATE_TYPE>  (1) 
2
5
10

$$$$
