20627
     RDKit          3D

 16 17  0  0  0  0  0  0  0  0999 V2000
    4.1674   -1.6628    0.0227 O   0  0  0  0  0  0  0  0  0  0  0  0
    2.1929   -2.4968    0.4970 O   0  0  0  0  0  0  0  0  0  0  0  0
   -0.9698    1.3800    0.3035 N   0  0  0  0  0  0  0  0  0  0  0  0
    2.9326   -1.5278    0.1998 N   0  0  0  0  0  0  0  0  0  0  0  0
    0.4142    1.2032    0.1114 C   0  0  0  0  0  0  0  0  0  0  0  0
   -2.0779    0.5304    0.1051 C   0  0  0  0  0  0  0  0  0  0  0  0
    0.9835   -0.0637    0.2501 C   0  0  0  0  0  0  0  0  0  0  0  0
    1.2192    2.2949   -0.2184 C   0  0  0  0  0  0  0  0  0  0  0  0
    2.3543   -0.2384    0.0594 C   0  0  0  0  0  0  0  0  0  0  0  0
    2.5898    2.1201   -0.4090 C   0  0  0  0  0  0  0  0  0  0  0  0
   -3.2133    0.6664    0.9039 C   0  0  0  0  0  0  0  0  0  0  0  0
   -2.0383   -0.4464   -0.8901 C   0  0  0  0  0  0  0  0  0  0  0  0
    3.1574    0.8535   -0.2702 C   0  0  0  0  0  0  0  0  0  0  0  0
   -4.3089   -0.1744    0.7079 C   0  0  0  0  0  0  0  0  0  0  0  0
   -3.1340   -1.2871   -1.0861 C   0  0  0  0  0  0  0  0  0  0  0  0
   -4.2692   -1.1511   -0.2871 C   0  0  0  0  0  0  0  0  0  0  0  0
  1  4  1  0
  2  4  2  0
  3  5  1  0
  3  6  1  0
  4  9  1  0
  5  7  2  0
  5  8  1  0
  6 11  2  0
  6 12  1  0
  7  9  1  0
  8 10  2  0
  9 13  2  0
 10 13  1  0
 11 14  1  0
 12 15  2  0
 14 16  2  0
 15 16  1  0
M  CHG  2   1  -1   4   1
M  END
>  <PUBCHEM_COMPOUND_CID>  (1) 
20627

>  <PUBCHEM_CONFORMER_RMSD>  (1) 
0.6

>  <PUBCHEM_CONFORMER_DIVERSEORDER>  (1) 
1
4
5
6
3
2

>  <PUBCHEM_MMFF94_PARTIAL_CHARGES>  (1) 
26
1 -0.52
10 -0.15
11 -0.15
12 -0.15
13 -0.15
14 -0.15
15 -0.15
16 -0.15
17 0.4
18 0.15
19 0.15
2 -0.52
20 0.15
21 0.15
22 0.15
23 0.15
24 0.15
25 0.15
26 0.15
3 -0.6
4 0.91
5 0.1
6 0.1
7 -0.15
8 -0.15
9 0.13

>  <PUBCHEM_EFFECTIVE_ROTOR_COUNT>  (1) 
3

>  <PUBCHEM_PHARMACOPHORE_FEATURES>  (1) 
7
1 1 acceptor
1 1 anion
1 2 acceptor
1 3 cation
1 3 donor
6 5 7 8 9 10 13 rings
6 6 11 12 14 15 16 rings

>  <PUBCHEM_HEAVY_ATOM_COUNT>  (1) 
16

>  <PUBCHEM_ATOM_DEF_STEREO_COUNT>  (1) 
0

>  <PUBCHEM_ATOM_UDEF_STEREO_COUNT>  (1) 
0

>  <PUBCHEM_BOND_DEF_STEREO_COUNT>  (1) 
0

>  <PUBCHEM_BOND_UDEF_STEREO_COUNT>  (1) 
0

>  <PUBCHEM_ISOTOPIC_ATOM_COUNT>  (1) 
0

>  <PUBCHEM_COMPONENT_COUNT>  (1) 
1

>  <PUBCHEM_CACTVS_TAUTO_COUNT>  (1) 
1

>  <PUBCHEM_CONFORMER_ID>  (1) 
0000509300000001

>  <PUBCHEM_MMFF94_ENERGY>  (1) 
62.4928

>  <PUBCHEM_FEATURE_SELFOVERLAP>  (1) 
35.602

>  <PUBCHEM_SHAPE_FINGERPRINT>  (1) 
10062212 137 18131630097826287967
10616163 171 18127695035504286735
11471102 20 18335420209361810884
11578080 2 18058424583046959249
11806522 49 18409729543748344744
12553582 1 18337386020420558266
12616999 72 17968947508046716540
13296908 3 18334008376507991197
13533116 47 18341048635998322755
14144814 61 18059860601335622061
14251717 144 18336262431131793610
14576447 43 18269552908721896412
15279307 12 18198625629980825655
15375462 189 18200880676927047129
15442244 35 18340772546156259825
15477762 27 18335702766918212916
15536298 74 18343584061923515352
18186145 218 17240198837613884673
19422 9 18342461460725577433
20279233 1 16588577716788024673
20281475 54 18341891939551269023
20291156 8 18339923706052365058
20559304 39 18342457062494696808
20645477 70 18261100911695323879
212916 134 16199885964392632075
21634736 98 18411981399101550246
221490 88 18262245524500602602
22445834 79 18342459274576804125
22485316 2 18341611546864411241
2255824 54 18337957921117401636
22646028 28 18342455945782003423
23463225 33 18343303669378738237
23598291 2 18342464728884674309
33824 294 18263361541761244744
474 4 17977947109167415073
5104073 3 18343587356421888641
573450 72 17704076200961516699
58051976 100 18336547110507808045
581208 293 18336543927546735864
7364860 26 18341330080498766776
77492 1 18131075969392846601
83771 10 18410292480199763640
9709674 26 18260833756086947699

>  <PUBCHEM_SHAPE_MULTIPOLES>  (1) 
307.57
8.17
2.28
0.86
3.7
0.37
-0.07
2.87
0.16
-2.45
0.02
0.6
0.06
-1.05

>  <PUBCHEM_SHAPE_SELFOVERLAP>  (1) 
661.605

>  <PUBCHEM_SHAPE_VOLUME>  (1) 
168.9

>  <PUBCHEM_COORDINATE_TYPE>  (1) 
2
5
10

$$$$
