20624
     RDKit          3D

 25 27  0  0  0  0  0  0  0  0999 V2000
   -6.0831   -0.2519   -2.2724 O   0  0  0  0  0  0  0  0  0  0  0  0
   -4.8625    1.9436    2.4053 O   0  0  0  0  0  0  0  0  0  0  0  0
   -3.1780   -0.2798   -0.0041 N   0  0  0  0  0  0  0  0  0  0  0  0
    1.1860    0.2501   -0.0541 C   0  0  0  0  0  0  0  0  0  0  0  0
   -1.8741    0.3793   -0.0654 C   0  0  0  0  0  0  0  0  0  0  0  0
    0.3194    0.5174   -1.3377 C   0  0  0  0  0  0  0  0  0  0  0  0
    0.3007    0.7424    1.1462 C   0  0  0  0  0  0  0  0  0  0  0  0
   -1.0969   -0.0736   -1.2997 C   0  0  0  0  0  0  0  0  0  0  0  0
   -1.0823    0.0878    1.2071 C   0  0  0  0  0  0  0  0  0  0  0  0
    1.5904   -1.2329    0.1588 C   0  0  0  0  0  0  0  0  0  0  0  0
    2.4962    1.0779   -0.1973 C   0  0  0  0  0  0  0  0  0  0  0  0
   -3.9704    0.0427   -1.1902 C   0  0  0  0  0  0  0  0  0  0  0  0
   -3.8927    0.1126    1.2101 C   0  0  0  0  0  0  0  0  0  0  0  0
    1.7906   -1.7204    1.4489 C   0  0  0  0  0  0  0  0  0  0  0  0
    3.0612    1.2702   -1.4561 C   0  0  0  0  0  0  0  0  0  0  0  0
    1.7530   -2.0736   -0.9407 C   0  0  0  0  0  0  0  0  0  0  0  0
    3.0993    1.6232    0.9336 C   0  0  0  0  0  0  0  0  0  0  0  0
   -5.3436   -0.6050   -1.1109 C   0  0  0  0  0  0  0  0  0  0  0  0
   -4.1531    1.6105    1.2194 C   0  0  0  0  0  0  0  0  0  0  0  0
    2.1545   -3.0533    1.6403 C   0  0  0  0  0  0  0  0  0  0  0  0
    4.2356    2.0118   -1.5844 C   0  0  0  0  0  0  0  0  0  0  0  0
    2.1167   -3.4064   -0.7495 C   0  0  0  0  0  0  0  0  0  0  0  0
    4.2737    2.3648    0.8054 C   0  0  0  0  0  0  0  0  0  0  0  0
    2.3175   -3.8963    0.5411 C   0  0  0  0  0  0  0  0  0  0  0  0
    4.8418    2.5590   -0.4537 C   0  0  0  0  0  0  0  0  0  0  0  0
  1 18  1  0
  2 19  1  0
  3  5  1  0
  3 12  1  0
  3 13  1  0
  4  6  1  0
  4  7  1  0
  4 10  1  0
  4 11  1  0
  5  8  1  0
  5  9  1  0
  6  8  1  0
  7  9  1  0
 10 14  2  0
 10 16  1  0
 11 15  2  0
 11 17  1  0
 12 18  1  0
 13 19  1  0
 14 20  1  0
 15 21  1  0
 16 22  2  0
 17 23  2  0
 20 24  2  0
 21 25  2  0
 22 24  1  0
 23 25  1  0
M  END
>  <PUBCHEM_COMPOUND_CID>  (1) 
20624

>  <PUBCHEM_CONFORMER_RMSD>  (1) 
0.8

>  <PUBCHEM_CONFORMER_DIVERSEORDER>  (1) 
1
11
5
10
20
26
7
22
24
19
9
3
21
25
16
17
14
23
15
8
12
18
13
2
6
4

>  <PUBCHEM_MMFF94_PARTIAL_CHARGES>  (1) 
33
1 -0.68
10 -0.14
11 -0.14
12 0.27
13 0.27
14 -0.15
15 -0.15
16 -0.15
17 -0.15
18 0.28
19 0.28
2 -0.68
20 -0.15
21 -0.15
22 -0.15
23 -0.15
24 -0.15
25 -0.15
3 -0.81
39 0.15
4 0.29
40 0.15
41 0.15
42 0.15
47 0.15
48 0.15
49 0.15
5 0.27
50 0.15
51 0.15
52 0.15
53 0.4
54 0.4

>  <PUBCHEM_EFFECTIVE_ROTOR_COUNT>  (1) 
8.2

>  <PUBCHEM_PHARMACOPHORE_FEATURES>  (1) 
8
1 1 acceptor
1 1 donor
1 2 acceptor
1 2 donor
1 3 cation
6 10 14 16 20 22 24 rings
6 11 15 17 21 23 25 rings
6 4 5 6 7 8 9 rings

>  <PUBCHEM_HEAVY_ATOM_COUNT>  (1) 
25

>  <PUBCHEM_ATOM_DEF_STEREO_COUNT>  (1) 
0

>  <PUBCHEM_ATOM_UDEF_STEREO_COUNT>  (1) 
0

>  <PUBCHEM_BOND_DEF_STEREO_COUNT>  (1) 
0

>  <PUBCHEM_BOND_UDEF_STEREO_COUNT>  (1) 
0

>  <PUBCHEM_ISOTOPIC_ATOM_COUNT>  (1) 
0

>  <PUBCHEM_COMPONENT_COUNT>  (1) 
1

>  <PUBCHEM_CACTVS_TAUTO_COUNT>  (1) 
1

>  <PUBCHEM_CONFORMER_ID>  (1) 
0000509000000001

>  <PUBCHEM_MMFF94_ENERGY>  (1) 
82.8555

>  <PUBCHEM_FEATURE_SELFOVERLAP>  (1) 
40.596

>  <PUBCHEM_SHAPE_FINGERPRINT>  (1) 
10366900 7 18340485672722299337
10764073 3 15071109739120589056
10906281 52 17313107466468386277
11475781 23 16732972112857378063
12553582 1 17974294213886306971
12788726 201 17560796663424752615
13083527 12 18264469712296479018
133893 2 18188785929062886472
13533116 47 18412542090445466667
13540713 5 18059293154778067993
13583140 156 18198647517630201257
13631057 29 18052252084278168975
13681431 1 18120366558966906214
13878862 14 18192706744652683445
14178342 30 18189352323263756339
15238133 3 16628564571146952001
15842332 3 18130788902558412939
17138139 8 17697572726759068991
17818456 19 17555458332086386953
1813 80 17980761541475992574
18681886 176 16271642403317982985
19377110 9 18273494576999479219
20197701 30 18264486368311476046
20567600 347 18337391651296633274
20600515 1 17261035420826905108
20645477 70 18188198819765879471
20721686 146 16009021817909399782
21049683 118 17837458085196954840
21054139 6 18125426755832326815
21120745 212 17259361972973183238
21421861 104 18267032652320435256
21796203 349 17831043250529489682
22182313 1 16878235177623155995
22393880 68 17418377995467188433
23419403 2 15577485408467505770
23557571 272 16009042665437819763
23559900 14 14418690282395043347
25147074 1 18130506336612542729
268830 7 18341336579048023289
312423 11 18271805671220289303
32027 91 17678167205733239451
3633792 109 18265597833081027247
394222 165 18273217495410497154
404807 78 17757819401747374919
4340502 62 18337387248775754943
458136 41 18334585650398643890
474 4 18335988674248678964
5895379 119 16840530574037854576
5912855 24 18272940432056490867
59755656 520 18266179612171255900
633830 44 18200605794778253540
6669772 16 18335986454620986334
7495541 125 12679183863907636221
7615 1 18130220446446375033
81539 233 18260828228516674614
9841814 1 18044096748430514082

>  <PUBCHEM_SHAPE_MULTIPOLES>  (1) 
497.77
10.64
3.64
1.95
14.02
3.79
0.08
-6.63
-1.98
-6.02
0.73
1.67
-0.3
-1.94

>  <PUBCHEM_SHAPE_SELFOVERLAP>  (1) 
1049.562

>  <PUBCHEM_SHAPE_VOLUME>  (1) 
277.9

>  <PUBCHEM_COORDINATE_TYPE>  (1) 
2
5
10

$$$$
