20629
     RDKit          2D

 34 38  0  0  1  0  0  0  0  0999 V2000
    0.0000    0.0000    0.0000 F   0  0  0  0  0  0  0  0  0  0  0  0
    0.0000    0.0000    0.0000 O   0  0  0  0  0  0  0  0  0  0  0  0
    0.0000    0.0000    0.0000 O   0  0  0  0  0  0  0  0  0  0  0  0
    0.0000    0.0000    0.0000 O   0  0  0  0  0  0  0  0  0  0  0  0
    0.0000    0.0000    0.0000 O   0  0  0  0  0  0  0  0  0  0  0  0
    0.0000    0.0000    0.0000 O   0  0  0  0  0  0  0  0  0  0  0  0
    0.0000    0.0000    0.0000 O   0  0  0  0  0  0  0  0  0  0  0  0
    0.0000    0.0000    0.0000 O   0  0  0  0  0  0  0  0  0  0  0  0
    0.0000    0.0000    0.0000 C   0  0  0  0  0  0  0  0  0  0  0  0
    0.0000    0.0000    0.0000 C   0  0  0  0  0  0  0  0  0  0  0  0
    0.0000    0.0000    0.0000 C   0  0  0  0  0  0  0  0  0  0  0  0
    0.0000    0.0000    0.0000 C   0  0  0  0  0  0  0  0  0  0  0  0
    0.0000    0.0000    0.0000 C   0  0  0  0  0  0  0  0  0  0  0  0
    0.0000    0.0000    0.0000 C   0  0  0  0  0  0  0  0  0  0  0  0
    0.0000    0.0000    0.0000 C   0  0  0  0  0  0  0  0  0  0  0  0
    0.0000    0.0000    0.0000 C   0  0  0  0  0  0  0  0  0  0  0  0
    0.0000    0.0000    0.0000 C   0  0  0  0  0  0  0  0  0  0  0  0
    0.0000    0.0000    0.0000 C   0  0  0  0  0  0  0  0  0  0  0  0
    0.0000    0.0000    0.0000 C   0  0  0  0  0  0  0  0  0  0  0  0
    0.0000    0.0000    0.0000 C   0  0  0  0  0  0  0  0  0  0  0  0
    0.0000    0.0000    0.0000 C   0  0  0  0  0  0  0  0  0  0  0  0
    0.0000    0.0000    0.0000 C   0  0  0  0  0  0  0  0  0  0  0  0
    0.0000    0.0000    0.0000 C   0  0  0  0  0  0  0  0  0  0  0  0
    0.0000    0.0000    0.0000 C   0  0  0  0  0  0  0  0  0  0  0  0
    0.0000    0.0000    0.0000 C   0  0  0  0  0  0  0  0  0  0  0  0
    0.0000    0.0000    0.0000 C   0  0  0  0  0  0  0  0  0  0  0  0
    0.0000    0.0000    0.0000 C   0  0  0  0  0  0  0  0  0  0  0  0
    0.0000    0.0000    0.0000 C   0  0  0  0  0  0  0  0  0  0  0  0
    0.0000    0.0000    0.0000 C   0  0  0  0  0  0  0  0  0  0  0  0
    0.0000    0.0000    0.0000 C   0  0  0  0  0  0  0  0  0  0  0  0
    0.0000    0.0000    0.0000 C   0  0  0  0  0  0  0  0  0  0  0  0
    0.0000    0.0000    0.0000 C   0  0  0  0  0  0  0  0  0  0  0  0
    0.0000    0.0000    0.0000 C   0  0  0  0  0  0  0  0  0  0  0  0
    0.0000    0.0000    0.0000 C   0  0  0  0  0  0  0  0  0  0  0  0
  1 21  1  0
  2 12  1  0
  2 23  1  0
  3 14  1  0
  3 23  1  0
  4 17  1  0
  5 22  2  0
  6 27  1  0
  6 33  1  0
  7 32  2  0
  8 33  2  0
  9 10  1  0
  9 12  1  0
  9 16  1  0
  9 20  1  0
 10 11  1  0
 10 15  1  0
 11 13  1  0
 11 19  1  0
 12 14  1  0
 12 22  1  0
 13 17  1  0
 13 18  1  0
 14 15  1  0
 16 17  1  0
 18 24  1  0
 18 25  1  0
 18 26  1  0
 19 21  1  0
 21 24  1  0
 22 27  1  0
 23 28  1  0
 23 29  1  0
 24 30  2  0
 26 31  2  0
 30 32  1  0
 31 32  1  0
 33 34  1  0
M  END
>  <PUBCHEM_COMPOUND_CID>  (1) 
20629

>  <PUBCHEM_CONFORMER_RMSD>  (1) 
0.8

>  <PUBCHEM_CONFORMER_DIVERSEORDER>  (1) 
11
335
179
317
237
119
260
55
84
254
221
85
201
315
21
106
155
37
332
309
219
200
194
160
47
243
168
91
118
116
24
65
146
316
1
276
33
196
241
80
81
99
115
203
137
77
5
325
96
19
114
153
331
144
211
136
222
232
202
169
223
143
101
233
68
238
72
265
43
132
339
161
303
264
323
139
271
151
130
334
138
125
301
36
121
107
312
310
182
102
70
259
74
185
252
336
41
13
291
293
224
71
188
197
94
320
318
231
32
162
306
8
263
178
213
302
83
267
97
51
79
198
6
256
111
307
282
40
104
86
95
191
329
60
218
280
50
261
134
242
150
164
127
61
53
235
206
108
113
147
204
239
4
251
295
78
140
286
298
234
156
228
249
208
112
27
154
35
220
248
333
16
135
173
17
42
165
163
319
44
229
240
52
217
227
183
105
274
73
58
75
275
184
212
269
166
18
294
214
56
314
12
159
313
226
304
215
117
277
328
3
258
195
300
48
299
59
289
152
262
338
98
38
62
9
110
192
175
2
322
133
124
142
131
123
30
236
129
29
288
247
311
177
216
190
76
281
285
297
66
63
109
26
23
176
181
272
273
92
170
199
337
145
278
230
7
245
296
268
93
69
209
57
31
54
122
270
46
187
327
22
321
100
250
103
279
10
283
25
186
89
15
167
287
64
246
174
210
148
290
120
172
225
126
324
90
149
253
205
67
49
45
20
257
305
128
88
284
82
207
255
193
39
266
28
308
158
244
326
330
14
141
87
189
171
157
34
292
180

>  <PUBCHEM_MMFF94_PARTIAL_CHARGES>  (1) 
27
1 -0.34
12 0.34
14 0.28
17 0.28
18 0.28
2 -0.56
21 0.48
22 0.45
23 0.56
24 -0.28
26 -0.29
27 0.34
3 -0.56
30 -0.14
31 -0.14
32 0.54
33 0.66
34 0.06
4 -0.68
5 -0.57
53 0.15
54 0.4
6 -0.43
63 0.15
64 0.15
7 -0.57
8 -0.57

>  <PUBCHEM_EFFECTIVE_ROTOR_COUNT>  (1) 
5.6

>  <PUBCHEM_PHARMACOPHORE_FEATURES>  (1) 
13
1 2 acceptor
1 3 acceptor
1 4 acceptor
1 4 donor
1 5 acceptor
1 7 acceptor
1 8 acceptor
3 23 28 29 hydrophobe
5 2 3 12 14 23 rings
5 9 10 12 14 15 rings
6 11 13 18 19 21 24 rings
6 18 24 26 30 31 32 rings
6 9 10 11 13 16 17 rings

>  <PUBCHEM_HEAVY_ATOM_COUNT>  (1) 
34

>  <PUBCHEM_ATOM_DEF_STEREO_COUNT>  (1) 
4

>  <PUBCHEM_ATOM_UDEF_STEREO_COUNT>  (1) 
5

>  <PUBCHEM_BOND_DEF_STEREO_COUNT>  (1) 
0

>  <PUBCHEM_BOND_UDEF_STEREO_COUNT>  (1) 
0

>  <PUBCHEM_ISOTOPIC_ATOM_COUNT>  (1) 
0

>  <PUBCHEM_COMPONENT_COUNT>  (1) 
1

>  <PUBCHEM_CACTVS_TAUTO_COUNT>  (1) 
2

$$$$
