20636
     RDKit          3D

 19 19  0  0  1  0  0  0  0  0999 V2000
   -0.2078   -1.3444    0.2801 C   0  0  0  0  0  0  0  0  0  0  0  0
   -1.5616   -0.9975   -0.3455 C   0  0  0  0  0  0  0  0  0  0  0  0
    0.9127   -0.4902   -0.3166 C   0  0  0  0  0  0  0  0  0  0  0  0
   -2.6889   -1.8334    0.2727 C   0  0  0  0  0  0  0  0  0  0  0  0
    2.2951   -0.8113    0.2586 C   0  0  0  0  0  0  0  0  0  0  0  0
   -4.0758   -1.5056   -0.3205 C   0  0  0  0  0  0  0  0  0  0  0  0
    3.4254   -0.0100   -0.3909 C   0  0  0  0  0  0  0  0  0  0  0  0
    4.7799   -0.3612    0.2289 C   0  0  0  0  0  0  0  0  0  0  0  0
    5.9087    0.4617   -0.3964 C   0  0  0  0  0  0  0  0  0  0  0  0
   -4.4786   -0.0535   -0.1297 C   0  0  0  0  0  0  0  0  0  0  0  0
    7.2569    0.1322    0.2482 C   0  0  0  0  0  0  0  0  0  0  0  0
   -5.1408   -2.4393    0.2677 C   0  0  0  0  0  0  0  0  0  0  0  0
    8.4258    0.9117   -0.3577 C   0  0  0  0  0  0  0  0  0  0  0  0
   -5.2354    0.5944   -1.1060 C   0  0  0  0  0  0  0  0  0  0  0  0
   -4.0921    0.6321    1.0221 C   0  0  0  0  0  0  0  0  0  0  0  0
    9.7640    0.6077    0.2976 C   0  0  0  0  0  0  0  0  0  0  0  0
   -5.6057    1.9278   -0.9308 C   0  0  0  0  0  0  0  0  0  0  0  0
   -4.4625    1.9655    1.1973 C   0  0  0  0  0  0  0  0  0  0  0  0
   -5.2193    2.6133    0.2207 C   0  0  0  0  0  0  0  0  0  0  0  0
  1  2  1  0
  1  3  1  0
  2  4  1  0
  3  5  1  0
  4  6  1  0
  5  7  1  0
  6 10  1  0
  6 12  1  0
  7  8  1  0
  8  9  1  0
  9 11  1  0
 10 14  2  0
 10 15  1  0
 11 13  1  0
 13 16  1  0
 14 17  1  0
 15 18  2  0
 17 19  2  0
 18 19  1  0
M  END
>  <PUBCHEM_COMPOUND_CID>  (1) 
20636

>  <PUBCHEM_CONFORMER_RMSD>  (1) 
1.4

>  <PUBCHEM_CONFORMER_DIVERSEORDER>  (1) 
1
12
24
2
21
35
11
3
19
9
5
14
13
26
42
7
15
38
29
4
34
17
43
32
40
30
27
8
16
36
6
23
10
33
31
28
41
39
37
20
22
25
18

>  <PUBCHEM_MMFF94_PARTIAL_CHARGES>  (1) 
12
10 -0.14
14 -0.15
15 -0.15
17 -0.15
18 -0.15
19 -0.15
44 0.15
45 0.15
49 0.15
50 0.15
51 0.15
6 0.14

>  <PUBCHEM_EFFECTIVE_ROTOR_COUNT>  (1) 
11

>  <PUBCHEM_PHARMACOPHORE_FEATURES>  (1) 
3
1 12 hydrophobe
1 16 hydrophobe
6 10 14 15 17 18 19 rings

>  <PUBCHEM_HEAVY_ATOM_COUNT>  (1) 
19

>  <PUBCHEM_ATOM_DEF_STEREO_COUNT>  (1) 
0

>  <PUBCHEM_ATOM_UDEF_STEREO_COUNT>  (1) 
1

>  <PUBCHEM_BOND_DEF_STEREO_COUNT>  (1) 
0

>  <PUBCHEM_BOND_UDEF_STEREO_COUNT>  (1) 
0

>  <PUBCHEM_ISOTOPIC_ATOM_COUNT>  (1) 
0

>  <PUBCHEM_COMPONENT_COUNT>  (1) 
1

>  <PUBCHEM_CACTVS_TAUTO_COUNT>  (1) 
1

>  <PUBCHEM_CONFORMER_ID>  (1) 
0000509C00000001

>  <PUBCHEM_MMFF94_ENERGY>  (1) 
20.518

>  <PUBCHEM_FEATURE_SELFOVERLAP>  (1) 
15.223

>  <PUBCHEM_SHAPE_FINGERPRINT>  (1) 
100830 39 18411418414556236288
10411042 1 17906733958215681215
10666366 153 17988653965880405894
10670039 82 18411976966510600001
11315181 36 18186800313952752007
12091667 2 18342458179128424950
125118 31 18337390544028793408
13073987 5 18334579027269754811
13167372 99 18334859433511115524
13885169 127 18411419527601579942
14251764 18 18040432218536531498
14729087 3 18413387636177199656
15183329 4 18342737403969001488
15461852 350 17774996920807745535
155225 5 18198626523171571472
15716309 27 8430311346707945958
17093844 174 18333731329441940291
1754908 1 11819271201178177764
17780758 139 12757149057171109231
1818759 1 12901539119592509224
18336668 15 18259708912600200389
18927931 339 8934997079925828361
195137 175 18259991496516723708
20281389 69 18408041805809817904
21150785 3 14117798025312355084
21315763 28 18338517551451226790
23081809 10 17822293509315942086
270888 7 18194684757770969257
4073 2 18260553320619598962
441001 317 18343019978467993091
444735 82 18266740367882458312
44555599 121 18113906004994574284
54039377 194 11311763008637130429
59567204 34 18413389821672618376
6327066 14 18264202514324050813
6328613 192 18410011009929379712
9953998 17 11674875585126784383

>  <PUBCHEM_SHAPE_MULTIPOLES>  (1) 
391.01
26.41
2.3
0.93
70.73
0.31
0.03
11.8
-0.44
-5.98
0.24
-1.01
0.29
-0.16

>  <PUBCHEM_SHAPE_SELFOVERLAP>  (1) 
752.874

>  <PUBCHEM_SHAPE_VOLUME>  (1) 
235.5

>  <PUBCHEM_COORDINATE_TYPE>  (1) 
2
5
10

$$$$
