20632
     RDKit          3D

 19 19  0  0  1  0  0  0  0  0999 V2000
    0.8288    0.5988   -0.3417 C   0  0  0  0  0  0  0  0  0  0  0  0
   -0.5017    1.1466    0.2275 C   0  0  0  0  0  0  0  0  0  0  0  0
    2.0187    1.3787    0.2667 C   0  0  0  0  0  0  0  0  0  0  0  0
   -1.7405    0.5072   -0.4142 C   0  0  0  0  0  0  0  0  0  0  0  0
    3.3718    0.9785   -0.3347 C   0  0  0  0  0  0  0  0  0  0  0  0
   -3.0284    1.0712    0.1919 C   0  0  0  0  0  0  0  0  0  0  0  0
    0.9638   -0.9018   -0.1361 C   0  0  0  0  0  0  0  0  0  0  0  0
   -4.3003    0.4965   -0.4401 C   0  0  0  0  0  0  0  0  0  0  0  0
    4.5171    1.7649    0.3072 C   0  0  0  0  0  0  0  0  0  0  0  0
   -5.5862    1.0078    0.2151 C   0  0  0  0  0  0  0  0  0  0  0  0
    5.8696    1.3475   -0.2698 C   0  0  0  0  0  0  0  0  0  0  0  0
    0.4311   -1.5003    1.0058 C   0  0  0  0  0  0  0  0  0  0  0  0
    1.6208   -1.6800   -1.0893 C   0  0  0  0  0  0  0  0  0  0  0  0
   -6.8536    0.3871   -0.3785 C   0  0  0  0  0  0  0  0  0  0  0  0
    0.5553   -2.8768    1.1943 C   0  0  0  0  0  0  0  0  0  0  0  0
    1.7448   -3.0565   -0.9008 C   0  0  0  0  0  0  0  0  0  0  0  0
    7.0075    2.1492    0.3415 C   0  0  0  0  0  0  0  0  0  0  0  0
    1.2122   -3.6549    0.2409 C   0  0  0  0  0  0  0  0  0  0  0  0
   -8.1308    0.8364    0.3142 C   0  0  0  0  0  0  0  0  0  0  0  0
  1  2  1  0
  1  3  1  0
  1  7  1  0
  2  4  1  0
  3  5  1  0
  4  6  1  0
  5  9  1  0
  6  8  1  0
  7 12  2  0
  7 13  1  0
  8 10  1  0
  9 11  1  0
 10 14  1  0
 11 17  1  0
 12 15  1  0
 13 16  2  0
 14 19  1  0
 15 18  2  0
 16 18  1  0
M  END
>  <PUBCHEM_COMPOUND_CID>  (1) 
20632

>  <PUBCHEM_CONFORMER_RMSD>  (1) 
1.2

>  <PUBCHEM_CONFORMER_DIVERSEORDER>  (1) 
1
19
53
40
28
79
35
38
33
25
62
77
70
4
14
8
11
47
63
37
81
23
41
26
55
64
32
56
57
73
68
3
72
46
49
13
5
17
67
52
75
74
54
18
10
44
15
51
66
22
30
50
29
61
7
12
58
2
71
60
39
34
65
9
24
80
43
59
21
31
69
78
45
42
48
76
36
6
20
16
82
27

>  <PUBCHEM_MMFF94_PARTIAL_CHARGES>  (1) 
12
1 0.14
12 -0.15
13 -0.15
15 -0.15
16 -0.15
18 -0.15
39 0.15
40 0.15
43 0.15
44 0.15
48 0.15
7 -0.14

>  <PUBCHEM_EFFECTIVE_ROTOR_COUNT>  (1) 
11

>  <PUBCHEM_PHARMACOPHORE_FEATURES>  (1) 
3
1 17 hydrophobe
1 19 hydrophobe
6 7 12 13 15 16 18 rings

>  <PUBCHEM_HEAVY_ATOM_COUNT>  (1) 
19

>  <PUBCHEM_ATOM_DEF_STEREO_COUNT>  (1) 
0

>  <PUBCHEM_ATOM_UDEF_STEREO_COUNT>  (1) 
1

>  <PUBCHEM_BOND_DEF_STEREO_COUNT>  (1) 
0

>  <PUBCHEM_BOND_UDEF_STEREO_COUNT>  (1) 
0

>  <PUBCHEM_ISOTOPIC_ATOM_COUNT>  (1) 
0

>  <PUBCHEM_COMPONENT_COUNT>  (1) 
1

>  <PUBCHEM_CACTVS_TAUTO_COUNT>  (1) 
1

>  <PUBCHEM_CONFORMER_ID>  (1) 
0000509800000001

>  <PUBCHEM_MMFF94_ENERGY>  (1) 
22.0624

>  <PUBCHEM_FEATURE_SELFOVERLAP>  (1) 
15.223

>  <PUBCHEM_SHAPE_FINGERPRINT>  (1) 
12730499 353 18409174298776406963
13073987 5 18339367354192454193
13533116 47 18271524196734007441
13631057 29 18128250285245835079
13968360 50 18407757027956004706
17980427 23 17096374002006483879
20554085 129 18130211731989517160
20567600 254 18408601478719308908
20645477 70 18339079273149425207
21049683 118 18124008356010220880
21054139 6 18269828873820146975
21403212 168 18334006190928605600
21521239 73 17846787282476330014
21521721 280 18343303703575453264
22224240 67 18408881871253660021
22956985 138 17680414556029273738
239999 70 18340489950588905823
33824 294 18335984181881348011
4073 2 18335146389055844259
42630746 31 18411418375769460455
4340502 62 18333452036778094887
474229 33 18336265733935413416
54076057 127 18202014205144375495
5758199 1 18413672426399573865
59755656 215 18410860940511992429
59755656 520 18336256946833051414
6025842 7 18412261697336180671
621550 34 18188203222017635413

>  <PUBCHEM_SHAPE_MULTIPOLES>  (1) 
391.01
16.61
3.48
0.92
23.6
4.41
0.03
-16.3
0.43
-4.73
0.35
-0.19
0.48
0.39

>  <PUBCHEM_SHAPE_SELFOVERLAP>  (1) 
753.621

>  <PUBCHEM_SHAPE_VOLUME>  (1) 
235

>  <PUBCHEM_COORDINATE_TYPE>  (1) 
2
5
10

$$$$
