20630
     RDKit          3D

 14 14  0  0  0  0  0  0  0  0999 V2000
   -2.2980   -2.2539   -0.0682 Cl  0  0  0  0  0  0  0  0  0  0  0  0
   -3.0069    0.7261    1.6738 Cl  0  0  0  0  0  0  0  0  0  0  0  0
   -2.1934    0.9773   -0.1862 S   0  0  0  0  0  0  0  0  0  0  0  0
   -3.1170    0.3647   -1.1196 O   0  0  0  0  0  0  0  0  0  0  0  0
   -1.8348    2.3796   -0.2575 O   0  0  0  0  0  0  0  0  0  0  0  0
    3.9715   -0.1153    0.0877 O   0  0  0  0  0  0  0  0  0  0  0  0
    2.9487    1.8239   -0.0244 O   0  0  0  0  0  0  0  0  0  0  0  0
    2.9224    0.5701    0.0224 N   0  0  0  0  0  0  0  0  0  0  0  0
   -0.7453   -0.0047   -0.0939 C   0  0  0  0  0  0  0  0  0  0  0  0
    0.4876    0.6476   -0.0720 C   0  0  0  0  0  0  0  0  0  0  0  0
    1.6673   -0.0932    0.0005 C   0  0  0  0  0  0  0  0  0  0  0  0
   -0.7982   -1.3977   -0.0432 C   0  0  0  0  0  0  0  0  0  0  0  0
    1.6144   -1.4860    0.0512 C   0  0  0  0  0  0  0  0  0  0  0  0
    0.3817   -2.1383    0.0292 C   0  0  0  0  0  0  0  0  0  0  0  0
  1 12  1  0
  2  3  1  0
  3  4  2  0
  3  5  2  0
  3  9  1  0
  6  8  1  0
  7  8  2  0
  8 11  1  0
  9 10  2  0
  9 12  1  0
 10 11  1  0
 11 13  2  0
 12 14  2  0
 13 14  1  0
M  CHG  2   6  -1   8   1
M  END
>  <PUBCHEM_COMPOUND_CID>  (1) 
20630

>  <PUBCHEM_CONFORMER_RMSD>  (1) 
0.6

>  <PUBCHEM_CONFORMER_DIVERSEORDER>  (1) 
1
2

>  <PUBCHEM_MMFF94_PARTIAL_CHARGES>  (1) 
17
1 -0.18
10 -0.15
11 0.13
12 0.18
13 -0.15
14 -0.15
15 0.15
16 0.15
17 0.15
2 -0.19
3 1.49
4 -0.65
5 -0.65
6 -0.52
7 -0.52
8 0.91
9 -0.01

>  <PUBCHEM_EFFECTIVE_ROTOR_COUNT>  (1) 
2

>  <PUBCHEM_PHARMACOPHORE_FEATURES>  (1) 
4
1 6 acceptor
1 6 anion
1 7 acceptor
6 9 10 11 12 13 14 rings

>  <PUBCHEM_HEAVY_ATOM_COUNT>  (1) 
14

>  <PUBCHEM_ATOM_DEF_STEREO_COUNT>  (1) 
0

>  <PUBCHEM_ATOM_UDEF_STEREO_COUNT>  (1) 
0

>  <PUBCHEM_BOND_DEF_STEREO_COUNT>  (1) 
0

>  <PUBCHEM_BOND_UDEF_STEREO_COUNT>  (1) 
0

>  <PUBCHEM_ISOTOPIC_ATOM_COUNT>  (1) 
0

>  <PUBCHEM_COMPONENT_COUNT>  (1) 
1

>  <PUBCHEM_CACTVS_TAUTO_COUNT>  (1) 
1

>  <PUBCHEM_CONFORMER_ID>  (1) 
0000509600000001

>  <PUBCHEM_MMFF94_ENERGY>  (1) 
30.2221

>  <PUBCHEM_FEATURE_SELFOVERLAP>  (1) 
20.379

>  <PUBCHEM_SHAPE_FINGERPRINT>  (1) 
10608611 8 18411978100566452316
11132069 177 18410285943391453528
12423570 1 12892487955965758043
12491281 212 18412551998043273818
12932764 1 18186523202535934202
13380535 21 18340782467525516710
13380535 76 18410848837426189758
14325111 11 18337669819127004716
14614273 12 18334569174798848503
14648413 74 17687748238155939681
14897335 6 18410565163357502350
15309172 13 18410301280851380513
15490181 7 18263929834733434691
15775835 57 18200876167279996849
16945 1 18337955571485252606
18186145 218 18272377464390014804
193761 8 18338232665664256886
20510252 161 18196933490165076474
21501502 16 18411417315071144666
21524375 3 18342173366982951354
2334 1 18121781896123649364
23402539 116 18127964407242019303
23559900 14 18201721765638027328
2748010 2 18123180479182735005
5084963 1 17914318101111553683
6333449 129 18412262869445507911
7364860 26 18197214737651360806
81228 2 18050285074496206522

>  <PUBCHEM_SHAPE_MULTIPOLES>  (1) 
267.24
5.32
2.37
0.9
2.71
0.53
-0.23
-1.81
-0.48
-0.71
0.1
-0.92
-0.19
-0.15

>  <PUBCHEM_SHAPE_SELFOVERLAP>  (1) 
531.239

>  <PUBCHEM_SHAPE_VOLUME>  (1) 
160.9

>  <PUBCHEM_COORDINATE_TYPE>  (1) 
2
5
10

$$$$
