20639
     RDKit          3D

 20 20  0  0  1  0  0  0  0  0999 V2000
   -2.1380    0.3659    1.0381 C   0  0  0  0  0  0  0  0  0  0  0  0
   -0.8611    1.0088    0.4467 C   0  0  0  0  0  0  0  0  0  0  0  0
    0.3837    0.1289    0.6299 C   0  0  0  0  0  0  0  0  0  0  0  0
   -3.3103    1.3738    1.1213 C   0  0  0  0  0  0  0  0  0  0  0  0
    1.6724    0.7953    0.1380 C   0  0  0  0  0  0  0  0  0  0  0  0
    2.9121   -0.0869    0.3036 C   0  0  0  0  0  0  0  0  0  0  0  0
   -2.5736   -0.9372    0.3823 C   0  0  0  0  0  0  0  0  0  0  0  0
   -3.8779    1.8457   -0.2226 C   0  0  0  0  0  0  0  0  0  0  0  0
    4.1803    0.6524   -0.1322 C   0  0  0  0  0  0  0  0  0  0  0  0
    5.4242   -0.2155    0.0707 C   0  0  0  0  0  0  0  0  0  0  0  0
   -4.9697    2.8986   -0.0182 C   0  0  0  0  0  0  0  0  0  0  0  0
    6.7264    0.4845   -0.3289 C   0  0  0  0  0  0  0  0  0  0  0  0
   -2.4603   -1.0649   -0.9868 C   0  0  0  0  0  0  0  0  0  0  0  0
   -3.0688   -1.9504    1.1772 C   0  0  0  0  0  0  0  0  0  0  0  0
    7.9753   -0.3547   -0.0568 C   0  0  0  0  0  0  0  0  0  0  0  0
   -5.5667    3.3462   -1.3430 C   0  0  0  0  0  0  0  0  0  0  0  0
   -2.8598   -2.2588   -1.5876 C   0  0  0  0  0  0  0  0  0  0  0  0
   -3.4681   -3.1443    0.5765 C   0  0  0  0  0  0  0  0  0  0  0  0
   -3.3638   -3.2984   -0.8058 C   0  0  0  0  0  0  0  0  0  0  0  0
    9.2437    0.4109   -0.4023 C   0  0  0  0  0  0  0  0  0  0  0  0
  1  2  1  0
  1  4  1  0
  1  7  1  0
  2  3  1  0
  3  5  1  0
  4  8  1  0
  5  6  1  0
  6  9  1  0
  7 13  2  0
  7 14  1  0
  8 11  1  0
  9 10  1  0
 10 12  1  0
 11 16  1  0
 12 15  1  0
 13 17  1  0
 14 18  2  0
 15 20  1  0
 17 19  2  0
 18 19  1  0
M  END
>  <PUBCHEM_COMPOUND_CID>  (1) 
20639

>  <PUBCHEM_CONFORMER_RMSD>  (1) 
1

>  <PUBCHEM_CONFORMER_DIVERSEORDER>  (1) 
1
170
83
397
82
13
141
91
463
333
260
317
413
485
162
123
23
5
389
353
56
346
464
131
453
134
344
489
246
236
223
72
186
366
398
208
292
165
461
205
207
222
62
340
85
66
74
243
407
221
25
487
212
298
204
195
468
181
245
442
303
479
319
70
60
426
148
322
419
58
336
347
352
6
241
255
49
121
411
368
306
218
154
412
417
277
434
403
54
16
39
335
433
47
370
477
116
30
249
189
367
24
276
44
311
391
137
331
402
93
33
339
427
190
152
295
401
10
95
482
385
145
3
404
471
429
8
476
187
142
439
258
156
214
126
484
381
371
9
38
34
437
325
299
157
113
155
328
59
287
81
125
341
473
285
284
102
490
408
98
376
12
182
380
359
252
327
342
206
199
424
470
7
132
227
361
46
158
281
363
457
334
428
80
150
40
293
48
171
203
177
390
209
100
348
120
332
45
329
114
112
237
350
257
124
217
271
289
86
386
459
19
400
375
309
384
250
399
396
263
259
88
338
486
31
356
28
435
294
73
161
198
216
374
312
35
410
379
27
166
18
316
388
229
106
438
450
111
365
279
304
351
183
151
481
360
160
15
67
444
50
406
172
465
247
296
467
2
378
89
456
117
75
202
330
96
483
421
192
99
462
290
110
318
235
118
32
133
139
103
307
288
305
225
405
234
372
415
286
472
194
422
61
231
387
475
159
153
355
224
242
362
184
219
420
29
297
127
369
431
310
452
416
320
291
146
345
488
270
251
274
119
313
176
108
211
449
425
383
138
278
308
196
178
254
377
122
51
57
90
101
441
11
201
37
446
215
358
20
324
265
262
136
268
21
315
63
321
163
275
447
343
409
128
164
22
440
373
65
175
197
264
445
52
238
140
432
167
480
210
458
77
68
382
248
233
135
302
87
226
220
41
147
395
266
36
418
173
42
451
174
26
149
17
436
144
301
455
269
323
423
273
69
71
143
393
200
314
130
357
78
337
364
349
105
267
55
392
283
300
256
466
478
4
244
179
79
76
94
430
232
180
109
213
64
92
448
115
169
474
43
354
107
414
469
443
84
282
394
129
454
53
228
239
97
460
168
230
193
14
240
261
185
326
191
272
253
104
188
280

>  <PUBCHEM_MMFF94_PARTIAL_CHARGES>  (1) 
12
1 0.14
13 -0.15
14 -0.15
17 -0.15
18 -0.15
19 -0.15
42 0.15
43 0.15
49 0.15
50 0.15
51 0.15
7 -0.14

>  <PUBCHEM_EFFECTIVE_ROTOR_COUNT>  (1) 
12

>  <PUBCHEM_PHARMACOPHORE_FEATURES>  (1) 
3
1 16 hydrophobe
1 20 hydrophobe
6 7 13 14 17 18 19 rings

>  <PUBCHEM_HEAVY_ATOM_COUNT>  (1) 
20

>  <PUBCHEM_ATOM_DEF_STEREO_COUNT>  (1) 
0

>  <PUBCHEM_ATOM_UDEF_STEREO_COUNT>  (1) 
1

>  <PUBCHEM_BOND_DEF_STEREO_COUNT>  (1) 
0

>  <PUBCHEM_BOND_UDEF_STEREO_COUNT>  (1) 
0

>  <PUBCHEM_ISOTOPIC_ATOM_COUNT>  (1) 
0

>  <PUBCHEM_COMPONENT_COUNT>  (1) 
1

>  <PUBCHEM_CACTVS_TAUTO_COUNT>  (1) 
1

>  <PUBCHEM_CONFORMER_ID>  (1) 
0000509F00000001

>  <PUBCHEM_MMFF94_ENERGY>  (1) 
21.6449

>  <PUBCHEM_FEATURE_SELFOVERLAP>  (1) 
15.223

>  <PUBCHEM_SHAPE_FINGERPRINT>  (1) 
105312 117 18337956680251551149
11315181 36 17561082510156035464
11545043 162 17989204880575853874
11809386 21 18409725200998968818
12091667 2 18114187449763601600
12616971 3 17313396634195409596
13257819 101 17097483199714232717
13540713 4 17916004944974652137
15183329 4 17240757416002839866
167882 2 17979070492903293611
17093844 174 18343299275970131432
17780758 139 16988575627330565890
18927931 339 18201445821645894238
20771845 165 18122067498595898909
21709351 56 18335421300948239900
21756936 100 17458348515896521241
23081809 10 18040437720510846508
23402539 116 18259988184811913160
23523787 8 17273107139530236645
23559900 14 18060695092143737544
4015057 19 16916773107200332441
44802255 64 18261955146425699173
4938544 92 18409729556200873332
559249 180 18411135814118440819
59755656 520 16226053279881432600
6327066 14 18189048695236629853

>  <PUBCHEM_SHAPE_MULTIPOLES>  (1) 
411.59
20.28
3.59
1.18
64.96
0.76
0.16
-6.85
4.28
-10.98
1.04
-1.58
0.21
0.52

>  <PUBCHEM_SHAPE_SELFOVERLAP>  (1) 
792.087

>  <PUBCHEM_SHAPE_VOLUME>  (1) 
247.9

>  <PUBCHEM_COORDINATE_TYPE>  (1) 
2
5
10

$$$$
