20648
     RDKit          3D

  6  5  0  0  0  0  0  0  0  0999 V2000
    3.2913    0.2803    0.0059 Cl  0  0  0  0  0  0  0  0  0  0  0  0
   -0.6780   -0.3686    0.0054 N   0  0  0  0  0  0  0  0  0  0  0  0
    0.5802    0.3647    0.0020 C   0  0  0  0  0  0  0  0  0  0  0  0
   -1.8133    0.5453   -0.0092 C   0  0  0  0  0  0  0  0  0  0  0  0
    1.7492   -0.6081   -0.0095 C   0  0  0  0  0  0  0  0  0  0  0  0
   -3.1293   -0.2136    0.0054 C   0  0  0  0  0  0  0  0  0  0  0  0
  1  5  1  0
  2  3  1  0
  2  4  1  0
  3  5  1  0
  4  6  1  0
M  END
>  <PUBCHEM_COMPOUND_CID>  (1) 
20648

>  <PUBCHEM_CONFORMER_RMSD>  (1) 
0.4

>  <PUBCHEM_CONFORMER_DIVERSEORDER>  (1) 
1
13
12
14
16
2
17
15
3
5
8
11
4
9
6
10
7

>  <PUBCHEM_MMFF94_PARTIAL_CHARGES>  (1) 
6
1 -0.29
11 0.36
2 -0.9
3 0.27
4 0.27
5 0.29

>  <PUBCHEM_EFFECTIVE_ROTOR_COUNT>  (1) 
3

>  <PUBCHEM_PHARMACOPHORE_FEATURES>  (1) 
2
1 2 cation
1 2 donor

>  <PUBCHEM_HEAVY_ATOM_COUNT>  (1) 
6

>  <PUBCHEM_ATOM_DEF_STEREO_COUNT>  (1) 
0

>  <PUBCHEM_ATOM_UDEF_STEREO_COUNT>  (1) 
0

>  <PUBCHEM_BOND_DEF_STEREO_COUNT>  (1) 
0

>  <PUBCHEM_BOND_UDEF_STEREO_COUNT>  (1) 
0

>  <PUBCHEM_ISOTOPIC_ATOM_COUNT>  (1) 
0

>  <PUBCHEM_COMPONENT_COUNT>  (1) 
1

>  <PUBCHEM_CACTVS_TAUTO_COUNT>  (1) 
1

>  <PUBCHEM_CONFORMER_ID>  (1) 
000050A800000001

>  <PUBCHEM_MMFF94_ENERGY>  (1) 
-5.6407

>  <PUBCHEM_FEATURE_SELFOVERLAP>  (1) 
10.148

>  <PUBCHEM_SHAPE_FINGERPRINT>  (1) 
11062470 55 16298385764241336916
12932764 1 15769765819413819916
14325111 11 18410573963681941378
14390081 3 18342173362740725184
29004967 10 17386011645720125104
5460574 1 9295287239847214212

>  <PUBCHEM_SHAPE_MULTIPOLES>  (1) 
120.37
5.5
0.79
0.61
0.23
0
0
0.11
0.01
0.06
0
0.03
0.01
0.01

>  <PUBCHEM_SHAPE_SELFOVERLAP>  (1) 
195.163

>  <PUBCHEM_SHAPE_VOLUME>  (1) 
84.2

>  <PUBCHEM_COORDINATE_TYPE>  (1) 
2
5
10

$$$$
