20653
     RDKit          3D

  9  8  0  0  1  0  0  0  0  0999 V2000
   -1.7678    1.5605   -0.9249 O   0  0  0  0  0  0  0  0  0  0  0  0
   -1.6903    0.9972    1.2709 O   0  0  0  0  0  0  0  0  0  0  0  0
    0.2940   -1.0358    0.1011 C   0  0  0  0  0  0  0  0  0  0  0  0
   -1.1159   -0.6808   -0.4021 C   0  0  0  0  0  0  0  0  0  0  0  0
    1.3845   -0.0314   -0.2926 C   0  0  0  0  0  0  0  0  0  0  0  0
    2.7610   -0.3832    0.2795 C   0  0  0  0  0  0  0  0  0  0  0  0
   -2.1589   -1.7410   -0.0501 C   0  0  0  0  0  0  0  0  0  0  0  0
   -1.5494    0.6896    0.0946 C   0  0  0  0  0  0  0  0  0  0  0  0
    3.8428    0.6247   -0.0763 C   0  0  0  0  0  0  0  0  0  0  0  0
  1  8  1  0
  2  8  2  0
  3  4  1  0
  3  5  1  0
  4  7  1  0
  4  8  1  0
  5  6  1  0
  6  9  1  0
M  END
>  <PUBCHEM_COMPOUND_CID>  (1) 
20653

>  <PUBCHEM_CONFORMER_RMSD>  (1) 
0.6

>  <PUBCHEM_CONFORMER_DIVERSEORDER>  (1) 
2
27
30
31
22
7
34
12
28
14
36
32
6
26
35
33
13
20
15
23
24
17
3
29
21
19
18
25
16
11
4
5
9
10
1
8

>  <PUBCHEM_MMFF94_PARTIAL_CHARGES>  (1) 
5
1 -0.65
2 -0.57
23 0.5
4 0.06
8 0.66

>  <PUBCHEM_EFFECTIVE_ROTOR_COUNT>  (1) 
4

>  <PUBCHEM_PHARMACOPHORE_FEATURES>  (1) 
6
1 1 acceptor
1 2 acceptor
1 7 hydrophobe
1 9 hydrophobe
3 1 2 8 anion
4 3 4 5 6 hydrophobe

>  <PUBCHEM_HEAVY_ATOM_COUNT>  (1) 
9

>  <PUBCHEM_ATOM_DEF_STEREO_COUNT>  (1) 
0

>  <PUBCHEM_ATOM_UDEF_STEREO_COUNT>  (1) 
1

>  <PUBCHEM_BOND_DEF_STEREO_COUNT>  (1) 
0

>  <PUBCHEM_BOND_UDEF_STEREO_COUNT>  (1) 
0

>  <PUBCHEM_ISOTOPIC_ATOM_COUNT>  (1) 
0

>  <PUBCHEM_COMPONENT_COUNT>  (1) 
1

>  <PUBCHEM_CACTVS_TAUTO_COUNT>  (1) 
1

>  <PUBCHEM_CONFORMER_ID>  (1) 
000050AD00000002

>  <PUBCHEM_MMFF94_ENERGY>  (1) 
4.4471

>  <PUBCHEM_FEATURE_SELFOVERLAP>  (1) 
30.505

>  <PUBCHEM_SHAPE_FINGERPRINT>  (1) 
12932764 1 18260272910867792298
14325111 11 18410291411285741350
14390081 3 18202560679312689832
15310529 11 16271932571039040342
15775835 57 18335140864936753440
23235685 24 18059293154219074209
3248919 1 17988920025291231510
369184 2 18186517691845019050
5084963 1 18409445925118775202

>  <PUBCHEM_SHAPE_MULTIPOLES>  (1) 
173.48
4.98
1.53
0.85
5.54
0.01
0.1
0.46
0.06
-1.28
-0.08
-0.32
0.24
-0.1

>  <PUBCHEM_SHAPE_SELFOVERLAP>  (1) 
314.321

>  <PUBCHEM_SHAPE_VOLUME>  (1) 
111.8

>  <PUBCHEM_COORDINATE_TYPE>  (1) 
2
5
10

$$$$
