20650
     RDKit          3D

  7  6  0  0  1  0  0  0  0  0999 V2000
   -3.1220    0.7259    0.1959 Cl  0  0  0  0  0  0  0  0  0  0  0  0
    0.6922   -0.4820   -0.2688 N   0  0  0  0  0  0  0  0  0  0  0  0
   -0.4420    0.3077    0.2096 C   0  0  0  0  0  0  0  0  0  0  0  0
    1.9473    0.0585    0.2521 C   0  0  0  0  0  0  0  0  0  0  0  0
    0.5391   -1.8836    0.1192 C   0  0  0  0  0  0  0  0  0  0  0  0
   -1.7380   -0.2417   -0.3662 C   0  0  0  0  0  0  0  0  0  0  0  0
    2.1233    1.5153   -0.1419 C   0  0  0  0  0  0  0  0  0  0  0  0
  1  6  1  0
  2  3  1  0
  2  4  1  0
  2  5  1  0
  3  6  1  0
  4  7  1  0
M  END
>  <PUBCHEM_COMPOUND_CID>  (1) 
20650

>  <PUBCHEM_CONFORMER_RMSD>  (1) 
0.4

>  <PUBCHEM_CONFORMER_DIVERSEORDER>  (1) 
3
7
16
23
17
8
19
18
15
14
11
9
21
1
13
10
22
20
24
2
12
6
5
4

>  <PUBCHEM_MMFF94_PARTIAL_CHARGES>  (1) 
6
1 -0.29
2 -0.81
3 0.27
4 0.27
5 0.27
6 0.29

>  <PUBCHEM_EFFECTIVE_ROTOR_COUNT>  (1) 
3

>  <PUBCHEM_PHARMACOPHORE_FEATURES>  (1) 
1
1 2 cation

>  <PUBCHEM_HEAVY_ATOM_COUNT>  (1) 
7

>  <PUBCHEM_ATOM_DEF_STEREO_COUNT>  (1) 
0

>  <PUBCHEM_ATOM_UDEF_STEREO_COUNT>  (1) 
0

>  <PUBCHEM_BOND_DEF_STEREO_COUNT>  (1) 
0

>  <PUBCHEM_BOND_UDEF_STEREO_COUNT>  (1) 
0

>  <PUBCHEM_ISOTOPIC_ATOM_COUNT>  (1) 
0

>  <PUBCHEM_COMPONENT_COUNT>  (1) 
1

>  <PUBCHEM_CACTVS_TAUTO_COUNT>  (1) 
1

>  <PUBCHEM_CONFORMER_ID>  (1) 
000050AA00000003

>  <PUBCHEM_MMFF94_ENERGY>  (1) 
7.7765

>  <PUBCHEM_FEATURE_SELFOVERLAP>  (1) 
5.074

>  <PUBCHEM_SHAPE_FINGERPRINT>  (1) 
14325111 11 18410855507383474981
14390081 3 18344144808653919241
20096714 4 18338232773275244436
21040471 1 18267301109187779224
23552333 60 18129100022237804187
23552449 1 17474949204329207958
23552449 11 17970619697544294459
29004967 10 18114750330480470801
5460574 1 8430311346950512961

>  <PUBCHEM_SHAPE_MULTIPOLES>  (1) 
140.95
3.94
1.6
0.67
2.55
0.45
0.01
-1.84
0.16
-0.8
0.01
0.05
-0.01
-0.16

>  <PUBCHEM_SHAPE_SELFOVERLAP>  (1) 
238.178

>  <PUBCHEM_SHAPE_VOLUME>  (1) 
97

>  <PUBCHEM_COORDINATE_TYPE>  (1) 
2
5
10

$$$$
