20660
     RDKit          3D

 17 17  0  0  0  0  0  0  0  0999 V2000
   -0.0123    0.6000   -0.2607 C   0  0  0  0  0  0  0  0  0  0  0  0
    1.2490    1.2619    0.3453 C   0  0  0  0  0  0  0  0  0  0  0  0
   -1.2808    1.2334    0.3637 C   0  0  0  0  0  0  0  0  0  0  0  0
    2.5825    0.8649   -0.3038 C   0  0  0  0  0  0  0  0  0  0  0  0
   -2.5767    0.7831   -0.3243 C   0  0  0  0  0  0  0  0  0  0  0  0
    0.0030   -0.9125   -0.1051 C   0  0  0  0  0  0  0  0  0  0  0  0
    3.7885    1.6086    0.2742 C   0  0  0  0  0  0  0  0  0  0  0  0
   -3.8277    1.4685    0.2343 C   0  0  0  0  0  0  0  0  0  0  0  0
    5.0951    1.1021   -0.3380 C   0  0  0  0  0  0  0  0  0  0  0  0
   -5.1109    1.0822   -0.5023 C   0  0  0  0  0  0  0  0  0  0  0  0
    0.5752   -1.6808   -1.0993 C   0  0  0  0  0  0  0  0  0  0  0  0
   -0.5552   -1.4737    1.0260 C   0  0  0  0  0  0  0  0  0  0  0  0
    6.3014    1.8081    0.2604 C   0  0  0  0  0  0  0  0  0  0  0  0
   -6.3116    1.8422    0.0405 C   0  0  0  0  0  0  0  0  0  0  0  0
    0.5895   -3.0682   -0.9566 C   0  0  0  0  0  0  0  0  0  0  0  0
   -0.5407   -2.8614    1.1686 C   0  0  0  0  0  0  0  0  0  0  0  0
    0.0317   -3.6584    0.1773 C   0  0  0  0  0  0  0  0  0  0  0  0
  1  2  1  0
  1  3  1  0
  1  6  1  0
  2  4  1  0
  3  5  1  0
  4  7  1  0
  5  8  1  0
  6 11  2  0
  6 12  1  0
  7  9  1  0
  8 10  1  0
  9 13  1  0
 10 14  1  0
 11 15  1  0
 12 16  2  0
 15 17  2  0
 16 17  1  0
M  END
>  <PUBCHEM_COMPOUND_CID>  (1) 
20660

>  <PUBCHEM_CONFORMER_RMSD>  (1) 
0.8

>  <PUBCHEM_CONFORMER_DIVERSEORDER>  (1) 
1
62
165
173
56
22
117
35
47
170
33
140
155
97
167
6
141
157
158
166
161
37
31
168
144
10
132
42
18
123
147
169
164
59
36
131
148
125
111
77
25
50
153
69
38
23
171
154
91
74
106
46
20
145
101
172
75
26
96
162
14
134
113
142
139
51
64
156
8
149
13
119
94
129
45
73
151
5
39
3
138
109
136
128
82
105
83
159
44
48
135
28
7
152
68
43
57
163
143
66
34
21
130
93
160
58
102
16
115
63
121
60
150
88
15
137
52
120
4
99
29
133
41
40
32
2
107
92
146
9
124
126
78
19
12
116
110
89
100
71
90
61
118
24
49
85
70
67
86
98
122
80
114
76
112
27
81
108
84
104
127
11
103
79
87
65
53
95
54
72
30
17
55

>  <PUBCHEM_MMFF94_PARTIAL_CHARGES>  (1) 
12
1 0.14
11 -0.15
12 -0.15
15 -0.15
16 -0.15
17 -0.15
35 0.15
36 0.15
43 0.15
44 0.15
45 0.15
6 -0.14

>  <PUBCHEM_EFFECTIVE_ROTOR_COUNT>  (1) 
9

>  <PUBCHEM_PHARMACOPHORE_FEATURES>  (1) 
3
1 13 hydrophobe
1 14 hydrophobe
6 6 11 12 15 16 17 rings

>  <PUBCHEM_HEAVY_ATOM_COUNT>  (1) 
17

>  <PUBCHEM_ATOM_DEF_STEREO_COUNT>  (1) 
0

>  <PUBCHEM_ATOM_UDEF_STEREO_COUNT>  (1) 
0

>  <PUBCHEM_BOND_DEF_STEREO_COUNT>  (1) 
0

>  <PUBCHEM_BOND_UDEF_STEREO_COUNT>  (1) 
0

>  <PUBCHEM_ISOTOPIC_ATOM_COUNT>  (1) 
0

>  <PUBCHEM_COMPONENT_COUNT>  (1) 
1

>  <PUBCHEM_CACTVS_TAUTO_COUNT>  (1) 
1

>  <PUBCHEM_CONFORMER_ID>  (1) 
000050B400000001

>  <PUBCHEM_MMFF94_ENERGY>  (1) 
23.168

>  <PUBCHEM_FEATURE_SELFOVERLAP>  (1) 
15.223

>  <PUBCHEM_SHAPE_FINGERPRINT>  (1) 
13052359 8 18337112392132527307
13257819 101 17314210225281069373
13631057 29 18200587125367294599
13968360 50 18335693915111837847
15664445 248 17481436975874195735
17539 30 17910950571604973574
17980427 23 17096096895475431557
20554085 129 18129925824147841968
20567600 254 18409445873479304837
20567600 347 18335986380809612559
20602899 9 15913334627910434420
20645477 70 18195805177356947581
21054139 6 18342446089475436581
21521239 73 17846498101827111028
21524375 3 18411134736092484764
22182313 1 18195275336299342542
22224240 67 18408884053608807777
23402539 116 18271519892217337220
23598288 3 17899145094045917214
33824 294 18336548201571588001
366044 4 18412261752875460116
3759504 43 18335983163742003420
42630746 31 18270116803684154295
474229 33 18336829788053976577
559249 180 18336541707844754722
59755656 520 18335976540970927068
6138700 20 18268434521504535030
7364860 26 18196370321495376871
77188 2 17400638221171591811
81228 2 17760347186877501977
81539 233 18335979770886592749

>  <PUBCHEM_SHAPE_MULTIPOLES>  (1) 
349.85
11.11
3.88
0.95
0.24
4.86
0.02
-15.22
-0.33
-0.19
0.22
0.02
0.54
0.54

>  <PUBCHEM_SHAPE_SELFOVERLAP>  (1) 
679.013

>  <PUBCHEM_SHAPE_VOLUME>  (1) 
208.8

>  <PUBCHEM_COORDINATE_TYPE>  (1) 
2
5
10

$$$$
