20679
     RDKit          3D

  7  6  0  0  0  0  0  0  0  0999 V2000
    1.6234    1.5253   -0.2304 O   0  0  0  0  0  0  0  0  0  0  0  0
    0.7230   -0.3798   -0.2117 N   0  0  0  0  0  0  0  0  0  0  0  0
    0.8835    0.7690    0.4104 N   0  0  0  0  0  0  0  0  0  0  0  0
   -0.6152   -0.9658   -0.0515 C   0  0  0  0  0  0  0  0  0  0  0  0
    1.7367   -1.3631    0.1815 C   0  0  0  0  0  0  0  0  0  0  0  0
   -1.6902   -0.0052   -0.4575 C   0  0  0  0  0  0  0  0  0  0  0  0
   -2.6610    0.4197    0.3592 C   0  0  0  0  0  0  0  0  0  0  0  0
  1  3  2  0
  2  3  1  0
  2  4  1  0
  2  5  1  0
  4  6  1  0
  6  7  2  0
M  END
>  <PUBCHEM_COMPOUND_CID>  (1) 
20679

>  <PUBCHEM_CONFORMER_RMSD>  (1) 
0.6

>  <PUBCHEM_CONFORMER_DIVERSEORDER>  (1) 
1
14
5
8
4
11
15
2
16
9
12
3
6
7
13
10

>  <PUBCHEM_MMFF94_PARTIAL_CHARGES>  (1) 
10
1 -0.16
13 0.15
14 0.15
15 0.15
2 -0.36
3 -0.01
4 0.41
5 0.27
6 -0.29
7 -0.3

>  <PUBCHEM_EFFECTIVE_ROTOR_COUNT>  (1) 
3

>  <PUBCHEM_PHARMACOPHORE_FEATURES>  (1) 
1
1 7 hydrophobe

>  <PUBCHEM_HEAVY_ATOM_COUNT>  (1) 
7

>  <PUBCHEM_ATOM_DEF_STEREO_COUNT>  (1) 
0

>  <PUBCHEM_ATOM_UDEF_STEREO_COUNT>  (1) 
0

>  <PUBCHEM_BOND_DEF_STEREO_COUNT>  (1) 
0

>  <PUBCHEM_BOND_UDEF_STEREO_COUNT>  (1) 
0

>  <PUBCHEM_ISOTOPIC_ATOM_COUNT>  (1) 
0

>  <PUBCHEM_COMPONENT_COUNT>  (1) 
1

>  <PUBCHEM_CACTVS_TAUTO_COUNT>  (1) 
1

>  <PUBCHEM_CONFORMER_ID>  (1) 
000050C700000001

>  <PUBCHEM_MMFF94_ENERGY>  (1) 
14.5311

>  <PUBCHEM_FEATURE_SELFOVERLAP>  (1) 
5.074

>  <PUBCHEM_SHAPE_FINGERPRINT>  (1) 
12932741 1 17676204659033921167
14390081 3 18130505361333453529
20096714 4 18341330075929219959
21040471 1 18269270338544342754
23552449 1 16466702638064481552
24536 1 18338781416603022947
29004967 10 18263362482232767874

>  <PUBCHEM_SHAPE_MULTIPOLES>  (1) 
128.23
3.17
1.39
0.67
1.53
0.26
0
0.15
-0.26
-0.93
0.01
0.11
-0.01
-0.15

>  <PUBCHEM_SHAPE_SELFOVERLAP>  (1) 
230.742

>  <PUBCHEM_SHAPE_VOLUME>  (1) 
84.1

>  <PUBCHEM_COORDINATE_TYPE>  (1) 
2
5
10

$$$$
