20674
     RDKit          3D

 25 27  0  0  0  0  0  0  0  0999 V2000
    0.5852   -1.4217    0.9708 O   0  0  0  0  0  0  0  0  0  0  0  0
   -1.6126   -0.4417    2.1281 O   0  0  0  0  0  0  0  0  0  0  0  0
   -1.0217   -2.4246   -0.3332 O   0  0  0  0  0  0  0  0  0  0  0  0
    3.0414   -0.9639   -0.3455 N   0  0  0  0  0  0  0  0  0  0  0  0
    3.7475   -0.6011   -1.5824 C   0  0  0  0  0  0  0  0  0  0  0  0
    3.9760   -1.0936    0.7812 C   0  0  0  0  0  0  0  0  0  0  0  0
    4.5005    0.7203   -1.4208 C   0  0  0  0  0  0  0  0  0  0  0  0
    4.7367    0.2116    1.0201 C   0  0  0  0  0  0  0  0  0  0  0  0
    5.4631    0.6689   -0.2398 C   0  0  0  0  0  0  0  0  0  0  0  0
    2.2886   -2.2041   -0.5311 C   0  0  0  0  0  0  0  0  0  0  0  0
    1.4689   -2.5054    0.7120 C   0  0  0  0  0  0  0  0  0  0  0  0
   -1.4871   -0.2568    0.7033 C   0  0  0  0  0  0  0  0  0  0  0  0
   -0.6532   -1.4994    0.3806 C   0  0  0  0  0  0  0  0  0  0  0  0
   -2.8698   -0.2474    0.0467 C   0  0  0  0  0  0  0  0  0  0  0  0
   -0.7386    1.0471    0.4177 C   0  0  0  0  0  0  0  0  0  0  0  0
   -2.9485   -0.1148   -1.3203 C   0  0  0  0  0  0  0  0  0  0  0  0
   -0.8876    2.0975    1.2940 C   0  0  0  0  0  0  0  0  0  0  0  0
   -3.9804   -0.3725    0.8490 C   0  0  0  0  0  0  0  0  0  0  0  0
    0.0550    1.1191   -0.7040 C   0  0  0  0  0  0  0  0  0  0  0  0
   -4.2084   -0.1065   -1.9188 C   0  0  0  0  0  0  0  0  0  0  0  0
   -0.2052    3.2859    1.0340 C   0  0  0  0  0  0  0  0  0  0  0  0
   -5.2403   -0.3643    0.2504 C   0  0  0  0  0  0  0  0  0  0  0  0
    0.7374    2.3076   -0.9638 C   0  0  0  0  0  0  0  0  0  0  0  0
   -5.3542   -0.2312   -1.1335 C   0  0  0  0  0  0  0  0  0  0  0  0
    0.6073    3.3909   -0.0947 C   0  0  0  0  0  0  0  0  0  0  0  0
  1 11  1  0
  1 13  1  0
  2 12  1  0
  3 13  2  0
  4  5  1  0
  4  6  1  0
  4 10  1  0
  5  7  1  0
  6  8  1  0
  7  9  1  0
  8  9  1  0
 10 11  1  0
 12 13  1  0
 12 14  1  0
 12 15  1  0
 14 16  2  0
 14 18  1  0
 15 17  2  0
 15 19  1  0
 16 20  1  0
 17 21  1  0
 18 22  2  0
 19 23  2  0
 20 24  2  0
 21 25  2  0
 22 24  1  0
 23 25  1  0
M  END
>  <PUBCHEM_COMPOUND_CID>  (1) 
20674

>  <PUBCHEM_CONFORMER_RMSD>  (1) 
0.8

>  <PUBCHEM_CONFORMER_DIVERSEORDER>  (1) 
2
115
34
73
49
11
198
48
104
154
101
169
175
136
31
219
160
162
65
187
191
38
72
224
102
156
129
21
167
111
233
126
139
76
23
110
202
122
53
88
215
223
39
124
176
180
194
131
230
68
121
208
103
1
177
125
137
113
71
216
200
105
24
189
80
89
75
64
222
236
107
220
138
52
108
45
171
51
15
133
66
8
157
74
27
85
67
174
59
32
10
14
13
114
144
155
50
63
19
196
184
20
55
168
127
134
231
60
235
199
172
229
237
96
142
5
206
148
214
225
221
18
118
183
150
36
213
135
100
44
3
119
87
43
98
158
146
232
123
69
81
106
116
70
211
241
132
62
90
99
9
58
140
93
209
197
97
56
178
61
37
128
35
203
92
170
79
153
46
26
217
130
78
204
166
159
147
182
30
228
205
239
117
201
149
161
40
193
207
145
95
86
179
29
112
164
240
47
238
91
120
6
84
25
42
195
192
77
33
17
7
226
57
181
186
16
143
109
190
41
227
4
210
22
83
141
12
188
28
212
151
152
82
218
94
234
185
163
173
54
165

>  <PUBCHEM_MMFF94_PARTIAL_CHARGES>  (1) 
33
1 -0.43
10 0.27
11 0.28
12 0.63
13 0.66
14 -0.14
15 -0.14
16 -0.15
17 -0.15
18 -0.15
19 -0.15
2 -0.68
20 -0.15
21 -0.15
22 -0.15
23 -0.15
24 -0.15
25 -0.15
3 -0.57
4 -0.81
40 0.15
41 0.15
42 0.15
43 0.15
44 0.4
45 0.15
46 0.15
47 0.15
48 0.15
49 0.15
5 0.27
50 0.15
6 0.27

>  <PUBCHEM_EFFECTIVE_ROTOR_COUNT>  (1) 
8.2

>  <PUBCHEM_PHARMACOPHORE_FEATURES>  (1) 
7
1 2 acceptor
1 2 donor
1 3 acceptor
1 4 cation
6 14 16 18 20 22 24 rings
6 15 17 19 21 23 25 rings
6 4 5 6 7 8 9 rings

>  <PUBCHEM_HEAVY_ATOM_COUNT>  (1) 
25

>  <PUBCHEM_ATOM_DEF_STEREO_COUNT>  (1) 
0

>  <PUBCHEM_ATOM_UDEF_STEREO_COUNT>  (1) 
0

>  <PUBCHEM_BOND_DEF_STEREO_COUNT>  (1) 
0

>  <PUBCHEM_BOND_UDEF_STEREO_COUNT>  (1) 
0

>  <PUBCHEM_ISOTOPIC_ATOM_COUNT>  (1) 
0

>  <PUBCHEM_COMPONENT_COUNT>  (1) 
1

>  <PUBCHEM_CACTVS_TAUTO_COUNT>  (1) 
1

>  <PUBCHEM_CONFORMER_ID>  (1) 
000050C200000002

>  <PUBCHEM_MMFF94_ENERGY>  (1) 
58.2978

>  <PUBCHEM_FEATURE_SELFOVERLAP>  (1) 
35.522

>  <PUBCHEM_SHAPE_FINGERPRINT>  (1) 
10366900 7 18130795572927485992
10498660 4 18338804394878503616
10670039 82 18264787493211783948
10871710 139 18270132196863183097
1100329 8 18267025131616421674
11112241 14 17271431715331752544
11115154 58 17846482726968368845
11370993 70 15791733005459913754
11646440 116 18340214067194923304
12011746 2 18410860984210589108
12166972 35 17821449041356834230
12403260 363 18193832648922668970
12467345 10 16271921662070125752
12553582 1 18340221751223965236
12788726 201 18411705361638059536
12969540 114 18408877443189915887
13004483 165 18199175192632058943
13140716 1 18193842762926566226
13149001 5 18337389473674380659
13911987 19 18334586758184026814
14170010 4 18410849993436757857
14251757 17 17458616779400588845
14347332 77 18055638313698232238
14787075 74 18114184167860480883
14790565 3 18268716017671278001
14840074 17 17988926686263288173
14910302 57 16988283071659881014
14955137 171 18272664471300726011
15849732 13 17704073989274944389
17349148 13 18113903706637989350
17357779 13 18412260618919659048
17492 54 18408042931091366566
1813 80 17988923349527158685
18785283 64 18043263537796972489
192875 21 18114741539056962182
20197701 30 10665236959905604965
20715895 44 17386554744239759445
21304303 64 18114188523173642429
2132832 1 17755560677992098106
21330990 113 15841551834375197255
23419403 2 17751952282982902377
23558518 356 17830457176371237314
23559900 14 18126568053498079712
312423 11 18194970630240225274
350125 39 18190746534547729587
463206 1 18199463449193227621
5265222 85 16893436247958840292
532947 4 18127401482958259472
537710 114 18334016090279563918
6036956 94 17973176298835877564
70251023 43 18051697641958907795

>  <PUBCHEM_SHAPE_MULTIPOLES>  (1) 
491.9
10.27
3
1.59
0.99
1.93
-0.16
-2.15
-2.95
1.29
0.56
-0.37
0.09
-0.39

>  <PUBCHEM_SHAPE_SELFOVERLAP>  (1) 
1048.234

>  <PUBCHEM_SHAPE_VOLUME>  (1) 
271.8

>  <PUBCHEM_COORDINATE_TYPE>  (1) 
2
5
10

$$$$
