20676
     RDKit          3D

 18 19  0  0  0  0  0  0  0  0999 V2000
    5.2584    0.3647   -0.1679 F   0  0  0  0  0  0  0  0  0  0  0  0
   -0.8304    3.5969    0.1177 O   0  0  0  0  0  0  0  0  0  0  0  0
   -4.6414   -0.8194    0.0001 O   0  0  0  0  0  0  0  0  0  0  0  0
   -3.6616    1.0639   -0.5586 O   0  0  0  0  0  0  0  0  0  0  0  0
   -1.1509   -0.0787   -0.1584 N   0  0  0  0  0  0  0  0  0  0  0  0
   -0.6195   -2.1367    0.4855 N   0  0  0  0  0  0  0  0  0  0  0  0
   -3.5888   -0.1431   -0.1866 N   0  0  0  0  0  0  0  0  0  0  0  0
   -0.9897    1.2969   -0.5776 C   0  0  0  0  0  0  0  0  0  0  0  0
   -0.1450   -0.9606    0.1327 C   0  0  0  0  0  0  0  0  0  0  0  0
   -2.3371   -0.7331    0.0197 C   0  0  0  0  0  0  0  0  0  0  0  0
    1.2539   -0.6173    0.0549 C   0  0  0  0  0  0  0  0  0  0  0  0
   -0.9507    2.2641    0.5979 C   0  0  0  0  0  0  0  0  0  0  0  0
   -1.9835   -2.0014    0.4166 C   0  0  0  0  0  0  0  0  0  0  0  0
    1.9533   -0.8070   -1.1368 C   0  0  0  0  0  0  0  0  0  0  0  0
    1.9073   -0.0958    1.1717 C   0  0  0  0  0  0  0  0  0  0  0  0
    3.3061   -0.4754   -1.2120 C   0  0  0  0  0  0  0  0  0  0  0  0
    3.2600    0.2359    1.0964 C   0  0  0  0  0  0  0  0  0  0  0  0
    3.9594    0.0462   -0.0954 C   0  0  0  0  0  0  0  0  0  0  0  0
  1 18  1  0
  2 12  1  0
  3  7  1  0
  4  7  2  0
  5  8  1  0
  5  9  1  0
  5 10  1  0
  6  9  2  0
  6 13  1  0
  7 10  1  0
  8 12  1  0
  9 11  1  0
 10 13  2  0
 11 14  2  0
 11 15  1  0
 14 16  1  0
 15 17  2  0
 16 18  2  0
 17 18  1  0
M  CHG  2   3  -1   7   1
M  END
>  <PUBCHEM_COMPOUND_CID>  (1) 
20676

>  <PUBCHEM_CONFORMER_RMSD>  (1) 
0.6

>  <PUBCHEM_CONFORMER_DIVERSEORDER>  (1) 
2
1

>  <PUBCHEM_MMFF94_PARTIAL_CHARGES>  (1) 
24
1 -0.19
10 -0.07
11 0.05
12 0.28
13 0.08
14 -0.15
15 -0.15
16 -0.15
17 -0.15
18 0.19
2 -0.68
23 0.15
24 0.15
25 0.15
26 0.15
27 0.15
28 0.4
3 -0.52
4 -0.52
5 0.05
6 -0.57
7 0.96
8 0.26
9 0.13

>  <PUBCHEM_EFFECTIVE_ROTOR_COUNT>  (1) 
4

>  <PUBCHEM_PHARMACOPHORE_FEATURES>  (1) 
8
1 2 acceptor
1 2 donor
1 3 acceptor
1 3 anion
1 4 acceptor
3 5 6 9 cation
5 5 6 9 10 13 rings
6 11 14 15 16 17 18 rings

>  <PUBCHEM_HEAVY_ATOM_COUNT>  (1) 
18

>  <PUBCHEM_ATOM_DEF_STEREO_COUNT>  (1) 
0

>  <PUBCHEM_ATOM_UDEF_STEREO_COUNT>  (1) 
0

>  <PUBCHEM_BOND_DEF_STEREO_COUNT>  (1) 
0

>  <PUBCHEM_BOND_UDEF_STEREO_COUNT>  (1) 
0

>  <PUBCHEM_ISOTOPIC_ATOM_COUNT>  (1) 
0

>  <PUBCHEM_COMPONENT_COUNT>  (1) 
1

>  <PUBCHEM_CACTVS_TAUTO_COUNT>  (1) 
1

>  <PUBCHEM_CONFORMER_ID>  (1) 
000050C400000002

>  <PUBCHEM_MMFF94_ENERGY>  (1) 
43.7558

>  <PUBCHEM_FEATURE_SELFOVERLAP>  (1) 
40.676

>  <PUBCHEM_SHAPE_FINGERPRINT>  (1) 
10498660 4 18337670802358537133
11578080 2 13253372845000363370
11680986 33 17976256065216231123
12236239 1 17240480325465045010
13764800 53 18334584498946488601
15775835 57 17530964674725838526
16945 1 18409737243939112203
17134986 127 17472984999689333188
17357779 13 18130781257037019665
17846911 113 18409442583460236555
18175812 5 17988360485278203118
19049666 15 18128824036598790014
200 152 15140677007534938619
20279233 1 18130795585364488798
20344682 1 17918277562431042934
20510252 161 18339361868368905481
20645477 70 17418104178628202606
21029758 11 18411978096524653725
21339142 51 18336546118095932411
21501502 16 18125444111742311402
22802520 49 17915467086451664804
2297311 6 18339372924099924742
23402539 116 18412536622255669462
23419403 2 17252826921605444766
23557571 272 18411987983291481846
23558518 356 17902230018588672555
23559900 14 18412266108600097974
2748010 2 18196644318511902313
350125 39 17903922153940460611
4028521 119 18340484478399254253
474 4 14260198035289330842
537710 114 18187083966350975933
7364860 26 17836369620003543041
77492 1 17168141265014064698
81228 2 18339940220085677833
8272917 22 15122968221950518727

>  <PUBCHEM_SHAPE_MULTIPOLES>  (1) 
330.61
7.53
2.3
1
2.32
2.04
-0.01
-0.42
-0.76
-1.9
0.28
0.72
-0.05
0.46

>  <PUBCHEM_SHAPE_SELFOVERLAP>  (1) 
710.669

>  <PUBCHEM_SHAPE_VOLUME>  (1) 
184.8

>  <PUBCHEM_COORDINATE_TYPE>  (1) 
2
5
10

$$$$
