20682
     RDKit          3D

  6  5  0  0  0  0  0  0  0  0999 V2000
   -0.0213   -0.0562    0.0003 C   0  0  0  0  0  0  0  0  0  0  0  0
   -1.1708    0.6503    0.0020 C   0  0  0  0  0  0  0  0  0  0  0  0
    0.0453   -1.5611    0.0006 C   0  0  0  0  0  0  0  0  0  0  0  0
   -2.5788    0.1455   -0.0020 C   0  0  0  0  0  0  0  0  0  0  0  0
    1.2470    0.6738    0.0003 C   0  0  0  0  0  0  0  0  0  0  0  0
    2.4786    0.1477   -0.0013 C   0  0  0  0  0  0  0  0  0  0  0  0
  1  2  2  0
  1  3  1  0
  1  5  1  0
  2  4  1  0
  5  6  2  0
M  END
>  <PUBCHEM_COMPOUND_CID>  (1) 
20682

>  <PUBCHEM_CONFORMER_RMSD>  (1) 
0.4

>  <PUBCHEM_CONFORMER_DIVERSEORDER>  (1) 
1

>  <PUBCHEM_MMFF94_PARTIAL_CHARGES>  (1) 
10
1 -0.14
14 0.15
15 0.15
16 0.15
2 -0.29
3 0.14
4 0.14
5 -0.15
6 -0.3
7 0.15

>  <PUBCHEM_EFFECTIVE_ROTOR_COUNT>  (1) 
1

>  <PUBCHEM_PHARMACOPHORE_FEATURES>  (1) 
3
1 3 hydrophobe
1 4 hydrophobe
1 6 hydrophobe

>  <PUBCHEM_HEAVY_ATOM_COUNT>  (1) 
6

>  <PUBCHEM_ATOM_DEF_STEREO_COUNT>  (1) 
0

>  <PUBCHEM_ATOM_UDEF_STEREO_COUNT>  (1) 
0

>  <PUBCHEM_BOND_DEF_STEREO_COUNT>  (1) 
0

>  <PUBCHEM_BOND_UDEF_STEREO_COUNT>  (1) 
1

>  <PUBCHEM_ISOTOPIC_ATOM_COUNT>  (1) 
0

>  <PUBCHEM_COMPONENT_COUNT>  (1) 
1

>  <PUBCHEM_CACTVS_TAUTO_COUNT>  (1) 
1

>  <PUBCHEM_CONFORMER_ID>  (1) 
000050CA00000001

>  <PUBCHEM_MMFF94_ENERGY>  (1) 
7.1737

>  <PUBCHEM_FEATURE_SELFOVERLAP>  (1) 
15.225

>  <PUBCHEM_SHAPE_FINGERPRINT>  (1) 
14325111 11 18410855468723475073
14390081 3 18273210872502491209
16714656 1 18335703870487327324
20096714 4 18410011056831271288
21040471 1 18410574011074229218
29004967 10 18187371999626813497
5460574 1 9223232948655169024

>  <PUBCHEM_SHAPE_MULTIPOLES>  (1) 
123.48
3.24
1.18
0.62
0.26
0.54
0
-0.64
0
-0.03
0
0
0
0

>  <PUBCHEM_SHAPE_SELFOVERLAP>  (1) 
221.001

>  <PUBCHEM_SHAPE_VOLUME>  (1) 
81

>  <PUBCHEM_COORDINATE_TYPE>  (1) 
2
5
10

$$$$
