20684
     RDKit          3D

 13 14  0  0  0  0  0  0  0  0999 V2000
    4.1010   -1.0960    0.7182 O   0  0  0  0  0  0  0  0  0  0  0  0
    1.5883   -0.1417   -0.1940 N   0  0  0  0  0  0  0  0  0  0  0  0
   -1.0195   -1.7747   -0.1307 N   0  0  0  0  0  0  0  0  0  0  0  0
    0.0994    1.7255    0.0174 N   0  0  0  0  0  0  0  0  0  0  0  0
   -3.0490   -0.8719    0.0546 N   0  0  0  0  0  0  0  0  0  0  0  0
   -2.3203    1.4453    0.1533 N   0  0  0  0  0  0  0  0  0  0  0  0
   -0.8199   -0.4255   -0.0588 C   0  0  0  0  0  0  0  0  0  0  0  0
    0.2937    0.3910   -0.0785 C   0  0  0  0  0  0  0  0  0  0  0  0
    2.7692    0.6700   -0.2182 C   0  0  0  0  0  0  0  0  0  0  0  0
   -2.0945    0.1130    0.0558 C   0  0  0  0  0  0  0  0  0  0  0  0
    3.9989   -0.2061   -0.3863 C   0  0  0  0  0  0  0  0  0  0  0  0
   -2.3700   -1.9933   -0.0587 C   0  0  0  0  0  0  0  0  0  0  0  0
   -1.1774    2.1642    0.1259 C   0  0  0  0  0  0  0  0  0  0  0  0
  1 11  1  0
  2  8  1  0
  2  9  1  0
  3  7  1  0
  3 12  1  0
  4  8  1  0
  4 13  2  0
  5 10  1  0
  5 12  2  0
  6 10  2  0
  6 13  1  0
  7  8  2  0
  7 10  1  0
  9 11  1  0
M  END
>  <PUBCHEM_COMPOUND_CID>  (1) 
20684

>  <PUBCHEM_CONFORMER_RMSD>  (1) 
0.6

>  <PUBCHEM_CONFORMER_DIVERSEORDER>  (1) 
1
10
6
9
11
5
4
8
3
7
2

>  <PUBCHEM_MMFF94_PARTIAL_CHARGES>  (1) 
18
1 -0.68
10 0.48
11 0.28
12 0.04
13 0.47
16 0.4
17 0.27
2 -0.87
20 0.15
21 0.15
22 0.4
3 0.03
4 -0.62
5 -0.57
6 -0.57
7 -0.15
8 0.41
9 0.37

>  <PUBCHEM_EFFECTIVE_ROTOR_COUNT>  (1) 
3

>  <PUBCHEM_PHARMACOPHORE_FEATURES>  (1) 
9
1 1 acceptor
1 1 donor
1 2 donor
1 3 donor
3 2 4 8 cation
3 3 5 12 cation
3 4 6 13 cation
5 3 5 7 10 12 rings
6 4 6 7 8 10 13 rings

>  <PUBCHEM_HEAVY_ATOM_COUNT>  (1) 
13

>  <PUBCHEM_ATOM_DEF_STEREO_COUNT>  (1) 
0

>  <PUBCHEM_ATOM_UDEF_STEREO_COUNT>  (1) 
0

>  <PUBCHEM_BOND_DEF_STEREO_COUNT>  (1) 
0

>  <PUBCHEM_BOND_UDEF_STEREO_COUNT>  (1) 
0

>  <PUBCHEM_ISOTOPIC_ATOM_COUNT>  (1) 
0

>  <PUBCHEM_COMPONENT_COUNT>  (1) 
1

>  <PUBCHEM_CACTVS_TAUTO_COUNT>  (1) 
8

>  <PUBCHEM_CONFORMER_ID>  (1) 
000050CC00000001

>  <PUBCHEM_MMFF94_ENERGY>  (1) 
22.4529

>  <PUBCHEM_FEATURE_SELFOVERLAP>  (1) 
45.918

>  <PUBCHEM_SHAPE_FINGERPRINT>  (1) 
12032990 46 18265901430880676939
13024252 1 15574719079855400949
13380535 76 18198340658789881759
14144814 61 18409730638796174226
15669948 3 18411702097446609806
16945 1 18340779173412006405
193761 8 17907020573802852239
20510252 161 18273218573310151480
20711985 365 18410293622661174932
20871998 184 18202005438387877655
20871998 22 18123187076473956907
21061003 4 16988849392903770248
21501502 16 18340494468588558844
23402539 116 18272642438213098997
23463225 33 18408605864039050326
23552423 10 17974292324042167661
23559900 14 18343299224678404444
2748010 2 18123744520432441365
43471831 8 18335138631406644786
6333449 129 18341895156023117165
7364860 26 17766844205328594369
75552 356 18411703183709364668

>  <PUBCHEM_SHAPE_MULTIPOLES>  (1) 
236.76
5.94
2.06
0.63
6.95
0.3
0.01
-2.16
0.27
-1.45
0.09
0.2
-0.04
-0.31

>  <PUBCHEM_SHAPE_SELFOVERLAP>  (1) 
505.476

>  <PUBCHEM_SHAPE_VOLUME>  (1) 
130.4

>  <PUBCHEM_COORDINATE_TYPE>  (1) 
2
5
10

$$$$
