20689
     RDKit          3D

 12 11  0  0  0  0  0  0  0  0999 V2000
    0.6088   -1.1812   -0.0034 S   0  0  0  0  0  0  0  0  0  0  0  0
    1.6710    1.2362    0.0055 O   0  0  0  0  0  0  0  0  0  0  0  0
   -3.3458    0.0516    0.0006 N   0  0  0  0  0  0  0  0  0  0  0  0
   -2.1511   -0.8911    0.0103 C   0  0  0  0  0  0  0  0  0  0  0  0
   -3.2577    0.9699   -1.2098 C   0  0  0  0  0  0  0  0  0  0  0  0
   -4.6314   -0.7599   -0.0707 C   0  0  0  0  0  0  0  0  0  0  0  0
   -3.3433    0.8873    1.2725 C   0  0  0  0  0  0  0  0  0  0  0  0
   -0.8532   -0.1003   -0.0013 C   0  0  0  0  0  0  0  0  0  0  0  0
    3.2780   -0.5818    0.0000 C   0  0  0  0  0  0  0  0  0  0  0  0
    1.8918    0.0319    0.0009 C   0  0  0  0  0  0  0  0  0  0  0  0
    4.3741    0.4816   -0.0189 C   0  0  0  0  0  0  0  0  0  0  0  0
    5.7589   -0.1440    0.0143 C   0  0  0  0  0  0  0  0  0  0  0  0
  1  8  1  0
  1 10  1  0
  2 10  2  0
  3  4  1  0
  3  5  1  0
  3  6  1  0
  3  7  1  0
  4  8  1  0
  9 10  1  0
  9 11  1  0
 11 12  1  0
M  CHG  1   3   1
M  END
>  <PUBCHEM_COMPOUND_CID>  (1) 
20689

>  <PUBCHEM_CONFORMER_RMSD>  (1) 
0.6

>  <PUBCHEM_CONFORMER_DIVERSEORDER>  (1) 
1
44
14
7
72
68
18
57
13
32
63
5
70
38
22
60
21
69
20
48
34
19
65
62
8
59
73
66
51
24
35
2
23
55
33
42
6
31
47
25
52
54
71
11
64
46
67
45
17
29
39
49
15
27
10
30
9
43
41
58
26
12
50
28
40
4
61
16
3
53
56
36
37

>  <PUBCHEM_MMFF94_PARTIAL_CHARGES>  (1) 
10
1 -0.37
10 0.65
2 -0.57
3 -1.01
4 0.5
5 0.5
6 0.5
7 0.5
8 0.23
9 0.06

>  <PUBCHEM_EFFECTIVE_ROTOR_COUNT>  (1) 
6

>  <PUBCHEM_PHARMACOPHORE_FEATURES>  (1) 
2
1 12 hydrophobe
1 3 cation

>  <PUBCHEM_HEAVY_ATOM_COUNT>  (1) 
12

>  <PUBCHEM_ATOM_DEF_STEREO_COUNT>  (1) 
0

>  <PUBCHEM_ATOM_UDEF_STEREO_COUNT>  (1) 
0

>  <PUBCHEM_BOND_DEF_STEREO_COUNT>  (1) 
0

>  <PUBCHEM_BOND_UDEF_STEREO_COUNT>  (1) 
0

>  <PUBCHEM_ISOTOPIC_ATOM_COUNT>  (1) 
0

>  <PUBCHEM_COMPONENT_COUNT>  (1) 
1

>  <PUBCHEM_CACTVS_TAUTO_COUNT>  (1) 
1

>  <PUBCHEM_CONFORMER_ID>  (1) 
000050D100000001

>  <PUBCHEM_MMFF94_ENERGY>  (1) 
24.8431

>  <PUBCHEM_FEATURE_SELFOVERLAP>  (1) 
10.148

>  <PUBCHEM_SHAPE_FINGERPRINT>  (1) 
10680689 15 17821450161778737259
11062470 55 17489590065194724962
11401426 45 18272647961493581442
114248 4 16343704343915217586
124424 183 17894632564812292816
14123238 8 18410012147863708278
15501527 16 18261673680107741589
17802600 8 18334853943957420253
17834072 33 18341331197126667990
17834072 8 18412267233854876526
17834076 25 16343986914140204758
18342897 14 18408040710841064200
20279233 1 16950287290956033091
20645477 70 18130231454585400190
20671657 1 18193563495663921988
20719005 15 18410573994232048110
20828058 21 17458063755174577806
20828058 44 13406796631491384632
23402539 116 16630524020825922040
23402655 69 18271520905776384213
366044 4 18411418427773687930
42788 4 18411418419357313414

>  <PUBCHEM_SHAPE_MULTIPOLES>  (1) 
239.95
11.43
1.16
0.87
8.23
0
-0.02
-0.61
-0.01
-0.44
0.02
-0.87
-0.23
-0.02

>  <PUBCHEM_SHAPE_SELFOVERLAP>  (1) 
423.73

>  <PUBCHEM_SHAPE_VOLUME>  (1) 
160.3

>  <PUBCHEM_COORDINATE_TYPE>  (1) 
2
5
10

$$$$
