20688
     RDKit          3D

 42 46  0  0  0  0  0  0  0  0999 V2000
   -8.1547    1.3067   -1.1963 S   0  0  0  0  0  0  0  0  0  0  0  0
    6.8486    3.4532   -0.7885 S   0  0  0  0  0  0  0  0  0  0  0  0
   -7.7387    2.4386   -2.2958 O   0  0  0  0  0  0  0  0  0  0  0  0
    7.3203    3.1024   -2.3109 O   0  0  0  0  0  0  0  0  0  0  0  0
   -8.7772    0.2117   -1.9190 O   0  0  0  0  0  0  0  0  0  0  0  0
   -8.8374    1.9644   -0.0973 O   0  0  0  0  0  0  0  0  0  0  0  0
    6.0292    4.6503   -0.8560 O   0  0  0  0  0  0  0  0  0  0  0  0
    8.0111    3.3877    0.0780 O   0  0  0  0  0  0  0  0  0  0  0  0
   -0.9399   -0.2039    1.0108 O   0  0  0  0  0  0  0  0  0  0  0  0
   -1.6877   -4.6633   -0.2447 O   0  0  0  0  0  0  0  0  0  0  0  0
    1.2396   -5.3327   -1.8518 O   0  0  0  0  0  0  0  0  0  0  0  0
   -3.0291   -0.9603    0.8265 N   0  0  0  0  0  0  0  0  0  0  0  0
    3.0564   -0.8673    0.7784 N   0  0  0  0  0  0  0  0  0  0  0  0
   -2.7089   -2.2175    0.4653 N   0  0  0  0  0  0  0  0  0  0  0  0
    1.7592   -0.5450    0.8850 N   0  0  0  0  0  0  0  0  0  0  0  0
   -5.7982    1.4966    0.2690 C   0  0  0  0  0  0  0  0  0  0  0  0
    6.2839    0.8225   -0.0839 C   0  0  0  0  0  0  0  0  0  0  0  0
   -4.5831    0.9477    0.7436 C   0  0  0  0  0  0  0  0  0  0  0  0
    5.3739   -0.1957    0.2877 C   0  0  0  0  0  0  0  0  0  0  0  0
   -6.6274    0.7189   -0.5554 C   0  0  0  0  0  0  0  0  0  0  0  0
    5.8025    2.1200   -0.3228 C   0  0  0  0  0  0  0  0  0  0  0  0
   -4.2222   -0.3682    0.3837 C   0  0  0  0  0  0  0  0  0  0  0  0
    4.0094    0.1136    0.4095 C   0  0  0  0  0  0  0  0  0  0  0  0
   -6.2639   -0.5814   -0.9072 C   0  0  0  0  0  0  0  0  0  0  0  0
    4.4435    2.4095   -0.1971 C   0  0  0  0  0  0  0  0  0  0  0  0
   -5.0689   -1.1211   -0.4405 C   0  0  0  0  0  0  0  0  0  0  0  0
    3.5487    1.4082    0.1683 C   0  0  0  0  0  0  0  0  0  0  0  0
   -6.1483    2.8070    0.6331 C   0  0  0  0  0  0  0  0  0  0  0  0
    7.6484    0.5132   -0.2057 C   0  0  0  0  0  0  0  0  0  0  0  0
   -3.7540    1.7255    1.5682 C   0  0  0  0  0  0  0  0  0  0  0  0
    5.8552   -1.4933    0.5266 C   0  0  0  0  0  0  0  0  0  0  0  0
   -5.3124    3.5655    1.4531 C   0  0  0  0  0  0  0  0  0  0  0  0
    8.1090   -0.7814    0.0355 C   0  0  0  0  0  0  0  0  0  0  0  0
   -4.1174    3.0257    1.9198 C   0  0  0  0  0  0  0  0  0  0  0  0
    7.2143   -1.7827    0.4009 C   0  0  0  0  0  0  0  0  0  0  0  0
   -1.4365   -2.4201    0.3906 C   0  0  0  0  0  0  0  0  0  0  0  0
    0.9729   -1.5300    0.6155 C   0  0  0  0  0  0  0  0  0  0  0  0
    0.5815   -3.9093   -0.0555 C   0  0  0  0  0  0  0  0  0  0  0  0
   -0.5039   -1.2963    0.6979 C   0  0  0  0  0  0  0  0  0  0  0  0
   -0.9014   -3.7627    0.0022 C   0  0  0  0  0  0  0  0  0  0  0  0
    1.4128   -2.8917    0.2248 C   0  0  0  0  0  0  0  0  0  0  0  0
    1.0909   -5.2649   -0.4459 C   0  0  0  0  0  0  0  0  0  0  0  0
  1  3  1  0
  1  5  2  0
  1  6  2  0
  1 20  1  0
  2  4  1  0
  2  7  2  0
  2  8  2  0
  2 21  1  0
  9 39  2  0
 10 40  2  0
 11 42  1  0
 12 14  1  0
 12 22  1  0
 13 15  1  0
 13 23  1  0
 14 36  2  0
 15 37  2  0
 16 18  1  0
 16 20  2  0
 16 28  1  0
 17 19  1  0
 17 21  2  0
 17 29  1  0
 18 22  2  0
 18 30  1  0
 19 23  2  0
 19 31  1  0
 20 24  1  0
 21 25  1  0
 22 26  1  0
 23 27  1  0
 24 26  2  0
 25 27  2  0
 28 32  2  0
 29 33  2  0
 30 34  2  0
 31 35  2  0
 32 34  1  0
 33 35  1  0
 36 39  1  0
 36 40  1  0
 37 39  1  0
 37 41  1  0
 38 40  1  0
 38 41  2  0
 38 42  1  0
M  END
>  <PUBCHEM_COMPOUND_CID>  (1) 
20688

>  <PUBCHEM_CONFORMER_RMSD>  (1) 
1

>  <PUBCHEM_CONFORMER_DIVERSEORDER>  (1) 
2
62
67
11
29
35
75
16
26
30
31
71
60
46
43
58
5
9
23
49
22
51
15
42
1
65
55
57
13
44
3
69
4
52
47
19
72
63
48
24
36
70
17
10
27
68
18
41
37
32
14
38
66
56
20
25
61
28
21
7
34
45
33
74
12
6
59
64
39
73
54
50
53
40
8

>  <PUBCHEM_MMFF94_PARTIAL_CHARGES>  (1) 
56
1 1.49
10 -0.57
11 -0.68
12 -0.46
13 -0.46
14 -0.49
15 -0.49
2 1.49
20 -0.01
21 -0.01
22 0.1
23 0.1
24 -0.15
25 -0.15
26 -0.15
27 -0.15
28 -0.15
29 -0.15
3 -0.68
30 -0.15
31 -0.15
32 -0.15
33 -0.15
34 -0.15
35 -0.15
36 0.45
37 0.44
38 -0.12
39 0.57
4 -0.68
40 0.56
41 -0.14
42 0.42
43 0.15
44 0.15
45 0.15
46 0.15
47 0.15
48 0.15
49 0.15
5 -0.65
50 0.15
51 0.4
52 0.4
53 0.15
54 0.15
55 0.15
56 0.15
57 0.15
6 -0.65
60 0.5
61 0.5
62 0.4
7 -0.65
8 -0.65
9 -0.57

>  <PUBCHEM_EFFECTIVE_ROTOR_COUNT>  (1) 
7

>  <PUBCHEM_PHARMACOPHORE_FEATURES>  (1) 
22
1 10 acceptor
1 11 acceptor
1 11 donor
1 12 donor
1 13 donor
1 14 acceptor
1 15 acceptor
1 3 acceptor
1 36 anion
1 4 acceptor
1 5 acceptor
1 6 acceptor
1 7 acceptor
1 8 acceptor
1 9 acceptor
4 1 3 5 6 anion
4 2 4 7 8 anion
6 16 18 20 22 24 26 rings
6 16 18 28 30 32 34 rings
6 17 19 21 23 25 27 rings
6 17 19 29 31 33 35 rings
6 36 37 38 39 40 41 rings

>  <PUBCHEM_HEAVY_ATOM_COUNT>  (1) 
42

>  <PUBCHEM_ATOM_DEF_STEREO_COUNT>  (1) 
0

>  <PUBCHEM_ATOM_UDEF_STEREO_COUNT>  (1) 
0

>  <PUBCHEM_BOND_DEF_STEREO_COUNT>  (1) 
0

>  <PUBCHEM_BOND_UDEF_STEREO_COUNT>  (1) 
2

>  <PUBCHEM_ISOTOPIC_ATOM_COUNT>  (1) 
0

>  <PUBCHEM_COMPONENT_COUNT>  (1) 
1

>  <PUBCHEM_CACTVS_TAUTO_COUNT>  (1) 
17

>  <PUBCHEM_CONFORMER_ID>  (1) 
000050D000000002

>  <PUBCHEM_MMFF94_ENERGY>  (1) 
149.4184

>  <PUBCHEM_FEATURE_SELFOVERLAP>  (1) 
111.846

>  <PUBCHEM_SHAPE_FINGERPRINT>  (1) 
11135926 11 18340770343550044281
11297010 23 18341891845115672246
12013929 112 18262540164770284460
12107183 9 18409163295661584426
13248334 5 18122062005286221978
13782708 43 12679469659895538730
14117953 113 18270687468554991038
14664723 55 18411703175003255508
14937079 2 18195811761115765602
15064981 113 17632306683201990358
15064981 194 18189629404235994606
15183329 4 18408322177291235200
15198563 99 17695620037311441687
15276724 80 17967527961674245964
15289351 153 18270676459904711618
15347591 1 18263083383307174898
15439362 3 18268153058933041987
15781502 685 17988931037524186064
15890870 6 18410855460523787819
16112460 7 18335984246427586108
16758388 162 18114453467126705506
19053607 189 18268700620150160617
19611394 137 17969518172310307883
20691028 202 18337669823680655680
23516275 100 17968366850350317253
23522609 53 17559405648414431233
23528521 120 17895460464391494877
23729417 116 17547851210550854847
3918712 181 18410290315615913485
4144715 1 18042701679039889562
44555599 121 18408890642225647280
5776283 40 18272366529361348433
6057620 51 18341886386828838567
6327066 14 18336262431110948007
6898599 12 18195251250818922950
99344 41 18341895126353894314
9961470 85 18055059128431205569

>  <PUBCHEM_SHAPE_MULTIPOLES>  (1) 
799.29
28.17
6.45
1.39
3.32
4.79
-0.44
-29.83
-9.65
-4.79
-1.51
1.87
-0.88
-2.93

>  <PUBCHEM_SHAPE_SELFOVERLAP>  (1) 
1752.683

>  <PUBCHEM_SHAPE_VOLUME>  (1) 
431.2

>  <PUBCHEM_COORDINATE_TYPE>  (1) 
2
5
10

$$$$
