20693
     RDKit          3D

 11 10  0  0  1  0  0  0  0  0999 V2000
   -2.4100   -2.1262   -0.4667 Cl  0  0  0  0  0  0  0  0  0  0  0  0
   -4.0259    0.7084   -1.0423 Cl  0  0  0  0  0  0  0  0  0  0  0  0
   -3.2222    0.3295    1.7314 Cl  0  0  0  0  0  0  0  0  0  0  0  0
    0.7083    1.2453    0.4605 S   0  0  0  0  0  0  0  0  0  0  0  0
   -0.1313   -0.6226    0.6323 S   0  0  0  0  0  0  0  0  0  0  0  0
    2.8419   -0.0588   -0.7866 C   0  0  0  0  0  0  0  0  0  0  0  0
    3.8182    0.2377    0.3549 C   0  0  0  0  0  0  0  0  0  0  0  0
    1.7840    1.0261   -0.9874 C   0  0  0  0  0  0  0  0  0  0  0  0
    4.9056   -0.8226    0.4417 C   0  0  0  0  0  0  0  0  0  0  0  0
   -1.6432   -0.5010   -0.4046 C   0  0  0  0  0  0  0  0  0  0  0  0
   -2.6254    0.5841    0.0667 C   0  0  0  0  0  0  0  0  0  0  0  0
  1 10  1  0
  2 11  1  0
  3 11  1  0
  4  5  1  0
  4  8  1  0
  5 10  1  0
  6  7  1  0
  6  8  1  0
  7  9  1  0
 10 11  1  0
M  END
>  <PUBCHEM_COMPOUND_CID>  (1) 
20693

>  <PUBCHEM_CONFORMER_RMSD>  (1) 
0.8

>  <PUBCHEM_CONFORMER_DIVERSEORDER>  (1) 
1
619
618
600
342
332
387
556
561
206
320
108
225
292
266
194
47
42
476
483
321
272
306
238
274
208
383
496
92
525
276
25
235
265
80
26
135
105
404
498
386
578
439
159
523
187
335
291
88
294
515
120
402
218
127
51
192
602
232
43
463
545
420
117
130
93
31
494
533
212
181
119
544
176
521
100
219
109
550
197
381
446
417
433
488
155
581
126
245
6
325
334
391
115
110
57
107
118
209
256
474
580
191
72
275
52
504
459
542
329
442
28
85
10
382
160
111
180
410
522
271
376
18
622
169
368
385
416
426
251
182
378
277
432
394
465
221
479
167
53
506
83
519
453
363
101
558
14
104
129
452
59
37
21
480
576
98
362
5
311
395
397
538
67
2
372
81
422

>  <PUBCHEM_MMFF94_PARTIAL_CHARGES>  (1) 
8
1 -0.29
10 0.52
11 0.58
2 -0.29
3 -0.29
4 -0.23
5 -0.23
8 0.23

>  <PUBCHEM_EFFECTIVE_ROTOR_COUNT>  (1) 
6

>  <PUBCHEM_PHARMACOPHORE_FEATURES>  (1) 
2
1 9 hydrophobe
5 4 5 6 7 8 hydrophobe

>  <PUBCHEM_HEAVY_ATOM_COUNT>  (1) 
11

>  <PUBCHEM_ATOM_DEF_STEREO_COUNT>  (1) 
0

>  <PUBCHEM_ATOM_UDEF_STEREO_COUNT>  (1) 
1

>  <PUBCHEM_BOND_DEF_STEREO_COUNT>  (1) 
0

>  <PUBCHEM_BOND_UDEF_STEREO_COUNT>  (1) 
0

>  <PUBCHEM_ISOTOPIC_ATOM_COUNT>  (1) 
0

>  <PUBCHEM_COMPONENT_COUNT>  (1) 
1

>  <PUBCHEM_CACTVS_TAUTO_COUNT>  (1) 
1

>  <PUBCHEM_CONFORMER_ID>  (1) 
000050D500000001

>  <PUBCHEM_MMFF94_ENERGY>  (1) 
-0.2366

>  <PUBCHEM_FEATURE_SELFOVERLAP>  (1) 
10.149

>  <PUBCHEM_SHAPE_FINGERPRINT>  (1) 
11062470 55 16128660730025420936
12186901 62 13117994500555894122
124424 183 18410291410710721972
12932764 1 18262248835809507476
13675066 3 18040155119477328856
17834072 14 17489869349595696528
17834072 8 18040432144862509846
17834076 25 17131837560202486912
18186145 218 18339653320807852284
18511873 20 18333732416179481508
20112054 60 17632301202496607291
20279233 1 16917353649138895702
20711983 171 10953725721231659290
21119208 17 18040149595954187924
22485316 2 18408879655508990464
22959321 105 13758072982889286793
23402539 116 17560794408081768457
23557571 272 14476968891002541457
23559900 14 18343577465534321864
3248919 1 17703520972726583237
42627469 27 18411990151922795337
58051976 100 18259982703779756303
81228 2 16699804209827073712
9882013 296 11600004370803085916

>  <PUBCHEM_SHAPE_MULTIPOLES>  (1) 
239.68
8.83
1.52
1.29
6.46
0.65
-0.25
0.66
-0.23
-0.78
0.16
-0.91
-0.22
-0.38

>  <PUBCHEM_SHAPE_SELFOVERLAP>  (1) 
384.221

>  <PUBCHEM_SHAPE_VOLUME>  (1) 
167.3

>  <PUBCHEM_COORDINATE_TYPE>  (1) 
2
5
10

$$$$
