2070
     RDKit          3D

 47 51  0  0  1  0  0  0  0  0999 V2000
    0.8106   -0.5881    1.6468 S   0  0  0  0  0  0  0  0  0  0  0  0
   -0.0355    0.3282   -3.0639 O   0  0  0  0  0  0  0  0  0  0  0  0
   -0.0289    2.7559   -1.8045 O   0  0  0  0  0  0  0  0  0  0  0  0
   -0.0441   -0.3636    2.8000 O   0  0  0  0  0  0  0  0  0  0  0  0
    1.9444   -1.4862    1.7821 O   0  0  0  0  0  0  0  0  0  0  0  0
    1.9276   -2.7047   -1.1666 O   0  0  0  0  0  0  0  0  0  0  0  0
   -1.5900    3.0663    0.3653 O   0  0  0  0  0  0  0  0  0  0  0  0
   -6.8449   -0.5684   -1.0370 O   0  0  0  0  0  0  0  0  0  0  0  0
   -7.2263   -2.8418   -0.4680 O   0  0  0  0  0  0  0  0  0  0  0  0
    7.2436    2.1867   -2.1751 O   0  0  0  0  0  0  0  0  0  0  0  0
   -0.1692   -1.1315    0.3473 N   0  0  0  0  0  0  0  0  0  0  0  0
    1.3870    0.9283    1.0881 N   0  0  0  0  0  0  0  0  0  0  0  0
    0.2674   -0.9977   -1.0795 C   0  0  0  0  0  0  0  0  0  0  0  0
    0.4912    1.8989    0.3803 C   0  0  0  0  0  0  0  0  0  0  0  0
   -0.2026    0.3588   -1.6371 C   0  0  0  0  0  0  0  0  0  0  0  0
    0.5283    1.6143   -1.1326 C   0  0  0  0  0  0  0  0  0  0  0  0
    1.7457   -1.3101   -1.3025 C   0  0  0  0  0  0  0  0  0  0  0  0
   -0.9032    2.0025    0.9951 C   0  0  0  0  0  0  0  0  0  0  0  0
   -0.9411   -2.3793    0.5943 C   0  0  0  0  0  0  0  0  0  0  0  0
    2.3906    1.6016    1.9551 C   0  0  0  0  0  0  0  0  0  0  0  0
   -2.4204   -2.1771    0.4223 C   0  0  0  0  0  0  0  0  0  0  0  0
    3.6777    1.8757    1.2291 C   0  0  0  0  0  0  0  0  0  0  0  0
   -3.2029   -1.7929    1.5114 C   0  0  0  0  0  0  0  0  0  0  0  0
   -3.0112   -2.3740   -0.8259 C   0  0  0  0  0  0  0  0  0  0  0  0
    4.6993    0.9259    1.2384 C   0  0  0  0  0  0  0  0  0  0  0  0
    3.8513    3.0798    0.5467 C   0  0  0  0  0  0  0  0  0  0  0  0
    3.1440   -3.1345   -0.6927 C   0  0  0  0  0  0  0  0  0  0  0  0
   -2.9571    2.9631    0.2781 C   0  0  0  0  0  0  0  0  0  0  0  0
   -4.5758   -1.6054    1.3521 C   0  0  0  0  0  0  0  0  0  0  0  0
   -4.3842   -2.1866   -0.9852 C   0  0  0  0  0  0  0  0  0  0  0  0
    5.8940    1.1801    0.5650 C   0  0  0  0  0  0  0  0  0  0  0  0
    5.0460    3.3341   -0.1267 C   0  0  0  0  0  0  0  0  0  0  0  0
   -5.1664   -1.8023    0.1039 C   0  0  0  0  0  0  0  0  0  0  0  0
    6.0674    2.3841   -0.1175 C   0  0  0  0  0  0  0  0  0  0  0  0
    4.2946   -2.3876   -0.9460 C   0  0  0  0  0  0  0  0  0  0  0  0
    3.2281   -4.3179    0.0406 C   0  0  0  0  0  0  0  0  0  0  0  0
   -3.6677    2.2666    1.2557 C   0  0  0  0  0  0  0  0  0  0  0  0
   -3.6346    3.5540   -0.7884 C   0  0  0  0  0  0  0  0  0  0  0  0
   -6.6347   -1.6029   -0.0657 C   0  0  0  0  0  0  0  0  0  0  0  0
    7.3455    2.6560   -0.8364 C   0  0  0  0  0  0  0  0  0  0  0  0
    5.5294   -2.8244   -0.4660 C   0  0  0  0  0  0  0  0  0  0  0  0
    4.4629   -4.7546    0.5209 C   0  0  0  0  0  0  0  0  0  0  0  0
   -5.0558    2.1610    1.1667 C   0  0  0  0  0  0  0  0  0  0  0  0
   -5.0226    3.4485   -0.8774 C   0  0  0  0  0  0  0  0  0  0  0  0
    5.6134   -4.0078    0.2674 C   0  0  0  0  0  0  0  0  0  0  0  0
   -5.7332    2.7519    0.1003 C   0  0  0  0  0  0  0  0  0  0  0  0
   -8.1376    0.0171   -0.9584 C   0  0  0  0  0  0  0  0  0  0  0  0
  1  4  2  0
  1  5  2  0
  1 11  1  0
  1 12  1  0
  2 15  1  0
  3 16  1  0
  6 17  1  0
  6 27  1  0
  7 18  1  0
  7 28  1  0
  8 39  1  0
  8 47  1  0
  9 39  1  0
 10 40  1  0
 11 13  1  0
 11 19  1  0
 12 14  1  0
 12 20  1  0
 13 15  1  0
 13 17  1  0
 14 16  1  0
 14 18  1  0
 15 16  1  0
 19 21  1  0
 20 22  1  0
 21 23  2  0
 21 24  1  0
 22 25  2  0
 22 26  1  0
 23 29  1  0
 24 30  2  0
 25 31  1  0
 26 32  2  0
 27 35  2  0
 27 36  1  0
 28 37  2  0
 28 38  1  0
 29 33  2  0
 30 33  1  0
 31 34  2  0
 32 34  1  0
 33 39  1  0
 34 40  1  0
 35 41  1  0
 36 42  2  0
 37 43  1  0
 38 44  2  0
 41 45  2  0
 42 45  1  0
 43 46  2  0
 44 46  1  0
M  END
>  <PUBCHEM_COMPOUND_CID>  (1) 
2070

>  <PUBCHEM_CONFORMER_RMSD>  (1) 
1.4

>  <PUBCHEM_CONFORMER_DIVERSEORDER>  (1) 
1
101
117
59
20
111
79
78
61
34
56
75
124
2
55
98
69
73
85
122
52
35
50
4
64
24
120
118
47
83
39
109
42
102
116
74
41
115
29
108
15
25
107
80
112
113
53
26
31
76
66
57
67
91
17
99
110
54
22
70
87
96
72
93
123
119
38
9
10
43
18
81
121
27
19
84
77
60
32
58
14
28
71
92
104
7
13
106
48
5
103
90
95
21
94
88
11
100
97
89
12
37
82
105
23
3
46
40
86
16
114
62
33
49
68
65
30
36
8
51
63
44
6
45

>  <PUBCHEM_MMFF94_PARTIAL_CHARGES>  (1) 
69
1 1.58
10 -0.68
11 -0.85
12 -0.85
13 0.36
14 0.36
15 0.28
16 0.28
17 0.28
18 0.28
19 0.5
2 -0.68
20 0.5
21 -0.14
22 -0.14
23 -0.15
24 -0.15
25 -0.15
26 -0.15
27 0.08
28 0.08
29 -0.15
3 -0.68
30 -0.15
31 -0.15
32 -0.15
33 -0.14
34 -0.14
35 -0.15
36 -0.15
37 -0.15
38 -0.15
39 0.7
4 -0.65
40 0.42
41 -0.15
42 -0.15
43 -0.15
44 -0.15
45 -0.15
46 -0.15
47 0.28
5 -0.65
6 -0.36
60 0.4
61 0.4
62 0.15
63 0.15
64 0.15
65 0.15
66 0.15
67 0.15
68 0.15
69 0.15
7 -0.36
70 0.15
71 0.15
72 0.15
73 0.15
77 0.15
78 0.15
79 0.15
8 -0.56
80 0.15
81 0.15
82 0.15
83 0.4
84 0.4
9 -0.68

>  <PUBCHEM_EFFECTIVE_ROTOR_COUNT>  (1) 
14.2

>  <PUBCHEM_PHARMACOPHORE_FEATURES>  (1) 
16
1 10 acceptor
1 10 donor
1 2 acceptor
1 2 donor
1 3 acceptor
1 3 donor
1 6 acceptor
1 7 acceptor
1 8 acceptor
1 9 acceptor
1 9 donor
6 21 23 24 29 30 33 rings
6 22 25 26 31 32 34 rings
6 27 35 36 41 42 45 rings
6 28 37 38 43 44 46 rings
7 1 11 12 13 14 15 16 rings

>  <PUBCHEM_HEAVY_ATOM_COUNT>  (1) 
47

>  <PUBCHEM_ATOM_DEF_STEREO_COUNT>  (1) 
0

>  <PUBCHEM_ATOM_UDEF_STEREO_COUNT>  (1) 
5

>  <PUBCHEM_BOND_DEF_STEREO_COUNT>  (1) 
0

>  <PUBCHEM_BOND_UDEF_STEREO_COUNT>  (1) 
0

>  <PUBCHEM_ISOTOPIC_ATOM_COUNT>  (1) 
0

>  <PUBCHEM_COMPONENT_COUNT>  (1) 
1

>  <PUBCHEM_CACTVS_TAUTO_COUNT>  (1) 
1

>  <PUBCHEM_CONFORMER_ID>  (1) 
0000081600000001

>  <PUBCHEM_MMFF94_ENERGY>  (1) 
149.9336

>  <PUBCHEM_FEATURE_SELFOVERLAP>  (1) 
81.258

>  <PUBCHEM_SHAPE_FINGERPRINT>  (1) 
10050765 1 18411981325717483577
10190108 129 18270123555457353857
11445158 3 17982160133462409588
11513181 2 18343016701112969607
11578080 2 18339652161045291572
12058002 1 17677627512789672802
12128747 34 18412261726915440449
12522641 126 18337114471666624388
12608794 3 17553507793931792617
13811026 1 18341326722008148314
140371 6 18043820989733091842
14295345 954 18335424590671824404
15219648 60 18268974510225020200
15276724 80 18411703171077891319
15351334 14 17677606471618322037
15406563 42 18335711589366322492
15815584 197 17980501248951016359
16112460 7 18200322000809211185
16114785 44 17769633623642671392
22311459 1 18268146650535218688
552612 73 18336267860281802972
6086070 43 18199761249931727262

>  <PUBCHEM_SHAPE_MULTIPOLES>  (1) 
908.3
18.1
6.24
1.87
7.09
1.89
-0.1
-1.33
-3.78
-4.92
-0.41
-0.42
-0.37
-0.33

>  <PUBCHEM_SHAPE_SELFOVERLAP>  (1) 
1920.786

>  <PUBCHEM_SHAPE_VOLUME>  (1) 
505.7

>  <PUBCHEM_COORDINATE_TYPE>  (1) 
2
5
10

$$$$
