20703
     RDKit          3D

 16 17  0  0  0  0  0  0  0  0999 V2000
    3.0671   -3.0503   -0.3567 I   0  0  0  0  0  0  0  0  0  0  0  0
    3.0657    3.0530   -0.3413 I   0  0  0  0  0  0  0  0  0  0  0  0
   -4.4156    0.0029   -0.6606 O   0  0  0  0  0  0  0  0  0  0  0  0
   -1.5424   -0.0170    2.2789 O   0  0  0  0  0  0  0  0  0  0  0  0
    4.0852    0.0028   -0.6888 O   0  0  0  0  0  0  0  0  0  0  0  0
    0.1423   -0.0016    0.6242 C   0  0  0  0  0  0  0  0  0  0  0  0
   -1.2378   -0.0019    1.0833 C   0  0  0  0  0  0  0  0  0  0  0  0
   -2.3553    0.0012    0.1053 C   0  0  0  0  0  0  0  0  0  0  0  0
    0.8040    1.2070    0.4075 C   0  0  0  0  0  0  0  0  0  0  0  0
    0.8042   -1.2088    0.4007 C   0  0  0  0  0  0  0  0  0  0  0  0
    2.1278   -1.2076   -0.0396 C   0  0  0  0  0  0  0  0  0  0  0  0
    2.1276    1.2085   -0.0328 C   0  0  0  0  0  0  0  0  0  0  0  0
    2.7896    0.0012   -0.2564 C   0  0  0  0  0  0  0  0  0  0  0  0
   -2.2533    0.0048   -1.2739 C   0  0  0  0  0  0  0  0  0  0  0  0
   -3.6525    0.0000    0.4636 C   0  0  0  0  0  0  0  0  0  0  0  0
   -3.5566    0.0059   -1.7136 C   0  0  0  0  0  0  0  0  0  0  0  0
  1 11  1  0
  2 12  1  0
  3 15  1  0
  3 16  1  0
  4  7  2  0
  5 13  1  0
  6  7  1  0
  6  9  2  0
  6 10  1  0
  7  8  1  0
  8 14  1  0
  8 15  2  0
  9 12  1  0
 10 11  2  0
 11 13  1  0
 12 13  2  0
 14 16  2  0
M  END
>  <PUBCHEM_COMPOUND_CID>  (1) 
20703

>  <PUBCHEM_CONFORMER_RMSD>  (1) 
0.6

>  <PUBCHEM_CONFORMER_DIVERSEORDER>  (1) 
1
5
6
7
3
4
2
8

>  <PUBCHEM_MMFF94_PARTIAL_CHARGES>  (1) 
22
1 -0.08
10 -0.15
11 0.08
12 0.08
13 0.08
14 -0.15
15 -0.01
16 -0.01
17 0.15
18 0.15
19 0.15
2 -0.08
20 0.15
21 0.15
22 0.45
3 -0.28
4 -0.57
5 -0.53
6 0.09
7 0.57
8 -0.09
9 -0.15

>  <PUBCHEM_EFFECTIVE_ROTOR_COUNT>  (1) 
2

>  <PUBCHEM_PHARMACOPHORE_FEATURES>  (1) 
7
1 1 hydrophobe
1 2 hydrophobe
1 3 acceptor
1 4 acceptor
1 5 donor
5 3 8 14 15 16 rings
6 6 9 10 11 12 13 rings

>  <PUBCHEM_HEAVY_ATOM_COUNT>  (1) 
16

>  <PUBCHEM_ATOM_DEF_STEREO_COUNT>  (1) 
0

>  <PUBCHEM_ATOM_UDEF_STEREO_COUNT>  (1) 
0

>  <PUBCHEM_BOND_DEF_STEREO_COUNT>  (1) 
0

>  <PUBCHEM_BOND_UDEF_STEREO_COUNT>  (1) 
0

>  <PUBCHEM_ISOTOPIC_ATOM_COUNT>  (1) 
0

>  <PUBCHEM_COMPONENT_COUNT>  (1) 
1

>  <PUBCHEM_CACTVS_TAUTO_COUNT>  (1) 
4

>  <PUBCHEM_CONFORMER_ID>  (1) 
000050DF00000001

>  <PUBCHEM_MMFF94_ENERGY>  (1) 
40.4441

>  <PUBCHEM_FEATURE_SELFOVERLAP>  (1) 
35.52

>  <PUBCHEM_SHAPE_FINGERPRINT>  (1) 
10465860 71 16056325054172382177
10498660 4 16009580271031905871
11543360 7 18338786927425742287
11725454 13 17678718249725760816
12236239 1 17703795807878773217
12251169 10 8718827595729924517
12553582 1 18050587144279431938
12730499 353 18260835937961898043
13134695 92 18335983065411267542
13583140 156 17459185360404522232
14115302 16 17632852053469101303
14250199 8 18409166614716248933
14576447 43 18130780178931604982
15219456 202 18041283282547145417
15342816 4 16342839062660761429
15502722 9 18410291445138993222
15842332 3 17702963455901341609
16752209 62 16415484805504804473
16945 1 18338531789198975082
17539 30 17473541348879076134
1813 80 17986123902781782310
18186145 218 17603867741644806603
19422 9 18059855060938515143
200 152 18202002109951603840
20233049 118 14996280314612559502
20645476 183 18059851792257627815
20645477 70 18407762529930566626
20671657 53 18195244421383143766
21499 59 18267304429218974860
21639500 275 18410576227451661184
22096605 113 18337389447614238080
22112679 90 17203065013933822512
2255824 54 18342740723899781702
23114952 82 18187088351518042172
232386 152 16415184677047374799
23526113 38 18041564641781272474
23557571 272 17096102388527677723
23559900 14 18409448111842574682
23598291 2 17843700862879384122
25 1 18335703892252391996
2748010 2 17976843178729493184
3060560 45 18411419531769713318
474 4 18268992158198432136
5281201 14 18261108530903964909
603831 33 17704076226103982296
6049 1 17459494228191665731
633830 44 17842029772883137864
7615 1 17846225414327315416
77492 1 17703796907342915339
81228 2 17470173553379181770
84936 182 18130506452397987760
88987 49 15864077614702639642

>  <PUBCHEM_SHAPE_MULTIPOLES>  (1) 
335.54
7.55
2.81
1.35
4.95
0
-0.18
0
2.52
-5.65
0.49
1.3
0
0.01

>  <PUBCHEM_SHAPE_SELFOVERLAP>  (1) 
687.285

>  <PUBCHEM_SHAPE_VOLUME>  (1) 
201.2

>  <PUBCHEM_COORDINATE_TYPE>  (1) 
2
5
10

$$$$
