2071
     RDKit          3D

 16 17  0  0  1  0  0  0  0  0999 V2000
   -4.2147    0.4748    0.3029 O   0  0  0  0  0  0  0  0  0  0  0  0
   -2.4874    1.7799    1.0167 O   0  0  0  0  0  0  0  0  0  0  0  0
    4.1940   -0.9907    0.3605 O   0  0  0  0  0  0  0  0  0  0  0  0
    4.3348    1.2355   -0.0762 O   0  0  0  0  0  0  0  0  0  0  0  0
   -2.5213   -0.2959   -1.6739 N   0  0  0  0  0  0  0  0  0  0  0  0
   -2.0480   -0.1980   -0.2971 C   0  0  0  0  0  0  0  0  0  0  0  0
   -2.1106   -1.5608    0.4306 C   0  0  0  0  0  0  0  0  0  0  0  0
   -0.7552   -2.2495    0.2072 C   0  0  0  0  0  0  0  0  0  0  0  0
   -0.5728    0.0975   -0.2155 C   0  0  0  0  0  0  0  0  0  0  0  0
    0.1523   -1.0669    0.0766 C   0  0  0  0  0  0  0  0  0  0  0  0
    0.0818    1.3033   -0.4239 C   0  0  0  0  0  0  0  0  0  0  0  0
   -2.9040    0.8017    0.4140 C   0  0  0  0  0  0  0  0  0  0  0  0
    1.5346   -1.0490    0.1640 C   0  0  0  0  0  0  0  0  0  0  0  0
    2.1958    0.1645   -0.0330 C   0  0  0  0  0  0  0  0  0  0  0  0
    1.4748    1.3323   -0.3250 C   0  0  0  0  0  0  0  0  0  0  0  0
    3.6457    0.2213    0.0720 C   0  0  0  0  0  0  0  0  0  0  0  0
  1 12  1  0
  2 12  2  0
  3 16  1  0
  4 16  2  0
  5  6  1  0
  6  7  1  0
  6  9  1  0
  6 12  1  0
  7  8  1  0
  8 10  1  0
  9 10  2  0
  9 11  1  0
 10 13  1  0
 11 15  2  0
 13 14  2  0
 14 15  1  0
 14 16  1  0
M  END
>  <PUBCHEM_COMPOUND_CID>  (1) 
2071

>  <PUBCHEM_CONFORMER_RMSD>  (1) 
0.6

>  <PUBCHEM_CONFORMER_DIVERSEORDER>  (1) 
1
6
7
5
3
4
2
8

>  <PUBCHEM_MMFF94_PARTIAL_CHARGES>  (1) 
22
1 -0.65
10 -0.14
11 -0.15
12 0.66
13 -0.15
14 0.09
15 -0.15
16 0.63
2 -0.57
21 0.15
22 0.15
23 0.36
24 0.36
25 0.15
26 0.5
27 0.5
3 -0.65
4 -0.57
5 -0.99
6 0.47
8 0.14
9 -0.14

>  <PUBCHEM_EFFECTIVE_ROTOR_COUNT>  (1) 
2.6

>  <PUBCHEM_PHARMACOPHORE_FEATURES>  (1) 
10
1 1 acceptor
1 2 acceptor
1 3 acceptor
1 4 acceptor
1 5 cation
1 5 donor
3 1 2 12 anion
3 3 4 16 anion
5 6 7 8 9 10 rings
6 9 10 11 13 14 15 rings

>  <PUBCHEM_HEAVY_ATOM_COUNT>  (1) 
16

>  <PUBCHEM_ATOM_DEF_STEREO_COUNT>  (1) 
0

>  <PUBCHEM_ATOM_UDEF_STEREO_COUNT>  (1) 
1

>  <PUBCHEM_BOND_DEF_STEREO_COUNT>  (1) 
0

>  <PUBCHEM_BOND_UDEF_STEREO_COUNT>  (1) 
0

>  <PUBCHEM_ISOTOPIC_ATOM_COUNT>  (1) 
0

>  <PUBCHEM_COMPONENT_COUNT>  (1) 
1

>  <PUBCHEM_CACTVS_TAUTO_COUNT>  (1) 
1

>  <PUBCHEM_CONFORMER_ID>  (1) 
0000081700000001

>  <PUBCHEM_MMFF94_ENERGY>  (1) 
45.3256

>  <PUBCHEM_FEATURE_SELFOVERLAP>  (1) 
50.941

>  <PUBCHEM_SHAPE_FINGERPRINT>  (1) 
10967382 1 18336828598042190842
11132069 177 18334569157750659440
11543360 7 16486683783750666484
12251169 10 18334299785532853025
12382932 28 18409733954152211242
12403814 3 17167860893648432981
12491281 212 18410863156883675336
12932764 1 17095794490864617546
13024252 1 13912596178451836687
13140716 1 18262235650634364256
13172582 1 18259988171146166084
13380535 76 18411985745434412727
14144814 61 18407758144831903632
14943859 89 18060701680322537819
15196674 1 18408323310925334498
15309172 13 18261111846355050835
15442244 35 18409449181046779576
15536298 74 18200597986464145966
15775835 57 18113617893338101915
16945 1 18187919569238920862
17844478 74 17167864140601549517
18186145 218 18259703402562574734
18522853 276 18410857702306818745
19026448 4 16056875853794743588
200 152 18269546295121503383
20510252 161 18270687583268205843
21267235 1 18336837420074107818
21501502 16 18117565247545632158
21524375 3 18341895156313150539
2334 1 17974289025675874972
23402539 116 18273207621528382655
23419403 2 15747460289056506975
23463225 33 18333450941545551598
23493267 7 16661197040628931581
23559900 14 18411701015811085780
2748010 2 18119526797917343284
5104073 3 18335419106145820066
528886 8 18409727356998132995
53812653 166 18411136948200764632
69090 78 18412260644731615327
74978 22 18336546139475751948

>  <PUBCHEM_SHAPE_MULTIPOLES>  (1) 
300.81
6.65
1.83
0.85
3.88
0.42
0.18
-1.41
-0.66
-0.36
-0.25
-0.57
-0.08
-0.42

>  <PUBCHEM_SHAPE_SELFOVERLAP>  (1) 
658.114

>  <PUBCHEM_SHAPE_VOLUME>  (1) 
164.5

>  <PUBCHEM_COORDINATE_TYPE>  (1) 
2
5
10

$$$$
