20737
     RDKit          3D

 11 11  0  0  0  0  0  0  0  0999 V2000
   -0.0597    3.0515    0.0020 Br  0  0  0  0  0  0  0  0  0  0  0  0
   -2.7577   -2.0239    0.0000 Br  0  0  0  0  0  0  0  0  0  0  0  0
    2.8878   -1.8546   -0.0002 Br  0  0  0  0  0  0  0  0  0  0  0  0
    2.3706    1.1919   -0.0007 O   0  0  0  0  0  0  0  0  0  0  0  0
   -1.2114    0.4159   -0.0006 C   0  0  0  0  0  0  0  0  0  0  0  0
   -0.0229    1.1463   -0.0012 C   0  0  0  0  0  0  0  0  0  0  0  0
   -1.1733   -0.9784    0.0006 C   0  0  0  0  0  0  0  0  0  0  0  0
    1.2038    0.4821   -0.0006 C   0  0  0  0  0  0  0  0  0  0  0  0
    0.0533   -1.6425    0.0011 C   0  0  0  0  0  0  0  0  0  0  0  0
   -2.5323    1.1241   -0.0009 C   0  0  0  0  0  0  0  0  0  0  0  0
    1.2419   -0.9123    0.0005 C   0  0  0  0  0  0  0  0  0  0  0  0
  1  6  1  0
  2  7  1  0
  3 11  1  0
  4  8  1  0
  5  6  2  0
  5  7  1  0
  5 10  1  0
  6  8  1  0
  7  9  2  0
  8 11  2  0
  9 11  1  0
M  END
>  <PUBCHEM_COMPOUND_CID>  (1) 
20737

>  <PUBCHEM_CONFORMER_RMSD>  (1) 
0.4

>  <PUBCHEM_CONFORMER_DIVERSEORDER>  (1) 
1

>  <PUBCHEM_MMFF94_PARTIAL_CHARGES>  (1) 
13
1 -0.11
10 0.14
11 0.11
12 0.15
16 0.45
2 -0.11
3 -0.11
4 -0.53
5 -0.14
6 0.11
7 0.11
8 0.08
9 -0.15

>  <PUBCHEM_EFFECTIVE_ROTOR_COUNT>  (1) 
0

>  <PUBCHEM_PHARMACOPHORE_FEATURES>  (1) 
5
1 1 hydrophobe
1 2 hydrophobe
1 3 hydrophobe
1 4 donor
6 5 6 7 8 9 11 rings

>  <PUBCHEM_HEAVY_ATOM_COUNT>  (1) 
11

>  <PUBCHEM_ATOM_DEF_STEREO_COUNT>  (1) 
0

>  <PUBCHEM_ATOM_UDEF_STEREO_COUNT>  (1) 
0

>  <PUBCHEM_BOND_DEF_STEREO_COUNT>  (1) 
0

>  <PUBCHEM_BOND_UDEF_STEREO_COUNT>  (1) 
0

>  <PUBCHEM_ISOTOPIC_ATOM_COUNT>  (1) 
0

>  <PUBCHEM_COMPONENT_COUNT>  (1) 
1

>  <PUBCHEM_CACTVS_TAUTO_COUNT>  (1) 
6

>  <PUBCHEM_CONFORMER_ID>  (1) 
0000510100000001

>  <PUBCHEM_MMFF94_ENERGY>  (1) 
29.8034

>  <PUBCHEM_FEATURE_SELFOVERLAP>  (1) 
25.373

>  <PUBCHEM_SHAPE_FINGERPRINT>  (1) 
11206711 2 18264772249629116813
12423570 1 15740770263254550521
13140716 1 18410573950791960074
13380535 76 17111563390024509265
14817 1 14930692534496909267
16945 1 18122624955159268070
193761 8 18410855498914807717
20510252 161 17767396886299671160
20588541 1 18126005953488668799
20645477 70 17832978726502847255
20871998 184 18201434714544053262
21040471 1 18410855451570038117
21501502 16 18410577296597876471
2334 1 18410575123328567943
23402539 116 18053648192955485527
23526114 1 18411138060528995286
23552423 10 18261115187971599326
241688 4 18410292484420826283
2748010 2 18411978070095505950
5084963 1 17842548548633300024
54173680 148 18337955567269627475
68250623 7 18410580595127595471
7364860 26 18124597741022883880

>  <PUBCHEM_SHAPE_MULTIPOLES>  (1) 
238.33
3.83
3.24
0.65
1.13
1.51
0
-2.17
0
-0.91
0
-0.01
-0.02
0

>  <PUBCHEM_SHAPE_SELFOVERLAP>  (1) 
454.851

>  <PUBCHEM_SHAPE_VOLUME>  (1) 
154.1

>  <PUBCHEM_COORDINATE_TYPE>  (1) 
2
5
10

$$$$
