20734
     RDKit          3D

 15 17  0  0  0  0  0  0  0  0999 V2000
    0.5045   -1.0534   -0.0002 C   0  0  0  0  0  0  0  0  0  0  0  0
   -0.7396   -1.9169    0.0001 C   0  0  0  0  0  0  0  0  0  0  0  0
    0.1562    0.3160   -0.0004 C   0  0  0  0  0  0  0  0  0  0  0  0
   -1.8385   -0.8749    0.0000 C   0  0  0  0  0  0  0  0  0  0  0  0
   -1.2867    0.4260   -0.0003 C   0  0  0  0  0  0  0  0  0  0  0  0
    1.8264   -1.4633   -0.0001 C   0  0  0  0  0  0  0  0  0  0  0  0
    1.1389    1.2918   -0.0004 C   0  0  0  0  0  0  0  0  0  0  0  0
    2.8166   -0.4794   -0.0003 C   0  0  0  0  0  0  0  0  0  0  0  0
    2.4765    0.8844   -0.0005 C   0  0  0  0  0  0  0  0  0  0  0  0
   -2.1101    1.5395   -0.0001 C   0  0  0  0  0  0  0  0  0  0  0  0
   -3.2071   -1.0798    0.0002 C   0  0  0  0  0  0  0  0  0  0  0  0
    4.2501   -0.9039    0.0006 C   0  0  0  0  0  0  0  0  0  0  0  0
    3.5437    1.9317    0.0007 C   0  0  0  0  0  0  0  0  0  0  0  0
   -3.4939    1.3393    0.0003 C   0  0  0  0  0  0  0  0  0  0  0  0
   -4.0369    0.0428    0.0003 C   0  0  0  0  0  0  0  0  0  0  0  0
  1  2  1  0
  1  3  2  0
  1  6  1  0
  2  4  1  0
  3  5  1  0
  3  7  1  0
  4  5  2  0
  4 11  1  0
  5 10  1  0
  6  8  2  0
  7  9  2  0
  8  9  1  0
  8 12  1  0
  9 13  1  0
 10 14  2  0
 11 15  2  0
 14 15  1  0
M  END
>  <PUBCHEM_COMPOUND_CID>  (1) 
20734

>  <PUBCHEM_CONFORMER_RMSD>  (1) 
0.4

>  <PUBCHEM_CONFORMER_DIVERSEORDER>  (1) 
1

>  <PUBCHEM_MMFF94_PARTIAL_CHARGES>  (1) 
19
1 -0.14
10 -0.15
11 -0.15
12 0.14
13 0.14
14 -0.15
15 -0.15
18 0.15
19 0.15
2 0.29
20 0.15
21 0.15
28 0.15
29 0.15
4 -0.14
6 -0.15
7 -0.15
8 -0.14
9 -0.14

>  <PUBCHEM_EFFECTIVE_ROTOR_COUNT>  (1) 
0.2

>  <PUBCHEM_PHARMACOPHORE_FEATURES>  (1) 
3
5 1 2 3 4 5 rings
6 1 3 6 7 8 9 rings
6 4 5 10 11 14 15 rings

>  <PUBCHEM_HEAVY_ATOM_COUNT>  (1) 
15

>  <PUBCHEM_ATOM_DEF_STEREO_COUNT>  (1) 
0

>  <PUBCHEM_ATOM_UDEF_STEREO_COUNT>  (1) 
0

>  <PUBCHEM_BOND_DEF_STEREO_COUNT>  (1) 
0

>  <PUBCHEM_BOND_UDEF_STEREO_COUNT>  (1) 
0

>  <PUBCHEM_ISOTOPIC_ATOM_COUNT>  (1) 
0

>  <PUBCHEM_COMPONENT_COUNT>  (1) 
1

>  <PUBCHEM_CACTVS_TAUTO_COUNT>  (1) 
1

>  <PUBCHEM_CONFORMER_ID>  (1) 
000050FE00000001

>  <PUBCHEM_MMFF94_ENERGY>  (1) 
51.2666

>  <PUBCHEM_FEATURE_SELFOVERLAP>  (1) 
15.388

>  <PUBCHEM_SHAPE_FINGERPRINT>  (1) 
10062212 137 18341602694604641195
10411042 1 16320905210763791590
10608611 8 18410290306946558733
10967382 1 18410575110464596165
11132069 177 18412256233652288513
11471102 20 18411132545690546076
12032990 46 18410860953396829003
12251169 10 18408598145988068178
13140716 1 18410013208467358241
13221675 6 18410292493021504902
13380535 76 18411418397355346071
14144814 61 18409730664133487369
14325111 11 18410856572577633857
14415576 193 18410858763232416684
14897335 6 18339358664491964668
15196674 1 18410855481829942533
15219456 202 18410575106137928401
15309172 13 18412834568595529419
15442244 35 18194964045822738658
15536298 74 18341894108467659364
15775835 57 18341336677141115981
16945 1 18266740379452946531
17802600 8 18410288094974889901
17804303 29 18410859837037466134
18186145 218 18411983524714547389
18522853 276 18342173349776546200
200 152 18060410314283980005
20510252 161 18343024423527185609
20645477 70 18341894082365832406
21267235 1 18410864247731859467
21501502 16 18411417344940282230
221490 88 18337117842704657722
22854114 111 18407761438845141644
2334 1 18410292536002715937
23402539 116 18272078379593619285
23402655 69 18342450405611899445
23463225 33 18408321060267363398
23559900 14 18343862204606848146
2748010 2 18410294704950508189
335352 9 18266459810756514292
474 4 17314234556381836940
4990 188 18131082527966001236
5104073 3 18410293631213985713
528886 8 18411132498409054042
53812653 166 18340483378913980762
57096353 35 18340484590200214693
69090 78 18342734130829693623
7364860 26 18341895143528722342
77779 3 18410576192785844236
8809292 202 18261116291693928531
9709674 26 18412268354203556782
9981440 41 17614560776004747216

>  <PUBCHEM_SHAPE_MULTIPOLES>  (1) 
308.69
7.18
1.99
0.62
0.46
0.14
0
1.04
0
0.42
0
0
0
0

>  <PUBCHEM_SHAPE_SELFOVERLAP>  (1) 
689.167

>  <PUBCHEM_SHAPE_VOLUME>  (1) 
157.2

>  <PUBCHEM_COORDINATE_TYPE>  (1) 
2
5
10

$$$$
