20739
     RDKit          3D

 10 10  0  0  0  0  0  0  0  0999 V2000
    3.5198   -0.0051    0.2219 O   0  0  0  0  0  0  0  0  0  0  0  0
   -0.7220   -0.0074    0.2025 C   0  0  0  0  0  0  0  0  0  0  0  0
    0.0153   -1.2645   -0.2798 C   0  0  0  0  0  0  0  0  0  0  0  0
    0.0048    1.2645   -0.2560 C   0  0  0  0  0  0  0  0  0  0  0  0
   -2.1683   -0.0088   -0.2888 C   0  0  0  0  0  0  0  0  0  0  0  0
    1.4784   -1.2588    0.1533 C   0  0  0  0  0  0  0  0  0  0  0  0
    1.4679    1.2631    0.1767 C   0  0  0  0  0  0  0  0  0  0  0  0
    2.1964    0.0091   -0.3019 C   0  0  0  0  0  0  0  0  0  0  0  0
   -2.9028   -1.2511    0.2096 C   0  0  0  0  0  0  0  0  0  0  0  0
   -2.8895    1.2591    0.1626 C   0  0  0  0  0  0  0  0  0  0  0  0
  1  8  1  0
  2  3  1  0
  2  4  1  0
  2  5  1  0
  3  6  1  0
  4  7  1  0
  5  9  1  0
  5 10  1  0
  6  8  1  0
  7  8  1  0
M  END
>  <PUBCHEM_COMPOUND_CID>  (1) 
20739

>  <PUBCHEM_CONFORMER_RMSD>  (1) 
0.4

>  <PUBCHEM_CONFORMER_DIVERSEORDER>  (1) 
1
6
9
13
14
5
7
12
4
2
3
10
11
8

>  <PUBCHEM_MMFF94_PARTIAL_CHARGES>  (1) 
3
1 -0.68
28 0.4
8 0.28

>  <PUBCHEM_EFFECTIVE_ROTOR_COUNT>  (1) 
2.2

>  <PUBCHEM_PHARMACOPHORE_FEATURES>  (1) 
4
1 1 acceptor
1 1 donor
3 5 9 10 hydrophobe
6 2 3 4 6 7 8 rings

>  <PUBCHEM_HEAVY_ATOM_COUNT>  (1) 
10

>  <PUBCHEM_ATOM_DEF_STEREO_COUNT>  (1) 
0

>  <PUBCHEM_ATOM_UDEF_STEREO_COUNT>  (1) 
0

>  <PUBCHEM_BOND_DEF_STEREO_COUNT>  (1) 
0

>  <PUBCHEM_BOND_UDEF_STEREO_COUNT>  (1) 
0

>  <PUBCHEM_ISOTOPIC_ATOM_COUNT>  (1) 
0

>  <PUBCHEM_COMPONENT_COUNT>  (1) 
1

>  <PUBCHEM_CACTVS_TAUTO_COUNT>  (1) 
1

>  <PUBCHEM_CONFORMER_ID>  (1) 
0000510300000001

>  <PUBCHEM_MMFF94_ENERGY>  (1) 
14.6979

>  <PUBCHEM_FEATURE_SELFOVERLAP>  (1) 
20.297

>  <PUBCHEM_SHAPE_FINGERPRINT>  (1) 
10857977 72 18410003368750056411
12032990 46 18411989056991263630
12897270 3 18410290319984084223
12932764 1 17489866072282383469
13380535 76 18339359669878347855
14325111 11 18411138056191732404
14390081 3 18342736304109356673
15775835 57 18409452457579461573
16945 1 18410857667751907983
193761 8 17474389076206190934
19973954 147 18410014364161882477
20201158 50 18408321073157715443
21040471 1 18339080518056840716
23235685 24 18411132520010490892
23380061 330 18341888627730745622
23402655 69 18197483053407420189
23552423 10 18261114101339358333
2748010 2 18411418414418781125
29004967 10 18408606950259451379
3248919 1 17313108570110937067
5084963 1 18337955696207907905
528886 8 18411413982112777833
53812653 166 18342453725188966072

>  <PUBCHEM_SHAPE_MULTIPOLES>  (1) 
199.93
4.72
1.59
0.66
0.04
0.01
-0.01
-0.01
0.34
-0.39
0.03
-0.02
0
0.02

>  <PUBCHEM_SHAPE_SELFOVERLAP>  (1) 
385.054

>  <PUBCHEM_SHAPE_VOLUME>  (1) 
122.2

>  <PUBCHEM_COORDINATE_TYPE>  (1) 
2
5
10

$$$$
