20736
     RDKit          3D

 11 10  0  0  0  0  0  0  0  0999 V2000
   -2.0334    0.2543    0.4789 O   0  0  0  0  0  0  0  0  0  0  0  0
    0.0965    1.8700   -1.1031 O   0  0  0  0  0  0  0  0  0  0  0  0
    2.0619   -0.7347   -1.0641 O   0  0  0  0  0  0  0  0  0  0  0  0
   -1.1908   -1.5581   -0.6719 O   0  0  0  0  0  0  0  0  0  0  0  0
    0.3122    0.0091    0.4254 C   0  0  0  0  0  0  0  0  0  0  0  0
    0.5308    1.4483   -0.0313 C   0  0  0  0  0  0  0  0  0  0  0  0
    1.4633   -0.8953   -0.0006 C   0  0  0  0  0  0  0  0  0  0  0  0
   -1.0354   -0.5446   -0.0033 C   0  0  0  0  0  0  0  0  0  0  0  0
    1.3375    2.3346    0.8831 C   0  0  0  0  0  0  0  0  0  0  0  0
    1.8221   -2.0242    0.9315 C   0  0  0  0  0  0  0  0  0  0  0  0
   -3.3646   -0.1595    0.1554 C   0  0  0  0  0  0  0  0  0  0  0  0
  1  8  1  0
  1 11  1  0
  2  6  2  0
  3  7  2  0
  4  8  2  0
  5  6  1  0
  5  7  1  0
  5  8  1  0
  6  9  1  0
  7 10  1  0
M  END
>  <PUBCHEM_COMPOUND_CID>  (1) 
20736

>  <PUBCHEM_CONFORMER_RMSD>  (1) 
0.6

>  <PUBCHEM_CONFORMER_DIVERSEORDER>  (1) 
1
11
23
34
10
36
37
2
16
27
9
4
29
26
3
33
35
22
28
8
32
24
13
15
17
6
30
21
20
14
7
31
25
5
19
18
12

>  <PUBCHEM_MMFF94_PARTIAL_CHARGES>  (1) 
11
1 -0.43
10 0.06
11 0.28
2 -0.57
3 -0.57
4 -0.57
5 0.18
6 0.45
7 0.45
8 0.66
9 0.06

>  <PUBCHEM_EFFECTIVE_ROTOR_COUNT>  (1) 
4

>  <PUBCHEM_PHARMACOPHORE_FEATURES>  (1) 
4
1 2 acceptor
1 3 acceptor
1 4 acceptor
1 5 anion

>  <PUBCHEM_HEAVY_ATOM_COUNT>  (1) 
11

>  <PUBCHEM_ATOM_DEF_STEREO_COUNT>  (1) 
0

>  <PUBCHEM_ATOM_UDEF_STEREO_COUNT>  (1) 
0

>  <PUBCHEM_BOND_DEF_STEREO_COUNT>  (1) 
0

>  <PUBCHEM_BOND_UDEF_STEREO_COUNT>  (1) 
0

>  <PUBCHEM_ISOTOPIC_ATOM_COUNT>  (1) 
0

>  <PUBCHEM_COMPONENT_COUNT>  (1) 
1

>  <PUBCHEM_CACTVS_TAUTO_COUNT>  (1) 
8

>  <PUBCHEM_CONFORMER_ID>  (1) 
0000510000000001

>  <PUBCHEM_MMFF94_ENERGY>  (1) 
15.4035

>  <PUBCHEM_FEATURE_SELFOVERLAP>  (1) 
20.297

>  <PUBCHEM_SHAPE_FINGERPRINT>  (1) 
12423570 1 14495037212662790442
15490181 8 17616254027678383660
161256 15 18408600353232252980
16945 1 18343582953579230009
18185500 45 18409733936956907370
19021347 4 17760925547189269376
20653091 64 18339932596645107195
20711985 344 17692836799206753206
20820808 20 17677918861827644916
21040471 1 17617099547809501232
228727 97 18045810930208115750
23211744 41 16838543077853025537
23552423 10 18265894851117406039
305870 269 18121771991807869144
5084963 1 17693108769383797488
7364860 26 18058734735419096849

>  <PUBCHEM_SHAPE_MULTIPOLES>  (1) 
202.9
3.32
2.35
0.98
3.08
0.82
0.08
-0.98
-0.35
-1.54
-0.29
-0.34
0.07
-0.04

>  <PUBCHEM_SHAPE_SELFOVERLAP>  (1) 
390.116

>  <PUBCHEM_SHAPE_VOLUME>  (1) 
124.2

>  <PUBCHEM_COORDINATE_TYPE>  (1) 
2
5
10

$$$$
