20742
     RDKit          3D

 21 21  0  0  0  0  0  0  0  0999 V2000
    8.4354   -1.6985   -0.0193 Cl  0  0  0  0  0  0  0  0  0  0  0  0
    6.3767    3.0798    0.0125 Cl  0  0  0  0  0  0  0  0  0  0  0  0
    3.5740   -0.9594   -0.0113 O   0  0  0  0  0  0  0  0  0  0  0  0
    4.9164    0.9246   -0.0003 N   0  0  0  0  0  0  0  0  0  0  0  0
    5.8658   -1.2791   -0.0150 N   0  0  0  0  0  0  0  0  0  0  0  0
    7.2996    0.6449   -0.0046 N   0  0  0  0  0  0  0  0  0  0  0  0
   -3.9126   -0.5804    0.0212 C   0  0  0  0  0  0  0  0  0  0  0  0
   -5.1618    0.3071    0.0077 C   0  0  0  0  0  0  0  0  0  0  0  0
   -2.6047    0.2145    0.0289 C   0  0  0  0  0  0  0  0  0  0  0  0
   -6.5058   -0.4256    0.0892 C   0  0  0  0  0  0  0  0  0  0  0  0
   -1.3561   -0.6734    0.0297 C   0  0  0  0  0  0  0  0  0  0  0  0
   -7.7148    0.5101    0.0113 C   0  0  0  0  0  0  0  0  0  0  0  0
   -0.0474    0.1204    0.0128 C   0  0  0  0  0  0  0  0  0  0  0  0
   -9.0563   -0.2305    0.0041 C   0  0  0  0  0  0  0  0  0  0  0  0
    1.1664   -0.8145   -0.0140 C   0  0  0  0  0  0  0  0  0  0  0  0
  -10.2659    0.6993   -0.1004 C   0  0  0  0  0  0  0  0  0  0  0  0
    2.4839   -0.0487   -0.0051 C   0  0  0  0  0  0  0  0  0  0  0  0
  -11.5708   -0.0793   -0.0270 C   0  0  0  0  0  0  0  0  0  0  0  0
    4.8334   -0.4176   -0.0086 C   0  0  0  0  0  0  0  0  0  0  0  0
    7.0662   -0.6774   -0.0127 C   0  0  0  0  0  0  0  0  0  0  0  0
    6.1783    1.3836    0.0010 C   0  0  0  0  0  0  0  0  0  0  0  0
  1 20  1  0
  2 21  1  0
  3 17  1  0
  3 19  1  0
  4 19  2  0
  4 21  1  0
  5 19  1  0
  5 20  2  0
  6 20  1  0
  6 21  2  0
  7  8  1  0
  7  9  1  0
  8 10  1  0
  9 11  1  0
 10 12  1  0
 11 13  1  0
 12 14  1  0
 13 15  1  0
 14 16  1  0
 15 17  1  0
 16 18  1  0
M  END
>  <PUBCHEM_COMPOUND_CID>  (1) 
20742

>  <PUBCHEM_CONFORMER_RMSD>  (1) 
1.2

>  <PUBCHEM_CONFORMER_DIVERSEORDER>  (1) 
1
49
91
12
70
86
81
160
113
148
31
130
32
151
129
89
59
66
78
3
35
166
2
162
140
61
94
44
84
16
39
145
30
28
53
65
138
18
161
25
68
112
100
76
142
124
69
38
159
42
116
20
80
55
88
56
156
27
11
117
40
146
135
157
6
47
75
153
77
141
5
133
115
98
22
154
165
108
43
82
50
167
58
67
62
48
101
125
120
123
24
122
19
107
8
26
110
41
168
96
10
158
36
83
79
23
63
54
127
33
71
99
64
97
103
87
15
109
57
34
17
73
72
164
139
13
152
147
106
7
143
60
95
137
45
111
136
163
85
4
74
149
119
14
128
9
105
51
29
155
121
150
118
37
52
144
93
46
134
90
102
131
104
114
126
92
132
21

>  <PUBCHEM_MMFF94_PARTIAL_CHARGES>  (1) 
10
1 -0.18
17 0.28
19 0.7
2 -0.18
20 0.8
21 0.8
3 -0.36
4 -0.62
5 -0.62
6 -0.62

>  <PUBCHEM_EFFECTIVE_ROTOR_COUNT>  (1) 
12

>  <PUBCHEM_PHARMACOPHORE_FEATURES>  (1) 
5
1 18 hydrophobe
3 4 5 19 cation
3 4 6 21 cation
3 5 6 20 cation
6 4 5 6 19 20 21 rings

>  <PUBCHEM_HEAVY_ATOM_COUNT>  (1) 
21

>  <PUBCHEM_ATOM_DEF_STEREO_COUNT>  (1) 
0

>  <PUBCHEM_ATOM_UDEF_STEREO_COUNT>  (1) 
0

>  <PUBCHEM_BOND_DEF_STEREO_COUNT>  (1) 
0

>  <PUBCHEM_BOND_UDEF_STEREO_COUNT>  (1) 
0

>  <PUBCHEM_ISOTOPIC_ATOM_COUNT>  (1) 
0

>  <PUBCHEM_COMPONENT_COUNT>  (1) 
1

>  <PUBCHEM_CACTVS_TAUTO_COUNT>  (1) 
1

>  <PUBCHEM_CONFORMER_ID>  (1) 
0000510600000001

>  <PUBCHEM_MMFF94_ENERGY>  (1) 
18.3524

>  <PUBCHEM_FEATURE_SELFOVERLAP>  (1) 
28.137

>  <PUBCHEM_SHAPE_FINGERPRINT>  (1) 
11315181 36 18273218608882933459
11638347 137 16588017996554869986
14251764 18 17775570836508998953
14251764 46 18412825777409293567
14251920 1 18409448069331128066
15510794 2 18334299773608579875
155225 1 18411419548902661392
15840311 113 18334016120450278804
16120349 18 18412261761502428397
20281389 69 18261109673323268572
20771845 171 17203341009270794060
20812841 46 18259983781964324888
21150785 3 17561083605667691873
21315763 28 18412263917781427568
21362267 2 18337376237092460421
21362267 313 18265892455068773003
21792934 111 18272926129556744280
22224240 67 17967250910313604339
232437 2 18410575081407640527
23521765 1 18341894082988057899
23581129 1 18409449176177150023
33684 2 18272651234569988275
5283156 175 17846780689717562070
59682541 35 17821732745832826641
67123 10 18411699890461108415
8209 1 18412544306505926155

>  <PUBCHEM_SHAPE_MULTIPOLES>  (1) 
415.1
40.65
1.67
0.61
80.11
1.27
0
2.95
0.56
-5.75
0
0.07
0.01
0.09

>  <PUBCHEM_SHAPE_SELFOVERLAP>  (1) 
782.973

>  <PUBCHEM_SHAPE_VOLUME>  (1) 
257

>  <PUBCHEM_COORDINATE_TYPE>  (1) 
2
5
10

$$$$
