20775
     RDKit          3D

 13 13  0  0  1  0  0  0  0  0999 V2000
   -3.5078   -2.3602   -0.2036 Br  0  0  0  0  0  0  0  0  0  0  0  0
   -2.2300    2.9726    0.5986 Br  0  0  0  0  0  0  0  0  0  0  0  0
    1.3107   -0.6231   -0.2802 N   0  0  0  0  0  0  0  0  0  0  0  0
   -0.3677    0.9663    0.1142 N   0  0  0  0  0  0  0  0  0  0  0  0
   -0.9210   -1.3425   -0.2332 N   0  0  0  0  0  0  0  0  0  0  0  0
   -2.6604    0.2604    0.1703 N   0  0  0  0  0  0  0  0  0  0  0  0
    2.3672    0.3850   -0.1924 C   0  0  0  0  0  0  0  0  0  0  0  0
    3.7337   -0.2597    0.0888 C   0  0  0  0  0  0  0  0  0  0  0  0
    2.4074    1.1712   -1.5021 C   0  0  0  0  0  0  0  0  0  0  0  0
    3.7811   -1.0462    1.3927 C   0  0  0  0  0  0  0  0  0  0  0  0
   -0.0236   -0.3262   -0.1302 C   0  0  0  0  0  0  0  0  0  0  0  0
   -2.2036   -0.9785   -0.0738 C   0  0  0  0  0  0  0  0  0  0  0  0
   -1.6862    1.1810    0.2511 C   0  0  0  0  0  0  0  0  0  0  0  0
  1 12  1  0
  2 13  1  0
  3  7  1  0
  3 11  1  0
  4 11  2  0
  4 13  1  0
  5 11  1  0
  5 12  2  0
  6 12  1  0
  6 13  2  0
  7  8  1  0
  7  9  1  0
  8 10  1  0
M  END
>  <PUBCHEM_COMPOUND_CID>  (1) 
20775

>  <PUBCHEM_CONFORMER_RMSD>  (1) 
0.6

>  <PUBCHEM_CONFORMER_DIVERSEORDER>  (1) 
1
10
13
18
11
5
6
16
2
7
12
15
9
20
19
14
4
17
8
3

>  <PUBCHEM_MMFF94_PARTIAL_CHARGES>  (1) 
11
1 -0.11
11 0.72
12 0.73
13 0.73
2 -0.11
20 0.4
3 -0.87
4 -0.62
5 -0.62
6 -0.62
7 0.37

>  <PUBCHEM_EFFECTIVE_ROTOR_COUNT>  (1) 
3

>  <PUBCHEM_PHARMACOPHORE_FEATURES>  (1) 
6
1 1 hydrophobe
1 10 hydrophobe
1 2 hydrophobe
1 3 donor
4 3 4 5 11 cation
6 4 5 6 11 12 13 rings

>  <PUBCHEM_HEAVY_ATOM_COUNT>  (1) 
13

>  <PUBCHEM_ATOM_DEF_STEREO_COUNT>  (1) 
0

>  <PUBCHEM_ATOM_UDEF_STEREO_COUNT>  (1) 
1

>  <PUBCHEM_BOND_DEF_STEREO_COUNT>  (1) 
0

>  <PUBCHEM_BOND_UDEF_STEREO_COUNT>  (1) 
0

>  <PUBCHEM_ISOTOPIC_ATOM_COUNT>  (1) 
0

>  <PUBCHEM_COMPONENT_COUNT>  (1) 
1

>  <PUBCHEM_CACTVS_TAUTO_COUNT>  (1) 
3

>  <PUBCHEM_CONFORMER_ID>  (1) 
0000512700000001

>  <PUBCHEM_MMFF94_ENERGY>  (1) 
21.5629

>  <PUBCHEM_FEATURE_SELFOVERLAP>  (1) 
30.446

>  <PUBCHEM_SHAPE_FINGERPRINT>  (1) 
11357001 24 18410295796383943483
12932764 1 17603873269304679052
13380535 76 18126283047894000253
14144814 61 18260266330925140834
14178342 30 18337664197015353650
16945 1 18342748403084964069
1741750 31 17985830328613082281
18186145 218 14345782881648448727
18342897 69 18410855485982504579
20510252 161 18273498987308373864
20559304 39 18336829796680795468
20645477 70 15357970136706183890
20871998 184 18060140959499510399
21524375 3 18046914783947899881
2306618 200 18114730556477660981
23402539 116 18270950268443517413
23557571 272 17918000438171995164
23559900 14 17915463797092441054
23598291 2 18186812365730873958
2748010 2 17835542431014475389
3086196 2 18340758303938970994
6992083 37 18114744802794562708
7615 1 18187368731283496804
77492 1 18113624473602506796
81228 2 18270415948530893065
88987 49 18270131114652653100

>  <PUBCHEM_SHAPE_MULTIPOLES>  (1) 
259.49
6.72
2.69
1.01
3.98
1.36
-0.04
-2.62
0.96
-3.7
0.36
0.96
0.12
-1.33

>  <PUBCHEM_SHAPE_SELFOVERLAP>  (1) 
487.905

>  <PUBCHEM_SHAPE_VOLUME>  (1) 
166.3

>  <PUBCHEM_COORDINATE_TYPE>  (1) 
2
5
10

$$$$
