20781
     RDKit          3D

 11 11  0  0  0  0  0  0  0  0999 V2000
   -1.1077   -2.4142   -0.1643 Cl  0  0  0  0  0  0  0  0  0  0  0  0
    2.5822    1.5795   -0.1498 Cl  0  0  0  0  0  0  0  0  0  0  0  0
   -3.4003   -0.1915    0.1268 Cl  0  0  0  0  0  0  0  0  0  0  0  0
    2.5814   -1.4458    0.5566 O   0  0  0  0  0  0  0  0  0  0  0  0
    0.6192   -0.3232   -0.1414 C   0  0  0  0  0  0  0  0  0  0  0  0
   -0.7156   -0.7235   -0.0803 C   0  0  0  0  0  0  0  0  0  0  0  0
    0.9446    1.0317   -0.0767 C   0  0  0  0  0  0  0  0  0  0  0  0
   -1.7249    0.2309    0.0452 C   0  0  0  0  0  0  0  0  0  0  0  0
   -0.0647    1.9862    0.0491 C   0  0  0  0  0  0  0  0  0  0  0  0
   -1.3995    1.5858    0.1099 C   0  0  0  0  0  0  0  0  0  0  0  0
    1.6853   -1.3159   -0.2751 C   0  0  0  0  0  0  0  0  0  0  0  0
  1  6  1  0
  2  7  1  0
  3  8  1  0
  4 11  2  0
  5  6  2  0
  5  7  1  0
  5 11  1  0
  6  8  1  0
  7  9  2  0
  8 10  2  0
  9 10  1  0
M  END
>  <PUBCHEM_COMPOUND_CID>  (1) 
20781

>  <PUBCHEM_CONFORMER_RMSD>  (1) 
0.4

>  <PUBCHEM_CONFORMER_DIVERSEORDER>  (1) 
1
2

>  <PUBCHEM_MMFF94_PARTIAL_CHARGES>  (1) 
14
1 -0.18
10 -0.15
11 0.42
12 0.15
13 0.15
14 0.06
2 -0.18
3 -0.18
4 -0.57
5 0.09
6 0.18
7 0.18
8 0.18
9 -0.15

>  <PUBCHEM_EFFECTIVE_ROTOR_COUNT>  (1) 
1

>  <PUBCHEM_PHARMACOPHORE_FEATURES>  (1) 
2
1 4 acceptor
6 5 6 7 8 9 10 rings

>  <PUBCHEM_HEAVY_ATOM_COUNT>  (1) 
11

>  <PUBCHEM_ATOM_DEF_STEREO_COUNT>  (1) 
0

>  <PUBCHEM_ATOM_UDEF_STEREO_COUNT>  (1) 
0

>  <PUBCHEM_BOND_DEF_STEREO_COUNT>  (1) 
0

>  <PUBCHEM_BOND_UDEF_STEREO_COUNT>  (1) 
0

>  <PUBCHEM_ISOTOPIC_ATOM_COUNT>  (1) 
0

>  <PUBCHEM_COMPONENT_COUNT>  (1) 
1

>  <PUBCHEM_CACTVS_TAUTO_COUNT>  (1) 
1

>  <PUBCHEM_CONFORMER_ID>  (1) 
0000512D00000001

>  <PUBCHEM_MMFF94_ENERGY>  (1) 
30.8596

>  <PUBCHEM_FEATURE_SELFOVERLAP>  (1) 
10.148

>  <PUBCHEM_SHAPE_FINGERPRINT>  (1) 
12423570 1 16886412047503195820
12524768 44 18342186573864897007
13380535 21 18265909122919047815
13380535 76 18339358694335313111
16945 1 18338795753130218309
193761 8 18194964269060915079
20588541 1 18338519771458740877
20645477 70 18410570674565460295
20871998 184 18127966399811146534
21040471 1 18339927111898224717
21501502 16 18339357599250677351
2334 1 18411140212429118133
23552423 10 18333736792735344724
23559900 14 17047395900851867990
241688 4 18265334997492520513
2748010 2 18337671906238868365
5084963 1 18059290933731460155
5255222 1 18267579285503428253
528862 383 18334856142695657208
528886 8 18268428129775332464
53812653 166 18127129894816584617
53812654 25 18130495414204877319
66348 1 18196370552948792263

>  <PUBCHEM_SHAPE_MULTIPOLES>  (1) 
226.11
3.87
2.47
0.66
0.72
0.55
0
-0.08
0.19
-0.37
0.02
-0.04
0.04
-0.23

>  <PUBCHEM_SHAPE_SELFOVERLAP>  (1) 
448.702

>  <PUBCHEM_SHAPE_VOLUME>  (1) 
136.8

>  <PUBCHEM_COORDINATE_TYPE>  (1) 
2
5
10

$$$$
