20796
     RDKit          3D

 12 11  0  0  0  0  0  0  0  0999 V2000
   -2.9468   -0.1387    0.0856 S   0  0  0  0  0  0  0  0  0  0  0  0
    2.9465   -0.1384   -0.0859 S   0  0  0  0  0  0  0  0  0  0  0  0
   -1.3708    0.0986   -0.2739 O   0  0  0  0  0  0  0  0  0  0  0  0
    1.3720    0.0960    0.2748 O   0  0  0  0  0  0  0  0  0  0  0  0
   -3.7486    0.8682   -0.5792 O   0  0  0  0  0  0  0  0  0  0  0  0
   -3.0808   -0.4161    1.5013 O   0  0  0  0  0  0  0  0  0  0  0  0
    3.7483    0.8684    0.5793 O   0  0  0  0  0  0  0  0  0  0  0  0
    3.0806   -0.4153   -1.5017 O   0  0  0  0  0  0  0  0  0  0  0  0
   -0.7222    1.2552    0.2319 C   0  0  0  0  0  0  0  0  0  0  0  0
    0.7218    1.2553   -0.2317 C   0  0  0  0  0  0  0  0  0  0  0  0
   -3.1344   -1.6666   -0.7974 C   0  0  0  0  0  0  0  0  0  0  0  0
    3.1343   -1.6666    0.7967 C   0  0  0  0  0  0  0  0  0  0  0  0
  1  3  1  0
  1  5  2  0
  1  6  2  0
  1 11  1  0
  2  4  1  0
  2  7  2  0
  2  8  2  0
  2 12  1  0
  3  9  1  0
  4 10  1  0
  9 10  1  0
M  END
>  <PUBCHEM_COMPOUND_CID>  (1) 
20796

>  <PUBCHEM_CONFORMER_RMSD>  (1) 
0.6

>  <PUBCHEM_CONFORMER_DIVERSEORDER>  (1) 
1
20
34
13
32
40
22
36
3
29
23
2
43
44
39
24
11
35
46
19
16
30
12
33
41
6
31
45
37
7
15
8
42
47
27
10
14
5
9
25
28
26
38
17
4
18
21

>  <PUBCHEM_MMFF94_PARTIAL_CHARGES>  (1) 
12
1 1.38
10 0.28
11 0.11
12 0.11
2 1.38
3 -0.46
4 -0.46
5 -0.65
6 -0.65
7 -0.65
8 -0.65
9 0.28

>  <PUBCHEM_EFFECTIVE_ROTOR_COUNT>  (1) 
5

>  <PUBCHEM_PHARMACOPHORE_FEATURES>  (1) 
4
1 5 acceptor
1 6 acceptor
1 7 acceptor
1 8 acceptor

>  <PUBCHEM_HEAVY_ATOM_COUNT>  (1) 
12

>  <PUBCHEM_ATOM_DEF_STEREO_COUNT>  (1) 
0

>  <PUBCHEM_ATOM_UDEF_STEREO_COUNT>  (1) 
0

>  <PUBCHEM_BOND_DEF_STEREO_COUNT>  (1) 
0

>  <PUBCHEM_BOND_UDEF_STEREO_COUNT>  (1) 
0

>  <PUBCHEM_ISOTOPIC_ATOM_COUNT>  (1) 
0

>  <PUBCHEM_COMPONENT_COUNT>  (1) 
1

>  <PUBCHEM_CACTVS_TAUTO_COUNT>  (1) 
1

>  <PUBCHEM_CONFORMER_ID>  (1) 
0000513C00000001

>  <PUBCHEM_MMFF94_ENERGY>  (1) 
7.6731

>  <PUBCHEM_FEATURE_SELFOVERLAP>  (1) 
20.332

>  <PUBCHEM_SHAPE_FINGERPRINT>  (1) 
10149128 111 9151175371823516543
12932764 1 18410577283686444901
13296908 3 18410854364922219732
14144814 61 17703793630093068161
14252887 29 18131359626228527482
190213 19 17632858633163741708
19107657 162 17918277562367810799
19107657 47 12607410948749343142
19107657 9 8862946112331763655
20279233 1 18410852161593284961
20281407 28 18411699885069025224
20645477 70 18339917121862375278
22485316 2 18410568491888312033
23402539 116 16660636358871767420
3248919 1 17203609285068957717
581208 293 18408880767810620208

>  <PUBCHEM_SHAPE_MULTIPOLES>  (1) 
219.44
7.87
1.53
1.07
0
0.36
0
1.86
0
0
0
0
0.26
-0.27

>  <PUBCHEM_SHAPE_SELFOVERLAP>  (1) 
388.1

>  <PUBCHEM_SHAPE_VOLUME>  (1) 
144

>  <PUBCHEM_COORDINATE_TYPE>  (1) 
2
5
10

$$$$
