20792
     RDKit          3D

  6  5  0  0  0  0  0  0  0  0999 V2000
   -1.2406   -1.2515   -0.0621 O   0  0  0  0  0  0  0  0  0  0  0  0
    1.3335   -0.3771    0.2018 N   0  0  0  0  0  0  0  0  0  0  0  0
    2.6245    0.2029    0.0119 N   0  0  0  0  0  0  0  0  0  0  0  0
   -2.0179    0.8983    0.1653 N   0  0  0  0  0  0  0  0  0  0  0  0
    0.3327    0.5677   -0.2719 C   0  0  0  0  0  0  0  0  0  0  0  0
   -1.0323   -0.0403   -0.0451 C   0  0  0  0  0  0  0  0  0  0  0  0
  1  6  2  0
  2  3  1  0
  2  5  1  0
  4  6  1  0
  5  6  1  0
M  END
>  <PUBCHEM_COMPOUND_CID>  (1) 
20792

>  <PUBCHEM_CONFORMER_RMSD>  (1) 
0.4

>  <PUBCHEM_CONFORMER_DIVERSEORDER>  (1) 
1
2
4
3
5

>  <PUBCHEM_MMFF94_PARTIAL_CHARGES>  (1) 
11
1 -0.57
10 0.36
11 0.36
12 0.37
13 0.37
2 -0.63
3 -0.72
4 -0.8
5 0.33
6 0.57
9 0.36

>  <PUBCHEM_EFFECTIVE_ROTOR_COUNT>  (1) 
2

>  <PUBCHEM_PHARMACOPHORE_FEATURES>  (1) 
4
1 1 acceptor
1 2 donor
1 3 donor
1 4 donor

>  <PUBCHEM_HEAVY_ATOM_COUNT>  (1) 
6

>  <PUBCHEM_ATOM_DEF_STEREO_COUNT>  (1) 
0

>  <PUBCHEM_ATOM_UDEF_STEREO_COUNT>  (1) 
0

>  <PUBCHEM_BOND_DEF_STEREO_COUNT>  (1) 
0

>  <PUBCHEM_BOND_UDEF_STEREO_COUNT>  (1) 
0

>  <PUBCHEM_ISOTOPIC_ATOM_COUNT>  (1) 
0

>  <PUBCHEM_COMPONENT_COUNT>  (1) 
1

>  <PUBCHEM_CACTVS_TAUTO_COUNT>  (1) 
2

>  <PUBCHEM_CONFORMER_ID>  (1) 
0000513800000001

>  <PUBCHEM_MMFF94_ENERGY>  (1) 
6.9899

>  <PUBCHEM_FEATURE_SELFOVERLAP>  (1) 
21.617

>  <PUBCHEM_SHAPE_FINGERPRINT>  (1) 
139733 1 10015599310352423254
14390081 3 18130782382555724328
16714656 1 18335704905532267140
20096714 4 18409450258561487265
21040471 1 18339645520962457461
29004967 10 15646775565601816972
5460574 1 9439402427954855008

>  <PUBCHEM_SHAPE_MULTIPOLES>  (1) 
102.66
2.94
0.99
0.58
1.51
0.15
0.02
-0.32
-0.18
-0.46
0.01
-0.01
-0.02
-0.09

>  <PUBCHEM_SHAPE_SELFOVERLAP>  (1) 
182.795

>  <PUBCHEM_SHAPE_VOLUME>  (1) 
67

>  <PUBCHEM_COORDINATE_TYPE>  (1) 
2
5
10

$$$$
