2079
     RDKit          3D

 14 13  0  0  1  0  0  0  0  0999 V2000
   -0.7044    2.5567    0.8419 O   0  0  0  0  0  0  0  0  0  0  0  0
   -2.6286    2.3765   -0.3315 O   0  0  0  0  0  0  0  0  0  0  0  0
    1.2410    0.7498   -1.4412 O   0  0  0  0  0  0  0  0  0  0  0  0
    0.0402    0.0469    0.4166 N   0  0  0  0  0  0  0  0  0  0  0  0
    4.8746   -0.4236    0.4077 N   0  0  0  0  0  0  0  0  0  0  0  0
   -2.3531   -0.5707    0.3958 C   0  0  0  0  0  0  0  0  0  0  0  0
   -2.1110   -2.0850    0.2026 C   0  0  0  0  0  0  0  0  0  0  0  0
   -1.2617    0.3945   -0.0910 C   0  0  0  0  0  0  0  0  0  0  0  0
   -1.9191   -2.3790   -1.2901 C   0  0  0  0  0  0  0  0  0  0  0  0
   -0.9146   -2.6235    0.9838 C   0  0  0  0  0  0  0  0  0  0  0  0
   -1.6199    1.8553    0.1319 C   0  0  0  0  0  0  0  0  0  0  0  0
    1.2010    0.2585   -0.3164 C   0  0  0  0  0  0  0  0  0  0  0  0
    2.4369   -0.1919    0.4424 C   0  0  0  0  0  0  0  0  0  0  0  0
    3.7185    0.0354   -0.3523 C   0  0  0  0  0  0  0  0  0  0  0  0
  1 11  1  0
  2 11  2  0
  3 12  2  0
  4  8  1  0
  4 12  1  0
  5 14  1  0
  6  7  1  0
  6  8  1  0
  7  9  1  0
  7 10  1  0
  8 11  1  0
 12 13  1  0
 13 14  1  0
M  END
>  <PUBCHEM_COMPOUND_CID>  (1) 
2079

>  <PUBCHEM_CONFORMER_RMSD>  (1) 
0.8

>  <PUBCHEM_CONFORMER_DIVERSEORDER>  (1) 
3
38
33
29
19
34
32
17
27
14
15
26
28
36
7
4
1
30
20
18
25
24
35
23
13
11
6
9
37
21
2
5
16
12
31
10
8
22

>  <PUBCHEM_MMFF94_PARTIAL_CHARGES>  (1) 
14
1 -0.65
11 0.66
12 0.57
13 0.06
14 0.27
2 -0.57
25 0.37
3 -0.57
30 0.5
31 0.36
32 0.36
4 -0.73
5 -0.99
8 0.36

>  <PUBCHEM_EFFECTIVE_ROTOR_COUNT>  (1) 
7

>  <PUBCHEM_PHARMACOPHORE_FEATURES>  (1) 
8
1 1 acceptor
1 2 acceptor
1 3 acceptor
1 4 donor
1 5 cation
1 5 donor
3 1 2 11 anion
3 7 9 10 hydrophobe

>  <PUBCHEM_HEAVY_ATOM_COUNT>  (1) 
14

>  <PUBCHEM_ATOM_DEF_STEREO_COUNT>  (1) 
0

>  <PUBCHEM_ATOM_UDEF_STEREO_COUNT>  (1) 
1

>  <PUBCHEM_BOND_DEF_STEREO_COUNT>  (1) 
0

>  <PUBCHEM_BOND_UDEF_STEREO_COUNT>  (1) 
0

>  <PUBCHEM_ISOTOPIC_ATOM_COUNT>  (1) 
0

>  <PUBCHEM_COMPONENT_COUNT>  (1) 
1

>  <PUBCHEM_CACTVS_TAUTO_COUNT>  (1) 
2

>  <PUBCHEM_CONFORMER_ID>  (1) 
0000081F00000003

>  <PUBCHEM_MMFF94_ENERGY>  (1) 
18.0044

>  <PUBCHEM_FEATURE_SELFOVERLAP>  (1) 
40.656

>  <PUBCHEM_SHAPE_FINGERPRINT>  (1) 
1 1 17760088415303509837
11357001 24 18408046220851718443
12138202 97 18270115712651788884
12500047 106 18339635629995711616
13296909 8 18411134740793549516
15669948 3 18409727352893056682
20524608 308 18341614772031253790
20671657 53 17910670200725034263
20711985 344 18338785810423177811
20871998 184 18342747320658389935
21524375 3 18194118508533279461
232386 152 18337679740301206486
23402539 116 18343011177953526781
23557571 272 18200607976885247620
23559900 14 18341041983030541536
23598294 1 18408879620574278849
257057 1 18053939842662409823
2748010 2 18050306772876434775
305870 269 17689722960754835625
75552 356 18408886230766407988
81228 2 18340501044299079049

>  <PUBCHEM_SHAPE_MULTIPOLES>  (1) 
260.54
5.68
2.94
1.03
8.91
0.47
-0.22
-1.51
0.02
-3.3
0.27
-0.15
-0.3
-0.31

>  <PUBCHEM_SHAPE_SELFOVERLAP>  (1) 
493.111

>  <PUBCHEM_SHAPE_VOLUME>  (1) 
160.5

>  <PUBCHEM_COORDINATE_TYPE>  (1) 
2
5
10

$$$$
