20794
     RDKit          3D

 12 12  0  0  0  0  0  0  0  0999 V2000
    3.7449    1.1014    1.1530 O   0  0  0  0  0  0  0  0  0  0  0  0
    3.7768    0.1169   -0.8936 O   0  0  0  0  0  0  0  0  0  0  0  0
   -1.0595   -0.5362    0.1086 N   0  0  0  0  0  0  0  0  0  0  0  0
   -1.2643    0.3886   -1.0151 C   0  0  0  0  0  0  0  0  0  0  0  0
   -2.3337   -1.1105    0.5630 C   0  0  0  0  0  0  0  0  0  0  0  0
   -2.2016    1.5323   -0.6244 C   0  0  0  0  0  0  0  0  0  0  0  0
   -3.3060   -0.0157    1.0054 C   0  0  0  0  0  0  0  0  0  0  0  0
   -3.5338    1.0046   -0.1040 C   0  0  0  0  0  0  0  0  0  0  0  0
   -0.1248   -1.5971   -0.2659 C   0  0  0  0  0  0  0  0  0  0  0  0
    1.2362   -1.0002   -0.6263 C   0  0  0  0  0  0  0  0  0  0  0  0
    1.8572   -0.2239    0.5311 C   0  0  0  0  0  0  0  0  0  0  0  0
    3.2086    0.3398    0.1680 C   0  0  0  0  0  0  0  0  0  0  0  0
  1 12  1  0
  2 12  2  0
  3  4  1  0
  3  5  1  0
  3  9  1  0
  4  6  1  0
  5  7  1  0
  6  8  1  0
  7  8  1  0
  9 10  1  0
 10 11  1  0
 11 12  1  0
M  END
>  <PUBCHEM_COMPOUND_CID>  (1) 
20794

>  <PUBCHEM_CONFORMER_RMSD>  (1) 
0.6

>  <PUBCHEM_CONFORMER_DIVERSEORDER>  (1) 
2
34
29
27
26
11
4
37
40
21
36
13
43
38
39
31
20
28
41
3
19
15
1
17
33
25
35
24
6
32
7
16
44
14
23
10
30
12
8
18
42
22
9
5

>  <PUBCHEM_MMFF94_PARTIAL_CHARGES>  (1) 
9
1 -0.65
11 0.06
12 0.66
2 -0.57
29 0.5
3 -0.81
4 0.27
5 0.27
9 0.27

>  <PUBCHEM_EFFECTIVE_ROTOR_COUNT>  (1) 
5.2

>  <PUBCHEM_PHARMACOPHORE_FEATURES>  (1) 
5
1 1 acceptor
1 2 acceptor
1 3 cation
3 1 2 12 anion
6 3 4 5 6 7 8 rings

>  <PUBCHEM_HEAVY_ATOM_COUNT>  (1) 
12

>  <PUBCHEM_ATOM_DEF_STEREO_COUNT>  (1) 
0

>  <PUBCHEM_ATOM_UDEF_STEREO_COUNT>  (1) 
0

>  <PUBCHEM_BOND_DEF_STEREO_COUNT>  (1) 
0

>  <PUBCHEM_BOND_UDEF_STEREO_COUNT>  (1) 
0

>  <PUBCHEM_ISOTOPIC_ATOM_COUNT>  (1) 
0

>  <PUBCHEM_COMPONENT_COUNT>  (1) 
1

>  <PUBCHEM_CACTVS_TAUTO_COUNT>  (1) 
1

>  <PUBCHEM_CONFORMER_ID>  (1) 
0000513A00000002

>  <PUBCHEM_MMFF94_ENERGY>  (1) 
4.8127

>  <PUBCHEM_FEATURE_SELFOVERLAP>  (1) 
25.43

>  <PUBCHEM_SHAPE_FINGERPRINT>  (1) 
10857977 72 17895207571224249575
11031198 65 17917431990713026726
11127187 94 11167939173614261849
11132069 177 18334576854105200589
11137873 295 7853577932716566409
12251169 10 17749112192375901373
12932764 1 18342173375736500758
13764800 53 18335704905748609921
15219456 202 18338241448840488447
15775835 57 18410292505943213266
17834072 14 8358257012544953422
17846911 113 18334289847263509557
18186145 218 17775289365505436826
19107657 162 8070028874160938640
20281475 54 7925626743409042002
20528008 55 18261391118393151879
20645464 45 18411141303429692335
20645477 56 18341890835881960376
20653085 51 17203323437826121766
20671657 53 10519987067203110770
20871999 31 12607400001220564835
21119208 17 14692574294951310168
22485316 2 12107787423359064040
22926399 37 17561360678065801097
23402539 116 18187922928652913135
23500284 214 18272368702392876752
23557571 272 18338252521709185287
27216 239 18339071717526621665
81228 2 17838604918516519062
90316 7 16805600330969127757
93112 12 12391506494749090658
9882013 296 17749114399936317863

>  <PUBCHEM_SHAPE_MULTIPOLES>  (1) 
230.23
6.97
1.45
1.04
3.84
0.07
-0.06
-2.53
-1.4
-0.56
0.1
0.18
-0.1
0.73

>  <PUBCHEM_SHAPE_SELFOVERLAP>  (1) 
444.476

>  <PUBCHEM_SHAPE_VOLUME>  (1) 
139.9

>  <PUBCHEM_COORDINATE_TYPE>  (1) 
2
5
10

$$$$
