20807
     RDKit          3D

 15 16  0  0  0  0  0  0  0  0999 V2000
    1.6322   -3.0547   -0.0004 Cl  0  0  0  0  0  0  0  0  0  0  0  0
    4.5348    1.2635   -0.0003 Cl  0  0  0  0  0  0  0  0  0  0  0  0
   -0.3799    1.4312   -0.0003 O   0  0  0  0  0  0  0  0  0  0  0  0
    1.9318    1.3239   -0.0001 N   0  0  0  0  0  0  0  0  0  0  0  0
    0.5933   -0.6676   -0.0002 N   0  0  0  0  0  0  0  0  0  0  0  0
    2.9872   -0.8311    0.0007 N   0  0  0  0  0  0  0  0  0  0  0  0
   -1.5767    0.7836   -0.0001 C   0  0  0  0  0  0  0  0  0  0  0  0
   -2.1902    0.4516    1.2080 C   0  0  0  0  0  0  0  0  0  0  0  0
   -2.1899    0.4511   -1.2081 C   0  0  0  0  0  0  0  0  0  0  0  0
   -3.4166   -0.2128    1.2081 C   0  0  0  0  0  0  0  0  0  0  0  0
   -3.4165   -0.2133   -1.2079 C   0  0  0  0  0  0  0  0  0  0  0  0
   -4.0297   -0.5452    0.0002 C   0  0  0  0  0  0  0  0  0  0  0  0
    0.7700    0.6592   -0.0004 C   0  0  0  0  0  0  0  0  0  0  0  0
    1.7491   -1.3510    0.0004 C   0  0  0  0  0  0  0  0  0  0  0  0
    3.0011    0.5116    0.0005 C   0  0  0  0  0  0  0  0  0  0  0  0
  1 14  1  0
  2 15  1  0
  3  7  1  0
  3 13  1  0
  4 13  2  0
  4 15  1  0
  5 13  1  0
  5 14  2  0
  6 14  1  0
  6 15  2  0
  7  8  2  0
  7  9  1  0
  8 10  1  0
  9 11  2  0
 10 12  2  0
 11 12  1  0
M  END
>  <PUBCHEM_COMPOUND_CID>  (1) 
20807

>  <PUBCHEM_CONFORMER_RMSD>  (1) 
0.6

>  <PUBCHEM_CONFORMER_DIVERSEORDER>  (1) 
1
4
6
3
2
5

>  <PUBCHEM_MMFF94_PARTIAL_CHARGES>  (1) 
20
1 -0.18
10 -0.15
11 -0.15
12 -0.15
13 0.7
14 0.8
15 0.8
16 0.15
17 0.15
18 0.15
19 0.15
2 -0.18
20 0.15
3 -0.17
4 -0.62
5 -0.62
6 -0.62
7 0.08
8 -0.15
9 -0.15

>  <PUBCHEM_EFFECTIVE_ROTOR_COUNT>  (1) 
2

>  <PUBCHEM_PHARMACOPHORE_FEATURES>  (1) 
5
3 4 5 13 cation
3 4 6 15 cation
3 5 6 14 cation
6 4 5 6 13 14 15 rings
6 7 8 9 10 11 12 rings

>  <PUBCHEM_HEAVY_ATOM_COUNT>  (1) 
15

>  <PUBCHEM_ATOM_DEF_STEREO_COUNT>  (1) 
0

>  <PUBCHEM_ATOM_UDEF_STEREO_COUNT>  (1) 
0

>  <PUBCHEM_BOND_DEF_STEREO_COUNT>  (1) 
0

>  <PUBCHEM_BOND_UDEF_STEREO_COUNT>  (1) 
0

>  <PUBCHEM_ISOTOPIC_ATOM_COUNT>  (1) 
0

>  <PUBCHEM_COMPONENT_COUNT>  (1) 
1

>  <PUBCHEM_CACTVS_TAUTO_COUNT>  (1) 
1

>  <PUBCHEM_CONFORMER_ID>  (1) 
0000514700000001

>  <PUBCHEM_MMFF94_ENERGY>  (1) 
40.0264

>  <PUBCHEM_FEATURE_SELFOVERLAP>  (1) 
28.159

>  <PUBCHEM_SHAPE_FINGERPRINT>  (1) 
107287 299 18335144193451933802
12236239 1 17775570857683206601
12932764 1 17560792212994621849
13032168 30 18057879349822550931
13296908 3 18261955146140725879
13583140 156 16590524982077825936
14004511 7 11314303945131814629
14251717 144 18411697694767560022
15219456 202 18114180813369189941
15309172 13 18410857698032976344
15375358 24 18040711463760375925
15375462 189 18060700576468515699
16945 1 18410573985330955108
19422 9 17632582621406556742
200 152 18343013411389157461
20201158 50 18187366523654280947
20279233 1 17749390368944290249
204376 136 18337110193615615368
20645477 70 18338506439948956231
22445834 79 18202567250559944147
23402539 116 16153977041321484535
23557571 272 17095525050164848285
23559900 14 16877931720988208152
33824 294 18408323284913178131
474 4 17557971012545814104
474229 33 18336546122680959178
57812782 119 17313101964366982657
581208 293 18411416215622313794
603831 33 18060127743779456989
633830 44 18201734963207780604
77492 1 17703790318947563493
81228 2 16827829991045583274
81539 233 18186801387831654518
9971528 1 11169907304128915580

>  <PUBCHEM_SHAPE_MULTIPOLES>  (1) 
291.62
7.63
1.97
1.01
0.61
1.83
0
-1.03
0
2.1
0
-1.15
-0.05
0

>  <PUBCHEM_SHAPE_SELFOVERLAP>  (1) 
609.438

>  <PUBCHEM_SHAPE_VOLUME>  (1) 
165.3

>  <PUBCHEM_COORDINATE_TYPE>  (1) 
2
5
10

$$$$
