20829
     RDKit          3D

 23 23  0  0  1  0  0  0  0  0999 V2000
   -0.1990    1.8347    0.1735 O   0  0  0  0  0  0  0  0  0  0  0  0
   -1.7680    2.6314    1.6575 O   0  0  0  0  0  0  0  0  0  0  0  0
   -0.9126   -0.9409    0.7384 N   0  0  0  0  0  0  0  0  0  0  0  0
   -4.9821   -1.8046   -1.7056 N   0  0  0  0  0  0  0  0  0  0  0  0
    0.9380   -2.5092    1.0691 C   0  0  0  0  0  0  0  0  0  0  0  0
   -0.5618   -2.3449    0.7875 C   0  0  0  0  0  0  0  0  0  0  0  0
    1.8133   -1.8281    0.0094 C   0  0  0  0  0  0  0  0  0  0  0  0
    3.3004   -1.9911    0.3343 C   0  0  0  0  0  0  0  0  0  0  0  0
    4.2233   -1.3065   -0.6779 C   0  0  0  0  0  0  0  0  0  0  0  0
   -1.3968   -3.0175    1.8724 C   0  0  0  0  0  0  0  0  0  0  0  0
    5.7079   -1.4477   -0.3403 C   0  0  0  0  0  0  0  0  0  0  0  0
   -2.0572   -0.4595    0.1285 C   0  0  0  0  0  0  0  0  0  0  0  0
   -2.3403    0.9063    0.1143 C   0  0  0  0  0  0  0  0  0  0  0  0
    6.5824   -0.8145   -1.4120 C   0  0  0  0  0  0  0  0  0  0  0  0
   -2.9344   -1.3598   -0.4760 C   0  0  0  0  0  0  0  0  0  0  0  0
    2.1048    2.5667   -0.0367 C   0  0  0  0  0  0  0  0  0  0  0  0
   -3.5006    1.3718   -0.5043 C   0  0  0  0  0  0  0  0  0  0  0  0
   -4.0947   -0.8944   -1.0947 C   0  0  0  0  0  0  0  0  0  0  0  0
    0.7752    2.7409    0.7022 C   0  0  0  0  0  0  0  0  0  0  0  0
   -1.4443    1.8729    0.7363 C   0  0  0  0  0  0  0  0  0  0  0  0
   -4.3777    0.4713   -1.1089 C   0  0  0  0  0  0  0  0  0  0  0  0
    3.1727    3.4765    0.5665 C   0  0  0  0  0  0  0  0  0  0  0  0
    1.9515    2.8463   -1.5333 C   0  0  0  0  0  0  0  0  0  0  0  0
  1 19  1  0
  1 20  1  0
  2 20  2  0
  3  6  1  0
  3 12  1  0
  4 18  1  0
  5  6  1  0
  5  7  1  0
  6 10  1  0
  7  8  1  0
  8  9  1  0
  9 11  1  0
 11 14  1  0
 12 13  2  0
 12 15  1  0
 13 17  1  0
 13 20  1  0
 15 18  2  0
 16 19  1  0
 16 22  1  0
 16 23  1  0
 17 21  2  0
 18 21  1  0
M  END
>  <PUBCHEM_COMPOUND_CID>  (1) 
20829

>  <PUBCHEM_CONFORMER_RMSD>  (1) 
1.2

>  <PUBCHEM_CONFORMER_DIVERSEORDER>  (1) 
1
15
63
28
51
45
25
27
23
58
46
30
48
60
54
67
37
61
5
11
24
68
9
59
44
66
19
17
13
8
52
50
4
36
41
34
10
55
43
57
22
6
16
3
38
2
12
49
31
18
47
14
33
64
40
20
39
7
42
35
21
62
29
26
65
32
56

>  <PUBCHEM_MMFF94_PARTIAL_CHARGES>  (1) 
19
1 -0.43
12 0.1
13 0.09
15 -0.15
17 -0.15
18 0.1
19 0.28
2 -0.57
20 0.63
21 -0.15
3 -0.87
33 0.4
4 -0.9
42 0.15
44 0.15
47 0.15
54 0.4
55 0.4
6 0.37

>  <PUBCHEM_EFFECTIVE_ROTOR_COUNT>  (1) 
11

>  <PUBCHEM_PHARMACOPHORE_FEATURES>  (1) 
9
1 14 hydrophobe
1 2 acceptor
1 3 cation
1 3 donor
1 4 cation
1 4 donor
3 16 22 23 hydrophobe
5 5 7 8 9 11 hydrophobe
6 12 13 15 17 18 21 rings

>  <PUBCHEM_HEAVY_ATOM_COUNT>  (1) 
23

>  <PUBCHEM_ATOM_DEF_STEREO_COUNT>  (1) 
0

>  <PUBCHEM_ATOM_UDEF_STEREO_COUNT>  (1) 
1

>  <PUBCHEM_BOND_DEF_STEREO_COUNT>  (1) 
0

>  <PUBCHEM_BOND_UDEF_STEREO_COUNT>  (1) 
0

>  <PUBCHEM_ISOTOPIC_ATOM_COUNT>  (1) 
0

>  <PUBCHEM_COMPONENT_COUNT>  (1) 
1

>  <PUBCHEM_CACTVS_TAUTO_COUNT>  (1) 
9

>  <PUBCHEM_CONFORMER_ID>  (1) 
0000515D00000001

>  <PUBCHEM_MMFF94_ENERGY>  (1) 
62.0134

>  <PUBCHEM_FEATURE_SELFOVERLAP>  (1) 
45.671

>  <PUBCHEM_SHAPE_FINGERPRINT>  (1) 
10290309 65 17401777814056841632
10693767 8 17842536712474183503
10871710 139 18120379748136349424
1100329 8 18340209579371142249
11370993 70 18046333403899512301
13615921 28 18343015588484175820
14790565 3 17189818948309997585
14931854 50 18335420119436653614
17492 54 18187087200656548138
20642791 239 18192136119650135193
20642791 35 18340194194729728953
20771845 165 18114174298194940476
20775438 99 17624384847346993879
21304303 64 17532382975880041205
21344244 246 18053651753277976975
23419403 2 17823159920230862971
23558518 356 18342188768788981329
23559900 14 18341042004025661256
2748010 2 16895944242739335113
3298306 158 18050563250858704500
4280585 95 18335413548716770016
484989 97 18115314517649153099
532947 4 18339353188598748400
9709674 26 18265613362970781496

>  <PUBCHEM_SHAPE_MULTIPOLES>  (1) 
451.63
10.63
4.56
1.47
10.86
2.3
-0.04
-4.32
-6.8
2.37
1.54
-0.56
-0.22
-0.11

>  <PUBCHEM_SHAPE_SELFOVERLAP>  (1) 
894.439

>  <PUBCHEM_SHAPE_VOLUME>  (1) 
270.1

>  <PUBCHEM_COORDINATE_TYPE>  (1) 
2
5
10

$$$$
