20833
     RDKit          3D

 11 11  0  0  0  0  0  0  0  0999 V2000
    2.1919    0.5396    0.0004 C   0  0  0  0  0  0  0  0  0  0  0  0
    0.7271    0.2608   -0.0006 C   0  0  0  0  0  0  0  0  0  0  0  0
   -0.1839    1.3170   -0.0003 C   0  0  0  0  0  0  0  0  0  0  0  0
    0.2678   -1.0562   -0.0004 C   0  0  0  0  0  0  0  0  0  0  0  0
    2.8938   -0.0006    1.2608 C   0  0  0  0  0  0  0  0  0  0  0  0
    2.8950    0.0008   -1.2601 C   0  0  0  0  0  0  0  0  0  0  0  0
   -1.5542    1.0562    0.0000 C   0  0  0  0  0  0  0  0  0  0  0  0
   -1.1025   -1.3171   -0.0002 C   0  0  0  0  0  0  0  0  0  0  0  0
   -2.0135   -0.2608    0.0000 C   0  0  0  0  0  0  0  0  0  0  0  0
   -2.5281    2.1857    0.0005 C   0  0  0  0  0  0  0  0  0  0  0  0
   -1.5932   -2.7254   -0.0001 C   0  0  0  0  0  0  0  0  0  0  0  0
  1  2  1  0
  1  5  1  0
  1  6  1  0
  2  3  2  0
  2  4  1  0
  3  7  1  0
  4  8  2  0
  7  9  2  0
  7 10  1  0
  8  9  1  0
  8 11  1  0
M  END
>  <PUBCHEM_COMPOUND_CID>  (1) 
20833

>  <PUBCHEM_CONFORMER_RMSD>  (1) 
0.4

>  <PUBCHEM_CONFORMER_DIVERSEORDER>  (1) 
1
2

>  <PUBCHEM_MMFF94_PARTIAL_CHARGES>  (1) 
12
1 0.14
10 0.14
11 0.14
13 0.15
14 0.15
2 -0.14
21 0.15
3 -0.15
4 -0.15
7 -0.14
8 -0.14
9 -0.15

>  <PUBCHEM_EFFECTIVE_ROTOR_COUNT>  (1) 
1

>  <PUBCHEM_PHARMACOPHORE_FEATURES>  (1) 
2
3 1 5 6 hydrophobe
6 2 3 4 7 8 9 rings

>  <PUBCHEM_HEAVY_ATOM_COUNT>  (1) 
11

>  <PUBCHEM_ATOM_DEF_STEREO_COUNT>  (1) 
0

>  <PUBCHEM_ATOM_UDEF_STEREO_COUNT>  (1) 
0

>  <PUBCHEM_BOND_DEF_STEREO_COUNT>  (1) 
0

>  <PUBCHEM_BOND_UDEF_STEREO_COUNT>  (1) 
0

>  <PUBCHEM_ISOTOPIC_ATOM_COUNT>  (1) 
0

>  <PUBCHEM_COMPONENT_COUNT>  (1) 
1

>  <PUBCHEM_CACTVS_TAUTO_COUNT>  (1) 
1

>  <PUBCHEM_CONFORMER_ID>  (1) 
0000516100000001

>  <PUBCHEM_MMFF94_ENERGY>  (1) 
25.8838

>  <PUBCHEM_FEATURE_SELFOVERLAP>  (1) 
10.148

>  <PUBCHEM_SHAPE_FINGERPRINT>  (1) 
1 1 17906166253004254911
12138202 97 18340215106577035094
12716758 59 18342461408948644958
12932764 1 17676204671871506340
13380535 76 18268139877625000343
13538477 17 18186799214171838986
161256 15 17837216243672100400
16945 1 18410855490345959143
18380122 1 17772184473522819768
193761 8 18050568748823336965
20645464 45 18060128834817253192
20645476 183 18041857124648314790
20711985 344 18337400455531132190
20715346 28 17775286109957045772
20871998 184 18200876308665810175
20871998 22 17908714173396259846
21040471 1 18338517430501007013
21524375 3 18190175677163494105
21930827 45 18342182150169751784
23402539 116 18270094899641062791
23552423 10 17826796137673795404
23559900 14 18200038335958114462
241688 4 15816500217871618587
2748010 2 18194128421459937759
3071541 236 18335406968225440363
369184 2 18339631321890234840
5084963 1 18130798866386745200
7364860 26 17477759083661397131
8030462 33 17895193376220251138
81228 2 18339641260587021547
88987 49 18410291419749101476

>  <PUBCHEM_SHAPE_MULTIPOLES>  (1) 
226.37
4.14
2.28
0.91
2.36
0.88
0
-0.88
0
-2.46
0
0.84
0
0

>  <PUBCHEM_SHAPE_SELFOVERLAP>  (1) 
458.554

>  <PUBCHEM_SHAPE_VOLUME>  (1) 
130.9

>  <PUBCHEM_COORDINATE_TYPE>  (1) 
2
5
10

$$$$
