20838
     RDKit          3D

 15 16  0  0  1  0  0  0  0  0999 V2000
    0.2322   -2.1019    0.8264 Cl  0  0  0  0  0  0  0  0  0  0  0  0
    0.4351   -0.3644    0.4208 C   0  0  0  0  0  0  0  0  0  0  0  0
   -0.4793    0.0151   -0.7673 C   0  0  0  0  0  0  0  0  0  0  0  0
    1.9029   -0.0773    0.1879 C   0  0  0  0  0  0  0  0  0  0  0  0
   -1.9209    0.1233   -0.3997 C   0  0  0  0  0  0  0  0  0  0  0  0
    2.7099    0.2343    1.2682 C   0  0  0  0  0  0  0  0  0  0  0  0
    2.4058   -0.1323   -1.1004 C   0  0  0  0  0  0  0  0  0  0  0  0
   -2.7481   -0.9967   -0.4841 C   0  0  0  0  0  0  0  0  0  0  0  0
   -2.4418    1.3444    0.0283 C   0  0  0  0  0  0  0  0  0  0  0  0
    4.0625    0.4991    1.0534 C   0  0  0  0  0  0  0  0  0  0  0  0
    3.7583    0.1324   -1.3151 C   0  0  0  0  0  0  0  0  0  0  0  0
   -4.0963   -0.8954   -0.1405 C   0  0  0  0  0  0  0  0  0  0  0  0
   -3.7899    1.4456    0.3722 C   0  0  0  0  0  0  0  0  0  0  0  0
    4.5868    0.4480   -0.2381 C   0  0  0  0  0  0  0  0  0  0  0  0
   -4.6172    0.3257    0.2877 C   0  0  0  0  0  0  0  0  0  0  0  0
  1  2  1  0
  2  3  1  0
  2  4  1  0
  3  5  1  0
  4  6  2  0
  4  7  1  0
  5  8  2  0
  5  9  1  0
  6 10  1  0
  7 11  2  0
  8 12  1  0
  9 13  2  0
 10 14  2  0
 11 14  1  0
 12 15  2  0
 13 15  1  0
M  END
>  <PUBCHEM_COMPOUND_CID>  (1) 
20838

>  <PUBCHEM_CONFORMER_RMSD>  (1) 
0.6

>  <PUBCHEM_CONFORMER_DIVERSEORDER>  (1) 
2
9
6
11
7
15
4
10
3
1
5
12
8
13
14

>  <PUBCHEM_MMFF94_PARTIAL_CHARGES>  (1) 
25
1 -0.29
10 -0.15
11 -0.15
12 -0.15
13 -0.15
14 -0.15
15 -0.15
19 0.15
2 0.43
20 0.15
21 0.15
22 0.15
23 0.15
24 0.15
25 0.15
26 0.15
27 0.15
28 0.15
3 0.14
4 -0.14
5 -0.14
6 -0.15
7 -0.15
8 -0.15
9 -0.15

>  <PUBCHEM_EFFECTIVE_ROTOR_COUNT>  (1) 
3

>  <PUBCHEM_PHARMACOPHORE_FEATURES>  (1) 
2
6 4 6 7 10 11 14 rings
6 5 8 9 12 13 15 rings

>  <PUBCHEM_HEAVY_ATOM_COUNT>  (1) 
15

>  <PUBCHEM_ATOM_DEF_STEREO_COUNT>  (1) 
0

>  <PUBCHEM_ATOM_UDEF_STEREO_COUNT>  (1) 
1

>  <PUBCHEM_BOND_DEF_STEREO_COUNT>  (1) 
0

>  <PUBCHEM_BOND_UDEF_STEREO_COUNT>  (1) 
0

>  <PUBCHEM_ISOTOPIC_ATOM_COUNT>  (1) 
0

>  <PUBCHEM_COMPONENT_COUNT>  (1) 
1

>  <PUBCHEM_CACTVS_TAUTO_COUNT>  (1) 
1

>  <PUBCHEM_CONFORMER_ID>  (1) 
0000516600000002

>  <PUBCHEM_MMFF94_ENERGY>  (1) 
41.0532

>  <PUBCHEM_FEATURE_SELFOVERLAP>  (1) 
10.149

>  <PUBCHEM_SHAPE_FINGERPRINT>  (1) 
10498660 4 18341609266089434857
10680689 15 17989488550017192679
11132069 177 18333448733731875557
11287383 113 17418373631531962926
11471102 20 15913329096087540916
11615757 297 17022904557634036876
12236239 1 17676487258796061292
12251169 10 16443347576434078114
12346645 44 18408602531044266787
12788726 201 17464832546445800610
12916748 109 18411422825366050824
13081056 2 17704070702723227169
14943859 89 18343302565271521098
15309172 13 17603584127421156075
15848700 24 10087641485690094722
18186145 218 17418096515957717698
19026448 4 17561083622135528182
19050596 39 17821728329767858065
200 152 16008743624160958517
20279233 1 17561084713073058734
204376 136 16660368094745000050
20645477 56 17704065226623963976
20645477 70 15985112885854887004
22854114 59 14634869755930658492
23402539 116 18411975875836586332
23402655 69 16056881338452357648
23557571 272 17917998299457467453
23559900 14 18202006512815458342
276578 36 18260545598236141418
2916195 48 18201147845552519216
3268164 11 18341601625563752621
4990 188 18060706074121645478
5104073 3 18342461383448198595
522135 26 15554449587286893676
5281201 14 17418099814688039612
633830 44 18343298180173254676
77779 3 17632578257667029933
9882013 296 17313101938691981577

>  <PUBCHEM_SHAPE_MULTIPOLES>  (1) 
310.56
9.8
1.37
1.14
0.48
0.44
-0.02
-2.34
0.17
1
0.28
-1.08
0.01
-0.28

>  <PUBCHEM_SHAPE_SELFOVERLAP>  (1) 
650.282

>  <PUBCHEM_SHAPE_VOLUME>  (1) 
171.2

>  <PUBCHEM_COORDINATE_TYPE>  (1) 
2
5
10

$$$$
