20832
     RDKit          3D

 11 11  0  0  0  0  0  0  0  0999 V2000
   -2.1323    0.0313    0.0000 C   0  0  0  0  0  0  0  0  0  0  0  0
   -0.6411   -0.0529    0.0004 C   0  0  0  0  0  0  0  0  0  0  0  0
    0.1427    1.1009    0.0001 C   0  0  0  0  0  0  0  0  0  0  0  0
   -2.7556   -0.5965    1.2602 C   0  0  0  0  0  0  0  0  0  0  0  0
   -2.7552   -0.5955   -1.2607 C   0  0  0  0  0  0  0  0  0  0  0  0
   -0.0338   -1.3086    0.0002 C   0  0  0  0  0  0  0  0  0  0  0  0
    1.5338    0.9989    0.0000 C   0  0  0  0  0  0  0  0  0  0  0  0
    2.1411   -0.2568   -0.0001 C   0  0  0  0  0  0  0  0  0  0  0  0
    1.3573   -1.4106   -0.0001 C   0  0  0  0  0  0  0  0  0  0  0  0
   -0.4852    2.4560    0.0003 C   0  0  0  0  0  0  0  0  0  0  0  0
    3.6283   -0.3662   -0.0001 C   0  0  0  0  0  0  0  0  0  0  0  0
  1  2  1  0
  1  4  1  0
  1  5  1  0
  2  3  2  0
  2  6  1  0
  3  7  1  0
  3 10  1  0
  6  9  2  0
  7  8  2  0
  8  9  1  0
  8 11  1  0
M  END
>  <PUBCHEM_COMPOUND_CID>  (1) 
20832

>  <PUBCHEM_CONFORMER_RMSD>  (1) 
0.4

>  <PUBCHEM_CONFORMER_DIVERSEORDER>  (1) 
1
2

>  <PUBCHEM_MMFF94_PARTIAL_CHARGES>  (1) 
12
1 0.14
10 0.14
11 0.14
19 0.15
2 -0.14
20 0.15
21 0.15
3 -0.14
6 -0.15
7 -0.15
8 -0.14
9 -0.15

>  <PUBCHEM_EFFECTIVE_ROTOR_COUNT>  (1) 
1

>  <PUBCHEM_PHARMACOPHORE_FEATURES>  (1) 
2
3 1 4 5 hydrophobe
6 2 3 6 7 8 9 rings

>  <PUBCHEM_HEAVY_ATOM_COUNT>  (1) 
11

>  <PUBCHEM_ATOM_DEF_STEREO_COUNT>  (1) 
0

>  <PUBCHEM_ATOM_UDEF_STEREO_COUNT>  (1) 
0

>  <PUBCHEM_BOND_DEF_STEREO_COUNT>  (1) 
0

>  <PUBCHEM_BOND_UDEF_STEREO_COUNT>  (1) 
0

>  <PUBCHEM_ISOTOPIC_ATOM_COUNT>  (1) 
0

>  <PUBCHEM_COMPONENT_COUNT>  (1) 
1

>  <PUBCHEM_CACTVS_TAUTO_COUNT>  (1) 
1

>  <PUBCHEM_CONFORMER_ID>  (1) 
0000516000000001

>  <PUBCHEM_MMFF94_ENERGY>  (1) 
28.7952

>  <PUBCHEM_FEATURE_SELFOVERLAP>  (1) 
10.148

>  <PUBCHEM_SHAPE_FINGERPRINT>  (1) 
10219947 1 18412548738131466906
10353120 184 18337128786122708710
11206711 2 18336828580962665844
12032990 46 18409176514737159362
12423570 1 9984754556023854170
12897270 3 18410006611529499118
14128692 85 17845358020212751551
14993402 34 18201150039790021615
16945 1 18410856559935338086
17844478 74 17894921745234619433
18534176 82 17167856465853759039
193761 8 17762055441400041542
20201158 50 18259701185916578587
21061003 4 18335713766313484601
21501502 16 18049438145826721226
23402539 116 18341321228660710782
23402655 69 18194663905583194709
23552423 10 18045507408969141078
2748010 2 18122345950147390310
29004967 10 18335145292826353259
5084963 1 18060411439043282394
528886 8 18411696578081318523
63268167 104 18269831085332645413

>  <PUBCHEM_SHAPE_MULTIPOLES>  (1) 
226.37
4.47
1.79
0.91
1.07
1.06
0
-1.33
0
0.01
0
-0.8
-0.17
0

>  <PUBCHEM_SHAPE_SELFOVERLAP>  (1) 
459.806

>  <PUBCHEM_SHAPE_VOLUME>  (1) 
130.6

>  <PUBCHEM_COORDINATE_TYPE>  (1) 
2
5
10

$$$$
