20855
     RDKit          3D

 10  9  0  0  0  0  0  0  0  0999 V2000
   -1.6250   -0.1433    0.8781 S   0  0  0  0  0  0  0  0  0  0  0  0
    0.1019    2.2474    1.1763 S   0  0  0  0  0  0  0  0  0  0  0  0
    0.9750   -0.1300    0.0778 N   0  0  0  0  0  0  0  0  0  0  0  0
    2.3237    0.3942   -0.1508 C   0  0  0  0  0  0  0  0  0  0  0  0
    0.8054   -1.5219   -0.3504 C   0  0  0  0  0  0  0  0  0  0  0  0
   -0.0470    0.6448    0.6611 C   0  0  0  0  0  0  0  0  0  0  0  0
    2.4465    1.0094   -1.5345 C   0  0  0  0  0  0  0  0  0  0  0  0
    1.1721   -2.4876    0.7638 C   0  0  0  0  0  0  0  0  0  0  0  0
   -2.3797    0.2886   -0.7079 C   0  0  0  0  0  0  0  0  0  0  0  0
   -3.7730   -0.3016   -0.8134 C   0  0  0  0  0  0  0  0  0  0  0  0
  1  6  1  0
  1  9  1  0
  2  6  2  0
  3  4  1  0
  3  5  1  0
  3  6  1  0
  4  7  1  0
  5  8  1  0
  9 10  1  0
M  END
>  <PUBCHEM_COMPOUND_CID>  (1) 
20855

>  <PUBCHEM_CONFORMER_RMSD>  (1) 
0.6

>  <PUBCHEM_CONFORMER_DIVERSEORDER>  (1) 
1
67
43
57
54
6
69
25
63
70
28
34
17
64
8
41
68
55
71
20
48
11
47
45
59
13
39
51
53
42
19
61
44
12
22
7
21
60
65
35
37
24
3
49
38
30
10
36
16
46
72
5
26
50
62
31
58
9
29
18
4
23
52
14
66
2
32
56
15
40
27
33

>  <PUBCHEM_MMFF94_PARTIAL_CHARGES>  (1) 
7
1 -0.37
2 -0.38
3 -0.66
4 0.3
5 0.3
6 0.58
9 0.23

>  <PUBCHEM_EFFECTIVE_ROTOR_COUNT>  (1) 
5

>  <PUBCHEM_PHARMACOPHORE_FEATURES>  (1) 
2
1 10 hydrophobe
1 2 acceptor

>  <PUBCHEM_HEAVY_ATOM_COUNT>  (1) 
10

>  <PUBCHEM_ATOM_DEF_STEREO_COUNT>  (1) 
0

>  <PUBCHEM_ATOM_UDEF_STEREO_COUNT>  (1) 
0

>  <PUBCHEM_BOND_DEF_STEREO_COUNT>  (1) 
0

>  <PUBCHEM_BOND_UDEF_STEREO_COUNT>  (1) 
0

>  <PUBCHEM_ISOTOPIC_ATOM_COUNT>  (1) 
0

>  <PUBCHEM_COMPONENT_COUNT>  (1) 
1

>  <PUBCHEM_CACTVS_TAUTO_COUNT>  (1) 
1

>  <PUBCHEM_CONFORMER_ID>  (1) 
0000517700000001

>  <PUBCHEM_MMFF94_ENERGY>  (1) 
16.6148

>  <PUBCHEM_FEATURE_SELFOVERLAP>  (1) 
10.148

>  <PUBCHEM_SHAPE_FINGERPRINT>  (1) 
11031198 65 18334859428783371679
12897270 3 18334298686195396157
12932764 1 18200863050824168101
20711985 344 17273428170659818185
21293036 1 18272093862919313077
228727 97 18200610132399498456
230 275 12757423900449250045
23211744 25 18268153234793838865
23211744 41 16733847400309448216
23382010 3 18122068868642876412
23402539 116 18130245799765352900
23419403 2 17327399885010354408
23532345 88 18188762834691731743
23552423 10 18192721042028183635
2748010 2 17837211845825783321
4369600 1 18202570596102194888
449060 23 16917076572303745629

>  <PUBCHEM_SHAPE_MULTIPOLES>  (1) 
208.51
4.29
2.24
1.34
3.61
0.43
-0.19
0.14
-2.32
-1.18
0.98
-0.2
-0.32
-0.59

>  <PUBCHEM_SHAPE_SELFOVERLAP>  (1) 
353.654

>  <PUBCHEM_SHAPE_VOLUME>  (1) 
142.3

>  <PUBCHEM_COORDINATE_TYPE>  (1) 
2
5
10

$$$$
