20852
     RDKit          3D

 28 31  0  0  1  0  0  0  0  0999 V2000
    1.4603   -0.2862   -1.7979 Cl  0  0  0  0  0  0  0  0  0  0  0  0
    0.8153   -3.1460   -0.3358 Cl  0  0  0  0  0  0  0  0  0  0  0  0
   -3.1358    0.0338   -1.7494 O   0  0  0  0  0  0  0  0  0  0  0  0
   -5.3131    0.1520    0.7030 O   0  0  0  0  0  0  0  0  0  0  0  0
   -5.7007   -2.4069   -0.2471 O   0  0  0  0  0  0  0  0  0  0  0  0
    6.3458   -0.0688   -1.2868 O   0  0  0  0  0  0  0  0  0  0  0  0
   -1.8514   -0.0971    0.3308 C   0  0  0  0  0  0  0  0  0  0  0  0
   -0.9555    1.0744   -0.1254 C   0  0  0  0  0  0  0  0  0  0  0  0
    0.4621    1.0010    0.4628 C   0  0  0  0  0  0  0  0  0  0  0  0
    1.2098   -0.3403    0.0294 C   0  0  0  0  0  0  0  0  0  0  0  0
   -3.1837    0.3201   -0.3556 C   0  0  0  0  0  0  0  0  0  0  0  0
   -1.8084    2.3120    0.1636 C   0  0  0  0  0  0  0  0  0  0  0  0
   -1.2015   -1.3949   -0.1711 C   0  0  0  0  0  0  0  0  0  0  0  0
   -3.2694    1.8503   -0.0808 C   0  0  0  0  0  0  0  0  0  0  0  0
    0.2557   -1.5686    0.3326 C   0  0  0  0  0  0  0  0  0  0  0  0
    2.6641   -0.3726    0.7202 C   0  0  0  0  0  0  0  0  0  0  0  0
    1.2720    2.2713    0.1495 C   0  0  0  0  0  0  0  0  0  0  0  0
   -2.0392   -0.1777    1.8727 C   0  0  0  0  0  0  0  0  0  0  0  0
    2.6540    2.2237    0.7883 C   0  0  0  0  0  0  0  0  0  0  0  0
    3.3780    0.9588    0.4070 C   0  0  0  0  0  0  0  0  0  0  0  0
   -4.3850   -0.4290    0.1425 C   0  0  0  0  0  0  0  0  0  0  0  0
   -3.9422    2.6719   -1.1762 C   0  0  0  0  0  0  0  0  0  0  0  0
    2.5660   -0.5219    2.2609 C   0  0  0  0  0  0  0  0  0  0  0  0
    3.5322   -1.5508    0.2901 C   0  0  0  0  0  0  0  0  0  0  0  0
    4.5585    1.0446   -0.2279 C   0  0  0  0  0  0  0  0  0  0  0  0
   -4.3833   -1.9258   -0.0844 C   0  0  0  0  0  0  0  0  0  0  0  0
    4.7076   -1.4691   -0.3411 C   0  0  0  0  0  0  0  0  0  0  0  0
    5.2878   -0.1580   -0.6738 C   0  0  0  0  0  0  0  0  0  0  0  0
  1 10  1  0
  2 15  1  0
  3 11  1  0
  4 21  2  0
  5 26  1  0
  6 28  2  0
  7  8  1  0
  7 11  1  0
  7 13  1  0
  7 18  1  0
  8  9  1  0
  8 12  1  0
  9 10  1  0
  9 17  1  0
 10 15  1  0
 10 16  1  0
 11 14  1  0
 11 21  1  0
 12 14  1  0
 13 15  1  0
 14 22  1  0
 16 20  1  0
 16 23  1  0
 16 24  1  0
 17 19  1  0
 19 20  1  0
 20 25  2  0
 21 26  1  0
 24 27  2  0
 25 28  1  0
 27 28  1  0
M  END
>  <PUBCHEM_COMPOUND_CID>  (1) 
20852

>  <PUBCHEM_CONFORMER_RMSD>  (1) 
0.8

>  <PUBCHEM_CONFORMER_DIVERSEORDER>  (1) 
1
35
21
34
48
37
38
33
50
11
53
41
27
18
44
16
56
58
25
23
49
7
29
46
17
14
2
28
8
47
15
9
36
43
42
5
30
6
39
12
4
32
55
10
13
45
52
40
22
26
20
3
54
57
19
31
24
51

>  <PUBCHEM_MMFF94_PARTIAL_CHARGES>  (1) 
23
1 -0.29
10 0.29
11 0.34
15 0.29
16 0.28
19 0.14
2 -0.29
20 -0.28
21 0.45
24 -0.29
25 -0.14
26 0.34
27 -0.14
28 0.54
3 -0.68
4 -0.57
5 -0.68
50 0.4
51 0.15
52 0.15
55 0.15
56 0.4
6 -0.57

>  <PUBCHEM_EFFECTIVE_ROTOR_COUNT>  (1) 
3.4

>  <PUBCHEM_PHARMACOPHORE_FEATURES>  (1) 
10
1 3 acceptor
1 3 donor
1 4 acceptor
1 5 acceptor
1 5 donor
1 6 acceptor
5 7 8 11 12 14 rings
6 16 20 24 25 27 28 rings
6 7 8 9 10 13 15 rings
6 9 10 16 17 19 20 rings

>  <PUBCHEM_HEAVY_ATOM_COUNT>  (1) 
28

>  <PUBCHEM_ATOM_DEF_STEREO_COUNT>  (1) 
3

>  <PUBCHEM_ATOM_UDEF_STEREO_COUNT>  (1) 
5

>  <PUBCHEM_BOND_DEF_STEREO_COUNT>  (1) 
0

>  <PUBCHEM_BOND_UDEF_STEREO_COUNT>  (1) 
0

>  <PUBCHEM_ISOTOPIC_ATOM_COUNT>  (1) 
0

>  <PUBCHEM_COMPONENT_COUNT>  (1) 
1

>  <PUBCHEM_CACTVS_TAUTO_COUNT>  (1) 
9

>  <PUBCHEM_CONFORMER_ID>  (1) 
0000517400000001

>  <PUBCHEM_MMFF94_ENERGY>  (1) 
105.3716

>  <PUBCHEM_FEATURE_SELFOVERLAP>  (1) 
50.844

>  <PUBCHEM_SHAPE_FINGERPRINT>  (1) 
10366900 7 17822291322491565777
10498660 4 18337388245266189728
11578080 2 17170101548423016039
11963148 33 18336822095790025707
12011746 2 18409733962979542068
12166972 35 18113905978633718868
12236239 1 17894633622065324438
12403259 226 18411694396217268305
12403259 415 18342451539013961992
12616971 3 14261349175927122042
12788726 201 18187639232882556171
13140716 1 18267295607250556819
13224815 77 18259983760325633345
13583140 156 18341603772947030869
13944108 23 16314970471492912861
14341114 176 18412268337091934553
14787075 74 18261114088275335962
14790565 3 18339651057344717744
15131766 46 15121228945327451025
15196674 1 18410291385104558928
15788980 27 14045736015214571192
1601671 61 18335419015898966252
16945 1 18341315734864594187
17349148 13 17894912923298076867
17492 89 18410004421239259091
17980427 23 17531259339409959405
18608769 82 18264492956417008826
18681886 176 18410009974942851808
19591789 44 18412260653178949715
20028762 73 18059571446604738559
21033648 144 18059285582529627132
21033648 29 18408594868759671168
21267235 1 18340777021443421995
21279426 13 18266742385772373414
21857420 4 15473889684332183974
221357 26 18412261756985564241
22393880 68 18409161095672555012
23522609 53 18124912089669774809
23557571 272 18343023264033533045
23559900 14 18412256216504561505
296302 2 15574716872279056208
350125 39 18410859867118093865
46194498 28 18130233748086782660
465052 167 17988931080632010326
5104073 3 18342450422269516792
59755656 215 18409448060039365879
7495541 125 17988924496214984882
9709674 26 18334575793169248425

>  <PUBCHEM_SHAPE_MULTIPOLES>  (1) 
556.49
11.29
2.78
1.35
0.68
0.15
-0.18
1.65
2.26
-1.54
0.26
0.38
0
0.53

>  <PUBCHEM_SHAPE_SELFOVERLAP>  (1) 
1178.951

>  <PUBCHEM_SHAPE_VOLUME>  (1) 
311

>  <PUBCHEM_COORDINATE_TYPE>  (1) 
2
5
10

$$$$
