20861
     RDKit          3D

 10 10  0  0  0  0  0  0  0  0999 V2000
   -3.5847   -0.6248   -0.2067 O   0  0  0  0  0  0  0  0  0  0  0  0
    1.3775   -0.0057    0.2903 C   0  0  0  0  0  0  0  0  0  0  0  0
    2.8548   -0.1298    0.4547 C   0  0  0  0  0  0  0  0  0  0  0  0
    0.7941    1.2543    0.1568 C   0  0  0  0  0  0  0  0  0  0  0  0
    0.5794   -1.1496    0.2692 C   0  0  0  0  0  0  0  0  0  0  0  0
    3.5792   -0.2565   -0.8829 C   0  0  0  0  0  0  0  0  0  0  0  0
   -1.3853    0.2268   -0.0188 C   0  0  0  0  0  0  0  0  0  0  0  0
   -0.5873    1.3706    0.0023 C   0  0  0  0  0  0  0  0  0  0  0  0
   -0.8020   -1.0332    0.1146 C   0  0  0  0  0  0  0  0  0  0  0  0
   -2.8257    0.3479   -0.1797 C   0  0  0  0  0  0  0  0  0  0  0  0
  1 10  2  0
  2  3  1  0
  2  4  2  0
  2  5  1  0
  3  6  1  0
  4  8  1  0
  5  9  2  0
  7  8  2  0
  7  9  1  0
  7 10  1  0
M  END
>  <PUBCHEM_COMPOUND_CID>  (1) 
20861

>  <PUBCHEM_CONFORMER_RMSD>  (1) 
0.4

>  <PUBCHEM_CONFORMER_DIVERSEORDER>  (1) 
1
6
4
5
2
3

>  <PUBCHEM_MMFF94_PARTIAL_CHARGES>  (1) 
14
1 -0.57
10 0.42
13 0.15
14 0.15
18 0.15
19 0.15
2 -0.14
20 0.06
3 0.14
4 -0.15
5 -0.15
7 0.09
8 -0.15
9 -0.15

>  <PUBCHEM_EFFECTIVE_ROTOR_COUNT>  (1) 
2

>  <PUBCHEM_PHARMACOPHORE_FEATURES>  (1) 
3
1 1 acceptor
1 6 hydrophobe
6 2 4 5 7 8 9 rings

>  <PUBCHEM_HEAVY_ATOM_COUNT>  (1) 
10

>  <PUBCHEM_ATOM_DEF_STEREO_COUNT>  (1) 
0

>  <PUBCHEM_ATOM_UDEF_STEREO_COUNT>  (1) 
0

>  <PUBCHEM_BOND_DEF_STEREO_COUNT>  (1) 
0

>  <PUBCHEM_BOND_UDEF_STEREO_COUNT>  (1) 
0

>  <PUBCHEM_ISOTOPIC_ATOM_COUNT>  (1) 
0

>  <PUBCHEM_COMPONENT_COUNT>  (1) 
1

>  <PUBCHEM_CACTVS_TAUTO_COUNT>  (1) 
1

>  <PUBCHEM_CONFORMER_ID>  (1) 
0000517D00000001

>  <PUBCHEM_MMFF94_ENERGY>  (1) 
20.3489

>  <PUBCHEM_FEATURE_SELFOVERLAP>  (1) 
15.223

>  <PUBCHEM_SHAPE_FINGERPRINT>  (1) 
10219947 1 17775284979979765871
11062470 55 13695869220622970175
11206711 2 18335414621704473589
12032990 46 18412268349871295819
12897270 3 18410007706619519956
14128692 85 18341891943614225213
14325111 11 18410008823316376136
14911166 2 18408885143886448775
14993402 34 17967256403196552094
15310529 11 16515675624462427840
16945 1 18408880732949741433
193761 8 17688872359624256554
20645476 183 17604160310638594014
21040471 1 18408878568302016041
21293036 1 18334861631906441716
23235685 24 18408036303740440320
23402539 116 18341322319513663302
23402655 69 18122321525312431149
23552423 10 18043811102881848116
2748010 2 18120651598091037955
5084963 1 18272368672111970657

>  <PUBCHEM_SHAPE_MULTIPOLES>  (1) 
199.93
5.12
1.26
0.74
0.13
0.16
-0.05
-0.73
-1.08
-0.17
0.06
0.36
-0.02
0.03

>  <PUBCHEM_SHAPE_SELFOVERLAP>  (1) 
410.382

>  <PUBCHEM_SHAPE_VOLUME>  (1) 
116.1

>  <PUBCHEM_COORDINATE_TYPE>  (1) 
2
5
10

$$$$
