20876
     RDKit          3D

 20 20  0  0  0  0  0  0  0  0999 V2000
   -3.6666    1.6595   -0.9573 O   0  0  0  0  0  0  0  0  0  0  0  0
   -3.7915   -0.4798   -0.0233 N   0  0  0  0  0  0  0  0  0  0  0  0
    2.4903    0.9334    0.1729 N   0  0  0  0  0  0  0  0  0  0  0  0
    4.4785    0.0784    0.8223 N   0  0  0  0  0  0  0  0  0  0  0  0
    2.5471   -1.2455    1.1843 N   0  0  0  0  0  0  0  0  0  0  0  0
    6.5863   -0.2023   -0.1360 N   0  0  0  0  0  0  0  0  0  0  0  0
    4.7837   -0.8946   -1.3556 N   0  0  0  0  0  0  0  0  0  0  0  0
   -5.2370   -0.6149   -0.1363 C   0  0  0  0  0  0  0  0  0  0  0  0
   -3.0934   -1.6201    0.5662 C   0  0  0  0  0  0  0  0  0  0  0  0
   -3.1112    0.6741   -0.4537 C   0  0  0  0  0  0  0  0  0  0  0  0
   -1.6675    0.7414   -0.2925 C   0  0  0  0  0  0  0  0  0  0  0  0
   -5.9360   -0.0948    1.1084 C   0  0  0  0  0  0  0  0  0  0  0  0
   -2.6770   -2.6196   -0.4996 C   0  0  0  0  0  0  0  0  0  0  0  0
   -0.8299    0.2804   -1.3081 C   0  0  0  0  0  0  0  0  0  0  0  0
   -1.1201    1.2661    0.8783 C   0  0  0  0  0  0  0  0  0  0  0  0
    0.5549    0.3442   -1.1531 C   0  0  0  0  0  0  0  0  0  0  0  0
    0.2645    1.3299    1.0335 C   0  0  0  0  0  0  0  0  0  0  0  0
    1.0956    0.8685    0.0171 C   0  0  0  0  0  0  0  0  0  0  0  0
    3.1114   -0.0793    0.7113 C   0  0  0  0  0  0  0  0  0  0  0  0
    5.2180   -0.3251   -0.1790 C   0  0  0  0  0  0  0  0  0  0  0  0
  1 10  2  0
  2  8  1  0
  2  9  1  0
  2 10  1  0
  3 18  1  0
  3 19  2  0
  4 19  1  0
  4 20  2  0
  5 19  1  0
  6 20  1  0
  7 20  1  0
  8 12  1  0
  9 13  1  0
 10 11  1  0
 11 14  2  0
 11 15  1  0
 14 16  1  0
 15 17  2  0
 16 18  2  0
 17 18  1  0
M  END
>  <PUBCHEM_COMPOUND_CID>  (1) 
20876

>  <PUBCHEM_CONFORMER_RMSD>  (1) 
0.8

>  <PUBCHEM_CONFORMER_DIVERSEORDER>  (1) 
1
12
10
5
11
4
8
9
6
7
2
3

>  <PUBCHEM_MMFF94_PARTIAL_CHARGES>  (1) 
28
1 -0.57
10 0.54
11 0.09
14 -0.15
15 -0.15
16 -0.15
17 -0.15
18 0.18
19 0.71
2 -0.66
20 0.55
3 -0.63
31 0.15
32 0.15
33 0.15
34 0.15
35 0.4
36 0.4
37 0.4
38 0.4
39 0.4
4 -0.66
40 0.4
5 -0.85
6 -0.85
7 -0.85
8 0.3
9 0.3

>  <PUBCHEM_EFFECTIVE_ROTOR_COUNT>  (1) 
6

>  <PUBCHEM_PHARMACOPHORE_FEATURES>  (1) 
7
1 1 acceptor
1 5 donor
1 6 donor
1 7 donor
4 3 4 5 19 cation
4 4 6 7 20 cation
6 11 14 15 16 17 18 rings

>  <PUBCHEM_HEAVY_ATOM_COUNT>  (1) 
20

>  <PUBCHEM_ATOM_DEF_STEREO_COUNT>  (1) 
0

>  <PUBCHEM_ATOM_UDEF_STEREO_COUNT>  (1) 
0

>  <PUBCHEM_BOND_DEF_STEREO_COUNT>  (1) 
0

>  <PUBCHEM_BOND_UDEF_STEREO_COUNT>  (1) 
0

>  <PUBCHEM_ISOTOPIC_ATOM_COUNT>  (1) 
0

>  <PUBCHEM_COMPONENT_COUNT>  (1) 
1

>  <PUBCHEM_CACTVS_TAUTO_COUNT>  (1) 
8

>  <PUBCHEM_CONFORMER_ID>  (1) 
0000518C00000001

>  <PUBCHEM_MMFF94_ENERGY>  (1) 
62.5386

>  <PUBCHEM_FEATURE_SELFOVERLAP>  (1) 
35.621

>  <PUBCHEM_SHAPE_FINGERPRINT>  (1) 
106641 1 16701730670099555163
11089746 13 13326851106992746529
11128504 68 16008751324937048118
12236239 1 16732701640642627389
12507557 5 11743834781067313691
12596602 18 13182726057724966878
12633257 1 18131078185970323219
12670546 177 14345800478008082595
13288520 33 18187082858370869213
13533116 47 12396565331344637616
13675066 3 17988914592041713360
13760787 19 18187357692979954608
13760787 5 17418084447005125044
14123256 10 16805325500738924130
14251718 22 18113338604964066100
14341114 176 18341614845093521520
14350574 20 15430042084519500745
14386348 63 18131635586298678630
14617045 38 18334297561030399067
15238133 3 17703244970139854705
15537594 2 18186517713404784707
17804303 29 18410009979126665991
17834072 33 18113621205290884204
17844677 252 18408325484263747524
200 152 17531245050270256944
21267235 1 18187369843711376019
2297311 6 18410579465551203396
23035841 295 18411138026533201890
23175994 123 17988923388050437305
23402539 116 11095874965295250945
23559900 14 18264200473286287049
26918003 58 18060701705844376353
2838139 119 10375872957106232355
34797466 226 18335712658591938508
351380 180 10735876179295228819
351380 3 18040994059470596875
4325135 7 15719393932224114774
465052 167 18130792299334212119
474 4 13182737091047251947
9981440 41 10663831792914908237

>  <PUBCHEM_SHAPE_MULTIPOLES>  (1) 
375.84
13.03
1.68
1.2
8.77
0.75
0.08
3.57
-1
-1.44
0.01
0.01
-0.04
0.41

>  <PUBCHEM_SHAPE_SELFOVERLAP>  (1) 
769.4

>  <PUBCHEM_SHAPE_VOLUME>  (1) 
215

>  <PUBCHEM_COORDINATE_TYPE>  (1) 
2
5
10

$$$$
