20899
     RDKit          3D

 19 19  0  0  0  0  0  0  0  0999 V2000
   -3.9837    0.4635   -0.1747 O   0  0  0  0  0  0  0  0  0  0  0  0
   -3.2018   -2.1787   -0.4549 O   0  0  0  0  0  0  0  0  0  0  0  0
   -2.0673    2.4283    0.1985 O   0  0  0  0  0  0  0  0  0  0  0  0
    4.1170   -1.7042   -0.4479 O   0  0  0  0  0  0  0  0  0  0  0  0
    4.8383    0.4036    0.2140 N   0  0  0  0  0  0  0  0  0  0  0  0
    0.0237   -0.5430   -0.0369 C   0  0  0  0  0  0  0  0  0  0  0  0
   -2.6621    0.1316   -0.1294 C   0  0  0  0  0  0  0  0  0  0  0  0
   -2.2720   -1.2001   -0.2714 C   0  0  0  0  0  0  0  0  0  0  0  0
   -1.6998    1.1239    0.0590 C   0  0  0  0  0  0  0  0  0  0  0  0
   -0.9199   -1.5397   -0.2247 C   0  0  0  0  0  0  0  0  0  0  0  0
   -0.3478    0.7842    0.1055 C   0  0  0  0  0  0  0  0  0  0  0  0
    1.4521   -0.9017    0.0125 C   0  0  0  0  0  0  0  0  0  0  0  0
    2.4605   -0.0417   -0.1942 C   0  0  0  0  0  0  0  0  0  0  0  0
    3.8686   -0.5351   -0.1494 C   0  0  0  0  0  0  0  0  0  0  0  0
    6.2397    0.0062    0.2520 C   0  0  0  0  0  0  0  0  0  0  0  0
    4.5716    1.8035    0.5394 C   0  0  0  0  0  0  0  0  0  0  0  0
   -4.5322    1.0949    0.9799 C   0  0  0  0  0  0  0  0  0  0  0  0
   -3.7261   -2.8023    0.7157 C   0  0  0  0  0  0  0  0  0  0  0  0
   -2.1589    3.2067   -0.9930 C   0  0  0  0  0  0  0  0  0  0  0  0
  1  7  1  0
  1 17  1  0
  2  8  1  0
  2 18  1  0
  3  9  1  0
  3 19  1  0
  4 14  2  0
  5 14  1  0
  5 15  1  0
  5 16  1  0
  6 10  2  0
  6 11  1  0
  6 12  1  0
  7  8  2  0
  7  9  1  0
  8 10  1  0
  9 11  2  0
 12 13  2  0
 13 14  1  0
M  END
>  <PUBCHEM_COMPOUND_CID>  (1) 
20899

>  <PUBCHEM_CONFORMER_RMSD>  (1) 
0.8

>  <PUBCHEM_CONFORMER_DIVERSEORDER>  (1) 
8
14
24
16
17
9
11
18
12
19
21
22
15
1
20
23
13
7
2
6
10
25
4
26
3
5

>  <PUBCHEM_MMFF94_PARTIAL_CHARGES>  (1) 
23
1 -0.36
10 -0.15
11 -0.15
12 -0.18
13 -0.14
14 0.62
15 0.3
16 0.3
17 0.28
18 0.28
19 0.28
2 -0.36
20 0.15
21 0.15
22 0.15
23 0.15
3 -0.36
4 -0.57
5 -0.66
6 0.03
7 0.08
8 0.08
9 0.08

>  <PUBCHEM_EFFECTIVE_ROTOR_COUNT>  (1) 
6

>  <PUBCHEM_PHARMACOPHORE_FEATURES>  (1) 
5
1 1 acceptor
1 2 acceptor
1 3 acceptor
1 4 acceptor
6 6 7 8 9 10 11 rings

>  <PUBCHEM_HEAVY_ATOM_COUNT>  (1) 
19

>  <PUBCHEM_ATOM_DEF_STEREO_COUNT>  (1) 
0

>  <PUBCHEM_ATOM_UDEF_STEREO_COUNT>  (1) 
0

>  <PUBCHEM_BOND_DEF_STEREO_COUNT>  (1) 
0

>  <PUBCHEM_BOND_UDEF_STEREO_COUNT>  (1) 
1

>  <PUBCHEM_ISOTOPIC_ATOM_COUNT>  (1) 
0

>  <PUBCHEM_COMPONENT_COUNT>  (1) 
1

>  <PUBCHEM_CACTVS_TAUTO_COUNT>  (1) 
1

>  <PUBCHEM_CONFORMER_ID>  (1) 
000051A300000008

>  <PUBCHEM_MMFF94_ENERGY>  (1) 
86.3257

>  <PUBCHEM_FEATURE_SELFOVERLAP>  (1) 
25.383

>  <PUBCHEM_SHAPE_FINGERPRINT>  (1) 
10319926 262 18340189840234161194
10411042 1 18193558007228512835
10608611 8 18341328908072707340
10670039 82 18262248836875592772
11405975 8 18341613668715542242
11595378 159 17749377136361600216
12107183 9 17685764732502015290
12173636 292 18410007702430210606
12403814 3 18334298630672317313
12596602 18 16588031229608123512
12616971 3 17385730213867135022
13140716 1 18339088197927974977
13167823 11 18408599250190724426
13214271 11 18343864437494314407
14508225 48 18267288997791617741
14790565 3 18197787600653422393
15042514 8 18336555975468116851
15196674 1 18340768247352828456
16945 1 18336821988572695575
17349148 13 17022903471455586882
17492 89 18410575076686009462
19433438 28 18342172311032666706
20510252 161 18341895207652428242
20645477 56 18411702045611641932
20645477 70 17059780992978475494
21065201 7 18410291377079133218
21236236 1 18343864433521158647
21426921 1 18408884027268876180
21637258 2 15647632171823910417
21652331 79 18409729547637519896
22224240 67 18270131102706787417
23227448 37 18411416202479423596
23402539 116 18335978748505236126
23557571 272 18272099343561339910
23559900 14 18272651200126081310
245318 6 17027420428901715348
2748010 2 18196359528474514781
3545911 37 18343303639767634632
4214541 1 18412825759801974564
5104073 3 18412261748923411042
573450 72 18188478100209227490
58051976 100 18341336604448711486
77779 3 18413671314335074046
9709674 26 18199753557281504910

>  <PUBCHEM_SHAPE_MULTIPOLES>  (1) 
362.55
11.36
2.84
0.78
15.59
0.79
0.03
-0.01
1.87
-3.38
-0.27
-0.34
0.15
0.66

>  <PUBCHEM_SHAPE_SELFOVERLAP>  (1) 
740.485

>  <PUBCHEM_SHAPE_VOLUME>  (1) 
212.4

>  <PUBCHEM_COORDINATE_TYPE>  (1) 
2
5
10

$$$$
