20903
     RDKit          3D

  9  9  0  0  1  0  0  0  0  0999 V2000
    2.3849    0.7857   -0.1442 O   0  0  0  0  0  0  0  0  0  0  0  0
    1.5221   -1.1981   -0.8628 O   0  0  0  0  0  0  0  0  0  0  0  0
    0.4121    0.0394    0.8961 C   0  0  0  0  0  0  0  0  0  0  0  0
   -0.3190    1.3684    0.6538 C   0  0  0  0  0  0  0  0  0  0  0  0
   -0.5893   -1.1282    0.9690 C   0  0  0  0  0  0  0  0  0  0  0  0
   -1.2198    1.3435   -0.5869 C   0  0  0  0  0  0  0  0  0  0  0  0
   -1.6961   -1.0483   -0.0424 C   0  0  0  0  0  0  0  0  0  0  0  0
   -1.9698    0.0563   -0.7495 C   0  0  0  0  0  0  0  0  0  0  0  0
    1.4750   -0.2189   -0.1332 C   0  0  0  0  0  0  0  0  0  0  0  0
  1  9  1  0
  2  9  2  0
  3  4  1  0
  3  5  1  0
  3  9  1  0
  4  6  1  0
  5  7  1  0
  6  8  1  0
  7  8  2  0
M  END
>  <PUBCHEM_COMPOUND_CID>  (1) 
20903

>  <PUBCHEM_CONFORMER_RMSD>  (1) 
0.4

>  <PUBCHEM_CONFORMER_DIVERSEORDER>  (1) 
1
2
4
3

>  <PUBCHEM_MMFF94_PARTIAL_CHARGES>  (1) 
11
1 -0.65
17 0.15
18 0.15
19 0.5
2 -0.57
3 0.06
5 0.14
6 0.14
7 -0.29
8 -0.29
9 0.66

>  <PUBCHEM_EFFECTIVE_ROTOR_COUNT>  (1) 
1.8

>  <PUBCHEM_PHARMACOPHORE_FEATURES>  (1) 
4
1 1 acceptor
1 2 acceptor
3 1 2 9 anion
6 3 4 5 6 7 8 rings

>  <PUBCHEM_HEAVY_ATOM_COUNT>  (1) 
9

>  <PUBCHEM_ATOM_DEF_STEREO_COUNT>  (1) 
0

>  <PUBCHEM_ATOM_UDEF_STEREO_COUNT>  (1) 
1

>  <PUBCHEM_BOND_DEF_STEREO_COUNT>  (1) 
0

>  <PUBCHEM_BOND_UDEF_STEREO_COUNT>  (1) 
0

>  <PUBCHEM_ISOTOPIC_ATOM_COUNT>  (1) 
0

>  <PUBCHEM_COMPONENT_COUNT>  (1) 
1

>  <PUBCHEM_CACTVS_TAUTO_COUNT>  (1) 
1

>  <PUBCHEM_CONFORMER_ID>  (1) 
000051A700000001

>  <PUBCHEM_MMFF94_ENERGY>  (1) 
4.5958

>  <PUBCHEM_FEATURE_SELFOVERLAP>  (1) 
20.353

>  <PUBCHEM_SHAPE_FINGERPRINT>  (1) 
12423570 1 13882598232448941385
12897270 3 18341894121109942428
137420 1 16676364030392249402
16945 1 18337103574564512625
18185500 45 17182480816390100075
20653085 51 16660369155765289942
21040471 1 18046324363235576929
23552423 10 18336544893777188374
24536 1 18200308810463081664
29004967 10 17917709144873412275
369184 2 17240201070817452488
5084963 1 15430317988348479075

>  <PUBCHEM_SHAPE_MULTIPOLES>  (1) 
173.48
2.57
1.5
1.02
0.68
0.14
0.08
0.01
-0.75
-0.28
0.06
-0.02
-0.09
0.25

>  <PUBCHEM_SHAPE_SELFOVERLAP>  (1) 
346.634

>  <PUBCHEM_SHAPE_VOLUME>  (1) 
100.3

>  <PUBCHEM_COORDINATE_TYPE>  (1) 
2
5
10

$$$$
