20904
     RDKit          3D

  9  8  0  0  0  0  0  0  0  0999 V2000
   -0.7244   -0.1126    0.1710 P   0  0  0  0  0  0  0  0  0  0  0  0
    0.8212    0.1600    0.5601 O   0  0  0  0  0  0  0  0  0  0  0  0
   -1.6118   -0.2678    1.3733 O   0  0  0  0  0  0  0  0  0  0  0  0
   -1.2026    1.2529   -0.8675 C   0  0  0  0  0  0  0  0  0  0  0  0
   -0.7063   -1.5617   -0.8641 C   0  0  0  0  0  0  0  0  0  0  0  0
   -1.2598    2.5624   -0.1095 C   0  0  0  0  0  0  0  0  0  0  0  0
   -0.3123   -2.8100   -0.1032 C   0  0  0  0  0  0  0  0  0  0  0  0
    1.8350    0.2604   -0.4222 C   0  0  0  0  0  0  0  0  0  0  0  0
    3.1609    0.5164    0.2621 C   0  0  0  0  0  0  0  0  0  0  0  0
  1  2  1  0
  1  3  2  0
  1  4  1  0
  1  5  1  0
  2  8  1  0
  4  6  1  0
  5  7  1  0
  8  9  1  0
M  END
>  <PUBCHEM_COMPOUND_CID>  (1) 
20904

>  <PUBCHEM_CONFORMER_RMSD>  (1) 
0.6

>  <PUBCHEM_CONFORMER_DIVERSEORDER>  (1) 
1
14
10
5
8
6
18
7
13
2
11
3
15
4
16
17
9
12

>  <PUBCHEM_MMFF94_PARTIAL_CHARGES>  (1) 
4
1 0.97
2 -0.55
3 -0.7
8 0.28

>  <PUBCHEM_EFFECTIVE_ROTOR_COUNT>  (1) 
4

>  <PUBCHEM_PHARMACOPHORE_FEATURES>  (1) 
0

>  <PUBCHEM_HEAVY_ATOM_COUNT>  (1) 
9

>  <PUBCHEM_ATOM_DEF_STEREO_COUNT>  (1) 
0

>  <PUBCHEM_ATOM_UDEF_STEREO_COUNT>  (1) 
0

>  <PUBCHEM_BOND_DEF_STEREO_COUNT>  (1) 
0

>  <PUBCHEM_BOND_UDEF_STEREO_COUNT>  (1) 
0

>  <PUBCHEM_ISOTOPIC_ATOM_COUNT>  (1) 
0

>  <PUBCHEM_COMPONENT_COUNT>  (1) 
1

>  <PUBCHEM_CACTVS_TAUTO_COUNT>  (1) 
1

>  <PUBCHEM_CONFORMER_ID>  (1) 
000051A800000001

>  <PUBCHEM_MMFF94_ENERGY>  (1) 
-2.773

>  <PUBCHEM_FEATURE_SELFOVERLAP>  (1) 
0

>  <PUBCHEM_SHAPE_FINGERPRINT>  (1) 
1 1 17979349764070878932
100427 49 17689154938544978740
12423570 1 13610049928572078717
12716758 59 18342444933833840832
12932764 1 18410857707219152992
137420 1 11971528550875203231
20711985 344 18197476623070964914
23552449 1 18194954360819367596
241688 4 15818185773307298104
3250762 1 17904216827694524435
54338 74 18122336041278082342
68250623 7 17836076780775339533

>  <PUBCHEM_SHAPE_MULTIPOLES>  (1) 
177.33
2.93
2.8
0.99
2.88
1.35
-0.12
-1.98
-0.21
-1.03
0.36
-0.34
0.1
0.2

>  <PUBCHEM_SHAPE_SELFOVERLAP>  (1) 
300.055

>  <PUBCHEM_SHAPE_VOLUME>  (1) 
120.2

>  <PUBCHEM_COORDINATE_TYPE>  (1) 
2
5
10

$$$$
