20919
     RDKit          3D

 17 19  0  0  0  0  0  0  0  0999 V2000
    0.1631   -0.9157    0.0004 N   0  0  0  0  0  0  0  0  0  0  0  0
    2.1438    0.4569    0.0000 C   0  0  0  0  0  0  0  0  0  0  0  0
    1.3407    1.6052    0.0004 C   0  0  0  0  0  0  0  0  0  0  0  0
    1.5046   -0.8006    0.0000 C   0  0  0  0  0  0  0  0  0  0  0  0
   -0.5760    0.2173    0.0006 C   0  0  0  0  0  0  0  0  0  0  0  0
   -0.0419    1.4899    0.0006 C   0  0  0  0  0  0  0  0  0  0  0  0
   -2.0046    0.0096    0.0000 C   0  0  0  0  0  0  0  0  0  0  0  0
    3.5466    0.5398   -0.0001 C   0  0  0  0  0  0  0  0  0  0  0  0
    1.9218    2.9844    0.0001 C   0  0  0  0  0  0  0  0  0  0  0  0
    2.3030   -1.9411   -0.0003 C   0  0  0  0  0  0  0  0  0  0  0  0
    4.3206   -0.6171   -0.0003 C   0  0  0  0  0  0  0  0  0  0  0  0
    3.6977   -1.8589   -0.0005 C   0  0  0  0  0  0  0  0  0  0  0  0
   -2.6978   -0.0913   -1.2080 C   0  0  0  0  0  0  0  0  0  0  0  0
   -2.6979   -0.0928    1.2078 C   0  0  0  0  0  0  0  0  0  0  0  0
   -4.0779   -0.2940   -1.2082 C   0  0  0  0  0  0  0  0  0  0  0  0
   -4.0778   -0.2955    1.2077 C   0  0  0  0  0  0  0  0  0  0  0  0
   -4.7680   -0.3961   -0.0003 C   0  0  0  0  0  0  0  0  0  0  0  0
  1  4  2  0
  1  5  1  0
  2  3  2  0
  2  4  1  0
  2  8  1  0
  3  6  1  0
  3  9  1  0
  4 10  1  0
  5  6  2  0
  5  7  1  0
  7 13  2  0
  7 14  1  0
  8 11  2  0
 10 12  2  0
 11 12  1  0
 13 15  1  0
 14 16  2  0
 15 17  2  0
 16 17  1  0
M  END
>  <PUBCHEM_COMPOUND_CID>  (1) 
20919

>  <PUBCHEM_CONFORMER_RMSD>  (1) 
0.6

>  <PUBCHEM_CONFORMER_DIVERSEORDER>  (1) 
1
2

>  <PUBCHEM_MMFF94_PARTIAL_CHARGES>  (1) 
25
1 -0.62
10 -0.15
11 -0.15
12 -0.15
13 -0.15
14 -0.15
15 -0.15
16 -0.15
17 -0.15
18 0.15
19 0.15
23 0.15
24 0.15
25 0.15
26 0.15
27 0.15
28 0.15
29 0.15
3 -0.14
30 0.15
4 0.31
5 0.31
6 -0.15
8 -0.15
9 0.14

>  <PUBCHEM_EFFECTIVE_ROTOR_COUNT>  (1) 
1

>  <PUBCHEM_PHARMACOPHORE_FEATURES>  (1) 
4
1 1 acceptor
6 1 2 3 4 5 6 rings
6 2 4 8 10 11 12 rings
6 7 13 14 15 16 17 rings

>  <PUBCHEM_HEAVY_ATOM_COUNT>  (1) 
17

>  <PUBCHEM_ATOM_DEF_STEREO_COUNT>  (1) 
0

>  <PUBCHEM_ATOM_UDEF_STEREO_COUNT>  (1) 
0

>  <PUBCHEM_BOND_DEF_STEREO_COUNT>  (1) 
0

>  <PUBCHEM_BOND_UDEF_STEREO_COUNT>  (1) 
0

>  <PUBCHEM_ISOTOPIC_ATOM_COUNT>  (1) 
0

>  <PUBCHEM_COMPONENT_COUNT>  (1) 
1

>  <PUBCHEM_CACTVS_TAUTO_COUNT>  (1) 
1

>  <PUBCHEM_CONFORMER_ID>  (1) 
000051B700000001

>  <PUBCHEM_MMFF94_ENERGY>  (1) 
57.6532

>  <PUBCHEM_FEATURE_SELFOVERLAP>  (1) 
20.329

>  <PUBCHEM_SHAPE_FINGERPRINT>  (1) 
11471102 20 18409448111283541620
11615757 297 18341613732912866787
11796584 16 16588298342002966658
12032990 46 18337113358885180230
12236239 1 17775567550737600323
12553582 1 18412826850502407638
12670546 56 17632854231044024097
12707595 3 18260544506971361954
12916754 54 18339357574140022863
13134695 92 18410006633131235124
13140716 1 18194398029605572616
13581323 91 16415478246657116301
13760787 5 18411141337673204380
13862211 1 18410852128025337554
14251717 144 18411979169802344998
14252887 29 18201723908083253846
14386348 63 17822013112080396291
15219456 202 18041277772425857821
15375462 189 18202282493858973858
15848700 24 18412260610767243054
16945 1 18410574015617304740
17357779 13 18187071837263456581
1813 80 18129395821162432310
18222031 100 18272082769356462502
18785283 64 18043536229402337996
200 152 18272645749627544079
20279233 1 17821730533186424723
20645477 70 18335133232647804805
20871998 22 18127700339862392878
21065201 7 16515397487086743585
21267235 1 18340495478206430414
21639500 275 18339917246400595845
21641784 216 18042144084921268708
22094290 60 16298387942132653975
22112679 90 17346601906507438033
221357 26 18263065670640136669
221490 88 18263648539992486707
2255824 54 18342460404100566004
22646028 1 17917708002739249991
22646028 28 18131630088893487991
23175994 123 18261397710962313933
23402539 116 18270396084207142950
23559900 14 17022896826882892498
26918003 58 18260548909265452131
2748010 2 18195518200063049884
2871803 45 18260829242129125290
474 4 18055627567215264960
5104073 3 18339641140011491865
5281201 14 17749390364554533829
573450 72 17060619997443302379
602551 16 15123217888272594647
6049 1 17894629270999956669
7364860 26 18340767147735913480
7471813 234 17917699215204975225
7495541 125 17967822690144474370
77492 1 17703794751559560773
83771 10 18341892952878707736
84936 182 17771905205801383144
9709674 26 18115873069492259611
9981440 41 17122240163247429400

>  <PUBCHEM_SHAPE_MULTIPOLES>  (1) 
344.87
8.82
2.01
0.96
4.76
1.1
0
-2.86
0
-2.67
0
1.18
-0.07
0

>  <PUBCHEM_SHAPE_SELFOVERLAP>  (1) 
769.969

>  <PUBCHEM_SHAPE_VOLUME>  (1) 
183.2

>  <PUBCHEM_COORDINATE_TYPE>  (1) 
2
5
10

$$$$
