20918
     RDKit          3D

 22 25  0  0  1  0  0  0  0  0999 V2000
   -5.3266    1.1324    0.7583 O   0  0  0  0  0  0  0  0  0  0  0  0
    5.3103    0.5328   -0.1968 O   0  0  0  0  0  0  0  0  0  0  0  0
   -3.1625   -0.0414    0.6261 C   0  0  0  0  0  0  0  0  0  0  0  0
   -2.5401   -0.9000   -0.4989 C   0  0  0  0  0  0  0  0  0  0  0  0
   -0.9999   -0.8951   -0.6086 C   0  0  0  0  0  0  0  0  0  0  0  0
   -0.3790    0.5116   -0.4307 C   0  0  0  0  0  0  0  0  0  0  0  0
   -4.6255    0.0702    0.1373 C   0  0  0  0  0  0  0  0  0  0  0  0
   -2.4770    1.3381    0.7372 C   0  0  0  0  0  0  0  0  0  0  0  0
   -3.2036   -0.3631   -1.7875 C   0  0  0  0  0  0  0  0  0  0  0  0
   -0.9534    1.2463    0.7942 C   0  0  0  0  0  0  0  0  0  0  0  0
   -4.5288    0.2694   -1.3707 C   0  0  0  0  0  0  0  0  0  0  0  0
   -0.3453   -1.8909    0.3616 C   0  0  0  0  0  0  0  0  0  0  0  0
   -3.1541   -0.7375    1.9972 C   0  0  0  0  0  0  0  0  0  0  0  0
    1.1407    0.4763   -0.3660 C   0  0  0  0  0  0  0  0  0  0  0  0
    1.1428   -2.0348    0.0541 C   0  0  0  0  0  0  0  0  0  0  0  0
    1.8465   -0.7126   -0.1050 C   0  0  0  0  0  0  0  0  0  0  0  0
    1.8621    1.6672   -0.5636 C   0  0  0  0  0  0  0  0  0  0  0  0
    3.2498   -0.6876   -0.0549 C   0  0  0  0  0  0  0  0  0  0  0  0
    3.2551    1.6804   -0.5015 C   0  0  0  0  0  0  0  0  0  0  0  0
    3.9492    0.5029   -0.2463 C   0  0  0  0  0  0  0  0  0  0  0  0
    4.0321   -1.9421    0.1896 C   0  0  0  0  0  0  0  0  0  0  0  0
    5.9072    0.7775    1.0751 C   0  0  0  0  0  0  0  0  0  0  0  0
  1  7  1  0
  2 20  1  0
  2 22  1  0
  3  4  1  0
  3  7  1  0
  3  8  1  0
  3 13  1  0
  4  5  1  0
  4  9  1  0
  5  6  1  0
  5 12  1  0
  6 10  1  0
  6 14  1  0
  7 11  1  0
  8 10  1  0
  9 11  1  0
 12 15  1  0
 14 16  2  0
 14 17  1  0
 15 16  1  0
 16 18  1  0
 17 19  2  0
 18 20  2  0
 18 21  1  0
 19 20  1  0
M  END
>  <PUBCHEM_COMPOUND_CID>  (1) 
20918

>  <PUBCHEM_CONFORMER_RMSD>  (1) 
0.6

>  <PUBCHEM_CONFORMER_DIVERSEORDER>  (1) 
2
14
32
26
21
22
18
20
8
7
4
16
37
34
31
3
38
35
24
33
11
13
19
6
9
36
23
5
10
29
15
25
1
27
28
30
17
12

>  <PUBCHEM_MMFF94_PARTIAL_CHARGES>  (1) 
16
1 -0.68
14 -0.14
15 0.14
16 -0.14
17 -0.15
18 -0.14
19 -0.15
2 -0.36
20 0.08
21 0.14
22 0.28
42 0.4
43 0.15
44 0.15
6 0.14
7 0.28

>  <PUBCHEM_EFFECTIVE_ROTOR_COUNT>  (1) 
2.4

>  <PUBCHEM_PHARMACOPHORE_FEATURES>  (1) 
7
1 1 acceptor
1 1 donor
1 2 acceptor
5 3 4 7 9 11 rings
6 14 16 17 18 19 20 rings
6 3 4 5 6 8 10 rings
6 5 6 12 14 15 16 rings

>  <PUBCHEM_HEAVY_ATOM_COUNT>  (1) 
22

>  <PUBCHEM_ATOM_DEF_STEREO_COUNT>  (1) 
1

>  <PUBCHEM_ATOM_UDEF_STEREO_COUNT>  (1) 
4

>  <PUBCHEM_BOND_DEF_STEREO_COUNT>  (1) 
0

>  <PUBCHEM_BOND_UDEF_STEREO_COUNT>  (1) 
0

>  <PUBCHEM_ISOTOPIC_ATOM_COUNT>  (1) 
0

>  <PUBCHEM_COMPONENT_COUNT>  (1) 
1

>  <PUBCHEM_CACTVS_TAUTO_COUNT>  (1) 
1

>  <PUBCHEM_CONFORMER_ID>  (1) 
000051B600000002

>  <PUBCHEM_MMFF94_ENERGY>  (1) 
85.844

>  <PUBCHEM_FEATURE_SELFOVERLAP>  (1) 
35.748

>  <PUBCHEM_SHAPE_FINGERPRINT>  (1) 
10062212 137 18131063849058454151
10906281 52 18338245959357814228
11089746 13 17846775239551730728
11471102 20 18408038503106782350
11578080 2 17771874234945244401
12107183 9 17552647945900233098
12236239 1 18060418006058827647
12507557 5 18260548956531171600
12670546 56 17989203737903568880
13140716 1 18119248604686134320
13224815 77 18272654545119289987
13533116 47 18201717311308951194
13583140 156 17023173959447089955
13675066 3 17967536795667560502
14787075 74 17989199374201121800
15196674 1 18411702049721882418
15375358 24 17967814933686797147
15536298 74 18343587309293454558
15961568 22 15769476729971953714
16945 1 18411991242844709343
16988056 13 14317144645494071105
17349148 13 18343299258194260534
18186145 218 18408042922295768726
19489759 90 15554450690718987775
200 152 18343860013698884037
20511986 3 18130489869238554821
20645477 70 18335980883156944158
21033648 29 17822277003086808445
21033650 10 16629149644408232328
21267235 1 18339934718501707262
22182313 1 18041826308753650236
23184049 59 18334580135581638046
23402539 116 18060416932385763876
23493267 7 17385713712544975641
23557571 272 14979963574841077411
23559900 14 18341895204053799342
26918003 58 18113339729770757113
296302 2 18260548913892676615
300161 21 17917707998191062140
34797466 226 15697718215533392408
34934 24 18059857229881175285
3545911 37 18410013251839114974
4340502 62 18041012717699821155
474 4 18409168830913754550
5104073 3 18339084795744171531
602551 16 15697703896027850390
633830 44 18341344317956468799

>  <PUBCHEM_SHAPE_MULTIPOLES>  (1) 
441.01
11.09
1.83
1.26
4.51
0.4
-0.11
-2.38
-1.17
1.16
-0.12
-1.37
0
-0.24

>  <PUBCHEM_SHAPE_SELFOVERLAP>  (1) 
954.092

>  <PUBCHEM_SHAPE_VOLUME>  (1) 
241.9

>  <PUBCHEM_COORDINATE_TYPE>  (1) 
2
5
10

$$$$
