20912
     RDKit          3D

  6  5  0  0  0  0  0  0  0  0999 V2000
   -2.4227    0.1895    0.4342 N   0  0  0  0  0  0  0  0  0  0  0  0
    1.0021   -0.0329   -0.0581 C   0  0  0  0  0  0  0  0  0  0  0  0
   -0.2089   -0.6572   -0.7032 C   0  0  0  0  0  0  0  0  0  0  0  0
    1.1106    1.4654   -0.1114 C   0  0  0  0  0  0  0  0  0  0  0  0
    1.9630   -0.7825    0.5050 C   0  0  0  0  0  0  0  0  0  0  0  0
   -1.4440   -0.1823   -0.0664 C   0  0  0  0  0  0  0  0  0  0  0  0
  1  6  3  0
  2  3  1  0
  2  4  1  0
  2  5  2  0
  3  6  1  0
M  END
>  <PUBCHEM_COMPOUND_CID>  (1) 
20912

>  <PUBCHEM_CONFORMER_RMSD>  (1) 
0.4

>  <PUBCHEM_CONFORMER_DIVERSEORDER>  (1) 
1
2
3

>  <PUBCHEM_MMFF94_PARTIAL_CHARGES>  (1) 
8
1 -0.56
12 0.15
13 0.15
2 -0.28
3 0.34
4 0.14
5 -0.3
6 0.36

>  <PUBCHEM_EFFECTIVE_ROTOR_COUNT>  (1) 
1

>  <PUBCHEM_PHARMACOPHORE_FEATURES>  (1) 
1
1 1 acceptor

>  <PUBCHEM_HEAVY_ATOM_COUNT>  (1) 
6

>  <PUBCHEM_ATOM_DEF_STEREO_COUNT>  (1) 
0

>  <PUBCHEM_ATOM_UDEF_STEREO_COUNT>  (1) 
0

>  <PUBCHEM_BOND_DEF_STEREO_COUNT>  (1) 
0

>  <PUBCHEM_BOND_UDEF_STEREO_COUNT>  (1) 
0

>  <PUBCHEM_ISOTOPIC_ATOM_COUNT>  (1) 
0

>  <PUBCHEM_COMPONENT_COUNT>  (1) 
1

>  <PUBCHEM_CACTVS_TAUTO_COUNT>  (1) 
1

>  <PUBCHEM_CONFORMER_ID>  (1) 
000051B000000001

>  <PUBCHEM_MMFF94_ENERGY>  (1) 
2.6994

>  <PUBCHEM_FEATURE_SELFOVERLAP>  (1) 
5.074

>  <PUBCHEM_SHAPE_FINGERPRINT>  (1) 
139733 1 10951754318257653622
20096714 4 18198908187109966084
21040471 1 17417816161935777415
24536 1 17917995013738823335
29004967 10 18040991809123777602
5460574 1 9223228550634986227
5943 1 12242291535789362374

>  <PUBCHEM_SHAPE_MULTIPOLES>  (1) 
118.5
2.79
1.17
0.76
1.2
0.4
0.04
-0.12
-0.66
-0.58
0.04
0
-0.08
-0.21

>  <PUBCHEM_SHAPE_SELFOVERLAP>  (1) 
214.094

>  <PUBCHEM_SHAPE_VOLUME>  (1) 
74.8

>  <PUBCHEM_COORDINATE_TYPE>  (1) 
2
5
10

$$$$
