20928
     RDKit          3D

  7  6  0  0  1  0  0  0  0  0999 V2000
   -1.3773   -1.7591   -0.0179 O   0  0  0  0  0  0  0  0  0  0  0  0
    0.7662   -0.7067   -0.0857 C   0  0  0  0  0  0  0  0  0  0  0  0
    1.6203    0.5221    0.2307 C   0  0  0  0  0  0  0  0  0  0  0  0
   -0.7084   -0.5375    0.3008 C   0  0  0  0  0  0  0  0  0  0  0  0
    3.0780    0.2935   -0.1384 C   0  0  0  0  0  0  0  0  0  0  0  0
   -1.3825    0.5797   -0.4429 C   0  0  0  0  0  0  0  0  0  0  0  0
   -1.9963    1.6080    0.1533 C   0  0  0  0  0  0  0  0  0  0  0  0
  1  4  1  0
  2  3  1  0
  2  4  1  0
  3  5  1  0
  4  6  1  0
  6  7  2  0
M  END
>  <PUBCHEM_COMPOUND_CID>  (1) 
20928

>  <PUBCHEM_CONFORMER_RMSD>  (1) 
0.4

>  <PUBCHEM_CONFORMER_DIVERSEORDER>  (1) 
1
16
29
12
25
21
23
27
4
17
28
20
6
26
10
8
5
14
22
11
3
24
18
2
9
13
19
7
15

>  <PUBCHEM_MMFF94_PARTIAL_CHARGES>  (1) 
8
1 -0.68
16 0.15
17 0.4
18 0.15
19 0.15
4 0.42
6 -0.29
7 -0.3

>  <PUBCHEM_EFFECTIVE_ROTOR_COUNT>  (1) 
3

>  <PUBCHEM_PHARMACOPHORE_FEATURES>  (1) 
4
1 1 acceptor
1 1 donor
1 5 hydrophobe
1 7 hydrophobe

>  <PUBCHEM_HEAVY_ATOM_COUNT>  (1) 
7

>  <PUBCHEM_ATOM_DEF_STEREO_COUNT>  (1) 
0

>  <PUBCHEM_ATOM_UDEF_STEREO_COUNT>  (1) 
1

>  <PUBCHEM_BOND_DEF_STEREO_COUNT>  (1) 
0

>  <PUBCHEM_BOND_UDEF_STEREO_COUNT>  (1) 
0

>  <PUBCHEM_ISOTOPIC_ATOM_COUNT>  (1) 
0

>  <PUBCHEM_COMPONENT_COUNT>  (1) 
1

>  <PUBCHEM_CACTVS_TAUTO_COUNT>  (1) 
1

>  <PUBCHEM_CONFORMER_ID>  (1) 
000051C000000001

>  <PUBCHEM_MMFF94_ENERGY>  (1) 
2.3772

>  <PUBCHEM_FEATURE_SELFOVERLAP>  (1) 
20.297

>  <PUBCHEM_SHAPE_FINGERPRINT>  (1) 
14390081 3 18343014480598845200
16714656 1 18410294748000420747
19973954 147 18339923843723680480
20096714 4 18265893553746878913
21040471 1 18338511928674248648
23235685 24 18339920415938832120
23552423 10 18187365445839210890
23552449 1 18339921644309774944
29004967 10 16630257999310314874

>  <PUBCHEM_SHAPE_MULTIPOLES>  (1) 
138.19
3.65
1.53
0.66
2.47
0.29
0.01
-1.33
0.13
-1.05
-0.04
-0.02
-0.04
0

>  <PUBCHEM_SHAPE_SELFOVERLAP>  (1) 
243.848

>  <PUBCHEM_SHAPE_VOLUME>  (1) 
91.1

>  <PUBCHEM_COORDINATE_TYPE>  (1) 
2
5
10

$$$$
