2093
     RDKit          3D

 20 20  0  0  0  0  0  0  0  0999 V2000
   -4.0778   -0.9298   -0.3725 C   0  0  0  0  0  0  0  0  0  0  0  0
   -5.3203   -0.1731   -0.9171 C   0  0  0  0  0  0  0  0  0  0  0  0
   -5.7193    0.9911   -0.0282 C   0  0  0  0  0  0  0  0  0  0  0  0
   -2.9758    0.0494    0.0966 C   0  0  0  0  0  0  0  0  0  0  0  0
   -4.5783    1.9932    0.0615 C   0  0  0  0  0  0  0  0  0  0  0  0
   -3.2093    1.3754    0.2639 C   0  0  0  0  0  0  0  0  0  0  0  0
   -3.5941   -1.8413   -1.5268 C   0  0  0  0  0  0  0  0  0  0  0  0
   -4.5128   -1.8245    0.8109 C   0  0  0  0  0  0  0  0  0  0  0  0
   -1.6795   -0.5485    0.3706 C   0  0  0  0  0  0  0  0  0  0  0  0
   -2.1825    2.4093    0.6653 C   0  0  0  0  0  0  0  0  0  0  0  0
   -0.5167    0.0425    0.0529 C   0  0  0  0  0  0  0  0  0  0  0  0
    0.8223   -0.4926    0.2994 C   0  0  0  0  0  0  0  0  0  0  0  0
    0.9270   -1.8226    1.0071 C   0  0  0  0  0  0  0  0  0  0  0  0
    1.9587    0.1504   -0.0439 C   0  0  0  0  0  0  0  0  0  0  0  0
    3.3336   -0.2685    0.1434 C   0  0  0  0  0  0  0  0  0  0  0  0
    4.4042    0.4490   -0.2364 C   0  0  0  0  0  0  0  0  0  0  0  0
    5.8106    0.0591   -0.1033 C   0  0  0  0  0  0  0  0  0  0  0  0
    6.1053   -1.2773    0.5263 C   0  0  0  0  0  0  0  0  0  0  0  0
    6.7591    0.9121   -0.5429 C   0  0  0  0  0  0  0  0  0  0  0  0
    8.2457    0.7467   -0.5268 C   0  0  0  0  0  0  0  0  0  0  0  0
  1  2  1  0
  1  4  1  0
  1  7  1  0
  1  8  1  0
  2  3  1  0
  3  5  1  0
  4  6  2  0
  4  9  1  0
  5  6  1  0
  6 10  1  0
  9 11  2  0
 11 12  1  0
 12 13  1  0
 12 14  2  0
 14 15  1  0
 15 16  2  0
 16 17  1  0
 17 18  1  0
 17 19  2  0
 19 20  1  0
M  END
>  <PUBCHEM_COMPOUND_CID>  (1) 
2093

>  <PUBCHEM_CONFORMER_RMSD>  (1) 
0.6

>  <PUBCHEM_CONFORMER_DIVERSEORDER>  (1) 
9
7
2
4
15
18
1
6
13
10
8
3
17
12
5
11
19
16
14

>  <PUBCHEM_MMFF94_PARTIAL_CHARGES>  (1) 
22
1 0.14
10 0.14
11 -0.15
12 -0.14
13 0.14
14 -0.15
15 -0.15
16 -0.15
17 -0.14
18 0.14
19 -0.29
20 0.14
33 0.15
37 0.15
4 -0.14
41 0.15
42 0.15
43 0.15
47 0.15
5 0.14
6 -0.28
9 -0.15

>  <PUBCHEM_EFFECTIVE_ROTOR_COUNT>  (1) 
4.8

>  <PUBCHEM_PHARMACOPHORE_FEATURES>  (1) 
5
1 13 hydrophobe
1 18 hydrophobe
1 20 hydrophobe
3 1 7 8 hydrophobe
6 1 2 3 4 5 6 rings

>  <PUBCHEM_HEAVY_ATOM_COUNT>  (1) 
20

>  <PUBCHEM_ATOM_DEF_STEREO_COUNT>  (1) 
0

>  <PUBCHEM_ATOM_UDEF_STEREO_COUNT>  (1) 
0

>  <PUBCHEM_BOND_DEF_STEREO_COUNT>  (1) 
0

>  <PUBCHEM_BOND_UDEF_STEREO_COUNT>  (1) 
4

>  <PUBCHEM_ISOTOPIC_ATOM_COUNT>  (1) 
0

>  <PUBCHEM_COMPONENT_COUNT>  (1) 
1

>  <PUBCHEM_CACTVS_TAUTO_COUNT>  (1) 
1

>  <PUBCHEM_CONFORMER_ID>  (1) 
0000082D00000009

>  <PUBCHEM_MMFF94_ENERGY>  (1) 
48.7633

>  <PUBCHEM_FEATURE_SELFOVERLAP>  (1) 
25.374

>  <PUBCHEM_SHAPE_FINGERPRINT>  (1) 
10066227 49 17417542298722875654
10411042 1 18053380187925285943
10595046 47 18410854331026789570
10730089 173 18341895186093175941
10968037 39 18411698790590693709
11315181 36 18113902688414235637
11524674 6 15626221338176448383
12091667 2 18412265059979055606
12107183 9 17544753430985372906
12166972 35 17676492799346506860
12236239 1 18334293154382961762
13288520 33 18060416941624265503
13533116 47 18335697205795564050
13631057 29 17750237070635111267
1420 363 15051735300662453614
14251764 18 18260264145409117098
14251764 46 17603303765489639611
14933364 13 18412266138511712552
15183329 4 18342177748440190226
1577012 14 18261110760398056104
17844677 252 17988644120660504184
1813 80 13038914364706604568
18643901 69 17274819216605188103
18681886 176 18340481265895676688
18927931 339 18272373100676959615
19489759 90 18411981355798163464
20281389 69 17894348852648588684
21236236 1 18410576179943153432
21267235 1 18342457093276736719
21709351 56 18335134314895466557
220451 1 17989210347985292758
2297311 6 17918274264217938665
23081809 10 18334289864817931714
23402539 116 18409727369824999590
23536379 177 18410855443597230178
23557571 272 17917996057505839201
23559900 14 18340480161946903801
328310 630 17749400299125392308
335352 9 18343577440044365845
34797466 226 17489313014187596004
3545911 37 18409448059976003753
4073 2 18040723567189804378
4325135 7 18342739624382820940
441001 317 18412262818196050849
531348 171 18201438030243033415
59755656 215 18130790032019020838
59755656 520 17603866702263176283
6327066 14 18048311155579434925

>  <PUBCHEM_SHAPE_MULTIPOLES>  (1) 
411.59
19.59
1.99
0.95
35.5
0.26
-0.13
3.43
-3.69
-2.46
0.27
-0.52
-0.32
-1.18

>  <PUBCHEM_SHAPE_SELFOVERLAP>  (1) 
818.809

>  <PUBCHEM_SHAPE_VOLUME>  (1) 
244.8

>  <PUBCHEM_COORDINATE_TYPE>  (1) 
2
5
10

$$$$
