20932
     RDKit          3D

 12 12  0  0  1  0  0  0  0  0999 V2000
    1.3452   -0.2246    0.1441 O   0  0  0  0  0  0  0  0  0  0  0  0
    4.9694   -0.4079    0.2154 O   0  0  0  0  0  0  0  0  0  0  0  0
    0.3975    0.8469    0.0702 C   0  0  0  0  0  0  0  0  0  0  0  0
   -0.9898    0.2994    0.0650 C   0  0  0  0  0  0  0  0  0  0  0  0
    0.7036    1.6930   -1.1694 C   0  0  0  0  0  0  0  0  0  0  0  0
    2.6739    0.2684    0.1506 C   0  0  0  0  0  0  0  0  0  0  0  0
   -2.0301    1.0302    0.6390 C   0  0  0  0  0  0  0  0  0  0  0  0
   -1.2472   -0.9433   -0.5141 C   0  0  0  0  0  0  0  0  0  0  0  0
    3.6355   -0.9017    0.2294 C   0  0  0  0  0  0  0  0  0  0  0  0
   -3.3278    0.5185    0.6340 C   0  0  0  0  0  0  0  0  0  0  0  0
   -2.5449   -1.4549   -0.5191 C   0  0  0  0  0  0  0  0  0  0  0  0
   -3.5851   -0.7240    0.0549 C   0  0  0  0  0  0  0  0  0  0  0  0
  1  3  1  0
  1  6  1  0
  2  9  1  0
  3  4  1  0
  3  5  1  0
  4  7  2  0
  4  8  1  0
  6  9  1  0
  7 10  1  0
  8 11  2  0
 10 12  2  0
 11 12  1  0
M  END
>  <PUBCHEM_COMPOUND_CID>  (1) 
20932

>  <PUBCHEM_CONFORMER_RMSD>  (1) 
0.6

>  <PUBCHEM_CONFORMER_DIVERSEORDER>  (1) 
1
3
13
10
7
6
4
14
9
8
11
15
5
2
12

>  <PUBCHEM_MMFF94_PARTIAL_CHARGES>  (1) 
17
1 -0.56
10 -0.15
11 -0.15
12 -0.15
19 0.15
2 -0.68
20 0.15
23 0.15
24 0.15
25 0.15
26 0.4
3 0.42
4 -0.14
6 0.28
7 -0.15
8 -0.15
9 0.28

>  <PUBCHEM_EFFECTIVE_ROTOR_COUNT>  (1) 
4

>  <PUBCHEM_PHARMACOPHORE_FEATURES>  (1) 
4
1 1 acceptor
1 2 acceptor
1 2 donor
6 4 7 8 10 11 12 rings

>  <PUBCHEM_HEAVY_ATOM_COUNT>  (1) 
12

>  <PUBCHEM_ATOM_DEF_STEREO_COUNT>  (1) 
0

>  <PUBCHEM_ATOM_UDEF_STEREO_COUNT>  (1) 
1

>  <PUBCHEM_BOND_DEF_STEREO_COUNT>  (1) 
0

>  <PUBCHEM_BOND_UDEF_STEREO_COUNT>  (1) 
0

>  <PUBCHEM_ISOTOPIC_ATOM_COUNT>  (1) 
0

>  <PUBCHEM_COMPONENT_COUNT>  (1) 
1

>  <PUBCHEM_CACTVS_TAUTO_COUNT>  (1) 
1

>  <PUBCHEM_CONFORMER_ID>  (1) 
000051C400000001

>  <PUBCHEM_MMFF94_ENERGY>  (1) 
31.799

>  <PUBCHEM_FEATURE_SELFOVERLAP>  (1) 
20.297

>  <PUBCHEM_SHAPE_FINGERPRINT>  (1) 
10465860 250 17489585654015301680
11769659 78 18341045323850361903
12119455 92 14548735075767485900
12251169 10 18201719552738151520
124424 183 17203887452994742769
13024252 1 15936410022887600985
13690532 89 18409447011972451855
14577589 140 18410575063531120815
15279308 16 15195018093626620985
16945 1 17774176702983160645
17804303 29 18202004334607526072
18186145 218 14996285825134968020
18511873 20 18409733962958501489
19422 9 18336270131860455838
20279233 1 16486980591465062461
20361792 2 17894624868325921948
204376 136 13254791365381506060
20645464 45 16486980604708608263
20711985 327 18333735727778757860
207724 885 18260550043315997133
20828058 44 18201999911266127322
22485316 2 18335697217968003762
232386 152 18201442527099646397
23402539 116 17274814741175366229
23463225 33 18410857637850907654
23552423 10 18120657087481293917
23559900 14 18060132155043393920
2748010 2 17764327054330464629
7364860 26 18196654214291203536

>  <PUBCHEM_SHAPE_MULTIPOLES>  (1) 
235.22
7.32
1.44
0.85
6.98
0.13
-0.12
-2.46
1.29
-0.35
-0.31
-0.15
0.2
-0.66

>  <PUBCHEM_SHAPE_SELFOVERLAP>  (1) 
472.55

>  <PUBCHEM_SHAPE_VOLUME>  (1) 
138.6

>  <PUBCHEM_COORDINATE_TYPE>  (1) 
2
5
10

$$$$
