20939
     RDKit          3D

 11 11  0  0  0  0  0  0  0  0999 V2000
   -3.1757   -1.7205   -0.0003 Cl  0  0  0  0  0  0  0  0  0  0  0  0
   -0.9954    3.0023   -0.0016 Cl  0  0  0  0  0  0  0  0  0  0  0  0
    0.4102    0.8102    0.0023 N   0  0  0  0  0  0  0  0  0  0  0  0
   -0.5957   -1.3684    0.0000 N   0  0  0  0  0  0  0  0  0  0  0  0
   -1.9794    0.5920   -0.0002 N   0  0  0  0  0  0  0  0  0  0  0  0
    2.8867   -0.4155   -0.0007 N   0  0  0  0  0  0  0  0  0  0  0  0
    3.8436    0.2056   -0.0005 N   0  0  0  0  0  0  0  0  0  0  0  0
    0.4548   -0.5318    0.0015 C   0  0  0  0  0  0  0  0  0  0  0  0
   -1.7802   -0.7360   -0.0009 C   0  0  0  0  0  0  0  0  0  0  0  0
   -0.8395    1.3015    0.0012 C   0  0  0  0  0  0  0  0  0  0  0  0
    1.7706   -1.1394   -0.0009 C   0  0  0  0  0  0  0  0  0  0  0  0
  1  9  1  0
  2 10  1  0
  3  8  2  0
  3 10  1  0
  4  8  1  0
  4  9  2  0
  5  9  1  0
  5 10  2  0
  6  7  2  0
  6 11  2  0
  8 11  1  0
M  CHG  2   6   1   7  -1
M  END
>  <PUBCHEM_COMPOUND_CID>  (1) 
20939

>  <PUBCHEM_CONFORMER_RMSD>  (1) 
0.4

>  <PUBCHEM_CONFORMER_DIVERSEORDER>  (1) 
1
2

>  <PUBCHEM_MMFF94_PARTIAL_CHARGES>  (1) 
12
1 -0.18
10 0.8
11 -0.13
12 0.06
2 -0.18
3 -0.62
4 -0.62
5 -0.62
6 0.36
7 -0.37
8 0.71
9 0.8

>  <PUBCHEM_EFFECTIVE_ROTOR_COUNT>  (1) 
1

>  <PUBCHEM_PHARMACOPHORE_FEATURES>  (1) 
5
1 6 acceptor
3 3 4 8 cation
3 3 5 10 cation
3 4 5 9 cation
6 3 4 5 8 9 10 rings

>  <PUBCHEM_HEAVY_ATOM_COUNT>  (1) 
11

>  <PUBCHEM_ATOM_DEF_STEREO_COUNT>  (1) 
0

>  <PUBCHEM_ATOM_UDEF_STEREO_COUNT>  (1) 
0

>  <PUBCHEM_BOND_DEF_STEREO_COUNT>  (1) 
0

>  <PUBCHEM_BOND_UDEF_STEREO_COUNT>  (1) 
1

>  <PUBCHEM_ISOTOPIC_ATOM_COUNT>  (1) 
0

>  <PUBCHEM_COMPONENT_COUNT>  (1) 
1

>  <PUBCHEM_CACTVS_TAUTO_COUNT>  (1) 
1

>  <PUBCHEM_CONFORMER_ID>  (1) 
000051CB00000001

>  <PUBCHEM_MMFF94_ENERGY>  (1) 
15.415

>  <PUBCHEM_FEATURE_SELFOVERLAP>  (1) 
28.144

>  <PUBCHEM_SHAPE_FINGERPRINT>  (1) 
1 1 16968297016541116429
10857977 72 18340476846242466786
12032990 46 18338803423841699115
16945 1 18266741285822836837
193761 8 17978229353227601607
20871998 184 18201721738771179383
20871998 22 18270697440508651031
21040471 1 17762336916381884037
23402539 116 18342448279054695607
23552423 10 18189056387100888010
241688 4 18410854382460746473
2748010 2 18268134517527037341
369184 2 16371009572666319898
7364860 26 17836366317194680985
81228 2 18336840684122327497

>  <PUBCHEM_SHAPE_MULTIPOLES>  (1) 
205.21
4.59
2.51
0.58
3.39
2.3
0
-2.13
0
-1.74
0
-0.06
0.01
0

>  <PUBCHEM_SHAPE_SELFOVERLAP>  (1) 
406.746

>  <PUBCHEM_SHAPE_VOLUME>  (1) 
117.7

>  <PUBCHEM_COORDINATE_TYPE>  (1) 
2
5
10

$$$$
