20940
     RDKit          3D

 13 13  0  0  0  0  0  0  0  0999 V2000
   -3.1363   -0.2911    0.0004 O   0  0  0  0  0  0  0  0  0  0  0  0
    0.3590    2.7395    0.0004 O   0  0  0  0  0  0  0  0  0  0  0  0
   -1.4211    1.2617   -0.0014 N   0  0  0  0  0  0  0  0  0  0  0  0
    0.8466    0.4776   -0.0009 N   0  0  0  0  0  0  0  0  0  0  0  0
   -0.9664   -1.0943   -0.0008 N   0  0  0  0  0  0  0  0  0  0  0  0
    2.5995   -1.6587    0.0002 N   0  0  0  0  0  0  0  0  0  0  0  0
    3.7273   -1.4866   -0.0003 N   0  0  0  0  0  0  0  0  0  0  0  0
   -1.7859   -0.0306   -0.0012 C   0  0  0  0  0  0  0  0  0  0  0  0
   -0.0902    1.4395   -0.0013 C   0  0  0  0  0  0  0  0  0  0  0  0
    0.3352   -0.7640   -0.0007 C   0  0  0  0  0  0  0  0  0  0  0  0
    1.2843   -1.8591    0.0010 C   0  0  0  0  0  0  0  0  0  0  0  0
   -3.5193   -1.6587    0.0023 C   0  0  0  0  0  0  0  0  0  0  0  0
    1.7673    2.9246    0.0024 C   0  0  0  0  0  0  0  0  0  0  0  0
  1  8  1  0
  1 12  1  0
  2  9  1  0
  2 13  1  0
  3  8  2  0
  3  9  1  0
  4  9  2  0
  4 10  1  0
  5  8  1  0
  5 10  2  0
  6  7  2  0
  6 11  2  0
 10 11  1  0
M  CHG  2   6   1   7  -1
M  END
>  <PUBCHEM_COMPOUND_CID>  (1) 
20940

>  <PUBCHEM_CONFORMER_RMSD>  (1) 
0.6

>  <PUBCHEM_CONFORMER_DIVERSEORDER>  (1) 
1
5
2
6
3
8
7
4

>  <PUBCHEM_MMFF94_PARTIAL_CHARGES>  (1) 
14
1 -0.36
10 0.71
11 -0.13
12 0.28
13 0.28
14 0.06
2 -0.36
3 -0.62
4 -0.62
5 -0.62
6 0.36
7 -0.37
8 0.7
9 0.7

>  <PUBCHEM_EFFECTIVE_ROTOR_COUNT>  (1) 
3

>  <PUBCHEM_PHARMACOPHORE_FEATURES>  (1) 
5
1 6 acceptor
3 3 4 9 cation
3 3 5 8 cation
3 4 5 10 cation
6 3 4 5 8 9 10 rings

>  <PUBCHEM_HEAVY_ATOM_COUNT>  (1) 
13

>  <PUBCHEM_ATOM_DEF_STEREO_COUNT>  (1) 
0

>  <PUBCHEM_ATOM_UDEF_STEREO_COUNT>  (1) 
0

>  <PUBCHEM_BOND_DEF_STEREO_COUNT>  (1) 
0

>  <PUBCHEM_BOND_UDEF_STEREO_COUNT>  (1) 
1

>  <PUBCHEM_ISOTOPIC_ATOM_COUNT>  (1) 
0

>  <PUBCHEM_COMPONENT_COUNT>  (1) 
1

>  <PUBCHEM_CACTVS_TAUTO_COUNT>  (1) 
1

>  <PUBCHEM_CONFORMER_ID>  (1) 
000051CC00000001

>  <PUBCHEM_MMFF94_ENERGY>  (1) 
34.3089

>  <PUBCHEM_FEATURE_SELFOVERLAP>  (1) 
28.144

>  <PUBCHEM_SHAPE_FINGERPRINT>  (1) 
1 1 18050286173997187269
10989021 7 18411699893653516106
12138202 78 18336820996076723109
13380535 76 17831010595945001459
16945 1 18266741470606793765
19021347 11 18122906700903391837
193761 8 18410855456166049541
20645476 183 16960140285225255508
20645477 70 18192417783684762111
20871998 184 18057599858983418983
20871998 22 18271537381403248719
21339142 51 18191861232435455295
22213442 358 18411417293458989287
23526114 1 18410009970178210805
23552423 10 18338800138555227423
23557571 272 17985271768390381686
2748010 2 18339908329942818884
3071541 12 18338801224987164169
3071541 158 18261108552189085597
3071541 250 18411430517736867518
3071541 37 18119250807619293869
43471831 8 17833828652683847634
528862 383 18192139615030509377
58734987 50 18267585886741275835
7364860 26 18268430303060237809
81228 2 17908989811591081993
81539 233 17900814156838874317

>  <PUBCHEM_SHAPE_MULTIPOLES>  (1) 
230.89
4.69
3.12
0.57
1.88
1.57
0
-2.77
0
-2.84
0
0.01
0
0

>  <PUBCHEM_SHAPE_SELFOVERLAP>  (1) 
471.738

>  <PUBCHEM_SHAPE_VOLUME>  (1) 
130

>  <PUBCHEM_COORDINATE_TYPE>  (1) 
2
5
10

$$$$
