20953
     RDKit          3D

 12 11  0  0  0  0  0  0  0  0999 V2000
    3.7852   -1.4456   -0.1240 O   0  0  0  0  0  0  0  0  0  0  0  0
    4.2768    0.2610    1.1786 O   0  0  0  0  0  0  0  0  0  0  0  0
    3.5777   -0.3194    0.3410 N   0  0  0  0  0  0  0  0  0  0  0  0
   -2.4486    0.1138   -0.6235 C   0  0  0  0  0  0  0  0  0  0  0  0
   -1.0853   -0.3313   -0.0826 C   0  0  0  0  0  0  0  0  0  0  0  0
   -3.5728   -0.2423    0.3525 C   0  0  0  0  0  0  0  0  0  0  0  0
    0.0754    0.0334   -1.0136 C   0  0  0  0  0  0  0  0  0  0  0  0
   -4.9552    0.2078   -0.1251 C   0  0  0  0  0  0  0  0  0  0  0  0
    1.4099   -0.4235   -0.4921 C   0  0  0  0  0  0  0  0  0  0  0  0
   -6.0669   -0.0806    0.8718 C   0  0  0  0  0  0  0  0  0  0  0  0
    2.4229    0.3750   -0.1332 C   0  0  0  0  0  0  0  0  0  0  0  0
    2.5810    1.8514   -0.1498 C   0  0  0  0  0  0  0  0  0  0  0  0
  1  3  1  0
  2  3  2  0
  3 11  1  0
  4  5  1  0
  4  6  1  0
  5  7  1  0
  6  8  1  0
  7  9  1  0
  8 10  1  0
  9 11  2  0
 11 12  1  0
M  CHG  2   1  -1   3   1
M  END
>  <PUBCHEM_COMPOUND_CID>  (1) 
20953

>  <PUBCHEM_CONFORMER_RMSD>  (1) 
0.6

>  <PUBCHEM_CONFORMER_DIVERSEORDER>  (1) 
4
47
109
146
99
107
150
80
133
110
148
134
144
97
14
28
147
32
69
13
7
149
62
143
5
75
145
106
1
39
142
114
85
57
111
67
120
132
50
84
48
24
100
131
43
81
79
2
89
25
93
92
118
88
35
103
33
101
71
73
37
30
55
139
15
65
36
125
23
61
122
64
21
104
124
102
19
34
76
68
78
49
6
121
138
113
135
16
70
42
96
59
123
46
141
22
58
3
91
41
17
63
27
74
72
60
31
119
115
9
77
90
26
10
98
45
129
44
95
52
11
127
18
126
82
8
112
108
117
51
40
86
29
56
20
140
87
53
83
66
12
105
94
136
137
128
116
38
54
130

>  <PUBCHEM_MMFF94_PARTIAL_CHARGES>  (1) 
8
1 -0.52
11 0.07
12 0.14
2 -0.52
23 0.15
3 0.84
7 0.14
9 -0.29

>  <PUBCHEM_EFFECTIVE_ROTOR_COUNT>  (1) 
6

>  <PUBCHEM_PHARMACOPHORE_FEATURES>  (1) 
6
1 1 acceptor
1 1 anion
1 10 hydrophobe
1 2 acceptor
3 4 6 8 hydrophobe
3 5 7 9 hydrophobe

>  <PUBCHEM_HEAVY_ATOM_COUNT>  (1) 
12

>  <PUBCHEM_ATOM_DEF_STEREO_COUNT>  (1) 
0

>  <PUBCHEM_ATOM_UDEF_STEREO_COUNT>  (1) 
0

>  <PUBCHEM_BOND_DEF_STEREO_COUNT>  (1) 
0

>  <PUBCHEM_BOND_UDEF_STEREO_COUNT>  (1) 
1

>  <PUBCHEM_ISOTOPIC_ATOM_COUNT>  (1) 
0

>  <PUBCHEM_COMPONENT_COUNT>  (1) 
1

>  <PUBCHEM_CACTVS_TAUTO_COUNT>  (1) 
1

>  <PUBCHEM_CONFORMER_ID>  (1) 
000051D900000004

>  <PUBCHEM_MMFF94_ENERGY>  (1) 
12.3945

>  <PUBCHEM_FEATURE_SELFOVERLAP>  (1) 
30.536

>  <PUBCHEM_SHAPE_FINGERPRINT>  (1) 
10354089 29 18343585161503805880
114248 4 10592039155287793335
12251169 10 18411415128990352302
12714333 28 12535343497787974659
13690532 89 15213018250166798379
14123238 8 12751517384256752281
14251718 22 11602831211240669291
14252887 29 18187085014149221610
15242433 33 8214141846239443537
17834072 33 8862937265294895137
17834076 25 14189575238999382723
20724930 37 18060139829690846863
212847 35 17846781818829757041
22485316 2 8934998162078427061
23402539 116 18259699009227749527
23402655 69 10807939258428217845
23557571 272 13542477448632679817
42 15 17749108889846672583
42788 4 15841834443571355199
5374978 207 18335422382815852593

>  <PUBCHEM_SHAPE_MULTIPOLES>  (1) 
230.23
12.03
1.09
0.92
12.46
0.3
-0.04
-0.43
-4.08
-1.38
0.03
-0.02
0.01
0.14

>  <PUBCHEM_SHAPE_SELFOVERLAP>  (1) 
425.924

>  <PUBCHEM_SHAPE_VOLUME>  (1) 
146.1

>  <PUBCHEM_COORDINATE_TYPE>  (1) 
2
5
10

$$$$
