20967
     RDKit          3D

 13 12  0  0  0  0  0  0  0  0999 V2000
   -5.0915   -2.6366   -0.1761 O   0  0  0  0  0  0  0  0  0  0  0  0
    1.8526    0.2198   -0.2958 C   0  0  0  0  0  0  0  0  0  0  0  0
    0.8504    1.3036    0.1172 C   0  0  0  0  0  0  0  0  0  0  0  0
    3.2690    0.4765    0.2255 C   0  0  0  0  0  0  0  0  0  0  0  0
   -0.5818    1.0120   -0.3384 C   0  0  0  0  0  0  0  0  0  0  0  0
    4.2578   -0.6413   -0.1234 C   0  0  0  0  0  0  0  0  0  0  0  0
   -1.5925    2.0670    0.1300 C   0  0  0  0  0  0  0  0  0  0  0  0
    5.7106   -0.4037    0.2961 C   0  0  0  0  0  0  0  0  0  0  0  0
   -3.0549    1.7765   -0.2251 C   0  0  0  0  0  0  0  0  0  0  0  0
    6.6575   -1.5128   -0.1341 C   0  0  0  0  0  0  0  0  0  0  0  0
   -3.5731    0.5154    0.4048 C   0  0  0  0  0  0  0  0  0  0  0  0
   -4.1130   -0.4884   -0.2967 C   0  0  0  0  0  0  0  0  0  0  0  0
   -4.5911   -1.6880    0.4160 C   0  0  0  0  0  0  0  0  0  0  0  0
  1 13  2  0
  2  3  1  0
  2  4  1  0
  3  5  1  0
  4  6  1  0
  5  7  1  0
  6  8  1  0
  7  9  1  0
  8 10  1  0
  9 11  1  0
 11 12  2  0
 12 13  1  0
M  END
>  <PUBCHEM_COMPOUND_CID>  (1) 
20967

>  <PUBCHEM_CONFORMER_RMSD>  (1) 
0.8

>  <PUBCHEM_CONFORMER_DIVERSEORDER>  (1) 
1
301
2
96
166
296
39
307
178
142
229
54
5
298
327
106
228
37
193
310
11
306
253
264
136
86
288
8
201
303
4
259
12
250
169
70
176
113
308
217
7
318
22
320
75
135
214
93
31
170
314
140
291
132
192
162
266
76
315
95
9
206
262
92
234
43
158
87
21
328
139
148
269
249
302
27
69
268
183
279
195
134
84
207
38
149
36
260
172
237
48
188
52
146
198
177
184
316
63
276
116
141
275
49
144
261
3
300
241
235
105
173
277
71
51
25
125
274
233
319
199
91
111
197
331
282
83
256
243
270
77
131
35
14
18
322
209
85
186
180
211
80
147
263
151
297
200
317
16
292
82
103
208
89
272
220
44
287
160
61
127
50
114
230
121
6
47
284
251
66
41
232
72
68
239
216
252
267
137
34
224
273
215
88
59
60
126
281
81
117
254
247
157
90
65
255
227
289
213
304
143
286
104
244
257
204
74
24
226
159
101
112
313
182
309
189
321
210
248
203
202
129
185
130
324
152
29
145
64
33
97
294
323
26
222
28
19
163
242
94
67
32
223
155
326
218
219
156
45
20
42
100
120
13
295
128
164
168
17
312
165
225
325
109
40
124
30
194
123
271
122
265
73
283
187
10
150
153
196
299
56
175
190
115
171
280
118
58
179
55
99
240
167
258
23
246
98
79
78
62
174
236
293
133
231
305
191
330
53
107
154
46
245
108
15
138
110
285
329
278
119
181
161
221
238
290
212
102
311
205
57

>  <PUBCHEM_MMFF94_PARTIAL_CHARGES>  (1) 
8
1 -0.57
11 -0.29
12 -0.14
13 0.5
33 0.15
34 0.15
35 0.06
9 0.14

>  <PUBCHEM_EFFECTIVE_ROTOR_COUNT>  (1) 
9

>  <PUBCHEM_PHARMACOPHORE_FEATURES>  (1) 
2
1 1 acceptor
1 10 hydrophobe

>  <PUBCHEM_HEAVY_ATOM_COUNT>  (1) 
13

>  <PUBCHEM_ATOM_DEF_STEREO_COUNT>  (1) 
0

>  <PUBCHEM_ATOM_UDEF_STEREO_COUNT>  (1) 
0

>  <PUBCHEM_BOND_DEF_STEREO_COUNT>  (1) 
0

>  <PUBCHEM_BOND_UDEF_STEREO_COUNT>  (1) 
1

>  <PUBCHEM_ISOTOPIC_ATOM_COUNT>  (1) 
0

>  <PUBCHEM_COMPONENT_COUNT>  (1) 
1

>  <PUBCHEM_CACTVS_TAUTO_COUNT>  (1) 
1

>  <PUBCHEM_CONFORMER_ID>  (1) 
000051E700000001

>  <PUBCHEM_MMFF94_ENERGY>  (1) 
-0.0101

>  <PUBCHEM_FEATURE_SELFOVERLAP>  (1) 
10.148

>  <PUBCHEM_SHAPE_FINGERPRINT>  (1) 
11046707 91 18410011044199745857
117890 112 9367342635632058866
12757275 245 18407760326791529393
13167372 99 10303806580551059090
13288520 33 18410012122125689461
13740256 8 18412263934924600832
13911882 115 17917438579662662870
14251718 22 18334859403388283008
14251732 16 18411980291506344488
14251740 79 17167869711554207627
14729087 3 10665238064324181942
15880784 105 18343023319398785440
17780758 139 17917716781831745169
17834072 33 18259991461851062572
20281389 69 9943805586515717366
20621476 21 18059306370340210542
20621476 30 18408326575148569402
20645477 56 10881408612559339829
21054139 6 18040715853634073946
21426921 1 18335700486370245861
220451 1 18115031780056805312
22896161 15 18410012161466060884
23402539 116 16805608014866079916
23403322 49 18335982056194134011
23559900 14 18337944688407896505
2916195 48 8718530710906226852
49783359 22 18413106143598516208
5104073 3 18131070445775111720
559249 180 18409166602674930397
57483677 66 18334856061824462690
59345605 10 18411417315054904696
59345606 119 18410856568472577157
7062679 117 18333735706398554768
7062679 6 10447926191831203026

>  <PUBCHEM_SHAPE_MULTIPOLES>  (1) 
261.66
15.66
2.3
0.68
16.35
0.78
-0.01
12
-0.41
-3.6
0.02
-0.05
-0.01
0.17

>  <PUBCHEM_SHAPE_SELFOVERLAP>  (1) 
472.081

>  <PUBCHEM_SHAPE_VOLUME>  (1) 
167.8

>  <PUBCHEM_COORDINATE_TYPE>  (1) 
2
5
10

$$$$
