20974
     RDKit          3D

 14 14  0  0  0  0  0  0  0  0999 V2000
    2.8135    2.4690    0.0004 O   0  0  0  0  0  0  0  0  0  0  0  0
    1.1936   -2.8392    0.0006 O   0  0  0  0  0  0  0  0  0  0  0  0
    2.8737   -1.4262   -0.0003 O   0  0  0  0  0  0  0  0  0  0  0  0
   -3.7560    0.8974    0.0004 O   0  0  0  0  0  0  0  0  0  0  0  0
   -3.3383   -1.2578   -0.0003 O   0  0  0  0  0  0  0  0  0  0  0  0
    1.6438   -1.6692    0.0002 N   0  0  0  0  0  0  0  0  0  0  0  0
   -2.9503   -0.0645    0.0001 N   0  0  0  0  0  0  0  0  0  0  0  0
    1.1821    0.7384   -0.0003 C   0  0  0  0  0  0  0  0  0  0  0  0
    0.7282   -0.5806   -0.0004 C   0  0  0  0  0  0  0  0  0  0  0  0
    0.2670    1.7911   -0.0001 C   0  0  0  0  0  0  0  0  0  0  0  0
   -0.6411   -0.8470   -0.0002 C   0  0  0  0  0  0  0  0  0  0  0  0
   -1.5563    0.2058   -0.0001 C   0  0  0  0  0  0  0  0  0  0  0  0
    2.6423    1.0581   -0.0001 C   0  0  0  0  0  0  0  0  0  0  0  0
   -1.1021    1.5247    0.0000 C   0  0  0  0  0  0  0  0  0  0  0  0
  1 13  1  0
  2  6  1  0
  3  6  2  0
  4  7  1  0
  5  7  2  0
  6  9  1  0
  7 12  1  0
  8  9  2  0
  8 10  1  0
  8 13  1  0
  9 11  1  0
 10 14  2  0
 11 12  2  0
 12 14  1  0
M  CHG  4   2  -1   4  -1   6   1   7   1
M  END
>  <PUBCHEM_COMPOUND_CID>  (1) 
20974

>  <PUBCHEM_CONFORMER_RMSD>  (1) 
0.6

>  <PUBCHEM_CONFORMER_DIVERSEORDER>  (1) 
1

>  <PUBCHEM_MMFF94_PARTIAL_CHARGES>  (1) 
18
1 -0.68
10 -0.15
11 -0.15
12 0.13
13 0.42
14 -0.15
15 0.15
16 0.15
19 0.15
2 -0.52
20 0.4
3 -0.52
4 -0.52
5 -0.52
6 0.91
7 0.91
8 -0.14
9 0.13

>  <PUBCHEM_EFFECTIVE_ROTOR_COUNT>  (1) 
3

>  <PUBCHEM_PHARMACOPHORE_FEATURES>  (1) 
9
1 1 acceptor
1 1 donor
1 2 acceptor
1 2 anion
1 3 acceptor
1 4 acceptor
1 4 anion
1 5 acceptor
6 8 9 10 11 12 14 rings

>  <PUBCHEM_HEAVY_ATOM_COUNT>  (1) 
14

>  <PUBCHEM_ATOM_DEF_STEREO_COUNT>  (1) 
0

>  <PUBCHEM_ATOM_UDEF_STEREO_COUNT>  (1) 
0

>  <PUBCHEM_BOND_DEF_STEREO_COUNT>  (1) 
0

>  <PUBCHEM_BOND_UDEF_STEREO_COUNT>  (1) 
0

>  <PUBCHEM_ISOTOPIC_ATOM_COUNT>  (1) 
0

>  <PUBCHEM_COMPONENT_COUNT>  (1) 
1

>  <PUBCHEM_CACTVS_TAUTO_COUNT>  (1) 
1

>  <PUBCHEM_CONFORMER_ID>  (1) 
000051EE00000001

>  <PUBCHEM_MMFF94_ENERGY>  (1) 
52.4007

>  <PUBCHEM_FEATURE_SELFOVERLAP>  (1) 
45.836

>  <PUBCHEM_SHAPE_FINGERPRINT>  (1) 
10608611 8 18335415747218071909
10967382 1 18338797951994874021
10980938 120 18411419539805785481
11471102 20 18410288086569617261
13380535 76 18263359364102153330
13897977 150 18409727382868332325
14251717 144 18411411851840803455
14325111 11 18338516442859196865
14576447 43 17913472808956997623
15219456 202 18334290955444212797
15442244 35 18124598583200847729
15536298 74 18344146986249564148
161256 15 18335983060631250252
16945 1 18266459802124374756
17990270 104 18266176132540812162
19021347 11 18338515356031686140
193761 8 18194682566467080260
20201158 50 18336264531371061275
20645476 183 17680441240597409692
20645477 70 18341609300823382159
20871998 22 18054512404763364478
21501502 16 18339365149813759217
21650355 55 17397242955377513850
2334 1 18266741466079867306
23402655 69 18341317947796482709
23463225 33 18335696156989898752
23552423 10 18336830796938767909
23559900 14 17044286473331089870
2748010 2 18265062503445269902
3071541 37 18334862744287381044
528862 383 18335412495806035274
528886 8 18267017443588090544
53812653 166 18199185272688382560
63268167 104 18413111666953060281
7364860 26 18341612586109145436
81228 2 17189247198094121800

>  <PUBCHEM_SHAPE_MULTIPOLES>  (1) 
248.8
4.89
2.52
0.57
2.94
0.67
0
-0.44
0
-1.78
0
-0.01
-0.03
0

>  <PUBCHEM_SHAPE_SELFOVERLAP>  (1) 
526.755

>  <PUBCHEM_SHAPE_VOLUME>  (1) 
139.7

>  <PUBCHEM_COORDINATE_TYPE>  (1) 
2
5
10

$$$$
