2097
     RDKit          3D

 16 16  0  0  1  0  0  0  0  0999 V2000
   -5.2339   -0.7311    0.1123 O   0  0  0  0  0  0  0  0  0  0  0  0
   -3.2710   -1.8490    0.2946 O   0  0  0  0  0  0  0  0  0  0  0  0
    2.4713    0.2938    0.3099 N   0  0  0  0  0  0  0  0  0  0  0  0
   -3.2064    0.5788    0.0344 C   0  0  0  0  0  0  0  0  0  0  0  0
   -1.7187    0.5040    0.1070 C   0  0  0  0  0  0  0  0  0  0  0  0
    1.0570    0.3650    0.2412 C   0  0  0  0  0  0  0  0  0  0  0  0
   -1.0376    1.1435    1.1428 C   0  0  0  0  0  0  0  0  0  0  0  0
   -1.0083   -0.2053   -0.8613 C   0  0  0  0  0  0  0  0  0  0  0  0
   -3.7370    1.2544   -1.2467 C   0  0  0  0  0  0  0  0  0  0  0  0
    0.3539    1.0738    1.2101 C   0  0  0  0  0  0  0  0  0  0  0  0
    0.3832   -0.2751   -0.7941 C   0  0  0  0  0  0  0  0  0  0  0  0
    3.3046   -0.4095   -0.6343 C   0  0  0  0  0  0  0  0  0  0  0  0
   -3.8771   -0.7932    0.1647 C   0  0  0  0  0  0  0  0  0  0  0  0
    4.7440   -0.3077   -0.2083 C   0  0  0  0  0  0  0  0  0  0  0  0
    5.1031   -0.8922    1.1284 C   0  0  0  0  0  0  0  0  0  0  0  0
    5.6729    0.2501   -1.0005 C   0  0  0  0  0  0  0  0  0  0  0  0
  1 13  1  0
  2 13  2  0
  3  6  1  0
  3 12  1  0
  4  5  1  0
  4  9  1  0
  4 13  1  0
  5  7  2  0
  5  8  1  0
  6 10  2  0
  6 11  1  0
  7 10  1  0
  8 11  2  0
 12 14  1  0
 14 15  1  0
 14 16  2  0
M  END
>  <PUBCHEM_COMPOUND_CID>  (1) 
2097

>  <PUBCHEM_CONFORMER_RMSD>  (1) 
0.6

>  <PUBCHEM_CONFORMER_DIVERSEORDER>  (1) 
4
55
47
82
93
80
85
68
28
57
23
29
21
56
76
81
1
84
46
2
86
36
32
54
40
5
78
14
12
77
83
70
63
59
61
87
60
88
11
73
74
6
72
10
44
35
75
20
15
30
62
89
43
79
9
71
48
7
37
49
92
22
53
24
91
38
51
90
52
17
66
8
16
67
13
27
3
41
65
69
33
18
19
39
50
34
31
26
64
58
42
45
25

>  <PUBCHEM_MMFF94_PARTIAL_CHARGES>  (1) 
23
1 -0.65
10 -0.15
11 -0.15
12 0.51
13 0.66
14 -0.28
15 0.14
16 -0.3
18 0.15
19 0.15
2 -0.57
23 0.15
24 0.15
25 0.4
3 -0.87
31 0.15
32 0.15
33 0.5
4 0.2
5 -0.14
6 0.1
7 -0.15
8 -0.15

>  <PUBCHEM_EFFECTIVE_ROTOR_COUNT>  (1) 
5

>  <PUBCHEM_PHARMACOPHORE_FEATURES>  (1) 
7
1 1 acceptor
1 2 acceptor
1 3 cation
1 3 donor
1 9 hydrophobe
3 1 2 13 anion
6 5 6 7 8 10 11 rings

>  <PUBCHEM_HEAVY_ATOM_COUNT>  (1) 
16

>  <PUBCHEM_ATOM_DEF_STEREO_COUNT>  (1) 
0

>  <PUBCHEM_ATOM_UDEF_STEREO_COUNT>  (1) 
1

>  <PUBCHEM_BOND_DEF_STEREO_COUNT>  (1) 
0

>  <PUBCHEM_BOND_UDEF_STEREO_COUNT>  (1) 
0

>  <PUBCHEM_ISOTOPIC_ATOM_COUNT>  (1) 
0

>  <PUBCHEM_COMPONENT_COUNT>  (1) 
1

>  <PUBCHEM_CACTVS_TAUTO_COUNT>  (1) 
1

>  <PUBCHEM_CONFORMER_ID>  (1) 
0000083100000004

>  <PUBCHEM_MMFF94_ENERGY>  (1) 
42.9892

>  <PUBCHEM_FEATURE_SELFOVERLAP>  (1) 
35.579

>  <PUBCHEM_SHAPE_FINGERPRINT>  (1) 
10465860 250 18272367572595048657
10803635 8 18260821579801889839
10912923 1 18113903732608357336
11287383 113 18334013925916895988
11401426 45 16845285017087978613
11543360 7 17967256428992852852
12032990 46 17918277558030573712
12236239 1 16877660154316192525
124424 183 18202559588412141085
13167823 11 17822006493562342450
13214271 11 17346604041264309617
13288520 33 18260550030589402823
13675066 3 17346880044220472680
13740256 8 18059858423523406975
13760787 19 18187078421458571523
13760787 5 17274818090500959193
13862211 1 17561075899937408518
14123238 8 18259988180279387262
1420 363 17704077287609478038
14251718 22 18333736840417659556
14252887 29 16702311135293463710
17834072 33 18040719186296203572
1813 80 16630259068515065808
19026448 5 17821447932959787932
200 152 17530966877996614496
20300324 65 17313104137757740773
20871999 31 18113612383501787717
21029758 27 17988928881139626456
22094290 60 18113335306328962549
22485316 2 18040714745247278278
2297311 6 17346331383950468220
23175994 123 17917994996717456641
23402539 116 16588021290705069436
23536379 177 17749105561046694484
23557571 272 18333734593907528261
23559900 14 18335698415863258176
26918003 58 18273214196537841091
69090 78 15936412243280172362

>  <PUBCHEM_SHAPE_MULTIPOLES>  (1) 
312.55
11.73
1.22
1.17
8.96
0.03
0.08
3.01
0.74
-1.02
-0.27
0.3
-0.13
0.38

>  <PUBCHEM_SHAPE_SELFOVERLAP>  (1) 
636.663

>  <PUBCHEM_SHAPE_VOLUME>  (1) 
180.7

>  <PUBCHEM_COORDINATE_TYPE>  (1) 
2
5
10

$$$$
