20987
     RDKit          3D

 18 19  0  0  0  0  0  0  0  0999 V2000
    6.2721    1.0622    0.7052 O   0  0  0  0  0  0  0  0  0  0  0  0
    4.3348   -0.1741    0.0348 N   0  0  0  0  0  0  0  0  0  0  0  0
   -1.2099   -0.1448   -0.6206 N   0  0  0  0  0  0  0  0  0  0  0  0
   -1.7698    0.0755    0.4792 N   0  0  0  0  0  0  0  0  0  0  0  0
    2.9494   -0.1674   -0.1301 C   0  0  0  0  0  0  0  0  0  0  0  0
    2.2241   -1.3507    0.0092 C   0  0  0  0  0  0  0  0  0  0  0  0
    2.2894    1.0236   -0.4329 C   0  0  0  0  0  0  0  0  0  0  0  0
    0.1859   -0.1522   -0.4564 C   0  0  0  0  0  0  0  0  0  0  0  0
    0.8389   -1.3431   -0.1544 C   0  0  0  0  0  0  0  0  0  0  0  0
    0.9042    1.0312   -0.5964 C   0  0  0  0  0  0  0  0  0  0  0  0
    5.1810   -1.3556   -0.2800 C   0  0  0  0  0  0  0  0  0  0  0  0
   -3.1584    0.0832    0.3163 C   0  0  0  0  0  0  0  0  0  0  0  0
    5.0624    0.9497    0.5193 C   0  0  0  0  0  0  0  0  0  0  0  0
   -3.8837   -1.1000    0.4563 C   0  0  0  0  0  0  0  0  0  0  0  0
   -3.8185    1.2741    0.0139 C   0  0  0  0  0  0  0  0  0  0  0  0
   -5.2691   -1.0923    0.2936 C   0  0  0  0  0  0  0  0  0  0  0  0
   -5.2038    1.2820   -0.1485 C   0  0  0  0  0  0  0  0  0  0  0  0
   -5.9291    0.0987   -0.0087 C   0  0  0  0  0  0  0  0  0  0  0  0
  1 13  2  0
  2  5  1  0
  2 11  1  0
  2 13  1  0
  3  4  2  0
  3  8  1  0
  4 12  1  0
  5  6  2  0
  5  7  1  0
  6  9  1  0
  7 10  2  0
  8  9  2  0
  8 10  1  0
 12 14  2  0
 12 15  1  0
 14 16  1  0
 15 17  2  0
 16 18  2  0
 17 18  1  0
M  END
>  <PUBCHEM_COMPOUND_CID>  (1) 
20987

>  <PUBCHEM_CONFORMER_RMSD>  (1) 
0.6

>  <PUBCHEM_CONFORMER_DIVERSEORDER>  (1) 
2
7
10
6
4
11
5
1
13
8
3
12
9

>  <PUBCHEM_MMFF94_PARTIAL_CHARGES>  (1) 
28
1 -0.57
10 -0.15
11 0.3
12 0.18
13 0.57
14 -0.15
15 -0.15
16 -0.15
17 -0.15
18 -0.15
19 0.15
2 -0.48
20 0.15
21 0.15
22 0.15
26 0.06
27 0.15
28 0.15
29 0.15
3 -0.18
30 0.15
31 0.15
4 -0.18
5 0.12
6 -0.15
7 -0.15
8 0.18
9 -0.15

>  <PUBCHEM_EFFECTIVE_ROTOR_COUNT>  (1) 
4

>  <PUBCHEM_PHARMACOPHORE_FEATURES>  (1) 
3
1 1 acceptor
6 12 14 15 16 17 18 rings
6 5 6 7 8 9 10 rings

>  <PUBCHEM_HEAVY_ATOM_COUNT>  (1) 
18

>  <PUBCHEM_ATOM_DEF_STEREO_COUNT>  (1) 
0

>  <PUBCHEM_ATOM_UDEF_STEREO_COUNT>  (1) 
0

>  <PUBCHEM_BOND_DEF_STEREO_COUNT>  (1) 
0

>  <PUBCHEM_BOND_UDEF_STEREO_COUNT>  (1) 
0

>  <PUBCHEM_ISOTOPIC_ATOM_COUNT>  (1) 
0

>  <PUBCHEM_COMPONENT_COUNT>  (1) 
1

>  <PUBCHEM_CACTVS_TAUTO_COUNT>  (1) 
1

>  <PUBCHEM_CONFORMER_ID>  (1) 
000051FB00000002

>  <PUBCHEM_MMFF94_ENERGY>  (1) 
59.1161

>  <PUBCHEM_FEATURE_SELFOVERLAP>  (1) 
15.223

>  <PUBCHEM_SHAPE_FINGERPRINT>  (1) 
10 15 18337103566639463600
106641 1 18188205520130918328
11315181 36 17894352211407699617
11401426 45 18334576841288805423
11796584 16 14706927341378860504
12107183 9 17615687332766571561
12236239 1 18060699481267692319
12507557 5 18411703201332624873
12596602 18 18272370871114121106
12916748 109 17418100914267862440
13073987 5 18187929422547967379
13167823 11 18335139804370150483
13403585 85 18409726266388150265
13533116 47 17203050695277910654
13675066 3 18413389847631572644
14251732 16 18340204188775404019
14341114 176 18411424998630032539
15048467 5 17988921202391943120
15196674 1 18410013217041435718
15788980 27 18259992565235404387
17834072 33 18272931626355103943
17844677 252 18272378533483593080
18222031 100 17240487996540133358
19489759 90 18187364329263576769
200 152 18343582937090372707
20645477 70 18199470973881543462
21033648 29 17774706589819765921
21267235 1 18334587836700716147
21709351 56 18260827111904137109
22224240 67 18335695088007110026
23402539 116 18040713671616204837
23559900 14 18337386141159502297
26918003 58 18187086174238459715
2916195 48 18201712994449879800
300161 21 18260824874363409703
314173 85 16805324379188178853
34797466 226 17131839793443244516
351380 180 18335140899370299345
3545911 37 18408606938076104413
4073 2 18113625611378924875
4214541 1 18335141969218043717
42788 4 18412826875971290583
5104073 3 18335988554205496499
542803 24 15339121238640376867
67856867 119 18261958573736203069
7495541 125 16845286202530594579
9709674 26 18335995207474412195
9971528 1 18186806850787144020

>  <PUBCHEM_SHAPE_MULTIPOLES>  (1) 
349.62
15.2
1.48
0.74
0.03
0.09
0
-1.49
2.31
-0.21
0
-0.17
-0.05
0.66

>  <PUBCHEM_SHAPE_SELFOVERLAP>  (1) 
744.008

>  <PUBCHEM_SHAPE_VOLUME>  (1) 
193.8

>  <PUBCHEM_COORDINATE_TYPE>  (1) 
2
5
10

$$$$
