20996
     RDKit          3D

 16 15  0  0  0  0  0  0  0  0999 V2000
    8.6092   -1.5323   -0.5342 Cl  0  0  0  0  0  0  0  0  0  0  0  0
   -0.5788    0.5852   -0.1390 C   0  0  0  0  0  0  0  0  0  0  0  0
    0.7047   -0.1468    0.2619 C   0  0  0  0  0  0  0  0  0  0  0  0
   -1.8197   -0.2145    0.2660 C   0  0  0  0  0  0  0  0  0  0  0  0
    1.9806    0.6165   -0.1089 C   0  0  0  0  0  0  0  0  0  0  0  0
   -3.1354    0.4591   -0.1356 C   0  0  0  0  0  0  0  0  0  0  0  0
    3.2629   -0.1502    0.2250 C   0  0  0  0  0  0  0  0  0  0  0  0
   -4.4139   -0.2854    0.2631 C   0  0  0  0  0  0  0  0  0  0  0  0
    4.5389    0.6186   -0.1337 C   0  0  0  0  0  0  0  0  0  0  0  0
   -5.7276    0.3603   -0.1874 C   0  0  0  0  0  0  0  0  0  0  0  0
    5.8229   -0.1355    0.2230 C   0  0  0  0  0  0  0  0  0  0  0  0
   -6.9663   -0.4521    0.1958 C   0  0  0  0  0  0  0  0  0  0  0  0
    7.0636    0.6968   -0.1180 C   0  0  0  0  0  0  0  0  0  0  0  0
   -8.2405    0.1887   -0.3558 C   0  0  0  0  0  0  0  0  0  0  0  0
    8.3714    0.0257    0.2897 C   0  0  0  0  0  0  0  0  0  0  0  0
   -9.4719   -0.6341   -0.0117 C   0  0  0  0  0  0  0  0  0  0  0  0
  1 15  1  0
  2  3  1  0
  2  4  1  0
  3  5  1  0
  4  6  1  0
  5  7  1  0
  6  8  1  0
  7  9  1  0
  8 10  1  0
  9 11  1  0
 10 12  1  0
 11 13  1  0
 12 14  1  0
 13 15  1  0
 14 16  1  0
M  END
>  <PUBCHEM_COMPOUND_CID>  (1) 
20996

>  <PUBCHEM_CONFORMER_RMSD>  (1) 
1.4

>  <PUBCHEM_CONFORMER_DIVERSEORDER>  (1) 
1
14
4
35
28
13
32
23
2
36
31
20
27
44
11
40
26
37
42
25
19
3
43
38
5
12
8
41
15
6
7
21
24
29
39
34
9
17
18
10
33
22
16
30

>  <PUBCHEM_MMFF94_PARTIAL_CHARGES>  (1) 
2
1 -0.29
15 0.29

>  <PUBCHEM_EFFECTIVE_ROTOR_COUNT>  (1) 
13

>  <PUBCHEM_PHARMACOPHORE_FEATURES>  (1) 
1
1 16 hydrophobe

>  <PUBCHEM_HEAVY_ATOM_COUNT>  (1) 
16

>  <PUBCHEM_ATOM_DEF_STEREO_COUNT>  (1) 
0

>  <PUBCHEM_ATOM_UDEF_STEREO_COUNT>  (1) 
0

>  <PUBCHEM_BOND_DEF_STEREO_COUNT>  (1) 
0

>  <PUBCHEM_BOND_UDEF_STEREO_COUNT>  (1) 
0

>  <PUBCHEM_ISOTOPIC_ATOM_COUNT>  (1) 
0

>  <PUBCHEM_COMPONENT_COUNT>  (1) 
1

>  <PUBCHEM_CACTVS_TAUTO_COUNT>  (1) 
1

>  <PUBCHEM_CONFORMER_ID>  (1) 
0000520400000001

>  <PUBCHEM_MMFF94_ENERGY>  (1) 
-2.9249

>  <PUBCHEM_FEATURE_SELFOVERLAP>  (1) 
5.074

>  <PUBCHEM_SHAPE_FINGERPRINT>  (1) 
11638347 137 17489590043904726006
12091667 2 17894630362480558937
13885169 127 18411138004958313817
14123256 10 18410292510190584233
14202775 3 18412268345930653015
14251764 18 18201442466922741928
14251764 46 18410855468718096386
155225 1 10665238056061587254
15690457 1 18060698394598891918
18006028 8 18342738520086082857
20621476 8 18187363224866099055
21095086 128 18342457040824668591
21315763 28 18343584044570021224
21362267 20 18130504232327988967
22224240 67 11455888062068157796
232437 2 18342458149353531335
23521765 1 18341894099703664489
246663 6 18334577936405252114
28498 318 18409166597878861766
33684 2 18410573985156725905
4325135 7 17603303756435559415
5283156 175 18202002119010997772
59682541 35 11743834776729908151
67123 10 18407759252590697965
8209 1 17822009813281697240

>  <PUBCHEM_SHAPE_MULTIPOLES>  (1) 
331.14
34.32
0.95
0.68
10.35
0.2
-0.01
8.11
-2.2
-1.27
-0.09
-0.13
0.03
0.5

>  <PUBCHEM_SHAPE_SELFOVERLAP>  (1) 
580.822

>  <PUBCHEM_SHAPE_VOLUME>  (1) 
216.1

>  <PUBCHEM_COORDINATE_TYPE>  (1) 
2
5
10

$$$$
