20999
     RDKit          3D

 14 14  0  0  0  0  0  0  0  0999 V2000
   -0.3997   -0.0689    0.1155 O   0  0  0  0  0  0  0  0  0  0  0  0
   -1.9836   -1.4276    1.0748 O   0  0  0  0  0  0  0  0  0  0  0  0
   -2.5669    0.4416   -0.1693 N   0  0  0  0  0  0  0  0  0  0  0  0
    4.4484    0.6647   -0.5111 N   0  0  0  0  0  0  0  0  0  0  0  0
   -4.0027    0.3292   -0.0542 C   0  0  0  0  0  0  0  0  0  0  0  0
   -4.5565   -0.5447   -1.1720 C   0  0  0  0  0  0  0  0  0  0  0  0
   -4.6491    1.7088   -0.0601 C   0  0  0  0  0  0  0  0  0  0  0  0
    0.6327   -0.9047    0.6506 C   0  0  0  0  0  0  0  0  0  0  0  0
    1.9682   -0.3548    0.2435 C   0  0  0  0  0  0  0  0  0  0  0  0
   -1.6811   -0.4458    0.4047 C   0  0  0  0  0  0  0  0  0  0  0  0
    2.6082    0.5694    1.0537 C   0  0  0  0  0  0  0  0  0  0  0  0
    2.5543   -0.7752   -0.9398 C   0  0  0  0  0  0  0  0  0  0  0  0
    3.8397    1.0461    0.6341 C   0  0  0  0  0  0  0  0  0  0  0  0
    3.7881   -0.2382   -1.2703 C   0  0  0  0  0  0  0  0  0  0  0  0
  1  8  1  0
  1 10  1  0
  2 10  2  0
  3  5  1  0
  3 10  1  0
  4 13  2  0
  4 14  1  0
  5  6  1  0
  5  7  1  0
  8  9  1  0
  9 11  2  0
  9 12  1  0
 11 13  1  0
 12 14  2  0
M  END
>  <PUBCHEM_COMPOUND_CID>  (1) 
20999

>  <PUBCHEM_CONFORMER_RMSD>  (1) 
0.6

>  <PUBCHEM_CONFORMER_DIVERSEORDER>  (1) 
1
38
39
8
18
41
12
27
2
40
21
35
31
37
20
13
36
30
34
26
3
33
19
11
24
22
23
7
25
43
32
6
42
14
15
28
17
16
29
9
10
4
5

>  <PUBCHEM_MMFF94_PARTIAL_CHARGES>  (1) 
17
1 -0.43
10 0.78
11 -0.15
12 -0.15
13 0.16
14 0.16
2 -0.57
22 0.37
25 0.15
26 0.15
27 0.15
28 0.15
3 -0.73
4 -0.62
5 0.3
8 0.42
9 -0.14

>  <PUBCHEM_EFFECTIVE_ROTOR_COUNT>  (1) 
5

>  <PUBCHEM_PHARMACOPHORE_FEATURES>  (1) 
5
1 2 acceptor
1 3 donor
1 4 acceptor
3 5 6 7 hydrophobe
6 4 9 11 12 13 14 rings

>  <PUBCHEM_HEAVY_ATOM_COUNT>  (1) 
14

>  <PUBCHEM_ATOM_DEF_STEREO_COUNT>  (1) 
0

>  <PUBCHEM_ATOM_UDEF_STEREO_COUNT>  (1) 
0

>  <PUBCHEM_BOND_DEF_STEREO_COUNT>  (1) 
0

>  <PUBCHEM_BOND_UDEF_STEREO_COUNT>  (1) 
0

>  <PUBCHEM_ISOTOPIC_ATOM_COUNT>  (1) 
0

>  <PUBCHEM_COMPONENT_COUNT>  (1) 
1

>  <PUBCHEM_CACTVS_TAUTO_COUNT>  (1) 
2

>  <PUBCHEM_CONFORMER_ID>  (1) 
0000520700000001

>  <PUBCHEM_MMFF94_ENERGY>  (1) 
22.9446

>  <PUBCHEM_FEATURE_SELFOVERLAP>  (1) 
25.371

>  <PUBCHEM_SHAPE_FINGERPRINT>  (1) 
10354089 29 14923950054839647172
10498660 4 18337103463191379189
10680689 15 18272936033698333835
114248 4 17775282789562288631
11471102 20 17632300081916201584
11543360 7 17632289103615828567
12251169 10 13984664762994538106
12616999 72 17060337439976538902
13675066 3 13479129081998427627
14252887 29 8214147360924548156
14576447 43 15769781256175115572
15188451 53 7997675473257528417
15375358 24 18411981385989463650
15477762 27 16415487038966802750
18186145 218 18060416889810357987
200 152 15770059423441601539
20279233 1 18342742935633969730
20432913 95 8718828703921294317
204376 136 17022621962177277387
20645477 56 18187088360097257923
20645477 70 17489595532561739678
20671657 53 14620790518190362027
20767249 442 18040433300097948938
20871999 31 17774709940421465391
21065199 12 12540692617667450869
212847 35 18187363190733350440
22289505 5 18060416876783667768
22485316 2 8286202747164676121
22646028 1 13039185896686253125
23402539 116 18341323431530527596
23402655 69 17703792500580089752
23500284 214 18041002821615084089
23557571 272 18338247066699779619
23559900 14 18260835882422975414
3060560 45 17489588961535751988
3268164 11 18337098017488865853
32948 21 18129948866583853372
351380 3 13183019631471381197
4028521 119 18341049631929660009
42 15 11241967066450185757
4990 188 17989207036016524198
522135 26 16917349221069720356
5281201 14 17989490718538125956
5924683 9 13335033724441173433
633830 44 18188770523026076119

>  <PUBCHEM_SHAPE_MULTIPOLES>  (1) 
266.41
10.7
1.26
1.12
5.51
0.25
-0.07
2.38
3.71
0.34
0.07
-0.13
-0.23
0.67

>  <PUBCHEM_SHAPE_SELFOVERLAP>  (1) 
535.94

>  <PUBCHEM_SHAPE_VOLUME>  (1) 
155.5

>  <PUBCHEM_COORDINATE_TYPE>  (1) 
2
5
10

$$$$
