20990
     RDKit          3D

 20 20  0  0  0  0  0  0  0  0999 V2000
   -3.8729   -0.9605    0.1548 O   0  0  0  0  0  0  0  0  0  0  0  0
   -3.2772    1.2058   -0.2723 O   0  0  0  0  0  0  0  0  0  0  0  0
    4.7533    1.1751    0.5617 O   0  0  0  0  0  0  0  0  0  0  0  0
   -1.6893   -0.4645    0.1388 N   0  0  0  0  0  0  0  0  0  0  0  0
    3.1396   -0.4920    0.3371 N   0  0  0  0  0  0  0  0  0  0  0  0
    5.4277   -0.9254   -0.1395 N   0  0  0  0  0  0  0  0  0  0  0  0
   -5.2482   -0.5983    0.0250 C   0  0  0  0  0  0  0  0  0  0  0  0
   -5.4747   -0.0453   -1.3813 C   0  0  0  0  0  0  0  0  0  0  0  0
   -6.0792   -1.8603    0.2465 C   0  0  0  0  0  0  0  0  0  0  0  0
   -5.5761    0.4538    1.0835 C   0  0  0  0  0  0  0  0  0  0  0  0
   -2.9617    0.0496   -0.0193 C   0  0  0  0  0  0  0  0  0  0  0  0
   -0.4562    0.2201    0.0456 C   0  0  0  0  0  0  0  0  0  0  0  0
    1.9418    0.1974    0.1459 C   0  0  0  0  0  0  0  0  0  0  0  0
    0.7250   -0.4785    0.2382 C   0  0  0  0  0  0  0  0  0  0  0  0
   -0.4525    1.5768   -0.2371 C   0  0  0  0  0  0  0  0  0  0  0  0
    1.9613    1.5630   -0.1379 C   0  0  0  0  0  0  0  0  0  0  0  0
    0.7641    2.2527   -0.3295 C   0  0  0  0  0  0  0  0  0  0  0  0
    4.4563    0.0112    0.2841 C   0  0  0  0  0  0  0  0  0  0  0  0
    6.8358   -0.5742   -0.2740 C   0  0  0  0  0  0  0  0  0  0  0  0
    5.0832   -2.3065   -0.4703 C   0  0  0  0  0  0  0  0  0  0  0  0
  1  7  1  0
  1 11  1  0
  2 11  2  0
  3 18  2  0
  4 11  1  0
  4 12  1  0
  5 13  1  0
  5 18  1  0
  6 18  1  0
  6 19  1  0
  6 20  1  0
  7  8  1  0
  7  9  1  0
  7 10  1  0
 12 14  2  0
 12 15  1  0
 13 14  1  0
 13 16  2  0
 15 17  2  0
 16 17  1  0
M  END
>  <PUBCHEM_COMPOUND_CID>  (1) 
20990

>  <PUBCHEM_CONFORMER_RMSD>  (1) 
0.8

>  <PUBCHEM_CONFORMER_DIVERSEORDER>  (1) 
2
24
53
18
29
35
65
44
47
17
59
23
9
31
20
36
56
52
14
63
11
28
6
7
54
61
8
57
42
19
41
62
21
64
34
40
48
38
22
26
27
15
39
60
25
50
37
46
1
13
45
16
55
58
66
51
33
43
49
30
32
10
5
3
12
4

>  <PUBCHEM_MMFF94_PARTIAL_CHARGES>  (1) 
23
1 -0.43
11 0.78
12 0.12
13 0.12
14 -0.15
15 -0.15
16 -0.15
17 -0.15
18 0.69
19 0.3
2 -0.57
20 0.3
3 -0.57
30 0.37
31 0.15
32 0.15
33 0.15
34 0.37
35 0.15
4 -0.55
5 -0.55
6 -0.66
7 0.28

>  <PUBCHEM_EFFECTIVE_ROTOR_COUNT>  (1) 
7

>  <PUBCHEM_PHARMACOPHORE_FEATURES>  (1) 
6
1 2 acceptor
1 3 acceptor
1 4 donor
1 5 donor
4 7 8 9 10 hydrophobe
6 12 13 14 15 16 17 rings

>  <PUBCHEM_HEAVY_ATOM_COUNT>  (1) 
20

>  <PUBCHEM_ATOM_DEF_STEREO_COUNT>  (1) 
0

>  <PUBCHEM_ATOM_UDEF_STEREO_COUNT>  (1) 
0

>  <PUBCHEM_BOND_DEF_STEREO_COUNT>  (1) 
0

>  <PUBCHEM_BOND_UDEF_STEREO_COUNT>  (1) 
0

>  <PUBCHEM_ISOTOPIC_ATOM_COUNT>  (1) 
0

>  <PUBCHEM_COMPONENT_COUNT>  (1) 
1

>  <PUBCHEM_CACTVS_TAUTO_COUNT>  (1) 
4

>  <PUBCHEM_CONFORMER_ID>  (1) 
000051FE00000002

>  <PUBCHEM_MMFF94_ENERGY>  (1) 
68.1269

>  <PUBCHEM_FEATURE_SELFOVERLAP>  (1) 
30.446

>  <PUBCHEM_SHAPE_FINGERPRINT>  (1) 
10968037 39 18260268555222353974
11315181 36 18272370893380098609
11963148 33 18408315592991611674
12091667 2 17095523994114511323
12166972 35 18202566210835487457
12236239 1 18059858380752971801
12516196 113 18411980273782955016
12596602 18 17846780727929091907
12616971 3 15769765875470408832
13288520 33 18408885140324717317
13533116 47 18131633404903665792
13685833 64 18410295821668580226
13740256 8 18335423482216411787
13862211 1 18333728005459221090
14123256 34 18334020514243909819
1420 363 18408324384398113722
14251764 18 17989204863417122136
14350574 20 18186521024982188381
15183329 4 18114175311669058235
17492 89 18049721820449926594
17844677 252 18342462529993586392
18006028 8 18343018887430430624
1813 80 17821731628371398188
18222031 100 18408879638044453808
19141452 34 18202560709193241102
19784866 240 18410862057456566721
200 152 18272087223601350497
20612939 158 17968382345890024629
20645477 70 18334012834499148705
21150785 3 17530689822841958110
21236236 1 18339642235618976745
21267235 1 18408328799909220171
21682296 61 18341619174383730047
21709351 56 18187356662857567687
22224240 67 17203601597942914822
23035841 295 18335421261644655378
23081809 10 17775286083955354369
23402539 116 17418089919410300841
23522609 53 18122095119510083932
23536379 177 18059858350345374483
23559900 14 18334851775109718649
2767999 5 10663817464239194674
29717793 49 18410009931402186092
3004659 81 17967814955652062220
335352 9 18408039603198600541
351380 3 18409445881984765306
4340502 62 14764350435877813204
4463277 17 18408323285203152844
465052 167 18272936016460650614
5104073 3 18128810842828152296
542803 24 14476963410676902177
5718773 13 18193554472771400938
59682541 35 18271235098295978298
59755656 215 18186796955030058507
59755656 520 10447922846046768336
9971528 1 18410006675896460384

>  <PUBCHEM_SHAPE_MULTIPOLES>  (1) 
379.04
17.01
1.87
0.82
1.12
0.05
-0.08
-8.6
-0.32
0.88
-0.19
-0.77
0.02
0.48

>  <PUBCHEM_SHAPE_SELFOVERLAP>  (1) 
773.208

>  <PUBCHEM_SHAPE_VOLUME>  (1) 
220.2

>  <PUBCHEM_COORDINATE_TYPE>  (1) 
2
5
10

$$$$
