21002
     RDKit          3D

 10 10  0  0  0  0  0  0  0  0999 V2000
    0.5918   -2.4961   -0.0005 S   0  0  0  0  0  0  0  0  0  0  0  0
    2.1577    1.5841   -0.0004 O   0  0  0  0  0  0  0  0  0  0  0  0
    2.3884   -0.5990    0.0005 O   0  0  0  0  0  0  0  0  0  0  0  0
    1.6726    0.4292   -0.0001 N   0  0  0  0  0  0  0  0  0  0  0  0
    0.2562    0.2795    0.0002 C   0  0  0  0  0  0  0  0  0  0  0  0
   -0.3535   -0.9750    0.0003 C   0  0  0  0  0  0  0  0  0  0  0  0
   -0.5254    1.4348    0.0001 C   0  0  0  0  0  0  0  0  0  0  0  0
   -1.7447   -1.0743    0.0000 C   0  0  0  0  0  0  0  0  0  0  0  0
   -1.9167    1.3356    0.0000 C   0  0  0  0  0  0  0  0  0  0  0  0
   -2.5264    0.0811   -0.0001 C   0  0  0  0  0  0  0  0  0  0  0  0
  1  6  1  0
  2  4  1  0
  3  4  2  0
  4  5  1  0
  5  6  2  0
  5  7  1  0
  6  8  1  0
  7  9  2  0
  8 10  2  0
  9 10  1  0
M  CHG  2   2  -1   4   1
M  END
>  <PUBCHEM_COMPOUND_CID>  (1) 
21002

>  <PUBCHEM_CONFORMER_RMSD>  (1) 
0.4

>  <PUBCHEM_CONFORMER_DIVERSEORDER>  (1) 
1

>  <PUBCHEM_MMFF94_PARTIAL_CHARGES>  (1) 
15
1 -0.28
10 -0.15
11 0.15
12 0.15
13 0.15
14 0.15
15 0.18
2 -0.52
3 -0.52
4 0.91
5 0.13
6 0.1
7 -0.15
8 -0.15
9 -0.15

>  <PUBCHEM_EFFECTIVE_ROTOR_COUNT>  (1) 
1

>  <PUBCHEM_PHARMACOPHORE_FEATURES>  (1) 
4
1 2 acceptor
1 2 anion
1 3 acceptor
6 5 6 7 8 9 10 rings

>  <PUBCHEM_HEAVY_ATOM_COUNT>  (1) 
10

>  <PUBCHEM_ATOM_DEF_STEREO_COUNT>  (1) 
0

>  <PUBCHEM_ATOM_UDEF_STEREO_COUNT>  (1) 
0

>  <PUBCHEM_BOND_DEF_STEREO_COUNT>  (1) 
0

>  <PUBCHEM_BOND_UDEF_STEREO_COUNT>  (1) 
0

>  <PUBCHEM_ISOTOPIC_ATOM_COUNT>  (1) 
0

>  <PUBCHEM_COMPONENT_COUNT>  (1) 
1

>  <PUBCHEM_CACTVS_TAUTO_COUNT>  (1) 
4

>  <PUBCHEM_CONFORMER_ID>  (1) 
0000520A00000001

>  <PUBCHEM_MMFF94_ENERGY>  (1) 
38.4445

>  <PUBCHEM_FEATURE_SELFOVERLAP>  (1) 
20.379

>  <PUBCHEM_SHAPE_FINGERPRINT>  (1) 
12897270 3 18410009918728157045
14325111 11 18410855473092457797
16945 1 18338517417800649991
193761 8 18050567339899672261
20871998 184 17839188750436981086
21040471 1 18338797939241886404
23552423 10 18336550417168291743
241688 4 17257933693575945307
2748010 2 18337955700365666735
369184 2 18341611550863875513
5084963 1 18202282498095873312
66348 1 18409730655443436307

>  <PUBCHEM_SHAPE_MULTIPOLES>  (1) 
192.93
3.1
2.24
0.6
0.02
0.73
0
-0.54
0
-0.76
0
0.05
0.05
0

>  <PUBCHEM_SHAPE_SELFOVERLAP>  (1) 
394.556

>  <PUBCHEM_SHAPE_VOLUME>  (1) 
113.2

>  <PUBCHEM_COORDINATE_TYPE>  (1) 
2
5
10

$$$$
