21004
     RDKit          3D

  5  4  0  0  0  0  0  0  0  0999 V2000
   -1.9079    0.7820    0.0680 Cl  0  0  0  0  0  0  0  0  0  0  0  0
   -0.3787   -1.6884    0.1299 Cl  0  0  0  0  0  0  0  0  0  0  0  0
    0.6887    0.7091    0.2589 O   0  0  0  0  0  0  0  0  0  0  0  0
   -0.3708    0.0104   -0.3846 C   0  0  0  0  0  0  0  0  0  0  0  0
    1.9686    0.1870   -0.0721 C   0  0  0  0  0  0  0  0  0  0  0  0
  1  4  1  0
  2  4  1  0
  3  4  1  0
  3  5  1  0
M  END
>  <PUBCHEM_COMPOUND_CID>  (1) 
21004

>  <PUBCHEM_CONFORMER_RMSD>  (1) 
0.4

>  <PUBCHEM_CONFORMER_DIVERSEORDER>  (1) 
1
3
2

>  <PUBCHEM_MMFF94_PARTIAL_CHARGES>  (1) 
5
1 -0.29
2 -0.29
3 -0.56
4 0.86
5 0.28

>  <PUBCHEM_EFFECTIVE_ROTOR_COUNT>  (1) 
1

>  <PUBCHEM_PHARMACOPHORE_FEATURES>  (1) 
1
1 3 acceptor

>  <PUBCHEM_HEAVY_ATOM_COUNT>  (1) 
5

>  <PUBCHEM_ATOM_DEF_STEREO_COUNT>  (1) 
0

>  <PUBCHEM_ATOM_UDEF_STEREO_COUNT>  (1) 
0

>  <PUBCHEM_BOND_DEF_STEREO_COUNT>  (1) 
0

>  <PUBCHEM_BOND_UDEF_STEREO_COUNT>  (1) 
0

>  <PUBCHEM_ISOTOPIC_ATOM_COUNT>  (1) 
0

>  <PUBCHEM_COMPONENT_COUNT>  (1) 
1

>  <PUBCHEM_CACTVS_TAUTO_COUNT>  (1) 
1

>  <PUBCHEM_CONFORMER_ID>  (1) 
0000520C00000001

>  <PUBCHEM_MMFF94_ENERGY>  (1) 
8.3375

>  <PUBCHEM_FEATURE_SELFOVERLAP>  (1) 
5.074

>  <PUBCHEM_SHAPE_FINGERPRINT>  (1) 
139733 1 9724874142365007350
16714656 1 18333455347760069260
20096714 4 18341610391154146757
21015797 1 8644187244514668828
21040471 1 18410572872797164996
5460574 1 8934998174446481180
5943 1 10978183730162800719

>  <PUBCHEM_SHAPE_MULTIPOLES>  (1) 
100.77
2.34
1.46
0.66
0.22
0.89
0.02
-0.9
-0.04
-0.26
-0.1
-0.03
0.01
0

>  <PUBCHEM_SHAPE_SELFOVERLAP>  (1) 
156.767

>  <PUBCHEM_SHAPE_VOLUME>  (1) 
73.2

>  <PUBCHEM_COORDINATE_TYPE>  (1) 
2
5
10

$$$$
