21001
     RDKit          3D

 18 19  0  0  0  0  0  0  0  0999 V2000
    6.5984   -0.1699    0.0030 F   0  0  0  0  0  0  0  0  0  0  0  0
   -1.1066    0.1564   -0.0009 O   0  0  0  0  0  0  0  0  0  0  0  0
    0.4203    1.8590   -0.0002 O   0  0  0  0  0  0  0  0  0  0  0  0
    1.0787   -0.3921   -0.0016 N   0  0  0  0  0  0  0  0  0  0  0  0
   -5.9286   -0.9297    0.0006 N   0  0  0  0  0  0  0  0  0  0  0  0
   -3.4826    0.4032    0.0006 C   0  0  0  0  0  0  0  0  0  0  0  0
   -2.1651    1.1213    0.0005 C   0  0  0  0  0  0  0  0  0  0  0  0
    2.4727   -0.3360   -0.0019 C   0  0  0  0  0  0  0  0  0  0  0  0
    3.2180   -1.5150   -0.0024 C   0  0  0  0  0  0  0  0  0  0  0  0
    3.1210    0.8991    0.0000 C   0  0  0  0  0  0  0  0  0  0  0  0
   -4.0864    0.0727    1.2031 C   0  0  0  0  0  0  0  0  0  0  0  0
   -4.0877    0.0751   -1.2021 C   0  0  0  0  0  0  0  0  0  0  0  0
    0.1667    0.6605   -0.0010 C   0  0  0  0  0  0  0  0  0  0  0  0
    4.6118   -1.4588   -0.0009 C   0  0  0  0  0  0  0  0  0  0  0  0
    4.5148    0.9552    0.0013 C   0  0  0  0  0  0  0  0  0  0  0  0
    5.2602   -0.2238    0.0010 C   0  0  0  0  0  0  0  0  0  0  0  0
   -5.3022   -0.5897    1.1493 C   0  0  0  0  0  0  0  0  0  0  0  0
   -5.3035   -0.5875   -1.1482 C   0  0  0  0  0  0  0  0  0  0  0  0
  1 16  1  0
  2  7  1  0
  2 13  1  0
  3 13  2  0
  4  8  1  0
  4 13  1  0
  5 17  2  0
  5 18  1  0
  6  7  1  0
  6 11  2  0
  6 12  1  0
  8  9  2  0
  8 10  1  0
  9 14  1  0
 10 15  2  0
 11 17  1  0
 12 18  2  0
 14 16  2  0
 15 16  1  0
M  END
>  <PUBCHEM_COMPOUND_CID>  (1) 
21001

>  <PUBCHEM_CONFORMER_RMSD>  (1) 
0.6

>  <PUBCHEM_CONFORMER_DIVERSEORDER>  (1) 
1
25
21
3
26
23
8
2
9
19
10
24
13
16
12
20
6
14
27
18
22
15
17
7
5
4
11

>  <PUBCHEM_MMFF94_PARTIAL_CHARGES>  (1) 
27
1 -0.19
10 -0.15
11 -0.15
12 -0.15
13 0.78
14 -0.15
15 -0.15
16 0.19
17 0.16
18 0.16
2 -0.43
21 0.37
22 0.15
23 0.15
24 0.15
25 0.15
26 0.15
27 0.15
28 0.15
29 0.15
3 -0.57
4 -0.55
5 -0.62
6 -0.14
7 0.42
8 0.12
9 -0.15

>  <PUBCHEM_EFFECTIVE_ROTOR_COUNT>  (1) 
5

>  <PUBCHEM_PHARMACOPHORE_FEATURES>  (1) 
5
1 3 acceptor
1 4 donor
1 5 acceptor
6 5 6 11 12 17 18 rings
6 8 9 10 14 15 16 rings

>  <PUBCHEM_HEAVY_ATOM_COUNT>  (1) 
18

>  <PUBCHEM_ATOM_DEF_STEREO_COUNT>  (1) 
0

>  <PUBCHEM_ATOM_UDEF_STEREO_COUNT>  (1) 
0

>  <PUBCHEM_BOND_DEF_STEREO_COUNT>  (1) 
0

>  <PUBCHEM_BOND_UDEF_STEREO_COUNT>  (1) 
0

>  <PUBCHEM_ISOTOPIC_ATOM_COUNT>  (1) 
0

>  <PUBCHEM_COMPONENT_COUNT>  (1) 
1

>  <PUBCHEM_CACTVS_TAUTO_COUNT>  (1) 
2

>  <PUBCHEM_CONFORMER_ID>  (1) 
0000520900000001

>  <PUBCHEM_MMFF94_ENERGY>  (1) 
45.178

>  <PUBCHEM_FEATURE_SELFOVERLAP>  (1) 
25.371

>  <PUBCHEM_SHAPE_FINGERPRINT>  (1) 
10447042 23 18187920660451095586
10803635 8 16805318899295387643
10912923 1 17632578262125488625
11287383 113 17458065988399290188
11315181 36 17312825983112457637
12091667 2 18413670197290116713
12107183 9 17339015031114404243
12236239 1 17775288274283186841
12516196 113 18343862225243233065
12596602 18 16702300169756978866
13167823 11 18273213071330327527
13288520 33 18272931631383222757
13685833 64 18261397771661613907
13862211 1 18410289190734901834
1420 363 18333455343443976859
14251718 22 17385725802598111546
14848160 23 17821728338210054171
14849402 71 17059483179967458712
15183329 4 10737281351034496002
15348495 7 13398617385867293694
15716309 27 18131633374237449159
17834072 33 18202280324895272860
17844677 252 18409452479165607189
17870717 6 17022905645078362251
19489759 90 15936126361514067413
19784866 170 13110968608759679193
200 152 18412824677269924953
20281389 69 10735875062746396859
20645477 70 18336265648368708154
21267235 1 18341619188011910710
212847 35 7997966877913375270
21623969 137 18410581690460553939
220451 1 17775289365120464606
23035841 295 17489590056441403262
23402539 116 18413107238926251793
23557571 272 17313097514770425733
23559900 14 17530963631223235669
2767999 5 11025797612936238423
3014965 18 10519720964056985188
314194 84 18342737424990488259
34797466 226 16588035618668704103
351380 3 18131348613774274623
4325135 7 18411418418977460228
465052 167 18273498970534855494
474229 33 18411138038975277806
5104073 3 18269270158736134792
5283173 99 17531518789837087157
542803 24 15195283131742247608
59755656 215 9871479724794760344
7495541 125 17560795563200747888

>  <PUBCHEM_SHAPE_MULTIPOLES>  (1) 
341.46
16.18
1.32
0.92
0.02
0.04
0
-4.46
0.01
0.88
0
-1.55
-0.09
0

>  <PUBCHEM_SHAPE_SELFOVERLAP>  (1) 
728.141

>  <PUBCHEM_SHAPE_VOLUME>  (1) 
188.6

>  <PUBCHEM_COORDINATE_TYPE>  (1) 
2
5
10

$$$$
