21010
     RDKit          3D

 10 10  0  0  0  0  0  0  0  0999 V2000
   -0.7555    2.2894   -0.0002 Cl  0  0  0  0  0  0  0  0  0  0  0  0
    2.2191    1.2759   -0.0002 O   0  0  0  0  0  0  0  0  0  0  0  0
    2.7062   -0.8647    0.0004 O   0  0  0  0  0  0  0  0  0  0  0  0
   -1.6873   -0.2209    0.0001 N   0  0  0  0  0  0  0  0  0  0  0  0
    0.0863   -1.5576   -0.0006 N   0  0  0  0  0  0  0  0  0  0  0  0
    1.8516    0.0666    0.0000 N   0  0  0  0  0  0  0  0  0  0  0  0
   -0.5974    0.6034    0.0002 C   0  0  0  0  0  0  0  0  0  0  0  0
    0.4852   -0.2444    0.0002 C   0  0  0  0  0  0  0  0  0  0  0  0
   -1.2273   -1.5084   -0.0001 C   0  0  0  0  0  0  0  0  0  0  0  0
   -3.0808    0.1608    0.0003 C   0  0  0  0  0  0  0  0  0  0  0  0
  1  7  1  0
  2  6  1  0
  3  6  2  0
  4  7  1  0
  4  9  1  0
  4 10  1  0
  5  8  1  0
  5  9  2  0
  6  8  1  0
  7  8  2  0
M  CHG  2   2  -1   6   1
M  END
>  <PUBCHEM_COMPOUND_CID>  (1) 
21010

>  <PUBCHEM_CONFORMER_RMSD>  (1) 
0.4

>  <PUBCHEM_CONFORMER_DIVERSEORDER>  (1) 
1

>  <PUBCHEM_MMFF94_PARTIAL_CHARGES>  (1) 
11
1 -0.12
10 0.26
11 0.15
2 -0.52
3 -0.52
4 0.05
5 -0.57
6 0.96
7 -0.03
8 0.31
9 0.04

>  <PUBCHEM_EFFECTIVE_ROTOR_COUNT>  (1) 
1

>  <PUBCHEM_PHARMACOPHORE_FEATURES>  (1) 
5
1 2 acceptor
1 2 anion
1 3 acceptor
3 4 5 9 cation
5 4 5 7 8 9 rings

>  <PUBCHEM_HEAVY_ATOM_COUNT>  (1) 
10

>  <PUBCHEM_ATOM_DEF_STEREO_COUNT>  (1) 
0

>  <PUBCHEM_ATOM_UDEF_STEREO_COUNT>  (1) 
0

>  <PUBCHEM_BOND_DEF_STEREO_COUNT>  (1) 
0

>  <PUBCHEM_BOND_UDEF_STEREO_COUNT>  (1) 
0

>  <PUBCHEM_ISOTOPIC_ATOM_COUNT>  (1) 
0

>  <PUBCHEM_COMPONENT_COUNT>  (1) 
1

>  <PUBCHEM_CACTVS_TAUTO_COUNT>  (1) 
1

>  <PUBCHEM_CONFORMER_ID>  (1) 
0000521200000001

>  <PUBCHEM_MMFF94_ENERGY>  (1) 
15.0664

>  <PUBCHEM_FEATURE_SELFOVERLAP>  (1) 
25.453

>  <PUBCHEM_SHAPE_FINGERPRINT>  (1) 
10219947 1 18410580595686349041
12524768 44 18342183305431565030
14325111 11 18410856581441732131
16945 1 18338517434848825767
18185500 45 18193277622587276916
193761 8 17689997830377306311
21040471 1 18410856594068223139
23552423 10 18188491392763808038
2748010 2 18339363101003355423
29004967 10 18190466141126758978
369184 2 18409444821085430778
5084963 1 18130223748806701314

>  <PUBCHEM_SHAPE_MULTIPOLES>  (1) 
180.98
3.47
1.94
0.57
0.37
0.74
0
-0.08
0
-0.21
0
-0.06
0.02
0

>  <PUBCHEM_SHAPE_SELFOVERLAP>  (1) 
366.296

>  <PUBCHEM_SHAPE_VOLUME>  (1) 
108.2

>  <PUBCHEM_COORDINATE_TYPE>  (1) 
2
5
10

$$$$
