21019
     RDKit          3D

  8  7  0  0  1  0  0  0  0  0999 V2000
    1.9011    0.7092   -0.7955 O   0  0  0  0  0  0  0  0  0  0  0  0
   -0.4549    0.2683   -0.3699 C   0  0  0  0  0  0  0  0  0  0  0  0
    1.0192   -0.1264   -0.0309 C   0  0  0  0  0  0  0  0  0  0  0  0
   -1.4783   -0.7090    0.2615 C   0  0  0  0  0  0  0  0  0  0  0  0
   -0.7873    1.7201    0.0012 C   0  0  0  0  0  0  0  0  0  0  0  0
    1.3656   -1.5731   -0.3959 C   0  0  0  0  0  0  0  0  0  0  0  0
    1.3585    0.1195    1.4457 C   0  0  0  0  0  0  0  0  0  0  0  0
   -2.9239   -0.4085   -0.1162 C   0  0  0  0  0  0  0  0  0  0  0  0
  1  3  1  0
  2  3  1  0
  2  4  1  0
  2  5  1  0
  3  6  1  0
  3  7  1  0
  4  8  1  0
M  END
>  <PUBCHEM_COMPOUND_CID>  (1) 
21019

>  <PUBCHEM_CONFORMER_RMSD>  (1) 
0.4

>  <PUBCHEM_CONFORMER_DIVERSEORDER>  (1) 
2
8
4
7
1
6
9
5
3

>  <PUBCHEM_MMFF94_PARTIAL_CHARGES>  (1) 
3
1 -0.68
24 0.4
3 0.28

>  <PUBCHEM_EFFECTIVE_ROTOR_COUNT>  (1) 
2

>  <PUBCHEM_PHARMACOPHORE_FEATURES>  (1) 
5
1 1 acceptor
1 1 donor
1 5 hydrophobe
1 8 hydrophobe
3 3 6 7 hydrophobe

>  <PUBCHEM_HEAVY_ATOM_COUNT>  (1) 
8

>  <PUBCHEM_ATOM_DEF_STEREO_COUNT>  (1) 
0

>  <PUBCHEM_ATOM_UDEF_STEREO_COUNT>  (1) 
1

>  <PUBCHEM_BOND_DEF_STEREO_COUNT>  (1) 
0

>  <PUBCHEM_BOND_UDEF_STEREO_COUNT>  (1) 
0

>  <PUBCHEM_ISOTOPIC_ATOM_COUNT>  (1) 
0

>  <PUBCHEM_COMPONENT_COUNT>  (1) 
1

>  <PUBCHEM_CACTVS_TAUTO_COUNT>  (1) 
1

>  <PUBCHEM_CONFORMER_ID>  (1) 
0000521B00000002

>  <PUBCHEM_MMFF94_ENERGY>  (1) 
16.5504

>  <PUBCHEM_FEATURE_SELFOVERLAP>  (1) 
25.373

>  <PUBCHEM_SHAPE_FINGERPRINT>  (1) 
12897270 3 18336560390076877158
12932764 1 17561083618473589471
137420 1 9166768581625659146
14128692 85 18126582136505445694
20711978 78 17417803985640183439
21040471 1 18269833271323442479
23552333 60 17603299353993906249
23552423 10 18189059702736207471
24536 1 18263632983515010348
29004967 10 18410576227388214835
5084963 1 18269837514866980611

>  <PUBCHEM_SHAPE_MULTIPOLES>  (1) 
158.77
3.05
1.45
0.98
1.81
0.16
-0.28
-0.65
0.03
-0.06
0.16
-0.48
0.08
0.11

>  <PUBCHEM_SHAPE_SELFOVERLAP>  (1) 
285.533

>  <PUBCHEM_SHAPE_VOLUME>  (1) 
104.4

>  <PUBCHEM_COORDINATE_TYPE>  (1) 
2
5
10

$$$$
