21017
     RDKit          3D

 13 13  0  0  0  0  0  0  0  0999 V2000
    2.5541    0.0000    0.4708 O   0  0  0  0  0  0  0  0  0  0  0  0
   -4.1577   -0.0001   -0.1933 N   0  0  0  0  0  0  0  0  0  0  0  0
    0.5026    1.2079    0.2678 C   0  0  0  0  0  0  0  0  0  0  0  0
    0.5026   -1.2082    0.2684 C   0  0  0  0  0  0  0  0  0  0  0  0
    1.1968   -0.0001    0.3368 C   0  0  0  0  0  0  0  0  0  0  0  0
    1.2283    2.5112    0.3398 C   0  0  0  0  0  0  0  0  0  0  0  0
    1.2283   -2.5114    0.3397 C   0  0  0  0  0  0  0  0  0  0  0  0
   -0.8854    1.2080    0.1305 C   0  0  0  0  0  0  0  0  0  0  0  0
   -0.8855   -1.2080    0.1310 C   0  0  0  0  0  0  0  0  0  0  0  0
   -1.5794    0.0001    0.0621 C   0  0  0  0  0  0  0  0  0  0  0  0
    1.6484    3.0165   -1.0371 C   0  0  0  0  0  0  0  0  0  0  0  0
    1.6486   -3.0159   -1.0376 C   0  0  0  0  0  0  0  0  0  0  0  0
   -3.0015    0.0001   -0.0788 C   0  0  0  0  0  0  0  0  0  0  0  0
  1  5  1  0
  2 13  3  0
  3  5  2  0
  3  6  1  0
  3  8  1  0
  4  5  1  0
  4  7  1  0
  4  9  2  0
  6 11  1  0
  7 12  1  0
  8 10  2  0
  9 10  1  0
 10 13  1  0
M  END
>  <PUBCHEM_COMPOUND_CID>  (1) 
21017

>  <PUBCHEM_CONFORMER_RMSD>  (1) 
0.6

>  <PUBCHEM_CONFORMER_DIVERSEORDER>  (1) 
1
4
2
3

>  <PUBCHEM_MMFF94_PARTIAL_CHARGES>  (1) 
14
1 -0.53
10 0.07
13 0.48
18 0.15
19 0.15
2 -0.56
26 0.45
3 -0.14
4 -0.14
5 0.08
6 0.14
7 0.14
8 -0.15
9 -0.15

>  <PUBCHEM_EFFECTIVE_ROTOR_COUNT>  (1) 
2

>  <PUBCHEM_PHARMACOPHORE_FEATURES>  (1) 
5
1 1 donor
1 11 hydrophobe
1 12 hydrophobe
1 2 acceptor
6 3 4 5 8 9 10 rings

>  <PUBCHEM_HEAVY_ATOM_COUNT>  (1) 
13

>  <PUBCHEM_ATOM_DEF_STEREO_COUNT>  (1) 
0

>  <PUBCHEM_ATOM_UDEF_STEREO_COUNT>  (1) 
0

>  <PUBCHEM_BOND_DEF_STEREO_COUNT>  (1) 
0

>  <PUBCHEM_BOND_UDEF_STEREO_COUNT>  (1) 
0

>  <PUBCHEM_ISOTOPIC_ATOM_COUNT>  (1) 
0

>  <PUBCHEM_COMPONENT_COUNT>  (1) 
1

>  <PUBCHEM_CACTVS_TAUTO_COUNT>  (1) 
2

>  <PUBCHEM_CONFORMER_ID>  (1) 
0000521900000001

>  <PUBCHEM_MMFF94_ENERGY>  (1) 
24.6482

>  <PUBCHEM_FEATURE_SELFOVERLAP>  (1) 
25.371

>  <PUBCHEM_SHAPE_FINGERPRINT>  (1) 
1 1 18338793528268269045
11206711 2 16969417410183756684
12138202 97 17691142842794060884
12423570 1 9181855568943749673
13140716 1 18266455601751796417
13380535 76 18191861430230830139
13380536 305 18336831999545616940
14648413 74 18334859450179139019
14817 1 11155621658095875628
15490181 7 17545604912314948936
161256 15 18126280840180745698
16945 1 18410581686207154641
17134986 127 18045503276926084469
17990270 104 18337950087207479243
193761 8 17834954174881631024
20511035 2 17972317584068184808
20588541 1 18408603651766986995
20645476 183 17828209031748865644
20645477 70 18410002265814126775
20711985 344 17471012480128987803
20871998 22 18054505811877873187
21040471 1 17906166613533958208
21524375 3 17901656386967157241
2334 1 17978227493390289297
23530152 11 18123469650835870111
23552423 10 18412262852639938197
241688 4 17906172854115794521
2748010 2 18050837828186386033
3060560 45 18338233868307373572
3071541 158 18262233322503756901
3071541 250 18267880384185461119
53812653 217 17402900414905632646
7364860 26 18413950589797795345
81228 2 17546443375824887553

>  <PUBCHEM_SHAPE_MULTIPOLES>  (1) 
256.68
3.91
3.54
0.83
5.01
0
0.15
0
0.43
-3.51
1.01
-0.34
0
0

>  <PUBCHEM_SHAPE_SELFOVERLAP>  (1) 
528.927

>  <PUBCHEM_SHAPE_VOLUME>  (1) 
147.2

>  <PUBCHEM_COORDINATE_TYPE>  (1) 
2
5
10

$$$$
