21026
     RDKit          3D

 11 11  0  0  0  0  0  0  0  0999 V2000
    0.1738   -2.4162   -0.0004 O   0  0  0  0  0  0  0  0  0  0  0  0
    2.3187    1.0333   -0.0003 O   0  0  0  0  0  0  0  0  0  0  0  0
    2.2652   -1.1613    0.0004 O   0  0  0  0  0  0  0  0  0  0  0  0
    1.6884   -0.0493    0.0000 N   0  0  0  0  0  0  0  0  0  0  0  0
   -0.4076    1.2078    0.0001 C   0  0  0  0  0  0  0  0  0  0  0  0
    0.2645   -0.0145    0.0001 C   0  0  0  0  0  0  0  0  0  0  0  0
   -0.4580   -1.2077    0.0003 C   0  0  0  0  0  0  0  0  0  0  0  0
   -1.8022    1.2369    0.0000 C   0  0  0  0  0  0  0  0  0  0  0  0
    0.3341    2.5057    0.0000 C   0  0  0  0  0  0  0  0  0  0  0  0
   -1.8525   -1.1786    0.0000 C   0  0  0  0  0  0  0  0  0  0  0  0
   -2.5246    0.0437   -0.0001 C   0  0  0  0  0  0  0  0  0  0  0  0
  1  7  1  0
  2  4  1  0
  3  4  2  0
  4  6  1  0
  5  6  2  0
  5  8  1  0
  5  9  1  0
  6  7  1  0
  7 10  2  0
  8 11  2  0
 10 11  1  0
M  CHG  2   2  -1   4   1
M  END
>  <PUBCHEM_COMPOUND_CID>  (1) 
21026

>  <PUBCHEM_CONFORMER_RMSD>  (1) 
0.4

>  <PUBCHEM_CONFORMER_DIVERSEORDER>  (1) 
1

>  <PUBCHEM_MMFF94_PARTIAL_CHARGES>  (1) 
15
1 -0.53
10 -0.15
11 -0.15
12 0.15
16 0.15
17 0.15
18 0.45
2 -0.52
3 -0.52
4 0.91
5 -0.14
6 0.13
7 0.08
8 -0.15
9 0.14

>  <PUBCHEM_EFFECTIVE_ROTOR_COUNT>  (1) 
1

>  <PUBCHEM_PHARMACOPHORE_FEATURES>  (1) 
5
1 1 donor
1 2 acceptor
1 2 anion
1 3 acceptor
6 5 6 7 8 10 11 rings

>  <PUBCHEM_HEAVY_ATOM_COUNT>  (1) 
11

>  <PUBCHEM_ATOM_DEF_STEREO_COUNT>  (1) 
0

>  <PUBCHEM_ATOM_UDEF_STEREO_COUNT>  (1) 
0

>  <PUBCHEM_BOND_DEF_STEREO_COUNT>  (1) 
0

>  <PUBCHEM_BOND_UDEF_STEREO_COUNT>  (1) 
0

>  <PUBCHEM_ISOTOPIC_ATOM_COUNT>  (1) 
0

>  <PUBCHEM_COMPONENT_COUNT>  (1) 
1

>  <PUBCHEM_CACTVS_TAUTO_COUNT>  (1) 
13

>  <PUBCHEM_CONFORMER_ID>  (1) 
0000522200000001

>  <PUBCHEM_MMFF94_ENERGY>  (1) 
42.374

>  <PUBCHEM_FEATURE_SELFOVERLAP>  (1) 
25.453

>  <PUBCHEM_SHAPE_FINGERPRINT>  (1) 
12423570 1 12396883055317429041
12524768 44 18342462538398443398
16945 1 18194682806968995845
18185500 45 18410854330783878031
193761 8 17762338419641543143
21040471 1 18410856602626418272
23552423 10 18333454222531424086
241688 4 18338796710839139521
2748010 2 18410855455843763621
5084963 1 18130221545430501650
528886 8 18411132524379259409
66348 1 18410575067504341273

>  <PUBCHEM_SHAPE_MULTIPOLES>  (1) 
203.79
2.91
2.39
0.58
0.27
0.18
0
-0.11
0
0.31
0
-0.06
0.03
0

>  <PUBCHEM_SHAPE_SELFOVERLAP>  (1) 
431.616

>  <PUBCHEM_SHAPE_VOLUME>  (1) 
114.5

>  <PUBCHEM_COORDINATE_TYPE>  (1) 
2
5
10

$$$$
