21037
     RDKit          3D

 11 11  0  0  1  0  0  0  0  0999 V2000
    2.9577    0.4708    0.4508 O   0  0  0  0  0  0  0  0  0  0  0  0
    1.9032   -0.1741   -1.4644 O   0  0  0  0  0  0  0  0  0  0  0  0
   -0.2754    2.3013    0.3407 O   0  0  0  0  0  0  0  0  0  0  0  0
   -2.3027    1.4879   -0.3362 O   0  0  0  0  0  0  0  0  0  0  0  0
    0.8074   -0.5230    0.7023 C   0  0  0  0  0  0  0  0  0  0  0  0
    0.1949   -1.9241    0.5054 C   0  0  0  0  0  0  0  0  0  0  0  0
   -1.0692   -1.2052    0.0935 C   0  0  0  0  0  0  0  0  0  0  0  0
   -0.5355    0.0166    0.2662 C   0  0  0  0  0  0  0  0  0  0  0  0
   -2.4517   -1.7019   -0.3610 C   0  0  0  0  0  0  0  0  0  0  0  0
    1.9280   -0.0674   -0.2473 C   0  0  0  0  0  0  0  0  0  0  0  0
   -1.1568    1.3191    0.0500 C   0  0  0  0  0  0  0  0  0  0  0  0
  1 10  1  0
  2 10  2  0
  3 11  1  0
  4 11  2  0
  5  6  1  0
  5  8  1  0
  5 10  1  0
  6  7  1  0
  7  8  2  0
  7  9  1  0
  8 11  1  0
M  END
>  <PUBCHEM_COMPOUND_CID>  (1) 
21037

>  <PUBCHEM_CONFORMER_RMSD>  (1) 
0.6

>  <PUBCHEM_CONFORMER_DIVERSEORDER>  (1) 
2
1
6
3
5
4
8
7

>  <PUBCHEM_MMFF94_PARTIAL_CHARGES>  (1) 
13
1 -0.65
10 0.67
11 0.79
18 0.5
19 0.5
2 -0.57
3 -0.65
4 -0.57
5 0.19
6 0.14
7 -0.3
8 -0.21
9 0.17

>  <PUBCHEM_EFFECTIVE_ROTOR_COUNT>  (1) 
2.4

>  <PUBCHEM_PHARMACOPHORE_FEATURES>  (1) 
7
1 1 acceptor
1 2 acceptor
1 3 acceptor
1 4 acceptor
3 1 2 10 anion
3 3 4 11 anion
4 5 6 7 8 rings

>  <PUBCHEM_HEAVY_ATOM_COUNT>  (1) 
11

>  <PUBCHEM_ATOM_DEF_STEREO_COUNT>  (1) 
0

>  <PUBCHEM_ATOM_UDEF_STEREO_COUNT>  (1) 
1

>  <PUBCHEM_BOND_DEF_STEREO_COUNT>  (1) 
0

>  <PUBCHEM_BOND_UDEF_STEREO_COUNT>  (1) 
0

>  <PUBCHEM_ISOTOPIC_ATOM_COUNT>  (1) 
0

>  <PUBCHEM_COMPONENT_COUNT>  (1) 
1

>  <PUBCHEM_CACTVS_TAUTO_COUNT>  (1) 
1

>  <PUBCHEM_CONFORMER_ID>  (1) 
0000522D00000002

>  <PUBCHEM_MMFF94_ENERGY>  (1) 
11.4198

>  <PUBCHEM_FEATURE_SELFOVERLAP>  (1) 
35.633

>  <PUBCHEM_SHAPE_FINGERPRINT>  (1) 
100427 49 17833288771005073825
10353120 184 18264495147045423983
12423570 1 10189948714597851699
12716758 59 18341619153119558694
161256 15 18122903402621781041
16945 1 18189906481129160531
21040471 1 18193557761665595776
22802520 49 18058461914796421030
23402539 116 18198326532827399318
23552423 10 18188207598304667882
241688 4 18266740371142593737
2748010 2 18411979173901945050
29004967 10 16343713165688600274
5084963 1 17390241325038936457

>  <PUBCHEM_SHAPE_MULTIPOLES>  (1) 
202.9
3.21
2.15
0.87
0.9
0.66
-0.19
-0.2
-0.54
-1.26
0.2
0.33
-0.11
-0.02

>  <PUBCHEM_SHAPE_SELFOVERLAP>  (1) 
414.423

>  <PUBCHEM_SHAPE_VOLUME>  (1) 
118.9

>  <PUBCHEM_COORDINATE_TYPE>  (1) 
2
5
10

$$$$
