21039
     RDKit          3D

 21 23  0  0  1  0  0  0  0  0999 V2000
   -0.9182   -1.0327    0.9348 O   0  0  0  0  0  0  0  0  0  0  0  0
    0.7751    0.0125   -1.1353 O   0  0  0  0  0  0  0  0  0  0  0  0
   -4.4151   -1.3320   -0.1556 N   0  0  0  0  0  0  0  0  0  0  0  0
   -0.1444   -0.0201    1.5739 C   0  0  0  0  0  0  0  0  0  0  0  0
    1.2743   -0.5194    1.8662 C   0  0  0  0  0  0  0  0  0  0  0  0
   -0.1315    1.2276    0.7366 C   0  0  0  0  0  0  0  0  0  0  0  0
    2.2088   -0.7906    0.7049 C   0  0  0  0  0  0  0  0  0  0  0  0
    0.3688    1.1961   -0.5691 C   0  0  0  0  0  0  0  0  0  0  0  0
    1.9482   -0.5187   -0.6472 C   0  0  0  0  0  0  0  0  0  0  0  0
   -2.2575   -0.6094    0.7469 C   0  0  0  0  0  0  0  0  0  0  0  0
   -3.0258   -1.7168    0.0435 C   0  0  0  0  0  0  0  0  0  0  0  0
   -0.5927    2.4463    1.2494 C   0  0  0  0  0  0  0  0  0  0  0  0
    3.4557   -1.3622    1.0303 C   0  0  0  0  0  0  0  0  0  0  0  0
    0.3802    2.3420   -1.3662 C   0  0  0  0  0  0  0  0  0  0  0  0
    2.8874   -0.8513   -1.6354 C   0  0  0  0  0  0  0  0  0  0  0  0
   -0.5661    3.6004    0.4632 C   0  0  0  0  0  0  0  0  0  0  0  0
   -0.0821    3.5475   -0.8435 C   0  0  0  0  0  0  0  0  0  0  0  0
    4.3964   -1.6728    0.0468 C   0  0  0  0  0  0  0  0  0  0  0  0
    4.1095   -1.4209   -1.2888 C   0  0  0  0  0  0  0  0  0  0  0  0
   -5.1662   -2.4147   -0.7956 C   0  0  0  0  0  0  0  0  0  0  0  0
   -4.5047   -0.1108   -0.9598 C   0  0  0  0  0  0  0  0  0  0  0  0
  1  4  1  0
  1 10  1  0
  2  8  1  0
  2  9  1  0
  3 11  1  0
  3 20  1  0
  3 21  1  0
  4  5  1  0
  4  6  1  0
  5  7  1  0
  6  8  2  0
  6 12  1  0
  7  9  2  0
  7 13  1  0
  8 14  1  0
  9 15  1  0
 10 11  1  0
 12 16  2  0
 13 18  2  0
 14 17  2  0
 15 19  2  0
 16 17  1  0
 18 19  1  0
M  END
>  <PUBCHEM_COMPOUND_CID>  (1) 
21039

>  <PUBCHEM_CONFORMER_RMSD>  (1) 
0.8

>  <PUBCHEM_CONFORMER_DIVERSEORDER>  (1) 
4
11
15
7
10
8
23
2
9
19
6
24
5
20
12
1
14
13
26
25
27
18
3
21
17
16
22

>  <PUBCHEM_MMFF94_PARTIAL_CHARGES>  (1) 
29
1 -0.56
10 0.28
11 0.27
12 -0.15
13 -0.15
14 -0.15
15 -0.15
16 -0.15
17 -0.15
18 -0.15
19 -0.15
2 -0.17
20 0.27
21 0.27
29 0.15
3 -0.81
30 0.15
31 0.15
32 0.15
33 0.15
34 0.15
35 0.15
36 0.15
4 0.42
5 0.14
6 -0.14
7 -0.14
8 0.08
9 0.08

>  <PUBCHEM_EFFECTIVE_ROTOR_COUNT>  (1) 
4.6

>  <PUBCHEM_PHARMACOPHORE_FEATURES>  (1) 
6
1 1 acceptor
1 2 acceptor
1 3 cation
6 6 8 12 14 16 17 rings
6 7 9 13 15 18 19 rings
7 2 4 5 6 7 8 9 rings

>  <PUBCHEM_HEAVY_ATOM_COUNT>  (1) 
21

>  <PUBCHEM_ATOM_DEF_STEREO_COUNT>  (1) 
0

>  <PUBCHEM_ATOM_UDEF_STEREO_COUNT>  (1) 
1

>  <PUBCHEM_BOND_DEF_STEREO_COUNT>  (1) 
0

>  <PUBCHEM_BOND_UDEF_STEREO_COUNT>  (1) 
0

>  <PUBCHEM_ISOTOPIC_ATOM_COUNT>  (1) 
0

>  <PUBCHEM_COMPONENT_COUNT>  (1) 
1

>  <PUBCHEM_CACTVS_TAUTO_COUNT>  (1) 
1

>  <PUBCHEM_CONFORMER_ID>  (1) 
0000522F00000004

>  <PUBCHEM_MMFF94_ENERGY>  (1) 
74.7022

>  <PUBCHEM_FEATURE_SELFOVERLAP>  (1) 
30.473

>  <PUBCHEM_SHAPE_FINGERPRINT>  (1) 
11265709 11 18410586079789912683
12035759 4 17605834711764260970
12553582 1 18263663834244427514
12617007 42 18338793524242385507
12788726 201 18116995489968793979
13004483 165 18410847738062313390
13009979 54 17987819491550813035
13083527 12 18412823620924364756
13134695 92 18271519918271717445
13149001 5 17969790880525608779
13464514 151 17971477548695336609
13681431 1 18266746950805910313
13899415 180 18341033203779739615
14004458 79 18337394811965171853
14251757 5 18190454970661030229
14617773 55 17750524974950276024
15163728 17 16591980833845793453
16752209 62 18115303358790627459
16945 1 18122639257711743320
17357779 13 18129930200856347733
17539 30 18266740186332691525
1813 80 18342742931154405487
20388580 30 18339081600557540823
20600515 1 18343016709528512635
20626108 58 18201439228886938583
20671657 53 18411138065071791499
20775438 99 17616513495823983807
21452121 199 18341897445404313729
21524375 3 17248941926576886544
22112679 90 18121532135154057384
22620623 9 18125735490892182956
23402539 116 18336553707139711706
23419403 2 18127945633692113448
23557571 272 18410565168090001528
298252 57 14129060343557168706
3027735 51 18053665780752299135
312423 11 18197223757799957899
46194498 28 18117554248709621343
59554788 248 16817149360520851049
633830 44 11097846410976369283
6438718 38 17758994465442520544
6442390 28 17264425240386746897
6786 2 8881641001175349589
7164475 11 18116429237644873482
7364860 26 18122056774320782857
7471813 234 18335425677176718068
81228 2 18265063439621462376

>  <PUBCHEM_SHAPE_MULTIPOLES>  (1) 
415.45
7.78
3.56
1.65
5.23
4.06
-0.12
-9.66
2.74
1.85
0.5
-0.74
0.07
-0.44

>  <PUBCHEM_SHAPE_SELFOVERLAP>  (1) 
890.02

>  <PUBCHEM_SHAPE_VOLUME>  (1) 
228.9

>  <PUBCHEM_COORDINATE_TYPE>  (1) 
2
5
10

$$$$
