21043
     RDKit          3D

 21 22  0  0  0  0  0  0  0  0999 V2000
    4.9102    0.0082   -0.1864 N   0  0  0  0  0  0  0  0  0  0  0  0
   -0.6572    0.0079   -0.7785 N   0  0  0  0  0  0  0  0  0  0  0  0
   -1.2079    0.0003    0.3475 N   0  0  0  0  0  0  0  0  0  0  0  0
    5.6411   -1.2413   -0.1170 C   0  0  0  0  0  0  0  0  0  0  0  0
    5.6401    1.2583   -0.1148 C   0  0  0  0  0  0  0  0  0  0  0  0
    3.5076    0.0078   -0.3354 C   0  0  0  0  0  0  0  0  0  0  0  0
    2.8150   -1.2002   -0.4170 C   0  0  0  0  0  0  0  0  0  0  0  0
    2.8130    1.2158   -0.4013 C   0  0  0  0  0  0  0  0  0  0  0  0
    5.5630   -1.8148    1.2849 C   0  0  0  0  0  0  0  0  0  0  0  0
    5.7336    1.7269    1.3246 C   0  0  0  0  0  0  0  0  0  0  0  0
    1.4279   -1.2005   -0.5645 C   0  0  0  0  0  0  0  0  0  0  0  0
    1.4259    1.2154   -0.5488 C   0  0  0  0  0  0  0  0  0  0  0  0
    0.7403    0.0073   -0.6297 C   0  0  0  0  0  0  0  0  0  0  0  0
   -5.3725    0.0029   -0.0971 C   0  0  0  0  0  0  0  0  0  0  0  0
   -6.8553    0.0040   -0.2567 C   0  0  0  0  0  0  0  0  0  0  0  0
   -4.6793    1.2103   -0.0139 C   0  0  0  0  0  0  0  0  0  0  0  0
   -4.6789   -1.2056   -0.0318 C   0  0  0  0  0  0  0  0  0  0  0  0
   -2.5986    0.0011    0.1999 C   0  0  0  0  0  0  0  0  0  0  0  0
   -3.2924    1.2094    0.1344 C   0  0  0  0  0  0  0  0  0  0  0  0
   -3.2918   -1.2066    0.1167 C   0  0  0  0  0  0  0  0  0  0  0  0
   -7.5838   -0.0065    1.0848 C   0  0  0  0  0  0  0  0  0  0  0  0
  1  4  1  0
  1  5  1  0
  1  6  1  0
  2  3  2  0
  2 13  1  0
  3 18  1  0
  4  9  1  0
  5 10  1  0
  6  7  2  0
  6  8  1  0
  7 11  1  0
  8 12  2  0
 11 13  2  0
 12 13  1  0
 14 15  1  0
 14 16  2  0
 14 17  1  0
 15 21  1  0
 16 19  1  0
 17 20  2  0
 18 19  2  0
 18 20  1  0
M  END
>  <PUBCHEM_COMPOUND_CID>  (1) 
21043

>  <PUBCHEM_CONFORMER_RMSD>  (1) 
0.8

>  <PUBCHEM_CONFORMER_DIVERSEORDER>  (1) 
2
6
1
7
4
8
5
3

>  <PUBCHEM_MMFF94_PARTIAL_CHARGES>  (1) 
26
1 -0.84
11 -0.15
12 -0.15
13 0.18
14 -0.14
15 0.14
16 -0.15
17 -0.15
18 0.18
19 -0.15
2 -0.18
20 -0.15
26 0.15
27 0.15
3 -0.18
34 0.15
35 0.15
38 0.15
39 0.15
4 0.37
40 0.15
41 0.15
5 0.37
6 0.1
7 -0.15
8 -0.15

>  <PUBCHEM_EFFECTIVE_ROTOR_COUNT>  (1) 
6

>  <PUBCHEM_PHARMACOPHORE_FEATURES>  (1) 
4
1 1 cation
1 21 hydrophobe
6 14 16 17 18 19 20 rings
6 6 7 8 11 12 13 rings

>  <PUBCHEM_HEAVY_ATOM_COUNT>  (1) 
21

>  <PUBCHEM_ATOM_DEF_STEREO_COUNT>  (1) 
0

>  <PUBCHEM_ATOM_UDEF_STEREO_COUNT>  (1) 
0

>  <PUBCHEM_BOND_DEF_STEREO_COUNT>  (1) 
0

>  <PUBCHEM_BOND_UDEF_STEREO_COUNT>  (1) 
0

>  <PUBCHEM_ISOTOPIC_ATOM_COUNT>  (1) 
0

>  <PUBCHEM_COMPONENT_COUNT>  (1) 
1

>  <PUBCHEM_CACTVS_TAUTO_COUNT>  (1) 
1

>  <PUBCHEM_CONFORMER_ID>  (1) 
0000523300000002

>  <PUBCHEM_MMFF94_ENERGY>  (1) 
63.5066

>  <PUBCHEM_FEATURE_SELFOVERLAP>  (1) 
20.297

>  <PUBCHEM_SHAPE_FINGERPRINT>  (1) 
10 15 18335979865634699968
106641 1 18412818089454796458
11719270 70 18272931596354143414
12107183 9 17690000029110373193
12166972 35 18410859862554835360
12236239 1 17988923383607458703
12516196 113 17917712409544598273
12596602 18 18413385449637829042
13073987 5 18261111821181229137
13167372 99 18272375230727836081
13533116 47 18335136454443450578
13668630 136 15574720192457568475
13685833 64 17967256386190866355
14170010 4 18408605876660454988
14251764 18 18412546531198635335
14341114 176 18408889537727728172
15183329 4 18187365406699072307
15475509 35 17458891645261479346
18222031 100 16443347564029231110
200 152 18202002127463847397
20281389 69 18411419501351851713
21130935 74 18412827984274001907
21150785 3 13840273589037068654
21267235 1 18336555940527766095
21315759 40 14057004927863971713
22224240 67 18342172297567775758
23402539 116 18411979178903800991
23536379 177 18335139782636552433
23559900 14 18339075012399676665
23569943 247 16807562873188095730
26918003 58 18410296921623254607
300161 21 18411697695147303383
3004659 81 18333735689551261438
34797466 226 17274830163996789980
3545911 37 18411422808629267301
4073 2 17896044402525764498
4214541 1 18409451362890412901
4340502 62 18334576845426010954
465052 167 18260268525870077222
5104073 3 18411141324603693208
542803 24 16917071053281196029
59755656 215 15502374509061327995
67856867 119 18265616661727587965

>  <PUBCHEM_SHAPE_MULTIPOLES>  (1) 
417.23
19.62
1.64
0.94
13.02
0.03
0.23
-0.08
5.3
-2.11
0.26
-0.59
0
0

>  <PUBCHEM_SHAPE_SELFOVERLAP>  (1) 
870.206

>  <PUBCHEM_SHAPE_VOLUME>  (1) 
238.4

>  <PUBCHEM_COORDINATE_TYPE>  (1) 
2
5
10

$$$$
