21052
     RDKit          3D

 16 17  0  0  0  0  0  0  0  0999 V2000
    0.8884    2.4060    0.3524 O   0  0  0  0  0  0  0  0  0  0  0  0
   -4.5131   -0.8156   -0.6802 N   0  0  0  0  0  0  0  0  0  0  0  0
   -0.6546    0.6718   -0.0811 C   0  0  0  0  0  0  0  0  0  0  0  0
   -2.6571   -0.2902    0.8152 C   0  0  0  0  0  0  0  0  0  0  0  0
   -1.3686    0.2077    1.0089 C   0  0  0  0  0  0  0  0  0  0  0  0
   -3.2099   -0.3156   -0.4653 C   0  0  0  0  0  0  0  0  0  0  0  0
    0.7103    1.1998    0.1233 C   0  0  0  0  0  0  0  0  0  0  0  0
   -1.1854    0.6549   -1.3583 C   0  0  0  0  0  0  0  0  0  0  0  0
    1.8693    0.3250    0.0469 C   0  0  0  0  0  0  0  0  0  0  0  0
   -2.4739    0.1571   -1.5520 C   0  0  0  0  0  0  0  0  0  0  0  0
   -3.4228   -0.7900    1.9970 C   0  0  0  0  0  0  0  0  0  0  0  0
    1.7004   -1.0357   -0.2099 C   0  0  0  0  0  0  0  0  0  0  0  0
    3.1502    0.8464    0.2301 C   0  0  0  0  0  0  0  0  0  0  0  0
    2.8121   -1.8749   -0.2833 C   0  0  0  0  0  0  0  0  0  0  0  0
    4.2619    0.0070    0.1565 C   0  0  0  0  0  0  0  0  0  0  0  0
    4.0927   -1.3536   -0.1002 C   0  0  0  0  0  0  0  0  0  0  0  0
  1  7  2  0
  2  6  1  0
  3  5  1  0
  3  7  1  0
  3  8  2  0
  4  5  2  0
  4  6  1  0
  4 11  1  0
  6 10  2  0
  7  9  1  0
  8 10  1  0
  9 12  2  0
  9 13  1  0
 12 14  1  0
 13 15  2  0
 14 16  2  0
 15 16  1  0
M  END
>  <PUBCHEM_COMPOUND_CID>  (1) 
21052

>  <PUBCHEM_CONFORMER_RMSD>  (1) 
0.6

>  <PUBCHEM_CONFORMER_DIVERSEORDER>  (1) 
1
2

>  <PUBCHEM_MMFF94_PARTIAL_CHARGES>  (1) 
26
1 -0.57
10 -0.15
11 0.14
12 -0.15
13 -0.15
14 -0.15
15 -0.15
16 -0.15
17 0.15
18 0.15
19 0.15
2 -0.9
23 0.15
24 0.15
25 0.15
26 0.15
27 0.4
28 0.4
29 0.15
3 0.09
4 -0.14
5 -0.15
6 0.1
7 0.4
8 -0.15
9 0.09

>  <PUBCHEM_EFFECTIVE_ROTOR_COUNT>  (1) 
2

>  <PUBCHEM_PHARMACOPHORE_FEATURES>  (1) 
5
1 1 acceptor
1 2 cation
1 2 donor
6 3 4 5 6 8 10 rings
6 9 12 13 14 15 16 rings

>  <PUBCHEM_HEAVY_ATOM_COUNT>  (1) 
16

>  <PUBCHEM_ATOM_DEF_STEREO_COUNT>  (1) 
0

>  <PUBCHEM_ATOM_UDEF_STEREO_COUNT>  (1) 
0

>  <PUBCHEM_BOND_DEF_STEREO_COUNT>  (1) 
0

>  <PUBCHEM_BOND_UDEF_STEREO_COUNT>  (1) 
0

>  <PUBCHEM_ISOTOPIC_ATOM_COUNT>  (1) 
0

>  <PUBCHEM_COMPONENT_COUNT>  (1) 
1

>  <PUBCHEM_CACTVS_TAUTO_COUNT>  (1) 
5

>  <PUBCHEM_CONFORMER_ID>  (1) 
0000523C00000001

>  <PUBCHEM_MMFF94_ENERGY>  (1) 
64.3582

>  <PUBCHEM_FEATURE_SELFOVERLAP>  (1) 
25.371

>  <PUBCHEM_SHAPE_FINGERPRINT>  (1) 
10465860 71 16153432761443290399
10618630 7 18340488863866734004
11543360 7 16226060989389698846
12236239 1 17346598594670622437
12251169 10 15195279845875962289
13296908 3 18338794520611416756
13581323 91 15770057245966990029
13705890 14 17894632539633261190
14251717 144 18413386557586643878
14252887 29 18060143120121248150
14386348 63 18113901567317125130
15375358 24 18114174246237535314
15375462 189 17703788119955950210
16752209 62 15213577979132099297
16945 1 18340493373165890744
1813 80 17988377991955389580
18186145 218 17386009442544469976
19141452 34 18114476659992685187
19422 9 17346883342702589054
19862831 5 13839984421430721142
200 152 18272363170443370263
20201158 50 18259984864200865186
20279233 1 17967813846880736290
20361792 2 18272926103201325644
20645477 70 18336819883337139703
20871999 31 15936414472363118987
21061003 4 18410579482752067505
22094290 60 16660364774925034525
22112679 90 16988566848190552665
22445834 79 17561362880977724831
2255824 54 18059009630901997168
22646028 28 18060696191069685495
23526113 38 18114452401273273624
23557571 272 17530955874222155876
23559900 14 17095518492377417320
2871803 45 18261671485184261326
474 4 17414980633518281384
4921388 177 16443356351194812387
77492 1 17346317128320906044
81228 2 18119241766819377728
83771 10 18343300349258306924
90316 7 16773804658001337409

>  <PUBCHEM_SHAPE_MULTIPOLES>  (1) 
318.42
8.01
1.58
1.3
0.96
0.21
0.11
-3.27
0.05
1.06
0.11
-1.61
-0.12
0.8

>  <PUBCHEM_SHAPE_SELFOVERLAP>  (1) 
691.478

>  <PUBCHEM_SHAPE_VOLUME>  (1) 
174.5

>  <PUBCHEM_COORDINATE_TYPE>  (1) 
2
5
10

$$$$
