21051
     RDKit          3D

 22 23  0  0  0  0  0  0  0  0999 V2000
   -4.9339   -0.6754   -0.0015 O   0  0  0  0  0  0  0  0  0  0  0  0
   -8.3660   -0.0044    0.0080 O   0  0  0  0  0  0  0  0  0  0  0  0
   -7.2491   -1.8943    0.0003 O   0  0  0  0  0  0  0  0  0  0  0  0
    0.9287    1.6377   -0.0032 O   0  0  0  0  0  0  0  0  0  0  0  0
   -7.2635   -0.6279    0.0036 N   0  0  0  0  0  0  0  0  0  0  0  0
   -1.5174    0.3940   -0.0044 N   0  0  0  0  0  0  0  0  0  0  0  0
   -0.3530   -0.2932   -0.0064 N   0  0  0  0  0  0  0  0  0  0  0  0
    3.1824    0.0715   -0.0039 N   0  0  0  0  0  0  0  0  0  0  0  0
    1.9350   -0.4500   -0.0062 N   0  0  0  0  0  0  0  0  0  0  0  0
   -3.9129    0.2002   -0.0015 C   0  0  0  0  0  0  0  0  0  0  0  0
    5.5476   -0.4457    0.0003 C   0  0  0  0  0  0  0  0  0  0  0  0
   -4.3306    1.4898    0.0021 C   0  0  0  0  0  0  0  0  0  0  0  0
   -6.0616    0.0825    0.0022 C   0  0  0  0  0  0  0  0  0  0  0  0
   -5.7442    1.4209    0.0046 C   0  0  0  0  0  0  0  0  0  0  0  0
    6.5088   -1.4433    0.0035 C   0  0  0  0  0  0  0  0  0  0  0  0
    5.8988    0.8943    0.0001 C   0  0  0  0  0  0  0  0  0  0  0  0
    7.8585   -1.0912    0.0065 C   0  0  0  0  0  0  0  0  0  0  0  0
    7.2485    1.2465    0.0030 C   0  0  0  0  0  0  0  0  0  0  0  0
   -2.5708   -0.3578   -0.0054 C   0  0  0  0  0  0  0  0  0  0  0  0
    8.2283    0.2536    0.0063 C   0  0  0  0  0  0  0  0  0  0  0  0
    4.1218   -0.8175   -0.0025 C   0  0  0  0  0  0  0  0  0  0  0  0
    0.8445    0.4097   -0.0056 C   0  0  0  0  0  0  0  0  0  0  0  0
  1 10  1  0
  1 13  1  0
  2  5  1  0
  3  5  2  0
  4 22  2  0
  5 13  1  0
  6  7  1  0
  6 19  2  0
  7 22  1  0
  8  9  1  0
  8 21  2  0
  9 22  1  0
 10 12  2  0
 10 19  1  0
 11 15  2  0
 11 16  1  0
 11 21  1  0
 12 14  1  0
 13 14  2  0
 15 17  1  0
 16 18  2  0
 17 20  2  0
 18 20  1  0
M  CHG  2   2  -1   5   1
M  END
>  <PUBCHEM_COMPOUND_CID>  (1) 
21051

>  <PUBCHEM_CONFORMER_RMSD>  (1) 
0.8

>  <PUBCHEM_CONFORMER_DIVERSEORDER>  (1) 
1
6
4
5
3
7
2

>  <PUBCHEM_MMFF94_PARTIAL_CHARGES>  (1) 
33
1 -0.28
10 0.05
11 0.09
12 -0.15
13 0.22
14 -0.15
15 -0.15
16 -0.15
17 -0.15
18 -0.15
19 0.47
2 -0.52
20 -0.15
21 0.3
22 0.69
23 0.15
24 0.15
25 0.15
26 0.15
27 0.15
28 0.15
29 0.06
3 -0.52
30 0.15
31 0.06
32 0.37
33 0.37
4 -0.57
5 0.96
6 -0.51
7 -0.37
8 -0.51
9 -0.37

>  <PUBCHEM_EFFECTIVE_ROTOR_COUNT>  (1) 
7

>  <PUBCHEM_PHARMACOPHORE_FEATURES>  (1) 
11
1 1 acceptor
1 2 acceptor
1 2 anion
1 3 acceptor
1 4 acceptor
1 6 acceptor
1 7 donor
1 8 acceptor
1 9 donor
5 1 10 12 13 14 rings
6 11 15 16 17 18 20 rings

>  <PUBCHEM_HEAVY_ATOM_COUNT>  (1) 
22

>  <PUBCHEM_ATOM_DEF_STEREO_COUNT>  (1) 
0

>  <PUBCHEM_ATOM_UDEF_STEREO_COUNT>  (1) 
0

>  <PUBCHEM_BOND_DEF_STEREO_COUNT>  (1) 
0

>  <PUBCHEM_BOND_UDEF_STEREO_COUNT>  (1) 
2

>  <PUBCHEM_ISOTOPIC_ATOM_COUNT>  (1) 
0

>  <PUBCHEM_COMPONENT_COUNT>  (1) 
1

>  <PUBCHEM_CACTVS_TAUTO_COUNT>  (1) 
3

>  <PUBCHEM_CONFORMER_ID>  (1) 
0000523B00000001

>  <PUBCHEM_MMFF94_ENERGY>  (1) 
42.4191

>  <PUBCHEM_FEATURE_SELFOVERLAP>  (1) 
55.979

>  <PUBCHEM_SHAPE_FINGERPRINT>  (1) 
10299344 5 18411981360341076494
10319688 140 13685756961334382812
11315181 36 18412265030784690329
11524674 6 16487252188302128591
11719270 70 18059573560472134614
12082328 90 18271524213365503757
12091667 2 17458065946119595061
12516196 113 18343300362401964128
13533116 47 13973693780844857868
13685833 64 18413389834467147792
13885169 127 18335701616162441749
14123256 10 17167861958805635722
14251764 18 18412546517649192701
14251764 46 18410573980861784579
14428016 248 13398629485159509914
14933364 13 18412262826859857768
15183329 4 16081089268596460488
15419008 47 16630520709253410648
15716309 27 18344144795726644079
15849732 13 18411418418835048604
16120349 18 18334856160234723028
18006028 8 18130786750558589304
21150785 3 18335138699982956185
21267235 1 18408606976878639657
21315763 28 18410011018545876208
220451 1 15410890743214647020
22224240 67 17675924304991141874
232437 2 18410012122985629898
23521765 1 18341895190356247846
249057 3 15791738524297696586
33684 2 18261110768608247411
34797466 226 16702026396437494064
4073 2 18041002894935899170
4325135 7 18409449189789844572
4463277 17 18410855447850142220
67123 10 18410575101848229358
8209 1 18410573985151451142

>  <PUBCHEM_SHAPE_MULTIPOLES>  (1) 
404.37
29.78
1.42
0.58
1.56
0.05
0
-4.12
-0.09
0.18
0
-0.12
0.01
0

>  <PUBCHEM_SHAPE_SELFOVERLAP>  (1) 
859.145

>  <PUBCHEM_SHAPE_VOLUME>  (1) 
225.1

>  <PUBCHEM_COORDINATE_TYPE>  (1) 
2
5
10

$$$$
