21062
     RDKit          3D

 24 27  0  0  0  0  0  0  0  0999 V2000
   -0.1220    1.4927    0.8924 O   0  0  0  0  0  0  0  0  0  0  0  0
    3.5996   -1.9568   -0.7833 O   0  0  0  0  0  0  0  0  0  0  0  0
   -1.9566   -0.3399    0.9698 N   0  0  0  0  0  0  0  0  0  0  0  0
    0.3808   -0.7456    0.2911 C   0  0  0  0  0  0  0  0  0  0  0  0
    1.3608   -1.6388   -0.1469 C   0  0  0  0  0  0  0  0  0  0  0  0
   -0.9226   -1.1994    0.5261 C   0  0  0  0  0  0  0  0  0  0  0  0
    2.0873    1.1436    0.2569 C   0  0  0  0  0  0  0  0  0  0  0  0
    3.0673    0.2504   -0.1814 C   0  0  0  0  0  0  0  0  0  0  0  0
    0.7083    0.6782    0.5093 C   0  0  0  0  0  0  0  0  0  0  0  0
   -1.2406   -2.5426    0.3229 C   0  0  0  0  0  0  0  0  0  0  0  0
    2.7398   -1.1733   -0.3995 C   0  0  0  0  0  0  0  0  0  0  0  0
    1.0375   -2.9859   -0.3494 C   0  0  0  0  0  0  0  0  0  0  0  0
   -0.2625   -3.4340   -0.1137 C   0  0  0  0  0  0  0  0  0  0  0  0
    2.4106    2.4907    0.4595 C   0  0  0  0  0  0  0  0  0  0  0  0
    4.3705    0.7043   -0.4172 C   0  0  0  0  0  0  0  0  0  0  0  0
   -2.6217   -3.0627    0.5631 C   0  0  0  0  0  0  0  0  0  0  0  0
   -2.8994    0.4428    0.2830 C   0  0  0  0  0  0  0  0  0  0  0  0
    3.7105    2.9389    0.2232 C   0  0  0  0  0  0  0  0  0  0  0  0
    4.6883    2.0476   -0.2141 C   0  0  0  0  0  0  0  0  0  0  0  0
   -3.8260    1.2119    0.9928 C   0  0  0  0  0  0  0  0  0  0  0  0
   -2.9171    0.4568   -1.1146 C   0  0  0  0  0  0  0  0  0  0  0  0
   -4.7626    1.9884    0.3106 C   0  0  0  0  0  0  0  0  0  0  0  0
   -3.8537    1.2335   -1.7968 C   0  0  0  0  0  0  0  0  0  0  0  0
   -4.7764    1.9994   -1.0840 C   0  0  0  0  0  0  0  0  0  0  0  0
  1  9  2  0
  2 11  2  0
  3  6  1  0
  3 17  1  0
  4  5  2  0
  4  6  1  0
  4  9  1  0
  5 11  1  0
  5 12  1  0
  6 10  2  0
  7  8  2  0
  7  9  1  0
  7 14  1  0
  8 11  1  0
  8 15  1  0
 10 13  1  0
 10 16  1  0
 12 13  2  0
 14 18  2  0
 15 19  2  0
 17 20  2  0
 17 21  1  0
 18 19  1  0
 20 22  1  0
 21 23  2  0
 22 24  2  0
 23 24  1  0
M  END
>  <PUBCHEM_COMPOUND_CID>  (1) 
21062

>  <PUBCHEM_CONFORMER_RMSD>  (1) 
0.6

>  <PUBCHEM_CONFORMER_DIVERSEORDER>  (1) 
1
2
3

>  <PUBCHEM_MMFF94_PARTIAL_CHARGES>  (1) 
36
1 -0.57
10 -0.14
11 0.4
12 -0.15
13 -0.15
14 -0.15
15 -0.15
16 0.14
17 0.1
18 -0.15
19 -0.15
2 -0.57
20 -0.15
21 -0.15
22 -0.15
23 -0.15
24 -0.15
25 0.15
26 0.15
27 0.4
28 0.15
29 0.15
3 -0.6
33 0.15
34 0.15
35 0.15
36 0.15
37 0.15
38 0.15
39 0.15
4 0.09
5 0.09
6 0.1
7 0.09
8 0.09
9 0.4

>  <PUBCHEM_EFFECTIVE_ROTOR_COUNT>  (1) 
2

>  <PUBCHEM_PHARMACOPHORE_FEATURES>  (1) 
8
1 1 acceptor
1 2 acceptor
1 3 cation
1 3 donor
6 17 20 21 22 23 24 rings
6 4 5 6 10 12 13 rings
6 4 5 7 8 9 11 rings
6 7 8 14 15 18 19 rings

>  <PUBCHEM_HEAVY_ATOM_COUNT>  (1) 
24

>  <PUBCHEM_ATOM_DEF_STEREO_COUNT>  (1) 
0

>  <PUBCHEM_ATOM_UDEF_STEREO_COUNT>  (1) 
0

>  <PUBCHEM_BOND_DEF_STEREO_COUNT>  (1) 
0

>  <PUBCHEM_BOND_UDEF_STEREO_COUNT>  (1) 
0

>  <PUBCHEM_ISOTOPIC_ATOM_COUNT>  (1) 
0

>  <PUBCHEM_COMPONENT_COUNT>  (1) 
1

>  <PUBCHEM_CACTVS_TAUTO_COUNT>  (1) 
4

>  <PUBCHEM_CONFORMER_ID>  (1) 
0000524600000001

>  <PUBCHEM_MMFF94_ENERGY>  (1) 
96.2971

>  <PUBCHEM_FEATURE_SELFOVERLAP>  (1) 
40.639

>  <PUBCHEM_SHAPE_FINGERPRINT>  (1) 
10165383 225 18261686886815581485
10411042 1 17402619545604707163
105312 117 18334857255298233876
10670039 82 17829627397944567676
10688039 33 17757557730321060003
10693767 8 17771340877073873822
10967382 1 18268440035836322106
1100329 8 18337671906582136698
11370993 70 18410289233130816804
11578080 2 18188504552880980020
11725454 13 17822008671041923491
12403259 415 18334023769807644185
12730499 353 18262802861611964025
12769317 202 18266166245663584653
12788726 201 17903339739327720755
13140716 1 18409450284532095802
13464514 151 18413388726376154468
138480 1 17762622784989157131
13944108 23 17324633393560109549
14713325 29 18118687861744575107
14790565 3 18268441139469324761
14848178 96 18411415102957343341
18186145 218 18339078190284728109
19784866 34 18412262818006153113
20715895 44 18337665313516894472
21033648 29 17894910685773603525
21279426 13 18341908402698972292
22122407 14 17838354990797499321
22182313 1 18339657740197499854
22393880 68 18341337781438295870
22907989 373 17833543870672107221
23227448 37 18409730698698908775
23558518 356 18116434936692058994
23559900 14 18343305834570243630
23566358 2 18272098248207756750
238 59 17757513449349968541
25 1 18338796719597839875
2748010 2 18340780341638096026
283562 15 18120367920213596067
335352 9 18411986841294281518
350125 39 18266749163009324179
4371632 12 14832163034511847072
469060 322 16588296255039321871
474 4 18341045225277117169
633830 44 18199752457874962701

>  <PUBCHEM_SHAPE_MULTIPOLES>  (1) 
477.19
9.19
4.04
1.06
1.6
2.36
-0.23
-8.41
-1.82
-0.21
0.05
1
-0.3
1.2

>  <PUBCHEM_SHAPE_SELFOVERLAP>  (1) 
1076.579

>  <PUBCHEM_SHAPE_VOLUME>  (1) 
249.3

>  <PUBCHEM_COORDINATE_TYPE>  (1) 
2
5
10

$$$$
