21067
     RDKit          3D

 19 20  0  0  0  0  0  0  0  0999 V2000
    3.1875    1.9468    0.6694 O   0  0  0  0  0  0  0  0  0  0  0  0
   -0.6734   -1.9583    0.2625 O   0  0  0  0  0  0  0  0  0  0  0  0
    0.6038   -1.6337   -1.6349 O   0  0  0  0  0  0  0  0  0  0  0  0
    3.1469    0.6623    0.1904 N   0  0  0  0  0  0  0  0  0  0  0  0
    0.1741    0.2048   -0.1154 C   0  0  0  0  0  0  0  0  0  0  0  0
    1.0162    1.0410   -1.1137 C   0  0  0  0  0  0  0  0  0  0  0  0
    0.9120    0.1792    1.2483 C   0  0  0  0  0  0  0  0  0  0  0  0
    2.4865    0.6289   -1.1678 C   0  0  0  0  0  0  0  0  0  0  0  0
    2.3793   -0.2308    1.1375 C   0  0  0  0  0  0  0  0  0  0  0  0
   -1.2597    0.7595   -0.0397 C   0  0  0  0  0  0  0  0  0  0  0  0
    0.0778   -1.2259   -0.6082 C   0  0  0  0  0  0  0  0  0  0  0  0
    4.5610    0.1638    0.0705 C   0  0  0  0  0  0  0  0  0  0  0  0
   -2.0416    0.8147   -1.1901 C   0  0  0  0  0  0  0  0  0  0  0  0
   -1.7664    1.2032    1.1784 C   0  0  0  0  0  0  0  0  0  0  0  0
   -3.3409    1.3177   -1.1217 C   0  0  0  0  0  0  0  0  0  0  0  0
   -3.0656    1.7062    1.2469 C   0  0  0  0  0  0  0  0  0  0  0  0
   -3.8528    1.7634    0.0968 C   0  0  0  0  0  0  0  0  0  0  0  0
   -0.8470   -3.3361   -0.0834 C   0  0  0  0  0  0  0  0  0  0  0  0
   -1.6975   -4.0067    0.9742 C   0  0  0  0  0  0  0  0  0  0  0  0
  1  4  1  0
  2 11  1  0
  2 18  1  0
  3 11  2  0
  4  8  1  0
  4  9  1  0
  4 12  1  0
  5  6  1  0
  5  7  1  0
  5 10  1  0
  5 11  1  0
  6  8  1  0
  7  9  1  0
 10 13  2  0
 10 14  1  0
 13 15  1  0
 14 16  2  0
 15 17  2  0
 16 17  1  0
 18 19  1  0
M  CHG  2   1  -1   4   1
M  END
>  <PUBCHEM_COMPOUND_CID>  (1) 
21067

>  <PUBCHEM_CONFORMER_RMSD>  (1) 
0.8

>  <PUBCHEM_CONFORMER_DIVERSEORDER>  (1) 
1
4
5
3
6
8
7
10
12
11
2
9

>  <PUBCHEM_MMFF94_PARTIAL_CHARGES>  (1) 
21
1 -0.75
10 -0.14
11 0.66
12 0.26
13 -0.15
14 -0.15
15 -0.15
16 -0.15
17 -0.15
18 0.28
2 -0.43
3 -0.57
31 0.15
32 0.15
33 0.15
34 0.15
37 0.15
4 -0.02
5 0.2
8 0.26
9 0.26

>  <PUBCHEM_EFFECTIVE_ROTOR_COUNT>  (1) 
5.2

>  <PUBCHEM_PHARMACOPHORE_FEATURES>  (1) 
4
1 1 anion
1 3 acceptor
6 10 13 14 15 16 17 rings
6 4 5 6 7 8 9 rings

>  <PUBCHEM_HEAVY_ATOM_COUNT>  (1) 
19

>  <PUBCHEM_ATOM_DEF_STEREO_COUNT>  (1) 
0

>  <PUBCHEM_ATOM_UDEF_STEREO_COUNT>  (1) 
0

>  <PUBCHEM_BOND_DEF_STEREO_COUNT>  (1) 
0

>  <PUBCHEM_BOND_UDEF_STEREO_COUNT>  (1) 
0

>  <PUBCHEM_ISOTOPIC_ATOM_COUNT>  (1) 
0

>  <PUBCHEM_COMPONENT_COUNT>  (1) 
1

>  <PUBCHEM_CACTVS_TAUTO_COUNT>  (1) 
1

>  <PUBCHEM_CONFORMER_ID>  (1) 
0000524B00000001

>  <PUBCHEM_MMFF94_ENERGY>  (1) 
53.4289

>  <PUBCHEM_FEATURE_SELFOVERLAP>  (1) 
20.297

>  <PUBCHEM_SHAPE_FINGERPRINT>  (1) 
12119455 92 18187079503653452756
121448 382 18342730823952535655
12643181 29 18339652132131144590
12788726 201 17901953268244844402
13140716 1 18265902350162012003
13538477 17 18262223517367382498
14617773 55 17679870593693088134
14787075 74 18130218367914357673
15295992 7 17417812885149959792
15309172 13 18335419024082809893
15852999 172 18342741788603310838
15906896 17 18341040934383619447
16752209 62 18265039400726851775
16945 1 18191310578947132495
17868525 174 17254004559459319275
18186145 218 18131069290539645724
18915476 22 17828751851580798533
19765921 60 18129938971306322625
201361 129 17984708805335994969
204376 136 18408887304445064901
20510252 161 18198337549412998283
20645476 183 18409437094454966070
21033648 29 18263906792413876360
21041028 32 10015288183449346511
21524375 3 18201151061971138740
2255824 54 17910114612350514503
23402539 116 17775276132764491088
23419403 2 15187479910636510741
23557571 272 18126850623601188708
25 1 17988083283572457744
2748010 2 18192459422954612967
305870 269 18196092131799564417
3071541 236 18411130376816619915
3091708 16 9268403064231504355
404807 14 14470522201453770894
4340502 62 18340781338745482321
458136 41 18266468594286439683
474 4 18131070398435577153
633830 44 17988083283678251685
7164475 11 17973447890711816910
7364860 26 17906734700600262935
81228 2 18119533390597528411
9981440 41 16768970260272436480

>  <PUBCHEM_SHAPE_MULTIPOLES>  (1) 
368.42
6.06
3.3
1.42
2.32
5.56
0.07
-4.52
-0.56
-2.29
-0.63
-0.19
-0.17
0.21

>  <PUBCHEM_SHAPE_SELFOVERLAP>  (1) 
766.791

>  <PUBCHEM_SHAPE_VOLUME>  (1) 
207

>  <PUBCHEM_COORDINATE_TYPE>  (1) 
2
5
10

$$$$
