21073
     RDKit          3D

 15 15  0  0  1  0  0  0  0  0999 V2000
   -0.4732   -2.5460   -0.0212 Cl  0  0  0  0  0  0  0  0  0  0  0  0
   -5.0853    0.1569    0.6063 Cl  0  0  0  0  0  0  0  0  0  0  0  0
    3.2164   -0.1948    0.1931 S   0  0  0  0  0  0  0  0  0  0  0  0
    3.8324   -0.0377    1.4977 O   0  0  0  0  0  0  0  0  0  0  0  0
    3.1816   -1.5000   -0.4404 O   0  0  0  0  0  0  0  0  0  0  0  0
    1.6096    0.4397    0.2540 N   0  0  0  0  0  0  0  0  0  0  0  0
    3.9600    0.9040   -0.8852 N   0  0  0  0  0  0  0  0  0  0  0  0
    0.7262    0.1521   -0.9056 C   0  0  0  0  0  0  0  0  0  0  0  0
   -0.7265    0.1210   -0.5209 C   0  0  0  0  0  0  0  0  0  0  0  0
    1.4527    1.8345    0.7409 C   0  0  0  0  0  0  0  0  0  0  0  0
   -1.3416   -1.0569   -0.1111 C   0  0  0  0  0  0  0  0  0  0  0  0
   -1.4455    1.3099   -0.5854 C   0  0  0  0  0  0  0  0  0  0  0  0
   -2.6920   -1.0462    0.2382 C   0  0  0  0  0  0  0  0  0  0  0  0
   -2.7957    1.3207   -0.2362 C   0  0  0  0  0  0  0  0  0  0  0  0
   -3.4190    0.1426    0.1757 C   0  0  0  0  0  0  0  0  0  0  0  0
  1 11  1  0
  2 15  1  0
  3  4  2  0
  3  5  2  0
  3  6  1  0
  3  7  1  0
  6  8  1  0
  6 10  1  0
  8  9  1  0
  9 11  2  0
  9 12  1  0
 11 13  1  0
 12 14  2  0
 13 15  2  0
 14 15  1  0
M  END
>  <PUBCHEM_COMPOUND_CID>  (1) 
21073

>  <PUBCHEM_CONFORMER_RMSD>  (1) 
0.6

>  <PUBCHEM_CONFORMER_DIVERSEORDER>  (1) 
1
47
14
35
44
56
15
20
28
41
57
30
4
39
59
53
60
34
22
58
26
10
49
43
54
61
32
48
7
36
27
25
55
45
37
31
29
51
19
38
3
18
16
8
24
23
17
50
6
42
9
11
52
2
46
21
5
13
40
12
33

>  <PUBCHEM_MMFF94_PARTIAL_CHARGES>  (1) 
20
1 -0.18
10 0.36
11 0.18
12 -0.15
13 -0.15
14 -0.15
15 0.18
2 -0.18
21 0.15
22 0.15
23 0.15
24 0.42
25 0.42
3 1.58
4 -0.65
5 -0.65
6 -0.85
7 -0.98
8 0.5
9 -0.14

>  <PUBCHEM_EFFECTIVE_ROTOR_COUNT>  (1) 
3

>  <PUBCHEM_PHARMACOPHORE_FEATURES>  (1) 
2
1 7 donor
6 9 11 12 13 14 15 rings

>  <PUBCHEM_HEAVY_ATOM_COUNT>  (1) 
15

>  <PUBCHEM_ATOM_DEF_STEREO_COUNT>  (1) 
0

>  <PUBCHEM_ATOM_UDEF_STEREO_COUNT>  (1) 
0

>  <PUBCHEM_BOND_DEF_STEREO_COUNT>  (1) 
0

>  <PUBCHEM_BOND_UDEF_STEREO_COUNT>  (1) 
0

>  <PUBCHEM_ISOTOPIC_ATOM_COUNT>  (1) 
0

>  <PUBCHEM_COMPONENT_COUNT>  (1) 
1

>  <PUBCHEM_CACTVS_TAUTO_COUNT>  (1) 
1

>  <PUBCHEM_CONFORMER_ID>  (1) 
0000525100000001

>  <PUBCHEM_MMFF94_ENERGY>  (1) 
33.8695

>  <PUBCHEM_FEATURE_SELFOVERLAP>  (1) 
10.148

>  <PUBCHEM_SHAPE_FINGERPRINT>  (1) 
11132069 177 18411133632633873871
12119455 92 17632857508436211469
12251169 10 18341328972027796249
12592029 89 18261957349538551283
12633257 1 18341044202874337088
13581323 91 18408886243587993525
14144814 61 18410008853597392488
15209294 21 18059306349118347569
15375462 189 17968364698206547904
15653759 3 18411696599508831625
15775835 57 18408608071319879115
16945 1 18341042003682282718
17804303 29 18409735070859603807
18186145 218 17561361777176397872
19422 9 17530682087247200600
20510252 161 18341051822247033921
21501502 16 18125714831957174700
23402539 116 18272925025771052973
23463225 33 18187644665509607390
23559900 14 18342185449190055806
265663 24 17632855326608655791
2748010 2 17973170530862233239
42 15 18259988167178213939
43471831 8 18187923911678295259
465052 167 17458920309577624747
53812653 166 18413388717939252547
57426455 114 18342451573389069827
69090 78 18202277022482394295
7364860 26 18192155008478810660
81228 2 17904747127233007155

>  <PUBCHEM_SHAPE_MULTIPOLES>  (1) 
294.58
7.97
1.91
0.95
0.4
0.78
0.11
-0.84
1.63
-0.04
-0.01
-0.54
-0.14
0.19

>  <PUBCHEM_SHAPE_SELFOVERLAP>  (1) 
570.736

>  <PUBCHEM_SHAPE_VOLUME>  (1) 
181.4

>  <PUBCHEM_COORDINATE_TYPE>  (1) 
2
5
10

$$$$
