21077
     RDKit          3D

 14 14  0  0  0  0  0  0  0  0999 V2000
    2.6171   -1.2607   -0.0242 O   0  0  0  0  0  0  0  0  0  0  0  0
    1.4069    0.7172   -0.0132 N   0  0  0  0  0  0  0  0  0  0  0  0
    0.2170    0.0742   -0.0102 N   0  0  0  0  0  0  0  0  0  0  0  0
    6.0333   -0.5312    0.0417 N   0  0  0  0  0  0  0  0  0  0  0  0
   -2.1880    0.3525    0.0012 C   0  0  0  0  0  0  0  0  0  0  0  0
   -3.2438    1.2493    0.0089 C   0  0  0  0  0  0  0  0  0  0  0  0
   -2.4038   -1.0159   -0.0029 C   0  0  0  0  0  0  0  0  0  0  0  0
   -4.5517    0.7644    0.0132 C   0  0  0  0  0  0  0  0  0  0  0  0
   -3.7117   -1.5008    0.0012 C   0  0  0  0  0  0  0  0  0  0  0  0
   -0.8065    0.8649   -0.0036 C   0  0  0  0  0  0  0  0  0  0  0  0
   -4.7856   -0.6106    0.0092 C   0  0  0  0  0  0  0  0  0  0  0  0
    2.5706   -0.0329   -0.0203 C   0  0  0  0  0  0  0  0  0  0  0  0
    3.8003    0.8517   -0.0165 C   0  0  0  0  0  0  0  0  0  0  0  0
    5.0460    0.0779    0.0153 C   0  0  0  0  0  0  0  0  0  0  0  0
  1 12  2  0
  2  3  1  0
  2 12  1  0
  3 10  2  0
  4 14  3  0
  5  6  2  0
  5  7  1  0
  5 10  1  0
  6  8  1  0
  7  9  2  0
  8 11  2  0
  9 11  1  0
 12 13  1  0
 13 14  1  0
M  END
>  <PUBCHEM_COMPOUND_CID>  (1) 
21077

>  <PUBCHEM_CONFORMER_RMSD>  (1) 
0.6

>  <PUBCHEM_CONFORMER_DIVERSEORDER>  (1) 
1
8
6
3
7
4
2
5

>  <PUBCHEM_MMFF94_PARTIAL_CHARGES>  (1) 
21
1 -0.57
10 0.3
11 -0.15
12 0.57
13 0.26
14 0.36
15 0.15
16 0.15
17 0.15
18 0.15
19 0.06
2 -0.37
20 0.15
23 0.37
3 -0.51
4 -0.56
5 0.09
6 -0.15
7 -0.15
8 -0.15
9 -0.15

>  <PUBCHEM_EFFECTIVE_ROTOR_COUNT>  (1) 
4

>  <PUBCHEM_PHARMACOPHORE_FEATURES>  (1) 
5
1 1 acceptor
1 2 donor
1 3 acceptor
1 4 acceptor
6 5 6 7 8 9 11 rings

>  <PUBCHEM_HEAVY_ATOM_COUNT>  (1) 
14

>  <PUBCHEM_ATOM_DEF_STEREO_COUNT>  (1) 
0

>  <PUBCHEM_ATOM_UDEF_STEREO_COUNT>  (1) 
0

>  <PUBCHEM_BOND_DEF_STEREO_COUNT>  (1) 
0

>  <PUBCHEM_BOND_UDEF_STEREO_COUNT>  (1) 
1

>  <PUBCHEM_ISOTOPIC_ATOM_COUNT>  (1) 
0

>  <PUBCHEM_COMPONENT_COUNT>  (1) 
1

>  <PUBCHEM_CACTVS_TAUTO_COUNT>  (1) 
2

>  <PUBCHEM_CONFORMER_ID>  (1) 
0000525500000001

>  <PUBCHEM_MMFF94_ENERGY>  (1) 
27.4701

>  <PUBCHEM_FEATURE_SELFOVERLAP>  (1) 
25.377

>  <PUBCHEM_SHAPE_FINGERPRINT>  (1) 
10680689 15 17821447954455879381
11315181 36 18344149202146948464
12107183 9 17616530662311302968
12815109 37 18410009939981369359
13167823 11 18334573538496157578
13288520 33 18410856586195583455
14123238 8 17749107794355809356
1420 363 18201723955253696774
14252887 29 17060066934536238804
15242433 33 18408323271991053939
17834072 33 18408888468576381108
17834076 25 18410012134709683589
200 152 18273214205164686000
20279233 1 18060427914558942135
20645477 56 18261952951893044333
20645477 70 18129665192890206430
20828058 44 18413107268647904164
21267235 1 18336272318410370099
22485316 2 18409446977243331411
2297311 6 18271816717243386412
23402539 116 17748823012196349708
23557571 272 18336266747695713628
23559900 14 18340760537412103537
26918003 58 18130787862627766000
300161 21 18335130977721519449
3545911 37 18411419492534803925
42 15 18410857667757293212
4214541 1 18410575067652385061
42788 4 18410855464882181920
5104073 3 18410856602832387888
542803 24 17095526192900448636
57483677 66 18408319969625492026
77779 3 18411420613468527156

>  <PUBCHEM_SHAPE_MULTIPOLES>  (1) 
267.3
12.85
1.29
0.59
12.32
0.17
0
1.52
-0.12
-0.95
0
-0.07
-0.01
-0.01

>  <PUBCHEM_SHAPE_SELFOVERLAP>  (1) 
548.28

>  <PUBCHEM_SHAPE_VOLUME>  (1) 
151

>  <PUBCHEM_COORDINATE_TYPE>  (1) 
2
5
10

$$$$
