21095
     RDKit          3D

 13 14  0  0  1  0  0  0  0  0999 V2000
    2.1415   -2.1632    0.2246 O   0  0  0  0  0  0  0  0  0  0  0  0
   -0.0356   -1.7615   -0.5593 N   0  0  0  0  0  0  0  0  0  0  0  0
    2.9681    2.1686   -1.0043 N   0  0  0  0  0  0  0  0  0  0  0  0
    0.8375   -0.2349    1.0262 C   0  0  0  0  0  0  0  0  0  0  0  0
   -0.5465    0.1426    0.5807 C   0  0  0  0  0  0  0  0  0  0  0  0
    1.8793    0.8325    0.7388 C   0  0  0  0  0  0  0  0  0  0  0  0
   -1.0096   -0.7941   -0.3407 C   0  0  0  0  0  0  0  0  0  0  0  0
    1.1104   -1.5087    0.2025 C   0  0  0  0  0  0  0  0  0  0  0  0
    1.9476    1.1584   -0.7517 C   0  0  0  0  0  0  0  0  0  0  0  0
   -1.3455    1.2051    0.9605 C   0  0  0  0  0  0  0  0  0  0  0  0
   -2.2598   -0.7138   -0.9205 C   0  0  0  0  0  0  0  0  0  0  0  0
   -2.6174    1.3101    0.3880 C   0  0  0  0  0  0  0  0  0  0  0  0
   -3.0700    0.3589   -0.5448 C   0  0  0  0  0  0  0  0  0  0  0  0
  1  8  2  0
  2  7  1  0
  2  8  1  0
  3  9  1  0
  4  5  1  0
  4  6  1  0
  4  8  1  0
  5  7  2  0
  5 10  1  0
  6  9  1  0
  7 11  1  0
 10 12  2  0
 11 13  2  0
 12 13  1  0
M  END
>  <PUBCHEM_COMPOUND_CID>  (1) 
21095

>  <PUBCHEM_CONFORMER_RMSD>  (1) 
0.6

>  <PUBCHEM_CONFORMER_DIVERSEORDER>  (1) 
1
7
3
4
8
6
5
2

>  <PUBCHEM_MMFF94_PARTIAL_CHARGES>  (1) 
19
1 -0.57
10 -0.15
11 -0.15
12 -0.15
13 -0.15
17 0.37
2 -0.55
20 0.15
21 0.15
22 0.15
23 0.15
24 0.36
25 0.36
3 -0.99
4 0.2
5 -0.14
7 0.12
8 0.57
9 0.27

>  <PUBCHEM_EFFECTIVE_ROTOR_COUNT>  (1) 
2.4

>  <PUBCHEM_PHARMACOPHORE_FEATURES>  (1) 
6
1 1 acceptor
1 2 donor
1 3 cation
1 3 donor
5 2 4 5 7 8 rings
6 5 7 10 11 12 13 rings

>  <PUBCHEM_HEAVY_ATOM_COUNT>  (1) 
13

>  <PUBCHEM_ATOM_DEF_STEREO_COUNT>  (1) 
0

>  <PUBCHEM_ATOM_UDEF_STEREO_COUNT>  (1) 
1

>  <PUBCHEM_BOND_DEF_STEREO_COUNT>  (1) 
0

>  <PUBCHEM_BOND_UDEF_STEREO_COUNT>  (1) 
0

>  <PUBCHEM_ISOTOPIC_ATOM_COUNT>  (1) 
0

>  <PUBCHEM_COMPONENT_COUNT>  (1) 
1

>  <PUBCHEM_CACTVS_TAUTO_COUNT>  (1) 
3

>  <PUBCHEM_CONFORMER_ID>  (1) 
0000526700000001

>  <PUBCHEM_MMFF94_ENERGY>  (1) 
29.1082

>  <PUBCHEM_FEATURE_SELFOVERLAP>  (1) 
30.535

>  <PUBCHEM_SHAPE_FINGERPRINT>  (1) 
10465860 71 17843418292839052814
12326174 3 17676758778312938738
12423570 1 17838906927578072819
13024252 1 7923702460684810048
14128692 85 17987509308385194763
15219459 52 18340202981868748047
15775835 57 18114460188033488396
16945 1 18198611327887364379
19837323 101 17974865165542446936
20645476 183 18412825789592595415
20653085 51 18116161145680593316
207724 885 18051409565653795467
21130352 189 17973436603258181420
21501502 16 18341894074208329739
21524375 3 18042121136478092080
22802520 49 17702678785542769900
228727 97 18130795610981045441
23419403 2 15174356032478637739
23552423 10 18340477868666339515
23559900 14 17987801951458880848
2748010 2 18058712663877711219
3071541 158 18122339082315206086
353137 74 18271532016835816137
430814 3 18261677089926496796
5084963 1 18268136566242073547
53812653 8 18268430307487106393
7364860 26 18059563664365772370
8030462 33 18201991140747613021

>  <PUBCHEM_SHAPE_MULTIPOLES>  (1) 
251.7
4.16
2.07
1.08
0.61
0.29
-0.01
-1.64
-0.99
-1.35
-0.27
-0.16
-0.26
-0.96

>  <PUBCHEM_SHAPE_SELFOVERLAP>  (1) 
539.367

>  <PUBCHEM_SHAPE_VOLUME>  (1) 
141.2

>  <PUBCHEM_COORDINATE_TYPE>  (1) 
2
5
10

$$$$
