21103
     RDKit          3D

 12 13  0  0  0  0  0  0  0  0999 V2000
    0.8031    2.7546    0.0004 O   0  0  0  0  0  0  0  0  0  0  0  0
    2.1009    0.8634    0.0000 N   0  0  0  0  0  0  0  0  0  0  0  0
    2.2607   -0.4801   -0.0002 N   0  0  0  0  0  0  0  0  0  0  0  0
   -0.1727   -0.6937    0.0001 C   0  0  0  0  0  0  0  0  0  0  0  0
   -0.3139    0.6913   -0.0001 C   0  0  0  0  0  0  0  0  0  0  0  0
    1.2034   -1.2302    0.0000 C   0  0  0  0  0  0  0  0  0  0  0  0
   -1.3069   -1.5096    0.0005 C   0  0  0  0  0  0  0  0  0  0  0  0
   -1.5853    1.2729   -0.0003 C   0  0  0  0  0  0  0  0  0  0  0  0
    0.8950    1.5306   -0.0001 C   0  0  0  0  0  0  0  0  0  0  0  0
    1.4095   -2.7265   -0.0002 C   0  0  0  0  0  0  0  0  0  0  0  0
   -2.5773   -0.9301    0.0001 C   0  0  0  0  0  0  0  0  0  0  0  0
   -2.7165    0.4573   -0.0003 C   0  0  0  0  0  0  0  0  0  0  0  0
  1  9  2  0
  2  3  1  0
  2  9  1  0
  3  6  2  0
  4  5  2  0
  4  6  1  0
  4  7  1  0
  5  8  1  0
  5  9  1  0
  6 10  1  0
  7 11  2  0
  8 12  2  0
 11 12  1  0
M  END
>  <PUBCHEM_COMPOUND_CID>  (1) 
21103

>  <PUBCHEM_CONFORMER_RMSD>  (1) 
0.4

>  <PUBCHEM_CONFORMER_DIVERSEORDER>  (1) 
1

>  <PUBCHEM_MMFF94_PARTIAL_CHARGES>  (1) 
17
1 -0.57
10 0.06
11 -0.15
12 -0.15
13 0.15
14 0.15
18 0.15
19 0.15
2 -0.37
20 0.37
3 -0.51
4 0.09
5 0.09
6 0.3
7 -0.15
8 -0.15
9 0.54

>  <PUBCHEM_EFFECTIVE_ROTOR_COUNT>  (1) 
0

>  <PUBCHEM_PHARMACOPHORE_FEATURES>  (1) 
5
1 1 acceptor
1 2 donor
1 3 acceptor
6 2 3 4 5 6 9 rings
6 4 5 7 8 11 12 rings

>  <PUBCHEM_HEAVY_ATOM_COUNT>  (1) 
12

>  <PUBCHEM_ATOM_DEF_STEREO_COUNT>  (1) 
0

>  <PUBCHEM_ATOM_UDEF_STEREO_COUNT>  (1) 
0

>  <PUBCHEM_BOND_DEF_STEREO_COUNT>  (1) 
0

>  <PUBCHEM_BOND_UDEF_STEREO_COUNT>  (1) 
0

>  <PUBCHEM_ISOTOPIC_ATOM_COUNT>  (1) 
0

>  <PUBCHEM_COMPONENT_COUNT>  (1) 
1

>  <PUBCHEM_CACTVS_TAUTO_COUNT>  (1) 
2

>  <PUBCHEM_CONFORMER_ID>  (1) 
0000526F00000001

>  <PUBCHEM_MMFF94_ENERGY>  (1) 
38.14

>  <PUBCHEM_FEATURE_SELFOVERLAP>  (1) 
25.396

>  <PUBCHEM_SHAPE_FINGERPRINT>  (1) 
10967382 1 18410573968145850151
12423570 1 10087652450625511383
12524768 44 18198625423801517119
16945 1 18410855486151199143
17990270 104 18410292501743340851
18185500 45 18339081492850906027
193761 8 17906171754973502860
20871998 184 17551501146482489974
21040471 1 17689998255336566432
2334 1 17834113430632885543
23463225 33 18335133181493345154
23552423 10 18409730707278378095
241688 4 18050286964181258755
2748010 2 18194680363190594351
2897 32 18338236080146835365
5084963 1 17986680474244103209
528886 8 18339075024682847467
63268167 104 18338237068184524833
66348 1 18339643313275381763
7364860 26 18342458161779224394

>  <PUBCHEM_SHAPE_MULTIPOLES>  (1) 
231.12
3.29
2.66
0.59
0.93
0.39
0
-0.79
0
-1.06
0
0.04
-0.03
0

>  <PUBCHEM_SHAPE_SELFOVERLAP>  (1) 
503.47

>  <PUBCHEM_SHAPE_VOLUME>  (1) 
126

>  <PUBCHEM_COORDINATE_TYPE>  (1) 
2
5
10

$$$$
