21124
     RDKit          3D

 18 20  0  0  1  0  0  0  0  0999 V2000
    2.2004   -1.6848   -2.0581 Cl  0  0  0  0  0  0  0  0  0  0  0  0
    1.0593   -1.4588    2.1210 O   0  0  0  0  0  0  0  0  0  0  0  0
   -1.4605   -1.4373    0.2031 N   0  0  0  0  0  0  0  0  0  0  0  0
   -0.7160    0.6510    0.3601 N   0  0  0  0  0  0  0  0  0  0  0  0
    0.9496   -1.1719    0.7124 C   0  0  0  0  0  0  0  0  0  0  0  0
   -0.3883   -0.6198    0.4294 C   0  0  0  0  0  0  0  0  0  0  0  0
   -2.5527   -0.6409   -0.0279 C   0  0  0  0  0  0  0  0  0  0  0  0
    2.1085   -0.2731    0.2723 C   0  0  0  0  0  0  0  0  0  0  0  0
   -2.0621    0.6578    0.0757 C   0  0  0  0  0  0  0  0  0  0  0  0
   -3.8870   -0.9361   -0.3099 C   0  0  0  0  0  0  0  0  0  0  0  0
    2.7044   -0.4574   -0.9541 C   0  0  0  0  0  0  0  0  0  0  0  0
    2.5100    0.7067    1.1538 C   0  0  0  0  0  0  0  0  0  0  0  0
   -2.9407    1.7385   -0.1102 C   0  0  0  0  0  0  0  0  0  0  0  0
   -4.7474    0.1516   -0.4921 C   0  0  0  0  0  0  0  0  0  0  0  0
   -4.2847    1.4659   -0.3943 C   0  0  0  0  0  0  0  0  0  0  0  0
    3.7574    0.3811   -1.3201 C   0  0  0  0  0  0  0  0  0  0  0  0
    3.5630    1.5452    0.7880 C   0  0  0  0  0  0  0  0  0  0  0  0
    4.1868    1.3824   -0.4490 C   0  0  0  0  0  0  0  0  0  0  0  0
  1 11  1  0
  2  5  1  0
  3  6  1  0
  3  7  1  0
  4  6  2  0
  4  9  1  0
  5  6  1  0
  5  8  1  0
  7  9  2  0
  7 10  1  0
  8 11  2  0
  8 12  1  0
  9 13  1  0
 10 14  2  0
 11 16  1  0
 12 17  2  0
 13 15  2  0
 14 15  1  0
 16 18  2  0
 17 18  1  0
M  END
>  <PUBCHEM_COMPOUND_CID>  (1) 
21124

>  <PUBCHEM_CONFORMER_RMSD>  (1) 
0.6

>  <PUBCHEM_CONFORMER_DIVERSEORDER>  (1) 
5
8
11
12
1
15
13
6
4
3
10
9
7
14
2

>  <PUBCHEM_MMFF94_PARTIAL_CHARGES>  (1) 
28
1 -0.18
10 -0.15
11 0.18
12 -0.15
13 -0.15
14 -0.15
15 -0.15
16 -0.15
17 -0.15
18 -0.15
2 -0.68
20 0.27
21 0.15
22 0.15
23 0.15
24 0.15
25 0.15
26 0.4
27 0.15
28 0.15
29 0.15
3 0.03
4 -0.57
5 0.6
6 0.01
7 -0.15
8 -0.14
9 0.23

>  <PUBCHEM_EFFECTIVE_ROTOR_COUNT>  (1) 
2

>  <PUBCHEM_PHARMACOPHORE_FEATURES>  (1) 
7
1 2 acceptor
1 2 donor
1 3 donor
3 3 4 6 cation
5 3 4 6 7 9 rings
6 7 9 10 13 14 15 rings
6 8 11 12 16 17 18 rings

>  <PUBCHEM_HEAVY_ATOM_COUNT>  (1) 
18

>  <PUBCHEM_ATOM_DEF_STEREO_COUNT>  (1) 
0

>  <PUBCHEM_ATOM_UDEF_STEREO_COUNT>  (1) 
1

>  <PUBCHEM_BOND_DEF_STEREO_COUNT>  (1) 
0

>  <PUBCHEM_BOND_UDEF_STEREO_COUNT>  (1) 
0

>  <PUBCHEM_ISOTOPIC_ATOM_COUNT>  (1) 
0

>  <PUBCHEM_COMPONENT_COUNT>  (1) 
1

>  <PUBCHEM_CACTVS_TAUTO_COUNT>  (1) 
1

>  <PUBCHEM_CONFORMER_ID>  (1) 
0000528400000005

>  <PUBCHEM_MMFF94_ENERGY>  (1) 
40.77

>  <PUBCHEM_FEATURE_SELFOVERLAP>  (1) 
35.629

>  <PUBCHEM_SHAPE_FINGERPRINT>  (1) 
10498660 4 18336261267333313301
10646746 165 18408884031669422924
11543360 7 17775562061452885197
11640471 11 16950853616843283286
11715629 250 18334289838599637685
12173636 292 18336538323104707045
12251169 10 13262401080877571610
12553582 1 13758357752005537373
12616999 72 17704070690080775606
12670546 177 18131627907055129837
12707595 3 14692566611196925302
12730499 353 18130796684538363479
128620 24 18408604781664931277
12892183 10 12468630651495299054
13583140 156 12396588472174117379
13675066 3 8790881887375689421
14289901 80 16081656574021311929
14341114 176 12107789601276722636
14739800 52 17754731956090725212
14866123 147 11680717208759029464
15653759 3 10737282459004209238
15885798 251 10592044669883603923
16752209 62 13398358910777855035
1813 80 12823300104250200234
18186145 218 18272655610498091393
193927 3 11815606536784753765
19862831 5 18341615884390827769
200 152 16128383661837961310
20361792 2 13686300158099556370
20645477 70 17203618072788408246
21756936 100 13049088193576423310
22169311 14 11169910597688440783
2255824 54 17459745921897418522
23227448 37 18196368345409734773
23402539 116 18409723002397141028
23402655 69 18060704991716157156
23557571 272 18265906924085936759
23559900 14 18129660786084760550
23596394 208 17703511016939429478
26918003 58 11818986400677954436
2838139 119 18194400224645876772
3060560 45 17560801061202134772
31174 14 11963400660417403926
3323516 105 17775568658200904863
3472631 163 18114464555962357797
4028521 119 18411419514083610421
4340502 62 16153707605612839201
465052 167 13038903391323788125
474 4 17313106366713716372
4990 188 18202003213584177572
5104073 3 18187643558004125377
5281201 14 18059864934556762404
633830 44 18041000630696615638
7364860 26 18190733146702073690
8988823 20 12252199497345060737
9709674 26 18343587364711441087

>  <PUBCHEM_SHAPE_MULTIPOLES>  (1) 
356.47
9.09
1.79
1.4
4.5
0
-0.21
3.07
2.93
-0.42
0.28
-1.25
-0.53
0.84

>  <PUBCHEM_SHAPE_SELFOVERLAP>  (1) 
781.578

>  <PUBCHEM_SHAPE_VOLUME>  (1) 
194.5

>  <PUBCHEM_COORDINATE_TYPE>  (1) 
2
5
10

$$$$
