21122
     RDKit          3D

  8  7  0  0  0  0  0  0  0  0999 V2000
   -2.1898   -0.0380    0.3057 C   0  0  0  0  0  0  0  0  0  0  0  0
   -0.8977    0.6615   -0.1551 C   0  0  0  0  0  0  0  0  0  0  0  0
    0.3767    0.0190    0.4022 C   0  0  0  0  0  0  0  0  0  0  0  0
   -2.1506   -1.5152   -0.0934 C   0  0  0  0  0  0  0  0  0  0  0  0
   -3.4466    0.6177   -0.2686 C   0  0  0  0  0  0  0  0  0  0  0  0
    1.6286    0.7094   -0.1459 C   0  0  0  0  0  0  0  0  0  0  0  0
    2.8790    0.0594    0.3685 C   0  0  0  0  0  0  0  0  0  0  0  0
    3.8004   -0.5138   -0.4134 C   0  0  0  0  0  0  0  0  0  0  0  0
  1  2  1  0
  1  4  1  0
  1  5  1  0
  2  3  1  0
  3  6  1  0
  6  7  1  0
  7  8  2  0
M  END
>  <PUBCHEM_COMPOUND_CID>  (1) 
21122

>  <PUBCHEM_CONFORMER_RMSD>  (1) 
0.6

>  <PUBCHEM_CONFORMER_DIVERSEORDER>  (1) 
1
7
3
2
4
6
5

>  <PUBCHEM_MMFF94_PARTIAL_CHARGES>  (1) 
6
22 0.15
23 0.15
24 0.15
6 0.14
7 -0.29
8 -0.3

>  <PUBCHEM_EFFECTIVE_ROTOR_COUNT>  (1) 
4

>  <PUBCHEM_PHARMACOPHORE_FEATURES>  (1) 
3
1 8 hydrophobe
3 1 4 5 hydrophobe
5 1 2 3 6 7 hydrophobe

>  <PUBCHEM_HEAVY_ATOM_COUNT>  (1) 
8

>  <PUBCHEM_ATOM_DEF_STEREO_COUNT>  (1) 
0

>  <PUBCHEM_ATOM_UDEF_STEREO_COUNT>  (1) 
0

>  <PUBCHEM_BOND_DEF_STEREO_COUNT>  (1) 
0

>  <PUBCHEM_BOND_UDEF_STEREO_COUNT>  (1) 
0

>  <PUBCHEM_ISOTOPIC_ATOM_COUNT>  (1) 
0

>  <PUBCHEM_COMPONENT_COUNT>  (1) 
1

>  <PUBCHEM_CACTVS_TAUTO_COUNT>  (1) 
1

>  <PUBCHEM_CONFORMER_ID>  (1) 
0000528200000001

>  <PUBCHEM_MMFF94_ENERGY>  (1) 
3.9177

>  <PUBCHEM_FEATURE_SELFOVERLAP>  (1) 
15.224

>  <PUBCHEM_SHAPE_FINGERPRINT>  (1) 
11062470 55 17060618888761575864
12932764 1 17458613532257599840
14325111 11 18410574024022486648
14577589 140 18343582953864313655
177051 138 18202565115734565638
20201158 50 18131073710060765966
20211469 26 17275386482240845304
21119208 17 18186520986185064500
21293036 1 14634874162577582236
22485316 2 18410289203661969234
23402539 116 17988917852359793085
23552423 10 18114742766726583833
3248919 1 17203341029975314360

>  <PUBCHEM_SHAPE_MULTIPOLES>  (1) 
164.64
6.57
1.1
0.7
2.63
0.34
-0.01
0.55
0.69
-0.6
0.07
0.08
0
0.14

>  <PUBCHEM_SHAPE_SELFOVERLAP>  (1) 
290.041

>  <PUBCHEM_SHAPE_VOLUME>  (1) 
109.2

>  <PUBCHEM_COORDINATE_TYPE>  (1) 
2
5
10

$$$$
