21131
     RDKit          3D

 19 20  0  0  0  0  0  0  0  0999 V2000
    3.0436    1.7165   -0.5455 O   0  0  0  0  0  0  0  0  0  0  0  0
    5.3128    0.9314    1.4914 O   0  0  0  0  0  0  0  0  0  0  0  0
   -2.9700   -0.5329    0.0638 O   0  0  0  0  0  0  0  0  0  0  0  0
   -6.4048    0.0975    0.2490 O   0  0  0  0  0  0  0  0  0  0  0  0
   -5.2586   -1.7731    0.3273 O   0  0  0  0  0  0  0  0  0  0  0  0
    3.7782   -0.5198   -0.4033 N   0  0  0  0  0  0  0  0  0  0  0  0
    1.5789   -0.1039   -0.2878 N   0  0  0  0  0  0  0  0  0  0  0  0
    0.4206    0.5694   -0.2645 N   0  0  0  0  0  0  0  0  0  0  0  0
   -5.2946   -0.5115    0.2232 N   0  0  0  0  0  0  0  0  0  0  0  0
    3.1568   -1.8235   -0.2552 C   0  0  0  0  0  0  0  0  0  0  0  0
    1.6621   -1.5326   -0.1644 C   0  0  0  0  0  0  0  0  0  0  0  0
    5.2110   -0.3614   -0.5185 C   0  0  0  0  0  0  0  0  0  0  0  0
    2.8271    0.5176   -0.4273 C   0  0  0  0  0  0  0  0  0  0  0  0
    5.8478   -0.2217    0.8549 C   0  0  0  0  0  0  0  0  0  0  0  0
   -0.6182   -0.1902   -0.1279 C   0  0  0  0  0  0  0  0  0  0  0  0
   -1.9665    0.3509   -0.0806 C   0  0  0  0  0  0  0  0  0  0  0  0
   -2.4049    1.6311   -0.1591 C   0  0  0  0  0  0  0  0  0  0  0  0
   -4.1078    0.2096    0.0792 C   0  0  0  0  0  0  0  0  0  0  0  0
   -3.8138    1.5467   -0.0546 C   0  0  0  0  0  0  0  0  0  0  0  0
  1 13  2  0
  2 14  1  0
  3 16  1  0
  3 18  1  0
  4  9  1  0
  5  9  2  0
  6 10  1  0
  6 12  1  0
  6 13  1  0
  7  8  1  0
  7 11  1  0
  7 13  1  0
  8 15  2  0
  9 18  1  0
 10 11  1  0
 12 14  1  0
 15 16  1  0
 16 17  2  0
 17 19  1  0
 18 19  2  0
M  CHG  2   4  -1   9   1
M  END
>  <PUBCHEM_COMPOUND_CID>  (1) 
21131

>  <PUBCHEM_CONFORMER_RMSD>  (1) 
0.8

>  <PUBCHEM_CONFORMER_DIVERSEORDER>  (1) 
1
9
5
14
13
7
10
11
16
3
4
8
2
12
15
6

>  <PUBCHEM_MMFF94_PARTIAL_CHARGES>  (1) 
23
1 -0.57
10 0.3
11 0.3
12 0.3
13 0.69
14 0.28
15 0.47
16 0.05
17 -0.15
18 0.22
19 -0.15
2 -0.68
28 0.06
29 0.4
3 -0.28
30 0.15
31 0.15
4 -0.52
5 -0.52
6 -0.66
7 -0.3
8 -0.51
9 0.96

>  <PUBCHEM_EFFECTIVE_ROTOR_COUNT>  (1) 
5.8

>  <PUBCHEM_PHARMACOPHORE_FEATURES>  (1) 
10
1 1 acceptor
1 2 acceptor
1 2 donor
1 3 acceptor
1 4 acceptor
1 4 anion
1 5 acceptor
1 8 acceptor
5 3 16 17 18 19 rings
5 6 7 10 11 13 rings

>  <PUBCHEM_HEAVY_ATOM_COUNT>  (1) 
19

>  <PUBCHEM_ATOM_DEF_STEREO_COUNT>  (1) 
0

>  <PUBCHEM_ATOM_UDEF_STEREO_COUNT>  (1) 
0

>  <PUBCHEM_BOND_DEF_STEREO_COUNT>  (1) 
0

>  <PUBCHEM_BOND_UDEF_STEREO_COUNT>  (1) 
1

>  <PUBCHEM_ISOTOPIC_ATOM_COUNT>  (1) 
0

>  <PUBCHEM_COMPONENT_COUNT>  (1) 
1

>  <PUBCHEM_CACTVS_TAUTO_COUNT>  (1) 
1

>  <PUBCHEM_CONFORMER_ID>  (1) 
0000528B00000001

>  <PUBCHEM_MMFF94_ENERGY>  (1) 
39.5623

>  <PUBCHEM_FEATURE_SELFOVERLAP>  (1) 
50.844

>  <PUBCHEM_SHAPE_FINGERPRINT>  (1) 
10 15 18340479058889044328
11287383 113 18272088305500423554
12107183 9 17616535051799462897
12236239 1 17560803212384553351
12596602 18 17203612588110182171
12916748 109 17418097598616432936
13073987 5 18269556052616858034
13167823 11 18410294692472132479
13533116 47 16153419529171369088
13955234 65 16916784034188048198
1420 363 18413674603720827687
14251732 16 18342736359753962690
14251764 18 17894629271463855256
15048467 5 13254792456529896834
15183329 4 9079123258158427767
15196674 1 18337675196030699839
15788980 27 12829495847814226642
17834072 33 18334862726985945821
17844677 252 17418103065935811984
17857418 61 18187081754379781379
18222031 100 17313107440982905628
19489759 90 16298384648188247581
200 152 18343021069152302853
20645477 70 18339083662063189574
20735858 18 18411693284527230778
21267235 1 18410022021729771407
22079108 93 18201712977380682598
23402539 116 17967530164580804149
23559900 14 18335980947934660441
239999 70 18272941501165588238
26918003 58 18187367640540865651
300161 21 18340482275508227765
351380 180 18261112971562486434
3545911 37 18343303652309749262
4214541 1 18336831896851484861
4340502 62 18272367577433607534
5104073 3 18269274560460428098
542803 24 14189573031259598464
59682541 35 18342173431296594194
67856867 119 18261114135536073404
7495541 125 18059575836160670961
77779 3 18410016498760498853
9709674 26 18336276651932645151

>  <PUBCHEM_SHAPE_MULTIPOLES>  (1) 
341.74
15.01
1.6
0.78
4.04
0.11
0.15
1.28
3.13
0.3
-0.05
-0.92
-0.11
0.6

>  <PUBCHEM_SHAPE_SELFOVERLAP>  (1) 
717.526

>  <PUBCHEM_SHAPE_VOLUME>  (1) 
194.2

>  <PUBCHEM_COORDINATE_TYPE>  (1) 
2
5
10

$$$$
