21148
     RDKit          3D

 30 34  0  0  1  0  0  0  0  0999 V2000
   -1.5244    0.4799    1.6464 Cl  0  0  0  0  0  0  0  0  0  0  0  0
   -1.3002   -2.7864    1.6749 Cl  0  0  0  0  0  0  0  0  0  0  0  0
    3.0920    0.1937    1.1776 O   0  0  0  0  0  0  0  0  0  0  0  0
    3.8189    1.9275   -0.2325 O   0  0  0  0  0  0  0  0  0  0  0  0
    4.6290   -1.4829   -1.3928 O   0  0  0  0  0  0  0  0  0  0  0  0
   -6.3889    1.0766    1.3463 O   0  0  0  0  0  0  0  0  0  0  0  0
    1.5427   -0.7737   -0.4907 C   0  0  0  0  0  0  0  0  0  0  0  0
    0.8137    0.5847   -0.5856 C   0  0  0  0  0  0  0  0  0  0  0  0
   -0.6563    0.4371   -1.0028 C   0  0  0  0  0  0  0  0  0  0  0  0
    2.9736   -0.2815   -0.1611 C   0  0  0  0  0  0  0  0  0  0  0  0
   -1.4736   -0.4433    0.0487 C   0  0  0  0  0  0  0  0  0  0  0  0
    3.1662    0.9541   -1.0428 C   0  0  0  0  0  0  0  0  0  0  0  0
    1.7551    1.4318   -1.4476 C   0  0  0  0  0  0  0  0  0  0  0  0
    0.8405   -1.5940    0.5980 C   0  0  0  0  0  0  0  0  0  0  0  0
   -0.6731   -1.7863    0.3134 C   0  0  0  0  0  0  0  0  0  0  0  0
   -2.9891   -0.5997   -0.4714 C   0  0  0  0  0  0  0  0  0  0  0  0
   -1.3069    1.8027   -1.2819 C   0  0  0  0  0  0  0  0  0  0  0  0
    1.5550   -1.5738   -1.8233 C   0  0  0  0  0  0  0  0  0  0  0  0
    3.7842    1.4441    1.1118 C   0  0  0  0  0  0  0  0  0  0  0  0
   -2.7472    1.6469   -1.7529 C   0  0  0  0  0  0  0  0  0  0  0  0
    4.0372   -1.3270   -0.3257 C   0  0  0  0  0  0  0  0  0  0  0  0
   -3.5400    0.8070   -0.7853 C   0  0  0  0  0  0  0  0  0  0  0  0
   -3.0688   -1.4540   -1.7636 C   0  0  0  0  0  0  0  0  0  0  0  0
   -3.9113   -1.3222    0.5057 C   0  0  0  0  0  0  0  0  0  0  0  0
    3.0618    2.4693    1.9812 C   0  0  0  0  0  0  0  0  0  0  0  0
    5.2120    1.2426    1.6050 C   0  0  0  0  0  0  0  0  0  0  0  0
    4.3463   -2.1736    0.8793 C   0  0  0  0  0  0  0  0  0  0  0  0
   -4.6324    1.3299   -0.2047 C   0  0  0  0  0  0  0  0  0  0  0  0
   -4.9995   -0.8051    1.0845 C   0  0  0  0  0  0  0  0  0  0  0  0
   -5.4166    0.5758    0.7920 C   0  0  0  0  0  0  0  0  0  0  0  0
  1 11  1  0
  2 15  1  0
  3 10  1  0
  3 19  1  0
  4 12  1  0
  4 19  1  0
  5 21  2  0
  6 30  2  0
  7  8  1  0
  7 10  1  0
  7 14  1  0
  7 18  1  0
  8  9  1  0
  8 13  1  0
  9 11  1  0
  9 17  1  0
 10 12  1  0
 10 21  1  0
 11 15  1  0
 11 16  1  0
 12 13  1  0
 14 15  1  0
 16 22  1  0
 16 23  1  0
 16 24  1  0
 17 20  1  0
 19 25  1  0
 19 26  1  0
 20 22  1  0
 21 27  1  0
 22 28  2  0
 24 29  2  0
 28 30  1  0
 29 30  1  0
M  END
>  <PUBCHEM_COMPOUND_CID>  (1) 
21148

>  <PUBCHEM_CONFORMER_RMSD>  (1) 
0.8

>  <PUBCHEM_CONFORMER_DIVERSEORDER>  (1) 
2
31
29
27
35
19
21
8
24
25
3
32
30
16
17
9
34
6
1
20
26
22
14
11
12
5
33
10
23
15
13
18
7
4
28

>  <PUBCHEM_MMFF94_PARTIAL_CHARGES>  (1) 
23
1 -0.29
10 0.34
11 0.29
12 0.28
15 0.29
16 0.28
19 0.56
2 -0.29
20 0.14
21 0.45
22 -0.28
24 -0.29
27 0.06
28 -0.14
29 -0.14
3 -0.56
30 0.54
4 -0.56
49 0.15
5 -0.57
59 0.15
6 -0.57
60 0.15

>  <PUBCHEM_EFFECTIVE_ROTOR_COUNT>  (1) 
2.6

>  <PUBCHEM_PHARMACOPHORE_FEATURES>  (1) 
10
1 3 acceptor
1 4 acceptor
1 5 acceptor
1 6 acceptor
3 19 25 26 hydrophobe
5 3 4 10 12 19 rings
5 7 8 10 12 13 rings
6 16 22 24 28 29 30 rings
6 7 8 9 11 14 15 rings
6 9 11 16 17 20 22 rings

>  <PUBCHEM_HEAVY_ATOM_COUNT>  (1) 
30

>  <PUBCHEM_ATOM_DEF_STEREO_COUNT>  (1) 
3

>  <PUBCHEM_ATOM_UDEF_STEREO_COUNT>  (1) 
5

>  <PUBCHEM_BOND_DEF_STEREO_COUNT>  (1) 
0

>  <PUBCHEM_BOND_UDEF_STEREO_COUNT>  (1) 
0

>  <PUBCHEM_ISOTOPIC_ATOM_COUNT>  (1) 
0

>  <PUBCHEM_COMPONENT_COUNT>  (1) 
1

>  <PUBCHEM_CACTVS_TAUTO_COUNT>  (1) 
6

>  <PUBCHEM_CONFORMER_ID>  (1) 
0000529C00000002

>  <PUBCHEM_MMFF94_ENERGY>  (1) 
113.2538

>  <PUBCHEM_FEATURE_SELFOVERLAP>  (1) 
51.507

>  <PUBCHEM_SHAPE_FINGERPRINT>  (1) 
10076449 9 18336555898528016310
11370993 144 18202002127279198517
11405975 8 18271802406470293847
11578080 2 18127977605697138360
11595378 159 16877933928042372044
12236239 1 18343587339669403439
12403259 415 18335136462373813628
12422481 6 18113904815024570317
12553582 1 17749106694902191405
12616971 3 17418369173472051893
12633257 1 17968934317890972508
12788726 201 18129962099420933825
12925494 130 17900533485560001669
13140716 1 17680691632346945291
13224815 77 18260263066327989973
13533116 47 18201164260590372486
13583140 156 18058153080899049348
13675066 3 18409448094151034935
13782708 43 18412830175055501863
14178342 30 17896873455952995658
15788980 27 17132114619641639567
15840311 113 18272380737656722433
17349148 13 16298107575183646003
17980427 23 18265043820364257540
1813 80 16370730352758404525
18608769 82 18041289828209420194
20691752 17 17894903044625564927
20715895 44 17346322531880479241
21033648 29 18260537905527935276
21792934 111 18040998389873914265
22122407 14 17418108602607651905
22182313 1 18042391469940112613
23559900 14 18334017194423840878
2838139 119 16270220799724951552
34797466 226 16773806947698829949
350125 39 18261117309521653422
392239 28 18409445895318170993
4340502 62 18410302406623513627
474 4 17632291332567075776
495365 180 18131069351054017202
5104073 3 18341893008856130139
633830 44 18410568491994132199
9709674 26 18261671575325716846

>  <PUBCHEM_SHAPE_MULTIPOLES>  (1) 
597.65
11.44
2.54
1.9
4.37
0.53
0.11
-2.01
3.86
-1.01
0.41
-0.36
-0.29
1.32

>  <PUBCHEM_SHAPE_SELFOVERLAP>  (1) 
1284.361

>  <PUBCHEM_SHAPE_VOLUME>  (1) 
331.2

>  <PUBCHEM_COORDINATE_TYPE>  (1) 
2
5
10

$$$$
