21155
     RDKit          3D

  8  8  0  0  0  0  0  0  0  0999 V2000
   -0.7429   -1.4694    0.0850 S   0  0  0  0  0  0  0  0  0  0  0  0
   -0.7429    1.4694   -0.0843 S   0  0  0  0  0  0  0  0  0  0  0  0
    1.4671    0.0000    0.0001 N   0  0  0  0  0  0  0  0  0  0  0  0
   -2.3356   -0.6920   -0.3116 C   0  0  0  0  0  0  0  0  0  0  0  0
   -2.3359    0.6919    0.3106 C   0  0  0  0  0  0  0  0  0  0  0  0
    0.1897    0.0001    0.0008 C   0  0  0  0  0  0  0  0  0  0  0  0
    2.2503    1.2643   -0.0723 C   0  0  0  0  0  0  0  0  0  0  0  0
    2.2502   -1.2644    0.0715 C   0  0  0  0  0  0  0  0  0  0  0  0
  1  4  1  0
  1  6  1  0
  2  5  1  0
  2  6  1  0
  3  6  2  3
  3  7  1  0
  3  8  1  0
  4  5  1  0
M  CHG  1   3   1
M  END
>  <PUBCHEM_COMPOUND_CID>  (1) 
21155

>  <PUBCHEM_CONFORMER_RMSD>  (1) 
0.4

>  <PUBCHEM_CONFORMER_DIVERSEORDER>  (1) 
1

>  <PUBCHEM_MMFF94_PARTIAL_CHARGES>  (1) 
8
1 -0.37
2 -0.37
3 -0.09
4 0.23
5 0.23
6 0.68
7 0.35
8 0.35

>  <PUBCHEM_EFFECTIVE_ROTOR_COUNT>  (1) 
0.8

>  <PUBCHEM_PHARMACOPHORE_FEATURES>  (1) 
1
5 1 2 4 5 6 rings

>  <PUBCHEM_HEAVY_ATOM_COUNT>  (1) 
8

>  <PUBCHEM_ATOM_DEF_STEREO_COUNT>  (1) 
0

>  <PUBCHEM_ATOM_UDEF_STEREO_COUNT>  (1) 
0

>  <PUBCHEM_BOND_DEF_STEREO_COUNT>  (1) 
0

>  <PUBCHEM_BOND_UDEF_STEREO_COUNT>  (1) 
0

>  <PUBCHEM_ISOTOPIC_ATOM_COUNT>  (1) 
0

>  <PUBCHEM_COMPONENT_COUNT>  (1) 
1

>  <PUBCHEM_CACTVS_TAUTO_COUNT>  (1) 
1

>  <PUBCHEM_CONFORMER_ID>  (1) 
000052A300000001

>  <PUBCHEM_MMFF94_ENERGY>  (1) 
16.1497

>  <PUBCHEM_FEATURE_SELFOVERLAP>  (1) 
5.074

>  <PUBCHEM_SHAPE_FINGERPRINT>  (1) 
12897270 3 18339081617563278276
14325111 11 18410856551350652281
14390081 3 18271525415492200792
16714656 1 18410857650835782893
18185500 45 18265895941748663079
19973954 147 18411139117001207728
21040471 1 18410857680636829336
23552423 10 18334295366064395830
29004967 10 18114466767933493433
5084963 1 18200307719446417043
66348 1 18195245739694990755

>  <PUBCHEM_SHAPE_MULTIPOLES>  (1) 
167.35
3.58
1.77
0.66
0.44
0
0
0
0
0.2
0
-0.08
0
-0.15

>  <PUBCHEM_SHAPE_SELFOVERLAP>  (1) 
297.262

>  <PUBCHEM_SHAPE_VOLUME>  (1) 
111.4

>  <PUBCHEM_COORDINATE_TYPE>  (1) 
2
5
10

$$$$
