21158
     RDKit          3D

  6  6  0  0  1  0  0  0  0  0999 V2000
   -0.1690    0.5872    1.0047 O   0  0  0  0  0  0  0  0  0  0  0  0
    0.5430   -0.0695   -0.0520 C   0  0  0  0  0  0  0  0  0  0  0  0
   -0.7644    0.5961   -0.2861 C   0  0  0  0  0  0  0  0  0  0  0  0
    0.6475   -1.5367    0.1342 C   0  0  0  0  0  0  0  0  0  0  0  0
    1.7797    0.6417   -0.4555 C   0  0  0  0  0  0  0  0  0  0  0  0
   -2.0367   -0.2188   -0.3452 C   0  0  0  0  0  0  0  0  0  0  0  0
  1  2  1  0
  1  3  1  0
  2  3  1  0
  2  4  1  0
  2  5  1  0
  3  6  1  0
M  END
>  <PUBCHEM_COMPOUND_CID>  (1) 
21158

>  <PUBCHEM_CONFORMER_RMSD>  (1) 
0.4

>  <PUBCHEM_CONFORMER_DIVERSEORDER>  (1) 
1
2

>  <PUBCHEM_MMFF94_PARTIAL_CHARGES>  (1) 
7
1 -0.3
2 -0.04
3 -0.05
4 0.09
5 0.09
6 0.09
7 0.1

>  <PUBCHEM_EFFECTIVE_ROTOR_COUNT>  (1) 
0.6

>  <PUBCHEM_PHARMACOPHORE_FEATURES>  (1) 
2
1 1 acceptor
3 2 4 5 hydrophobe

>  <PUBCHEM_HEAVY_ATOM_COUNT>  (1) 
6

>  <PUBCHEM_ATOM_DEF_STEREO_COUNT>  (1) 
0

>  <PUBCHEM_ATOM_UDEF_STEREO_COUNT>  (1) 
1

>  <PUBCHEM_BOND_DEF_STEREO_COUNT>  (1) 
0

>  <PUBCHEM_BOND_UDEF_STEREO_COUNT>  (1) 
0

>  <PUBCHEM_ISOTOPIC_ATOM_COUNT>  (1) 
0

>  <PUBCHEM_COMPONENT_COUNT>  (1) 
1

>  <PUBCHEM_CACTVS_TAUTO_COUNT>  (1) 
1

>  <PUBCHEM_CONFORMER_ID>  (1) 
000052A600000001

>  <PUBCHEM_MMFF94_ENERGY>  (1) 
10.6988

>  <PUBCHEM_FEATURE_SELFOVERLAP>  (1) 
10.148

>  <PUBCHEM_SHAPE_FINGERPRINT>  (1) 
20096714 4 17967817201361042356
21015797 1 8141784080772976136
21040471 1 18336823220584744318
24536 1 18043508565496365829
29004967 10 18187654595663750449
5943 1 13272784503496742328

>  <PUBCHEM_SHAPE_MULTIPOLES>  (1) 
117.61
2.11
1.2
0.8
0.53
0.52
0.1
-0.22
-0.44
-0.34
0
0.02
-0.09
-0.1

>  <PUBCHEM_SHAPE_SELFOVERLAP>  (1) 
221.009

>  <PUBCHEM_SHAPE_VOLUME>  (1) 
76.2

>  <PUBCHEM_COORDINATE_TYPE>  (1) 
2
5
10

$$$$
