21169
     RDKit          3D

 19 21  0  0  0  0  0  0  0  0999 V2000
    1.3036    2.1206    0.0003 O   0  0  0  0  0  0  0  0  0  0  0  0
    3.5720    2.3516    0.0003 O   0  0  0  0  0  0  0  0  0  0  0  0
   -5.0688    0.7451   -0.0027 O   0  0  0  0  0  0  0  0  0  0  0  0
   -3.3731   -0.8928    0.0006 N   0  0  0  0  0  0  0  0  0  0  0  0
    0.2521   -0.0845   -0.0001 C   0  0  0  0  0  0  0  0  0  0  0  0
    1.5882   -0.6930   -0.0004 C   0  0  0  0  0  0  0  0  0  0  0  0
    0.1493    1.3086    0.0001 C   0  0  0  0  0  0  0  0  0  0  0  0
    2.7238    0.1359    0.0000 C   0  0  0  0  0  0  0  0  0  0  0  0
   -0.9547   -0.8029    0.0005 C   0  0  0  0  0  0  0  0  0  0  0  0
   -2.1930   -0.1470    0.0006 C   0  0  0  0  0  0  0  0  0  0  0  0
   -1.0758    1.9806    0.0003 C   0  0  0  0  0  0  0  0  0  0  0  0
    1.8038   -2.0841   -0.0009 C   0  0  0  0  0  0  0  0  0  0  0  0
    2.5956    1.6129   -0.0004 C   0  0  0  0  0  0  0  0  0  0  0  0
   -2.2534    1.2436    0.0003 C   0  0  0  0  0  0  0  0  0  0  0  0
    4.0188   -0.4067    0.0004 C   0  0  0  0  0  0  0  0  0  0  0  0
    3.0932   -2.6245   -0.0005 C   0  0  0  0  0  0  0  0  0  0  0  0
    4.2001   -1.7860    0.0002 C   0  0  0  0  0  0  0  0  0  0  0  0
   -4.6926   -0.4226    0.0007 C   0  0  0  0  0  0  0  0  0  0  0  0
   -5.6889   -1.5548    0.0008 C   0  0  0  0  0  0  0  0  0  0  0  0
  1  7  1  0
  1 13  1  0
  2 13  2  0
  3 18  2  0
  4 10  1  0
  4 18  1  0
  5  6  1  0
  5  7  2  0
  5  9  1  0
  6  8  2  0
  6 12  1  0
  7 11  1  0
  8 13  1  0
  8 15  1  0
  9 10  2  0
 10 14  1  0
 11 14  2  0
 12 16  2  0
 15 17  2  0
 16 17  1  0
 18 19  1  0
M  END
>  <PUBCHEM_COMPOUND_CID>  (1) 
21169

>  <PUBCHEM_CONFORMER_RMSD>  (1) 
0.6

>  <PUBCHEM_CONFORMER_DIVERSEORDER>  (1) 
1
2
3
4

>  <PUBCHEM_MMFF94_PARTIAL_CHARGES>  (1) 
25
1 -0.23
10 0.12
11 -0.15
12 -0.15
13 0.63
14 -0.15
15 -0.15
16 -0.15
17 -0.15
18 0.57
19 0.06
2 -0.57
20 0.15
21 0.15
22 0.15
23 0.15
24 0.15
25 0.15
26 0.15
27 0.37
3 -0.57
4 -0.55
7 0.08
8 0.09
9 -0.15

>  <PUBCHEM_EFFECTIVE_ROTOR_COUNT>  (1) 
2

>  <PUBCHEM_PHARMACOPHORE_FEATURES>  (1) 
6
1 2 acceptor
1 3 acceptor
1 4 donor
6 1 5 6 7 8 13 rings
6 5 7 9 10 11 14 rings
6 6 8 12 15 16 17 rings

>  <PUBCHEM_HEAVY_ATOM_COUNT>  (1) 
19

>  <PUBCHEM_ATOM_DEF_STEREO_COUNT>  (1) 
0

>  <PUBCHEM_ATOM_UDEF_STEREO_COUNT>  (1) 
0

>  <PUBCHEM_BOND_DEF_STEREO_COUNT>  (1) 
0

>  <PUBCHEM_BOND_UDEF_STEREO_COUNT>  (1) 
0

>  <PUBCHEM_ISOTOPIC_ATOM_COUNT>  (1) 
0

>  <PUBCHEM_COMPONENT_COUNT>  (1) 
1

>  <PUBCHEM_CACTVS_TAUTO_COUNT>  (1) 
2

>  <PUBCHEM_CONFORMER_ID>  (1) 
000052B100000001

>  <PUBCHEM_MMFF94_ENERGY>  (1) 
68.8068

>  <PUBCHEM_FEATURE_SELFOVERLAP>  (1) 
30.494

>  <PUBCHEM_SHAPE_FINGERPRINT>  (1) 
10411042 1 18194402195803581230
10967382 1 18410575132393054820
11471102 20 18410009970109606397
11806522 49 18336266760422047646
12107183 9 17910121213931351497
12236239 1 17846781814856497403
12403259 226 18263357006339389020
12916754 54 18411703145196986361
13140716 1 18194673985628598042
13167823 11 18342454859577576119
13533116 47 18272089435425066611
138480 1 18410575102107478212
13955234 65 18341330110315540592
14178342 30 18124584285412585528
14790565 3 17832713747920676476
15042514 8 17617938033132419138
15196674 1 18410575093812312609
15352361 1 18410293566905883643
15442244 35 18268432334585303537
15536298 74 18413670218511778136
16945 1 18266741286287339808
17492 89 18340486647289796959
18186145 218 17676200265313980319
200 152 18272930518691222499
20028762 73 18272645749143423703
20281475 54 18341893000513725153
20559304 39 18411981343424879916
20645477 70 18408038532881396339
21267235 1 18411990134753826246
21452121 103 18341603863204920400
21501502 16 18339932519283272864
221490 88 18408046208045983187
23402539 116 18339636755261533423
23559900 14 18409725153632378912
2748010 2 18049171256917656890
2871803 45 18261108547809682907
3004659 81 18259702285349020011
3071541 37 18335426819817639524
312423 11 18270976660363364761
314194 84 18271242841695127639
3286 77 18334293133008261438
335352 9 18194683657773720349
33824 294 18337952389172767298
3421961 26 18411417297896199618
34934 24 18270677704827405573
350125 39 18411138022222585504
4214541 1 18338517444071691617
42630746 31 18341611564144279840
465052 167 18272094898128127743
5104073 3 18412266134142737265
59755656 215 18409733997703368404
602551 16 15194994037725591799
7364860 26 18412824694666052384
77779 3 18410575085253903105
8272917 22 18411422842524775548
9709674 26 18334298699317765819

>  <PUBCHEM_SHAPE_MULTIPOLES>  (1) 
368.42
9.93
2.62
0.6
11.29
0.19
0
-4.27
0
-2.08
0
-0.02
-0.02
0

>  <PUBCHEM_SHAPE_SELFOVERLAP>  (1) 
815.267

>  <PUBCHEM_SHAPE_VOLUME>  (1) 
196.1

>  <PUBCHEM_COORDINATE_TYPE>  (1) 
2
5
10

$$$$
