21166
     RDKit          3D

 18 18  0  0  0  0  0  0  0  0999 V2000
   -5.3161   -1.4048    0.9954 Cl  0  0  0  0  0  0  0  0  0  0  0  0
    0.0313   -0.0604   -1.0285 O   0  0  0  0  0  0  0  0  0  0  0  0
   -1.8691    2.7794   -1.0800 O   0  0  0  0  0  0  0  0  0  0  0  0
    3.4894   -0.2835    0.2657 N   0  0  0  0  0  0  0  0  0  0  0  0
   -0.9940    2.5319    1.0252 N   0  0  0  0  0  0  0  0  0  0  0  0
    2.3365    0.2659   -0.4470 C   0  0  0  0  0  0  0  0  0  0  0  0
    4.6203    0.6412    0.1974 C   0  0  0  0  0  0  0  0  0  0  0  0
    3.8594   -1.5855   -0.2877 C   0  0  0  0  0  0  0  0  0  0  0  0
    1.1324   -0.6532   -0.3521 C   0  0  0  0  0  0  0  0  0  0  0  0
    4.2289    1.9886    0.7730 C   0  0  0  0  0  0  0  0  0  0  0  0
    5.0161   -2.1762    0.4956 C   0  0  0  0  0  0  0  0  0  0  0  0
   -1.2190   -0.3584   -0.5531 C   0  0  0  0  0  0  0  0  0  0  0  0
   -2.0611    0.6491   -0.0941 C   0  0  0  0  0  0  0  0  0  0  0  0
   -1.6319   -1.6868   -0.5375 C   0  0  0  0  0  0  0  0  0  0  0  0
   -3.3300    0.3248    0.3859 C   0  0  0  0  0  0  0  0  0  0  0  0
   -2.9010   -2.0109   -0.0576 C   0  0  0  0  0  0  0  0  0  0  0  0
   -3.7500   -1.0051    0.4041 C   0  0  0  0  0  0  0  0  0  0  0  0
   -1.6421    2.0439   -0.1047 C   0  0  0  0  0  0  0  0  0  0  0  0
  1 17  1  0
  2  9  1  0
  2 12  1  0
  3 18  2  0
  4  6  1  0
  4  7  1  0
  4  8  1  0
  5 18  1  0
  6  9  1  0
  7 10  1  0
  8 11  1  0
 12 13  2  0
 12 14  1  0
 13 15  1  0
 13 18  1  0
 14 16  2  0
 15 17  2  0
 16 17  1  0
M  END
>  <PUBCHEM_COMPOUND_CID>  (1) 
21166

>  <PUBCHEM_CONFORMER_RMSD>  (1) 
0.8

>  <PUBCHEM_CONFORMER_DIVERSEORDER>  (1) 
2
133
47
60
30
143
82
127
26
87
119
41
108
80
138
92
71
68
102
134
37
23
3
96
114
104
115
35
88
151
121
109
69
105
40
131
18
59
79
67
52
100
153
86
142
99
70
148
118
58
152
66
112
141
34
78
44
63
132
13
1
81
75
136
93
16
25
4
45
122
61
64
84
89
101
39
111
57
85
83
15
24
129
65
113
8
43
38
147
48
94
103
74
32
9
10
98
90
6
22
36
106
124
19
76
33
7
55
62
31
42
49
130
73
20
21
145
46
126
5
125
117
110
77
150
12
56
27
50
72
149
116
17
51
146
95
128
29
11
107
53
91
156
54
97
123
137
139
14
120
144
135
140
28
155
154

>  <PUBCHEM_MMFF94_PARTIAL_CHARGES>  (1) 
21
1 -0.18
12 0.08
13 0.09
14 -0.15
15 -0.15
16 -0.15
17 0.18
18 0.54
2 -0.36
3 -0.57
33 0.15
34 0.15
35 0.15
36 0.37
37 0.37
4 -0.81
5 -0.8
6 0.27
7 0.27
8 0.27
9 0.28

>  <PUBCHEM_EFFECTIVE_ROTOR_COUNT>  (1) 
7

>  <PUBCHEM_PHARMACOPHORE_FEATURES>  (1) 
5
1 2 acceptor
1 3 acceptor
1 4 cation
1 5 donor
6 12 13 14 15 16 17 rings

>  <PUBCHEM_HEAVY_ATOM_COUNT>  (1) 
18

>  <PUBCHEM_ATOM_DEF_STEREO_COUNT>  (1) 
0

>  <PUBCHEM_ATOM_UDEF_STEREO_COUNT>  (1) 
0

>  <PUBCHEM_BOND_DEF_STEREO_COUNT>  (1) 
0

>  <PUBCHEM_BOND_UDEF_STEREO_COUNT>  (1) 
0

>  <PUBCHEM_ISOTOPIC_ATOM_COUNT>  (1) 
0

>  <PUBCHEM_COMPONENT_COUNT>  (1) 
1

>  <PUBCHEM_CACTVS_TAUTO_COUNT>  (1) 
2

>  <PUBCHEM_CONFORMER_ID>  (1) 
000052AE00000002

>  <PUBCHEM_MMFF94_ENERGY>  (1) 
51.1384

>  <PUBCHEM_FEATURE_SELFOVERLAP>  (1) 
25.372

>  <PUBCHEM_SHAPE_FINGERPRINT>  (1) 
12107183 9 17760927338749983162
12403814 3 18130784577283739703
12507560 40 18411413995419679436
12633257 1 18130797711087970290
12916754 54 18341335504862834274
13296909 8 18260829259082102733
13533116 47 18335421266261798274
14341114 176 18412548708752400562
15163728 17 13181370304184869275
17492 89 18409448051397242338
1813 80 17458345277116243924
200 152 14634860981259796719
20510252 161 18412262822174338083
20645477 70 12324237244413077816
20681677 274 18410007749996597426
21065199 12 18410851045508468986
21637258 2 16154553246013850403
21652331 79 18341893038989342584
2297311 6 18270698514244797806
23402539 116 18343860018432006807
23557571 272 18271540748604517228
23559900 14 18411131420878645276
23845131 108 17547870551183844481
3009799 131 18336254735389312591
312423 11 18334587815172904990
4214541 1 18338515232052686502
5104073 3 18412544276019019850
5374978 207 18411982485590931034
633830 44 13542455476176176414
69474 34 18129665326239686945
90316 7 18336275578301370253
9709674 26 18200313195809807862

>  <PUBCHEM_SHAPE_MULTIPOLES>  (1) 
350.6
10.82
2.79
0.94
6.58
1.23
0.02
-4.56
3.46
0.19
0.15
-0.26
0.16
0.65

>  <PUBCHEM_SHAPE_SELFOVERLAP>  (1) 
700.444

>  <PUBCHEM_SHAPE_VOLUME>  (1) 
209.6

>  <PUBCHEM_COORDINATE_TYPE>  (1) 
2
5
10

$$$$
