21174
     RDKit          3D

 15 15  0  0  0  0  0  0  0  0999 V2000
    4.2180   -2.2328    0.1615 Cl  0  0  0  0  0  0  0  0  0  0  0  0
    2.9823    2.8110   -0.1393 Cl  0  0  0  0  0  0  0  0  0  0  0  0
   -1.5366    1.3796   -0.1530 O   0  0  0  0  0  0  0  0  0  0  0  0
   -2.7713   -0.5731   -0.0687 N   0  0  0  0  0  0  0  0  0  0  0  0
   -0.4799   -0.7121   -0.0149 N   0  0  0  0  0  0  0  0  0  0  0  0
    1.1835    0.9293   -0.0727 N   0  0  0  0  0  0  0  0  0  0  0  0
    1.7535   -1.3974    0.0669 N   0  0  0  0  0  0  0  0  0  0  0  0
    3.4867    0.2613    0.0100 N   0  0  0  0  0  0  0  0  0  0  0  0
   -4.0723    0.0479   -0.1294 C   0  0  0  0  0  0  0  0  0  0  0  0
   -4.5600    0.3934    1.2716 C   0  0  0  0  0  0  0  0  0  0  0  0
   -5.0633   -0.8564   -0.8516 C   0  0  0  0  0  0  0  0  0  0  0  0
   -1.5751    0.1534   -0.0851 C   0  0  0  0  0  0  0  0  0  0  0  0
    0.8937   -0.3751   -0.0065 C   0  0  0  0  0  0  0  0  0  0  0  0
    3.0370   -1.0026    0.0709 C   0  0  0  0  0  0  0  0  0  0  0  0
    2.5039    1.1735   -0.0596 C   0  0  0  0  0  0  0  0  0  0  0  0
  1 14  1  0
  2 15  1  0
  3 12  2  0
  4  9  1  0
  4 12  1  0
  5 12  1  0
  5 13  1  0
  6 13  2  0
  6 15  1  0
  7 13  1  0
  7 14  2  0
  8 14  1  0
  8 15  2  0
  9 10  1  0
  9 11  1  0
M  END
>  <PUBCHEM_COMPOUND_CID>  (1) 
21174

>  <PUBCHEM_CONFORMER_RMSD>  (1) 
0.6

>  <PUBCHEM_CONFORMER_DIVERSEORDER>  (1) 
1
4
8
5
7
3
9
6
2

>  <PUBCHEM_MMFF94_PARTIAL_CHARGES>  (1) 
15
1 -0.18
12 0.69
13 0.74
14 0.8
15 0.8
17 0.37
2 -0.18
24 0.37
3 -0.57
4 -0.73
5 -0.55
6 -0.62
7 -0.62
8 -0.62
9 0.3

>  <PUBCHEM_EFFECTIVE_ROTOR_COUNT>  (1) 
4

>  <PUBCHEM_PHARMACOPHORE_FEATURES>  (1) 
7
1 3 acceptor
1 4 donor
1 5 donor
3 6 8 15 cation
3 7 8 14 cation
3 9 10 11 hydrophobe
6 6 7 8 13 14 15 rings

>  <PUBCHEM_HEAVY_ATOM_COUNT>  (1) 
15

>  <PUBCHEM_ATOM_DEF_STEREO_COUNT>  (1) 
0

>  <PUBCHEM_ATOM_UDEF_STEREO_COUNT>  (1) 
0

>  <PUBCHEM_BOND_DEF_STEREO_COUNT>  (1) 
0

>  <PUBCHEM_BOND_UDEF_STEREO_COUNT>  (1) 
0

>  <PUBCHEM_ISOTOPIC_ATOM_COUNT>  (1) 
0

>  <PUBCHEM_COMPONENT_COUNT>  (1) 
1

>  <PUBCHEM_CACTVS_TAUTO_COUNT>  (1) 
7

>  <PUBCHEM_CONFORMER_ID>  (1) 
000052B600000001

>  <PUBCHEM_MMFF94_ENERGY>  (1) 
22.0919

>  <PUBCHEM_FEATURE_SELFOVERLAP>  (1) 
36.496

>  <PUBCHEM_SHAPE_FINGERPRINT>  (1) 
10912923 1 17988928898814874019
11471102 20 18408884048912394238
12032990 46 18266459806999902638
12616971 3 18272376360789050787
12916754 54 18411416216007487647
13167823 11 18343016714251065999
13760787 5 18412545418749377661
13955234 65 18410574028618180312
14251717 144 18410852187547809119
15442244 35 18339926991818475608
15477762 27 18411417285359561190
17834072 33 18271241724918825623
18186145 218 17530682104674833737
19026448 5 18060140955420573673
19050596 39 18130791140167828331
19422 9 18202283615320250047
200 152 18343577426441701111
20279233 1 17458061586553645067
20281475 54 18272366495027781559
20369508 70 18187356602480560162
20645477 70 18408317787354980719
20871998 22 18055075363755178342
221490 88 18334863852352176018
2255824 54 18410013239017672462
23402539 116 18271518702764038471
23402655 69 18412260631915233493
23532345 12 18130790005826911865
23557571 272 14117809006657625338
23559900 14 18408036321084177818
29717793 49 18059851753919049879
3071541 37 18262243326094460548
3286 77 18261671489420849444
449060 62 18340209703629885292
474 4 18192430994387011916
5104073 3 18413672422273100523
522135 26 18408605863901809310
573450 72 17704069578101120043
7364860 26 18411699911550998436
77779 3 18411419527326987495
90127 26 17894348869891663821

>  <PUBCHEM_SHAPE_MULTIPOLES>  (1) 
281.66
10.17
2.17
0.77
9.58
0.87
-0.11
-2.32
-0.23
-3.74
0.07
0.79
0
-0.68

>  <PUBCHEM_SHAPE_SELFOVERLAP>  (1) 
552.314

>  <PUBCHEM_SHAPE_VOLUME>  (1) 
169.1

>  <PUBCHEM_COORDINATE_TYPE>  (1) 
2
5
10

$$$$
