21172
     RDKit          3D

 18 19  0  0  0  0  0  0  0  0999 V2000
    5.3821   -2.0946   -0.0003 Cl  0  0  0  0  0  0  0  0  0  0  0  0
    3.8789    2.8852    0.0012 Cl  0  0  0  0  0  0  0  0  0  0  0  0
   -0.5412    1.2178   -0.0017 O   0  0  0  0  0  0  0  0  0  0  0  0
   -1.7013   -0.8178    0.0000 N   0  0  0  0  0  0  0  0  0  0  0  0
    0.6086   -0.8188    0.0002 N   0  0  0  0  0  0  0  0  0  0  0  0
    2.1824    0.9096   -0.0001 N   0  0  0  0  0  0  0  0  0  0  0  0
    2.8759   -1.3876    0.0000 N   0  0  0  0  0  0  0  0  0  0  0  0
    4.5186    0.3616    0.0001 N   0  0  0  0  0  0  0  0  0  0  0  0
   -3.0387   -0.4200   -0.0005 C   0  0  0  0  0  0  0  0  0  0  0  0
   -4.0517   -1.3789    0.0004 C   0  0  0  0  0  0  0  0  0  0  0  0
   -3.3625    0.9366   -0.0007 C   0  0  0  0  0  0  0  0  0  0  0  0
   -0.5387   -0.0091   -0.0006 C   0  0  0  0  0  0  0  0  0  0  0  0
   -5.3887   -0.9811    0.0009 C   0  0  0  0  0  0  0  0  0  0  0  0
   -4.6994    1.3345    0.0000 C   0  0  0  0  0  0  0  0  0  0  0  0
   -5.7125    0.3756    0.0007 C   0  0  0  0  0  0  0  0  0  0  0  0
    1.9631   -0.4098    0.0000 C   0  0  0  0  0  0  0  0  0  0  0  0
    4.1368   -0.9258    0.0003 C   0  0  0  0  0  0  0  0  0  0  0  0
    3.4882    1.2227    0.0002 C   0  0  0  0  0  0  0  0  0  0  0  0
  1 17  1  0
  2 18  1  0
  3 12  2  0
  4  9  1  0
  4 12  1  0
  5 12  1  0
  5 16  1  0
  6 16  2  0
  6 18  1  0
  7 16  1  0
  7 17  2  0
  8 17  1  0
  8 18  2  0
  9 10  2  0
  9 11  1  0
 10 13  1  0
 11 14  2  0
 13 15  2  0
 14 15  1  0
M  END
>  <PUBCHEM_COMPOUND_CID>  (1) 
21172

>  <PUBCHEM_CONFORMER_RMSD>  (1) 
0.6

>  <PUBCHEM_CONFORMER_DIVERSEORDER>  (1) 
1
4
5
2
3

>  <PUBCHEM_MMFF94_PARTIAL_CHARGES>  (1) 
25
1 -0.18
10 -0.15
11 -0.15
12 0.69
13 -0.15
14 -0.15
15 -0.15
16 0.74
17 0.8
18 0.8
19 0.37
2 -0.18
20 0.15
21 0.15
22 0.37
23 0.15
24 0.15
25 0.15
3 -0.57
4 -0.55
5 -0.55
6 -0.62
7 -0.62
8 -0.62
9 0.12

>  <PUBCHEM_EFFECTIVE_ROTOR_COUNT>  (1) 
4

>  <PUBCHEM_PHARMACOPHORE_FEATURES>  (1) 
7
1 3 acceptor
1 4 donor
1 5 donor
3 6 8 18 cation
3 7 8 17 cation
6 6 7 8 16 17 18 rings
6 9 10 11 13 14 15 rings

>  <PUBCHEM_HEAVY_ATOM_COUNT>  (1) 
18

>  <PUBCHEM_ATOM_DEF_STEREO_COUNT>  (1) 
0

>  <PUBCHEM_ATOM_UDEF_STEREO_COUNT>  (1) 
0

>  <PUBCHEM_BOND_DEF_STEREO_COUNT>  (1) 
0

>  <PUBCHEM_BOND_UDEF_STEREO_COUNT>  (1) 
0

>  <PUBCHEM_ISOTOPIC_ATOM_COUNT>  (1) 
0

>  <PUBCHEM_COMPONENT_COUNT>  (1) 
1

>  <PUBCHEM_CACTVS_TAUTO_COUNT>  (1) 
7

>  <PUBCHEM_CONFORMER_ID>  (1) 
000052B400000001

>  <PUBCHEM_MMFF94_ENERGY>  (1) 
44.8393

>  <PUBCHEM_FEATURE_SELFOVERLAP>  (1) 
36.493

>  <PUBCHEM_SHAPE_FINGERPRINT>  (1) 
10595046 47 18341331205653376877
10912923 1 17989211473092261435
11287383 113 18409449215116491099
11405975 8 18409730655496112755
12107183 9 17690844462952258187
12236239 1 18131350804054595099
12616971 3 18060696204123223759
13073987 5 18413110588963865201
13081056 2 18334856121384507005
13167372 99 18272656693067564873
13167823 11 18411416224217958319
13675066 3 18113623404145081033
13955234 65 18340485664490645392
14341114 176 18408610279312851329
14528608 73 18340490070436247676
15196674 1 18410575102186047329
15788980 27 18130785659605033255
17834072 33 18341612646249204703
17844677 252 18411426094105389649
1813 80 16805320015649248893
18186145 218 17748820821683855243
18222031 100 16298104302244681879
19433438 28 18113621179505048073
200 152 18202281385731096123
20281389 69 18334295341133602401
20645477 70 18412546488012027406
21065198 57 18409168830803199058
21267235 1 18410864234783582603
21315763 129 18411135805708010189
21452121 103 18339916117346456264
21709351 56 18411974732990332935
23402539 116 18272364261845105079
23557571 272 17168142291542663831
23559900 14 18411415098952143362
239999 70 18341898476639745446
245318 6 16810682522731907828
29717793 49 18131350786980104415
3004659 81 18335422340272192666
34797466 226 17774734167841702941
351380 180 18409729555979131979
3545911 37 18409451405328330797
4073 2 18041284373695861186
4214541 1 18410856530092106597
42788 4 18410575076474233351
5104073 3 18410013251728274545
542803 24 17458348541497123247
633830 44 18261104196928794671
67856867 119 18341888632421468896
7495541 125 17632290224496928059
77779 3 18410856577125620363
90127 26 18187089450950574489
9709674 26 18335144249133820339
9971528 1 17967253117520463436

>  <PUBCHEM_SHAPE_MULTIPOLES>  (1) 
343.4
14.38
2.18
0.59
5.38
0.91
0
-1.65
0
-3.05
0
0.02
0
0

>  <PUBCHEM_SHAPE_SELFOVERLAP>  (1) 
713.294

>  <PUBCHEM_SHAPE_VOLUME>  (1) 
194.2

>  <PUBCHEM_COORDINATE_TYPE>  (1) 
2
5
10

$$$$
