21203
     RDKit          3D

 25 27  0  0  0  0  0  0  0  0999 V2000
    1.7459    1.1179   -1.9757 O   0  0  0  0  0  0  0  0  0  0  0  0
    0.3231    2.9967    1.3591 O   0  0  0  0  0  0  0  0  0  0  0  0
   -1.5133    2.7148    0.0456 O   0  0  0  0  0  0  0  0  0  0  0  0
   -0.7311   -0.1843    0.1202 C   0  0  0  0  0  0  0  0  0  0  0  0
    0.0803    0.9110    0.3320 C   0  0  0  0  0  0  0  0  0  0  0  0
   -2.1782   -0.0490    0.0592 C   0  0  0  0  0  0  0  0  0  0  0  0
   -0.0952   -1.5393   -0.0227 C   0  0  0  0  0  0  0  0  0  0  0  0
    1.5550    0.7638    0.3927 C   0  0  0  0  0  0  0  0  0  0  0  0
    2.3102    0.8744   -0.7585 C   0  0  0  0  0  0  0  0  0  0  0  0
    2.1319    0.5168    1.6242 C   0  0  0  0  0  0  0  0  0  0  0  0
   -2.9369   -0.1409    1.2260 C   0  0  0  0  0  0  0  0  0  0  0  0
    0.2441   -1.9670   -1.2805 C   0  0  0  0  0  0  0  0  0  0  0  0
   -2.8069    0.1731   -1.1658 C   0  0  0  0  0  0  0  0  0  0  0  0
    0.1145   -2.2803    1.1116 C   0  0  0  0  0  0  0  0  0  0  0  0
   -0.4813    2.2840    0.5340 C   0  0  0  0  0  0  0  0  0  0  0  0
    3.6955    0.7324   -0.6760 C   0  0  0  0  0  0  0  0  0  0  0  0
    3.5172    0.3748    1.7066 C   0  0  0  0  0  0  0  0  0  0  0  0
   -4.3245   -0.0107    1.1677 C   0  0  0  0  0  0  0  0  0  0  0  0
    0.8345   -3.2237   -1.4132 C   0  0  0  0  0  0  0  0  0  0  0  0
   -4.1944    0.3036   -1.2242 C   0  0  0  0  0  0  0  0  0  0  0  0
    0.7050   -3.5370    0.9789 C   0  0  0  0  0  0  0  0  0  0  0  0
    4.2989    0.4826    0.5566 C   0  0  0  0  0  0  0  0  0  0  0  0
   -4.9533    0.2116   -0.0573 C   0  0  0  0  0  0  0  0  0  0  0  0
    1.0649   -4.0087   -0.2836 C   0  0  0  0  0  0  0  0  0  0  0  0
    1.5944    2.4832   -2.3569 C   0  0  0  0  0  0  0  0  0  0  0  0
  1  9  1  0
  1 25  1  0
  2 15  1  0
  3 15  2  0
  4  5  2  3
  4  6  1  0
  4  7  1  0
  5  8  1  0
  5 15  1  0
  6 11  2  0
  6 13  1  0
  7 12  2  0
  7 14  1  0
  8  9  2  0
  8 10  1  0
  9 16  1  0
 10 17  2  0
 11 18  1  0
 12 19  1  0
 13 20  2  0
 14 21  2  0
 16 22  2  0
 17 22  1  0
 18 23  2  0
 19 24  2  0
 20 23  1  0
 21 24  1  0
M  END
>  <PUBCHEM_COMPOUND_CID>  (1) 
21203

>  <PUBCHEM_CONFORMER_RMSD>  (1) 
0.8

>  <PUBCHEM_CONFORMER_DIVERSEORDER>  (1) 
1
2

>  <PUBCHEM_MMFF94_PARTIAL_CHARGES>  (1) 
40
1 -0.36
10 -0.15
11 -0.15
12 -0.15
13 -0.15
14 -0.15
15 0.71
16 -0.15
17 -0.15
18 -0.15
19 -0.15
2 -0.65
20 -0.15
21 -0.15
22 -0.15
23 -0.15
24 -0.15
25 0.28
26 0.15
27 0.15
28 0.15
29 0.15
3 -0.57
30 0.15
31 0.15
32 0.15
33 0.15
34 0.15
35 0.15
36 0.15
37 0.15
38 0.15
39 0.15
4 -0.06
43 0.5
5 -0.01
6 0.03
7 0.03
8 0.03
9 0.08

>  <PUBCHEM_EFFECTIVE_ROTOR_COUNT>  (1) 
5

>  <PUBCHEM_PHARMACOPHORE_FEATURES>  (1) 
7
1 1 acceptor
1 2 acceptor
1 3 acceptor
3 2 3 15 anion
6 6 11 13 18 20 23 rings
6 7 12 14 19 21 24 rings
6 8 9 10 16 17 22 rings

>  <PUBCHEM_HEAVY_ATOM_COUNT>  (1) 
25

>  <PUBCHEM_ATOM_DEF_STEREO_COUNT>  (1) 
0

>  <PUBCHEM_ATOM_UDEF_STEREO_COUNT>  (1) 
0

>  <PUBCHEM_BOND_DEF_STEREO_COUNT>  (1) 
0

>  <PUBCHEM_BOND_UDEF_STEREO_COUNT>  (1) 
0

>  <PUBCHEM_ISOTOPIC_ATOM_COUNT>  (1) 
0

>  <PUBCHEM_COMPONENT_COUNT>  (1) 
1

>  <PUBCHEM_CACTVS_TAUTO_COUNT>  (1) 
1

>  <PUBCHEM_CONFORMER_ID>  (1) 
000052D300000001

>  <PUBCHEM_MMFF94_ENERGY>  (1) 
105.3029

>  <PUBCHEM_FEATURE_SELFOVERLAP>  (1) 
35.579

>  <PUBCHEM_SHAPE_FINGERPRINT>  (1) 
10863032 1 16732700592443916073
11578080 2 17245548871941717318
11680986 33 17907011777430463257
12422481 6 17977072722935323434
12592029 89 18333447634014837987
12633257 1 17983262054630025240
12788726 201 17619903302466033646
13083527 12 18051672383361390955
13140716 1 18197494237306813697
13149001 5 17912375521341636385
133893 2 18119831121972752650
13583140 156 16516238652041953423
13681431 1 18122628249684410631
14790565 3 18341336677173635489
14863182 85 18412546500701717903
15849732 13 18040992969218511180
16752209 62 18410009918755011528
16945 1 18409720768470906216
1813 80 17484247353312198023
19591789 44 18194401323729736131
20028762 73 17842279456697137911
20567600 347 18342738524528840783
20600515 1 18130231578749100528
20645476 183 17896605179030457350
20905425 154 18055919779577962758
21033648 29 18193531528222597872
21421861 104 18124321506138448467
229495 10 16299486405820337398
22956985 138 18189053105561966307
23419403 2 16680847383622933800
23559900 14 18043254548367313331
3060560 45 18200863071929700239
3383291 50 18340201879033695218
352729 6 18263659504954017355
465052 167 17676493881999771995
59755656 215 18268993098368651390
70251023 43 17983301417952869287
81228 2 17328013781913612259

>  <PUBCHEM_SHAPE_MULTIPOLES>  (1) 
496.88
6.76
3.83
1.8
5.13
3.49
-0.45
-2.48
0.71
-1.84
-0.52
-0.69
-0.46
-0.16

>  <PUBCHEM_SHAPE_SELFOVERLAP>  (1) 
1093.72

>  <PUBCHEM_SHAPE_VOLUME>  (1) 
265.9

>  <PUBCHEM_COORDINATE_TYPE>  (1) 
2
5
10

$$$$
