21216
     RDKit          3D

 18 19  0  0  1  0  0  0  0  0999 V2000
   -1.9023   -0.5165    2.5931 O   0  0  0  0  0  0  0  0  0  0  0  0
    1.4328   -0.9024   -0.0062 N   0  0  0  0  0  0  0  0  0  0  0  0
   -2.9569   -0.2690   -0.9764 N   0  0  0  0  0  0  0  0  0  0  0  0
   -0.4985   -0.0816    0.7171 C   0  0  0  0  0  0  0  0  0  0  0  0
    0.3354    1.0086    0.3415 C   0  0  0  0  0  0  0  0  0  0  0  0
    1.5410    0.4662   -0.1088 C   0  0  0  0  0  0  0  0  0  0  0  0
    2.4589   -1.8564   -0.3693 C   0  0  0  0  0  0  0  0  0  0  0  0
   -1.8718    0.0071    1.2535 C   0  0  0  0  0  0  0  0  0  0  0  0
    0.2040   -1.2430    0.4918 C   0  0  0  0  0  0  0  0  0  0  0  0
   -2.9009   -0.7671    0.3962 C   0  0  0  0  0  0  0  0  0  0  0  0
    0.1798    2.4090    0.3413 C   0  0  0  0  0  0  0  0  0  0  0  0
    2.6031    1.2575   -0.5608 C   0  0  0  0  0  0  0  0  0  0  0  0
    2.0149   -2.7652   -1.5172 C   0  0  0  0  0  0  0  0  0  0  0  0
    2.9407   -2.6654    0.8364 C   0  0  0  0  0  0  0  0  0  0  0  0
    1.2335    3.2130   -0.1082 C   0  0  0  0  0  0  0  0  0  0  0  0
    2.4257    2.6440   -0.5518 C   0  0  0  0  0  0  0  0  0  0  0  0
   -3.3614    1.1367   -0.9951 C   0  0  0  0  0  0  0  0  0  0  0  0
   -3.8779   -1.0755   -1.7771 C   0  0  0  0  0  0  0  0  0  0  0  0
  1  8  1  0
  2  6  1  0
  2  7  1  0
  2  9  1  0
  3 10  1  0
  3 17  1  0
  3 18  1  0
  4  5  1  0
  4  8  1  0
  4  9  2  0
  5  6  2  0
  5 11  1  0
  6 12  1  0
  7 13  1  0
  7 14  1  0
  8 10  1  0
 11 15  2  0
 12 16  2  0
 15 16  1  0
M  END
>  <PUBCHEM_COMPOUND_CID>  (1) 
21216

>  <PUBCHEM_CONFORMER_RMSD>  (1) 
0.6

>  <PUBCHEM_CONFORMER_DIVERSEORDER>  (1) 
4
22
23
12
26
8
19
24
11
5
18
20
15
7
9
17
6
27
14
16
21
10
3
2
1
25
13

>  <PUBCHEM_MMFF94_PARTIAL_CHARGES>  (1) 
21
1 -0.68
10 0.27
11 -0.15
12 -0.15
15 -0.15
16 -0.15
17 0.27
18 0.27
2 0.05
21 0.15
24 0.15
25 0.15
3 -0.81
32 0.15
33 0.15
34 0.4
4 -0.18
6 -0.15
7 0.26
8 0.46
9 -0.3

>  <PUBCHEM_EFFECTIVE_ROTOR_COUNT>  (1) 
4

>  <PUBCHEM_PHARMACOPHORE_FEATURES>  (1) 
7
1 1 acceptor
1 1 donor
1 2 cation
1 3 cation
3 7 13 14 hydrophobe
5 2 4 5 6 9 rings
6 5 6 11 12 15 16 rings

>  <PUBCHEM_HEAVY_ATOM_COUNT>  (1) 
18

>  <PUBCHEM_ATOM_DEF_STEREO_COUNT>  (1) 
0

>  <PUBCHEM_ATOM_UDEF_STEREO_COUNT>  (1) 
1

>  <PUBCHEM_BOND_DEF_STEREO_COUNT>  (1) 
0

>  <PUBCHEM_BOND_UDEF_STEREO_COUNT>  (1) 
0

>  <PUBCHEM_ISOTOPIC_ATOM_COUNT>  (1) 
0

>  <PUBCHEM_COMPONENT_COUNT>  (1) 
1

>  <PUBCHEM_CACTVS_TAUTO_COUNT>  (1) 
1

>  <PUBCHEM_CONFORMER_ID>  (1) 
000052E000000004

>  <PUBCHEM_MMFF94_ENERGY>  (1) 
34.8161

>  <PUBCHEM_FEATURE_SELFOVERLAP>  (1) 
35.612

>  <PUBCHEM_SHAPE_FINGERPRINT>  (1) 
1 1 18193564590906455828
10764073 3 17114315648144664729
116883 192 17981602671896696236
12160290 23 17255977667196762840
12553582 1 18122643668585491138
12730499 353 18191024706641484683
12759256 9 18340218448341321794
13004483 165 17832400030676904002
13083527 12 18267844139383835146
13140716 1 18051150369073233248
13464514 151 18186796967798902933
13681431 1 18410859824168368916
14181834 199 18407757041020151022
14817 1 8278683294479497705
15163728 17 16590025765138355676
15502722 9 18338508763605222079
16945 1 18266475350169957976
18219364 16 17975147735440750617
19049666 15 17894919533242150873
20361792 2 18269004080610823306
20600515 1 17972566962654085890
20626108 58 18055038070222071495
20645477 70 18411143571241204167
20671657 53 18267575819480709639
21421566 26 17338191535981938134
21524375 3 17905336478371145272
21639500 275 18267025135795370329
21947302 44 18041826420085435977
22112679 90 17560819705080108409
22802520 49 18113621179373387149
23114952 82 18186804672917244581
2334 1 18265071145146322944
23388829 49 18343025454403557008
23526113 38 18114175320111254443
23557571 272 17837766726074193042
23598291 2 17987533545333824531
238 59 18193546981545700503
25 1 18263647431843341029
2748010 2 18193010231103923880
3060560 45 18123177167684095332
5845 1 8110688603718320462
58734987 140 18411137987387794724
6049 1 17531547441663703571
621550 34 17899712433593149995
633830 44 17840339870439544220
6338986 31 18195521493918032262
6992083 37 17771922531914998595
7615 1 17846506906705220363
81228 2 17761218708956641248
88987 49 15647334194971152051

>  <PUBCHEM_SHAPE_MULTIPOLES>  (1) 
354.6
5.52
3.48
1.54
4.46
0.98
-0.38
-1.92
2.06
-3.92
0.71
1.24
-0.71
-0.26

>  <PUBCHEM_SHAPE_SELFOVERLAP>  (1) 
740.738

>  <PUBCHEM_SHAPE_VOLUME>  (1) 
204

>  <PUBCHEM_COORDINATE_TYPE>  (1) 
2
5
10

$$$$
