2122
     RDKit          3D

 22 23  0  0  1  0  0  0  0  0999 V2000
    3.4341   -2.9810    0.1000 Cl  0  0  0  0  0  0  0  0  0  0  0  0
   -0.2722    2.0658    0.0996 S   0  0  0  0  0  0  0  0  0  0  0  0
    4.6986   -0.0114   -0.0821 S   0  0  0  0  0  0  0  0  0  0  0  0
   -4.7494    1.0258    0.0384 S   0  0  0  0  0  0  0  0  0  0  0  0
    0.1903    2.9187   -0.9770 O   0  0  0  0  0  0  0  0  0  0  0  0
   -0.3480    2.5379    1.4678 O   0  0  0  0  0  0  0  0  0  0  0  0
    4.9747    1.3262    0.4176 O   0  0  0  0  0  0  0  0  0  0  0  0
    5.3853   -1.1585    0.4906 O   0  0  0  0  0  0  0  0  0  0  0  0
   -1.7715    1.3853   -0.3580 N   0  0  0  0  0  0  0  0  0  0  0  0
   -1.1943   -0.8901    0.2733 N   0  0  0  0  0  0  0  0  0  0  0  0
    4.9153   -0.0273   -1.7757 N   0  0  0  0  0  0  0  0  0  0  0  0
   -2.1662    0.1794    0.4048 C   0  0  0  0  0  0  0  0  0  0  0  0
    0.7472    0.6250    0.1276 C   0  0  0  0  0  0  0  0  0  0  0  0
    0.1714   -0.6518    0.2166 C   0  0  0  0  0  0  0  0  0  0  0  0
   -3.5204   -0.2968   -0.1058 C   0  0  0  0  0  0  0  0  0  0  0  0
    2.1293    0.8150    0.0355 C   0  0  0  0  0  0  0  0  0  0  0  0
    1.0497   -1.7477    0.1957 C   0  0  0  0  0  0  0  0  0  0  0  0
    2.9728   -0.2911    0.0303 C   0  0  0  0  0  0  0  0  0  0  0  0
    2.4342   -1.5722    0.1088 C   0  0  0  0  0  0  0  0  0  0  0  0
   -6.1753    0.1394   -0.6325 C   0  0  0  0  0  0  0  0  0  0  0  0
   -6.4679   -1.0691    0.1972 C   0  0  0  0  0  0  0  0  0  0  0  0
   -6.4380   -2.3215   -0.2727 C   0  0  0  0  0  0  0  0  0  0  0  0
  1 19  1  0
  2  5  2  0
  2  6  2  0
  2  9  1  0
  2 13  1  0
  3  7  2  0
  3  8  2  0
  3 11  1  0
  3 18  1  0
  4 15  1  0
  4 20  1  0
  9 12  1  0
 10 12  1  0
 10 14  1  0
 12 15  1  0
 13 14  2  0
 13 16  1  0
 14 17  1  0
 16 18  2  0
 17 19  2  0
 18 19  1  0
 20 21  1  0
 21 22  2  0
M  END
>  <PUBCHEM_COMPOUND_CID>  (1) 
2122

>  <PUBCHEM_CONFORMER_RMSD>  (1) 
0.8

>  <PUBCHEM_CONFORMER_DIVERSEORDER>  (1) 
1
5
9
11
17
4
3
13
25
6
19
28
10
26
14
16
7
31
18
15
2
8
12
20
23
24
22
27
30
29
21

>  <PUBCHEM_MMFF94_PARTIAL_CHARGES>  (1) 
31
1 -0.18
10 -0.87
11 -0.98
12 0.72
13 -0.01
14 0.1
15 0.23
16 -0.15
17 -0.15
18 -0.01
19 0.18
2 1.45
20 0.37
21 -0.29
22 -0.3
24 0.42
25 0.4
28 0.15
29 0.15
3 1.45
32 0.42
33 0.42
34 0.15
35 0.15
36 0.15
4 -0.46
5 -0.65
6 -0.65
7 -0.65
8 -0.65
9 -0.91

>  <PUBCHEM_EFFECTIVE_ROTOR_COUNT>  (1) 
5.6

>  <PUBCHEM_PHARMACOPHORE_FEATURES>  (1) 
12
1 10 cation
1 10 donor
1 11 donor
1 22 hydrophobe
1 5 acceptor
1 6 acceptor
1 7 acceptor
1 8 acceptor
1 9 donor
4 4 15 20 21 hydrophobe
6 13 14 16 17 18 19 rings
6 2 9 10 12 13 14 rings

>  <PUBCHEM_HEAVY_ATOM_COUNT>  (1) 
22

>  <PUBCHEM_ATOM_DEF_STEREO_COUNT>  (1) 
0

>  <PUBCHEM_ATOM_UDEF_STEREO_COUNT>  (1) 
1

>  <PUBCHEM_BOND_DEF_STEREO_COUNT>  (1) 
0

>  <PUBCHEM_BOND_UDEF_STEREO_COUNT>  (1) 
0

>  <PUBCHEM_ISOTOPIC_ATOM_COUNT>  (1) 
0

>  <PUBCHEM_COMPONENT_COUNT>  (1) 
1

>  <PUBCHEM_CACTVS_TAUTO_COUNT>  (1) 
1

>  <PUBCHEM_CONFORMER_ID>  (1) 
0000084A00000001

>  <PUBCHEM_MMFF94_ENERGY>  (1) 
32.6369

>  <PUBCHEM_FEATURE_SELFOVERLAP>  (1) 
60.988

>  <PUBCHEM_SHAPE_FINGERPRINT>  (1) 
11578080 2 13336180536189956300
11963148 33 18409440392996462307
12166972 35 17749391455549911182
12236239 1 17989208144571604755
12516196 113 18272369789172713233
12596602 18 17489877050614522635
13140716 1 18267298919239813826
13533116 47 17241036596997549082
13862211 1 18408885131038586979
13899415 154 18060142071563893144
14170010 4 18411134783975415633
14787075 74 18334577940652798859
15196674 1 18337952273287803993
15927050 60 17623284283688976308
17492 89 18122903131976343410
200 152 18343299241372970537
20028762 73 18340482249412552202
20645477 70 18338234851786864262
21267235 1 18412549803373215447
21521721 280 18201158870327171816
21641784 216 17968956192122969421
22950370 63 18412263900775631631
23402539 116 18410851040865400639
23559900 14 18336538413721006681
2871803 45 18335703793557620114
3004659 81 18114180796479848002
314194 84 18343297076994757687
34797466 226 16917073299623243696
34934 24 18410851079462382778
4073 2 18186525423503895411
46194498 28 17531245106220747349
465052 167 18131917048211249982
5104073 3 18269833112419936587
5283173 99 17751070323917371757
59682541 35 18271232911767156712
59755656 215 18335706018393527158

>  <PUBCHEM_SHAPE_MULTIPOLES>  (1) 
427.75
14.33
2.75
0.89
15.48
0
-0.13
6.82
-1.94
-0.28
0.12
-0.45
-0.28
-0.23

>  <PUBCHEM_SHAPE_SELFOVERLAP>  (1) 
844.994

>  <PUBCHEM_SHAPE_VOLUME>  (1) 
255.5

>  <PUBCHEM_COORDINATE_TYPE>  (1) 
2
5
10

$$$$
