21237
     RDKit          3D

 22 25  0  0  0  0  0  0  0  0999 V2000
   -2.9218   -0.0085    2.8687 O   0  0  0  0  0  0  0  0  0  0  0  0
   -2.9209    0.0079   -2.8694 O   0  0  0  0  0  0  0  0  0  0  0  0
   -1.7468    1.1236    1.1895 N   0  0  0  0  0  0  0  0  0  0  0  0
   -1.7485   -1.1304    1.1818 N   0  0  0  0  0  0  0  0  0  0  0  0
   -1.7486    1.1304   -1.1817 N   0  0  0  0  0  0  0  0  0  0  0  0
   -1.7466   -1.1235   -1.1895 N   0  0  0  0  0  0  0  0  0  0  0  0
   -0.9655    0.7898    0.0024 C   0  0  0  0  0  0  0  0  0  0  0  0
   -0.9654   -0.7898   -0.0023 C   0  0  0  0  0  0  0  0  0  0  0  0
    0.3558    1.4689    0.0032 C   0  0  0  0  0  0  0  0  0  0  0  0
    0.3559   -1.4689   -0.0031 C   0  0  0  0  0  0  0  0  0  0  0  0
   -2.2223   -0.0053    1.8646 C   0  0  0  0  0  0  0  0  0  0  0  0
   -2.2218    0.0053   -1.8648 C   0  0  0  0  0  0  0  0  0  0  0  0
    0.9801    1.7940   -1.2045 C   0  0  0  0  0  0  0  0  0  0  0  0
    0.9803   -1.7940    1.2046 C   0  0  0  0  0  0  0  0  0  0  0  0
    0.9824    1.7874    1.2115 C   0  0  0  0  0  0  0  0  0  0  0  0
    0.9825   -1.7873   -1.2114 C   0  0  0  0  0  0  0  0  0  0  0  0
    2.2207    2.4319   -1.2040 C   0  0  0  0  0  0  0  0  0  0  0  0
    2.2208   -2.4318    1.2042 C   0  0  0  0  0  0  0  0  0  0  0  0
    2.2228    2.4253    1.2119 C   0  0  0  0  0  0  0  0  0  0  0  0
    2.2230   -2.4253   -1.2118 C   0  0  0  0  0  0  0  0  0  0  0  0
    2.8419    2.7475    0.0042 C   0  0  0  0  0  0  0  0  0  0  0  0
    2.8420   -2.7474   -0.0039 C   0  0  0  0  0  0  0  0  0  0  0  0
  1 11  2  0
  2 12  2  0
  3  7  1  0
  3 11  1  0
  4  8  1  0
  4 11  1  0
  5  7  1  0
  5 12  1  0
  6  8  1  0
  6 12  1  0
  7  8  1  0
  7  9  1  0
  8 10  1  0
  9 13  2  0
  9 15  1  0
 10 14  2  0
 10 16  1  0
 13 17  1  0
 14 18  1  0
 15 19  2  0
 16 20  2  0
 17 21  2  0
 18 22  2  0
 19 21  1  0
 20 22  1  0
M  END
>  <PUBCHEM_COMPOUND_CID>  (1) 
21237

>  <PUBCHEM_CONFORMER_RMSD>  (1) 
0.6

>  <PUBCHEM_CONFORMER_DIVERSEORDER>  (1) 
1

>  <PUBCHEM_MMFF94_PARTIAL_CHARGES>  (1) 
36
1 -0.57
10 -0.14
11 0.69
12 0.69
13 -0.15
14 -0.15
15 -0.15
16 -0.15
17 -0.15
18 -0.15
19 -0.15
2 -0.57
20 -0.15
21 -0.15
22 -0.15
23 0.37
24 0.37
25 0.37
26 0.37
27 0.15
28 0.15
29 0.15
3 -0.73
30 0.15
31 0.15
32 0.15
33 0.15
34 0.15
35 0.15
36 0.15
4 -0.73
5 -0.73
6 -0.73
7 0.74
8 0.74
9 -0.14

>  <PUBCHEM_EFFECTIVE_ROTOR_COUNT>  (1) 
2.8

>  <PUBCHEM_PHARMACOPHORE_FEATURES>  (1) 
10
1 1 acceptor
1 2 acceptor
1 3 donor
1 4 donor
1 5 donor
1 6 donor
5 3 4 7 8 11 rings
5 5 6 7 8 12 rings
6 10 14 16 18 20 22 rings
6 9 13 15 17 19 21 rings

>  <PUBCHEM_HEAVY_ATOM_COUNT>  (1) 
22

>  <PUBCHEM_ATOM_DEF_STEREO_COUNT>  (1) 
0

>  <PUBCHEM_ATOM_UDEF_STEREO_COUNT>  (1) 
0

>  <PUBCHEM_BOND_DEF_STEREO_COUNT>  (1) 
0

>  <PUBCHEM_BOND_UDEF_STEREO_COUNT>  (1) 
0

>  <PUBCHEM_ISOTOPIC_ATOM_COUNT>  (1) 
0

>  <PUBCHEM_COMPONENT_COUNT>  (1) 
1

>  <PUBCHEM_CACTVS_TAUTO_COUNT>  (1) 
4

>  <PUBCHEM_CONFORMER_ID>  (1) 
000052F500000001

>  <PUBCHEM_MMFF94_ENERGY>  (1) 
76.5941

>  <PUBCHEM_FEATURE_SELFOVERLAP>  (1) 
51.521

>  <PUBCHEM_SHAPE_FINGERPRINT>  (1) 
11578080 2 17822594736657213325
11582403 64 14683781715413083769
12035759 4 17988351693248040014
12173636 292 17764893654479196817
12592029 89 18044634619742378083
13149001 5 17969775289999558511
133893 2 18409160017635568796
13681431 1 18339355254467260454
14181834 199 17981283972385605814
14787075 74 17828811383948635542
14817 1 10845509544573331567
14955137 171 17843432638024468242
15309172 13 17975708499245255640
1601671 61 17116331985224834661
16945 1 18410856564330363268
19868273 325 17908973323422928006
20600515 1 17112741040166537321
20602899 9 17837194244970871460
20691752 17 17097516411825797171
20723712 36 17198297402724542289
20905425 154 17694833645614707745
21330990 113 17537479401226553812
22112679 90 17632581521974115045
22889148 1 17257069993096176972
23419403 2 18040727926380512489
23728640 28 17395819495899244768
238 59 18264750199198421492
298252 57 17395529177352710909
427121 178 17188474610845122811
465052 167 16523010737362786059
497634 4 16770667678888503906
5845 1 11450589738634652645
68419 9 17418375804959410081
81228 2 17401487040211268712
90525 40 17680690825246885308

>  <PUBCHEM_SHAPE_MULTIPOLES>  (1) 
421.09
4.14
3.57
2.29
0.7
0
0
0
0
-4.53
0
2.11
0
0.01

>  <PUBCHEM_SHAPE_SELFOVERLAP>  (1) 
943.298

>  <PUBCHEM_SHAPE_VOLUME>  (1) 
223.2

>  <PUBCHEM_COORDINATE_TYPE>  (1) 
2
5
10

$$$$
