21231
     RDKit          3D

 12 12  0  0  1  0  0  0  0  0999 V2000
   -0.5037   -0.5589   -0.8536 S   0  0  0  0  0  0  0  0  0  0  0  0
   -3.1948   -1.7326    0.4234 O   0  0  0  0  0  0  0  0  0  0  0  0
   -3.3515    1.8485   -0.2686 O   0  0  0  0  0  0  0  0  0  0  0  0
   -2.9129   -0.3439    0.6020 C   0  0  0  0  0  0  0  0  0  0  0  0
   -1.3969   -0.1411    0.6774 C   0  0  0  0  0  0  0  0  0  0  0  0
   -3.6121    0.4649   -0.4882 C   0  0  0  0  0  0  0  0  0  0  0  0
    1.1838   -0.2010   -0.3821 C   0  0  0  0  0  0  0  0  0  0  0  0
    1.5328    1.0869    0.0141 C   0  0  0  0  0  0  0  0  0  0  0  0
    2.1398   -1.2123   -0.4133 C   0  0  0  0  0  0  0  0  0  0  0  0
    2.8489    1.3661    0.3819 C   0  0  0  0  0  0  0  0  0  0  0  0
    3.4560   -0.9330   -0.0453 C   0  0  0  0  0  0  0  0  0  0  0  0
    3.8105    0.3563    0.3523 C   0  0  0  0  0  0  0  0  0  0  0  0
  1  5  1  0
  1  7  1  0
  2  4  1  0
  3  6  1  0
  4  5  1  0
  4  6  1  0
  7  8  2  0
  7  9  1  0
  8 10  1  0
  9 11  2  0
 10 12  2  0
 11 12  1  0
M  END
>  <PUBCHEM_COMPOUND_CID>  (1) 
21231

>  <PUBCHEM_CONFORMER_RMSD>  (1) 
0.6

>  <PUBCHEM_CONFORMER_DIVERSEORDER>  (1) 
1
61
33
7
55
5
43
53
65
30
60
49
4
56
25
34
64
36
6
66
58
27
20
35
3
63
14
8
42
51
21
39
54
67
9
62
68
44
50
52
40
15
2
32
28
48
59
13
12
26
17
41
19
23
69
37
31
29
11
47
24
45
18
22
57
16
10
38
46

>  <PUBCHEM_MMFF94_PARTIAL_CHARGES>  (1) 
19
1 -0.33
10 -0.15
11 -0.15
12 -0.15
18 0.15
19 0.15
2 -0.68
20 0.4
21 0.15
22 0.15
23 0.15
24 0.4
3 -0.68
4 0.28
5 0.23
6 0.28
7 0.1
8 -0.15
9 -0.15

>  <PUBCHEM_EFFECTIVE_ROTOR_COUNT>  (1) 
4

>  <PUBCHEM_PHARMACOPHORE_FEATURES>  (1) 
5
1 2 acceptor
1 2 donor
1 3 acceptor
1 3 donor
6 7 8 9 10 11 12 rings

>  <PUBCHEM_HEAVY_ATOM_COUNT>  (1) 
12

>  <PUBCHEM_ATOM_DEF_STEREO_COUNT>  (1) 
0

>  <PUBCHEM_ATOM_UDEF_STEREO_COUNT>  (1) 
1

>  <PUBCHEM_BOND_DEF_STEREO_COUNT>  (1) 
0

>  <PUBCHEM_BOND_UDEF_STEREO_COUNT>  (1) 
0

>  <PUBCHEM_ISOTOPIC_ATOM_COUNT>  (1) 
0

>  <PUBCHEM_COMPONENT_COUNT>  (1) 
1

>  <PUBCHEM_CACTVS_TAUTO_COUNT>  (1) 
1

>  <PUBCHEM_CONFORMER_ID>  (1) 
000052EF00000001

>  <PUBCHEM_MMFF94_ENERGY>  (1) 
26.6044

>  <PUBCHEM_FEATURE_SELFOVERLAP>  (1) 
25.371

>  <PUBCHEM_SHAPE_FINGERPRINT>  (1) 
10219947 1 17989208127286383478
10608611 8 18411135852857821729
12162725 195 18343022172901012073
124424 183 18409445856167150908
12500047 106 18260264123064225679
12932764 1 18338250322443232519
13296908 3 18408044017517645123
13922767 16 18343297042254762896
14144814 61 18130794455529159394
14325111 11 18412265055541540083
15219456 202 18410856555365979837
15653759 3 18260269650539254225
15775835 57 17846499274363829020
17834069 15 18408042892294125485
18186145 218 18201732738055836562
19107657 47 18202281381525734634
200 152 17775559849745155295
20201158 50 18411983533309600763
20279233 1 18409168805191553391
20645477 56 18334580105828168173
20645477 70 18130506323321907614
20871998 22 17914342277926029662
22485316 2 18040713658509951642
23402655 69 18131630062865305764
3248919 1 17167870802153964511
57812782 119 18411419522668068867

>  <PUBCHEM_SHAPE_MULTIPOLES>  (1) 
239.07
7.65
1.55
0.84
2.22
0.19
0.03
0.69
-0.6
0.25
0.01
0.24
-0.06
0.63

>  <PUBCHEM_SHAPE_SELFOVERLAP>  (1) 
464.888

>  <PUBCHEM_SHAPE_VOLUME>  (1) 
144.9

>  <PUBCHEM_COORDINATE_TYPE>  (1) 
2
5
10

$$$$
