21243
     RDKit          3D

  6  5  0  0  1  0  0  0  0  0999 V2000
   -1.4545    1.3020   -0.6782 Cl  0  0  0  0  0  0  0  0  0  0  0  0
   -0.6809    0.1175    0.4251 C   0  0  0  0  0  0  0  0  0  0  0  0
    0.7598   -0.0898   -0.0012 C   0  0  0  0  0  0  0  0  0  0  0  0
   -1.5600   -1.1306    0.4881 C   0  0  0  0  0  0  0  0  0  0  0  0
    1.7604    0.8753    0.5814 C   0  0  0  0  0  0  0  0  0  0  0  0
    1.1752   -1.0745   -0.8152 C   0  0  0  0  0  0  0  0  0  0  0  0
  1  2  1  0
  2  3  1  0
  2  4  1  0
  3  5  1  0
  3  6  2  0
M  END
>  <PUBCHEM_COMPOUND_CID>  (1) 
21243

>  <PUBCHEM_CONFORMER_RMSD>  (1) 
0.4

>  <PUBCHEM_CONFORMER_DIVERSEORDER>  (1) 
1
3
2
4

>  <PUBCHEM_MMFF94_PARTIAL_CHARGES>  (1) 
7
1 -0.29
14 0.15
15 0.15
2 0.43
3 -0.28
5 0.14
6 -0.3

>  <PUBCHEM_EFFECTIVE_ROTOR_COUNT>  (1) 
1

>  <PUBCHEM_PHARMACOPHORE_FEATURES>  (1) 
0

>  <PUBCHEM_HEAVY_ATOM_COUNT>  (1) 
6

>  <PUBCHEM_ATOM_DEF_STEREO_COUNT>  (1) 
0

>  <PUBCHEM_ATOM_UDEF_STEREO_COUNT>  (1) 
1

>  <PUBCHEM_BOND_DEF_STEREO_COUNT>  (1) 
0

>  <PUBCHEM_BOND_UDEF_STEREO_COUNT>  (1) 
0

>  <PUBCHEM_ISOTOPIC_ATOM_COUNT>  (1) 
0

>  <PUBCHEM_COMPONENT_COUNT>  (1) 
1

>  <PUBCHEM_CACTVS_TAUTO_COUNT>  (1) 
1

>  <PUBCHEM_CONFORMER_ID>  (1) 
000052FB00000001

>  <PUBCHEM_MMFF94_ENERGY>  (1) 
4.4928

>  <PUBCHEM_FEATURE_SELFOVERLAP>  (1) 
0

>  <PUBCHEM_SHAPE_FINGERPRINT>  (1) 
16714656 1 17908711974673411836
20096714 4 18045212743947384853
20711978 78 17417267458357332423
21040471 1 17824822239534871733
23552449 1 18188760764375102445
24536 1 17988362568089136138
29004967 10 18129953384884161139
5943 1 10101705776764717038

>  <PUBCHEM_SHAPE_MULTIPOLES>  (1) 
125.35
2.31
1.45
0.94
0.07
0.02
-0.09
0.25
0.06
-0.34
-0.13
0.05
-0.02
0.68

>  <PUBCHEM_SHAPE_SELFOVERLAP>  (1) 
214.338

>  <PUBCHEM_SHAPE_VOLUME>  (1) 
85.9

>  <PUBCHEM_COORDINATE_TYPE>  (1) 
2
5
10

$$$$
