21247
     RDKit          3D

 32 35  0  0  1  0  0  0  0  0999 V2000
   -6.2781    3.2310    0.1159 S   0  0  0  0  0  0  0  0  0  0  0  0
   -1.9754   -3.4148   -1.8538 O   0  0  0  0  0  0  0  0  0  0  0  0
    1.0818   -2.5227   -2.2130 O   0  0  0  0  0  0  0  0  0  0  0  0
    1.7525   -4.2646   -0.8916 O   0  0  0  0  0  0  0  0  0  0  0  0
   -4.6423   -0.1072    1.3737 O   0  0  0  0  0  0  0  0  0  0  0  0
    5.9956    2.4785   -1.4775 O   0  0  0  0  0  0  0  0  0  0  0  0
   -0.8499   -2.2738   -0.1292 N   0  0  0  0  0  0  0  0  0  0  0  0
   -3.7807   -1.0520   -0.5631 N   0  0  0  0  0  0  0  0  0  0  0  0
    3.2695   -0.8907    0.8800 N   0  0  0  0  0  0  0  0  0  0  0  0
    4.8026    3.7700    0.0342 N   0  0  0  0  0  0  0  0  0  0  0  0
   -1.6037   -1.3804    0.7412 C   0  0  0  0  0  0  0  0  0  0  0  0
   -2.8742   -1.9934    0.0882 C   0  0  0  0  0  0  0  0  0  0  0  0
   -1.1883   -1.6476    2.1719 C   0  0  0  0  0  0  0  0  0  0  0  0
   -1.8835   -2.7023   -0.8815 C   0  0  0  0  0  0  0  0  0  0  0  0
    0.3280   -1.3996    2.2669 C   0  0  0  0  0  0  0  0  0  0  0  0
    0.4863   -2.4653    0.0086 C   0  0  0  0  0  0  0  0  0  0  0  0
    1.1216   -2.0259    1.1189 C   0  0  0  0  0  0  0  0  0  0  0  0
    2.6006   -2.1024    1.3844 C   0  0  0  0  0  0  0  0  0  0  0  0
    1.1810   -3.2035   -1.0532 C   0  0  0  0  0  0  0  0  0  0  0  0
   -4.6004   -0.1753    0.1464 C   0  0  0  0  0  0  0  0  0  0  0  0
   -5.4444    0.7207   -0.7379 C   0  0  0  0  0  0  0  0  0  0  0  0
    3.7225   -0.8804   -0.3811 C   0  0  0  0  0  0  0  0  0  0  0  0
    3.4019    0.1622    1.6983 C   0  0  0  0  0  0  0  0  0  0  0  0
   -5.0823    2.1552   -0.4716 C   0  0  0  0  0  0  0  0  0  0  0  0
    4.3552    0.2477   -0.8835 C   0  0  0  0  0  0  0  0  0  0  0  0
    4.0264    1.3173    1.2499 C   0  0  0  0  0  0  0  0  0  0  0  0
    4.5067    1.3561   -0.0556 C   0  0  0  0  0  0  0  0  0  0  0  0
   -3.8643    2.7768   -0.6375 C   0  0  0  0  0  0  0  0  0  0  0  0
    5.1653    2.5527   -0.5542 C   0  0  0  0  0  0  0  0  0  0  0  0
   -3.9132    4.1545   -0.2773 C   0  0  0  0  0  0  0  0  0  0  0  0
   -5.1668    4.5333    0.1500 C   0  0  0  0  0  0  0  0  0  0  0  0
    5.3498    5.0461   -0.3670 C   0  0  0  0  0  0  0  0  0  0  0  0
  1 24  1  0
  1 31  1  0
  2 14  2  0
  3 19  1  0
  4 19  2  0
  5 20  2  0
  6 29  2  0
  7 11  1  0
  7 14  1  0
  7 16  1  0
  8 12  1  0
  8 20  1  0
  9 18  1  0
  9 22  2  0
  9 23  1  0
 10 29  1  0
 10 32  1  0
 11 12  1  0
 11 13  1  0
 12 14  1  0
 13 15  1  0
 15 17  1  0
 16 17  2  0
 16 19  1  0
 17 18  1  0
 20 21  1  0
 21 24  1  0
 22 25  1  0
 23 26  2  0
 24 28  2  0
 25 27  2  0
 26 27  1  0
 27 29  1  0
 28 30  1  0
 30 31  2  0
M  CHG  1   9   1
M  END
>  <PUBCHEM_COMPOUND_CID>  (1) 
21247

>  <PUBCHEM_CONFORMER_RMSD>  (1) 
1

>  <PUBCHEM_CONFORMER_DIVERSEORDER>  (1) 
1
277
151
219
215
23
257
199
9
122
213
220
264
254
136
259
175
266
61
251
296
20
94
27
288
154
172
22
183
252
124
285
234
193
294
240
202
109
255
164
150
106
210
290
105
102
185
198
17
274
247
304
230
160
135
297
299
245
272
161
140
110
239
145
131
208
159
271
249
248
276
300
56
268
194
78
284
295
177
224
8
55
195
14
155
286
69
269
15
289
123
214
171
142
77
128
188
246
99
229
108
244
287
54
256
137
35
281
282
144
189
258
126
273
132
16
127
89
228
238
267
153
112
196
207
262
118
38
59
227
192
283
146
65
237
147
279
235
157
76
57
104
260
28
133
75
212
181
292
70
162
298
107
293
190
291
116
66
93
149
303
87
33
173
68
5
206
165
96
232
278
184
265
30
62
115
24
263
280
236
176
139
25
178
63
216
79
180
51
10
166
201
242
36
197
90
156
163
18
222
42
218
85
261
45
72
253
152
187
134
71
158
4
53
233
225
243
26
113
60
103
39
204
114
119
83
34
302
58
182
138
186
31
250
191
217
91
11
97
179
40
169
100
221
270
50
48
84
170
13
168
148
301
12
19
64
209
130
44
129
82
98
111
223
101
226
231
32
200
121
49
203
52
47
241
80
275
43
174
3
205
143
92
81
21
88
141
41
37
74
7
67
167
95
46
29
125
6
211
86
73
2
117
120

>  <PUBCHEM_MMFF94_PARTIAL_CHARGES>  (1) 
41
1 -0.08
10 -0.73
11 0.22
12 0.28
14 0.58
15 0.14
16 0.12
17 -0.28
18 0.63
19 0.71
2 -0.57
20 0.57
21 0.24
22 0.21
23 0.21
24 -0.14
25 -0.15
26 -0.15
27 0.09
28 -0.15
29 0.54
3 -0.65
30 -0.15
31 -0.11
32 0.3
39 0.37
4 -0.57
44 0.15
45 0.15
46 0.5
47 0.15
48 0.15
49 0.15
5 -0.57
50 0.15
51 0.15
52 0.37
6 -0.57
7 -0.39
8 -0.65
9 -0.21

>  <PUBCHEM_EFFECTIVE_ROTOR_COUNT>  (1) 
9.6

>  <PUBCHEM_PHARMACOPHORE_FEATURES>  (1) 
12
1 10 donor
1 2 acceptor
1 3 acceptor
1 4 acceptor
1 5 acceptor
1 6 acceptor
1 8 donor
3 3 4 19 anion
4 7 11 12 14 rings
5 1 24 28 30 31 rings
6 7 11 13 15 16 17 rings
6 9 22 23 25 26 27 rings

>  <PUBCHEM_HEAVY_ATOM_COUNT>  (1) 
32

>  <PUBCHEM_ATOM_DEF_STEREO_COUNT>  (1) 
0

>  <PUBCHEM_ATOM_UDEF_STEREO_COUNT>  (1) 
2

>  <PUBCHEM_BOND_DEF_STEREO_COUNT>  (1) 
0

>  <PUBCHEM_BOND_UDEF_STEREO_COUNT>  (1) 
0

>  <PUBCHEM_ISOTOPIC_ATOM_COUNT>  (1) 
0

>  <PUBCHEM_COMPONENT_COUNT>  (1) 
1

>  <PUBCHEM_CACTVS_TAUTO_COUNT>  (1) 
4

>  <PUBCHEM_CONFORMER_ID>  (1) 
000052FF00000001

>  <PUBCHEM_MMFF94_ENERGY>  (1) 
78.8396

>  <PUBCHEM_FEATURE_SELFOVERLAP>  (1) 
61.256

>  <PUBCHEM_SHAPE_FINGERPRINT>  (1) 
100830 2 18334863800702467765
10581848 197 7851854848241823132
10763959 59 18196651787465960786
10917259 128 18050275175721209616
11387372 6 7995208220424721928
11411753 29 18121522188780284211
12633257 1 15430873388319587014
13627167 48 18269574808929567076
13944108 23 18194684765685768008
14251764 38 18192148205403230585
14251764 75 18409450280110806993
14429114 114 18336542815050447209
14739800 52 18041276552813408339
14790565 3 18410009914475731941
14848178 5 10087641485605640203
15001296 14 18191304871616851145
15064981 113 17845671347442682068
15163728 17 18410858780280936822
15320291 9 17689705368690805505
15475509 35 8790299146018036255
15575132 122 18338239378797919225
15728490 83 8968782314826523480
15968369 153 17975991061027955637
16708801 149 18195795289778561377
19053607 189 18339912732263978265
19302320 297 17833832669064423497
19438510 23 18186801413332394528
21223535 225 18337674239197557228
21388113 180 18411422799633573045
21641784 216 17913463995610610567
21792965 106 18338237193715535928
22122407 14 18187367610069939400
24180151 214 17389076114014801083
27425 322 18189613852992943843
2838139 119 18409166649397506614
3388396 114 16609977790862565780
5223283 242 17192928389374384231
53794403 172 18266743472056668829
550186 72 18265894847244191543
57591035 28 16759737248442744119
6036956 94 17900828463354949581
6201320 77 13396925354370317973
6608658 132 18051682536552893375

>  <PUBCHEM_SHAPE_MULTIPOLES>  (1) 
613.12
14.91
6.9
1.69
6.04
6.12
-0.34
23.15
1.89
-1.53
2.07
-0.85
-1.39
-0.88

>  <PUBCHEM_SHAPE_SELFOVERLAP>  (1) 
1308.254

>  <PUBCHEM_SHAPE_VOLUME>  (1) 
343.1

>  <PUBCHEM_COORDINATE_TYPE>  (1) 
2
5
10

$$$$
