21249
     RDKit          3D

 32 33  0  0  0  0  0  0  0  0999 V2000
   -5.2586    1.7824   -0.5216 S   0  0  0  0  0  0  0  0  0  0  0  0
    5.2298    1.7854    0.5218 S   0  0  0  0  0  0  0  0  0  0  0  0
   -5.8377    2.0233    0.7863 O   0  0  0  0  0  0  0  0  0  0  0  0
   -5.5731    2.6610   -1.6318 O   0  0  0  0  0  0  0  0  0  0  0  0
    5.8314    2.0241   -0.7838 O   0  0  0  0  0  0  0  0  0  0  0  0
    5.5657    2.6650    1.6334 O   0  0  0  0  0  0  0  0  0  0  0  0
   -5.6364   -3.2898    0.5627 N   0  0  0  0  0  0  0  0  0  0  0  0
    5.6652   -3.2520   -0.5469 N   0  0  0  0  0  0  0  0  0  0  0  0
   -5.5645    0.1768   -0.9871 N   0  0  0  0  0  0  0  0  0  0  0  0
    5.5528    0.1724    0.9855 N   0  0  0  0  0  0  0  0  0  0  0  0
   -6.0808   -2.1335   -0.3215 C   0  0  0  0  0  0  0  0  0  0  0  0
    6.0903   -2.1236    0.3178 C   0  0  0  0  0  0  0  0  0  0  0  0
   -5.1755   -0.9376   -0.0943 C   0  0  0  0  0  0  0  0  0  0  0  0
    5.1742   -0.9349    0.0961 C   0  0  0  0  0  0  0  0  0  0  0  0
   -4.2095   -3.6814    0.2068 C   0  0  0  0  0  0  0  0  0  0  0  0
   -6.5591   -4.4799    0.3427 C   0  0  0  0  0  0  0  0  0  0  0  0
   -5.6965   -2.8643    2.0227 C   0  0  0  0  0  0  0  0  0  0  0  0
    4.2313   -3.6859   -0.2117 C   0  0  0  0  0  0  0  0  0  0  0  0
    5.7080   -2.8502   -2.0277 C   0  0  0  0  0  0  0  0  0  0  0  0
    6.5873   -4.4641   -0.3548 C   0  0  0  0  0  0  0  0  0  0  0  0
   -3.4996    1.7817   -0.3472 C   0  0  0  0  0  0  0  0  0  0  0  0
    3.4922    1.7861    0.3483 C   0  0  0  0  0  0  0  0  0  0  0  0
   -0.7236    1.7829   -0.0713 C   0  0  0  0  0  0  0  0  0  0  0  0
    0.7162    1.7849    0.0719 C   0  0  0  0  0  0  0  0  0  0  0  0
   -2.9208    1.4668    0.8822 C   0  0  0  0  0  0  0  0  0  0  0  0
    2.6825    2.0971    1.4407 C   0  0  0  0  0  0  0  0  0  0  0  0
   -2.6904    2.0972   -1.4387 C   0  0  0  0  0  0  0  0  0  0  0  0
    2.9140    1.4744   -0.8823 C   0  0  0  0  0  0  0  0  0  0  0  0
   -1.5328    1.4674    1.0202 C   0  0  0  0  0  0  0  0  0  0  0  0
    1.2946    2.0966    1.3025 C   0  0  0  0  0  0  0  0  0  0  0  0
   -1.3024    2.0979   -1.3007 C   0  0  0  0  0  0  0  0  0  0  0  0
    1.5260    1.4738   -1.0203 C   0  0  0  0  0  0  0  0  0  0  0  0
  1  3  2  0
  1  4  2  0
  1  9  1  0
  1 21  1  0
  2  5  2  0
  2  6  2  0
  2 10  1  0
  2 22  1  0
  7 11  1  0
  7 15  1  0
  7 16  1  0
  7 17  1  0
  8 12  1  0
  8 18  1  0
  8 19  1  0
  8 20  1  0
  9 13  1  0
 10 14  1  0
 11 13  1  0
 12 14  1  0
 21 25  2  0
 21 27  1  0
 22 26  2  0
 22 28  1  0
 23 24  1  0
 23 29  2  0
 23 31  1  0
 24 30  2  0
 24 32  1  0
 25 29  1  0
 26 30  1  0
 27 31  2  0
 28 32  2  0
M  CHG  2   7   1   8   1
M  END
>  <PUBCHEM_COMPOUND_CID>  (1) 
21249

>  <PUBCHEM_CONFORMER_RMSD>  (1) 
1.2

>  <PUBCHEM_CONFORMER_DIVERSEORDER>  (1) 
1
18
14
12
21
2
8
25
11
22
6
13
5
16
26
7
19
17
3
9
10
24
4
23
20
15

>  <PUBCHEM_MMFF94_PARTIAL_CHARGES>  (1) 
40
1 1.45
10 -0.91
11 0.5
12 0.5
13 0.36
14 0.36
15 0.5
16 0.5
17 0.5
18 0.5
19 0.5
2 1.45
20 0.5
21 -0.01
22 -0.01
25 -0.15
26 -0.15
27 -0.15
28 -0.15
29 -0.15
3 -0.65
30 -0.15
31 -0.15
32 -0.15
4 -0.65
5 -0.65
59 0.42
6 -0.65
60 0.42
61 0.15
62 0.15
63 0.15
64 0.15
65 0.15
66 0.15
67 0.15
68 0.15
7 -1.01
8 -1.01
9 -0.91

>  <PUBCHEM_EFFECTIVE_ROTOR_COUNT>  (1) 
11

>  <PUBCHEM_PHARMACOPHORE_FEATURES>  (1) 
10
1 10 donor
1 3 acceptor
1 4 acceptor
1 5 acceptor
1 6 acceptor
1 7 cation
1 8 cation
1 9 donor
6 21 23 25 27 29 31 rings
6 22 24 26 28 30 32 rings

>  <PUBCHEM_HEAVY_ATOM_COUNT>  (1) 
32

>  <PUBCHEM_ATOM_DEF_STEREO_COUNT>  (1) 
0

>  <PUBCHEM_ATOM_UDEF_STEREO_COUNT>  (1) 
0

>  <PUBCHEM_BOND_DEF_STEREO_COUNT>  (1) 
0

>  <PUBCHEM_BOND_UDEF_STEREO_COUNT>  (1) 
0

>  <PUBCHEM_ISOTOPIC_ATOM_COUNT>  (1) 
0

>  <PUBCHEM_COMPONENT_COUNT>  (1) 
1

>  <PUBCHEM_CACTVS_TAUTO_COUNT>  (1) 
1

>  <PUBCHEM_CONFORMER_ID>  (1) 
0000530100000001

>  <PUBCHEM_MMFF94_ENERGY>  (1) 
79.7129

>  <PUBCHEM_FEATURE_SELFOVERLAP>  (1) 
50.782

>  <PUBCHEM_SHAPE_FINGERPRINT>  (1) 
10049733 57 18272378546611829055
10554248 39 13912590641954500448
11387372 6 18409450246478335031
117089 54 18410016554342606543
11796584 16 18334847278026057560
11963148 33 18339074999367328622
12717326 25 18264502698225568249
13533116 47 18272083847910523840
13553643 44 18265638531516988323
1361 4 18410011056899843094
13782708 43 18410857663446618496
13989917 61 18340768144585388902
14040221 126 17248961025974692327
14211702 104 18410296929844093055
14556957 393 14490458756287964383
15001296 14 18334287644093057994
15019793 15 18411979199825795070
15152005 304 17683252726459540467
15352257 5 18410573989446561345
20775438 99 17822303400989576258
21033648 29 12679169462882650064
21130935 74 18342736312483331969
229767 8 18410863161010707714
23559900 14 18340759386719908489
25122255 55 18409169904703012259
32027 91 18340485556488779900
34797466 226 17676212351547974932
373842 8 18412546526197728462
4073 2 18411980286631414409
4144715 1 18410569552788647033
4435113 14 18410580582221984327
484989 97 18411705366254819182
50009960 94 18263342730438381250
5104073 3 17775291542843392537
513202 73 18261959643610243051
9831232 110 18335981965920836332

>  <PUBCHEM_SHAPE_MULTIPOLES>  (1) 
622.84
21.52
6.32
1.51
0.14
8.8
0
19.97
0.04
-0.05
0
0
-0.33
4.85

>  <PUBCHEM_SHAPE_SELFOVERLAP>  (1) 
1246.794

>  <PUBCHEM_SHAPE_VOLUME>  (1) 
371.9

>  <PUBCHEM_COORDINATE_TYPE>  (1) 
2
5
10

$$$$
