21261
     RDKit          3D

 20 21  0  0  1  0  0  0  0  0999 V2000
   -0.6568   -1.3402   -0.2265 S   0  0  0  0  0  0  0  0  0  0  0  0
   -3.9126   -2.4784    1.1009 O   0  0  0  0  0  0  0  0  0  0  0  0
   -3.8163   -0.2232    1.3250 O   0  0  0  0  0  0  0  0  0  0  0  0
   -4.4271   -0.4493   -1.5458 N   0  0  0  0  0  0  0  0  0  0  0  0
    0.6791   -0.2125   -0.6814 C   0  0  0  0  0  0  0  0  0  0  0  0
    0.4497    1.2121   -0.2041 C   0  0  0  0  0  0  0  0  0  0  0  0
    2.0556   -0.7482   -0.3237 C   0  0  0  0  0  0  0  0  0  0  0  0
   -2.0165   -0.4937   -1.0940 C   0  0  0  0  0  0  0  0  0  0  0  0
   -3.3635   -1.1770   -0.8509 C   0  0  0  0  0  0  0  0  0  0  0  0
    0.2077    2.1999   -1.1384 C   0  0  0  0  0  0  0  0  0  0  0  0
    3.1055   -0.5298   -1.1940 C   0  0  0  0  0  0  0  0  0  0  0  0
    0.4891    1.4787    1.1504 C   0  0  0  0  0  0  0  0  0  0  0  0
    2.2183   -1.4381    0.8615 C   0  0  0  0  0  0  0  0  0  0  0  0
   -0.0031    3.5074   -0.7005 C   0  0  0  0  0  0  0  0  0  0  0  0
    4.3690   -1.0213   -0.8658 C   0  0  0  0  0  0  0  0  0  0  0  0
    0.2781    2.7863    1.5881 C   0  0  0  0  0  0  0  0  0  0  0  0
    3.4819   -1.9294    1.1896 C   0  0  0  0  0  0  0  0  0  0  0  0
   -3.7274   -1.2226    0.6213 C   0  0  0  0  0  0  0  0  0  0  0  0
    0.0320    3.8005    0.6626 C   0  0  0  0  0  0  0  0  0  0  0  0
    4.5572   -1.7210    0.3259 C   0  0  0  0  0  0  0  0  0  0  0  0
  1  5  1  0
  1  8  1  0
  2 18  1  0
  3 18  2  0
  4  9  1  0
  5  6  1  0
  5  7  1  0
  6 10  2  0
  6 12  1  0
  7 11  2  0
  7 13  1  0
  8  9  1  0
  9 18  1  0
 10 14  1  0
 11 15  1  0
 12 16  2  0
 13 17  2  0
 14 19  2  0
 15 20  2  0
 16 19  1  0
 17 20  1  0
M  END
>  <PUBCHEM_COMPOUND_CID>  (1) 
21261

>  <PUBCHEM_CONFORMER_RMSD>  (1) 
0.8

>  <PUBCHEM_CONFORMER_DIVERSEORDER>  (1) 
1
17
4
6
15
12
7
5
11
16
13
2
10
8
9
3
14

>  <PUBCHEM_MMFF94_PARTIAL_CHARGES>  (1) 
33
1 -0.46
10 -0.15
11 -0.15
12 -0.15
13 -0.15
14 -0.15
15 -0.15
16 -0.15
17 -0.15
18 0.66
19 -0.15
2 -0.65
20 -0.15
25 0.15
26 0.15
27 0.15
28 0.15
29 0.15
3 -0.57
30 0.15
31 0.15
32 0.15
33 0.15
34 0.15
35 0.36
36 0.36
37 0.5
4 -0.99
5 0.52
6 -0.14
7 -0.14
8 0.23
9 0.33

>  <PUBCHEM_EFFECTIVE_ROTOR_COUNT>  (1) 
6

>  <PUBCHEM_PHARMACOPHORE_FEATURES>  (1) 
7
1 2 acceptor
1 3 acceptor
1 4 cation
1 4 donor
3 2 3 18 anion
6 6 10 12 14 16 19 rings
6 7 11 13 15 17 20 rings

>  <PUBCHEM_HEAVY_ATOM_COUNT>  (1) 
20

>  <PUBCHEM_ATOM_DEF_STEREO_COUNT>  (1) 
1

>  <PUBCHEM_ATOM_UDEF_STEREO_COUNT>  (1) 
0

>  <PUBCHEM_BOND_DEF_STEREO_COUNT>  (1) 
0

>  <PUBCHEM_BOND_UDEF_STEREO_COUNT>  (1) 
0

>  <PUBCHEM_ISOTOPIC_ATOM_COUNT>  (1) 
0

>  <PUBCHEM_COMPONENT_COUNT>  (1) 
1

>  <PUBCHEM_CACTVS_TAUTO_COUNT>  (1) 
1

>  <PUBCHEM_CONFORMER_ID>  (1) 
0000530D00000001

>  <PUBCHEM_MMFF94_ENERGY>  (1) 
52.0561

>  <PUBCHEM_FEATURE_SELFOVERLAP>  (1) 
35.579

>  <PUBCHEM_SHAPE_FINGERPRINT>  (1) 
104564 63 18268430122766557005
12553582 1 18411984645754077431
12707595 3 18410009974568441951
12788726 201 18048019792832731771
13134695 92 18342166817205337157
13140716 1 18340769243221057153
133893 2 17909521180602477548
13533116 47 18121225544105703859
13681431 1 18341047531384580268
14251757 17 15285653091666498354
14251757 5 18042400245101915909
14347329 18 16590807372198719389
14950920 106 17978263696561847675
14955137 171 18128558117545479686
15238133 3 18265919985624594921
17138139 8 17331913333193687253
17357779 13 18058145281280754981
17980427 23 17060336349171065481
1813 80 18201444678915321566
18222031 100 18131061645307890166
18785283 64 17757274047546321668
19078846 21 18341062864760438863
20097449 115 18412545418148120824
20510252 161 18269546149044914846
20600515 1 18129958856915349246
20671657 1 18052827128394628871
21041028 32 18341342145030298145
21524375 3 17190378024207328581
22112679 90 18128282054232654504
23175994 123 18409169909193431455
23419403 2 17984387880942498860
23557571 272 18198053690998535430
23558518 356 17762051039080065126
23559900 14 17678170693573464551
283562 15 18266171739085050730
3091708 16 9210390678829021856
314173 85 18272932696087024718
4175511 71 18272376403216484247
458136 41 17687758550483193645
59755656 520 17619912751773425428
6049 1 17969215815059782175
6786 2 17037558011238352508
68521 5 18340200770192504620
6992083 37 17846773031579961743
7164475 11 18265895744760754166
7364860 26 18055071227052481485
81228 2 18197222434026578604
9981440 41 16550539884613646778

>  <PUBCHEM_SHAPE_MULTIPOLES>  (1) 
398.72
7.7
3.88
1.51
0.9
4.93
-0.12
-8.58
0.07
0.82
-0.97
0.38
0.16
-0.04

>  <PUBCHEM_SHAPE_SELFOVERLAP>  (1) 
827.902

>  <PUBCHEM_SHAPE_VOLUME>  (1) 
227.1

>  <PUBCHEM_COORDINATE_TYPE>  (1) 
2
5
10

$$$$
