21264
     RDKit          3D

  8  7  0  0  1  0  0  0  0  0999 V2000
    1.1031   -1.6434    0.8187 O   0  0  0  0  0  0  0  0  0  0  0  0
    0.4649    0.0733   -0.7943 C   0  0  0  0  0  0  0  0  0  0  0  0
    0.8625    1.1996    0.1732 C   0  0  0  0  0  0  0  0  0  0  0  0
   -1.0565    0.0099   -1.0320 C   0  0  0  0  0  0  0  0  0  0  0  0
    2.3733    1.3300    0.3292 C   0  0  0  0  0  0  0  0  0  0  0  0
    0.9588   -1.2952   -0.3484 C   0  0  0  0  0  0  0  0  0  0  0  0
   -1.8687   -0.2432    0.2079 C   0  0  0  0  0  0  0  0  0  0  0  0
   -2.8374    0.5690    0.6457 C   0  0  0  0  0  0  0  0  0  0  0  0
  1  6  2  0
  2  3  1  0
  2  4  1  0
  2  6  1  0
  3  5  1  0
  4  7  1  0
  7  8  2  0
M  END
>  <PUBCHEM_COMPOUND_CID>  (1) 
21264

>  <PUBCHEM_CONFORMER_RMSD>  (1) 
0.6

>  <PUBCHEM_CONFORMER_DIVERSEORDER>  (1) 
1
17
33
22
2
3
34
29
35
6
23
31
20
26
30
25
5
27
21
15
24
28
4
37
32
11
36
9
19
18
14
10
8
12
13
16
7

>  <PUBCHEM_MMFF94_PARTIAL_CHARGES>  (1) 
10
1 -0.57
17 0.06
18 0.15
19 0.15
2 0.06
20 0.15
4 0.14
6 0.45
7 -0.29
8 -0.3

>  <PUBCHEM_EFFECTIVE_ROTOR_COUNT>  (1) 
4

>  <PUBCHEM_PHARMACOPHORE_FEATURES>  (1) 
4
1 1 acceptor
1 5 hydrophobe
1 8 hydrophobe
4 2 3 4 7 hydrophobe

>  <PUBCHEM_HEAVY_ATOM_COUNT>  (1) 
8

>  <PUBCHEM_ATOM_DEF_STEREO_COUNT>  (1) 
0

>  <PUBCHEM_ATOM_UDEF_STEREO_COUNT>  (1) 
1

>  <PUBCHEM_BOND_DEF_STEREO_COUNT>  (1) 
0

>  <PUBCHEM_BOND_UDEF_STEREO_COUNT>  (1) 
0

>  <PUBCHEM_ISOTOPIC_ATOM_COUNT>  (1) 
0

>  <PUBCHEM_COMPONENT_COUNT>  (1) 
1

>  <PUBCHEM_CACTVS_TAUTO_COUNT>  (1) 
2

>  <PUBCHEM_CONFORMER_ID>  (1) 
0000531000000001

>  <PUBCHEM_MMFF94_ENERGY>  (1) 
6.2753

>  <PUBCHEM_FEATURE_SELFOVERLAP>  (1) 
20.307

>  <PUBCHEM_SHAPE_FINGERPRINT>  (1) 
12897270 3 9006187128971540219
14390081 3 17775010119516811969
170605 34 18059302057776020845
20653085 51 16914835874954386968
20653091 64 18339092479561852761
20711978 78 18338229345749093175
21040471 1 18195814191691565428
23552449 11 18337110051628474115
24536 1 17346317064260166399
29004967 10 17822016375960031637
5084963 1 18051112980945090868

>  <PUBCHEM_SHAPE_MULTIPOLES>  (1) 
158.77
3.33
1.54
0.97
1.5
0.28
-0.1
-1.32
0.83
-0.95
0.31
0.11
0.13
-0.15

>  <PUBCHEM_SHAPE_SELFOVERLAP>  (1) 
287.678

>  <PUBCHEM_SHAPE_VOLUME>  (1) 
101.1

>  <PUBCHEM_COORDINATE_TYPE>  (1) 
2
5
10

$$$$
