21276
     RDKit          3D

 12 12  0  0  0  0  0  0  0  0999 V2000
   -2.3442   -1.9000   -0.4542 O   0  0  0  0  0  0  0  0  0  0  0  0
   -3.1540   -0.1127    0.5301 O   0  0  0  0  0  0  0  0  0  0  0  0
    3.4554    0.6032   -0.0104 O   0  0  0  0  0  0  0  0  0  0  0  0
    2.8465   -1.5021    0.1182 O   0  0  0  0  0  0  0  0  0  0  0  0
   -0.6803    1.1918   -0.0792 N   0  0  0  0  0  0  0  0  0  0  0  0
    0.2120   -0.8375    0.0545 N   0  0  0  0  0  0  0  0  0  0  0  0
   -2.1788   -0.7419    0.0268 N   0  0  0  0  0  0  0  0  0  0  0  0
    2.5481   -0.2760    0.0383 N   0  0  0  0  0  0  0  0  0  0  0  0
   -0.9094   -0.1536    0.0028 C   0  0  0  0  0  0  0  0  0  0  0  0
    0.6735    1.3775   -0.0795 C   0  0  0  0  0  0  0  0  0  0  0  0
    1.2026    0.1111    0.0041 C   0  0  0  0  0  0  0  0  0  0  0  0
   -1.6713    2.2402   -0.1515 C   0  0  0  0  0  0  0  0  0  0  0  0
  1  7  1  0
  2  7  2  0
  3  8  1  0
  4  8  2  0
  5  9  1  0
  5 10  1  0
  5 12  1  0
  6  9  2  0
  6 11  1  0
  7  9  1  0
  8 11  1  0
 10 11  2  0
M  CHG  4   1  -1   3  -1   7   1   8   1
M  END
>  <PUBCHEM_COMPOUND_CID>  (1) 
21276

>  <PUBCHEM_CONFORMER_RMSD>  (1) 
0.6

>  <PUBCHEM_CONFORMER_DIVERSEORDER>  (1) 
1

>  <PUBCHEM_MMFF94_PARTIAL_CHARGES>  (1) 
13
1 -0.52
10 -0.3
11 0.31
12 0.26
13 0.15
2 -0.52
3 -0.52
4 -0.52
5 0.05
6 -0.57
7 0.96
8 0.96
9 0.27

>  <PUBCHEM_EFFECTIVE_ROTOR_COUNT>  (1) 
2

>  <PUBCHEM_PHARMACOPHORE_FEATURES>  (1) 
7
1 1 acceptor
1 2 acceptor
1 3 acceptor
1 3 anion
1 4 acceptor
4 5 6 7 9 cation
5 5 6 9 10 11 rings

>  <PUBCHEM_HEAVY_ATOM_COUNT>  (1) 
12

>  <PUBCHEM_ATOM_DEF_STEREO_COUNT>  (1) 
0

>  <PUBCHEM_ATOM_UDEF_STEREO_COUNT>  (1) 
0

>  <PUBCHEM_BOND_DEF_STEREO_COUNT>  (1) 
0

>  <PUBCHEM_BOND_UDEF_STEREO_COUNT>  (1) 
0

>  <PUBCHEM_ISOTOPIC_ATOM_COUNT>  (1) 
0

>  <PUBCHEM_COMPONENT_COUNT>  (1) 
1

>  <PUBCHEM_CACTVS_TAUTO_COUNT>  (1) 
1

>  <PUBCHEM_CONFORMER_ID>  (1) 
0000531C00000001

>  <PUBCHEM_MMFF94_ENERGY>  (1) 
24.0409

>  <PUBCHEM_FEATURE_SELFOVERLAP>  (1) 
35.684

>  <PUBCHEM_SHAPE_FINGERPRINT>  (1) 
10857977 72 18340756126601542064
12932764 1 17703779328263364116
14128692 85 18339364191898583900
14325111 11 18337110055960462032
16945 1 18411414037826111244
20871998 184 18272090478748652655
21040471 1 17977663117360435300
23552423 10 18187649051014036422
2748010 2 17978798904550603111
369184 2 18340767052993074584
6333449 129 18339077064908721277

>  <PUBCHEM_SHAPE_MULTIPOLES>  (1) 
203.55
4.57
1.9
0.59
1.88
0.37
0
-1.14
0.26
-0.96
-0.19
-0.11
0
-0.11

>  <PUBCHEM_SHAPE_SELFOVERLAP>  (1) 
424.59

>  <PUBCHEM_SHAPE_VOLUME>  (1) 
116.2

>  <PUBCHEM_COORDINATE_TYPE>  (1) 
2
5
10

$$$$
