21274
     RDKit          3D

  9  9  0  0  0  0  0  0  0  0999 V2000
   -2.6372   -0.7172   -0.0004 O   0  0  0  0  0  0  0  0  0  0  0  0
   -2.1278    1.4180    0.0004 O   0  0  0  0  0  0  0  0  0  0  0  0
    0.5923    0.8100   -0.0002 N   0  0  0  0  0  0  0  0  0  0  0  0
    0.0628   -1.3469    0.0000 N   0  0  0  0  0  0  0  0  0  0  0  0
   -1.7689    0.2041   -0.0001 N   0  0  0  0  0  0  0  0  0  0  0  0
    1.7794    0.1332   -0.0002 C   0  0  0  0  0  0  0  0  0  0  0  0
   -0.4098   -0.1202    0.0001 C   0  0  0  0  0  0  0  0  0  0  0  0
    1.4269   -1.1959    0.0004 C   0  0  0  0  0  0  0  0  0  0  0  0
    3.0823    0.8149   -0.0002 C   0  0  0  0  0  0  0  0  0  0  0  0
  1  5  1  0
  2  5  2  0
  3  6  1  0
  3  7  1  0
  4  7  2  0
  4  8  1  0
  5  7  1  0
  6  8  2  0
  6  9  1  0
M  CHG  2   1  -1   5   1
M  END
>  <PUBCHEM_COMPOUND_CID>  (1) 
21274

>  <PUBCHEM_CONFORMER_RMSD>  (1) 
0.4

>  <PUBCHEM_CONFORMER_DIVERSEORDER>  (1) 
1
2

>  <PUBCHEM_MMFF94_PARTIAL_CHARGES>  (1) 
11
1 -0.52
10 0.27
11 0.15
2 -0.52
3 0.03
4 -0.57
5 0.96
6 -0.33
7 0.27
8 0.08
9 0.18

>  <PUBCHEM_EFFECTIVE_ROTOR_COUNT>  (1) 
1

>  <PUBCHEM_PHARMACOPHORE_FEATURES>  (1) 
5
1 1 acceptor
1 2 acceptor
1 3 donor
4 3 4 5 7 cation
5 3 4 6 7 8 rings

>  <PUBCHEM_HEAVY_ATOM_COUNT>  (1) 
9

>  <PUBCHEM_ATOM_DEF_STEREO_COUNT>  (1) 
0

>  <PUBCHEM_ATOM_UDEF_STEREO_COUNT>  (1) 
0

>  <PUBCHEM_BOND_DEF_STEREO_COUNT>  (1) 
0

>  <PUBCHEM_BOND_UDEF_STEREO_COUNT>  (1) 
0

>  <PUBCHEM_ISOTOPIC_ATOM_COUNT>  (1) 
0

>  <PUBCHEM_COMPONENT_COUNT>  (1) 
1

>  <PUBCHEM_CACTVS_TAUTO_COUNT>  (1) 
2

>  <PUBCHEM_CONFORMER_ID>  (1) 
0000531A00000001

>  <PUBCHEM_MMFF94_ENERGY>  (1) 
10.697

>  <PUBCHEM_FEATURE_SELFOVERLAP>  (1) 
25.453

>  <PUBCHEM_SHAPE_FINGERPRINT>  (1) 
12897270 3 18412259553878286133
12932764 1 17346590885230699862
14325111 11 18410575089301009028
14390081 3 18341892991438747240
21040471 1 18410574006969276422
23402655 69 18269258081510014541
23552423 10 18263366897485521734
29004967 10 18186527583191514680
5084963 1 18272937162631148056
5460574 1 9295296036029913698

>  <PUBCHEM_SHAPE_MULTIPOLES>  (1) 
158.53
3.86
1.32
0.56
0.03
0.09
0
-0.99
0
0.06
0
-0.08
0.01
0

>  <PUBCHEM_SHAPE_SELFOVERLAP>  (1) 
327.182

>  <PUBCHEM_SHAPE_VOLUME>  (1) 
91.4

>  <PUBCHEM_COORDINATE_TYPE>  (1) 
2
5
10

$$$$
