21273
     RDKit          3D

 25 27  0  0  0  0  0  0  0  0999 V2000
   -1.6439    4.2533   -0.4058 Cl  0  0  0  0  0  0  0  0  0  0  0  0
    6.7776    1.4344    1.1713 Cl  0  0  0  0  0  0  0  0  0  0  0  0
    7.5374   -1.4793   -0.0122 Cl  0  0  0  0  0  0  0  0  0  0  0  0
   -1.6712   -1.6137   -0.0731 O   0  0  0  0  0  0  0  0  0  0  0  0
    0.7953   -1.4245   -0.9441 O   0  0  0  0  0  0  0  0  0  0  0  0
    1.9275    0.3898    0.0211 N   0  0  0  0  0  0  0  0  0  0  0  0
   -2.8684    0.4598   -0.0458 C   0  0  0  0  0  0  0  0  0  0  0  0
   -0.4671    0.4308   -0.3313 C   0  0  0  0  0  0  0  0  0  0  0  0
   -1.6707   -0.2503   -0.1492 C   0  0  0  0  0  0  0  0  0  0  0  0
   -4.1286   -0.2259    0.1423 C   0  0  0  0  0  0  0  0  0  0  0  0
   -2.8577    1.8537   -0.1253 C   0  0  0  0  0  0  0  0  0  0  0  0
   -0.4589    1.8234   -0.4103 C   0  0  0  0  0  0  0  0  0  0  0  0
    0.7937   -0.2905   -0.4415 C   0  0  0  0  0  0  0  0  0  0  0  0
   -1.6542    2.5348   -0.3073 C   0  0  0  0  0  0  0  0  0  0  0  0
   -4.8782   -0.6237   -0.9647 C   0  0  0  0  0  0  0  0  0  0  0  0
   -4.5936   -0.4893    1.4306 C   0  0  0  0  0  0  0  0  0  0  0  0
    3.2759   -0.0443    0.0199 C   0  0  0  0  0  0  0  0  0  0  0  0
   -6.0930   -1.2848   -0.7833 C   0  0  0  0  0  0  0  0  0  0  0  0
   -5.8083   -1.1506    1.6121 C   0  0  0  0  0  0  0  0  0  0  0  0
    4.2557    0.7907    0.5290 C   0  0  0  0  0  0  0  0  0  0  0  0
    3.5833   -1.2939   -0.4906 C   0  0  0  0  0  0  0  0  0  0  0  0
   -6.5580   -1.5483    0.5051 C   0  0  0  0  0  0  0  0  0  0  0  0
    5.5833    0.3630    0.5277 C   0  0  0  0  0  0  0  0  0  0  0  0
    4.9109   -1.7215   -0.4919 C   0  0  0  0  0  0  0  0  0  0  0  0
    5.9109   -0.8931    0.0173 C   0  0  0  0  0  0  0  0  0  0  0  0
  1 14  1  0
  2 23  1  0
  3 25  1  0
  4  9  1  0
  5 13  2  0
  6 13  1  0
  6 17  1  0
  7  9  2  0
  7 10  1  0
  7 11  1  0
  8  9  1  0
  8 12  2  0
  8 13  1  0
 10 15  2  0
 10 16  1  0
 11 14  2  0
 12 14  1  0
 15 18  1  0
 16 19  2  0
 17 20  2  0
 17 21  1  0
 18 22  2  0
 19 22  1  0
 20 23  1  0
 21 24  2  0
 23 25  2  0
 24 25  1  0
M  END
>  <PUBCHEM_COMPOUND_CID>  (1) 
21273

>  <PUBCHEM_CONFORMER_RMSD>  (1) 
0.8

>  <PUBCHEM_CONFORMER_DIVERSEORDER>  (1) 
5
9
3
11
8
10
1
7
4
12
6
2
13

>  <PUBCHEM_MMFF94_PARTIAL_CHARGES>  (1) 
35
1 -0.18
11 -0.15
12 -0.15
13 0.54
14 0.18
15 -0.15
16 -0.15
17 0.12
18 -0.15
19 -0.15
2 -0.18
20 -0.15
21 -0.15
22 -0.15
23 0.18
24 -0.15
25 0.18
26 0.15
27 0.15
28 0.15
29 0.15
3 -0.18
30 0.37
31 0.15
32 0.15
33 0.15
34 0.15
35 0.15
36 0.45
37 0.15
4 -0.53
5 -0.57
6 -0.55
8 0.09
9 0.08

>  <PUBCHEM_EFFECTIVE_ROTOR_COUNT>  (1) 
4

>  <PUBCHEM_PHARMACOPHORE_FEATURES>  (1) 
6
1 4 donor
1 5 acceptor
1 6 donor
6 10 15 16 18 19 22 rings
6 17 20 21 23 24 25 rings
6 7 8 9 11 12 14 rings

>  <PUBCHEM_HEAVY_ATOM_COUNT>  (1) 
25

>  <PUBCHEM_ATOM_DEF_STEREO_COUNT>  (1) 
0

>  <PUBCHEM_ATOM_UDEF_STEREO_COUNT>  (1) 
0

>  <PUBCHEM_BOND_DEF_STEREO_COUNT>  (1) 
0

>  <PUBCHEM_BOND_UDEF_STEREO_COUNT>  (1) 
0

>  <PUBCHEM_ISOTOPIC_ATOM_COUNT>  (1) 
0

>  <PUBCHEM_COMPONENT_COUNT>  (1) 
1

>  <PUBCHEM_CACTVS_TAUTO_COUNT>  (1) 
7

>  <PUBCHEM_CONFORMER_ID>  (1) 
0000531900000005

>  <PUBCHEM_MMFF94_ENERGY>  (1) 
83.5708

>  <PUBCHEM_FEATURE_SELFOVERLAP>  (1) 
30.446

>  <PUBCHEM_SHAPE_FINGERPRINT>  (1) 
10 15 18337382842941006976
10369192 42 16487256599312902308
10411042 1 18408887373861036373
11101153 10 18334021613872121700
11315181 36 17312829272624584303
12107183 9 17397536516650132178
12166972 35 18413110563526611056
12516196 113 18408603695101547859
12596602 18 17676201364920813888
12616971 3 14476666512973798192
12760667 363 18334579049186871235
12788726 201 18187077322105102427
12916748 109 18408885131787491360
13073987 5 18336540509512092386
13540713 4 17912654509542488654
13673619 4 18272371966747753048
13782708 43 18269559351848638902
13862211 1 18410294744154138871
14251764 18 17775003518167798258
14341114 176 18413108368866485184
14840074 17 18202562903995265831
14849402 71 17130702958523429992
15188451 53 17749104491768558522
15716309 27 18131070441680311291
16087824 20 18265050221132196405
17492 89 18266177215295051066
17844677 252 18411984625070421160
1813 80 18270698536162934381
18222031 100 16950286200366363566
18927931 339 18410016507540376727
19433438 28 18412542081639085400
19489759 90 17095521786411670039
21033648 29 17987779831928731952
21130935 74 18060139834128979326
21150785 3 15430042071276162550
21236236 1 18340769248112006257
21267235 1 18341335518380888286
2132832 1 17822301183821491029
21756936 100 13830123979999736901
21792934 111 18410291419965782137
21792961 116 18040711438618495247
2297311 6 18409736136080169044
23402539 116 18411698777600251423
23522609 53 18055947426288644568
23559900 14 17096655490485280893
23576562 1 11527647675865365547
23845131 108 17477782177944369377
2747138 104 18335148612952176346
283562 15 18335417912113424921
2838139 119 11386359349042630015
29717793 49 13045936894350339666
3004659 81 17530685437168613294
3009799 131 18113609089409402557
3383291 50 18041283256988923755
3663271 9 17489874838337573907
5104073 3 18268147565822078728
542803 24 15626223520162297402
5969126 39 18412255121936663477
59755656 215 18187081741416303914
636775 8 18041012742995565914

>  <PUBCHEM_SHAPE_MULTIPOLES>  (1) 
503.38
19.05
2.81
1.04
15.18
3.51
0.27
-10.26
4.43
-1.48
-0.41
-0.79
-0.17
1.59

>  <PUBCHEM_SHAPE_SELFOVERLAP>  (1) 
1080.295

>  <PUBCHEM_SHAPE_VOLUME>  (1) 
281.4

>  <PUBCHEM_COORDINATE_TYPE>  (1) 
2
5
10

$$$$
