21284
     RDKit          3D

 27 29  0  0  0  0  0  0  0  0999 V2000
    6.1180    0.2823    1.4674 O   0  0  0  0  0  0  0  0  0  0  0  0
   -1.8867    1.2694   -1.2040 O   0  0  0  0  0  0  0  0  0  0  0  0
   -2.8205   -0.8896   -0.9862 O   0  0  0  0  0  0  0  0  0  0  0  0
   -0.4272   -0.3807   -2.8219 O   0  0  0  0  0  0  0  0  0  0  0  0
    4.1844   -1.3556    0.1711 N   0  0  0  0  0  0  0  0  0  0  0  0
    0.0291   -1.7839   -1.0253 N   0  0  0  0  0  0  0  0  0  0  0  0
    2.8382   -1.9065    0.0299 C   0  0  0  0  0  0  0  0  0  0  0  0
    4.7709   -1.7357    1.4637 C   0  0  0  0  0  0  0  0  0  0  0  0
    4.1660    0.1076    0.0374 C   0  0  0  0  0  0  0  0  0  0  0  0
    2.4502   -1.9827   -1.4477 C   0  0  0  0  0  0  0  0  0  0  0  0
    6.1696   -1.1393    1.5936 C   0  0  0  0  0  0  0  0  0  0  0  0
    5.5792    0.6601    0.2000 C   0  0  0  0  0  0  0  0  0  0  0  0
    1.0565   -2.5694   -1.6526 C   0  0  0  0  0  0  0  0  0  0  0  0
   -0.6357   -0.7437   -1.6664 C   0  0  0  0  0  0  0  0  0  0  0  0
   -1.6626   -0.0656   -0.7667 C   0  0  0  0  0  0  0  0  0  0  0  0
   -1.1636    2.2759   -0.6215 C   0  0  0  0  0  0  0  0  0  0  0  0
   -3.6827   -1.0741    0.0614 C   0  0  0  0  0  0  0  0  0  0  0  0
    0.1202    2.0232   -0.1380 C   0  0  0  0  0  0  0  0  0  0  0  0
   -3.8312   -0.0780    1.0267 C   0  0  0  0  0  0  0  0  0  0  0  0
   -1.7112    3.5542   -0.5112 C   0  0  0  0  0  0  0  0  0  0  0  0
   -4.4125   -2.2585    0.1637 C   0  0  0  0  0  0  0  0  0  0  0  0
    0.8562    3.0484    0.4560 C   0  0  0  0  0  0  0  0  0  0  0  0
   -4.7091   -0.2664    2.0941 C   0  0  0  0  0  0  0  0  0  0  0  0
   -0.9750    4.5794    0.0827 C   0  0  0  0  0  0  0  0  0  0  0  0
   -5.2905   -2.4468    1.2312 C   0  0  0  0  0  0  0  0  0  0  0  0
    0.3087    4.3264    0.5663 C   0  0  0  0  0  0  0  0  0  0  0  0
   -5.4387   -1.4506    2.1963 C   0  0  0  0  0  0  0  0  0  0  0  0
  1 11  1  0
  1 12  1  0
  2 15  1  0
  2 16  1  0
  3 15  1  0
  3 17  1  0
  4 14  2  0
  5  7  1  0
  5  8  1  0
  5  9  1  0
  6 13  1  0
  6 14  1  0
  7 10  1  0
  8 11  1  0
  9 12  1  0
 10 13  1  0
 14 15  1  0
 16 18  2  0
 16 20  1  0
 17 19  2  0
 17 21  1  0
 18 22  1  0
 19 23  1  0
 20 24  2  0
 21 25  2  0
 22 26  2  0
 23 27  2  0
 24 26  1  0
 25 27  1  0
M  END
>  <PUBCHEM_COMPOUND_CID>  (1) 
21284

>  <PUBCHEM_CONFORMER_RMSD>  (1) 
1.2

>  <PUBCHEM_CONFORMER_DIVERSEORDER>  (1) 
1
71
45
44
89
51
56
76
75
85
54
55
91
33
46
22
23
5
26
42
93
60
43
83
66
63
28
27
18
73
62
90
57
61
3
48
94
40
36
82
10
79
47
74
87
17
84
15
7
12
52
13
77
8
49
69
72
96
78
29
14
39
21
53
88
19
6
4
25
38
9
95
81
37
86
30
68
80
41
70
35
32
65
34
20
11
31
2
16
50
92
58
59
64
67
24

>  <PUBCHEM_MMFF94_PARTIAL_CHARGES>  (1) 
37
1 -0.56
11 0.28
12 0.28
13 0.3
14 0.57
15 0.62
16 0.08
17 0.08
18 -0.15
19 -0.15
2 -0.36
20 -0.15
21 -0.15
22 -0.15
23 -0.15
24 -0.15
25 -0.15
26 -0.15
27 -0.15
3 -0.36
4 -0.57
42 0.37
44 0.15
45 0.15
46 0.15
47 0.15
48 0.15
49 0.15
5 -0.81
50 0.15
51 0.15
52 0.15
53 0.15
6 -0.73
7 0.27
8 0.27
9 0.27

>  <PUBCHEM_EFFECTIVE_ROTOR_COUNT>  (1) 
11.2

>  <PUBCHEM_PHARMACOPHORE_FEATURES>  (1) 
9
1 1 acceptor
1 2 acceptor
1 3 acceptor
1 4 acceptor
1 5 cation
1 6 donor
6 1 5 8 9 11 12 rings
6 16 18 20 22 24 26 rings
6 17 19 21 23 25 27 rings

>  <PUBCHEM_HEAVY_ATOM_COUNT>  (1) 
27

>  <PUBCHEM_ATOM_DEF_STEREO_COUNT>  (1) 
0

>  <PUBCHEM_ATOM_UDEF_STEREO_COUNT>  (1) 
0

>  <PUBCHEM_BOND_DEF_STEREO_COUNT>  (1) 
0

>  <PUBCHEM_BOND_UDEF_STEREO_COUNT>  (1) 
0

>  <PUBCHEM_ISOTOPIC_ATOM_COUNT>  (1) 
0

>  <PUBCHEM_COMPONENT_COUNT>  (1) 
1

>  <PUBCHEM_CACTVS_TAUTO_COUNT>  (1) 
2

>  <PUBCHEM_CONFORMER_ID>  (1) 
0000532400000001

>  <PUBCHEM_MMFF94_ENERGY>  (1) 
67.9918

>  <PUBCHEM_FEATURE_SELFOVERLAP>  (1) 
45.716

>  <PUBCHEM_SHAPE_FINGERPRINT>  (1) 
10074138 170 18119537527115388337
105312 117 10879989164158266107
12422481 6 18060146405212001960
12633257 1 18337960098513021771
12788726 201 18261974958814507774
14363568 33 18268141153304744720
14765038 42 17773874384657250856
14784336 7 16621500603985804863
14840074 17 18272372027003804616
14950920 106 17970051259145226906
15880784 105 16370722596337890438
17980427 23 17704081694499027407
19315092 285 17386010593679990990
20642791 268 17917448531259889423
21049683 118 17323241411870402297
21344244 78 18057912258679235547
21796203 349 18268163113641152680
2838139 119 12463301275464405730
3187 122 18335700481985309212
3380486 145 18342451522424521335
376196 1 17046812063548819917
392239 28 18334296465644888122
469060 322 18129646582443432758
5309563 4 18338794619105683112
56638632 33 17896319301554149074
6004065 56 18411136983320853183
9981440 41 17695599893312585135

>  <PUBCHEM_SHAPE_MULTIPOLES>  (1) 
522.21
12.8
4.95
2
9.41
7.43
-0.2
-10.74
10.68
-1.67
0.02
-0.55
-1.18
1.11

>  <PUBCHEM_SHAPE_SELFOVERLAP>  (1) 
1089.434

>  <PUBCHEM_SHAPE_VOLUME>  (1) 
293.4

>  <PUBCHEM_COORDINATE_TYPE>  (1) 
2
5
10

$$$$
