21282
     RDKit          3D

 16 18  0  0  0  0  0  0  0  0999 V2000
   -0.3083   -2.5420   -0.1197 O   0  0  0  0  0  0  0  0  0  0  0  0
   -0.2262    1.4923   -0.2538 N   0  0  0  0  0  0  0  0  0  0  0  0
    4.0529    0.2090    0.4783 C   0  0  0  0  0  0  0  0  0  0  0  0
    3.2057    1.4781    0.5585 C   0  0  0  0  0  0  0  0  0  0  0  0
    3.2770   -1.0991    0.6236 C   0  0  0  0  0  0  0  0  0  0  0  0
    2.1974    1.6247   -0.5826 C   0  0  0  0  0  0  0  0  0  0  0  0
    2.2783   -1.3572   -0.5057 C   0  0  0  0  0  0  0  0  0  0  0  0
    0.9506    0.7876   -0.3949 C   0  0  0  0  0  0  0  0  0  0  0  0
    1.0073   -0.5615   -0.3644 C   0  0  0  0  0  0  0  0  0  0  0  0
   -0.2770   -1.3178   -0.1642 C   0  0  0  0  0  0  0  0  0  0  0  0
   -1.4597    0.8638   -0.0661 C   0  0  0  0  0  0  0  0  0  0  0  0
   -1.5288   -0.5348   -0.0166 C   0  0  0  0  0  0  0  0  0  0  0  0
   -2.6366    1.6074    0.0726 C   0  0  0  0  0  0  0  0  0  0  0  0
   -2.7535   -1.1835    0.1697 C   0  0  0  0  0  0  0  0  0  0  0  0
   -3.8607    0.9627    0.2585 C   0  0  0  0  0  0  0  0  0  0  0  0
   -3.9184   -0.4296    0.3069 C   0  0  0  0  0  0  0  0  0  0  0  0
  1 10  2  0
  2  8  1  0
  2 11  1  0
  3  4  1  0
  3  5  1  0
  4  6  1  0
  5  7  1  0
  6  8  1  0
  7  9  1  0
  8  9  2  0
  9 10  1  0
 10 12  1  0
 11 12  2  0
 11 13  1  0
 12 14  1  0
 13 15  2  0
 14 16  2  0
 15 16  1  0
M  END
>  <PUBCHEM_COMPOUND_CID>  (1) 
21282

>  <PUBCHEM_CONFORMER_RMSD>  (1) 
0.6

>  <PUBCHEM_CONFORMER_DIVERSEORDER>  (1) 
1
2

>  <PUBCHEM_MMFF94_PARTIAL_CHARGES>  (1) 
18
1 -0.57
10 0.47
11 0.1
12 0.09
13 -0.15
14 -0.15
15 -0.15
16 -0.15
2 -0.6
27 0.4
28 0.15
29 0.15
30 0.15
31 0.15
6 0.14
7 0.14
8 -0.04
9 -0.12

>  <PUBCHEM_EFFECTIVE_ROTOR_COUNT>  (1) 
1

>  <PUBCHEM_PHARMACOPHORE_FEATURES>  (1) 
6
1 1 acceptor
1 2 cation
1 2 donor
6 11 12 13 14 15 16 rings
6 2 8 9 10 11 12 rings
7 3 4 5 6 7 8 9 rings

>  <PUBCHEM_HEAVY_ATOM_COUNT>  (1) 
16

>  <PUBCHEM_ATOM_DEF_STEREO_COUNT>  (1) 
0

>  <PUBCHEM_ATOM_UDEF_STEREO_COUNT>  (1) 
0

>  <PUBCHEM_BOND_DEF_STEREO_COUNT>  (1) 
0

>  <PUBCHEM_BOND_UDEF_STEREO_COUNT>  (1) 
0

>  <PUBCHEM_ISOTOPIC_ATOM_COUNT>  (1) 
0

>  <PUBCHEM_COMPONENT_COUNT>  (1) 
1

>  <PUBCHEM_CACTVS_TAUTO_COUNT>  (1) 
12

>  <PUBCHEM_CONFORMER_ID>  (1) 
0000532200000001

>  <PUBCHEM_MMFF94_ENERGY>  (1) 
40.5689

>  <PUBCHEM_FEATURE_SELFOVERLAP>  (1) 
30.477

>  <PUBCHEM_SHAPE_FINGERPRINT>  (1) 
10411042 1 15744162249170304731
10608611 8 18411698751340278733
10967382 1 18410576171295099143
11132069 177 18409730638585203561
12251169 10 18409162242771532536
12382932 28 18412546530629072656
13140716 1 18338240370982798521
13380535 76 18413108389523767662
13581323 91 18333729130571704372
13922767 16 18412260601655205376
14144814 61 18409730672712930840
14325111 11 18410857663599605837
15196674 1 18410575084663085432
15219456 202 18341613693899465029
15442244 35 18337953381352423658
15536298 74 18343023272343879774
15775835 57 18273216429926103248
16945 1 18194407920429886933
17804303 29 18338520725168275526
1813 80 17023181562483631254
18186145 218 18201449029659052805
200 152 18201144512974051277
20510252 161 18272936011622403385
20528008 55 18341608230727503217
20645476 183 17679322985268026398
21267235 1 18409457993771427962
21501502 16 18338797926256718918
21501925 9 18335417980268314573
21524375 3 18342738533134229231
23184049 59 18408602552371195766
2334 1 18410299137499331861
23402539 116 18342447179843234999
23463225 33 18334858324607725780
23559900 14 18270964527592645014
2748010 2 18410019809985027485
335352 9 18050006593137730805
474 4 16880207864766594692
5104073 3 18410294700681980393
53812653 166 18272368697971594640
58807428 26 18336823113221430274
69090 78 18341889710231341743
7364860 26 18199472056271096710
84936 31 16629120945099417166
9709674 26 18411987982890944886

>  <PUBCHEM_SHAPE_MULTIPOLES>  (1) 
318.42
6.99
2.09
0.74
0.47
0.32
0.01
-1.02
1.53
-0.21
-0.1
-0.27
-0.03
0

>  <PUBCHEM_SHAPE_SELFOVERLAP>  (1) 
692.189

>  <PUBCHEM_SHAPE_VOLUME>  (1) 
171

>  <PUBCHEM_COORDINATE_TYPE>  (1) 
2
5
10

$$$$
