21286
     RDKit          3D

 13 13  0  0  1  0  0  0  0  0999 V2000
    0.2196   -2.4061   -0.4941 Cl  0  0  0  0  0  0  0  0  0  0  0  0
   -1.4046    0.8499   -0.5024 N   0  0  0  0  0  0  0  0  0  0  0  0
   -0.6878    0.3081    0.6516 C   0  0  0  0  0  0  0  0  0  0  0  0
    0.7767    0.1166    0.3737 C   0  0  0  0  0  0  0  0  0  0  0  0
   -2.8327    0.9646   -0.2094 C   0  0  0  0  0  0  0  0  0  0  0  0
   -0.8543    2.1508   -0.8811 C   0  0  0  0  0  0  0  0  0  0  0  0
    1.2650   -1.0784   -0.1434 C   0  0  0  0  0  0  0  0  0  0  0  0
    1.6383    1.1734    0.6487 C   0  0  0  0  0  0  0  0  0  0  0  0
    2.6310   -1.2185   -0.3885 C   0  0  0  0  0  0  0  0  0  0  0  0
    3.0044    1.0331    0.4036 C   0  0  0  0  0  0  0  0  0  0  0  0
    3.5007   -0.1627   -0.1150 C   0  0  0  0  0  0  0  0  0  0  0  0
   -3.3953   -0.3347    0.1717 C   0  0  0  0  0  0  0  0  0  0  0  0
   -3.8611   -1.3961    0.4847 C   0  0  0  0  0  0  0  0  0  0  0  0
  1  7  1  0
  2  3  1  0
  2  5  1  0
  2  6  1  0
  3  4  1  0
  4  7  2  0
  4  8  1  0
  5 12  1  0
  7  9  1  0
  8 10  2  0
  9 11  2  0
 10 11  1  0
 12 13  3  0
M  END
>  <PUBCHEM_COMPOUND_CID>  (1) 
21286

>  <PUBCHEM_CONFORMER_RMSD>  (1) 
0.6

>  <PUBCHEM_CONFORMER_DIVERSEORDER>  (1) 
4
22
3
16
19
25
2
23
20
6
26
9
17
5
7
12
15
14
21
1
18
24
10
8
13
11

>  <PUBCHEM_MMFF94_PARTIAL_CHARGES>  (1) 
18
1 -0.18
10 -0.15
11 -0.15
12 -0.2
13 -0.18
2 -0.81
21 0.15
22 0.15
23 0.15
24 0.15
25 0.18
3 0.41
4 -0.14
5 0.47
6 0.27
7 0.18
8 -0.15
9 -0.15

>  <PUBCHEM_EFFECTIVE_ROTOR_COUNT>  (1) 
3

>  <PUBCHEM_PHARMACOPHORE_FEATURES>  (1) 
3
1 13 hydrophobe
1 2 cation
6 4 7 8 9 10 11 rings

>  <PUBCHEM_HEAVY_ATOM_COUNT>  (1) 
13

>  <PUBCHEM_ATOM_DEF_STEREO_COUNT>  (1) 
0

>  <PUBCHEM_ATOM_UDEF_STEREO_COUNT>  (1) 
0

>  <PUBCHEM_BOND_DEF_STEREO_COUNT>  (1) 
0

>  <PUBCHEM_BOND_UDEF_STEREO_COUNT>  (1) 
0

>  <PUBCHEM_ISOTOPIC_ATOM_COUNT>  (1) 
0

>  <PUBCHEM_COMPONENT_COUNT>  (1) 
1

>  <PUBCHEM_CACTVS_TAUTO_COUNT>  (1) 
1

>  <PUBCHEM_CONFORMER_ID>  (1) 
0000532600000004

>  <PUBCHEM_MMFF94_ENERGY>  (1) 
35.3796

>  <PUBCHEM_FEATURE_SELFOVERLAP>  (1) 
15.223

>  <PUBCHEM_SHAPE_FINGERPRINT>  (1) 
10608611 8 18410568449065668377
11132069 177 18271798068584966947
12032990 46 18410296912521506706
12715332 25 17847059982750997838
12897270 3 18337105657644854229
12932764 1 17896039836680070985
13380535 21 18123194502420014773
14251717 144 18342173405806345199
14325111 11 18412543206208360432
15219456 202 18411417289316736457
15375358 24 18334850602899858997
15375462 6 18334575724470857454
15501101 241 18412829118055281353
15775835 57 18272369780297851126
16945 1 18130493202307132836
17834074 16 18413390921299783827
17844478 74 18410293601265414141
18175812 5 18409165498129980669
18186145 218 18202006499397747768
20201158 50 18339923710505633411
20645477 70 17987790809564031479
20871999 31 17967808341449854005
21501502 16 18191586341654223753
21730867 7 18412544288598004834
221490 88 18339651035890915262
22213442 358 18261957448507051061
23402539 116 17822284674151177444
23532345 42 18188208813706111256
23557571 272 18041278777411373189
25610 137 18343305876786511929
2748010 2 18339630166459882996
2871803 45 18408598167663657031
581208 293 18343014531890208065
81228 2 17693348437339051730
8809292 202 18262806146623927955

>  <PUBCHEM_SHAPE_MULTIPOLES>  (1) 
264.42
6.08
2.15
0.84
2.58
0.44
-0.02
0.88
0.58
0.24
-0.48
0.05
-0.13
0.74

>  <PUBCHEM_SHAPE_SELFOVERLAP>  (1) 
528.94

>  <PUBCHEM_SHAPE_VOLUME>  (1) 
155.5

>  <PUBCHEM_COORDINATE_TYPE>  (1) 
2
5
10

$$$$
