2129
     RDKit          3D

 28 29  0  0  1  0  0  0  0  0999 V2000
    0.9988    3.1163   -1.5254 Cl  0  0  0  0  0  0  0  0  0  0  0  0
    1.4100    2.7003    1.6576 Cl  0  0  0  0  0  0  0  0  0  0  0  0
    5.3160   -0.0432   -0.3431 S   0  0  0  0  0  0  0  0  0  0  0  0
   -2.8270   -3.9435   -0.1025 O   0  0  0  0  0  0  0  0  0  0  0  0
   -1.0947   -1.5124   -0.1722 O   0  0  0  0  0  0  0  0  0  0  0  0
    6.7348   -0.3467   -0.3691 O   0  0  0  0  0  0  0  0  0  0  0  0
    4.6570    0.4991   -1.5146 O   0  0  0  0  0  0  0  0  0  0  0  0
   -4.1075   -0.4701   -0.1829 N   0  0  0  0  0  0  0  0  0  0  0  0
    4.4752   -1.4229    0.2531 N   0  0  0  0  0  0  0  0  0  0  0  0
   -3.8079   -1.8207   -0.6389 C   0  0  0  0  0  0  0  0  0  0  0  0
   -4.2023    0.4499   -1.3182 C   0  0  0  0  0  0  0  0  0  0  0  0
   -3.1160   -2.6531    0.4431 C   0  0  0  0  0  0  0  0  0  0  0  0
   -4.0014    1.8976   -0.8684 C   0  0  0  0  0  0  0  0  0  0  0  0
   -1.8128   -2.0331    0.9422 C   0  0  0  0  0  0  0  0  0  0  0  0
   -5.3510   -0.4496    0.5905 C   0  0  0  0  0  0  0  0  0  0  0  0
   -2.6406    2.1016   -0.2515 C   0  0  0  0  0  0  0  0  0  0  0  0
   -1.5597    2.4708   -1.0520 C   0  0  0  0  0  0  0  0  0  0  0  0
   -2.4630    1.9214    1.1203 C   0  0  0  0  0  0  0  0  0  0  0  0
    0.2704   -1.4894   -0.0682 C   0  0  0  0  0  0  0  0  0  0  0  0
   -0.3012    2.6602   -0.4810 C   0  0  0  0  0  0  0  0  0  0  0  0
   -1.2045    2.1105    1.6913 C   0  0  0  0  0  0  0  0  0  0  0  0
    0.8722   -1.3437    1.1816 C   0  0  0  0  0  0  0  0  0  0  0  0
    1.0592   -1.6126   -1.2121 C   0  0  0  0  0  0  0  0  0  0  0  0
    3.0518   -1.4447    0.1440 C   0  0  0  0  0  0  0  0  0  0  0  0
   -0.1236    2.4800    0.8908 C   0  0  0  0  0  0  0  0  0  0  0  0
    2.2629   -1.3216    1.2878 C   0  0  0  0  0  0  0  0  0  0  0  0
    2.4499   -1.5900   -1.1059 C   0  0  0  0  0  0  0  0  0  0  0  0
    5.0552    1.0897    1.0034 C   0  0  0  0  0  0  0  0  0  0  0  0
  1 20  1  0
  2 25  1  0
  3  6  2  0
  3  7  2  0
  3  9  1  0
  3 28  1  0
  4 12  1  0
  5 14  1  0
  5 19  1  0
  8 10  1  0
  8 11  1  0
  8 15  1  0
  9 24  1  0
 10 12  1  0
 11 13  1  0
 12 14  1  0
 13 16  1  0
 16 17  2  0
 16 18  1  0
 17 20  1  0
 18 21  2  0
 19 22  2  0
 19 23  1  0
 20 25  2  0
 21 25  1  0
 22 26  1  0
 23 27  2  0
 24 26  2  0
 24 27  1  0
M  END
>  <PUBCHEM_COMPOUND_CID>  (1) 
2129

>  <PUBCHEM_CONFORMER_RMSD>  (1) 
1.2

>  <PUBCHEM_CONFORMER_DIVERSEORDER>  (1) 
2
198
15
102
106
71
257
119
277
148
251
166
19
197
70
253
256
310
107
332
46
341
170
296
210
137
316
225
32
75
285
67
271
178
283
69
365
49
299
233
175
246
65
292
314
50
340
339
306
73
31
312
273
278
136
55
252
319
127
245
221
160
86
223
157
333
115
184
103
63
259
163
349
44
95
268
300
357
265
64
93
84
249
40
21
270
331
122
150
161
222
354
298
42
153
82
244
308
275
231
255
51
156
26
83
169
99
140
1
164
3
98
81
112
262
177
47
326
189
56
229
338
143
22
52
114
159
290
79
281
321
17
11
247
113
27
30
124
276
196
16
274
363
8
269
217
120
191
322
260
34
248
121
263
230
7
317
154
158
329
43
72
41
351
330
313
28
6
38
131
267
302
337
139
174
36
89
77
239
20
138
240
232
359
144
241
199
168
80
214
226
135
181
219
108
48
324
53
194
358
227
282
149
279
141
23
111
74
39
307
295
224
109
346
91
123
61
303
105
204
291
29
236
87
347
320
57
242
185
54
173
293
76
188
132
35
264
294
126
254
304
200
211
101
68
309
218
209
287
215
234
97
201
129
212
327
250
147
146
10
176
328
33
37
14
187
94
235
195
18
180
216
192
134
59
4
45
355
62
207
272
110
125
58
171
297
258
24
208
151
25
352
104
289
85
142
220
343
88
60
145
238
165
66
342
206
305
190
228
193
128
90
243
301
92
266
280
315
261
117
350
167
133
311
186
172
5
96
13
118
335
364
288
334
182
183
237
361
345
12
202
353
100
155
130
318
78
284
344
179
162
356
203
205
116
9
286
213
152
323
336
325
360
348
362

>  <PUBCHEM_MMFF94_PARTIAL_CHARGES>  (1) 
37
1 -0.18
10 0.27
11 0.27
12 0.28
13 0.14
14 0.28
15 0.27
16 -0.14
17 -0.15
18 -0.15
19 0.08
2 -0.18
20 0.18
21 -0.15
22 -0.15
23 -0.15
24 0.2
25 0.18
26 -0.15
27 -0.15
28 0.11
3 1.33
4 -0.68
41 0.4
42 0.15
43 0.15
44 0.15
45 0.15
46 0.15
47 0.15
48 0.15
49 0.42
5 -0.36
6 -0.65
7 -0.65
8 -0.81
9 -0.76

>  <PUBCHEM_EFFECTIVE_ROTOR_COUNT>  (1) 
10

>  <PUBCHEM_PHARMACOPHORE_FEATURES>  (1) 
9
1 4 acceptor
1 4 donor
1 5 acceptor
1 6 acceptor
1 7 acceptor
1 8 cation
1 9 donor
6 16 17 18 20 21 25 rings
6 19 22 23 24 26 27 rings

>  <PUBCHEM_HEAVY_ATOM_COUNT>  (1) 
28

>  <PUBCHEM_ATOM_DEF_STEREO_COUNT>  (1) 
0

>  <PUBCHEM_ATOM_UDEF_STEREO_COUNT>  (1) 
1

>  <PUBCHEM_BOND_DEF_STEREO_COUNT>  (1) 
0

>  <PUBCHEM_BOND_UDEF_STEREO_COUNT>  (1) 
0

>  <PUBCHEM_ISOTOPIC_ATOM_COUNT>  (1) 
0

>  <PUBCHEM_COMPONENT_COUNT>  (1) 
1

>  <PUBCHEM_CACTVS_TAUTO_COUNT>  (1) 
1

>  <PUBCHEM_CONFORMER_ID>  (1) 
0000085100000002

>  <PUBCHEM_MMFF94_ENERGY>  (1) 
74.7473

>  <PUBCHEM_FEATURE_SELFOVERLAP>  (1) 
45.69

>  <PUBCHEM_SHAPE_FINGERPRINT>  (1) 
10290309 65 18336828576847669903
10498660 4 18265051332050521908
11112241 14 16842728789818644416
11135609 12 18188496899249589609
12156800 1 16591636536582735172
12422481 6 18267883837492187665
12788726 201 18270396079732652723
13140716 1 18339926038842391619
13402501 40 18341608222148176641
14251757 5 18410292523255425427
14363568 33 17907306802997318609
14787075 74 18269546165665803468
14790565 3 17837496254477206289
14840074 17 18189629241291215341
15297060 5 18129948866683937554
17357779 13 18273206504420257987
17492 54 18189603974209187485
18336668 15 18040720276748697685
20101258 96 18119255214515144507
20775530 9 18266731575456123339
20905425 154 18123753316641404391
21623110 236 18413112740426209680
23557571 272 18343588417263278118
23559900 14 18268982245240203505
3052486 1 18187638133286363144
3493558 16 17462297042603489702
463206 1 18334304183606407189
469060 322 17896342267414031939

>  <PUBCHEM_SHAPE_MULTIPOLES>  (1) 
550.38
10.85
4.25
1.54
9.99
0.36
0.1
-2.62
-1.59
-2.66
0.08
0.27
0.77
0.48

>  <PUBCHEM_SHAPE_SELFOVERLAP>  (1) 
1108.11

>  <PUBCHEM_SHAPE_VOLUME>  (1) 
326.8

>  <PUBCHEM_COORDINATE_TYPE>  (1) 
2
5
10

$$$$
