21308
     RDKit          3D

  9 10  0  0  1  0  0  0  0  0999 V2000
   -3.0577   -0.2909   -0.3090 O   0  0  0  0  0  0  0  0  0  0  0  0
    0.4293    1.0555    0.2579 C   0  0  0  0  0  0  0  0  0  0  0  0
    1.1115   -1.0605    0.3889 C   0  0  0  0  0  0  0  0  0  0  0  0
   -0.7390    0.2780   -0.3944 C   0  0  0  0  0  0  0  0  0  0  0  0
    0.9006    0.1015    1.3575 C   0  0  0  0  0  0  0  0  0  0  0  0
   -0.2822   -1.1900   -0.2524 C   0  0  0  0  0  0  0  0  0  0  0  0
    1.6310    1.0183   -0.7049 C   0  0  0  0  0  0  0  0  0  0  0  0
    2.0832   -0.4480   -0.6339 C   0  0  0  0  0  0  0  0  0  0  0  0
   -2.0767    0.5361    0.2903 C   0  0  0  0  0  0  0  0  0  0  0  0
  1  9  1  0
  2  4  1  0
  2  5  1  0
  2  7  1  0
  3  5  1  0
  3  6  1  0
  3  8  1  0
  4  6  1  0
  4  9  1  0
  7  8  1  0
M  END
>  <PUBCHEM_COMPOUND_CID>  (1) 
21308

>  <PUBCHEM_CONFORMER_RMSD>  (1) 
0.4

>  <PUBCHEM_CONFORMER_DIVERSEORDER>  (1) 
1
7
6
3
2
5
4

>  <PUBCHEM_MMFF94_PARTIAL_CHARGES>  (1) 
3
1 -0.68
23 0.4
9 0.28

>  <PUBCHEM_EFFECTIVE_ROTOR_COUNT>  (1) 
2

>  <PUBCHEM_PHARMACOPHORE_FEATURES>  (1) 
3
1 1 acceptor
1 1 donor
7 2 3 4 5 6 7 8 rings

>  <PUBCHEM_HEAVY_ATOM_COUNT>  (1) 
9

>  <PUBCHEM_ATOM_DEF_STEREO_COUNT>  (1) 
0

>  <PUBCHEM_ATOM_UDEF_STEREO_COUNT>  (1) 
3

>  <PUBCHEM_BOND_DEF_STEREO_COUNT>  (1) 
0

>  <PUBCHEM_BOND_UDEF_STEREO_COUNT>  (1) 
0

>  <PUBCHEM_ISOTOPIC_ATOM_COUNT>  (1) 
0

>  <PUBCHEM_COMPONENT_COUNT>  (1) 
1

>  <PUBCHEM_CACTVS_TAUTO_COUNT>  (1) 
1

>  <PUBCHEM_CONFORMER_ID>  (1) 
0000533C00000001

>  <PUBCHEM_MMFF94_ENERGY>  (1) 
28.1919

>  <PUBCHEM_FEATURE_SELFOVERLAP>  (1) 
15.223

>  <PUBCHEM_SHAPE_FINGERPRINT>  (1) 
12423570 1 12595497577449271976
12897270 3 18114186336797314101
137420 1 10886820451603217626
14128692 85 18199194992352178734
16945 1 18041293092378802954
21040471 1 18340482373743875298
23552423 10 18193283991934365999
29004967 10 18114750326000919744
5084963 1 18343864394454684521
68250623 7 17679308722019272226

>  <PUBCHEM_SHAPE_MULTIPOLES>  (1) 
179.35
2.99
1.22
0.99
2.23
0.06
0.23
0.03
-0.52
-0.28
-0.06
-0.31
-0.04
-0.16

>  <PUBCHEM_SHAPE_SELFOVERLAP>  (1) 
374.493

>  <PUBCHEM_SHAPE_VOLUME>  (1) 
108.1

>  <PUBCHEM_COORDINATE_TYPE>  (1) 
2
5
10

$$$$
