21307
     RDKit          3D

 16 17  0  0  0  0  0  0  0  0999 V2000
   -2.3369    1.6023    0.7960 S   0  0  0  0  0  0  0  0  0  0  0  0
   -3.7201   -0.7224   -0.7880 O   0  0  0  0  0  0  0  0  0  0  0  0
   -0.0630   -0.6780    1.8020 O   0  0  0  0  0  0  0  0  0  0  0  0
    0.5740    0.2577   -0.2631 N   0  0  0  0  0  0  0  0  0  0  0  0
   -4.0929    1.3344    0.4611 C   0  0  0  0  0  0  0  0  0  0  0  0
   -4.2143    0.6145   -0.8656 C   0  0  0  0  0  0  0  0  0  0  0  0
   -1.7143    0.0591    0.3226 C   0  0  0  0  0  0  0  0  0  0  0  0
   -2.4166   -0.8774   -0.3485 C   0  0  0  0  0  0  0  0  0  0  0  0
   -0.3145   -0.1667    0.7137 C   0  0  0  0  0  0  0  0  0  0  0  0
   -1.8859   -2.2439   -0.6849 C   0  0  0  0  0  0  0  0  0  0  0  0
    1.9885    0.1960   -0.2268 C   0  0  0  0  0  0  0  0  0  0  0  0
    2.7144    0.6730   -1.3048 C   0  0  0  0  0  0  0  0  0  0  0  0
    2.6136   -0.3392    0.8865 C   0  0  0  0  0  0  0  0  0  0  0  0
    4.1076    0.6130   -1.2685 C   0  0  0  0  0  0  0  0  0  0  0  0
    4.0067   -0.3992    0.9230 C   0  0  0  0  0  0  0  0  0  0  0  0
    4.7536    0.0769   -0.1547 C   0  0  0  0  0  0  0  0  0  0  0  0
  1  5  1  0
  1  7  1  0
  2  6  1  0
  2  8  1  0
  3  9  2  0
  4  9  1  0
  4 11  1  0
  5  6  1  0
  7  8  2  0
  7  9  1  0
  8 10  1  0
 11 12  2  0
 11 13  1  0
 12 14  1  0
 13 15  2  0
 14 16  2  0
 15 16  1  0
M  END
>  <PUBCHEM_COMPOUND_CID>  (1) 
21307

>  <PUBCHEM_CONFORMER_RMSD>  (1) 
0.6

>  <PUBCHEM_CONFORMER_DIVERSEORDER>  (1) 
2
7
8
5
3
6
4
1

>  <PUBCHEM_MMFF94_PARTIAL_CHARGES>  (1) 
22
1 -0.33
10 0.14
11 0.12
12 -0.15
13 -0.15
14 -0.15
15 -0.15
16 -0.15
2 -0.36
24 0.37
25 0.15
26 0.15
27 0.15
28 0.15
29 0.15
3 -0.57
4 -0.55
5 0.23
6 0.28
7 0.12
8 -0.06
9 0.62

>  <PUBCHEM_EFFECTIVE_ROTOR_COUNT>  (1) 
3.8

>  <PUBCHEM_PHARMACOPHORE_FEATURES>  (1) 
5
1 2 acceptor
1 3 acceptor
1 4 donor
6 1 2 5 6 7 8 rings
6 11 12 13 14 15 16 rings

>  <PUBCHEM_HEAVY_ATOM_COUNT>  (1) 
16

>  <PUBCHEM_ATOM_DEF_STEREO_COUNT>  (1) 
0

>  <PUBCHEM_ATOM_UDEF_STEREO_COUNT>  (1) 
0

>  <PUBCHEM_BOND_DEF_STEREO_COUNT>  (1) 
0

>  <PUBCHEM_BOND_UDEF_STEREO_COUNT>  (1) 
0

>  <PUBCHEM_ISOTOPIC_ATOM_COUNT>  (1) 
0

>  <PUBCHEM_COMPONENT_COUNT>  (1) 
1

>  <PUBCHEM_CACTVS_TAUTO_COUNT>  (1) 
2

>  <PUBCHEM_CONFORMER_ID>  (1) 
0000533B00000002

>  <PUBCHEM_MMFF94_ENERGY>  (1) 
47.1787

>  <PUBCHEM_FEATURE_SELFOVERLAP>  (1) 
25.372

>  <PUBCHEM_SHAPE_FINGERPRINT>  (1) 
10062212 137 18260258668271234658
11471102 20 16950562177811347632
11543360 7 18201163260253155284
12236239 1 18187643587841931801
12500047 106 18131067125875829686
13214271 11 15574713591224625055
13296908 3 15985108504808863840
14004511 7 17894912927498066196
14386348 63 16415480467102525822
14943859 89 17821729433664045969
15309172 13 16298107583588925611
15375358 24 16917064469017255574
17834072 14 17346596391558336048
17870717 6 17560814228922933605
18186145 218 16950563285649243970
19489759 90 17846776282732761912
200 152 18259981591340638604
20112054 13 16081370747688783765
20279233 1 16845293847598534326
20645476 183 18334288786602097575
20645477 56 18201726128270044673
20645477 70 16515675620684646706
20871999 31 17917996070453960233
21486144 27 16153710972313382238
22485316 2 14620793795070949829
22854114 59 15213022643681095377
23402539 116 18130780136345850717
23402655 69 18040999557497941788
23557571 272 17561081393316923568
23559900 14 17704073976158011766
26918003 58 15697999622027788758
2838139 119 17097191876171699957
2871803 45 15482677849155654436
3082319 5 18260830431650196606
3268164 11 17988353789561676637
4175511 318 18409726253571320333
474 4 17748829600691856570
5104073 3 16660649613262675672
5283173 99 16271370686454014241
573450 72 18412535501179560266
633830 44 17458345199859768034
77492 1 18187639193900451603
9709674 26 17632582647171352534
9971528 1 18113615669468195724

>  <PUBCHEM_SHAPE_MULTIPOLES>  (1) 
316.4
9.53
1.45
1.3
3.39
0.46
-0.08
-1.52
2.07
-1.92
0.03
0.8
-0.05
-0.64

>  <PUBCHEM_SHAPE_SELFOVERLAP>  (1) 
653.685

>  <PUBCHEM_SHAPE_VOLUME>  (1) 
181.4

>  <PUBCHEM_COORDINATE_TYPE>  (1) 
2
5
10

$$$$
