21312
     RDKit          3D

 15 15  0  0  0  0  0  0  0  0999 V2000
    1.2993    1.2006    0.0005 O   0  0  0  0  0  0  0  0  0  0  0  0
   -2.3644   -1.6759   -0.0062 N   0  0  0  0  0  0  0  0  0  0  0  0
   -0.4951   -0.2600   -0.0027 N   0  0  0  0  0  0  0  0  0  0  0  0
   -0.8253    2.1166    0.0009 N   0  0  0  0  0  0  0  0  0  0  0  0
   -2.7185    0.6422   -0.0030 N   0  0  0  0  0  0  0  0  0  0  0  0
    3.5727    0.4494    0.0209 C   0  0  0  0  0  0  0  0  0  0  0  0
    4.5031   -0.7602    0.0048 C   0  0  0  0  0  0  0  0  0  0  0  0
    2.1089    0.0329   -0.0006 C   0  0  0  0  0  0  0  0  0  0  0  0
    5.9638   -0.3392   -0.0172 C   0  0  0  0  0  0  0  0  0  0  0  0
   -0.0584    1.0118   -0.0001 C   0  0  0  0  0  0  0  0  0  0  0  0
   -1.5431   -2.8458   -0.0074 C   0  0  0  0  0  0  0  0  0  0  0  0
   -1.8336   -0.3677   -0.0038 C   0  0  0  0  0  0  0  0  0  0  0  0
   -2.1425    1.8552   -0.0006 C   0  0  0  0  0  0  0  0  0  0  0  0
   -2.4083   -4.0913    0.0124 C   0  0  0  0  0  0  0  0  0  0  0  0
   -3.0586    3.0314    0.0021 C   0  0  0  0  0  0  0  0  0  0  0  0
  1  8  1  0
  1 10  1  0
  2 11  1  0
  2 12  1  0
  3 10  2  0
  3 12  1  0
  4 10  1  0
  4 13  2  0
  5 12  2  0
  5 13  1  0
  6  7  1  0
  6  8  1  0
  7  9  1  0
 11 14  1  0
 13 15  1  0
M  END
>  <PUBCHEM_COMPOUND_CID>  (1) 
21312

>  <PUBCHEM_CONFORMER_RMSD>  (1) 
0.8

>  <PUBCHEM_CONFORMER_DIVERSEORDER>  (1) 
1
36
50
62
32
26
61
25
56
55
52
7
64
60
43
42
23
18
24
38
59
15
31
57
45
54
8
29
40
13
34
16
14
22
19
58
47
21
2
17
3
9
11
27
12
49
33
44
41
6
10
39
4
53
63
20
46
30
28
51
35
37
5
48

>  <PUBCHEM_MMFF94_PARTIAL_CHARGES>  (1) 
12
1 -0.36
10 0.7
11 0.37
12 0.72
13 0.48
15 0.14
2 -0.87
27 0.4
3 -0.62
4 -0.62
5 -0.62
8 0.28

>  <PUBCHEM_EFFECTIVE_ROTOR_COUNT>  (1) 
6

>  <PUBCHEM_PHARMACOPHORE_FEATURES>  (1) 
4
1 2 donor
1 9 hydrophobe
4 2 3 5 12 cation
6 3 4 5 10 12 13 rings

>  <PUBCHEM_HEAVY_ATOM_COUNT>  (1) 
15

>  <PUBCHEM_ATOM_DEF_STEREO_COUNT>  (1) 
0

>  <PUBCHEM_ATOM_UDEF_STEREO_COUNT>  (1) 
0

>  <PUBCHEM_BOND_DEF_STEREO_COUNT>  (1) 
0

>  <PUBCHEM_BOND_UDEF_STEREO_COUNT>  (1) 
0

>  <PUBCHEM_ISOTOPIC_ATOM_COUNT>  (1) 
0

>  <PUBCHEM_COMPONENT_COUNT>  (1) 
1

>  <PUBCHEM_CACTVS_TAUTO_COUNT>  (1) 
4

>  <PUBCHEM_CONFORMER_ID>  (1) 
0000534000000001

>  <PUBCHEM_MMFF94_ENERGY>  (1) 
28.4198

>  <PUBCHEM_FEATURE_SELFOVERLAP>  (1) 
20.297

>  <PUBCHEM_SHAPE_FINGERPRINT>  (1) 
10616163 171 18411139147683625062
12500047 106 18339074887623903376
12523318 42 18269255976923162250
12555020 224 18337379440414369854
12757275 245 18410293623030355494
14508225 48 18267007531151835445
15042514 8 18337678619689496411
167882 2 17615117790086031005
17539 30 18341039822245318847
17859628 70 16751285903998499043
20524608 308 18411418397275809091
20645477 56 18338801100464981960
20645477 70 16823602978886534735
20871998 22 17907014337283647651
21426921 1 18410575115128822102
21478907 32 18266457796813023635
21665056 4 18337951186539726399
22224240 67 18199477580469692305
22849339 104 18339662065372115998
23402539 116 18342730815552752365
23557571 272 18201444670863450420
23559900 14 18341040917741833320
23598291 2 17967822690724691012
23728640 28 18409449159118626491
257057 1 18051410974661212903
3071541 12 17114382538176061837
3091708 16 9200562123103029667
3421961 26 17619068773267080859
4214541 1 18410855430828593540
532947 4 17764590915092757318
53777708 50 18263373641053908988
54173680 148 18338797926378096527
559249 180 18189048695230880706
573450 72 18261382318363832888
77188 2 17978511172065076391
9709674 26 18271811194543223974

>  <PUBCHEM_SHAPE_MULTIPOLES>  (1) 
282.9
8.6
3.96
0.59
17.83
3.58
0
0.69
0.02
-6.94
-0.01
0.03
0.01
0.01

>  <PUBCHEM_SHAPE_SELFOVERLAP>  (1) 
554.972

>  <PUBCHEM_SHAPE_VOLUME>  (1) 
166.9

>  <PUBCHEM_COORDINATE_TYPE>  (1) 
2
5
10

$$$$
