21319
     RDKit          3D

 30 33  0  0  1  0  0  0  0  0999 V2000
    2.3995   -1.2986    2.7486 Cl  0  0  0  0  0  0  0  0  0  0  0  0
   -1.3227    0.8798   -1.6011 S   0  0  0  0  0  0  0  0  0  0  0  0
    1.7465   -1.4785   -2.3245 F   0  0  0  0  0  0  0  0  0  0  0  0
   -1.7511    0.3290    2.7492 O   0  0  0  0  0  0  0  0  0  0  0  0
   -5.3699   -1.0317   -0.0297 O   0  0  0  0  0  0  0  0  0  0  0  0
   -5.1745    0.9172    1.1363 O   0  0  0  0  0  0  0  0  0  0  0  0
    1.4980    2.8665   -0.5440 O   0  0  0  0  0  0  0  0  0  0  0  0
    4.9816    0.4941   -0.4023 O   0  0  0  0  0  0  0  0  0  0  0  0
   -2.5674    1.0796    0.6658 N   0  0  0  0  0  0  0  0  0  0  0  0
    0.6071    1.1921    0.7664 N   0  0  0  0  0  0  0  0  0  0  0  0
    4.3139   -0.7181   -0.2768 N   0  0  0  0  0  0  0  0  0  0  0  0
   -1.6820    1.9239   -0.1417 C   0  0  0  0  0  0  0  0  0  0  0  0
   -2.9986    0.0752   -1.4863 C   0  0  0  0  0  0  0  0  0  0  0  0
   -3.2481   -0.0321    0.0335 C   0  0  0  0  0  0  0  0  0  0  0  0
   -0.6759    1.8640    1.0158 C   0  0  0  0  0  0  0  0  0  0  0  0
   -1.7179    0.9799    1.7296 C   0  0  0  0  0  0  0  0  0  0  0  0
   -4.0012    0.9638   -2.2351 C   0  0  0  0  0  0  0  0  0  0  0  0
   -2.9328   -1.3064   -2.1398 C   0  0  0  0  0  0  0  0  0  0  0  0
   -4.6823    0.0323    0.4521 C   0  0  0  0  0  0  0  0  0  0  0  0
    1.6198    1.7621   -0.0149 C   0  0  0  0  0  0  0  0  0  0  0  0
    2.8570    0.9810   -0.1469 C   0  0  0  0  0  0  0  0  0  0  0  0
    3.0279   -0.3901   -0.1233 C   0  0  0  0  0  0  0  0  0  0  0  0
    4.0849    1.5101   -0.3213 C   0  0  0  0  0  0  0  0  0  0  0  0
    2.0310   -1.4162    0.0376 C   0  0  0  0  0  0  0  0  0  0  0  0
    4.6309    2.8694   -0.4363 C   0  0  0  0  0  0  0  0  0  0  0  0
    1.6737   -1.8980    1.2972 C   0  0  0  0  0  0  0  0  0  0  0  0
    1.4167   -1.9292   -1.1049 C   0  0  0  0  0  0  0  0  0  0  0  0
    0.7023   -2.8924    1.4138 C   0  0  0  0  0  0  0  0  0  0  0  0
    0.4455   -2.9237   -0.9881 C   0  0  0  0  0  0  0  0  0  0  0  0
    0.0884   -3.4053    0.2712 C   0  0  0  0  0  0  0  0  0  0  0  0
  1 26  1  0
  2 12  1  0
  2 13  1  0
  3 27  1  0
  4 16  2  0
  5 19  1  0
  6 19  2  0
  7 20  2  0
  8 11  1  0
  8 23  1  0
  9 12  1  0
  9 14  1  0
  9 16  1  0
 10 15  1  0
 10 20  1  0
 11 22  2  0
 12 15  1  0
 13 14  1  0
 13 17  1  0
 13 18  1  0
 14 19  1  0
 15 16  1  0
 20 21  1  0
 21 22  1  0
 21 23  2  0
 22 24  1  0
 23 25  1  0
 24 26  2  0
 24 27  1  0
 26 28  1  0
 27 29  2  0
 28 30  2  0
 29 30  1  0
M  END
>  <PUBCHEM_COMPOUND_CID>  (1) 
21319

>  <PUBCHEM_CONFORMER_RMSD>  (1) 
0.8

>  <PUBCHEM_CONFORMER_DIVERSEORDER>  (1) 
5
20
10
51
52
32
36
41
34
46
35
26
13
50
48
49
42
6
31
44
11
47
30
21
45
27
9
29
43
40
12
2
24
8
39
15
23
33
53
38
3
18
17
25
14
4
19
22
1
16
7
28
37

>  <PUBCHEM_MMFF94_PARTIAL_CHARGES>  (1) 
33
1 -0.18
10 -0.65
11 -0.41
12 0.44
13 0.23
14 0.36
15 0.28
16 0.58
19 0.66
2 -0.45
20 0.72
21 -0.09
22 0.23
23 -0.04
24 0.05
25 0.18
26 0.18
27 0.19
28 -0.15
29 -0.15
3 -0.19
30 -0.15
4 -0.57
40 0.37
41 0.5
45 0.15
46 0.15
47 0.15
5 -0.65
6 -0.57
7 -0.57
8 -0.02
9 -0.59

>  <PUBCHEM_EFFECTIVE_ROTOR_COUNT>  (1) 
5.8

>  <PUBCHEM_PHARMACOPHORE_FEATURES>  (1) 
12
1 10 donor
1 11 acceptor
1 4 acceptor
1 5 acceptor
1 6 acceptor
1 7 acceptor
3 13 17 18 hydrophobe
3 5 6 19 anion
4 9 12 15 16 rings
5 8 11 21 22 23 rings
6 24 26 27 28 29 30 rings
7 2 9 12 13 14 15 16 rings

>  <PUBCHEM_HEAVY_ATOM_COUNT>  (1) 
30

>  <PUBCHEM_ATOM_DEF_STEREO_COUNT>  (1) 
3

>  <PUBCHEM_ATOM_UDEF_STEREO_COUNT>  (1) 
0

>  <PUBCHEM_BOND_DEF_STEREO_COUNT>  (1) 
0

>  <PUBCHEM_BOND_UDEF_STEREO_COUNT>  (1) 
0

>  <PUBCHEM_ISOTOPIC_ATOM_COUNT>  (1) 
0

>  <PUBCHEM_COMPONENT_COUNT>  (1) 
1

>  <PUBCHEM_CACTVS_TAUTO_COUNT>  (1) 
2

>  <PUBCHEM_CONFORMER_ID>  (1) 
0000534700000005

>  <PUBCHEM_MMFF94_ENERGY>  (1) 
75.135

>  <PUBCHEM_FEATURE_SELFOVERLAP>  (1) 
64.687

>  <PUBCHEM_SHAPE_FINGERPRINT>  (1) 
10119406 146 18194423125912470950
11421498 54 17632026259932994057
11578080 2 16444763627088311420
12156800 1 17540854949089755111
12236239 1 17989496229002506064
12293681 4 17324363390772952978
12553582 1 17988629797139627009
12788726 201 16773526447621803777
13009979 54 17558268714003771114
13224815 77 18409727322786204543
14251764 3 17603304877263677032
14787075 74 18343021142214369319
15183329 4 17987779832456532237
17138139 8 17771044275569830423
17492 54 18266164205274115823
17980427 23 17755272623256891296
20775438 99 15685847003416762918
21421861 104 18266748969730612233
22393880 68 18261949640098264756
23419403 2 14833303198247463554
23557571 272 16298675996883522645
23559900 14 17841436925667267327
238 59 18334290968049474912
35225 105 17617975819916598911
3797600 57 18343294881675573847
4340502 62 18336844056077745931
463206 1 18343301513410773945
469060 322 16734662198603190823
513532 50 14782596749763250887
6287921 2 17773596014192925662
6669772 16 18335143116201281958

>  <PUBCHEM_SHAPE_MULTIPOLES>  (1) 
571.54
8.92
3.38
2.18
3.54
1.33
0.42
-3.46
-1.03
-2.66
-0.06
1.14
0.62
-0.79

>  <PUBCHEM_SHAPE_SELFOVERLAP>  (1) 
1228.142

>  <PUBCHEM_SHAPE_VOLUME>  (1) 
321.6

>  <PUBCHEM_COORDINATE_TYPE>  (1) 
2
5
10

$$$$
