21310
     RDKit          3D

 20 22  0  0  0  0  0  0  0  0999 V2000
   -7.3159    1.3337   -0.2096 Cl  0  0  0  0  0  0  0  0  0  0  0  0
   -0.0189   -1.9539   -0.0823 O   0  0  0  0  0  0  0  0  0  0  0  0
    4.1063   -0.1756   -0.1906 N   0  0  0  0  0  0  0  0  0  0  0  0
   -1.3876   -1.8477   -0.2973 N   0  0  0  0  0  0  0  0  0  0  0  0
    4.3832    0.7505    0.9166 C   0  0  0  0  0  0  0  0  0  0  0  0
    4.8635    0.1944   -1.3946 C   0  0  0  0  0  0  0  0  0  0  0  0
    5.8726    0.7654    1.2642 C   0  0  0  0  0  0  0  0  0  0  0  0
    6.3685    0.1914   -1.1225 C   0  0  0  0  0  0  0  0  0  0  0  0
    6.7229    1.1049    0.0454 C   0  0  0  0  0  0  0  0  0  0  0  0
    2.6729   -0.2140   -0.4793 C   0  0  0  0  0  0  0  0  0  0  0  0
    1.8830   -0.7259    0.7268 C   0  0  0  0  0  0  0  0  0  0  0  0
    0.4053   -0.7902    0.4293 C   0  0  0  0  0  0  0  0  0  0  0  0
   -0.5895    0.0989    0.5747 C   0  0  0  0  0  0  0  0  0  0  0  0
   -1.7056   -0.6131    0.1025 C   0  0  0  0  0  0  0  0  0  0  0  0
   -3.0628   -0.1424    0.0256 C   0  0  0  0  0  0  0  0  0  0  0  0
   -3.3179    1.2134   -0.1714 C   0  0  0  0  0  0  0  0  0  0  0  0
   -4.1190   -1.0432    0.1500 C   0  0  0  0  0  0  0  0  0  0  0  0
   -4.6339    1.6700   -0.2443 C   0  0  0  0  0  0  0  0  0  0  0  0
   -5.4349   -0.5865    0.0769 C   0  0  0  0  0  0  0  0  0  0  0  0
   -5.6924    0.7701   -0.1202 C   0  0  0  0  0  0  0  0  0  0  0  0
  1 20  1  0
  2  4  1  0
  2 12  1  0
  3  5  1  0
  3  6  1  0
  3 10  1  0
  4 14  2  0
  5  7  1  0
  6  8  1  0
  7  9  1  0
  8  9  1  0
 10 11  1  0
 11 12  1  0
 12 13  2  0
 13 14  1  0
 14 15  1  0
 15 16  2  0
 15 17  1  0
 16 18  1  0
 17 19  2  0
 18 20  2  0
 19 20  1  0
M  END
>  <PUBCHEM_COMPOUND_CID>  (1) 
21310

>  <PUBCHEM_CONFORMER_RMSD>  (1) 
0.8

>  <PUBCHEM_CONFORMER_DIVERSEORDER>  (1) 
1
9
19
15
21
18
3
6
5
23
24
10
2
22
16
7
13
8
4
20
11
12
17
14

>  <PUBCHEM_MMFF94_PARTIAL_CHARGES>  (1) 
22
1 -0.18
10 0.27
11 0.18
12 -0.04
13 -0.15
14 0.23
15 0.05
16 -0.15
17 -0.15
18 -0.15
19 -0.15
2 -0.02
20 0.18
3 -0.81
35 0.15
36 0.15
37 0.15
38 0.15
39 0.15
4 -0.41
5 0.27
6 0.27

>  <PUBCHEM_EFFECTIVE_ROTOR_COUNT>  (1) 
5.2

>  <PUBCHEM_PHARMACOPHORE_FEATURES>  (1) 
5
1 3 cation
1 4 acceptor
5 2 4 12 13 14 rings
6 15 16 17 18 19 20 rings
6 3 5 6 7 8 9 rings

>  <PUBCHEM_HEAVY_ATOM_COUNT>  (1) 
20

>  <PUBCHEM_ATOM_DEF_STEREO_COUNT>  (1) 
0

>  <PUBCHEM_ATOM_UDEF_STEREO_COUNT>  (1) 
0

>  <PUBCHEM_BOND_DEF_STEREO_COUNT>  (1) 
0

>  <PUBCHEM_BOND_UDEF_STEREO_COUNT>  (1) 
0

>  <PUBCHEM_ISOTOPIC_ATOM_COUNT>  (1) 
0

>  <PUBCHEM_COMPONENT_COUNT>  (1) 
1

>  <PUBCHEM_CACTVS_TAUTO_COUNT>  (1) 
1

>  <PUBCHEM_CONFORMER_ID>  (1) 
0000533E00000001

>  <PUBCHEM_MMFF94_ENERGY>  (1) 
26.6262

>  <PUBCHEM_FEATURE_SELFOVERLAP>  (1) 
25.373

>  <PUBCHEM_SHAPE_FINGERPRINT>  (1) 
10 15 17894915109942937001
10354089 29 16370727037370724940
10411042 1 17832146396601833339
106641 1 13984955042770353901
10670039 82 18270967838812269112
10688039 33 14273450375628740782
10730089 173 18409731754960397405
10835480 77 17417807405172805080
11638347 137 14851605458123360913
11646440 116 18343029903541848329
12236239 1 17894346692190108202
12390115 104 18200320909898041025
12516196 113 10737285748980981774
12596602 18 15719115768314177369
12670543 26 17489592233783905434
13167372 99 17313380098270756508
13288520 33 10519983769121550843
13533116 47 18271526391178114890
13631057 29 17459194152535179115
13668630 136 12823297901006252356
13685833 64 9295282850617530141
14123256 34 9511457853029108293
14251764 18 17095244743424412381
14341114 176 13551191091658407454
14933364 13 18412547608586703600
15048467 5 18260830384658744493
15183329 4 16845577495691578994
15348495 7 12829502470807063892
15690457 1 11458434552905602769
15716309 27 11891336456445717913
16079462 125 17846207895830779208
17834072 8 17917712400500891992
18006028 8 8430313532957173259
19784866 240 11024104369593449403
200 152 14979965765643877730
20281389 69 18113896048632445684
20374829 77 10592043557123025363
20554085 129 17917695904376086242
20645477 56 18412824706981332986
20645477 70 16702034058685212726
21033648 29 18271796978074653048
21150785 3 16988555815036338405
220451 1 15574716915350172258
22061861 79 16917074347684668756
221357 26 17060618884772785216
2215653 11 17203610397876944200
22224240 67 14923946756231067105
23035841 295 10664103358905999429
23198884 109 16558754515945937915
23402539 116 18343015618501187934
23559900 14 17274817004290640482
2767999 5 18259982673699024468
2916195 48 18342451573536879920
293599 30 18411980256407965379
29717793 49 14764357037580150088
3004659 81 18338238168450948646
3472631 163 18336550516617217084
34797466 226 17704074009890275492
3545911 37 18343867731897669482
4073 2 17967820461262819682
4340502 62 16008750190786185690
465052 167 8214141872035368032
5104073 3 18188493458970086947
542803 24 17603585244703243322
59682541 35 17967822673808806313
59682541 52 17489034769215930238
59755656 520 17749385987962331746
999808 66 13398624009503352237

>  <PUBCHEM_SHAPE_MULTIPOLES>  (1) 
397.63
19.78
1.51
0.98
5.2
0.16
0.04
-9.68
1.81
-1.47
0.02
1.63
-0.11
0.51

>  <PUBCHEM_SHAPE_SELFOVERLAP>  (1) 
834.088

>  <PUBCHEM_SHAPE_VOLUME>  (1) 
226.1

>  <PUBCHEM_COORDINATE_TYPE>  (1) 
2
5
10

$$$$
