2132
     RDKit          3D

 18 19  0  0  0  0  0  0  0  0999 V2000
    4.9514   -2.2983    0.1745 Br  0  0  0  0  0  0  0  0  0  0  0  0
    4.0284    3.2834    0.4927 Br  0  0  0  0  0  0  0  0  0  0  0  0
   -6.3054    0.2191   -0.2053 O   0  0  0  0  0  0  0  0  0  0  0  0
   -0.7280   -0.2900    0.4438 N   0  0  0  0  0  0  0  0  0  0  0  0
    1.8889   -2.3300   -0.5365 N   0  0  0  0  0  0  0  0  0  0  0  0
   -2.1335   -0.4510    0.0729 C   0  0  0  0  0  0  0  0  0  0  0  0
   -2.9849   -0.6340    1.3349 C   0  0  0  0  0  0  0  0  0  0  0  0
   -2.6143    0.7507   -0.7504 C   0  0  0  0  0  0  0  0  0  0  0  0
   -4.4678   -0.7489    0.9912 C   0  0  0  0  0  0  0  0  0  0  0  0
   -4.0983    0.6337   -1.0884 C   0  0  0  0  0  0  0  0  0  0  0  0
   -4.9494    0.4423    0.1659 C   0  0  0  0  0  0  0  0  0  0  0  0
    0.0986   -0.1042   -0.7386 C   0  0  0  0  0  0  0  0  0  0  0  0
    1.5522    0.0666   -0.3854 C   0  0  0  0  0  0  0  0  0  0  0  0
    2.3978   -1.0318   -0.2947 C   0  0  0  0  0  0  0  0  0  0  0  0
    2.0276    1.3514   -0.1533 C   0  0  0  0  0  0  0  0  0  0  0  0
    3.7402   -0.8427    0.0335 C   0  0  0  0  0  0  0  0  0  0  0  0
    3.3700    1.5404    0.1749 C   0  0  0  0  0  0  0  0  0  0  0  0
    4.2264    0.4433    0.2683 C   0  0  0  0  0  0  0  0  0  0  0  0
  1 16  1  0
  2 17  1  0
  3 11  1  0
  4  6  1  0
  4 12  1  0
  5 14  1  0
  6  7  1  0
  6  8  1  0
  7  9  1  0
  8 10  1  0
  9 11  1  0
 10 11  1  0
 12 13  1  0
 13 14  2  0
 13 15  1  0
 14 16  1  0
 15 17  2  0
 16 18  2  0
 17 18  1  0
M  END
>  <PUBCHEM_COMPOUND_CID>  (1) 
2132

>  <PUBCHEM_CONFORMER_RMSD>  (1) 
0.6

>  <PUBCHEM_CONFORMER_DIVERSEORDER>  (1) 
1
34
27
28
13
8
12
42
31
17
2
29
18
23
38
40
37
41
19
35
25
36
24
45
39
21
22
44
46
4
26
3
33
16
15
11
30
9
5
32
10
43
14
6
20
7

>  <PUBCHEM_MMFF94_PARTIAL_CHARGES>  (1) 
20
1 -0.11
11 0.28
12 0.41
13 -0.14
14 0.1
15 -0.15
16 0.11
17 0.11
18 -0.15
2 -0.11
29 0.36
3 -0.68
32 0.4
33 0.15
34 0.15
35 0.4
36 0.4
4 -0.9
5 -0.9
6 0.27

>  <PUBCHEM_EFFECTIVE_ROTOR_COUNT>  (1) 
4.2

>  <PUBCHEM_PHARMACOPHORE_FEATURES>  (1) 
10
1 1 hydrophobe
1 2 hydrophobe
1 3 acceptor
1 3 donor
1 4 cation
1 4 donor
1 5 cation
1 5 donor
6 13 14 15 16 17 18 rings
6 6 7 8 9 10 11 rings

>  <PUBCHEM_HEAVY_ATOM_COUNT>  (1) 
18

>  <PUBCHEM_ATOM_DEF_STEREO_COUNT>  (1) 
0

>  <PUBCHEM_ATOM_UDEF_STEREO_COUNT>  (1) 
0

>  <PUBCHEM_BOND_DEF_STEREO_COUNT>  (1) 
0

>  <PUBCHEM_BOND_UDEF_STEREO_COUNT>  (1) 
0

>  <PUBCHEM_ISOTOPIC_ATOM_COUNT>  (1) 
0

>  <PUBCHEM_COMPONENT_COUNT>  (1) 
1

>  <PUBCHEM_CACTVS_TAUTO_COUNT>  (1) 
1

>  <PUBCHEM_CONFORMER_ID>  (1) 
0000085400000001

>  <PUBCHEM_MMFF94_ENERGY>  (1) 
43.3516

>  <PUBCHEM_FEATURE_SELFOVERLAP>  (1) 
50.745

>  <PUBCHEM_SHAPE_FINGERPRINT>  (1) 
10411042 1 18124314901296976470
10912923 1 17775568663018040075
11405975 8 18335423460778550923
11471102 20 18412544301925972942
12236239 1 17275101717366704343
12403259 415 18040428876271331861
12507560 40 18261109681649361773
12616971 3 17917704699814317869
13167372 99 18201724994847312065
13533116 47 18409730646932460794
13675066 3 18041000673867652641
13911852 28 18052257289657536966
13955234 65 18411979183267307640
14251764 38 18271529680717161385
14341114 176 18261117365308859368
15375358 24 18260550039095012883
15475509 35 16951107501493287488
15880784 105 18411703214270222491
15961568 22 17095809935678564636
17834072 33 18273212028101680551
17844677 252 18341055133788047357
1813 80 17773611412468008838
18222031 100 18129381510817257046
200 152 18130504158958570011
20157964 124 18413669119564483989
20279233 1 18260274040259717707
20369508 70 18335416821302683298
204376 136 18200032974752095942
20645477 56 18187082879930010789
20645477 70 18412825750816823638
21033648 29 17749658641387225461
21033650 10 14835587815442060410
21065198 57 18334859424124472411
21065199 12 18260832639163205625
21065201 7 17167579384354123225
23402539 116 18186515510808728543
23532345 1 18413389855957938392
23557571 272 17458341910067761677
23559900 14 17894355475023695030
268830 7 18272381858125903985
26918003 58 18409731746602519579
351380 180 18408039606976524769
3545911 37 18334860540784515789
474 4 18272089452325497248
495365 180 18342169003543851976
5104073 3 18335425690119727155
542803 24 17203612579762457003
59755656 215 17458342988373902787
8272917 22 18343867714627915502
9709674 26 18114471161854199755
9971528 1 17967816063036447093
9999458 23 18409449194142931734

>  <PUBCHEM_SHAPE_MULTIPOLES>  (1) 
366.48
12.98
2.49
0.97
12.47
1.03
-0.08
0.35
-1.28
-5.66
-0.27
0.76
-0.02
1.05

>  <PUBCHEM_SHAPE_SELFOVERLAP>  (1) 
729.963

>  <PUBCHEM_SHAPE_VOLUME>  (1) 
222.6

>  <PUBCHEM_COORDINATE_TYPE>  (1) 
2
5
10

$$$$
