21324
     RDKit          3D

 16 18  0  0  1  0  0  0  0  0999 V2000
   -1.0056    0.0040   -0.4034 N   0  0  0  0  0  0  0  0  0  0  0  0
   -3.1043    0.5119   -1.2177 N   0  0  0  0  0  0  0  0  0  0  0  0
   -2.9211    0.0489    0.9963 N   0  0  0  0  0  0  0  0  0  0  0  0
   -0.0576   -0.3761    0.6268 C   0  0  0  0  0  0  0  0  0  0  0  0
   -0.0132   -1.9047    0.7480 C   0  0  0  0  0  0  0  0  0  0  0  0
    0.8188   -2.5322   -0.3662 C   0  0  0  0  0  0  0  0  0  0  0  0
    1.2903    0.2389    0.3224 C   0  0  0  0  0  0  0  0  0  0  0  0
    2.2589   -2.0314   -0.3063 C   0  0  0  0  0  0  0  0  0  0  0  0
    2.3667   -0.5355   -0.1507 C   0  0  0  0  0  0  0  0  0  0  0  0
    1.4653    1.6233    0.4913 C   0  0  0  0  0  0  0  0  0  0  0  0
   -2.3146    0.1736   -0.1599 C   0  0  0  0  0  0  0  0  0  0  0  0
    3.5954    0.0856   -0.4258 C   0  0  0  0  0  0  0  0  0  0  0  0
   -4.4655    0.6595   -0.8013 C   0  0  0  0  0  0  0  0  0  0  0  0
    2.6882    2.2290    0.2042 C   0  0  0  0  0  0  0  0  0  0  0  0
   -4.3548    0.3449    0.6960 C   0  0  0  0  0  0  0  0  0  0  0  0
    3.7531    1.4602   -0.2538 C   0  0  0  0  0  0  0  0  0  0  0  0
  1  4  1  0
  1 11  1  0
  2 11  1  0
  2 13  1  0
  3 11  2  0
  3 15  1  0
  4  5  1  0
  4  7  1  0
  5  6  1  0
  6  8  1  0
  7  9  2  0
  7 10  1  0
  8  9  1  0
  9 12  1  0
 10 14  2  0
 12 16  2  0
 13 15  1  0
 14 16  1  0
M  END
>  <PUBCHEM_COMPOUND_CID>  (1) 
21324

>  <PUBCHEM_CONFORMER_RMSD>  (1) 
0.6

>  <PUBCHEM_CONFORMER_DIVERSEORDER>  (1) 
1
8
9
12
4
11
14
16
17
2
7
3
15
6
5
13
18
10

>  <PUBCHEM_MMFF94_PARTIAL_CHARGES>  (1) 
20
1 -0.82
10 -0.15
11 0.55
12 -0.15
13 0.37
14 -0.15
15 0.25
16 -0.15
2 -0.82
24 0.4
25 0.15
26 0.15
29 0.4
3 -0.7
32 0.15
33 0.15
4 0.51
7 -0.14
8 0.14
9 -0.14

>  <PUBCHEM_EFFECTIVE_ROTOR_COUNT>  (1) 
3.4

>  <PUBCHEM_PHARMACOPHORE_FEATURES>  (1) 
6
1 1 donor
1 2 donor
4 1 2 3 11 cation
5 2 3 11 13 15 rings
6 4 5 6 7 8 9 rings
6 7 9 10 12 14 16 rings

>  <PUBCHEM_HEAVY_ATOM_COUNT>  (1) 
16

>  <PUBCHEM_ATOM_DEF_STEREO_COUNT>  (1) 
0

>  <PUBCHEM_ATOM_UDEF_STEREO_COUNT>  (1) 
1

>  <PUBCHEM_BOND_DEF_STEREO_COUNT>  (1) 
0

>  <PUBCHEM_BOND_UDEF_STEREO_COUNT>  (1) 
0

>  <PUBCHEM_ISOTOPIC_ATOM_COUNT>  (1) 
0

>  <PUBCHEM_COMPONENT_COUNT>  (1) 
1

>  <PUBCHEM_CACTVS_TAUTO_COUNT>  (1) 
2

>  <PUBCHEM_CONFORMER_ID>  (1) 
0000534C00000001

>  <PUBCHEM_MMFF94_ENERGY>  (1) 
40.1132

>  <PUBCHEM_FEATURE_SELFOVERLAP>  (1) 
30.516

>  <PUBCHEM_SHAPE_FINGERPRINT>  (1) 
10608611 8 18260545576734807605
10922049 32 18335424607371366322
10980938 120 18341327816575942674
11031198 65 18410298016512750670
11471102 20 18411982442620048572
11543360 7 15698000794496065784
11615757 297 18272653433186893177
12236239 1 17489309663796282161
12654215 9 18335698308868584852
12730499 353 18335707139516673859
13380535 76 18410574028528639018
13583140 156 16444166776858042648
14251717 144 18341610386843361830
14911166 2 18341060666090566020
15219456 202 18259707783160282163
15375358 24 17749385949771206229
15775835 57 18412544335837370559
16945 1 18341331111122021722
17134986 127 18337952415116800356
17834072 33 18343578547850119767
1813 80 17413321169513195558
18186145 218 18342461460440831716
18219364 16 18337122266225314041
19422 9 17917992750665650087
20606313 2 18410572851570306838
20645476 183 17775558754591948247
20645477 70 18340199688003365783
20820808 20 18413669123564026322
21499 59 18339921614308158061
21501502 16 18338510966871073930
21524375 3 18335977679074106122
21639500 275 18412820287470307533
22289505 5 18265322920282043061
2255824 54 18342455889778967871
22854114 111 18410573976566797805
231179 274 18113894961820889068
23402539 116 18341604958426783852
23402655 69 18272370875472592813
23557571 272 17095527258379262517
23559900 14 16805886165379867267
23598291 2 17630899200558995627
238 59 17975937004411261597
25 1 18411703205395061210
2748010 2 18124608728155882082
3060560 45 18342174453799503854
3082319 5 17346878966099330861
4072396 5 18337658751465775226
474 4 18340768233966961585
543358 83 18124878958644714561
633830 44 18201731647255495245
7364860 26 18340767040044999086
77492 1 17489308551373378803
81228 2 17471562708289077746
81539 233 18333168366751433454
8272917 22 18271531879771188375
9981440 41 16480468399148481760

>  <PUBCHEM_SHAPE_MULTIPOLES>  (1) 
314.33
7.67
2.25
0.93
7.23
0.84
-0.02
-3.46
-1.09
-2.27
0.02
0.6
-0.01
0.39

>  <PUBCHEM_SHAPE_SELFOVERLAP>  (1) 
672.882

>  <PUBCHEM_SHAPE_VOLUME>  (1) 
170.5

>  <PUBCHEM_COORDINATE_TYPE>  (1) 
2
5
10

$$$$
