21325
     RDKit          3D

 26 28  0  0  0  0  0  0  0  0999 V2000
    1.2189   -1.5596   -1.7313 O   0  0  0  0  0  0  0  0  0  0  0  0
   -0.5378   -2.7309   -0.1589 O   0  0  0  0  0  0  0  0  0  0  0  0
   -0.9593    3.2566   -0.2872 O   0  0  0  0  0  0  0  0  0  0  0  0
   -1.1994   -1.3459    1.5792 N   0  0  0  0  0  0  0  0  0  0  0  0
   -2.0096    1.4743    0.8425 N   0  0  0  0  0  0  0  0  0  0  0  0
   -3.5998   -0.8377    1.5155 C   0  0  0  0  0  0  0  0  0  0  0  0
   -2.5234   -1.9023    1.7420 C   0  0  0  0  0  0  0  0  0  0  0  0
   -3.5464   -0.2652    0.1296 C   0  0  0  0  0  0  0  0  0  0  0  0
    1.0222   -1.1553    0.6042 C   0  0  0  0  0  0  0  0  0  0  0  0
   -2.7657    0.8515   -0.1537 C   0  0  0  0  0  0  0  0  0  0  0  0
    3.0073   -0.4190   -0.5941 C   0  0  0  0  0  0  0  0  0  0  0  0
    3.5325    0.1043    0.6114 C   0  0  0  0  0  0  0  0  0  0  0  0
    1.7506   -1.0459   -0.5807 C   0  0  0  0  0  0  0  0  0  0  0  0
   -0.2825   -1.8031    0.6272 C   0  0  0  0  0  0  0  0  0  0  0  0
   -4.2955   -0.8746   -0.8728 C   0  0  0  0  0  0  0  0  0  0  0  0
    1.5387   -0.6407    1.7897 C   0  0  0  0  0  0  0  0  0  0  0  0
    2.7856   -0.0148    1.7948 C   0  0  0  0  0  0  0  0  0  0  0  0
   -2.7338    1.3635   -1.4507 C   0  0  0  0  0  0  0  0  0  0  0  0
    3.7542   -0.3001   -1.7774 C   0  0  0  0  0  0  0  0  0  0  0  0
    4.7891    0.7311    0.5981 C   0  0  0  0  0  0  0  0  0  0  0  0
   -4.2636   -0.3625   -2.1699 C   0  0  0  0  0  0  0  0  0  0  0  0
   -3.4828    0.7565   -2.4589 C   0  0  0  0  0  0  0  0  0  0  0  0
    5.0011    0.3258   -1.7723 C   0  0  0  0  0  0  0  0  0  0  0  0
    5.5175    0.8403   -0.5868 C   0  0  0  0  0  0  0  0  0  0  0  0
   -1.1810    2.5964    0.7227 C   0  0  0  0  0  0  0  0  0  0  0  0
   -0.5372    2.9573    2.0379 C   0  0  0  0  0  0  0  0  0  0  0  0
  1 13  1  0
  2 14  2  0
  3 25  2  0
  4  7  1  0
  4 14  1  0
  5 10  1  0
  5 25  1  0
  6  7  1  0
  6  8  1  0
  8 10  2  0
  8 15  1  0
  9 13  2  0
  9 14  1  0
  9 16  1  0
 10 18  1  0
 11 12  2  0
 11 13  1  0
 11 19  1  0
 12 17  1  0
 12 20  1  0
 15 21  2  0
 16 17  2  0
 18 22  2  0
 19 23  2  0
 20 24  2  0
 21 22  1  0
 23 24  1  0
 25 26  1  0
M  END
>  <PUBCHEM_COMPOUND_CID>  (1) 
21325

>  <PUBCHEM_CONFORMER_RMSD>  (1) 
0.8

>  <PUBCHEM_CONFORMER_DIVERSEORDER>  (1) 
1
50
21
18
32
124
122
25
89
16
8
60
75
92
31
109
59
123
90
98
17
116
115
37
53
62
40
5
34
26
49
112
76
117
55
35
65
7
120
2
97
3
63
68
71
43
99
27
9
14
85
41
107
69
36
30
52
111
86
74
28
13
78
33
12
93
45
105
46
80
110
23
100
119
24
127
39
22
104
67
15
106
51
61
20
56
108
64
82
87
19
38
29
95
57
125
126
72
96
91
79
121
77
42
48
101
10
114
113
11
94
83
54
84
102
73
58
88
103
70
66
47
118
4
44
81
6

>  <PUBCHEM_MMFF94_PARTIAL_CHARGES>  (1) 
37
1 -0.53
10 0.12
13 0.08
14 0.54
15 -0.15
16 -0.15
17 -0.15
18 -0.15
19 -0.15
2 -0.57
20 -0.15
21 -0.15
22 -0.15
23 -0.15
24 -0.15
25 0.57
26 0.06
3 -0.57
31 0.37
32 0.15
33 0.15
34 0.15
35 0.15
36 0.15
37 0.15
38 0.15
39 0.37
4 -0.73
40 0.15
41 0.15
42 0.15
43 0.45
5 -0.55
6 0.14
7 0.3
8 -0.14
9 0.09

>  <PUBCHEM_EFFECTIVE_ROTOR_COUNT>  (1) 
7

>  <PUBCHEM_PHARMACOPHORE_FEATURES>  (1) 
8
1 1 donor
1 2 acceptor
1 3 acceptor
1 4 donor
1 5 donor
6 11 12 19 20 23 24 rings
6 8 10 15 18 21 22 rings
6 9 11 12 13 16 17 rings

>  <PUBCHEM_HEAVY_ATOM_COUNT>  (1) 
26

>  <PUBCHEM_ATOM_DEF_STEREO_COUNT>  (1) 
0

>  <PUBCHEM_ATOM_UDEF_STEREO_COUNT>  (1) 
0

>  <PUBCHEM_BOND_DEF_STEREO_COUNT>  (1) 
0

>  <PUBCHEM_BOND_UDEF_STEREO_COUNT>  (1) 
0

>  <PUBCHEM_ISOTOPIC_ATOM_COUNT>  (1) 
0

>  <PUBCHEM_COMPONENT_COUNT>  (1) 
1

>  <PUBCHEM_CACTVS_TAUTO_COUNT>  (1) 
14

>  <PUBCHEM_CONFORMER_ID>  (1) 
0000534D00000001

>  <PUBCHEM_MMFF94_ENERGY>  (1) 
80.7259

>  <PUBCHEM_FEATURE_SELFOVERLAP>  (1) 
40.624

>  <PUBCHEM_SHAPE_FINGERPRINT>  (1) 
10498660 4 18410570652262383537
10759866 29 17603863390885264170
11370993 70 17023449872800023843
11552529 35 12686535198941122760
11640471 11 17023184881538335403
12107183 9 16155929636401683728
12467345 10 16298381374879732051
12596599 1 17060327527097028425
12633257 1 11674884389862371694
12788726 201 18267578001609413633
13149001 5 18194668487922519187
13165053 68 13479126905463073337
13224815 77 18271522013772412345
13583140 156 16009042699729421596
13911987 19 18410292553193115575
13994607 96 18113896087324126951
14251764 30 14907038561050924639
15849732 13 17489319581629987137
17349148 13 18336542721024688786
17357779 13 18201722876926989384
17492 54 18187629324477107583
17980427 23 17688566296108061130
20511986 3 15864614163523740948
20715895 44 16591652861990667869
20739085 24 14418132924911495318
22907989 373 18335997401574660712
23419403 2 18120656001086605395
23559900 14 17897429619552160394
23598288 3 12319736959935944459
341906 21 17821725061535038214
6287921 2 16700027565169080425
9981440 41 16805318877830945099

>  <PUBCHEM_SHAPE_MULTIPOLES>  (1) 
507.5
10
2.6
2.36
7.17
1.33
-0.38
1.06
-4.69
-1.74
1.08
-0.77
0.29
0.55

>  <PUBCHEM_SHAPE_SELFOVERLAP>  (1) 
1104.02

>  <PUBCHEM_SHAPE_VOLUME>  (1) 
275.4

>  <PUBCHEM_COORDINATE_TYPE>  (1) 
2
5
10

$$$$
