21349
     RDKit          3D

 12 12  0  0  1  0  0  0  0  0999 V2000
   -2.3698   -1.8256   -0.4811 O   0  0  0  0  0  0  0  0  0  0  0  0
   -1.6031   -1.0693    1.4410 O   0  0  0  0  0  0  0  0  0  0  0  0
   -1.7649   -0.9983    0.2148 N   0  0  0  0  0  0  0  0  0  0  0  0
   -1.1639    0.1659   -0.4796 C   0  0  0  0  0  0  0  0  0  0  0  0
   -1.8500    1.4286    0.0463 C   0  0  0  0  0  0  0  0  0  0  0  0
    0.3193    0.0452   -0.2399 C   0  0  0  0  0  0  0  0  0  0  0  0
   -1.3227    2.6923   -0.6209 C   0  0  0  0  0  0  0  0  0  0  0  0
    1.1012   -0.6580   -1.1446 C   0  0  0  0  0  0  0  0  0  0  0  0
    0.8793    0.6388    0.8817 C   0  0  0  0  0  0  0  0  0  0  0  0
    2.4737   -0.7698   -0.9226 C   0  0  0  0  0  0  0  0  0  0  0  0
    2.2518    0.5272    1.1036 C   0  0  0  0  0  0  0  0  0  0  0  0
    3.0492   -0.1771    0.2014 C   0  0  0  0  0  0  0  0  0  0  0  0
  1  3  1  0
  2  3  2  0
  3  4  1  0
  4  5  1  0
  4  6  1  0
  5  7  1  0
  6  8  2  0
  6  9  1  0
  8 10  1  0
  9 11  2  0
 10 12  2  0
 11 12  1  0
M  CHG  2   1  -1   3   1
M  END
>  <PUBCHEM_COMPOUND_CID>  (1) 
21349

>  <PUBCHEM_CONFORMER_RMSD>  (1) 
0.6

>  <PUBCHEM_CONFORMER_DIVERSEORDER>  (1) 
1
9
8
6
3
7
2
5
4
10

>  <PUBCHEM_MMFF94_PARTIAL_CHARGES>  (1) 
15
1 -0.52
10 -0.15
11 -0.15
12 -0.15
19 0.15
2 -0.52
20 0.15
21 0.15
22 0.15
23 0.15
3 0.8
4 0.38
6 -0.14
8 -0.15
9 -0.15

>  <PUBCHEM_EFFECTIVE_ROTOR_COUNT>  (1) 
3

>  <PUBCHEM_PHARMACOPHORE_FEATURES>  (1) 
5
1 1 acceptor
1 1 anion
1 2 acceptor
1 7 hydrophobe
6 6 8 9 10 11 12 rings

>  <PUBCHEM_HEAVY_ATOM_COUNT>  (1) 
12

>  <PUBCHEM_ATOM_DEF_STEREO_COUNT>  (1) 
0

>  <PUBCHEM_ATOM_UDEF_STEREO_COUNT>  (1) 
1

>  <PUBCHEM_BOND_DEF_STEREO_COUNT>  (1) 
0

>  <PUBCHEM_BOND_UDEF_STEREO_COUNT>  (1) 
0

>  <PUBCHEM_ISOTOPIC_ATOM_COUNT>  (1) 
0

>  <PUBCHEM_COMPONENT_COUNT>  (1) 
1

>  <PUBCHEM_CACTVS_TAUTO_COUNT>  (1) 
2

>  <PUBCHEM_CONFORMER_ID>  (1) 
0000536500000001

>  <PUBCHEM_MMFF94_ENERGY>  (1) 
27.2242

>  <PUBCHEM_FEATURE_SELFOVERLAP>  (1) 
25.45

>  <PUBCHEM_SHAPE_FINGERPRINT>  (1) 
1 1 17326046257358157629
12138202 97 18267297638601165692
124424 183 18056467358302399910
12716758 59 18265896843728659948
12932764 1 18342184340840631486
13380536 127 18040724662131728872
13839132 238 18194395598300927876
16945 1 18338229358502093516
17844478 74 18272654592580130170
18380122 1 18130216185543411736
19973954 147 18413103966024158604
20711985 344 18334292050507768993
20715346 28 17917982880851766448
21040471 1 18046625603356456173
21524375 3 17757267081341456765
21930827 45 18266737991424951088
21947302 44 17700115617838360260
23402539 116 18267282293057622109
23419403 2 13893395582509524260
23559900 14 17984139250572497254
25 1 17481990034159231117
2748010 2 17846491513827430172
276578 36 17754463348065159793
29004967 10 17775570827597304114
5084963 1 17845930844237879322
81228 2 18407761430561305217

>  <PUBCHEM_SHAPE_MULTIPOLES>  (1) 
230.23
3.93
1.91
1.18
1.59
0.55
0.15
-0.19
0
-1.91
-0.26
0.24
-0.1
0.74

>  <PUBCHEM_SHAPE_SELFOVERLAP>  (1) 
471.921

>  <PUBCHEM_SHAPE_VOLUME>  (1) 
133.1

>  <PUBCHEM_COORDINATE_TYPE>  (1) 
2
5
10

$$$$
