2134
     RDKit          3D

 30 32  0  0  0  0  0  0  0  0999 V2000
    2.6714    2.0938    0.0102 O   0  0  0  0  0  0  0  0  0  0  0  0
   -2.6714    2.0938   -0.0120 O   0  0  0  0  0  0  0  0  0  0  0  0
    9.3174   -3.5782   -0.0323 O   0  0  0  0  0  0  0  0  0  0  0  0
   -9.3175   -3.5780    0.0325 O   0  0  0  0  0  0  0  0  0  0  0  0
    2.8080   -0.5124    0.0137 N   0  0  0  0  0  0  0  0  0  0  0  0
   -2.8080   -0.5124   -0.0137 N   0  0  0  0  0  0  0  0  0  0  0  0
    5.7304   -2.7579    0.0228 N   0  0  0  0  0  0  0  0  0  0  0  0
   -5.7304   -2.7579   -0.0226 N   0  0  0  0  0  0  0  0  0  0  0  0
    0.6982    0.7810    0.0031 C   0  0  0  0  0  0  0  0  0  0  0  0
   -0.6982    0.7809   -0.0033 C   0  0  0  0  0  0  0  0  0  0  0  0
    1.3964   -0.4325    0.0066 C   0  0  0  0  0  0  0  0  0  0  0  0
   -1.3964   -0.4326   -0.0067 C   0  0  0  0  0  0  0  0  0  0  0  0
    1.4475    2.0540    0.0062 C   0  0  0  0  0  0  0  0  0  0  0  0
   -1.4474    2.0540   -0.0062 C   0  0  0  0  0  0  0  0  0  0  0  0
    0.6983    3.3270    0.0029 C   0  0  0  0  0  0  0  0  0  0  0  0
   -0.6982    3.3270   -0.0031 C   0  0  0  0  0  0  0  0  0  0  0  0
    0.6967   -1.6396    0.0034 C   0  0  0  0  0  0  0  0  0  0  0  0
   -0.6968   -1.6396   -0.0034 C   0  0  0  0  0  0  0  0  0  0  0  0
    3.5001   -1.7496    0.0173 C   0  0  0  0  0  0  0  0  0  0  0  0
   -3.5001   -1.7497   -0.0172 C   0  0  0  0  0  0  0  0  0  0  0  0
    5.0019   -1.4958   -0.0084 C   0  0  0  0  0  0  0  0  0  0  0  0
   -5.0019   -1.4959    0.0084 C   0  0  0  0  0  0  0  0  0  0  0  0
    1.3965    4.5406    0.0062 C   0  0  0  0  0  0  0  0  0  0  0  0
   -1.3964    4.5405   -0.0059 C   0  0  0  0  0  0  0  0  0  0  0  0
    0.6968    5.7476    0.0036 C   0  0  0  0  0  0  0  0  0  0  0  0
   -0.6967    5.7475   -0.0026 C   0  0  0  0  0  0  0  0  0  0  0  0
    7.1684   -2.5288    0.0093 C   0  0  0  0  0  0  0  0  0  0  0  0
   -7.1685   -2.5287   -0.0092 C   0  0  0  0  0  0  0  0  0  0  0  0
    7.9223   -3.8490   -0.0019 C   0  0  0  0  0  0  0  0  0  0  0  0
   -7.9223   -3.8489    0.0022 C   0  0  0  0  0  0  0  0  0  0  0  0
  1 13  2  0
  2 14  2  0
  3 29  1  0
  4 30  1  0
  5 11  1  0
  5 19  1  0
  6 12  1  0
  6 20  1  0
  7 21  1  0
  7 27  1  0
  8 22  1  0
  8 28  1  0
  9 10  1  0
  9 11  2  0
  9 13  1  0
 10 12  2  0
 10 14  1  0
 11 17  1  0
 12 18  1  0
 13 15  1  0
 14 16  1  0
 15 16  2  0
 15 23  1  0
 16 24  1  0
 17 18  2  0
 19 21  1  0
 20 22  1  0
 23 25  2  0
 24 26  2  0
 25 26  1  0
 27 29  1  0
 28 30  1  0
M  END
>  <PUBCHEM_COMPOUND_CID>  (1) 
2134

>  <PUBCHEM_CONFORMER_RMSD>  (1) 
1

>  <PUBCHEM_CONFORMER_DIVERSEORDER>  (1) 
1
25
30
22
15
34
24
28
23
41
18
4
21
17
42
36
20
43
40
26
32
9
27
14
38
29
16
10
37
13
39
19
33
11
8
12
2
31
35
3
6
7
5

>  <PUBCHEM_MMFF94_PARTIAL_CHARGES>  (1) 
42
1 -0.57
10 0.09
11 0.1
12 0.1
13 0.4
14 0.4
15 0.09
16 0.09
17 -0.15
18 -0.15
19 0.37
2 -0.57
20 0.37
21 0.27
22 0.27
23 -0.15
24 -0.15
25 -0.15
26 -0.15
27 0.27
28 0.27
29 0.28
3 -0.68
30 0.28
31 0.15
32 0.15
33 0.4
34 0.4
4 -0.68
43 0.15
44 0.15
45 0.15
46 0.15
47 0.36
48 0.36
5 -0.87
57 0.4
58 0.4
6 -0.87
7 -0.9
8 -0.9
9 0.09

>  <PUBCHEM_EFFECTIVE_ROTOR_COUNT>  (1) 
12

>  <PUBCHEM_PHARMACOPHORE_FEATURES>  (1) 
17
1 1 acceptor
1 2 acceptor
1 3 acceptor
1 3 donor
1 4 acceptor
1 4 donor
1 5 cation
1 5 donor
1 6 cation
1 6 donor
1 7 cation
1 7 donor
1 8 cation
1 8 donor
6 15 16 23 24 25 26 rings
6 9 10 11 12 17 18 rings
6 9 10 13 14 15 16 rings

>  <PUBCHEM_HEAVY_ATOM_COUNT>  (1) 
30

>  <PUBCHEM_ATOM_DEF_STEREO_COUNT>  (1) 
0

>  <PUBCHEM_ATOM_UDEF_STEREO_COUNT>  (1) 
0

>  <PUBCHEM_BOND_DEF_STEREO_COUNT>  (1) 
0

>  <PUBCHEM_BOND_UDEF_STEREO_COUNT>  (1) 
0

>  <PUBCHEM_ISOTOPIC_ATOM_COUNT>  (1) 
0

>  <PUBCHEM_COMPONENT_COUNT>  (1) 
1

>  <PUBCHEM_CACTVS_TAUTO_COUNT>  (1) 
6

>  <PUBCHEM_CONFORMER_ID>  (1) 
0000085600000001

>  <PUBCHEM_MMFF94_ENERGY>  (1) 
84.7763

>  <PUBCHEM_FEATURE_SELFOVERLAP>  (1) 
86.317

>  <PUBCHEM_SHAPE_FINGERPRINT>  (1) 
10411042 1 18410856559645317667
11672396 167 18269549598590664439
12107183 9 18341907260385468705
13140716 1 18411419466644226720
13248334 5 18050004686093753312
13785724 45 18410853300033912369
138480 1 14880032922778848708
15042514 8 18339361842820686616
15773216 30 18119253006732480380
16087824 20 18122624947646331461
16992752 21 18338243670166924686
20771845 65 18271527589051309331
21927370 108 18410866434255452443
22311459 1 18122343480309417792
22899556 105 18338251422708929878
23523766 6 18335140929076303380
23523787 8 15719388464752496987
25242607 90 18341886415739290266
255183 451 18342182201614693607
3627633 1 18337954476295219285
44280117 145 18266742377837099078
5969126 39 18270108012276775606
6700243 42 17842870774998090638
70251023 43 18408322211360953171
77188 2 18410574019553972285
9981440 41 17255686296331261192

>  <PUBCHEM_SHAPE_MULTIPOLES>  (1) 
573.98
19.05
8.99
0.59
0
12.3
0
-51.57
0
0
0
0
0.03
0.04

>  <PUBCHEM_SHAPE_SELFOVERLAP>  (1) 
1214.967

>  <PUBCHEM_SHAPE_VOLUME>  (1) 
319.8

>  <PUBCHEM_COORDINATE_TYPE>  (1) 
2
5
10

$$$$
