21347
     RDKit          3D

 16 18  0  0  1  0  0  0  0  0999 V2000
    3.9143    1.4406   -0.2188 N   0  0  0  0  0  0  0  0  0  0  0  0
   -2.0161   -2.0078   -0.0695 N   0  0  0  0  0  0  0  0  0  0  0  0
    1.8336    0.1762    0.2546 C   0  0  0  0  0  0  0  0  0  0  0  0
    2.5037   -1.1158   -0.2291 C   0  0  0  0  0  0  0  0  0  0  0  0
    2.8852    1.1618    0.7848 C   0  0  0  0  0  0  0  0  0  0  0  0
    0.7856   -0.1257    1.3236 C   0  0  0  0  0  0  0  0  0  0  0  0
    3.6262   -0.8017   -1.2141 C   0  0  0  0  0  0  0  0  0  0  0  0
    4.6027    0.2184   -0.6338 C   0  0  0  0  0  0  0  0  0  0  0  0
   -0.4909   -0.6410    0.7181 C   0  0  0  0  0  0  0  0  0  0  0  0
   -1.5802    0.1479    0.3043 C   0  0  0  0  0  0  0  0  0  0  0  0
   -0.7661   -1.9530    0.4862 C   0  0  0  0  0  0  0  0  0  0  0  0
   -2.5373   -0.7396   -0.1923 C   0  0  0  0  0  0  0  0  0  0  0  0
   -1.8653    1.5277    0.2949 C   0  0  0  0  0  0  0  0  0  0  0  0
   -3.7702   -0.3144   -0.7000 C   0  0  0  0  0  0  0  0  0  0  0  0
   -3.0944    1.9676   -0.2099 C   0  0  0  0  0  0  0  0  0  0  0  0
   -4.0308    1.0589   -0.6991 C   0  0  0  0  0  0  0  0  0  0  0  0
  1  5  1  0
  1  8  1  0
  2 11  1  0
  2 12  1  0
  3  4  1  0
  3  5  1  0
  3  6  1  0
  4  7  1  0
  6  9  1  0
  7  8  1  0
  9 10  1  0
  9 11  2  0
 10 12  2  0
 10 13  1  0
 12 14  1  0
 13 15  2  0
 14 16  2  0
 15 16  1  0
M  END
>  <PUBCHEM_COMPOUND_CID>  (1) 
21347

>  <PUBCHEM_CONFORMER_RMSD>  (1) 
0.6

>  <PUBCHEM_CONFORMER_DIVERSEORDER>  (1) 
1
15
18
9
28
24
20
29
25
11
27
19
21
30
3
4
22
31
17
12
5
10
2
6
26
16
14
7
23
13
8

>  <PUBCHEM_MMFF94_PARTIAL_CHARGES>  (1) 
19
1 -0.9
11 -0.3
12 -0.15
13 -0.15
14 -0.15
15 -0.15
16 -0.15
2 0.03
28 0.36
29 0.15
30 0.27
31 0.15
32 0.15
33 0.15
34 0.15
5 0.27
6 0.18
8 0.27
9 -0.18

>  <PUBCHEM_EFFECTIVE_ROTOR_COUNT>  (1) 
3.2

>  <PUBCHEM_PHARMACOPHORE_FEATURES>  (1) 
7
1 1 cation
1 1 donor
1 2 cation
1 2 donor
5 2 9 10 11 12 rings
6 1 3 4 5 7 8 rings
6 10 12 13 14 15 16 rings

>  <PUBCHEM_HEAVY_ATOM_COUNT>  (1) 
16

>  <PUBCHEM_ATOM_DEF_STEREO_COUNT>  (1) 
0

>  <PUBCHEM_ATOM_UDEF_STEREO_COUNT>  (1) 
1

>  <PUBCHEM_BOND_DEF_STEREO_COUNT>  (1) 
0

>  <PUBCHEM_BOND_UDEF_STEREO_COUNT>  (1) 
0

>  <PUBCHEM_ISOTOPIC_ATOM_COUNT>  (1) 
0

>  <PUBCHEM_COMPONENT_COUNT>  (1) 
1

>  <PUBCHEM_CACTVS_TAUTO_COUNT>  (1) 
1

>  <PUBCHEM_CONFORMER_ID>  (1) 
0000536300000001

>  <PUBCHEM_MMFF94_ENERGY>  (1) 
17.8803

>  <PUBCHEM_FEATURE_SELFOVERLAP>  (1) 
35.613

>  <PUBCHEM_SHAPE_FINGERPRINT>  (1) 
10498660 4 18188199919129905197
10608611 8 18341048618290835568
11046707 91 12031791357343357448
12173636 292 18408316675232426575
12186901 62 18408889533817941103
12670546 177 18060414733409857935
14123260 362 17603592936578298420
15309172 13 14418135123253677826
15775835 57 17822007584056540036
15885798 251 10735869595600831355
16945 1 18339060645812978483
17134986 127 18047744906494277453
18186145 218 18272089357524863497
193927 3 12895065275524494397
19862831 5 18342738494405436760
200 152 16558753407917994434
20300324 65 18343017813524940069
20361792 2 14692571026539162194
20510252 161 18410013281967261411
20645476 183 17967531285478039251
20645477 56 18409450314380361440
20645477 70 17418382398066629686
20671657 53 15123502593017310234
20871999 31 18341044216102370503
21501925 9 9727339238918159419
21524375 3 18115021883988061683
21637258 2 15194987398101758437
22646028 28 12751235908858217444
22802520 49 18273215317592844835
22854114 59 12829209970580459400
23402539 116 18410282623603227820
23402655 69 18343303643640803772
23557571 272 18265619964198501762
23559900 14 18272087172188408378
25 1 18339926991538757883
2748010 2 17906713050060559659
2838139 119 16372382837336386437
3472631 163 18040715891560747253
4028521 119 18334853909439406901
474 4 17168713049920864628
5161694 15 18273219668632072980
5281201 14 18342465841539621484
93112 12 18413673513057447876
9709674 26 18343022224398519230
9882013 296 11747233358539230888

>  <PUBCHEM_SHAPE_MULTIPOLES>  (1) 
319.31
8.4
1.9
1.02
4
0.09
-0.04
-2.57
3.14
-0.89
-0.05
0.39
0.05
0.45

>  <PUBCHEM_SHAPE_SELFOVERLAP>  (1) 
688.006

>  <PUBCHEM_SHAPE_VOLUME>  (1) 
174.7

>  <PUBCHEM_COORDINATE_TYPE>  (1) 
2
5
10

$$$$
