21346
     RDKit          3D

 16 18  0  0  1  0  0  0  0  0999 V2000
    2.8221   -1.1337    0.7952 N   0  0  0  0  0  0  0  0  0  0  0  0
   -2.0016    2.0115   -0.0680 N   0  0  0  0  0  0  0  0  0  0  0  0
    1.8421   -0.1846    0.2522 C   0  0  0  0  0  0  0  0  0  0  0  0
    2.5324    1.1073   -0.2069 C   0  0  0  0  0  0  0  0  0  0  0  0
    3.6376    0.8141   -1.2177 C   0  0  0  0  0  0  0  0  0  0  0  0
    0.7946    0.1187    1.3218 C   0  0  0  0  0  0  0  0  0  0  0  0
    4.5975   -0.2369   -0.6715 C   0  0  0  0  0  0  0  0  0  0  0  0
    3.8461   -1.4765   -0.1920 C   0  0  0  0  0  0  0  0  0  0  0  0
   -0.4801    0.6387    0.7167 C   0  0  0  0  0  0  0  0  0  0  0  0
   -1.5721   -0.1462    0.3021 C   0  0  0  0  0  0  0  0  0  0  0  0
   -0.7515    1.9518    0.4870 C   0  0  0  0  0  0  0  0  0  0  0  0
   -2.5267    0.7450   -0.1927 C   0  0  0  0  0  0  0  0  0  0  0  0
   -1.8614   -1.5251    0.2907 C   0  0  0  0  0  0  0  0  0  0  0  0
   -3.7610    0.3244   -0.7006 C   0  0  0  0  0  0  0  0  0  0  0  0
   -3.0921   -1.9604   -0.2144 C   0  0  0  0  0  0  0  0  0  0  0  0
   -4.0258   -1.0481   -0.7019 C   0  0  0  0  0  0  0  0  0  0  0  0
  1  3  1  0
  1  8  1  0
  2 11  1  0
  2 12  1  0
  3  4  1  0
  3  6  1  0
  4  5  1  0
  5  7  1  0
  6  9  1  0
  7  8  1  0
  9 10  1  0
  9 11  2  0
 10 12  2  0
 10 13  1  0
 12 14  1  0
 13 15  2  0
 14 16  2  0
 15 16  1  0
M  END
>  <PUBCHEM_COMPOUND_CID>  (1) 
21346

>  <PUBCHEM_CONFORMER_RMSD>  (1) 
0.6

>  <PUBCHEM_CONFORMER_DIVERSEORDER>  (1) 
1
12
34
13
5
29
26
2
33
21
3
6
22
20
24
15
8
31
30
32
11
19
28
9
27
7
4
17
18
25
16
10
23
14

>  <PUBCHEM_MMFF94_PARTIAL_CHARGES>  (1) 
19
1 -0.9
11 -0.3
12 -0.15
13 -0.15
14 -0.15
15 -0.15
16 -0.15
2 0.03
28 0.36
29 0.15
3 0.27
30 0.27
31 0.15
32 0.15
33 0.15
34 0.15
6 0.18
8 0.27
9 -0.18

>  <PUBCHEM_EFFECTIVE_ROTOR_COUNT>  (1) 
3.2

>  <PUBCHEM_PHARMACOPHORE_FEATURES>  (1) 
7
1 1 cation
1 1 donor
1 2 cation
1 2 donor
5 2 9 10 11 12 rings
6 1 3 4 5 7 8 rings
6 10 12 13 14 15 16 rings

>  <PUBCHEM_HEAVY_ATOM_COUNT>  (1) 
16

>  <PUBCHEM_ATOM_DEF_STEREO_COUNT>  (1) 
0

>  <PUBCHEM_ATOM_UDEF_STEREO_COUNT>  (1) 
1

>  <PUBCHEM_BOND_DEF_STEREO_COUNT>  (1) 
0

>  <PUBCHEM_BOND_UDEF_STEREO_COUNT>  (1) 
0

>  <PUBCHEM_ISOTOPIC_ATOM_COUNT>  (1) 
0

>  <PUBCHEM_COMPONENT_COUNT>  (1) 
1

>  <PUBCHEM_CACTVS_TAUTO_COUNT>  (1) 
1

>  <PUBCHEM_CONFORMER_ID>  (1) 
0000536200000001

>  <PUBCHEM_MMFF94_ENERGY>  (1) 
13.884

>  <PUBCHEM_FEATURE_SELFOVERLAP>  (1) 
35.613

>  <PUBCHEM_SHAPE_FINGERPRINT>  (1) 
10465860 71 18409728503891713357
10616163 171 18341615897281524230
11127187 94 18411695496071280815
11543360 7 18186522132936064286
12363563 72 17275385399982985280
12553582 1 18412542149973557363
12670546 177 18259704510294872214
12707595 3 17418372510756436984
12892183 10 11455893572036055277
13296908 3 17988637536169378769
13764800 53 11819277728325349319
14250199 8 17895204328323838596
14576447 43 18410012144001452710
16752209 62 18340472379845536099
16945 1 18337933654989717417
17804303 29 18060136566006182369
17870717 6 18200606808210810958
1813 80 14548752720073555992
18186145 218 16950280715118184802
18915474 69 18410856581415507998
19862831 5 18040433299987172610
200 152 18408604773080264910
20281475 54 18273497883628548051
20300324 65 18410015437850984948
20361792 2 16056879130601875496
20374829 77 18272926137666571887
20645476 183 17821722841095371331
20671657 53 18201159939710958488
20871999 31 18335415781740853407
21634736 98 18336828692689551598
22950370 63 18338525252338320091
23382010 3 17458623479327946273
23402539 116 18410008810610874444
23402655 69 18113621145076887548
23403322 49 18202003209310614734
23500284 214 11963385232910428015
23557571 272 18201427065676693864
23559900 14 18341886411923506728
23598291 2 17897156919208985218
2748010 2 18049420833177450657
2871803 45 18411134762057486878
3082319 5 18334016086047848114
4028521 119 17385438804288294365
42 15 11887959851941746542
465052 167 17915745473590171775
474 4 17023193781248759908
559249 180 18120368766306049682
57096353 35 18261401074064060252
67856867 119 18261386793772924744
93112 12 18334859411461071092
9709674 26 18341057328484862662

>  <PUBCHEM_SHAPE_MULTIPOLES>  (1) 
319.31
8.45
1.92
1.01
4.14
0.06
0.03
-2.7
-3.12
-0.86
0.03
0.36
0.05
-0.39

>  <PUBCHEM_SHAPE_SELFOVERLAP>  (1) 
687.607

>  <PUBCHEM_SHAPE_VOLUME>  (1) 
175.9

>  <PUBCHEM_COORDINATE_TYPE>  (1) 
2
5
10

$$$$
