21348
     RDKit          3D

 11 11  0  0  0  0  0  0  0  0999 V2000
    0.0161    0.5028   -0.0001 O   0  0  0  0  0  0  0  0  0  0  0  0
   -3.4170   -0.4248    0.0000 O   0  0  0  0  0  0  0  0  0  0  0  0
    3.4247   -0.2789    0.0008 O   0  0  0  0  0  0  0  0  0  0  0  0
    2.3694    1.6461   -0.0005 O   0  0  0  0  0  0  0  0  0  0  0  0
    2.3430    0.3799    0.0001 N   0  0  0  0  0  0  0  0  0  0  0  0
   -1.0603   -0.3268    0.0000 C   0  0  0  0  0  0  0  0  0  0  0  0
   -0.6570   -1.6417    0.0000 C   0  0  0  0  0  0  0  0  0  0  0  0
    1.1187   -0.2913   -0.0004 C   0  0  0  0  0  0  0  0  0  0  0  0
    0.7581   -1.6187   -0.0004 C   0  0  0  0  0  0  0  0  0  0  0  0
   -2.3560    0.2618    0.0003 C   0  0  0  0  0  0  0  0  0  0  0  0
   -2.5396    1.7916    0.0002 C   0  0  0  0  0  0  0  0  0  0  0  0
  1  6  1  0
  1  8  1  0
  2 10  2  0
  3  5  1  0
  4  5  2  0
  5  8  1  0
  6  7  2  0
  6 10  1  0
  7  9  1  0
  8  9  2  0
 10 11  1  0
M  CHG  2   3  -1   5   1
M  END
>  <PUBCHEM_COMPOUND_CID>  (1) 
21348

>  <PUBCHEM_CONFORMER_RMSD>  (1) 
0.4

>  <PUBCHEM_CONFORMER_DIVERSEORDER>  (1) 
1
3
2
4

>  <PUBCHEM_MMFF94_PARTIAL_CHARGES>  (1) 
13
1 -0.28
10 0.59
11 0.06
12 0.15
13 0.15
2 -0.57
3 -0.52
4 -0.52
5 0.96
6 0.05
7 -0.15
8 0.22
9 -0.15

>  <PUBCHEM_EFFECTIVE_ROTOR_COUNT>  (1) 
2

>  <PUBCHEM_PHARMACOPHORE_FEATURES>  (1) 
6
1 1 acceptor
1 2 acceptor
1 3 acceptor
1 3 anion
1 4 acceptor
5 1 6 7 8 9 rings

>  <PUBCHEM_HEAVY_ATOM_COUNT>  (1) 
11

>  <PUBCHEM_ATOM_DEF_STEREO_COUNT>  (1) 
0

>  <PUBCHEM_ATOM_UDEF_STEREO_COUNT>  (1) 
0

>  <PUBCHEM_BOND_DEF_STEREO_COUNT>  (1) 
0

>  <PUBCHEM_BOND_UDEF_STEREO_COUNT>  (1) 
0

>  <PUBCHEM_ISOTOPIC_ATOM_COUNT>  (1) 
0

>  <PUBCHEM_COMPONENT_COUNT>  (1) 
1

>  <PUBCHEM_CACTVS_TAUTO_COUNT>  (1) 
2

>  <PUBCHEM_CONFORMER_ID>  (1) 
0000536400000001

>  <PUBCHEM_MMFF94_ENERGY>  (1) 
16.2971

>  <PUBCHEM_FEATURE_SELFOVERLAP>  (1) 
30.54

>  <PUBCHEM_SHAPE_FINGERPRINT>  (1) 
12897270 3 18411979148538375165
12932764 1 17346585362224614499
13380535 76 18410291406490068851
14325111 11 18410856555344861248
14390081 3 18411981343108479249
16945 1 18410856572598810823
19973954 147 18267305326914430545
20653085 51 18341061756263257240
21028194 46 18411140242229716368
21040471 1 18410855468781620774
23402539 116 18342163497316774191
23402655 69 18125142859153593509
23552423 10 18194682571078396263
2748010 2 18266180522113394367
5084963 1 18202283610545163537

>  <PUBCHEM_SHAPE_MULTIPOLES>  (1) 
197.92
4.75
1.72
0.57
0.24
0.13
0
1.55
0
-0.12
0
-0.05
-0.02
0

>  <PUBCHEM_SHAPE_SELFOVERLAP>  (1) 
412.38

>  <PUBCHEM_SHAPE_VOLUME>  (1) 
113.8

>  <PUBCHEM_COORDINATE_TYPE>  (1) 
2
5
10

$$$$
