21340
     RDKit          3D

 26 26  0  0  0  0  0  0  0  0999 V2000
   -2.7636    1.8109    0.1787 O   0  0  0  0  0  0  0  0  0  0  0  0
    2.7575    1.8156    0.1936 O   0  0  0  0  0  0  0  0  0  0  0  0
   -5.4360   -0.7848   -0.0372 N   0  0  0  0  0  0  0  0  0  0  0  0
    5.3905   -0.7715   -0.0932 N   0  0  0  0  0  0  0  0  0  0  0  0
   -4.7392    0.5397   -0.3138 C   0  0  0  0  0  0  0  0  0  0  0  0
    4.7373    0.5449   -0.3046 C   0  0  0  0  0  0  0  0  0  0  0  0
   -6.0697   -0.7455    1.3460 C   0  0  0  0  0  0  0  0  0  0  0  0
   -6.5163   -1.0177   -1.0836 C   0  0  0  0  0  0  0  0  0  0  0  0
   -4.4193   -1.9155   -0.0972 C   0  0  0  0  0  0  0  0  0  0  0  0
    6.7285   -0.8421   -0.8416 C   0  0  0  0  0  0  0  0  0  0  0  0
    4.4973   -1.9105   -0.6033 C   0  0  0  0  0  0  0  0  0  0  0  0
    5.6642   -1.0104    1.3979 C   0  0  0  0  0  0  0  0  0  0  0  0
   -3.4039    0.5619    0.4034 C   0  0  0  0  0  0  0  0  0  0  0  0
    3.4073    0.5661    0.4225 C   0  0  0  0  0  0  0  0  0  0  0  0
   -6.7610   -2.0642    1.6151 C   0  0  0  0  0  0  0  0  0  0  0  0
   -7.5239    0.1092   -1.0190 C   0  0  0  0  0  0  0  0  0  0  0  0
   -3.7928   -1.9497   -1.4741 C   0  0  0  0  0  0  0  0  0  0  0  0
    7.6579    0.2231   -0.3023 C   0  0  0  0  0  0  0  0  0  0  0  0
    4.2113   -1.6991   -2.0740 C   0  0  0  0  0  0  0  0  0  0  0  0
    6.3635   -2.3413    1.5691 C   0  0  0  0  0  0  0  0  0  0  0  0
   -1.3931    1.8124    0.1826 C   0  0  0  0  0  0  0  0  0  0  0  0
    1.3965    1.8146    0.1900 C   0  0  0  0  0  0  0  0  0  0  0  0
   -0.6969    0.8917    0.9659 C   0  0  0  0  0  0  0  0  0  0  0  0
    0.6978    0.8928    0.9696 C   0  0  0  0  0  0  0  0  0  0  0  0
   -0.6943    2.7341   -0.5970 C   0  0  0  0  0  0  0  0  0  0  0  0
    0.7005    2.7352   -0.5933 C   0  0  0  0  0  0  0  0  0  0  0  0
  1 13  1  0
  1 21  1  0
  2 14  1  0
  2 22  1  0
  3  5  1  0
  3  7  1  0
  3  8  1  0
  3  9  1  0
  4  6  1  0
  4 10  1  0
  4 11  1  0
  4 12  1  0
  5 13  1  0
  6 14  1  0
  7 15  1  0
  8 16  1  0
  9 17  1  0
 10 18  1  0
 11 19  1  0
 12 20  1  0
 21 23  2  0
 21 25  1  0
 22 24  2  0
 22 26  1  0
 23 24  1  0
 25 26  2  0
M  CHG  2   3   1   4   1
M  END
>  <PUBCHEM_COMPOUND_CID>  (1) 
21340

>  <PUBCHEM_CONFORMER_RMSD>  (1) 
1.4

>  <PUBCHEM_CONFORMER_DIVERSEORDER>  (1) 
1
5
6
4
7
2
9
3
8

>  <PUBCHEM_MMFF94_PARTIAL_CHARGES>  (1) 
24
1 -0.36
10 0.5
11 0.5
12 0.5
13 0.28
14 0.28
2 -0.36
21 0.08
22 0.08
23 -0.15
24 -0.15
25 -0.15
26 -0.15
3 -1.01
4 -1.01
5 0.5
6 0.5
65 0.15
66 0.15
67 0.15
68 0.15
7 0.5
8 0.5
9 0.5

>  <PUBCHEM_EFFECTIVE_ROTOR_COUNT>  (1) 
14

>  <PUBCHEM_PHARMACOPHORE_FEATURES>  (1) 
5
1 1 acceptor
1 2 acceptor
1 3 cation
1 4 cation
6 21 22 23 24 25 26 rings

>  <PUBCHEM_HEAVY_ATOM_COUNT>  (1) 
26

>  <PUBCHEM_ATOM_DEF_STEREO_COUNT>  (1) 
0

>  <PUBCHEM_ATOM_UDEF_STEREO_COUNT>  (1) 
0

>  <PUBCHEM_BOND_DEF_STEREO_COUNT>  (1) 
0

>  <PUBCHEM_BOND_UDEF_STEREO_COUNT>  (1) 
0

>  <PUBCHEM_ISOTOPIC_ATOM_COUNT>  (1) 
0

>  <PUBCHEM_COMPONENT_COUNT>  (1) 
1

>  <PUBCHEM_CACTVS_TAUTO_COUNT>  (1) 
1

>  <PUBCHEM_CONFORMER_ID>  (1) 
0000535C00000001

>  <PUBCHEM_MMFF94_ENERGY>  (1) 
122.2717

>  <PUBCHEM_FEATURE_SELFOVERLAP>  (1) 
25.371

>  <PUBCHEM_SHAPE_FINGERPRINT>  (1) 
10 15 12967126138179961049
11069576 57 16879336828292794218
11524674 6 16773793701856042621
11809386 21 18188485766293548425
12422481 6 17704077287134718423
12760667 363 18202563982364352785
12778500 126 11671784837310177884
13673619 4 18272650151431673768
13685833 64 18412548720941184840
13690498 29 18113612374732947229
13782708 43 18342453729431348392
14216079 64 18413385437101099327
14251764 30 17895194445730606299
14347332 77 18335981982584299052
15183329 4 18413387648397788123
15352257 5 18272933825404733214
15510800 12 18341063951234879118
17857418 61 18343019999431068118
18335252 114 12035722146289327432
20028762 73 18130785663858270614
21267235 1 18334298704034732857
21585482 310 18337123336084023279
21637258 2 18272644654063230841
23424784 1240 18058741199835949542
23522609 53 18121533247846869472
23559900 14 18264762333019700225
2838139 119 11602820228502962650
3004659 81 18260824921049251104
312425 54 16702303464281763447
32027 91 18270109240800900313
397830 11 17346021355778044848
439807 62 18186798045888116946
465052 167 18412830192108231268
5470011 282 17458068174838285470
559249 180 18412542094751074345
5718773 13 18262794056934620178
59682541 52 13984936274296047216
999808 66 18187656829579767651

>  <PUBCHEM_SHAPE_MULTIPOLES>  (1) 
513.37
23.02
2.89
1.48
0.85
0.63
0.04
-15.94
0.19
-0.19
0.12
0.01
-0.96
0.15

>  <PUBCHEM_SHAPE_SELFOVERLAP>  (1) 
1007.933

>  <PUBCHEM_SHAPE_VOLUME>  (1) 
312.3

>  <PUBCHEM_COORDINATE_TYPE>  (1) 
2
5
10

$$$$
