21354
     RDKit          3D

 12 11  0  0  0  0  0  0  0  0999 V2000
    5.4002    1.3044   -0.0046 Cl  0  0  0  0  0  0  0  0  0  0  0  0
    4.1083   -1.2125    1.6461 Cl  0  0  0  0  0  0  0  0  0  0  0  0
    4.1124   -1.2316   -1.6292 Cl  0  0  0  0  0  0  0  0  0  0  0  0
    3.8966   -0.0513    0.0013 Si  0  0  0  0  0  4  0  0  0  0  0  0
   -1.5398   -0.2387   -0.0071 C   0  0  0  0  0  0  0  0  0  0  0  0
   -0.3298    0.6984   -0.0165 C   0  0  0  0  0  0  0  0  0  0  0  0
   -2.8518    0.5471    0.0230 C   0  0  0  0  0  0  0  0  0  0  0  0
    0.9835   -0.0925   -0.0022 C   0  0  0  0  0  0  0  0  0  0  0  0
   -4.0614   -0.3888   -0.0022 C   0  0  0  0  0  0  0  0  0  0  0  0
    2.2319    0.7986   -0.0057 C   0  0  0  0  0  0  0  0  0  0  0  0
   -5.3726    0.3969   -0.0058 C   0  0  0  0  0  0  0  0  0  0  0  0
   -6.5776   -0.5301    0.0029 C   0  0  0  0  0  0  0  0  0  0  0  0
  1  4  1  0
  2  4  1  0
  3  4  1  0
  4 10  1  0
  5  6  1  0
  5  7  1  0
  6  8  1  0
  7  9  1  0
  8 10  1  0
  9 11  1  0
 11 12  1  0
M  END
>  <PUBCHEM_COMPOUND_CID>  (1) 
21354

>  <PUBCHEM_CONFORMER_RMSD>  (1) 
0.8

>  <PUBCHEM_CONFORMER_DIVERSEORDER>  (1) 
1
50
34
43
41
18
49
14
13
47
42
6
22
31
10
45
44
2
62
23
21
26
58
4
17
37
11
5
30
48
39
9
15
24
19
8
40
46
57
35
3
59
61
7
52
16
20
55
27
60
53
12
33
56
54
28
25
36
32
29
51
38

>  <PUBCHEM_MMFF94_PARTIAL_CHARGES>  (1) 
5
1 -0.37
10 -0.08
2 -0.37
3 -0.37
4 1.19

>  <PUBCHEM_EFFECTIVE_ROTOR_COUNT>  (1) 
7

>  <PUBCHEM_PHARMACOPHORE_FEATURES>  (1) 
3
1 12 hydrophobe
3 5 6 8 hydrophobe
3 7 9 11 hydrophobe

>  <PUBCHEM_HEAVY_ATOM_COUNT>  (1) 
12

>  <PUBCHEM_ATOM_DEF_STEREO_COUNT>  (1) 
0

>  <PUBCHEM_ATOM_UDEF_STEREO_COUNT>  (1) 
0

>  <PUBCHEM_BOND_DEF_STEREO_COUNT>  (1) 
0

>  <PUBCHEM_BOND_UDEF_STEREO_COUNT>  (1) 
0

>  <PUBCHEM_ISOTOPIC_ATOM_COUNT>  (1) 
0

>  <PUBCHEM_COMPONENT_COUNT>  (1) 
1

>  <PUBCHEM_CACTVS_TAUTO_COUNT>  (1) 
1

>  <PUBCHEM_CONFORMER_ID>  (1) 
0000536A00000001

>  <PUBCHEM_MMFF94_ENERGY>  (1) 
-1.4882

>  <PUBCHEM_FEATURE_SELFOVERLAP>  (1) 
15.236

>  <PUBCHEM_SHAPE_FINGERPRINT>  (1) 
13073987 5 18041272180157126328
13533116 47 16271934770268362366
13955234 65 17704351066321500202
14123238 8 18131069341910077753
1420 363 18261117383253548259
14251718 22 18411420630706457605
14252887 29 18343588430453758200
17834072 33 18113615690315297803
17834076 25 17060340734058329000
20281389 69 17676766466911644685
20645477 70 17917718950943314406
220451 1 17967257490108309355
22485316 2 18113053852637041370
23402539 116 18409442584240991069
23557571 272 16558762195316133161
300161 21 18342733052819068140
42788 4 18410575093585543757
522135 26 17240483594124801522
5374978 207 18201995526014899568
57483677 66 18187362147314838315

>  <PUBCHEM_SHAPE_MULTIPOLES>  (1) 
270.78
15.93
1.22
1.12
22.32
0.04
0.01
1.01
0.01
-1.56
-0.01
-1.87
0.54
0

>  <PUBCHEM_SHAPE_SELFOVERLAP>  (1) 
453.692

>  <PUBCHEM_SHAPE_VOLUME>  (1) 
184.5

>  <PUBCHEM_COORDINATE_TYPE>  (1) 
2
5
10

$$$$
