21361
     RDKit          3D

 23 25  0  0  1  0  0  0  0  0999 V2000
   -3.3554   -3.2163    0.7380 Cl  0  0  0  0  0  0  0  0  0  0  0  0
   -0.5082    1.2517    0.5232 O   0  0  0  0  0  0  0  0  0  0  0  0
    2.1890   -1.7035   -0.5277 N   0  0  0  0  0  0  0  0  0  0  0  0
   -4.0422    2.0391   -0.2472 N   0  0  0  0  0  0  0  0  0  0  0  0
    2.1421    2.0687   -0.0545 C   0  0  0  0  0  0  0  0  0  0  0  0
    1.7103    0.6295   -0.1180 C   0  0  0  0  0  0  0  0  0  0  0  0
    3.2163    2.3251    1.0027 C   0  0  0  0  0  0  0  0  0  0  0  0
    4.6246    1.9224    0.5671 C   0  0  0  0  0  0  0  0  0  0  0  0
    4.8247    0.4239    0.3444 C   0  0  0  0  0  0  0  0  0  0  0  0
    4.0165   -0.1382   -0.8238 C   0  0  0  0  0  0  0  0  0  0  0  0
    2.5763   -0.4013   -0.4725 C   0  0  0  0  0  0  0  0  0  0  0  0
    0.3913    0.2783    0.1814 C   0  0  0  0  0  0  0  0  0  0  0  0
   -0.0285   -1.0567    0.1299 C   0  0  0  0  0  0  0  0  0  0  0  0
   -1.6507    1.3923   -0.3140 C   0  0  0  0  0  0  0  0  0  0  0  0
    0.9178   -2.0294   -0.2342 C   0  0  0  0  0  0  0  0  0  0  0  0
   -2.8222    1.8923    0.5346 C   0  0  0  0  0  0  0  0  0  0  0  0
   -1.3504   -1.4288    0.4303 C   0  0  0  0  0  0  0  0  0  0  0  0
   -1.2800    2.3458   -1.4428 C   0  0  0  0  0  0  0  0  0  0  0  0
    0.5066   -3.3586   -0.2866 C   0  0  0  0  0  0  0  0  0  0  0  0
   -1.7370   -2.7644    0.3704 C   0  0  0  0  0  0  0  0  0  0  0  0
   -0.8063   -3.7311    0.0112 C   0  0  0  0  0  0  0  0  0  0  0  0
   -5.1512    2.4784    0.6027 C   0  0  0  0  0  0  0  0  0  0  0  0
   -4.3834    0.7810   -0.9145 C   0  0  0  0  0  0  0  0  0  0  0  0
  1 20  1  0
  2 12  1  0
  2 14  1  0
  3 11  2  0
  3 15  1  0
  4 16  1  0
  4 22  1  0
  4 23  1  0
  5  6  1  0
  5  7  1  0
  6 11  1  0
  6 12  2  0
  7  8  1  0
  8  9  1  0
  9 10  1  0
 10 11  1  0
 12 13  1  0
 13 15  2  0
 13 17  1  0
 14 16  1  0
 14 18  1  0
 15 19  1  0
 17 20  2  0
 19 21  2  0
 20 21  1  0
M  END
>  <PUBCHEM_COMPOUND_CID>  (1) 
21361

>  <PUBCHEM_CONFORMER_RMSD>  (1) 
0.8

>  <PUBCHEM_CONFORMER_DIVERSEORDER>  (1) 
1
31
20
26
16
33
27
18
3
2
32
7
15
24
9
23
29
19
22
5
28
6
35
25
17
4
10
8
11
14
30
36
13
34
21
12

>  <PUBCHEM_MMFF94_PARTIAL_CHARGES>  (1) 
21
1 -0.18
10 0.14
11 0.17
12 0.08
14 0.28
15 0.31
16 0.27
17 -0.15
19 -0.15
2 -0.36
20 0.18
21 -0.15
22 0.27
23 0.27
3 -0.62
37 0.15
4 -0.81
41 0.15
42 0.15
5 0.14
6 -0.14

>  <PUBCHEM_EFFECTIVE_ROTOR_COUNT>  (1) 
5

>  <PUBCHEM_PHARMACOPHORE_FEATURES>  (1) 
6
1 2 acceptor
1 3 acceptor
1 4 cation
6 13 15 17 19 20 21 rings
6 3 6 11 12 13 15 rings
7 5 6 7 8 9 10 11 rings

>  <PUBCHEM_HEAVY_ATOM_COUNT>  (1) 
23

>  <PUBCHEM_ATOM_DEF_STEREO_COUNT>  (1) 
0

>  <PUBCHEM_ATOM_UDEF_STEREO_COUNT>  (1) 
1

>  <PUBCHEM_BOND_DEF_STEREO_COUNT>  (1) 
0

>  <PUBCHEM_BOND_UDEF_STEREO_COUNT>  (1) 
0

>  <PUBCHEM_ISOTOPIC_ATOM_COUNT>  (1) 
0

>  <PUBCHEM_COMPONENT_COUNT>  (1) 
1

>  <PUBCHEM_CACTVS_TAUTO_COUNT>  (1) 
1

>  <PUBCHEM_CONFORMER_ID>  (1) 
0000537100000001

>  <PUBCHEM_MMFF94_ENERGY>  (1) 
75.8245

>  <PUBCHEM_FEATURE_SELFOVERLAP>  (1) 
30.486

>  <PUBCHEM_SHAPE_FINGERPRINT>  (1) 
10165383 225 18263659372227009764
10319926 262 18268975636213125432
10411042 1 17402048297953733502
10688039 33 17827360191967010003
10693767 8 17699284356883096086
10967382 1 18194125105397239886
1100329 8 18193554467822078842
11370993 70 18411979148216836185
11578080 2 16700033084133464891
12422481 6 18119558611178143875
12553582 1 16392682836851926275
12730499 353 18265906765509653137
12788726 201 17829328330343488128
13140716 1 18409728439440810906
13540713 4 18201167662963768988
138480 1 17474107596861056175
14787075 74 18130779058335640921
14790565 3 18339088090016527661
14955137 171 17760078528178830602
17357779 13 18051680333604072071
19591789 44 18337673001281111166
21041028 32 17757276246843792915
21197605 99 18411992369133936891
21236236 1 18339922722325317815
21524375 3 18260830337197832954
21796203 349 17257966709422710131
22182313 1 18269571557586342854
23419403 2 17413913982289076479
23557571 272 18194970862199490668
23558518 356 18117558655135017992
23559900 14 18343304752343467014
23845131 108 18335422306155177643
2748010 2 18338531827294875206
3052486 1 18187645864047926718
335352 9 18339925914319585878
350125 39 18195817494938439672
352729 6 18411708689746564384
4340502 62 18341335505063710017
469060 322 16660915686459977295
474 4 18342454790372874225
633830 44 18129937880274223541
6443956 14 17401209967375784277
7164475 11 18047473610579469948
81228 2 18044940318419073472
9709674 26 18343303695174961422
9777508 108 18340203089374656657

>  <PUBCHEM_SHAPE_MULTIPOLES>  (1) 
459.37
8.62
4.62
0.95
0.65
3.11
0.1
-6.56
-0.95
-4.1
-0.32
-0.1
-0.32
1.15

>  <PUBCHEM_SHAPE_SELFOVERLAP>  (1) 
966.159

>  <PUBCHEM_SHAPE_VOLUME>  (1) 
260.7

>  <PUBCHEM_COORDINATE_TYPE>  (1) 
2
5
10

$$$$
