21369
     RDKit          3D

 14 15  0  0  0  0  0  0  0  0999 V2000
   -4.9792    1.2638   -0.8511 Br  0  0  0  0  0  0  0  0  0  0  0  0
    5.2338    0.4595   -0.0807 Cl  0  0  0  0  0  0  0  0  0  0  0  0
   -2.5891   -1.2365   -0.2474 O   0  0  0  0  0  0  0  0  0  0  0  0
   -1.2239   -1.4001   -0.4482 N   0  0  0  0  0  0  0  0  0  0  0  0
    0.7610   -0.1139    0.0251 C   0  0  0  0  0  0  0  0  0  0  0  0
   -0.6631   -0.2964    0.0576 C   0  0  0  0  0  0  0  0  0  0  0  0
   -1.6194    0.5900    0.5862 C   0  0  0  0  0  0  0  0  0  0  0  0
   -2.8121   -0.0478    0.3693 C   0  0  0  0  0  0  0  0  0  0  0  0
    1.2976    1.1711   -0.0543 C   0  0  0  0  0  0  0  0  0  0  0  0
    1.6074   -1.2217    0.0717 C   0  0  0  0  0  0  0  0  0  0  0  0
    2.6808    1.3483   -0.0872 C   0  0  0  0  0  0  0  0  0  0  0  0
    2.9906   -1.0445    0.0389 C   0  0  0  0  0  0  0  0  0  0  0  0
   -4.2117    0.2876    0.6606 C   0  0  0  0  0  0  0  0  0  0  0  0
    3.5274    0.2406   -0.0406 C   0  0  0  0  0  0  0  0  0  0  0  0
  1 13  1  0
  2 14  1  0
  3  4  1  0
  3  8  1  0
  4  6  2  0
  5  6  1  0
  5  9  2  0
  5 10  1  0
  6  7  1  0
  7  8  2  0
  8 13  1  0
  9 11  1  0
 10 12  2  0
 11 14  2  0
 12 14  1  0
M  END
>  <PUBCHEM_COMPOUND_CID>  (1) 
21369

>  <PUBCHEM_CONFORMER_RMSD>  (1) 
0.6

>  <PUBCHEM_CONFORMER_DIVERSEORDER>  (1) 
1
5
2
3
4

>  <PUBCHEM_MMFF94_PARTIAL_CHARGES>  (1) 
19
1 -0.23
10 -0.15
11 -0.15
12 -0.15
13 0.41
14 0.18
15 0.15
16 0.15
17 0.15
18 0.15
19 0.15
2 -0.18
3 -0.02
4 -0.41
5 0.05
6 0.23
7 -0.15
8 -0.04
9 -0.15

>  <PUBCHEM_EFFECTIVE_ROTOR_COUNT>  (1) 
2

>  <PUBCHEM_PHARMACOPHORE_FEATURES>  (1) 
4
1 1 hydrophobe
1 4 acceptor
5 3 4 6 7 8 rings
6 5 9 10 11 12 14 rings

>  <PUBCHEM_HEAVY_ATOM_COUNT>  (1) 
14

>  <PUBCHEM_ATOM_DEF_STEREO_COUNT>  (1) 
0

>  <PUBCHEM_ATOM_UDEF_STEREO_COUNT>  (1) 
0

>  <PUBCHEM_BOND_DEF_STEREO_COUNT>  (1) 
0

>  <PUBCHEM_BOND_UDEF_STEREO_COUNT>  (1) 
0

>  <PUBCHEM_ISOTOPIC_ATOM_COUNT>  (1) 
0

>  <PUBCHEM_COMPONENT_COUNT>  (1) 
1

>  <PUBCHEM_CACTVS_TAUTO_COUNT>  (1) 
1

>  <PUBCHEM_CONFORMER_ID>  (1) 
0000537900000001

>  <PUBCHEM_MMFF94_ENERGY>  (1) 
23.0713

>  <PUBCHEM_FEATURE_SELFOVERLAP>  (1) 
20.297

>  <PUBCHEM_SHAPE_FINGERPRINT>  (1) 
10014705 185 18410570721245571901
11089746 13 17846771910662062480
11401426 45 18342173384384217280
11471102 20 18411418384559699236
11543360 7 14764339466367762921
12251169 10 18412266146616142640
12500047 106 18408881867090347235
13214271 11 17967817167312325707
13380535 76 18272375273529770375
13675066 3 18114187440698913113
13922767 16 18411135831309067337
14144814 61 18343026574957459202
14897335 6 18343301470202599159
14993402 34 18060420209345369364
15048467 5 17822014216003192100
15775835 57 18412831304050878810
17834072 33 18201716292678619519
17834072 8 18342462521593088364
18186145 218 18341338829220320683
18522853 276 18343586235261577784
200 152 17846775204885920205
20279233 1 17821455655084185171
20645477 56 18186799175944563821
20645477 70 18341895125958690639
21119208 17 18344149197962503824
21267235 1 18341343274195214314
231179 274 18334012770058821637
23402539 116 16845574192993870185
23402655 69 18341891870536614173
23559900 14 17846780745826352904
300161 21 18412819196902009802
3268164 11 15984821489820603761
34934 24 18410849958454533666
3545911 37 18412830191828428979
4072396 5 18336814317835029770
5104073 3 18339924917296401538
542803 24 16660366982543519012
6430166 295 18408602552439975413
69090 78 18272084994207375223
7364860 26 18129668495888881278

>  <PUBCHEM_SHAPE_MULTIPOLES>  (1) 
285.08
10
1.42
0.76
1.99
0.03
-0.01
-3.27
-0.91
0.01
-0.18
0.53
-0.07
0.24

>  <PUBCHEM_SHAPE_SELFOVERLAP>  (1) 
587.934

>  <PUBCHEM_SHAPE_VOLUME>  (1) 
169.8

>  <PUBCHEM_COORDINATE_TYPE>  (1) 
2
5
10

$$$$
