21371
     RDKit          3D

 12 12  0  0  0  0  0  0  0  0999 V2000
    2.2869    2.3511   -0.5711 Cl  0  0  0  0  0  0  0  0  0  0  0  0
   -1.6720    1.4476   -0.1852 S   0  0  0  0  0  0  0  0  0  0  0  0
   -0.2465    1.3563    1.2932 S   0  0  0  0  0  0  0  0  0  0  0  0
   -4.8026   -1.1238   -0.3294 N   0  0  0  0  0  0  0  0  0  0  0  0
   -2.7704    0.0867    0.2773 C   0  0  0  0  0  0  0  0  0  0  0  0
   -3.9232   -0.0234   -0.7127 C   0  0  0  0  0  0  0  0  0  0  0  0
    0.9540    0.2400    0.5706 C   0  0  0  0  0  0  0  0  0  0  0  0
    2.0191    0.6793   -0.2154 C   0  0  0  0  0  0  0  0  0  0  0  0
    0.7894   -1.1218    0.8241 C   0  0  0  0  0  0  0  0  0  0  0  0
    2.9198   -0.2430   -0.7480 C   0  0  0  0  0  0  0  0  0  0  0  0
    1.6901   -2.0442    0.2914 C   0  0  0  0  0  0  0  0  0  0  0  0
    2.7553   -1.6048   -0.4947 C   0  0  0  0  0  0  0  0  0  0  0  0
  1  8  1  0
  2  3  1  0
  2  5  1  0
  3  7  1  0
  4  6  1  0
  5  6  1  0
  7  8  2  0
  7  9  1  0
  8 10  1  0
  9 11  2  0
 10 12  2  0
 11 12  1  0
M  END
>  <PUBCHEM_COMPOUND_CID>  (1) 
21371

>  <PUBCHEM_CONFORMER_RMSD>  (1) 
0.6

>  <PUBCHEM_CONFORMER_DIVERSEORDER>  (1) 
1
37
79
40
33
68
71
30
43
32
74
42
55
67
73
62
58
39
69
66
18
35
80
31
41
47
24
44
26
70
23
14
57
75
34
28
6
56
12
48
27
5
72
15
50
38
61
78
25
36
2
65
29
64
77
21
63
53
76
7
8
22
13
11
60
46
49
54
45
59
16
17
4
3
10
9
20
19
51
52

>  <PUBCHEM_MMFF94_PARTIAL_CHARGES>  (1) 
18
1 -0.18
10 -0.15
11 -0.15
12 -0.15
17 0.15
18 0.15
19 0.15
2 -0.23
20 0.15
21 0.36
22 0.36
3 -0.1
4 -0.99
5 0.23
6 0.27
7 0.1
8 0.18
9 -0.15

>  <PUBCHEM_EFFECTIVE_ROTOR_COUNT>  (1) 
4

>  <PUBCHEM_PHARMACOPHORE_FEATURES>  (1) 
3
1 4 cation
1 4 donor
6 7 8 9 10 11 12 rings

>  <PUBCHEM_HEAVY_ATOM_COUNT>  (1) 
12

>  <PUBCHEM_ATOM_DEF_STEREO_COUNT>  (1) 
0

>  <PUBCHEM_ATOM_UDEF_STEREO_COUNT>  (1) 
0

>  <PUBCHEM_BOND_DEF_STEREO_COUNT>  (1) 
0

>  <PUBCHEM_BOND_UDEF_STEREO_COUNT>  (1) 
0

>  <PUBCHEM_ISOTOPIC_ATOM_COUNT>  (1) 
0

>  <PUBCHEM_COMPONENT_COUNT>  (1) 
1

>  <PUBCHEM_CACTVS_TAUTO_COUNT>  (1) 
1

>  <PUBCHEM_CONFORMER_ID>  (1) 
0000537B00000001

>  <PUBCHEM_MMFF94_ENERGY>  (1) 
10.9693

>  <PUBCHEM_FEATURE_SELFOVERLAP>  (1) 
15.223

>  <PUBCHEM_SHAPE_FINGERPRINT>  (1) 
11086676 242 9943536180365459902
11806522 49 18342175527709905160
12251169 10 9871745789138435017
12400797 292 18411423912035039556
12897270 3 18186805768307958377
14128692 85 18198908011243147424
14251717 144 18336545009952191605
14576447 43 18411421666015421022
15477762 27 18410858728898993518
15757776 16 18334576789707162266
18186145 218 17240485784611064945
18522851 268 18262232214565627629
18915474 69 18273213118875726351
19422 9 18202008715891113777
20281475 54 18343300375571371297
20645477 70 18412821400473525015
20671657 53 18263645073810973375
21634736 98 18412827988336431766
21713013 43 18260825978180769199
23402539 116 18195526996235336198
23402655 69 18189621536024603157
23598291 2 18198643063142797293
2748010 2 17903947752383329880
2871803 45 18335135397685972327
58051976 378 18337392754739205508
581208 293 18410007775492152889
94968 8 18343297102532134439

>  <PUBCHEM_SHAPE_MULTIPOLES>  (1) 
251.54
6.7
2.28
1.04
9.22
0.3
-0.18
-2.32
2.4
-1.49
0.07
-0.04
0.17
-0.4

>  <PUBCHEM_SHAPE_SELFOVERLAP>  (1) 
468.905

>  <PUBCHEM_SHAPE_VOLUME>  (1) 
160

>  <PUBCHEM_COORDINATE_TYPE>  (1) 
2
5
10

$$$$
