21378
     RDKit          3D

  7  6  0  0  0  0  0  0  0  0999 V2000
   -1.3100    1.3012   -0.0237 O   0  0  0  0  0  0  0  0  0  0  0  0
    0.6183   -0.0572    0.0052 N   0  0  0  0  0  0  0  0  0  0  0  0
    0.9978   -1.3606   -0.6882 C   0  0  0  0  0  0  0  0  0  0  0  0
    1.0806   -0.0865    1.4558 C   0  0  0  0  0  0  0  0  0  0  0  0
    1.3194    1.0912   -0.7233 C   0  0  0  0  0  0  0  0  0  0  0  0
   -0.8889    0.1482   -0.0142 C   0  0  0  0  0  0  0  0  0  0  0  0
   -1.8172   -1.0363   -0.0116 C   0  0  0  0  0  0  0  0  0  0  0  0
  1  6  2  0
  2  3  1  0
  2  4  1  0
  2  5  1  0
  2  6  1  0
  6  7  1  0
M  CHG  1   2   1
M  END
>  <PUBCHEM_COMPOUND_CID>  (1) 
21378

>  <PUBCHEM_CONFORMER_RMSD>  (1) 
0.4

>  <PUBCHEM_CONFORMER_DIVERSEORDER>  (1) 
2
1

>  <PUBCHEM_MMFF94_PARTIAL_CHARGES>  (1) 
7
1 -0.57
2 -0.91
3 0.5
4 0.5
5 0.5
6 0.9
7 0.06

>  <PUBCHEM_EFFECTIVE_ROTOR_COUNT>  (1) 
1

>  <PUBCHEM_PHARMACOPHORE_FEATURES>  (1) 
1
1 1 acceptor

>  <PUBCHEM_HEAVY_ATOM_COUNT>  (1) 
7

>  <PUBCHEM_ATOM_DEF_STEREO_COUNT>  (1) 
0

>  <PUBCHEM_ATOM_UDEF_STEREO_COUNT>  (1) 
0

>  <PUBCHEM_BOND_DEF_STEREO_COUNT>  (1) 
0

>  <PUBCHEM_BOND_UDEF_STEREO_COUNT>  (1) 
0

>  <PUBCHEM_ISOTOPIC_ATOM_COUNT>  (1) 
0

>  <PUBCHEM_COMPONENT_COUNT>  (1) 
1

>  <PUBCHEM_CACTVS_TAUTO_COUNT>  (1) 
1

>  <PUBCHEM_CONFORMER_ID>  (1) 
0000538200000002

>  <PUBCHEM_MMFF94_ENERGY>  (1) 
18.5819

>  <PUBCHEM_FEATURE_SELFOVERLAP>  (1) 
5.074

>  <PUBCHEM_SHAPE_FINGERPRINT>  (1) 
137420 1 10843266691223990426
16714656 1 17909560784538111516
20096714 4 18187658946244302589
21040471 1 18123466081776108261
24536 1 18410566258689934589
29004967 10 18121237616551384395
5943 1 12127609346286670266

>  <PUBCHEM_SHAPE_MULTIPOLES>  (1) 
133.21
2.07
1.41
1.07
0.71
0.03
0.37
0.06
-0.07
0.01
-0.32
-0.52
0.09
-0.07

>  <PUBCHEM_SHAPE_SELFOVERLAP>  (1) 
236.429

>  <PUBCHEM_SHAPE_VOLUME>  (1) 
88.3

>  <PUBCHEM_COORDINATE_TYPE>  (1) 
2
5
10

$$$$
