21386
     RDKit          3D

 14 14  0  0  0  0  0  0  0  0999 V2000
    2.7471   -0.8772   -1.4640 Cl  0  0  0  0  0  0  0  0  0  0  0  0
    2.9190    1.5964    0.0051 Cl  0  0  0  0  0  0  0  0  0  0  0  0
    2.7368   -0.8874    1.4627 Cl  0  0  0  0  0  0  0  0  0  0  0  0
   -2.0398   -2.2812   -0.0003 O   0  0  0  0  0  0  0  0  0  0  0  0
   -1.9791    2.3444    0.0004 O   0  0  0  0  0  0  0  0  0  0  0  0
    0.0347    1.2046   -0.0011 N   0  0  0  0  0  0  0  0  0  0  0  0
    0.0030   -1.1948   -0.0016 N   0  0  0  0  0  0  0  0  0  0  0  0
   -2.0590    0.0324   -0.0020 N   0  0  0  0  0  0  0  0  0  0  0  0
    0.6218   -0.0029   -0.0011 C   0  0  0  0  0  0  0  0  0  0  0  0
    2.1128   -0.0223    0.0006 C   0  0  0  0  0  0  0  0  0  0  0  0
   -1.3364   -1.0994   -0.0021 C   0  0  0  0  0  0  0  0  0  0  0  0
   -1.3068    1.1446   -0.0017 C   0  0  0  0  0  0  0  0  0  0  0  0
   -1.2729   -3.4767    0.0021 C   0  0  0  0  0  0  0  0  0  0  0  0
   -1.1812    3.5195    0.0029 C   0  0  0  0  0  0  0  0  0  0  0  0
  1 10  1  0
  2 10  1  0
  3 10  1  0
  4 11  1  0
  4 13  1  0
  5 12  1  0
  5 14  1  0
  6  9  2  0
  6 12  1  0
  7  9  1  0
  7 11  2  0
  8 11  1  0
  8 12  2  0
  9 10  1  0
M  END
>  <PUBCHEM_COMPOUND_CID>  (1) 
21386

>  <PUBCHEM_CONFORMER_RMSD>  (1) 
0.6

>  <PUBCHEM_CONFORMER_DIVERSEORDER>  (1) 
1
4
2
3

>  <PUBCHEM_MMFF94_PARTIAL_CHARGES>  (1) 
14
1 -0.29
10 1.01
11 0.7
12 0.7
13 0.28
14 0.28
2 -0.29
3 -0.29
4 -0.36
5 -0.36
6 -0.62
7 -0.62
8 -0.62
9 0.48

>  <PUBCHEM_EFFECTIVE_ROTOR_COUNT>  (1) 
3

>  <PUBCHEM_PHARMACOPHORE_FEATURES>  (1) 
4
3 6 7 9 cation
3 6 8 12 cation
3 7 8 11 cation
6 6 7 8 9 11 12 rings

>  <PUBCHEM_HEAVY_ATOM_COUNT>  (1) 
14

>  <PUBCHEM_ATOM_DEF_STEREO_COUNT>  (1) 
0

>  <PUBCHEM_ATOM_UDEF_STEREO_COUNT>  (1) 
0

>  <PUBCHEM_BOND_DEF_STEREO_COUNT>  (1) 
0

>  <PUBCHEM_BOND_UDEF_STEREO_COUNT>  (1) 
0

>  <PUBCHEM_ISOTOPIC_ATOM_COUNT>  (1) 
0

>  <PUBCHEM_COMPONENT_COUNT>  (1) 
1

>  <PUBCHEM_CACTVS_TAUTO_COUNT>  (1) 
1

>  <PUBCHEM_CONFORMER_ID>  (1) 
0000538A00000001

>  <PUBCHEM_MMFF94_ENERGY>  (1) 
36.6144

>  <PUBCHEM_FEATURE_SELFOVERLAP>  (1) 
23.07

>  <PUBCHEM_SHAPE_FINGERPRINT>  (1) 
1 1 17689996730617804397
12716758 59 18269841921572030598
12759256 9 17404307793994846207
13380537 58 18267016172462198714
13538477 17 18260261945499858994
14252887 29 17837509796245047378
14817 1 8646763400448654082
15490181 7 18124880058055907639
15490181 8 18048312250135705107
16945 1 18338516339600347878
20510252 161 18271525295201624225
20645476 183 17972339329646113462
20645477 70 16971389423181138935
20671657 1 17188969017384181417
20711985 344 18410022039041808142
20871998 184 18129381677534718798
20871998 22 17980495768546171302
21040471 1 18194682553534283364
21524375 3 17984410841900648437
22802520 49 18200892720046844286
2334 1 18122343737970207507
23402539 116 18198317650929587125
23526113 38 17558562313704527862
23526114 1 17114662376611405741
23552423 10 18043250339087886062
23557571 272 18270408324884957852
23559900 14 17911810077209981838
23598294 1 18408045117087250179
2748010 2 18196932390590067015
305870 269 17618492190870696976
3071541 12 17042608609146875141
7364860 26 16972225575808059825
74978 22 18337107861374338796
81228 2 18342457075484886059
88987 49 18338233765665826038

>  <PUBCHEM_SHAPE_MULTIPOLES>  (1) 
267.04
4.11
3.78
0.95
2.51
0.43
0
-0.02
0
-3.29
0.01
0.99
-0.32
0

>  <PUBCHEM_SHAPE_SELFOVERLAP>  (1) 
515.544

>  <PUBCHEM_SHAPE_VOLUME>  (1) 
162.9

>  <PUBCHEM_COORDINATE_TYPE>  (1) 
2
5
10

$$$$
