21385
     RDKit          3D

 13 13  0  0  0  0  0  0  0  0999 V2000
   -2.2770   -2.0508   -1.4622 Cl  0  0  0  0  0  0  0  0  0  0  0  0
   -2.2747   -2.0491    1.4643 Cl  0  0  0  0  0  0  0  0  0  0  0  0
   -0.7451    2.7304    0.0004 O   0  0  0  0  0  0  0  0  0  0  0  0
    3.0200    0.0427    0.0005 O   0  0  0  0  0  0  0  0  0  0  0  0
    0.9354   -0.9615   -0.0012 N   0  0  0  0  0  0  0  0  0  0  0  0
   -1.0175    0.4328   -0.0014 N   0  0  0  0  0  0  0  0  0  0  0  0
    1.1664    1.4269   -0.0016 N   0  0  0  0  0  0  0  0  0  0  0  0
   -0.3914   -0.7552   -0.0012 C   0  0  0  0  0  0  0  0  0  0  0  0
   -1.2575   -1.9690    0.0001 C   0  0  0  0  0  0  0  0  0  0  0  0
   -0.1754    1.4787   -0.0016 C   0  0  0  0  0  0  0  0  0  0  0  0
    1.6511    0.1747   -0.0015 C   0  0  0  0  0  0  0  0  0  0  0  0
   -2.1645    2.7822    0.0028 C   0  0  0  0  0  0  0  0  0  0  0  0
    3.5303   -1.2827    0.0027 C   0  0  0  0  0  0  0  0  0  0  0  0
  1  9  1  0
  2  9  1  0
  3 10  1  0
  3 12  1  0
  4 11  1  0
  4 13  1  0
  5  8  2  0
  5 11  1  0
  6  8  1  0
  6 10  2  0
  7 10  1  0
  7 11  2  0
  8  9  1  0
M  END
>  <PUBCHEM_COMPOUND_CID>  (1) 
21385

>  <PUBCHEM_CONFORMER_RMSD>  (1) 
0.6

>  <PUBCHEM_CONFORMER_DIVERSEORDER>  (1) 
1
5
3
4
6
7
2

>  <PUBCHEM_MMFF94_PARTIAL_CHARGES>  (1) 
13
1 -0.29
10 0.7
11 0.7
12 0.28
13 0.28
2 -0.29
3 -0.36
4 -0.36
5 -0.62
6 -0.62
7 -0.62
8 0.48
9 0.72

>  <PUBCHEM_EFFECTIVE_ROTOR_COUNT>  (1) 
3

>  <PUBCHEM_PHARMACOPHORE_FEATURES>  (1) 
4
3 5 6 8 cation
3 5 7 11 cation
3 6 7 10 cation
6 5 6 7 8 10 11 rings

>  <PUBCHEM_HEAVY_ATOM_COUNT>  (1) 
13

>  <PUBCHEM_ATOM_DEF_STEREO_COUNT>  (1) 
0

>  <PUBCHEM_ATOM_UDEF_STEREO_COUNT>  (1) 
0

>  <PUBCHEM_BOND_DEF_STEREO_COUNT>  (1) 
0

>  <PUBCHEM_BOND_UDEF_STEREO_COUNT>  (1) 
0

>  <PUBCHEM_ISOTOPIC_ATOM_COUNT>  (1) 
0

>  <PUBCHEM_COMPONENT_COUNT>  (1) 
1

>  <PUBCHEM_CACTVS_TAUTO_COUNT>  (1) 
1

>  <PUBCHEM_CONFORMER_ID>  (1) 
0000538900000001

>  <PUBCHEM_MMFF94_ENERGY>  (1) 
33.2153

>  <PUBCHEM_FEATURE_SELFOVERLAP>  (1) 
23.07

>  <PUBCHEM_SHAPE_FINGERPRINT>  (1) 
1 1 17472981701085397428
12423570 1 10879711060683578686
12759256 9 17618216655838855914
13380535 76 17978509737071213266
14817 1 11216271879383872759
15906896 17 18337954463615681847
16945 1 18410575054793532132
19021347 4 17976546013535831753
193761 8 18410575132182610404
20379382 53 17325503584008722019
20645476 183 17463725020434813270
20711985 344 18337376189044927306
20871998 184 18342747281929753278
21524375 3 17905604402378046240
23419403 2 16822698965120669516
23526113 38 17827615256836383123
23530152 11 17908981007103427525
23559900 14 18056473943131343102
23598291 2 17554348181703240567
2748010 2 18267579294008733060
3071541 236 18189603956644053592
31174 14 17468487361824794339
54173680 148 18408328769586090291
81228 2 18336252501009377264
81539 233 17469043263525691325

>  <PUBCHEM_SHAPE_MULTIPOLES>  (1) 
244.59
4.15
3.33
0.98
2.82
2.77
0
-2.84
0
-2.13
0
-0.98
-0.69
0

>  <PUBCHEM_SHAPE_SELFOVERLAP>  (1) 
477.242

>  <PUBCHEM_SHAPE_VOLUME>  (1) 
148.9

>  <PUBCHEM_COORDINATE_TYPE>  (1) 
2
5
10

$$$$
