21383
     RDKit          3D

 15 15  0  0  0  0  0  0  0  0999 V2000
   -1.4538   -2.9992   -1.4634 Cl  0  0  0  0  0  0  0  0  0  0  0  0
   -1.4543   -2.9996    1.4630 Cl  0  0  0  0  0  0  0  0  0  0  0  0
   -2.8714    1.9872    1.4630 Cl  0  0  0  0  0  0  0  0  0  0  0  0
   -2.8710    1.9866   -1.4635 Cl  0  0  0  0  0  0  0  0  0  0  0  0
    3.6716    0.3394   -1.4636 Cl  0  0  0  0  0  0  0  0  0  0  0  0
    3.6723    0.3390    1.4630 Cl  0  0  0  0  0  0  0  0  0  0  0  0
   -1.1875   -0.2290    0.0002 N   0  0  0  0  0  0  0  0  0  0  0  0
    1.1395   -0.8151    0.0003 N   0  0  0  0  0  0  0  0  0  0  0  0
    0.4835    1.4930    0.0004 N   0  0  0  0  0  0  0  0  0  0  0  0
   -0.1712   -1.1069    0.0002 C   0  0  0  0  0  0  0  0  0  0  0  0
   -0.7848    1.0519    0.0003 C   0  0  0  0  0  0  0  0  0  0  0  0
    1.3915    0.5039    0.0002 C   0  0  0  0  0  0  0  0  0  0  0  0
   -0.5353   -2.5526    0.0000 C   0  0  0  0  0  0  0  0  0  0  0  0
   -1.8547    2.0900   -0.0001 C   0  0  0  0  0  0  0  0  0  0  0  0
    2.8255    0.9114    0.0000 C   0  0  0  0  0  0  0  0  0  0  0  0
  1 13  1  0
  2 13  1  0
  3 14  1  0
  4 14  1  0
  5 15  1  0
  6 15  1  0
  7 10  2  0
  7 11  1  0
  8 10  1  0
  8 12  2  0
  9 11  2  0
  9 12  1  0
 10 13  1  0
 11 14  1  0
 12 15  1  0
M  END
>  <PUBCHEM_COMPOUND_CID>  (1) 
21383

>  <PUBCHEM_CONFORMER_RMSD>  (1) 
0.6

>  <PUBCHEM_CONFORMER_DIVERSEORDER>  (1) 
1
8
6
5
7
3
4
2

>  <PUBCHEM_MMFF94_PARTIAL_CHARGES>  (1) 
15
1 -0.29
10 0.48
11 0.48
12 0.48
13 0.72
14 0.72
15 0.72
2 -0.29
3 -0.29
4 -0.29
5 -0.29
6 -0.29
7 -0.62
8 -0.62
9 -0.62

>  <PUBCHEM_EFFECTIVE_ROTOR_COUNT>  (1) 
3

>  <PUBCHEM_PHARMACOPHORE_FEATURES>  (1) 
4
3 7 8 10 cation
3 7 9 11 cation
3 8 9 12 cation
6 7 8 9 10 11 12 rings

>  <PUBCHEM_HEAVY_ATOM_COUNT>  (1) 
15

>  <PUBCHEM_ATOM_DEF_STEREO_COUNT>  (1) 
0

>  <PUBCHEM_ATOM_UDEF_STEREO_COUNT>  (1) 
0

>  <PUBCHEM_BOND_DEF_STEREO_COUNT>  (1) 
0

>  <PUBCHEM_BOND_UDEF_STEREO_COUNT>  (1) 
0

>  <PUBCHEM_ISOTOPIC_ATOM_COUNT>  (1) 
0

>  <PUBCHEM_COMPONENT_COUNT>  (1) 
1

>  <PUBCHEM_CACTVS_TAUTO_COUNT>  (1) 
1

>  <PUBCHEM_CONFORMER_ID>  (1) 
0000538700000001

>  <PUBCHEM_MMFF94_ENERGY>  (1) 
19.2482

>  <PUBCHEM_FEATURE_SELFOVERLAP>  (1) 
23.07

>  <PUBCHEM_SHAPE_FINGERPRINT>  (1) 
1 1 18048591517230142028
11322862 65 18268452194572018398
12138202 97 18411989048416809540
12553582 1 17833837440662299426
12759256 9 17619339914625699991
13140716 1 18050567648984317763
13538477 17 18114180873904959456
13681431 1 17257653850728946375
14817 1 13443467178355552011
15309172 13 18336834074020433569
15502708 68 18050001095447917752
15906896 17 18408317808893036123
16945 1 18338516442858885060
18186145 218 18058448712288862644
20645476 183 17822301158377993462
20645477 70 17834667198548056917
20711985 344 18266748063429215398
21041028 32 17689175807986268531
21160774 45 18408325514565291349
21524375 3 18337948965841109235
2334 1 18338797814624544327
23419403 2 16406821727334988807
23557571 272 18055344993111632264
23559900 14 18272380733667171244
23598294 1 18263652908274394210
2748010 2 18266751194201729479
3071541 236 18335969930910756792
458136 41 17979381684257526569
5845 1 11242262835130791979
633830 44 17916024568580227268
7364860 26 17550379640242320625
7615 1 17749663121343888020
81228 2 18266457792079634915
81539 233 18044372717301173501
88987 49 18410289242443437940

>  <PUBCHEM_SHAPE_MULTIPOLES>  (1) 
304.97
5.24
3.65
1.56
4.75
3.03
0
-3.22
0
-4.06
0
-0.2
0.2
0

>  <PUBCHEM_SHAPE_SELFOVERLAP>  (1) 
564.725

>  <PUBCHEM_SHAPE_VOLUME>  (1) 
188.6

>  <PUBCHEM_COORDINATE_TYPE>  (1) 
2
5
10

$$$$
