21382
     RDKit          3D

 21 23  0  0  1  0  0  0  0  0999 V2000
   -5.1338    0.4996    1.0278 Cl  0  0  0  0  0  0  0  0  0  0  0  0
   -0.1404   -1.5455   -1.4160 N   0  0  0  0  0  0  0  0  0  0  0  0
    1.7357    3.6209   -0.5387 N   0  0  0  0  0  0  0  0  0  0  0  0
   -0.0286   -0.6403    1.3182 C   0  0  0  0  0  0  0  0  0  0  0  0
    0.4249    0.7950    1.6299 C   0  0  0  0  0  0  0  0  0  0  0  0
   -1.3136   -0.6071    0.4955 C   0  0  0  0  0  0  0  0  0  0  0  0
    1.1140   -1.4106    0.6622 C   0  0  0  0  0  0  0  0  0  0  0  0
    0.8711    1.5116    0.3621 C   0  0  0  0  0  0  0  0  0  0  0  0
   -1.3112   -1.0188   -0.8517 C   0  0  0  0  0  0  0  0  0  0  0  0
    1.0336   -1.7948   -0.6907 C   0  0  0  0  0  0  0  0  0  0  0  0
    1.2904    2.9469    0.6754 C   0  0  0  0  0  0  0  0  0  0  0  0
   -2.5088   -0.1449    1.0687 C   0  0  0  0  0  0  0  0  0  0  0  0
    2.2678   -1.7261    1.3968 C   0  0  0  0  0  0  0  0  0  0  0  0
   -2.4908   -0.9419   -1.6034 C   0  0  0  0  0  0  0  0  0  0  0  0
    2.1097   -2.4644   -1.2873 C   0  0  0  0  0  0  0  0  0  0  0  0
   -3.6781   -0.0756    0.3115 C   0  0  0  0  0  0  0  0  0  0  0  0
    3.3317   -2.3963    0.7933 C   0  0  0  0  0  0  0  0  0  0  0  0
   -3.6679   -0.4690   -1.0241 C   0  0  0  0  0  0  0  0  0  0  0  0
    3.2547   -2.7607   -0.5484 C   0  0  0  0  0  0  0  0  0  0  0  0
    0.6689    3.6356   -1.5410 C   0  0  0  0  0  0  0  0  0  0  0  0
    2.1705    4.9865   -0.2401 C   0  0  0  0  0  0  0  0  0  0  0  0
  1 16  1  0
  2  9  1  0
  2 10  1  0
  3 11  1  0
  3 20  1  0
  3 21  1  0
  4  5  1  0
  4  6  1  0
  4  7  1  0
  5  8  1  0
  6  9  2  0
  6 12  1  0
  7 10  2  0
  7 13  1  0
  8 11  1  0
  9 14  1  0
 10 15  1  0
 12 16  2  0
 13 17  2  0
 14 18  2  0
 15 19  2  0
 16 18  1  0
 17 19  1  0
M  END
>  <PUBCHEM_COMPOUND_CID>  (1) 
21382

>  <PUBCHEM_CONFORMER_RMSD>  (1) 
0.6

>  <PUBCHEM_CONFORMER_DIVERSEORDER>  (1) 
1
10
7
13
2
6
4
5
3
11
12
9
8

>  <PUBCHEM_MMFF94_PARTIAL_CHARGES>  (1) 
27
1 -0.18
10 0.1
11 0.27
12 -0.15
13 -0.15
14 -0.15
15 -0.15
16 0.18
17 -0.15
18 -0.15
19 -0.15
2 -0.6
20 0.27
21 0.27
29 0.4
3 -0.81
30 0.15
31 0.15
32 0.15
33 0.15
34 0.15
35 0.15
36 0.15
4 0.29
6 -0.14
7 -0.14
9 0.1

>  <PUBCHEM_EFFECTIVE_ROTOR_COUNT>  (1) 
4.4

>  <PUBCHEM_PHARMACOPHORE_FEATURES>  (1) 
6
1 2 cation
1 2 donor
1 3 cation
6 2 4 6 7 9 10 rings
6 6 9 12 14 16 18 rings
6 7 10 13 15 17 19 rings

>  <PUBCHEM_HEAVY_ATOM_COUNT>  (1) 
21

>  <PUBCHEM_ATOM_DEF_STEREO_COUNT>  (1) 
0

>  <PUBCHEM_ATOM_UDEF_STEREO_COUNT>  (1) 
1

>  <PUBCHEM_BOND_DEF_STEREO_COUNT>  (1) 
0

>  <PUBCHEM_BOND_UDEF_STEREO_COUNT>  (1) 
0

>  <PUBCHEM_ISOTOPIC_ATOM_COUNT>  (1) 
0

>  <PUBCHEM_COMPONENT_COUNT>  (1) 
1

>  <PUBCHEM_CACTVS_TAUTO_COUNT>  (1) 
1

>  <PUBCHEM_CONFORMER_ID>  (1) 
0000538600000001

>  <PUBCHEM_MMFF94_ENERGY>  (1) 
64.176

>  <PUBCHEM_FEATURE_SELFOVERLAP>  (1) 
30.491

>  <PUBCHEM_SHAPE_FINGERPRINT>  (1) 
10871710 139 18052288136201360116
11833330 49 17976823086376883152
12422481 6 18052784067295418496
12539773 59 15586550168372690901
12788726 201 17828490163154501298
13134695 92 18334848381695067166
133893 2 18338784736702355287
13681431 1 18411982451130784066
14004458 79 17834406613748448036
14181834 199 18059561516549879858
14840074 17 18121470657883629272
15463212 79 17256509242087630536
17357779 13 17697850632522315557
1813 80 18269275668620265467
18769570 83 17904201434542531873
18785283 64 18262807396406410345
20600515 1 18200317610740801566
20739085 24 18271247127349510610
21285901 2 17410764770744737885
21304253 335 17274541997618995675
21304303 282 16747021426785148132
21452121 99 16899612715650710562
21524375 3 17759228987810260281
22907989 373 17622172265416647436
23366157 5 18337106873352830939
23566358 27 18339645671772051171
4409770 3 17476342916774398622
474 4 18192704768487016737
58260988 587 17900291833345356401
59554788 62 17772448119890513086
6786 2 17540284323918635156
7164475 11 17758682144295760034
7495541 125 18187941564310250147
81228 2 17908714925078509442

>  <PUBCHEM_SHAPE_MULTIPOLES>  (1) 
424.08
6.21
5.08
1.66
6.95
10.17
0.12
-3.65
-0.86
-6.56
1.75
0.19
-0.23
-0.49

>  <PUBCHEM_SHAPE_SELFOVERLAP>  (1) 
897.944

>  <PUBCHEM_SHAPE_VOLUME>  (1) 
237.8

>  <PUBCHEM_COORDINATE_TYPE>  (1) 
2
5
10

$$$$
