21398
     RDKit          3D

 17 18  0  0  0  0  0  0  0  0999 V2000
    0.6993   -2.4222    0.2635 O   0  0  0  0  0  0  0  0  0  0  0  0
    5.7564    1.4467   -0.1484 N   0  0  0  0  0  0  0  0  0  0  0  0
   -2.8799    1.1046   -0.1012 N   0  0  0  0  0  0  0  0  0  0  0  0
    2.0472   -0.5112    0.0766 C   0  0  0  0  0  0  0  0  0  0  0  0
    2.1739    0.7984    0.5400 C   0  0  0  0  0  0  0  0  0  0  0  0
    3.1524   -1.1705   -0.4614 C   0  0  0  0  0  0  0  0  0  0  0  0
    4.5108    0.7895   -0.0728 C   0  0  0  0  0  0  0  0  0  0  0  0
    0.7625   -1.1884    0.1535 C   0  0  0  0  0  0  0  0  0  0  0  0
    3.4056    1.4488    0.4652 C   0  0  0  0  0  0  0  0  0  0  0  0
    4.3842   -0.5203   -0.5360 C   0  0  0  0  0  0  0  0  0  0  0  0
   -0.4917   -0.3651    0.0651 C   0  0  0  0  0  0  0  0  0  0  0  0
   -2.9796   -0.2306    0.0106 C   0  0  0  0  0  0  0  0  0  0  0  0
   -1.6976   -0.9509    0.1043 C   0  0  0  0  0  0  0  0  0  0  0  0
   -4.1556   -0.9440    0.0426 C   0  0  0  0  0  0  0  0  0  0  0  0
   -5.3401   -0.2214   -0.0485 C   0  0  0  0  0  0  0  0  0  0  0  0
   -5.2960    1.1634   -0.1660 C   0  0  0  0  0  0  0  0  0  0  0  0
   -4.0519    1.7731   -0.1874 C   0  0  0  0  0  0  0  0  0  0  0  0
  1  8  2  0
  2  7  1  0
  3 12  2  0
  3 17  1  0
  4  5  2  0
  4  6  1  0
  4  8  1  0
  5  9  1  0
  6 10  2  0
  7  9  2  0
  7 10  1  0
  8 11  1  0
 11 13  2  0
 12 13  1  0
 12 14  1  0
 14 15  2  0
 15 16  1  0
 16 17  2  0
M  END
>  <PUBCHEM_COMPOUND_CID>  (1) 
21398

>  <PUBCHEM_CONFORMER_RMSD>  (1) 
0.6

>  <PUBCHEM_CONFORMER_DIVERSEORDER>  (1) 
1
17
19
4
11
10
3
18
8
14
6
15
5
9
16
2
7
13
12

>  <PUBCHEM_MMFF94_PARTIAL_CHARGES>  (1) 
29
1 -0.57
10 -0.15
11 -0.14
12 0.34
13 -0.18
14 -0.15
15 -0.15
16 -0.15
17 0.16
18 0.15
19 0.15
2 -0.9
20 0.15
21 0.15
22 0.15
23 0.15
24 0.15
25 0.15
26 0.4
27 0.4
28 0.15
29 0.15
3 -0.62
4 0.09
5 -0.15
6 -0.15
7 0.1
8 0.47
9 -0.15

>  <PUBCHEM_EFFECTIVE_ROTOR_COUNT>  (1) 
3

>  <PUBCHEM_PHARMACOPHORE_FEATURES>  (1) 
6
1 1 acceptor
1 2 cation
1 2 donor
1 3 acceptor
6 3 12 14 15 16 17 rings
6 4 5 6 7 9 10 rings

>  <PUBCHEM_HEAVY_ATOM_COUNT>  (1) 
17

>  <PUBCHEM_ATOM_DEF_STEREO_COUNT>  (1) 
0

>  <PUBCHEM_ATOM_UDEF_STEREO_COUNT>  (1) 
0

>  <PUBCHEM_BOND_DEF_STEREO_COUNT>  (1) 
0

>  <PUBCHEM_BOND_UDEF_STEREO_COUNT>  (1) 
1

>  <PUBCHEM_ISOTOPIC_ATOM_COUNT>  (1) 
0

>  <PUBCHEM_COMPONENT_COUNT>  (1) 
1

>  <PUBCHEM_CACTVS_TAUTO_COUNT>  (1) 
4

>  <PUBCHEM_CONFORMER_ID>  (1) 
0000539600000001

>  <PUBCHEM_MMFF94_ENERGY>  (1) 
60.717

>  <PUBCHEM_FEATURE_SELFOVERLAP>  (1) 
30.446

>  <PUBCHEM_SHAPE_FINGERPRINT>  (1) 
100836 57 18334861636243769324
10498660 4 18335416825149407141
11128504 68 15123505943091814056
11471102 20 18272654545773424210
11595378 159 16660916678291597301
12107183 9 17617375083062414707
12596602 18 15792018912547792432
12730499 353 18412272730733033362
12916748 109 18408608071272295914
13081056 2 18411982459752444973
13740256 8 9727632817175981098
14251764 18 18186795890658403922
14252887 29 12468631699583396256
14341114 176 18409455773552566489
14528608 73 18413102866607073855
15196674 1 18410855438743190993
15788980 27 12535630479034000019
17834072 33 18131066047954985607
200 152 17275387594711150291
20281389 69 18259700121292417644
20645477 56 18410572924310366283
20645477 70 17846507989359278094
212847 35 18409165507104868144
21652331 79 18409165493961789181
221357 26 18131913741149878201
22224240 67 13479413920488763496
22289505 5 18273214162674176228
22854114 59 18186801374666924543
23402539 116 18342733052945623406
23402655 69 18131070437421962022
23559900 14 18125434211959160971
245318 6 16953959831576336116
2916195 48 18341607174592978952
293599 30 18410576210472044148
29717793 49 16773806861699218356
300161 21 17822004290539291063
34797466 226 17846788428858200837
351380 180 18411136948011016272
351380 3 10879995752590911116
3545911 37 18341614836460966521
4028521 119 18412261718647454217
4072396 5 18272642447320128098
4214541 1 18412545401363793061
441001 317 18409167706012157065
465052 167 8070033276945580864
474 4 18040720289707211637
495365 180 17346025779994948226
4990 188 18131356288807096550
5104073 3 18187930517543225211
5281201 14 18202008685414671958
542803 24 17603588525710084943
59682541 35 18187656855597270625
59755656 520 17894908555396043122
633830 44 18410288103638963686
77779 3 18412545388426306095
90127 26 18335149660739619002

>  <PUBCHEM_SHAPE_MULTIPOLES>  (1) 
334.02
13.2
1.83
0.67
2.82
0.07
0
-5.38
-1.31
-0.24
0.06
-0.17
-0.01
0.44

>  <PUBCHEM_SHAPE_SELFOVERLAP>  (1) 
718.162

>  <PUBCHEM_SHAPE_VOLUME>  (1) 
182.8

>  <PUBCHEM_COORDINATE_TYPE>  (1) 
2
5
10

$$$$
