21390
     RDKit          3D

  8  8  0  0  0  0  0  0  0  0999 V2000
   -0.6881   -1.3803    0.0843 S   0  0  0  0  0  0  0  0  0  0  0  0
    2.2922   -0.8578   -0.2539 S   0  0  0  0  0  0  0  0  0  0  0  0
    0.3129    0.9573   -0.2324 N   0  0  0  0  0  0  0  0  0  0  0  0
   -1.0530    1.1478   -0.1177 N   0  0  0  0  0  0  0  0  0  0  0  0
   -3.0364   -0.1163    0.1933 N   0  0  0  0  0  0  0  0  0  0  0  0
    0.6369   -0.3152   -0.1444 C   0  0  0  0  0  0  0  0  0  0  0  0
   -1.6922    0.0100    0.0511 C   0  0  0  0  0  0  0  0  0  0  0  0
    3.2277    0.5545    0.4196 C   0  0  0  0  0  0  0  0  0  0  0  0
  1  6  1  0
  1  7  1  0
  2  6  1  0
  2  8  1  0
  3  4  1  0
  3  6  2  0
  4  7  2  0
  5  7  1  0
M  END
>  <PUBCHEM_COMPOUND_CID>  (1) 
21390

>  <PUBCHEM_CONFORMER_RMSD>  (1) 
0.4

>  <PUBCHEM_CONFORMER_DIVERSEORDER>  (1) 
2
5
3
1
4

>  <PUBCHEM_MMFF94_PARTIAL_CHARGES>  (1) 
10
1 -0.08
12 0.4
13 0.4
2 -0.29
3 -0.34
4 -0.34
5 -0.88
6 0.43
7 0.46
8 0.23

>  <PUBCHEM_EFFECTIVE_ROTOR_COUNT>  (1) 
1

>  <PUBCHEM_PHARMACOPHORE_FEATURES>  (1) 
5
1 3 acceptor
1 5 donor
1 8 hydrophobe
3 4 5 7 cation
5 1 3 4 6 7 rings

>  <PUBCHEM_HEAVY_ATOM_COUNT>  (1) 
8

>  <PUBCHEM_ATOM_DEF_STEREO_COUNT>  (1) 
0

>  <PUBCHEM_ATOM_UDEF_STEREO_COUNT>  (1) 
0

>  <PUBCHEM_BOND_DEF_STEREO_COUNT>  (1) 
0

>  <PUBCHEM_BOND_UDEF_STEREO_COUNT>  (1) 
0

>  <PUBCHEM_ISOTOPIC_ATOM_COUNT>  (1) 
0

>  <PUBCHEM_COMPONENT_COUNT>  (1) 
1

>  <PUBCHEM_CACTVS_TAUTO_COUNT>  (1) 
2

>  <PUBCHEM_CONFORMER_ID>  (1) 
0000538E00000002

>  <PUBCHEM_MMFF94_ENERGY>  (1) 
6.5088

>  <PUBCHEM_FEATURE_SELFOVERLAP>  (1) 
25.371

>  <PUBCHEM_SHAPE_FINGERPRINT>  (1) 
10857977 72 18335136513939548018
11062470 55 18334574642080959557
14325111 11 18411419479533714562
14390081 3 18273211997883811680
15310529 11 15482675632614899878
16714656 1 18409168796411701735
21040471 1 18336271132709272094
23235685 24 18411976970610134890
23552423 10 18042972158351175942
29004967 10 18333740112634203858
369184 2 18410288095175304490
5084963 1 17823708472989755142
5460574 1 9223228542113558478

>  <PUBCHEM_SHAPE_MULTIPOLES>  (1) 
157.39
4.3
1.28
0.66
1.15
0.16
-0.01
-0.37
-0.53
0.04
0.02
0.13
0.03
0.2

>  <PUBCHEM_SHAPE_SELFOVERLAP>  (1) 
287.708

>  <PUBCHEM_SHAPE_VOLUME>  (1) 
102.5

>  <PUBCHEM_COORDINATE_TYPE>  (1) 
2
5
10

$$$$
