21406
     RDKit          3D

  9  9  0  0  1  0  0  0  0  0999 V2000
    0.9346   -1.6885    0.4364 O   0  0  0  0  0  0  0  0  0  0  0  0
    2.8152    0.1012   -0.3433 O   0  0  0  0  0  0  0  0  0  0  0  0
    0.4750    0.5790   -0.2880 C   0  0  0  0  0  0  0  0  0  0  0  0
   -0.6028    1.4960    0.2984 C   0  0  0  0  0  0  0  0  0  0  0  0
   -2.0018    1.1002   -0.1717 C   0  0  0  0  0  0  0  0  0  0  0  0
   -2.3116   -0.3494    0.1917 C   0  0  0  0  0  0  0  0  0  0  0  0
   -1.2791   -1.3068   -0.3853 C   0  0  0  0  0  0  0  0  0  0  0  0
    0.1196   -0.8761    0.0016 C   0  0  0  0  0  0  0  0  0  0  0  0
    1.8509    0.9444    0.2601 C   0  0  0  0  0  0  0  0  0  0  0  0
  1  8  2  0
  2  9  1  0
  3  4  1  0
  3  8  1  0
  3  9  1  0
  4  5  1  0
  5  6  1  0
  6  7  1  0
  7  8  1  0
M  END
>  <PUBCHEM_COMPOUND_CID>  (1) 
21406

>  <PUBCHEM_CONFORMER_RMSD>  (1) 
0.4

>  <PUBCHEM_CONFORMER_DIVERSEORDER>  (1) 
1
9
11
2
12
8
5
7
6
3
10
4

>  <PUBCHEM_MMFF94_PARTIAL_CHARGES>  (1) 
7
1 -0.57
2 -0.68
21 0.4
3 0.06
7 0.06
8 0.45
9 0.28

>  <PUBCHEM_EFFECTIVE_ROTOR_COUNT>  (1) 
2

>  <PUBCHEM_PHARMACOPHORE_FEATURES>  (1) 
4
1 1 acceptor
1 2 acceptor
1 2 donor
6 3 4 5 6 7 8 rings

>  <PUBCHEM_HEAVY_ATOM_COUNT>  (1) 
9

>  <PUBCHEM_ATOM_DEF_STEREO_COUNT>  (1) 
0

>  <PUBCHEM_ATOM_UDEF_STEREO_COUNT>  (1) 
1

>  <PUBCHEM_BOND_DEF_STEREO_COUNT>  (1) 
0

>  <PUBCHEM_BOND_UDEF_STEREO_COUNT>  (1) 
0

>  <PUBCHEM_ISOTOPIC_ATOM_COUNT>  (1) 
0

>  <PUBCHEM_COMPONENT_COUNT>  (1) 
1

>  <PUBCHEM_CACTVS_TAUTO_COUNT>  (1) 
3

>  <PUBCHEM_CONFORMER_ID>  (1) 
0000539E00000001

>  <PUBCHEM_MMFF94_ENERGY>  (1) 
6.9556

>  <PUBCHEM_FEATURE_SELFOVERLAP>  (1) 
20.304

>  <PUBCHEM_SHAPE_FINGERPRINT>  (1) 
14325111 11 18410012143616395652
16714656 1 18411984705867392509
16945 1 18410288125160915289
18185500 45 18411132575955757599
21040471 1 18411133606563409217
23235685 24 18408882927942027005
23552423 10 18334576884169932726
2748010 2 18266459793761306669
29004967 10 17821452360944469681
369184 2 18131069389207446056
5084963 1 18271811284109555545

>  <PUBCHEM_SHAPE_MULTIPOLES>  (1) 
173.48
3.11
1.7
0.67
0.9
0.17
0
-0.3
0.13
-0.23
-0.11
-0.01
0.01
-0.05

>  <PUBCHEM_SHAPE_SELFOVERLAP>  (1) 
340.237

>  <PUBCHEM_SHAPE_VOLUME>  (1) 
102.9

>  <PUBCHEM_COORDINATE_TYPE>  (1) 
2
5
10

$$$$
