21402
     RDKit          3D

 18 20  0  0  0  0  0  0  0  0999 V2000
   -0.3223   -2.7640    0.0001 O   0  0  0  0  0  0  0  0  0  0  0  0
   -0.3235    2.7640   -0.0003 O   0  0  0  0  0  0  0  0  0  0  0  0
    2.2716   -2.8063    0.0011 N   0  0  0  0  0  0  0  0  0  0  0  0
    2.2707    2.8066    0.0007 N   0  0  0  0  0  0  0  0  0  0  0  0
    0.9468   -0.7060   -0.0004 C   0  0  0  0  0  0  0  0  0  0  0  0
    0.9467    0.7062   -0.0001 C   0  0  0  0  0  0  0  0  0  0  0  0
   -1.5034   -0.7061   -0.0001 C   0  0  0  0  0  0  0  0  0  0  0  0
   -1.5035    0.7059    0.0001 C   0  0  0  0  0  0  0  0  0  0  0  0
   -0.2782   -1.3937   -0.0004 C   0  0  0  0  0  0  0  0  0  0  0  0
   -0.2785    1.3937    0.0001 C   0  0  0  0  0  0  0  0  0  0  0  0
    2.1723   -1.3927   -0.0005 C   0  0  0  0  0  0  0  0  0  0  0  0
    2.1721    1.3931    0.0000 C   0  0  0  0  0  0  0  0  0  0  0  0
   -2.7287   -1.3932   -0.0001 C   0  0  0  0  0  0  0  0  0  0  0  0
   -2.7289    1.3927    0.0002 C   0  0  0  0  0  0  0  0  0  0  0  0
    3.3804   -0.6954   -0.0004 C   0  0  0  0  0  0  0  0  0  0  0  0
    3.3803    0.6958   -0.0001 C   0  0  0  0  0  0  0  0  0  0  0  0
   -3.9370   -0.6959    0.0000 C   0  0  0  0  0  0  0  0  0  0  0  0
   -3.9371    0.6953    0.0002 C   0  0  0  0  0  0  0  0  0  0  0  0
  1  9  1  0
  2 10  1  0
  3 11  1  0
  4 12  1  0
  5  6  1  0
  5  9  2  0
  5 11  1  0
  6 10  2  0
  6 12  1  0
  7  8  2  0
  7  9  1  0
  7 13  1  0
  8 10  1  0
  8 14  1  0
 11 15  2  0
 12 16  2  0
 13 17  2  0
 14 18  2  0
 15 16  1  0
 17 18  1  0
M  END
>  <PUBCHEM_COMPOUND_CID>  (1) 
21402

>  <PUBCHEM_CONFORMER_RMSD>  (1) 
0.4

>  <PUBCHEM_CONFORMER_DIVERSEORDER>  (1) 
1

>  <PUBCHEM_MMFF94_PARTIAL_CHARGES>  (1) 
26
1 -0.53
10 0.08
11 0.1
12 0.1
13 -0.15
14 -0.15
15 -0.15
16 -0.15
17 -0.15
18 -0.15
19 0.15
2 -0.53
20 0.15
21 0.15
22 0.15
23 0.15
24 0.15
25 0.4
26 0.4
27 0.4
28 0.4
29 0.45
3 -0.9
30 0.45
4 -0.9
9 0.08

>  <PUBCHEM_EFFECTIVE_ROTOR_COUNT>  (1) 
0

>  <PUBCHEM_PHARMACOPHORE_FEATURES>  (1) 
9
1 1 donor
1 2 donor
1 3 cation
1 3 donor
1 4 cation
1 4 donor
6 5 6 11 12 15 16 rings
6 5 6 7 8 9 10 rings
6 7 8 13 14 17 18 rings

>  <PUBCHEM_HEAVY_ATOM_COUNT>  (1) 
18

>  <PUBCHEM_ATOM_DEF_STEREO_COUNT>  (1) 
0

>  <PUBCHEM_ATOM_UDEF_STEREO_COUNT>  (1) 
0

>  <PUBCHEM_BOND_DEF_STEREO_COUNT>  (1) 
0

>  <PUBCHEM_BOND_UDEF_STEREO_COUNT>  (1) 
0

>  <PUBCHEM_ISOTOPIC_ATOM_COUNT>  (1) 
0

>  <PUBCHEM_COMPONENT_COUNT>  (1) 
1

>  <PUBCHEM_CACTVS_TAUTO_COUNT>  (1) 
59

>  <PUBCHEM_CONFORMER_ID>  (1) 
0000539A00000001

>  <PUBCHEM_MMFF94_ENERGY>  (1) 
94.9305

>  <PUBCHEM_FEATURE_SELFOVERLAP>  (1) 
45.747

>  <PUBCHEM_SHAPE_FINGERPRINT>  (1) 
10411042 1 17906453221060456039
10608611 8 18408882940848047437
10616163 171 18267025135821971439
10967382 1 18410575093274164486
10980938 120 18410012169127463802
11132069 177 18412256237989466841
11471102 20 18410570686627123988
12553582 1 18122347869702606411
13140716 1 18410576145783752057
13221675 6 18410856559692686550
13380535 76 18337951293829733594
13897977 150 18410290315657572293
14790565 3 18337967795279396244
15196674 1 18410856559660888589
15442244 35 18195529194604191227
15536298 74 18343302565461321220
16945 1 18410573985462661508
18186145 218 18342462517044958629
193761 8 17834395614163103525
19591789 44 18338802337241262558
200 152 18131059455660078293
20510252 161 18272370862540302961
20559304 39 18409729530620830274
20645477 70 18410005512492800511
21267235 1 18411146835136754799
21501502 16 18411139099942475961
221490 88 18336554892482204578
2334 1 18410856594215799269
23402539 116 18343010103911009302
23463225 33 18410012117608948693
23559900 14 18341045225540835266
238 59 17830127477802213285
2748010 2 18410011039688176061
335352 9 17978228257989452797
34934 24 18411691084765405759
5104073 3 18410573985183107137
528886 8 18411414003492642867
53812653 166 18342454876192728608
7364860 26 18413107260337453440
8809292 202 18260835886095392331
9709674 26 18410859879766190583

>  <PUBCHEM_SHAPE_MULTIPOLES>  (1) 
348.73
6.06
2.86
0.6
2.26
0
0
0
0
-1.24
0
0.02
0
0

>  <PUBCHEM_SHAPE_SELFOVERLAP>  (1) 
795.181

>  <PUBCHEM_SHAPE_VOLUME>  (1) 
181.8

>  <PUBCHEM_COORDINATE_TYPE>  (1) 
2
5
10

$$$$
