21417
     RDKit          3D

 13 13  0  0  1  0  0  0  0  0999 V2000
   -4.0166    0.1001    0.2791 Cl  0  0  0  0  0  0  0  0  0  0  0  0
   -2.1426   -0.5448   -1.8319 Cl  0  0  0  0  0  0  0  0  0  0  0  0
   -2.0406    2.0634   -0.5689 Cl  0  0  0  0  0  0  0  0  0  0  0  0
    4.5278    0.1984   -0.4905 Cl  0  0  0  0  0  0  0  0  0  0  0  0
   -1.6470   -1.6399    1.0456 O   0  0  0  0  0  0  0  0  0  0  0  0
   -1.3184   -0.2607    0.7895 C   0  0  0  0  0  0  0  0  0  0  0  0
    0.1340   -0.1462    0.4701 C   0  0  0  0  0  0  0  0  0  0  0  0
   -2.3181    0.3198   -0.2592 C   0  0  0  0  0  0  0  0  0  0  0  0
    0.7756   -1.1643   -0.2350 C   0  0  0  0  0  0  0  0  0  0  0  0
    0.8509    0.9788    0.8778 C   0  0  0  0  0  0  0  0  0  0  0  0
    2.1343   -1.0576   -0.5323 C   0  0  0  0  0  0  0  0  0  0  0  0
    2.2095    1.0855    0.5803 C   0  0  0  0  0  0  0  0  0  0  0  0
    2.8512    0.0674   -0.1247 C   0  0  0  0  0  0  0  0  0  0  0  0
  1  8  1  0
  2  8  1  0
  3  8  1  0
  4 13  1  0
  5  6  1  0
  6  7  1  0
  6  8  1  0
  7  9  2  0
  7 10  1  0
  9 11  1  0
 10 12  2  0
 11 13  2  0
 12 13  1  0
M  END
>  <PUBCHEM_COMPOUND_CID>  (1) 
21417

>  <PUBCHEM_CONFORMER_RMSD>  (1) 
0.6

>  <PUBCHEM_CONFORMER_DIVERSEORDER>  (1) 
1

>  <PUBCHEM_MMFF94_PARTIAL_CHARGES>  (1) 
18
1 -0.29
10 -0.15
11 -0.15
12 -0.15
13 0.18
15 0.15
16 0.15
17 0.15
18 0.15
19 0.4
2 -0.29
3 -0.29
4 -0.18
5 -0.68
6 0.42
7 -0.14
8 0.87
9 -0.15

>  <PUBCHEM_EFFECTIVE_ROTOR_COUNT>  (1) 
2

>  <PUBCHEM_PHARMACOPHORE_FEATURES>  (1) 
3
1 5 acceptor
1 5 donor
6 7 9 10 11 12 13 rings

>  <PUBCHEM_HEAVY_ATOM_COUNT>  (1) 
13

>  <PUBCHEM_ATOM_DEF_STEREO_COUNT>  (1) 
0

>  <PUBCHEM_ATOM_UDEF_STEREO_COUNT>  (1) 
1

>  <PUBCHEM_BOND_DEF_STEREO_COUNT>  (1) 
0

>  <PUBCHEM_BOND_UDEF_STEREO_COUNT>  (1) 
0

>  <PUBCHEM_ISOTOPIC_ATOM_COUNT>  (1) 
0

>  <PUBCHEM_COMPONENT_COUNT>  (1) 
1

>  <PUBCHEM_CACTVS_TAUTO_COUNT>  (1) 
1

>  <PUBCHEM_CONFORMER_ID>  (1) 
000053A900000001

>  <PUBCHEM_MMFF94_ENERGY>  (1) 
28.3266

>  <PUBCHEM_FEATURE_SELFOVERLAP>  (1) 
15.223

>  <PUBCHEM_SHAPE_FINGERPRINT>  (1) 
11031198 65 18413394219612991327
11401426 45 17918270957319772626
12138202 97 18040988566123139354
12251169 10 8142079888050402333
124424 183 18335136484407689330
12932764 1 18130775750793552433
13581323 91 17022900155297696746
13839132 238 18114460037709236605
14911166 2 18130796667959478292
14943859 89 17530967994556177888
14993402 34 16988846064093086556
15310529 11 18341046311898522919
15775835 57 18060700602037813957
16945 1 18335406989441710064
17844478 74 18336272275492391249
18186145 218 17703498957035395248
18534176 82 18187085091337157802
200 152 17275103937717070683
20201158 50 18341899579934306194
20645477 70 17774450373978291622
21119208 17 17275386499315200061
21293036 1 18202285801347729980
21501502 16 18191300481515890840
22485316 2 11887669559550262044
22802520 49 18266176119640170565
23402539 116 18187076265443011271
23402655 69 18200871777849898045
23557571 272 17968954109174034386
23559900 14 18194964042356479010
25 1 18339923697451686121
2748010 2 17980195610645780832
305870 269 17460588130586839299
528886 8 18272649051940592650

>  <PUBCHEM_SHAPE_MULTIPOLES>  (1) 
269.14
6.55
1.52
1.19
2.62
0.32
-0.27
0.58
-1.11
-0.4
-0.09
-0.68
-0.19
0.38

>  <PUBCHEM_SHAPE_SELFOVERLAP>  (1) 
516.487

>  <PUBCHEM_SHAPE_VOLUME>  (1) 
164.3

>  <PUBCHEM_COORDINATE_TYPE>  (1) 
2
5
10

$$$$
