21429
     RDKit          3D

 11 11  0  0  0  0  0  0  0  0999 V2000
   -2.2372   -1.4490    0.0029 O   0  0  0  0  0  0  0  0  0  0  0  0
   -0.2706   -0.1593    0.0015 C   0  0  0  0  0  0  0  0  0  0  0  0
   -2.6230    0.9292    0.0059 C   0  0  0  0  0  0  0  0  0  0  0  0
   -1.7166   -0.3147    0.0030 C   0  0  0  0  0  0  0  0  0  0  0  0
    2.5033    0.1385   -0.0009 C   0  0  0  0  0  0  0  0  0  0  0  0
    0.2939    1.1162    0.0025 C   0  0  0  0  0  0  0  0  0  0  0  0
    0.5518   -1.2860   -0.0007 C   0  0  0  0  0  0  0  0  0  0  0  0
    1.6807    1.2651    0.0012 C   0  0  0  0  0  0  0  0  0  0  0  0
    1.9388   -1.1372   -0.0019 C   0  0  0  0  0  0  0  0  0  0  0  0
   -4.1074    0.5993   -0.0105 C   0  0  0  0  0  0  0  0  0  0  0  0
    3.9863    0.2978   -0.0030 C   0  0  0  0  0  0  0  0  0  0  0  0
  1  4  2  0
  2  4  1  0
  2  6  2  0
  2  7  1  0
  3  4  1  0
  3 10  1  0
  5  8  2  0
  5  9  1  0
  5 11  1  0
  6  8  1  0
  7  9  2  0
M  END
>  <PUBCHEM_COMPOUND_CID>  (1) 
21429

>  <PUBCHEM_CONFORMER_RMSD>  (1) 
0.4

>  <PUBCHEM_CONFORMER_DIVERSEORDER>  (1) 
1
8
3
2
6
4
7
5
9

>  <PUBCHEM_MMFF94_PARTIAL_CHARGES>  (1) 
14
1 -0.57
11 0.14
14 0.15
15 0.15
16 0.15
17 0.15
2 0.09
3 0.06
4 0.42
5 -0.14
6 -0.15
7 -0.15
8 -0.15
9 -0.15

>  <PUBCHEM_EFFECTIVE_ROTOR_COUNT>  (1) 
2

>  <PUBCHEM_PHARMACOPHORE_FEATURES>  (1) 
3
1 1 acceptor
1 10 hydrophobe
6 2 5 6 7 8 9 rings

>  <PUBCHEM_HEAVY_ATOM_COUNT>  (1) 
11

>  <PUBCHEM_ATOM_DEF_STEREO_COUNT>  (1) 
0

>  <PUBCHEM_ATOM_UDEF_STEREO_COUNT>  (1) 
0

>  <PUBCHEM_BOND_DEF_STEREO_COUNT>  (1) 
0

>  <PUBCHEM_BOND_UDEF_STEREO_COUNT>  (1) 
0

>  <PUBCHEM_ISOTOPIC_ATOM_COUNT>  (1) 
0

>  <PUBCHEM_COMPONENT_COUNT>  (1) 
1

>  <PUBCHEM_CACTVS_TAUTO_COUNT>  (1) 
2

>  <PUBCHEM_CONFORMER_ID>  (1) 
000053B500000001

>  <PUBCHEM_MMFF94_ENERGY>  (1) 
24.8961

>  <PUBCHEM_FEATURE_SELFOVERLAP>  (1) 
15.223

>  <PUBCHEM_SHAPE_FINGERPRINT>  (1) 
10219947 1 18410577253658538636
10608611 8 18410007749859726477
11062470 55 17775565329638297033
11401426 45 18342451552373195040
11471102 20 18410289177332944413
12932764 1 17022890276878158040
13380535 76 18410855451860402839
14144814 61 18411700941957969321
14325111 11 18338517542344256000
14897335 6 18412259528224578775
14993402 34 17704067391303292709
15775835 57 18408605863659092709
16945 1 18410856533959786504
17844478 74 17822298937964641717
20201158 50 18410575067520223963
20645477 70 18270116799442532391
21040471 1 18266741470727983138
23235685 24 18410005537819368960
23402539 116 18131624570171859509
23402655 69 18270389500344181397
23552423 10 18261956352794459942
23559900 14 18342745131205997636
2748010 2 18195245739732121940
3312278 4 18412830195912399851
528886 8 18411414012135331434
53812653 166 18341608231001810016
63268167 104 18411985723737679688

>  <PUBCHEM_SHAPE_MULTIPOLES>  (1) 
220.51
6.16
1.42
0.61
1.86
0.19
0
-1.17
-0.02
0.01
0
-0.02
-0.01
0

>  <PUBCHEM_SHAPE_SELFOVERLAP>  (1) 
451.336

>  <PUBCHEM_SHAPE_VOLUME>  (1) 
128.5

>  <PUBCHEM_COORDINATE_TYPE>  (1) 
2
5
10

$$$$
