21428
     RDKit          3D

  9  9  0  0  1  0  0  0  0  0999 V2000
   -0.7543    1.2006    1.3962 O   0  0  0  0  0  0  0  0  0  0  0  0
   -1.0605   -0.1213   -0.6091 C   0  0  0  0  0  0  0  0  0  0  0  0
    1.2429    0.7433    0.1168 C   0  0  0  0  0  0  0  0  0  0  0  0
   -0.2724    1.0214    0.0617 C   0  0  0  0  0  0  0  0  0  0  0  0
   -0.7557   -1.4723    0.0559 C   0  0  0  0  0  0  0  0  0  0  0  0
    1.5302   -0.6324    0.7423 C   0  0  0  0  0  0  0  0  0  0  0  0
    0.7423   -1.7642    0.0866 C   0  0  0  0  0  0  0  0  0  0  0  0
   -2.5679    0.1449   -0.5888 C   0  0  0  0  0  0  0  0  0  0  0  0
    1.8954    0.8801   -1.2615 C   0  0  0  0  0  0  0  0  0  0  0  0
  1  4  1  0
  2  4  1  0
  2  5  1  0
  2  8  1  0
  3  4  1  0
  3  6  1  0
  3  9  1  0
  5  7  1  0
  6  7  1  0
M  END
>  <PUBCHEM_COMPOUND_CID>  (1) 
21428

>  <PUBCHEM_CONFORMER_RMSD>  (1) 
0.4

>  <PUBCHEM_CONFORMER_DIVERSEORDER>  (1) 
2
4
3
1
7
9
5
6
8

>  <PUBCHEM_MMFF94_PARTIAL_CHARGES>  (1) 
3
1 -0.68
25 0.4
4 0.28

>  <PUBCHEM_EFFECTIVE_ROTOR_COUNT>  (1) 
1.2

>  <PUBCHEM_PHARMACOPHORE_FEATURES>  (1) 
3
1 1 acceptor
1 1 donor
6 2 3 4 5 6 7 rings

>  <PUBCHEM_HEAVY_ATOM_COUNT>  (1) 
9

>  <PUBCHEM_ATOM_DEF_STEREO_COUNT>  (1) 
0

>  <PUBCHEM_ATOM_UDEF_STEREO_COUNT>  (1) 
2

>  <PUBCHEM_BOND_DEF_STEREO_COUNT>  (1) 
0

>  <PUBCHEM_BOND_UDEF_STEREO_COUNT>  (1) 
0

>  <PUBCHEM_ISOTOPIC_ATOM_COUNT>  (1) 
0

>  <PUBCHEM_COMPONENT_COUNT>  (1) 
1

>  <PUBCHEM_CACTVS_TAUTO_COUNT>  (1) 
1

>  <PUBCHEM_CONFORMER_ID>  (1) 
000053B400000002

>  <PUBCHEM_MMFF94_ENERGY>  (1) 
12.5872

>  <PUBCHEM_FEATURE_SELFOVERLAP>  (1) 
15.223

>  <PUBCHEM_SHAPE_FINGERPRINT>  (1) 
12423570 1 13514945282378478998
13024252 1 14205342459164574652
137420 1 11405336004698636486
14128692 85 18268133288923791247
16945 1 18193530338315449350
18185500 45 18268979895697159951
20653085 51 17315369265129232852
21040471 1 18263914608789215527
23552423 10 18264486178947910183
241688 4 17544749032638440738
29004967 10 17896591808707477251
4369600 1 18131066090598781132
5084963 1 18266454317430103782

>  <PUBCHEM_SHAPE_MULTIPOLES>  (1) 
179.35
2.54
1.66
1.09
0.84
0.61
0.1
-0.43
-0.63
-0.29
0.06
-0.14
-0.35
-0.37

>  <PUBCHEM_SHAPE_SELFOVERLAP>  (1) 
345.624

>  <PUBCHEM_SHAPE_VOLUME>  (1) 
109.7

>  <PUBCHEM_COORDINATE_TYPE>  (1) 
2
5
10

$$$$
