2144
     RDKit          3D

 22 22  0  0  0  0  0  0  0  0999 V2000
   -4.7990    0.5139    0.2930 S   0  0  0  0  0  0  0  0  0  0  0  0
    3.5484   -1.1541    0.2558 O   0  0  0  0  0  0  0  0  0  0  0  0
    3.2428    1.6028    0.4554 O   0  0  0  0  0  0  0  0  0  0  0  0
    1.3507   -1.2239   -1.7449 O   0  0  0  0  0  0  0  0  0  0  0  0
   -5.0751    1.5701   -0.6708 O   0  0  0  0  0  0  0  0  0  0  0  0
   -5.7238   -0.6035    0.4258 O   0  0  0  0  0  0  0  0  0  0  0  0
    1.1471   -2.6534    0.0695 N   0  0  0  0  0  0  0  0  0  0  0  0
   -4.5671    1.2191    1.8321 N   0  0  0  0  0  0  0  0  0  0  0  0
    1.7638    4.8416   -0.4685 N   0  0  0  0  0  0  0  0  0  0  0  0
    2.4540   -3.2593   -0.0471 C   0  0  0  0  0  0  0  0  0  0  0  0
    3.4805   -2.4813    0.7606 C   0  0  0  0  0  0  0  0  0  0  0  0
   -0.6553   -1.1336   -0.5340 C   0  0  0  0  0  0  0  0  0  0  0  0
    4.4944   -0.3716    0.9715 C   0  0  0  0  0  0  0  0  0  0  0  0
   -3.2044   -0.1205   -0.0263 C   0  0  0  0  0  0  0  0  0  0  0  0
    4.5383    1.0212    0.3732 C   0  0  0  0  0  0  0  0  0  0  0  0
    0.6736   -1.6621   -0.7979 C   0  0  0  0  0  0  0  0  0  0  0  0
   -0.9828    0.1624   -0.9323 C   0  0  0  0  0  0  0  0  0  0  0  0
   -1.6025   -1.9232    0.1182 C   0  0  0  0  0  0  0  0  0  0  0  0
   -2.2574    0.6690   -0.6785 C   0  0  0  0  0  0  0  0  0  0  0  0
   -2.8770   -1.4167    0.3721 C   0  0  0  0  0  0  0  0  0  0  0  0
    3.2297    2.9216   -0.0727 C   0  0  0  0  0  0  0  0  0  0  0  0
    1.8212    3.4814    0.0458 C   0  0  0  0  0  0  0  0  0  0  0  0
  1  5  2  0
  1  6  2  0
  1  8  1  0
  1 14  1  0
  2 11  1  0
  2 13  1  0
  3 15  1  0
  3 21  1  0
  4 16  2  0
  7 10  1  0
  7 16  1  0
  9 22  1  0
 10 11  1  0
 12 16  1  0
 12 17  2  0
 12 18  1  0
 13 15  1  0
 14 19  2  0
 14 20  1  0
 17 19  1  0
 18 20  2  0
 21 22  1  0
M  END
>  <PUBCHEM_COMPOUND_CID>  (1) 
2144

>  <PUBCHEM_CONFORMER_RMSD>  (1) 
1

>  <PUBCHEM_CONFORMER_DIVERSEORDER>  (1) 
1
46
63
37
32
17
64
27
74
8
13
29
57
2
10
39
33
48
65
75
23
62
12
25
35
81
58
69
77
78
76
55
49
19
31
43
50
73
47
70
6
82
41
52
15
79
5
71
38
16
21
51
56
67
53
9
22
28
34
14
61
3
44
36
24
42
66
40
20
60
11
18
45
72
4
68
7
30
54
59
26
80

>  <PUBCHEM_MMFF94_PARTIAL_CHARGES>  (1) 
31
1 1.45
10 0.3
11 0.28
12 0.09
13 0.28
14 -0.01
15 0.28
16 0.54
17 -0.15
18 -0.15
19 -0.15
2 -0.56
20 -0.15
21 0.28
22 0.27
29 0.37
3 -0.56
32 0.15
33 0.15
34 0.15
35 0.15
4 -0.57
40 0.42
41 0.42
42 0.36
43 0.36
5 -0.65
6 -0.65
7 -0.73
8 -0.98
9 -0.99

>  <PUBCHEM_EFFECTIVE_ROTOR_COUNT>  (1) 
11

>  <PUBCHEM_PHARMACOPHORE_FEATURES>  (1) 
10
1 2 acceptor
1 3 acceptor
1 4 acceptor
1 5 acceptor
1 6 acceptor
1 7 donor
1 8 donor
1 9 cation
1 9 donor
6 12 14 17 18 19 20 rings

>  <PUBCHEM_HEAVY_ATOM_COUNT>  (1) 
22

>  <PUBCHEM_ATOM_DEF_STEREO_COUNT>  (1) 
0

>  <PUBCHEM_ATOM_UDEF_STEREO_COUNT>  (1) 
0

>  <PUBCHEM_BOND_DEF_STEREO_COUNT>  (1) 
0

>  <PUBCHEM_BOND_UDEF_STEREO_COUNT>  (1) 
0

>  <PUBCHEM_ISOTOPIC_ATOM_COUNT>  (1) 
0

>  <PUBCHEM_COMPONENT_COUNT>  (1) 
1

>  <PUBCHEM_CACTVS_TAUTO_COUNT>  (1) 
2

>  <PUBCHEM_CONFORMER_ID>  (1) 
0000086000000001

>  <PUBCHEM_MMFF94_ENERGY>  (1) 
23.7094

>  <PUBCHEM_FEATURE_SELFOVERLAP>  (1) 
50.771

>  <PUBCHEM_SHAPE_FINGERPRINT>  (1) 
11045977 3 18187086118087887043
12633257 1 18187631519015790890
12925494 130 18338510851371427713
13075007 39 17968674781723339217
13583140 156 18261119594787562411
13675066 3 17822861870796495311
14251764 75 18123478429797243096
151778 21 18191586556746077452
15475509 84 17829882136617751082
16760501 71 18411142446101808035
18785283 64 18335985358327990184
21859007 373 17314496055876760309
23227448 37 18340762732219461079
23558518 356 17837477915076862054
23559900 14 18200881660338077142
474 4 18341893008608008514
4990 188 11095869463373858839
5048184 11 17833267897960465596
5104073 3 18335714793501843211
5312544 6 18122337145158361735

>  <PUBCHEM_SHAPE_MULTIPOLES>  (1) 
412.31
10.91
4.54
1.07
8.23
4.23
-0.03
2.89
-3.57
-6.02
0.29
0.36
-0.03
-0.37

>  <PUBCHEM_SHAPE_SELFOVERLAP>  (1) 
815.348

>  <PUBCHEM_SHAPE_VOLUME>  (1) 
245

>  <PUBCHEM_COORDINATE_TYPE>  (1) 
2
5
10

$$$$
