21455
     RDKit          3D

 14 14  0  0  0  0  0  0  0  0999 V2000
    0.0066    1.6116   -0.0193 Si  0  0  0  0  0  4  0  0  0  0  0  0
   -2.0429   -0.2881   -0.3372 O   0  0  0  0  0  0  0  0  0  0  0  0
   -3.9275   -0.6032    0.9462 O   0  0  0  0  0  0  0  0  0  0  0  0
   -3.4793   -1.9289   -0.8785 N   0  0  0  0  0  0  0  0  0  0  0  0
    1.3657    0.2853    0.0239 C   0  0  0  0  0  0  0  0  0  0  0  0
   -1.6411    0.8082    0.5073 C   0  0  0  0  0  0  0  0  0  0  0  0
   -0.1990    2.3328   -1.7381 C   0  0  0  0  0  0  0  0  0  0  0  0
    0.4407    2.9800    1.1906 C   0  0  0  0  0  0  0  0  0  0  0  0
    2.0385   -0.0106   -1.1407 C   0  0  0  0  0  0  0  0  0  0  0  0
    1.6393   -0.3422    1.2188 C   0  0  0  0  0  0  0  0  0  0  0  0
    3.0366   -0.9845   -1.1088 C   0  0  0  0  0  0  0  0  0  0  0  0
    2.6375   -1.3160    1.2508 C   0  0  0  0  0  0  0  0  0  0  0  0
    3.3361   -1.6372    0.0869 C   0  0  0  0  0  0  0  0  0  0  0  0
   -3.2113   -0.9070   -0.0018 C   0  0  0  0  0  0  0  0  0  0  0  0
  1  5  1  0
  1  6  1  0
  1  7  1  0
  1  8  1  0
  2  6  1  0
  2 14  1  0
  3 14  2  0
  4 14  1  0
  5  9  2  0
  5 10  1  0
  9 11  1  0
 10 12  2  0
 11 13  2  0
 12 13  1  0
M  END
>  <PUBCHEM_COMPOUND_CID>  (1) 
21455

>  <PUBCHEM_CONFORMER_RMSD>  (1) 
0.6

>  <PUBCHEM_CONFORMER_DIVERSEORDER>  (1) 
1
6
11
4
14
16
12
10
19
13
5
7
2
9
15
8
3
18
17

>  <PUBCHEM_MMFF94_PARTIAL_CHARGES>  (1) 
21
1 0.46
10 -0.15
11 -0.15
12 -0.15
13 -0.15
14 0.78
2 -0.43
23 0.15
24 0.15
25 0.15
26 0.15
27 0.15
28 0.37
29 0.37
3 -0.57
4 -0.8
5 -0.22
6 0.2
7 -0.08
8 -0.08
9 -0.15

>  <PUBCHEM_EFFECTIVE_ROTOR_COUNT>  (1) 
4

>  <PUBCHEM_PHARMACOPHORE_FEATURES>  (1) 
3
1 3 acceptor
1 4 donor
6 5 9 10 11 12 13 rings

>  <PUBCHEM_HEAVY_ATOM_COUNT>  (1) 
14

>  <PUBCHEM_ATOM_DEF_STEREO_COUNT>  (1) 
0

>  <PUBCHEM_ATOM_UDEF_STEREO_COUNT>  (1) 
0

>  <PUBCHEM_BOND_DEF_STEREO_COUNT>  (1) 
0

>  <PUBCHEM_BOND_UDEF_STEREO_COUNT>  (1) 
0

>  <PUBCHEM_ISOTOPIC_ATOM_COUNT>  (1) 
0

>  <PUBCHEM_COMPONENT_COUNT>  (1) 
1

>  <PUBCHEM_CACTVS_TAUTO_COUNT>  (1) 
2

>  <PUBCHEM_CONFORMER_ID>  (1) 
000053CF00000001

>  <PUBCHEM_MMFF94_ENERGY>  (1) 
22.4909

>  <PUBCHEM_FEATURE_SELFOVERLAP>  (1) 
15.223

>  <PUBCHEM_SHAPE_FINGERPRINT>  (1) 
10618630 7 18411981321475517158
11578080 2 18261945284712302604
11725454 13 14708909902857151836
12202030 40 17843968035741528606
12553582 1 18412830187591880183
12841375 7 18342454863349934135
14787075 74 18335697291388733888
14817 1 12184377423433963636
15375462 189 18410020956656944801
15906896 17 17172937128412748865
17844478 74 17346030044607432912
18186145 218 12829494696868564156
20291156 8 18408890628792001987
20361792 2 18333169470631641277
20645477 70 18196924698942229367
20671657 53 17458347411978792198
21713013 43 16588034536606367147
21731516 1 18410011044046492251
22112679 90 18193863490370638752
2255824 54 18118409681234562221
23402539 116 17894919473513612950
23419403 2 17904157647098079324
23557571 272 18269269072151619184
3250762 1 18191840427583283684
449060 23 18413110545681817591
568465 68 16773227375916167350
7364860 26 18056761163602963129
81228 2 17841710716489134272
94968 8 18187369877939531411

>  <PUBCHEM_SHAPE_MULTIPOLES>  (1) 
289.61
5.77
2.7
1.46
2.93
1.62
0.16
-5.69
0
0.76
-0.03
-0.43
0.43
-0.25

>  <PUBCHEM_SHAPE_SELFOVERLAP>  (1) 
565.998

>  <PUBCHEM_SHAPE_VOLUME>  (1) 
174.7

>  <PUBCHEM_COORDINATE_TYPE>  (1) 
2
5
10

$$$$
