21458
     RDKit          3D

  7  6  0  0  0  0  0  0  0  0999 V2000
    3.2993   -0.0001    0.1913 O   0  0  0  0  0  0  0  0  0  0  0  0
   -1.5656    0.0000    0.3214 C   0  0  0  0  0  0  0  0  0  0  0  0
   -2.3424    1.2565   -0.0703 C   0  0  0  0  0  0  0  0  0  0  0  0
   -2.3426   -1.2565   -0.0702 C   0  0  0  0  0  0  0  0  0  0  0  0
   -0.2083   -0.0001   -0.3365 C   0  0  0  0  0  0  0  0  0  0  0  0
    0.9408    0.0001    0.3505 C   0  0  0  0  0  0  0  0  0  0  0  0
    2.2189    0.0000   -0.3862 C   0  0  0  0  0  0  0  0  0  0  0  0
  1  7  2  0
  2  3  1  0
  2  4  1  0
  2  5  1  0
  5  6  2  0
  6  7  1  0
M  END
>  <PUBCHEM_COMPOUND_CID>  (1) 
21458

>  <PUBCHEM_CONFORMER_RMSD>  (1) 
0.4

>  <PUBCHEM_CONFORMER_DIVERSEORDER>  (1) 
1
4
2
3

>  <PUBCHEM_MMFF94_PARTIAL_CHARGES>  (1) 
8
1 -0.57
15 0.15
16 0.15
17 0.06
2 0.14
5 -0.29
6 -0.14
7 0.5

>  <PUBCHEM_EFFECTIVE_ROTOR_COUNT>  (1) 
2

>  <PUBCHEM_PHARMACOPHORE_FEATURES>  (1) 
2
1 1 acceptor
3 2 3 4 hydrophobe

>  <PUBCHEM_HEAVY_ATOM_COUNT>  (1) 
7

>  <PUBCHEM_ATOM_DEF_STEREO_COUNT>  (1) 
0

>  <PUBCHEM_ATOM_UDEF_STEREO_COUNT>  (1) 
0

>  <PUBCHEM_BOND_DEF_STEREO_COUNT>  (1) 
0

>  <PUBCHEM_BOND_UDEF_STEREO_COUNT>  (1) 
1

>  <PUBCHEM_ISOTOPIC_ATOM_COUNT>  (1) 
0

>  <PUBCHEM_COMPONENT_COUNT>  (1) 
1

>  <PUBCHEM_CACTVS_TAUTO_COUNT>  (1) 
1

>  <PUBCHEM_CONFORMER_ID>  (1) 
000053D200000001

>  <PUBCHEM_MMFF94_ENERGY>  (1) 
3.2645

>  <PUBCHEM_FEATURE_SELFOVERLAP>  (1) 
10.148

>  <PUBCHEM_SHAPE_FINGERPRINT>  (1) 
12932741 1 17846770823597259256
12932764 1 18410860957907846970
14325111 11 18410575085069338758
14390081 3 18342453716546381240
29004967 10 17060346227300349642
3248919 1 17385728010512014610
5460574 1 11097851900017951878

>  <PUBCHEM_SHAPE_MULTIPOLES>  (1) 
138.19
4.61
1.07
0.68
2.72
0
-0.01
0
0.03
-1.08
-0.04
0.01
0
0

>  <PUBCHEM_SHAPE_SELFOVERLAP>  (1) 
249.406

>  <PUBCHEM_SHAPE_VOLUME>  (1) 
89.3

>  <PUBCHEM_COORDINATE_TYPE>  (1) 
2
5
10

$$$$
