21466
     RDKit          3D

 14 14  0  0  0  0  0  0  0  0999 V2000
   -2.8650    0.0018    0.0002 N   0  0  0  0  0  0  0  0  0  0  0  0
    2.8165    0.0018    0.0000 N   0  0  0  0  0  0  0  0  0  0  0  0
   -1.3344    0.0017   -0.0004 C   0  0  0  0  0  0  0  0  0  0  0  0
    1.3707    0.0023   -0.0004 C   0  0  0  0  0  0  0  0  0  0  0  0
   -3.3552   -0.7204    1.2520 C   0  0  0  0  0  0  0  0  0  0  0  0
   -3.3566   -0.7031   -1.2610 C   0  0  0  0  0  0  0  0  0  0  0  0
   -3.4423    1.4157    0.0098 C   0  0  0  0  0  0  0  0  0  0  0  0
    3.3922   -0.7212   -1.2511 C   0  0  0  0  0  0  0  0  0  0  0  0
    3.3919   -0.7025    1.2619 C   0  0  0  0  0  0  0  0  0  0  0  0
    3.4792    1.4156   -0.0099 C   0  0  0  0  0  0  0  0  0  0  0  0
   -0.7215   -1.2060   -0.0003 C   0  0  0  0  0  0  0  0  0  0  0  0
    0.6734   -1.2058   -0.0002 C   0  0  0  0  0  0  0  0  0  0  0  0
   -0.7219    1.2099   -0.0004 C   0  0  0  0  0  0  0  0  0  0  0  0
    0.6730    1.2102   -0.0004 C   0  0  0  0  0  0  0  0  0  0  0  0
  1  3  1  0
  1  5  1  0
  1  6  1  0
  1  7  1  0
  2  4  1  0
  2  8  1  0
  2  9  1  0
  2 10  1  0
  3 11  2  0
  3 13  1  0
  4 12  2  0
  4 14  1  0
 11 12  1  0
 13 14  2  0
M  CHG  2   1   1   2   1
M  END
>  <PUBCHEM_COMPOUND_CID>  (1) 
21466

>  <PUBCHEM_CONFORMER_RMSD>  (1) 
0.6

>  <PUBCHEM_CONFORMER_DIVERSEORDER>  (1) 
1

>  <PUBCHEM_MMFF94_PARTIAL_CHARGES>  (1) 
18
1 -0.87
10 0.5
11 -0.15
12 -0.15
13 -0.15
14 -0.15
2 -0.87
3 0.36
33 0.15
34 0.15
35 0.15
36 0.15
4 0.36
5 0.5
6 0.5
7 0.5
8 0.5
9 0.5

>  <PUBCHEM_EFFECTIVE_ROTOR_COUNT>  (1) 
2

>  <PUBCHEM_PHARMACOPHORE_FEATURES>  (1) 
3
1 1 cation
1 2 cation
6 3 4 11 12 13 14 rings

>  <PUBCHEM_HEAVY_ATOM_COUNT>  (1) 
14

>  <PUBCHEM_ATOM_DEF_STEREO_COUNT>  (1) 
0

>  <PUBCHEM_ATOM_UDEF_STEREO_COUNT>  (1) 
0

>  <PUBCHEM_BOND_DEF_STEREO_COUNT>  (1) 
0

>  <PUBCHEM_BOND_UDEF_STEREO_COUNT>  (1) 
0

>  <PUBCHEM_ISOTOPIC_ATOM_COUNT>  (1) 
0

>  <PUBCHEM_COMPONENT_COUNT>  (1) 
1

>  <PUBCHEM_CACTVS_TAUTO_COUNT>  (1) 
1

>  <PUBCHEM_CONFORMER_ID>  (1) 
000053DA00000001

>  <PUBCHEM_MMFF94_ENERGY>  (1) 
75.5473

>  <PUBCHEM_FEATURE_SELFOVERLAP>  (1) 
15.223

>  <PUBCHEM_SHAPE_FINGERPRINT>  (1) 
10130415 120 18260541208652711032
10219947 1 18411982472447358358
10608611 8 18410855460139153024
11132069 177 18130781244072567776
11401426 45 18342444933359151989
12032990 46 18410866459539614727
124424 183 17895183390273568971
12932764 1 18411136939405146978
13296908 3 18408889541959333382
13581323 91 16486970739015755359
13705890 14 16917348147396591782
13760787 19 17312830359235719979
13760787 5 18333166167548641575
14144814 61 18334012791517840392
14289901 80 15697707211748162626
14325111 11 18410856563945501252
14993402 34 18412822520832248199
15309172 13 18343306959229046627
15653759 3 17603873338061072561
16945 1 18410573989451849095
17844478 74 18114189652638738385
18186145 218 17822013094678805598
18522853 295 18410296891579699522
20645476 183 17531824544385221406
20645477 70 18059575732991934838
23402539 116 18272359859355940028
23402655 69 18201439155513701061
23463225 33 18261387811104849170
23559900 14 18201440238673446358
2748010 2 18120938574889290627
581208 293 18131347514436726622
633830 44 18410297990579423278

>  <PUBCHEM_SHAPE_MULTIPOLES>  (1) 
278.15
7.07
1.48
1.07
0.2
0.32
0
0.11
0
0
0
0.01
-0.33
0

>  <PUBCHEM_SHAPE_SELFOVERLAP>  (1) 
555.867

>  <PUBCHEM_SHAPE_VOLUME>  (1) 
167.6

>  <PUBCHEM_COORDINATE_TYPE>  (1) 
2
5
10

$$$$
