21475
     RDKit          3D

 11 11  0  0  1  0  0  0  0  0999 V2000
   -2.6308   -1.1914    0.8422 O   0  0  0  0  0  0  0  0  0  0  0  0
   -0.6455   -0.0845    0.0865 C   0  0  0  0  0  0  0  0  0  0  0  0
   -2.1363   -0.0326    0.1625 C   0  0  0  0  0  0  0  0  0  0  0  0
    0.1163    1.0833    0.1320 C   0  0  0  0  0  0  0  0  0  0  0  0
   -0.0161   -1.3237   -0.0308 C   0  0  0  0  0  0  0  0  0  0  0  0
    1.5075    1.0116    0.0601 C   0  0  0  0  0  0  0  0  0  0  0  0
    2.1368   -0.2277   -0.0573 C   0  0  0  0  0  0  0  0  0  0  0  0
    1.3750   -1.3953   -0.1027 C   0  0  0  0  0  0  0  0  0  0  0  0
   -2.7952    0.0443   -1.2173 C   0  0  0  0  0  0  0  0  0  0  0  0
   -0.5358    2.4210    0.2594 C   0  0  0  0  0  0  0  0  0  0  0  0
    3.6241   -0.3049   -0.1346 C   0  0  0  0  0  0  0  0  0  0  0  0
  1  3  1  0
  2  3  1  0
  2  4  2  0
  2  5  1  0
  3  9  1  0
  4  6  1  0
  4 10  1  0
  5  8  2  0
  6  7  2  0
  7  8  1  0
  7 11  1  0
M  END
>  <PUBCHEM_COMPOUND_CID>  (1) 
21475

>  <PUBCHEM_CONFORMER_RMSD>  (1) 
0.4

>  <PUBCHEM_CONFORMER_DIVERSEORDER>  (1) 
2
6
3
1
5
4

>  <PUBCHEM_MMFF94_PARTIAL_CHARGES>  (1) 
14
1 -0.68
10 0.14
11 0.14
13 0.15
14 0.15
15 0.15
2 -0.14
25 0.4
3 0.42
4 -0.14
5 -0.15
6 -0.15
7 -0.14
8 -0.15

>  <PUBCHEM_EFFECTIVE_ROTOR_COUNT>  (1) 
1

>  <PUBCHEM_PHARMACOPHORE_FEATURES>  (1) 
3
1 1 acceptor
1 1 donor
6 2 4 5 6 7 8 rings

>  <PUBCHEM_HEAVY_ATOM_COUNT>  (1) 
11

>  <PUBCHEM_ATOM_DEF_STEREO_COUNT>  (1) 
0

>  <PUBCHEM_ATOM_UDEF_STEREO_COUNT>  (1) 
1

>  <PUBCHEM_BOND_DEF_STEREO_COUNT>  (1) 
0

>  <PUBCHEM_BOND_UDEF_STEREO_COUNT>  (1) 
0

>  <PUBCHEM_ISOTOPIC_ATOM_COUNT>  (1) 
0

>  <PUBCHEM_COMPONENT_COUNT>  (1) 
1

>  <PUBCHEM_CACTVS_TAUTO_COUNT>  (1) 
1

>  <PUBCHEM_CONFORMER_ID>  (1) 
000053E300000002

>  <PUBCHEM_MMFF94_ENERGY>  (1) 
27.9109

>  <PUBCHEM_FEATURE_SELFOVERLAP>  (1) 
15.223

>  <PUBCHEM_SHAPE_FINGERPRINT>  (1) 
10219947 1 18271810150322572350
10857977 72 18410852183189571026
11206711 2 18339082579783853788
12032990 46 18411428327451577194
12138202 97 17604133870793377415
12423570 1 8745409603649606440
12897270 3 18410572860028314246
14128692 85 17631434830288828919
14993402 34 17988915691268277703
16945 1 18412544301693987706
17844478 74 17968105256433118763
18534176 82 17603299362947805239
193761 8 17762903169196947426
20201158 50 18335135375847294783
21061003 4 18339374053407194393
21501502 16 18051692144658367754
23402539 116 18271232859926978718
23402655 69 18267567028342012381
23552423 10 18046635507872871974
2748010 2 18124034791396555694
29004967 10 18410858771606047419
3312278 4 18333734593606548754
5084963 1 17749394809729523111
5255222 1 17688598581392600469
528886 8 18412260614703579291

>  <PUBCHEM_SHAPE_MULTIPOLES>  (1) 
220.51
4.33
1.81
0.81
1.07
0.87
-0.1
-1.03
-0.56
-0.24
0.22
-0.49
-0.07
0.18

>  <PUBCHEM_SHAPE_SELFOVERLAP>  (1) 
451.348

>  <PUBCHEM_SHAPE_VOLUME>  (1) 
129.7

>  <PUBCHEM_COORDINATE_TYPE>  (1) 
2
5
10

$$$$
