21487
     RDKit          3D

 21 21  0  0  1  0  0  0  0  0999 V2000
   -4.2916    0.4301   -0.0287 S   0  0  0  0  0  0  0  0  0  0  0  0
   -1.7110    0.2075    0.6664 O   0  0  0  0  0  0  0  0  0  0  0  0
   -0.1916   -3.5616    0.7890 O   0  0  0  0  0  0  0  0  0  0  0  0
   -1.9022   -2.2096    1.0439 O   0  0  0  0  0  0  0  0  0  0  0  0
    4.3675    0.2926   -0.9011 O   0  0  0  0  0  0  0  0  0  0  0  0
    4.0974   -1.8559   -0.5398 O   0  0  0  0  0  0  0  0  0  0  0  0
   -2.2316   -0.1041   -1.5761 O   0  0  0  0  0  0  0  0  0  0  0  0
   -0.6978   -2.4150    0.7630 N   0  0  0  0  0  0  0  0  0  0  0  0
    3.6479   -0.6852   -0.5840 N   0  0  0  0  0  0  0  0  0  0  0  0
   -0.1197    2.4461   -0.0447 C   0  0  0  0  0  0  0  0  0  0  0  0
    0.4292    1.0306    0.0070 C   0  0  0  0  0  0  0  0  0  0  0  0
    0.5883    3.4105    0.9288 C   0  0  0  0  0  0  0  0  0  0  0  0
   -0.0480    2.9998   -1.4730 C   0  0  0  0  0  0  0  0  0  0  0  0
   -0.3996   -0.0169    0.3613 C   0  0  0  0  0  0  0  0  0  0  0  0
    1.7610    0.8330   -0.3072 C   0  0  0  0  0  0  0  0  0  0  0  0
    0.5334    2.9440    2.3785 C   0  0  0  0  0  0  0  0  0  0  0  0
    0.1221   -1.3098    0.4033 C   0  0  0  0  0  0  0  0  0  0  0  0
    2.2826   -0.4598   -0.2651 C   0  0  0  0  0  0  0  0  0  0  0  0
    1.4632   -1.5314    0.0901 C   0  0  0  0  0  0  0  0  0  0  0  0
   -2.5923    0.1377   -0.4294 C   0  0  0  0  0  0  0  0  0  0  0  0
   -5.1073   -0.5825   -1.2823 C   0  0  0  0  0  0  0  0  0  0  0  0
  1 20  1  0
  1 21  1  0
  2 14  1  0
  2 20  1  0
  3  8  1  0
  4  8  2  0
  5  9  1  0
  6  9  2  0
  7 20  2  0
  8 17  1  0
  9 18  1  0
 10 11  1  0
 10 12  1  0
 10 13  1  0
 11 14  2  0
 11 15  1  0
 12 16  1  0
 14 17  1  0
 15 18  2  0
 17 19  2  0
 18 19  1  0
M  CHG  4   3  -1   5  -1   8   1   9   1
M  END
>  <PUBCHEM_COMPOUND_CID>  (1) 
21487

>  <PUBCHEM_CONFORMER_RMSD>  (1) 
0.8

>  <PUBCHEM_CONFORMER_DIVERSEORDER>  (1) 
1
7
10
3
5
17
16
15
11
13
19
18
6
9
14
8
12
2
4

>  <PUBCHEM_MMFF94_PARTIAL_CHARGES>  (1) 
20
1 -0.37
10 0.14
11 -0.14
14 0.08
15 -0.15
17 0.13
18 0.13
19 -0.15
2 -0.23
20 0.86
21 0.23
28 0.15
3 -0.52
32 0.15
4 -0.52
5 -0.52
6 -0.52
7 -0.57
8 0.91
9 0.91

>  <PUBCHEM_EFFECTIVE_ROTOR_COUNT>  (1) 
7

>  <PUBCHEM_PHARMACOPHORE_FEATURES>  (1) 
10
1 13 hydrophobe
1 16 hydrophobe
1 21 hydrophobe
1 3 acceptor
1 3 anion
1 4 acceptor
1 5 acceptor
1 5 anion
1 6 acceptor
6 11 14 15 17 18 19 rings

>  <PUBCHEM_HEAVY_ATOM_COUNT>  (1) 
21

>  <PUBCHEM_ATOM_DEF_STEREO_COUNT>  (1) 
0

>  <PUBCHEM_ATOM_UDEF_STEREO_COUNT>  (1) 
1

>  <PUBCHEM_BOND_DEF_STEREO_COUNT>  (1) 
0

>  <PUBCHEM_BOND_UDEF_STEREO_COUNT>  (1) 
0

>  <PUBCHEM_ISOTOPIC_ATOM_COUNT>  (1) 
0

>  <PUBCHEM_COMPONENT_COUNT>  (1) 
1

>  <PUBCHEM_CACTVS_TAUTO_COUNT>  (1) 
1

>  <PUBCHEM_CONFORMER_ID>  (1) 
000053EF00000001

>  <PUBCHEM_MMFF94_ENERGY>  (1) 
67.4003

>  <PUBCHEM_FEATURE_SELFOVERLAP>  (1) 
50.91

>  <PUBCHEM_SHAPE_FINGERPRINT>  (1) 
104564 63 18195528082455997077
10693767 8 18270946961150674367
10967382 1 18335145262904227674
11680986 33 18195245756911971785
12035758 1 18336259166798556225
12788726 201 18269280067157003720
13134695 92 18130786797734910989
13140716 1 18408891767348777946
13149001 5 18337675346449481375
14790565 3 18263377909866591093
15852999 172 17619031347048339033
16752209 62 18189616034450818330
16945 1 18187643574904230360
18186145 218 18263629806040947765
20510252 161 18268431231369454840
20511035 2 18053103118455619901
20600515 1 18265354878985843540
20775438 99 17623257857008971199
20832881 197 18343018865897513553
21029758 11 18342459248453702520
221490 88 18194122047902914039
22182313 1 17973156520478804099
229495 10 16521930879209722753
2334 1 18193288609498917298
23402539 116 18339923710262930118
23419403 2 18055352697960922480
23557571 272 18130233640823499836
23558518 356 17836943204443546038
25 1 18260261911456748663
2748010 2 18048033265986812064
283562 15 18266461992889979322
3060560 45 18262783151806719367
3250762 1 17905329876716390923
350125 39 17831032577629794369
353137 74 18190461545680524684
394222 165 17386006101112440904
7364860 26 17987225810821947873
81228 2 18126587642785316232
9981440 41 16978962799127315977

>  <PUBCHEM_SHAPE_MULTIPOLES>  (1) 
390.84
6.39
3.82
1.41
3.47
1.26
-0.29
-2.8
3.19
-1.2
-1.55
0.18
0.87
0.59

>  <PUBCHEM_SHAPE_SELFOVERLAP>  (1) 
798.167

>  <PUBCHEM_SHAPE_VOLUME>  (1) 
229.5

>  <PUBCHEM_COORDINATE_TYPE>  (1) 
2
5
10

$$$$
