21491
     RDKit          3D

 14 14  0  0  1  0  0  0  0  0999 V2000
    2.7891    1.2798    0.1632 O   0  0  0  0  0  0  0  0  0  0  0  0
   -2.9759    1.2778   -0.1238 O   0  0  0  0  0  0  0  0  0  0  0  0
    2.9220   -0.7683    1.1550 O   0  0  0  0  0  0  0  0  0  0  0  0
   -3.2756   -0.8317    0.6862 O   0  0  0  0  0  0  0  0  0  0  0  0
   -0.1058    0.5634    0.0204 C   0  0  0  0  0  0  0  0  0  0  0  0
    1.1323   -0.2935   -0.4097 C   0  0  0  0  0  0  0  0  0  0  0  0
   -1.2735   -0.2832   -0.5527 C   0  0  0  0  0  0  0  0  0  0  0  0
    0.6634   -1.7344   -0.1360 C   0  0  0  0  0  0  0  0  0  0  0  0
   -0.8482   -1.7441   -0.3746 C   0  0  0  0  0  0  0  0  0  0  0  0
   -0.2068    0.6971    1.5622 C   0  0  0  0  0  0  0  0  0  0  0  0
   -0.1177    1.9809   -0.5741 C   0  0  0  0  0  0  0  0  0  0  0  0
    1.5343   -0.1453   -1.8871 C   0  0  0  0  0  0  0  0  0  0  0  0
    2.3687    0.0121    0.3945 C   0  0  0  0  0  0  0  0  0  0  0  0
   -2.6063   -0.0108    0.0766 C   0  0  0  0  0  0  0  0  0  0  0  0
  1 13  1  0
  2 14  1  0
  3 13  2  0
  4 14  2  0
  5  6  1  0
  5  7  1  0
  5 10  1  0
  5 11  1  0
  6  8  1  0
  6 12  1  0
  6 13  1  0
  7  9  1  0
  7 14  1  0
  8  9  1  0
M  END
>  <PUBCHEM_COMPOUND_CID>  (1) 
21491

>  <PUBCHEM_CONFORMER_RMSD>  (1) 
0.6

>  <PUBCHEM_CONFORMER_DIVERSEORDER>  (1) 
1
5
18
10
6
11
9
14
16
8
4
17
15
19
12
13
3
2
7

>  <PUBCHEM_MMFF94_PARTIAL_CHARGES>  (1) 
10
1 -0.65
13 0.66
14 0.66
2 -0.65
29 0.5
3 -0.57
30 0.5
4 -0.57
6 0.06
7 0.06

>  <PUBCHEM_EFFECTIVE_ROTOR_COUNT>  (1) 
3

>  <PUBCHEM_PHARMACOPHORE_FEATURES>  (1) 
8
1 1 acceptor
1 2 acceptor
1 3 acceptor
1 4 acceptor
3 1 3 13 anion
3 2 4 14 anion
3 5 10 11 hydrophobe
5 5 6 7 8 9 rings

>  <PUBCHEM_HEAVY_ATOM_COUNT>  (1) 
14

>  <PUBCHEM_ATOM_DEF_STEREO_COUNT>  (1) 
0

>  <PUBCHEM_ATOM_UDEF_STEREO_COUNT>  (1) 
2

>  <PUBCHEM_BOND_DEF_STEREO_COUNT>  (1) 
0

>  <PUBCHEM_BOND_UDEF_STEREO_COUNT>  (1) 
0

>  <PUBCHEM_ISOTOPIC_ATOM_COUNT>  (1) 
0

>  <PUBCHEM_COMPONENT_COUNT>  (1) 
1

>  <PUBCHEM_CACTVS_TAUTO_COUNT>  (1) 
1

>  <PUBCHEM_CONFORMER_ID>  (1) 
000053F300000001

>  <PUBCHEM_MMFF94_ENERGY>  (1) 
46.2813

>  <PUBCHEM_FEATURE_SELFOVERLAP>  (1) 
40.709

>  <PUBCHEM_SHAPE_FINGERPRINT>  (1) 
10219947 1 18409164432898826867
11132069 177 17917135174334537826
11769659 78 16878213208237930146
12119455 92 16558452133395334794
12138202 97 17846497083930586502
12382932 28 18337673023098787097
12423570 1 11155036009277483932
13024252 1 14924497538489208834
13172582 1 18411141359111078477
15775835 57 18408042931207423848
16945 1 17489867154503430753
20511035 2 17698715140497873256
21501502 16 17840582918374927903
23419403 2 16320558275525559899
2748010 2 18268437836802361311
369184 2 18260257560222049306
5084963 1 18059296444511994014
528886 8 18409722954730559409

>  <PUBCHEM_SHAPE_MULTIPOLES>  (1) 
264.64
4.05
1.7
1.24
1.11
0.02
0.1
0.2
-0.79
0.14
0.14
-0.53
0.06
0.06

>  <PUBCHEM_SHAPE_SELFOVERLAP>  (1) 
546.96

>  <PUBCHEM_SHAPE_VOLUME>  (1) 
153.8

>  <PUBCHEM_COORDINATE_TYPE>  (1) 
2
5
10

$$$$
