21496
     RDKit          3D

 18 19  0  0  0  0  0  0  0  0999 V2000
   -0.0116   -2.1685    0.3255 O   0  0  0  0  0  0  0  0  0  0  0  0
    1.2924   -0.1697   -0.0139 C   0  0  0  0  0  0  0  0  0  0  0  0
   -1.2922   -0.1696   -0.0601 C   0  0  0  0  0  0  0  0  0  0  0  0
    2.5432   -1.0421    0.1061 C   0  0  0  0  0  0  0  0  0  0  0  0
   -2.5396   -1.0377    0.1103 C   0  0  0  0  0  0  0  0  0  0  0  0
   -0.0023   -0.9630    0.0769 C   0  0  0  0  0  0  0  0  0  0  0  0
    3.8306   -0.2560    0.0257 C   0  0  0  0  0  0  0  0  0  0  0  0
   -3.8279   -0.2533    0.0302 C   0  0  0  0  0  0  0  0  0  0  0  0
    4.4222   -0.0477   -1.2097 C   0  0  0  0  0  0  0  0  0  0  0  0
   -4.3699    0.2812    1.1879 C   0  0  0  0  0  0  0  0  0  0  0  0
    4.3952    0.2422    1.1887 C   0  0  0  0  0  0  0  0  0  0  0  0
   -4.4432   -0.0828   -1.1995 C   0  0  0  0  0  0  0  0  0  0  0  0
    5.6109    0.6783   -1.2842 C   0  0  0  0  0  0  0  0  0  0  0  0
   -5.5595    1.0058    1.1140 C   0  0  0  0  0  0  0  0  0  0  0  0
    5.5838    0.9684    1.1142 C   0  0  0  0  0  0  0  0  0  0  0  0
   -5.6328    0.6420   -1.2733 C   0  0  0  0  0  0  0  0  0  0  0  0
    6.1916    1.1864   -0.1223 C   0  0  0  0  0  0  0  0  0  0  0  0
   -6.1909    1.1862   -0.1165 C   0  0  0  0  0  0  0  0  0  0  0  0
  1  6  2  0
  2  4  1  0
  2  6  1  0
  3  5  1  0
  3  6  1  0
  4  7  1  0
  5  8  1  0
  7  9  2  0
  7 11  1  0
  8 10  2  0
  8 12  1  0
  9 13  1  0
 10 14  1  0
 11 15  2  0
 12 16  2  0
 13 17  2  0
 14 18  2  0
 15 17  1  0
 16 18  1  0
M  END
>  <PUBCHEM_COMPOUND_CID>  (1) 
21496

>  <PUBCHEM_CONFORMER_RMSD>  (1) 
0.8

>  <PUBCHEM_CONFORMER_DIVERSEORDER>  (1) 
1
64
32
33
48
60
21
6
22
63
2
51
42
38
49
39
40
54
41
17
53
20
37
50
13
12
56
31
5
59
29
15
30
34
11
43
8
57
28
65
27
58
18
9
47
61
14
10
36
52
4
7
3
45
62
23
26
16
44
19
55
46
35
24
25

>  <PUBCHEM_MMFF94_PARTIAL_CHARGES>  (1) 
28
1 -0.57
10 -0.15
11 -0.15
12 -0.15
13 -0.15
14 -0.15
15 -0.15
16 -0.15
17 -0.15
18 -0.15
2 0.06
27 0.15
28 0.15
29 0.15
3 0.06
30 0.15
31 0.15
32 0.15
33 0.15
34 0.15
35 0.15
36 0.15
4 0.14
5 0.14
6 0.45
7 -0.14
8 -0.14
9 -0.15

>  <PUBCHEM_EFFECTIVE_ROTOR_COUNT>  (1) 
6

>  <PUBCHEM_PHARMACOPHORE_FEATURES>  (1) 
3
1 1 acceptor
6 7 9 11 13 15 17 rings
6 8 10 12 14 16 18 rings

>  <PUBCHEM_HEAVY_ATOM_COUNT>  (1) 
18

>  <PUBCHEM_ATOM_DEF_STEREO_COUNT>  (1) 
0

>  <PUBCHEM_ATOM_UDEF_STEREO_COUNT>  (1) 
0

>  <PUBCHEM_BOND_DEF_STEREO_COUNT>  (1) 
0

>  <PUBCHEM_BOND_UDEF_STEREO_COUNT>  (1) 
0

>  <PUBCHEM_ISOTOPIC_ATOM_COUNT>  (1) 
0

>  <PUBCHEM_COMPONENT_COUNT>  (1) 
1

>  <PUBCHEM_CACTVS_TAUTO_COUNT>  (1) 
2

>  <PUBCHEM_CONFORMER_ID>  (1) 
000053F800000001

>  <PUBCHEM_MMFF94_ENERGY>  (1) 
39.9662

>  <PUBCHEM_FEATURE_SELFOVERLAP>  (1) 
15.223

>  <PUBCHEM_SHAPE_FINGERPRINT>  (1) 
10 15 17023191534811876705
10354089 29 16443067214471049806
10670039 82 18189910733874855940
11089746 13 17988920081072981138
11524674 6 8934994894009962677
117890 112 18187363224924095212
12166972 35 13614236014220964003
12596602 18 15357698591092838053
12616971 3 16443066135907212022
12670543 26 16200436848912486866
13167372 99 17458620086694360948
13288520 33 10015864284845601923
13403585 85 16081084870855989413
13533116 47 18341894031533314218
13631057 29 18265327482329017467
13668630 136 12103847864770760644
13685833 64 9655571924587326215
14123256 34 9511464446125570000
1420 363 9655576318259878589
14251752 14 15339120121843554044
14251764 18 17240485836081918767
14341114 176 15430036547937248318
14528608 73 17275101734525441910
15048467 5 18408885135291317149
15183329 4 16200157568700948754
15188451 53 13407088032770636361
15348495 7 15285648723679794669
15716309 27 11674879991805245741
17780758 139 13623532355596454461
17834072 33 15841832256952947212
17870717 6 14692567720121141319
18222031 100 10159696893679495594
18927931 339 10519988180058186681
20028762 73 11169919393755843216
20281389 69 18260264135943742381
21150785 3 16845567643126311949
21637258 2 9943807763789888154
22061861 79 13973966493175862089
221357 26 16630808794453704200
22224240 67 17676209074566367395
22289505 5 17203611497800191416
2297311 6 15195282028653005939
23035841 295 11600004358472065629
23081809 10 18341324531142654879
23198884 109 17346600764251469357
23402655 69 18131911567964881262
23522609 53 9582395152140929634
23536379 177 16200435753690480188
23559900 14 13757775045530128211
23590187 198 11458430128740549817
2767999 5 18409162216521758749
293599 30 18410013238527107514
29717793 49 14549027572083861344
300161 21 18410007736700407571
3004659 81 15051736374467548990
312425 54 13767922399535134353
3472631 163 18338801229835779492
34797466 226 16200147733405267113
351380 3 9655576309606646853
3663271 9 15213021556891163888
4340502 62 15791449314353716992
465052 167 10087640420854618880
49783359 22 12468356860246677267
5104073 3 16661489670263412344
542803 24 17775284954363027259
543368 44 18201998829145306833
59682541 52 17489598822949676846
8863177 126 11743252070248919445

>  <PUBCHEM_SHAPE_MULTIPOLES>  (1) 
364.56
18.97
1.31
1.26
0.03
0.14
0.23
-9
3.3
-0.04
-0.29
0.04
-0.13
-0.04

>  <PUBCHEM_SHAPE_SELFOVERLAP>  (1) 
762.471

>  <PUBCHEM_SHAPE_VOLUME>  (1) 
205.3

>  <PUBCHEM_COORDINATE_TYPE>  (1) 
2
5
10

$$$$
