2150
     RDKit          3D

 26 26  0  0  0  0  0  0  0  0999 V2000
    4.6024   -0.4065    0.4041 S   0  0  0  0  0  0  0  0  0  0  0  0
   -3.9077    1.0822    0.3337 O   0  0  0  0  0  0  0  0  0  0  0  0
   -3.2692   -1.6415    0.2824 O   0  0  0  0  0  0  0  0  0  0  0  0
   -0.5653    3.6027   -1.0836 O   0  0  0  0  0  0  0  0  0  0  0  0
    5.5098   -0.0267   -0.6697 O   0  0  0  0  0  0  0  0  0  0  0  0
    5.0457   -0.3227    1.7889 O   0  0  0  0  0  0  0  0  0  0  0  0
   -0.2648   -1.2741    0.1460 O   0  0  0  0  0  0  0  0  0  0  0  0
   -1.4805    2.4955    0.7377 N   0  0  0  0  0  0  0  0  0  0  0  0
   -1.0552   -3.4566    0.0690 N   0  0  0  0  0  0  0  0  0  0  0  0
    4.0287   -1.9884    0.1071 N   0  0  0  0  0  0  0  0  0  0  0  0
    0.6608   -1.5252   -2.4216 N   0  0  0  0  0  0  0  0  0  0  0  0
   -2.7590    3.1537    0.7134 C   0  0  0  0  0  0  0  0  0  0  0  0
   -3.7542    2.4070   -0.1560 C   0  0  0  0  0  0  0  0  0  0  0  0
   -4.4435    0.2178   -0.6608 C   0  0  0  0  0  0  0  0  0  0  0  0
   -4.5616   -1.1816   -0.0885 C   0  0  0  0  0  0  0  0  0  0  0  0
    0.7793    1.9937   -0.0341 C   0  0  0  0  0  0  0  0  0  0  0  0
   -3.3217   -2.9449    0.8477 C   0  0  0  0  0  0  0  0  0  0  0  0
    3.1313    0.5182    0.2356 C   0  0  0  0  0  0  0  0  0  0  0  0
   -1.9199   -3.3875    1.2253 C   0  0  0  0  0  0  0  0  0  0  0  0
   -0.4737    2.7790   -0.1772 C   0  0  0  0  0  0  0  0  0  0  0  0
    1.1439    1.4840    1.2121 C   0  0  0  0  0  0  0  0  0  0  0  0
    1.5910    1.7658   -1.1453 C   0  0  0  0  0  0  0  0  0  0  0  0
    2.3198    0.7462    1.3470 C   0  0  0  0  0  0  0  0  0  0  0  0
    2.7670    1.0281   -1.0106 C   0  0  0  0  0  0  0  0  0  0  0  0
   -0.2942   -2.3859   -0.3772 C   0  0  0  0  0  0  0  0  0  0  0  0
    0.4910   -2.7323   -1.6255 C   0  0  0  0  0  0  0  0  0  0  0  0
  1  5  2  0
  1  6  2  0
  1 10  1  0
  1 18  1  0
  2 13  1  0
  2 14  1  0
  3 15  1  0
  3 17  1  0
  4 20  2  0
  7 25  2  0
  8 12  1  0
  8 20  1  0
  9 19  1  0
  9 25  1  0
 11 26  1  0
 12 13  1  0
 14 15  1  0
 16 20  1  0
 16 21  2  0
 16 22  1  0
 17 19  1  0
 18 23  2  0
 18 24  1  0
 21 23  1  0
 22 24  2  0
 25 26  1  0
M  END
>  <PUBCHEM_COMPOUND_CID>  (1) 
2150

>  <PUBCHEM_CONFORMER_RMSD>  (1) 
1.2

>  <PUBCHEM_CONFORMER_DIVERSEORDER>  (1) 
1
88
81
60
115
92
40
23
71
116
73
107
63
75
65
117
18
85
35
31
55
68
39
121
59
6
111
72
12
52
112
25
119
122
3
51
4
83
56
29
124
5
77
97
41
82
33
47
95
74
109
110
16
13
86
43
9
58
100
30
44
101
7
64
32
104
96
62
120
78
48
105
93
87
15
38
37
108
8
91
34
53
79
99
46
49
106
66
76
36
61
114
103
54
11
10
19
89
28
69
70
17
24
42
94
21
22
123
2
20
26
14
90
45
98
118
80
27
57
102
67
84
50
113

>  <PUBCHEM_MMFF94_PARTIAL_CHARGES>  (1) 
36
1 1.45
10 -0.98
11 -0.99
12 0.3
13 0.28
14 0.28
15 0.28
16 0.09
17 0.28
18 -0.01
19 0.3
2 -0.56
20 0.54
21 -0.15
22 -0.15
23 -0.15
24 -0.15
25 0.57
26 0.33
3 -0.56
37 0.37
4 -0.57
40 0.15
41 0.15
42 0.15
43 0.15
44 0.37
47 0.42
48 0.42
49 0.36
5 -0.65
50 0.36
6 -0.65
7 -0.57
8 -0.73
9 -0.73

>  <PUBCHEM_EFFECTIVE_ROTOR_COUNT>  (1) 
14

>  <PUBCHEM_PHARMACOPHORE_FEATURES>  (1) 
12
1 10 donor
1 11 cation
1 11 donor
1 2 acceptor
1 3 acceptor
1 4 acceptor
1 5 acceptor
1 6 acceptor
1 7 acceptor
1 8 donor
1 9 donor
6 16 18 21 22 23 24 rings

>  <PUBCHEM_HEAVY_ATOM_COUNT>  (1) 
26

>  <PUBCHEM_ATOM_DEF_STEREO_COUNT>  (1) 
0

>  <PUBCHEM_ATOM_UDEF_STEREO_COUNT>  (1) 
0

>  <PUBCHEM_BOND_DEF_STEREO_COUNT>  (1) 
0

>  <PUBCHEM_BOND_UDEF_STEREO_COUNT>  (1) 
0

>  <PUBCHEM_ISOTOPIC_ATOM_COUNT>  (1) 
0

>  <PUBCHEM_COMPONENT_COUNT>  (1) 
1

>  <PUBCHEM_CACTVS_TAUTO_COUNT>  (1) 
4

>  <PUBCHEM_CONFORMER_ID>  (1) 
0000086600000001

>  <PUBCHEM_MMFF94_ENERGY>  (1) 
27.9584

>  <PUBCHEM_FEATURE_SELFOVERLAP>  (1) 
60.922

>  <PUBCHEM_SHAPE_FINGERPRINT>  (1) 
10759866 29 17898582135117940172
12633257 1 18266190585643891955
12838863 1 18268410460939786143
12839892 36 18194671584335587168
13122387 1 17257372938925636441
13402501 40 18413952784937592167
13583140 156 17254563115075633675
13726171 33 17978265899052147701
14178342 30 18199759050676830777
14251757 5 18334582385975617998
14647877 51 17982454793630288262
14725015 67 18338509846443369835
15256400 18 18411136917957009123
15721738 202 15432869061773961843
17093844 170 18340209579065076413
19930381 70 9189177221131446085
20531524 4 18197242315514841895
20764821 26 18265360376918333671
20775438 99 16688470753738945367
238918 7 18202844331579883150
3052486 1 18263097555986354662
508706 21 18339654368901315407
59755656 215 18341609270732048781
602551 16 18411976940925633608
7097593 13 17618501425224826814

>  <PUBCHEM_SHAPE_MULTIPOLES>  (1) 
483.78
9.26
4.89
1.45
3.55
0.54
0.33
1.52
-1.56
-4.55
-0.02
0.82
0.44
0.41

>  <PUBCHEM_SHAPE_SELFOVERLAP>  (1) 
959.724

>  <PUBCHEM_SHAPE_VOLUME>  (1) 
285.8

>  <PUBCHEM_COORDINATE_TYPE>  (1) 
2
5
10

$$$$
