21502
     RDKit          3D

 19 21  0  0  0  0  0  0  0  0999 V2000
    5.6391   -0.6997   -0.0002 O   0  0  0  0  0  0  0  0  0  0  0  0
   -5.6391   -0.6997   -0.0023 O   0  0  0  0  0  0  0  0  0  0  0  0
    5.2133    1.4538   -0.0007 O   0  0  0  0  0  0  0  0  0  0  0  0
   -5.2133    1.4539    0.0000 O   0  0  0  0  0  0  0  0  0  0  0  0
    4.8303    0.2593   -0.0002 N   0  0  0  0  0  0  0  0  0  0  0  0
   -4.8304    0.2593   -0.0006 N   0  0  0  0  0  0  0  0  0  0  0  0
    0.0000    1.6873    0.0004 C   0  0  0  0  0  0  0  0  0  0  0  0
    1.1750    0.7317    0.0000 C   0  0  0  0  0  0  0  0  0  0  0  0
   -1.1749    0.7318    0.0004 C   0  0  0  0  0  0  0  0  0  0  0  0
    0.7236   -0.6073    0.0000 C   0  0  0  0  0  0  0  0  0  0  0  0
   -0.7235   -0.6073    0.0002 C   0  0  0  0  0  0  0  0  0  0  0  0
    2.5240    1.0400   -0.0001 C   0  0  0  0  0  0  0  0  0  0  0  0
   -2.5240    1.0400    0.0009 C   0  0  0  0  0  0  0  0  0  0  0  0
    1.6292   -1.6550    0.0000 C   0  0  0  0  0  0  0  0  0  0  0  0
   -1.6292   -1.6549    0.0005 C   0  0  0  0  0  0  0  0  0  0  0  0
    3.4367   -0.0163   -0.0001 C   0  0  0  0  0  0  0  0  0  0  0  0
   -3.4367   -0.0163    0.0010 C   0  0  0  0  0  0  0  0  0  0  0  0
    2.9938   -1.3503    0.0001 C   0  0  0  0  0  0  0  0  0  0  0  0
   -2.9939   -1.3503    0.0008 C   0  0  0  0  0  0  0  0  0  0  0  0
  1  5  1  0
  2  6  1  0
  3  5  2  0
  4  6  2  0
  5 16  1  0
  6 17  1  0
  7  8  1  0
  7  9  1  0
  8 10  2  0
  8 12  1  0
  9 11  2  0
  9 13  1  0
 10 11  1  0
 10 14  1  0
 11 15  1  0
 12 16  2  0
 13 17  2  0
 14 18  2  0
 15 19  2  0
 16 18  1  0
 17 19  1  0
M  CHG  4   1  -1   2  -1   5   1   6   1
M  END
>  <PUBCHEM_COMPOUND_CID>  (1) 
21502

>  <PUBCHEM_CONFORMER_RMSD>  (1) 
0.6

>  <PUBCHEM_CONFORMER_DIVERSEORDER>  (1) 
1

>  <PUBCHEM_MMFF94_PARTIAL_CHARGES>  (1) 
23
1 -0.52
12 -0.15
13 -0.15
14 -0.15
15 -0.15
16 0.13
17 0.13
18 -0.15
19 -0.15
2 -0.52
22 0.15
23 0.15
24 0.15
25 0.15
26 0.15
27 0.15
3 -0.52
4 -0.52
5 0.91
6 0.91
7 0.29
8 -0.14
9 -0.14

>  <PUBCHEM_EFFECTIVE_ROTOR_COUNT>  (1) 
2.2

>  <PUBCHEM_PHARMACOPHORE_FEATURES>  (1) 
9
1 1 acceptor
1 1 anion
1 2 acceptor
1 2 anion
1 3 acceptor
1 4 acceptor
5 7 8 9 10 11 rings
6 8 10 12 14 16 18 rings
6 9 11 13 15 17 19 rings

>  <PUBCHEM_HEAVY_ATOM_COUNT>  (1) 
19

>  <PUBCHEM_ATOM_DEF_STEREO_COUNT>  (1) 
0

>  <PUBCHEM_ATOM_UDEF_STEREO_COUNT>  (1) 
0

>  <PUBCHEM_BOND_DEF_STEREO_COUNT>  (1) 
0

>  <PUBCHEM_BOND_UDEF_STEREO_COUNT>  (1) 
0

>  <PUBCHEM_ISOTOPIC_ATOM_COUNT>  (1) 
0

>  <PUBCHEM_COMPONENT_COUNT>  (1) 
1

>  <PUBCHEM_CACTVS_TAUTO_COUNT>  (1) 
1

>  <PUBCHEM_CONFORMER_ID>  (1) 
000053FE00000001

>  <PUBCHEM_MMFF94_ENERGY>  (1) 
68.7148

>  <PUBCHEM_FEATURE_SELFOVERLAP>  (1) 
46

>  <PUBCHEM_SHAPE_FINGERPRINT>  (1) 
10906281 52 18338537281834463936
10967382 1 18410575063193790023
11401426 45 18411980277734894349
11471102 20 18411135827040298382
12107183 9 17619350909414911401
12236239 1 18410856559639789569
13862211 1 18410570686616853634
14251764 18 18341898498425318073
14790565 3 18410580582221789440
15048467 5 18410575084663403716
15196674 1 18410856563934990727
15375358 24 18410577283692005486
15536298 74 18342177735117639758
17834072 33 18130785689411166023
18522853 276 18413108359474723329
19141452 34 18272088326870148383
200 152 18060418023560424059
20510252 161 18200314303721381577
20645477 70 18342458084734194110
21029758 11 18272087201620469225
21267235 1 18410864260516430627
21421861 104 17751350695134687514
23402539 116 18272645749421913509
23402655 69 18343297033780924965
23557571 272 18339084787544769484
23559900 14 18342173410497172408
26918003 58 17967816058741362707
296302 2 18412546513428123815
3004659 81 18334579015138512118
335352 9 18410575088995021892
34797466 226 16988571259480609596
34934 24 18410852165888577058
3545911 37 18410857659162129278
4072396 5 18337660950209709146
4214541 1 18410575080869407937
42788 4 18410856563934776357
4340502 62 16660649535683674059
4463277 17 18410856563934990721
474 4 17677056853428172372
5104073 3 18409448098171819826
59755656 215 18338804420954789078
69090 78 18413105061388369311
9709674 26 18411706486439514719

>  <PUBCHEM_SHAPE_MULTIPOLES>  (1) 
357.57
11.12
1.72
0.59
0
0.08
0
-1.2
0
0
0
0
0.01
0

>  <PUBCHEM_SHAPE_SELFOVERLAP>  (1) 
802.709

>  <PUBCHEM_SHAPE_VOLUME>  (1) 
191.7

>  <PUBCHEM_COORDINATE_TYPE>  (1) 
2
5
10

$$$$
