21518
     RDKit          3D

 13 13  0  0  1  0  0  0  0  0999 V2000
    0.8863    0.0867   -0.1190 N   0  0  0  0  0  0  0  0  0  0  0  0
   -0.1737   -0.9214   -0.0642 C   0  0  0  0  0  0  0  0  0  0  0  0
    2.1917   -0.5117   -0.0775 C   0  0  0  0  0  0  0  0  0  0  0  0
    3.3090    0.5255   -0.1211 C   0  0  0  0  0  0  0  0  0  0  0  0
   -1.5439   -0.2785   -0.0683 C   0  0  0  0  0  0  0  0  0  0  0  0
    4.7015   -0.1091   -0.1049 C   0  0  0  0  0  0  0  0  0  0  0  0
    0.0314   -1.8526    1.1288 C   0  0  0  0  0  0  0  0  0  0  0  0
   -2.5870   -0.9155   -0.7174 C   0  0  0  0  0  0  0  0  0  0  0  0
   -1.7234    0.9325    0.5771 C   0  0  0  0  0  0  0  0  0  0  0  0
    5.7930    0.9445   -0.2098 C   0  0  0  0  0  0  0  0  0  0  0  0
   -3.8496   -0.3229   -0.7213 C   0  0  0  0  0  0  0  0  0  0  0  0
   -2.9861    1.5252    0.5733 C   0  0  0  0  0  0  0  0  0  0  0  0
   -4.0493    0.8975   -0.0758 C   0  0  0  0  0  0  0  0  0  0  0  0
  1  2  1  0
  1  3  1  0
  2  5  1  0
  2  7  1  0
  3  4  1  0
  4  6  1  0
  5  8  2  0
  5  9  1  0
  6 10  1  0
  8 11  1  0
  9 12  2  0
 11 13  2  0
 12 13  1  0
M  END
>  <PUBCHEM_COMPOUND_CID>  (1) 
21518

>  <PUBCHEM_CONFORMER_RMSD>  (1) 
0.6

>  <PUBCHEM_CONFORMER_DIVERSEORDER>  (1) 
1
9
48
20
30
15
11
40
5
39
31
18
26
28
16
25
43
57
19
44
29
35
12
38
52
47
3
8
41
10
45
37
56
17
32
54
46
2
53
34
49
22
58
21
33
27
7
6
13
42
24
23
51
4
55
36
50
14

>  <PUBCHEM_MMFF94_PARTIAL_CHARGES>  (1) 
15
1 -0.9
11 -0.15
12 -0.15
13 -0.15
19 0.36
2 0.41
25 0.15
26 0.15
3 0.27
30 0.15
31 0.15
32 0.15
5 -0.14
8 -0.15
9 -0.15

>  <PUBCHEM_EFFECTIVE_ROTOR_COUNT>  (1) 
5

>  <PUBCHEM_PHARMACOPHORE_FEATURES>  (1) 
4
1 1 cation
1 1 donor
1 10 hydrophobe
6 5 8 9 11 12 13 rings

>  <PUBCHEM_HEAVY_ATOM_COUNT>  (1) 
13

>  <PUBCHEM_ATOM_DEF_STEREO_COUNT>  (1) 
0

>  <PUBCHEM_ATOM_UDEF_STEREO_COUNT>  (1) 
1

>  <PUBCHEM_BOND_DEF_STEREO_COUNT>  (1) 
0

>  <PUBCHEM_BOND_UDEF_STEREO_COUNT>  (1) 
0

>  <PUBCHEM_ISOTOPIC_ATOM_COUNT>  (1) 
0

>  <PUBCHEM_COMPONENT_COUNT>  (1) 
1

>  <PUBCHEM_CACTVS_TAUTO_COUNT>  (1) 
1

>  <PUBCHEM_CONFORMER_ID>  (1) 
0000540E00000001

>  <PUBCHEM_MMFF94_ENERGY>  (1) 
20.2059

>  <PUBCHEM_FEATURE_SELFOVERLAP>  (1) 
20.297

>  <PUBCHEM_SHAPE_FINGERPRINT>  (1) 
10014705 185 18410573972266939164
114248 4 17203608198806222268
12119455 92 16949997032533760026
12251169 10 11314029071440723082
12346645 44 18335701594276038187
13214271 11 17894635838189347437
13675066 3 15068337921936347894
15775835 57 18410293566958338897
18186145 218 18261112933219251102
200 152 13973969796480245478
20300324 65 18059855081975469197
204376 136 17603589633880537554
20645464 45 14996289085289166243
20645477 56 18202567280213226044
20645477 70 17417542315728424390
20871999 31 17632001019058989815
21524375 3 18334858316096970874
23175994 123 14477241582755366019
23402539 116 18342733035639108326
23402655 69 18201719518246693820
23557571 272 17346323708316305101
23559900 14 18201999937426145818
351380 180 18272930540314037832
351380 3 11095888159772394548
366044 4 18260547835692634418
42 15 11097855185794527452
42788 4 18342457054337077636
474 4 18259989275195464676
83771 10 10159696885047135514

>  <PUBCHEM_SHAPE_MULTIPOLES>  (1) 
262.55
10.35
1.45
0.85
13.75
0.16
-0.08
-4.1
1.69
-0.6
-0.36
-0.35
0.17
-0.56

>  <PUBCHEM_SHAPE_SELFOVERLAP>  (1) 
519.053

>  <PUBCHEM_SHAPE_VOLUME>  (1) 
157.7

>  <PUBCHEM_COORDINATE_TYPE>  (1) 
2
5
10

$$$$
