21515
     RDKit          3D

 23 24  0  0  1  0  0  0  0  0999 V2000
    1.6326   -0.9709   -0.0335 S   0  0  0  0  0  0  0  0  0  0  0  0
   -0.2789   -3.7230   -1.7051 O   0  0  0  0  0  0  0  0  0  0  0  0
   -2.9956   -1.4311    1.3677 O   0  0  0  0  0  0  0  0  0  0  0  0
    0.7812   -4.6436    0.0749 O   0  0  0  0  0  0  0  0  0  0  0  0
   -1.4849   -1.8598   -0.3424 N   0  0  0  0  0  0  0  0  0  0  0  0
   -0.5689   -2.6611    0.4304 C   0  0  0  0  0  0  0  0  0  0  0  0
    0.4864   -1.7941    1.1216 C   0  0  0  0  0  0  0  0  0  0  0  0
   -3.4117   -0.5077   -0.8323 C   0  0  0  0  0  0  0  0  0  0  0  0
   -2.6371   -1.3049    0.1996 C   0  0  0  0  0  0  0  0  0  0  0  0
    2.6115   -0.0631    1.1832 C   0  0  0  0  0  0  0  0  0  0  0  0
   -3.5747    0.9437   -0.4657 C   0  0  0  0  0  0  0  0  0  0  0  0
    0.0484   -3.7800   -0.3921 C   0  0  0  0  0  0  0  0  0  0  0  0
    3.6958    0.7575    0.5409 C   0  0  0  0  0  0  0  0  0  0  0  0
   -4.6798    1.3414    0.2737 C   0  0  0  0  0  0  0  0  0  0  0  0
   -2.6176    1.8628   -0.8720 C   0  0  0  0  0  0  0  0  0  0  0  0
    3.4302    2.0668    0.1614 C   0  0  0  0  0  0  0  0  0  0  0  0
    4.9493    0.1962    0.3356 C   0  0  0  0  0  0  0  0  0  0  0  0
   -4.8309    2.6857    0.6137 C   0  0  0  0  0  0  0  0  0  0  0  0
   -2.7688    3.2072   -0.5319 C   0  0  0  0  0  0  0  0  0  0  0  0
    4.4359    2.8281   -0.4341 C   0  0  0  0  0  0  0  0  0  0  0  0
    5.9550    0.9577   -0.2598 C   0  0  0  0  0  0  0  0  0  0  0  0
   -3.8755    3.6185    0.2109 C   0  0  0  0  0  0  0  0  0  0  0  0
    5.6982    2.2737   -0.6447 C   0  0  0  0  0  0  0  0  0  0  0  0
  1  7  1  0
  1 10  1  0
  2 12  1  0
  3  9  2  0
  4 12  2  0
  5  6  1  0
  5  9  1  0
  6  7  1  0
  6 12  1  0
  8  9  1  0
  8 11  1  0
 10 13  1  0
 11 14  2  0
 11 15  1  0
 13 16  2  0
 13 17  1  0
 14 18  1  0
 15 19  2  0
 16 20  1  0
 17 21  2  0
 18 22  2  0
 19 22  1  0
 20 23  2  0
 21 23  1  0
M  END
>  <PUBCHEM_COMPOUND_CID>  (1) 
21515

>  <PUBCHEM_CONFORMER_RMSD>  (1) 
1

>  <PUBCHEM_CONFORMER_DIVERSEORDER>  (1) 
1
137
160
151
154
79
70
97
43
42
45
4
152
77
89
104
162
143
155
74
141
98
117
81
157
108
27
133
135
52
31
8
33
150
51
158
56
115
49
23
93
6
53
25
96
73
127
60
147
58
114
26
41
9
87
10
91
20
122
84
85
90
2
17
54
145
107
156
161
139
24
138
22
112
121
15
119
34
75
48
5
109
125
76
36
39
105
128
3
68
65
103
86
29
159
95
146
142
82
64
59
61
92
28
46
14
88
149
94
83
67
63
129
35
111
130
37
140
50
66
7
144
148
80
136
99
40
78
11
12
113
44
100
19
131
106
118
13
110
102
38
101
47
69
126
123
30
18
72
71
132
116
62
153
124
134
21
32
57
55
16
120

>  <PUBCHEM_MMFF94_PARTIAL_CHARGES>  (1) 
35
1 -0.46
10 0.37
11 -0.14
12 0.66
13 -0.14
14 -0.15
15 -0.15
16 -0.15
17 -0.15
18 -0.15
19 -0.15
2 -0.65
20 -0.15
21 -0.15
22 -0.15
23 -0.15
27 0.37
3 -0.57
32 0.15
33 0.15
34 0.15
35 0.15
36 0.15
37 0.15
38 0.15
39 0.15
4 -0.57
40 0.15
41 0.15
42 0.5
5 -0.73
6 0.36
7 0.23
8 0.2
9 0.57

>  <PUBCHEM_EFFECTIVE_ROTOR_COUNT>  (1) 
9

>  <PUBCHEM_PHARMACOPHORE_FEATURES>  (1) 
7
1 2 acceptor
1 3 acceptor
1 4 acceptor
1 5 donor
3 2 4 12 anion
6 11 14 15 18 19 22 rings
6 13 16 17 20 21 23 rings

>  <PUBCHEM_HEAVY_ATOM_COUNT>  (1) 
23

>  <PUBCHEM_ATOM_DEF_STEREO_COUNT>  (1) 
0

>  <PUBCHEM_ATOM_UDEF_STEREO_COUNT>  (1) 
1

>  <PUBCHEM_BOND_DEF_STEREO_COUNT>  (1) 
0

>  <PUBCHEM_BOND_UDEF_STEREO_COUNT>  (1) 
0

>  <PUBCHEM_ISOTOPIC_ATOM_COUNT>  (1) 
0

>  <PUBCHEM_COMPONENT_COUNT>  (1) 
1

>  <PUBCHEM_CACTVS_TAUTO_COUNT>  (1) 
2

>  <PUBCHEM_CONFORMER_ID>  (1) 
0000540B00000001

>  <PUBCHEM_MMFF94_ENERGY>  (1) 
51.8151

>  <PUBCHEM_FEATURE_SELFOVERLAP>  (1) 
35.581

>  <PUBCHEM_SHAPE_FINGERPRINT>  (1) 
10670039 82 18409161147465558516
10871710 139 18340198704708984567
11014199 57 17545039767849192234
11513181 2 18343582936763696398
12107183 9 18262786390555205530
12788726 201 18050269659917090362
14251757 5 18268433619213165240
14251764 38 18410009910164557164
14251764 75 18341339885735452849
14347329 18 18410852183622445320
14508225 48 17405416088862995583
1454969 45 18411976993150549351
14713325 29 18334581286675377235
14790565 3 18409731759698671112
14840074 17 17603871108593952852
14849402 71 18049164367173410051
15163728 17 18412831256774882423
151778 21 18266734688642683833
15297060 5 18343309136893991456
18785283 64 18121214277456823091
20101258 96 17470738066179161194
245318 6 17968110736532431524
469060 322 15792282821171111542
53794403 172 17760925148185475181
6700243 42 17333975269867195342
7288768 16 17895197675593336833
7808743 9 18410008849070375393
9981440 41 18409164398776823203

>  <PUBCHEM_SHAPE_MULTIPOLES>  (1) 
454.59
12.5
5.69
1.06
10.06
4
0.02
-15.07
0.16
-2.23
1
-0.18
0.4
-0.69

>  <PUBCHEM_SHAPE_SELFOVERLAP>  (1) 
934.818

>  <PUBCHEM_SHAPE_VOLUME>  (1) 
261

>  <PUBCHEM_COORDINATE_TYPE>  (1) 
2
5
10

$$$$
