21522
     RDKit          3D

 17 18  0  0  1  0  0  0  0  0999 V2000
   -0.5881   -2.4293   -0.8900 O   0  0  0  0  0  0  0  0  0  0  0  0
    2.6117   -3.0914    0.2110 N   0  0  0  0  0  0  0  0  0  0  0  0
    0.8558   -1.1556    0.5826 C   0  0  0  0  0  0  0  0  0  0  0  0
    1.4530    0.1807    0.1818 C   0  0  0  0  0  0  0  0  0  0  0  0
   -0.4828   -1.4286   -0.1509 C   0  0  0  0  0  0  0  0  0  0  0  0
   -1.6142   -0.5291    0.0080 C   0  0  0  0  0  0  0  0  0  0  0  0
    2.1277    0.9263    1.1301 C   0  0  0  0  0  0  0  0  0  0  0  0
    1.3066    0.6180   -1.1211 C   0  0  0  0  0  0  0  0  0  0  0  0
   -1.7823    0.1766    1.1994 C   0  0  0  0  0  0  0  0  0  0  0  0
   -2.5312   -0.3717   -1.0313 C   0  0  0  0  0  0  0  0  0  0  0  0
    2.6763    2.1547    0.7617 C   0  0  0  0  0  0  0  0  0  0  0  0
    1.8556    1.8462   -1.4896 C   0  0  0  0  0  0  0  0  0  0  0  0
    2.5404    2.6146   -0.5482 C   0  0  0  0  0  0  0  0  0  0  0  0
    1.8396   -2.2400    0.3723 C   0  0  0  0  0  0  0  0  0  0  0  0
   -2.8675    1.0397    1.3514 C   0  0  0  0  0  0  0  0  0  0  0  0
   -3.6162    0.4916   -0.8793 C   0  0  0  0  0  0  0  0  0  0  0  0
   -3.7844    1.1974    0.3120 C   0  0  0  0  0  0  0  0  0  0  0  0
  1  5  2  0
  2 14  3  0
  3  4  1  0
  3  5  1  0
  3 14  1  0
  4  7  2  0
  4  8  1  0
  5  6  1  0
  6  9  2  0
  6 10  1  0
  7 11  1  0
  8 12  2  0
  9 15  1  0
 10 16  2  0
 11 13  2  0
 12 13  1  0
 15 17  2  0
 16 17  1  0
M  END
>  <PUBCHEM_COMPOUND_CID>  (1) 
21522

>  <PUBCHEM_CONFORMER_RMSD>  (1) 
0.6

>  <PUBCHEM_CONFORMER_DIVERSEORDER>  (1) 
1
11
18
8
19
21
35
15
17
32
16
30
9
33
10
28
5
2
26
20
31
22
14
23
27
13
4
7
6
12
3
29
34
25
24

>  <PUBCHEM_MMFF94_PARTIAL_CHARGES>  (1) 
27
1 -0.57
10 -0.15
11 -0.15
12 -0.15
13 -0.15
14 0.36
15 -0.15
16 -0.15
17 -0.15
19 0.15
2 -0.56
20 0.15
21 0.15
22 0.15
23 0.15
24 0.15
25 0.15
26 0.15
27 0.15
28 0.15
3 0.4
4 -0.14
5 0.42
6 0.09
7 -0.15
8 -0.15
9 -0.15

>  <PUBCHEM_EFFECTIVE_ROTOR_COUNT>  (1) 
3

>  <PUBCHEM_PHARMACOPHORE_FEATURES>  (1) 
4
1 1 acceptor
1 2 acceptor
6 4 7 8 11 12 13 rings
6 6 9 10 15 16 17 rings

>  <PUBCHEM_HEAVY_ATOM_COUNT>  (1) 
17

>  <PUBCHEM_ATOM_DEF_STEREO_COUNT>  (1) 
0

>  <PUBCHEM_ATOM_UDEF_STEREO_COUNT>  (1) 
1

>  <PUBCHEM_BOND_DEF_STEREO_COUNT>  (1) 
0

>  <PUBCHEM_BOND_UDEF_STEREO_COUNT>  (1) 
0

>  <PUBCHEM_ISOTOPIC_ATOM_COUNT>  (1) 
0

>  <PUBCHEM_COMPONENT_COUNT>  (1) 
1

>  <PUBCHEM_CACTVS_TAUTO_COUNT>  (1) 
2

>  <PUBCHEM_CONFORMER_ID>  (1) 
0000541200000001

>  <PUBCHEM_MMFF94_ENERGY>  (1) 
47.8108

>  <PUBCHEM_FEATURE_SELFOVERLAP>  (1) 
20.297

>  <PUBCHEM_SHAPE_FINGERPRINT>  (1) 
10382601 240 18040423396267543520
104564 63 17617102404126036590
11578080 2 11675436443600561567
11640471 11 18265041608292354701
11725454 13 16269647936733394120
12633257 1 15430307092254540565
13132413 78 18053389799291265760
13134695 92 18118120269005405062
13294875 104 18272369793610248336
13299463 15 14764076717226942597
13693222 7 18410296955687606829
13764800 53 18195541508649968961
14181834 199 18342173311148357126
14713325 29 16523330635575199734
14955137 171 17912953606854917034
15490181 8 18116992402272871650
15775835 57 18340486759159094865
16945 1 18335985285545557378
17357990 137 17701839690867557993
1813 80 17910124507776238982
18981168 100 18190197826019572339
20510252 161 17691408933081398096
20671657 1 18411421708737883342
21041028 32 17975989665026363032
21130352 189 18116431427645404867
21524375 3 18339648965399550327
22094290 62 18409730659975631112
2255824 54 18338518538655719691
23175994 123 17753904808900830411
23419403 2 17904172881694672652
23557571 272 17341814787087129453
23558518 356 18335976558325778875
305870 269 18337673121872537288
350125 39 18264502838999788650
4175511 71 18122632647524894458
474 4 18336262439627120513
6049 1 17531540776027421153
6442390 28 17833585604779989467
6992083 37 17912638012800327563
7364860 26 18412260610471973810
74978 22 18412266099461614851
81228 2 17114681055493079130
84936 182 18272926150250995217
9981440 41 18124297561579696616

>  <PUBCHEM_SHAPE_MULTIPOLES>  (1) 
339
5.65
2.98
1.33
3.82
1.51
-0.04
-2.88
0.17
-3.11
-0.18
0.15
-0.45
-0.71

>  <PUBCHEM_SHAPE_SELFOVERLAP>  (1) 
731.048

>  <PUBCHEM_SHAPE_VOLUME>  (1) 
183

>  <PUBCHEM_COORDINATE_TYPE>  (1) 
2
5
10

$$$$
