21555
     RDKit          3D

 16 16  0  0  0  0  0  0  0  0999 V2000
    3.6764    0.5013    0.0014 O   0  0  0  0  0  0  0  0  0  0  0  0
    2.4731   -1.4669   -0.0025 O   0  0  0  0  0  0  0  0  0  0  0  0
   -3.2747   -2.3976   -0.0015 O   0  0  0  0  0  0  0  0  0  0  0  0
   -1.0841   -2.2567    0.0020 O   0  0  0  0  0  0  0  0  0  0  0  0
    0.1258   -0.0826    0.0047 N   0  0  0  0  0  0  0  0  0  0  0  0
   -2.2182   -1.7235    0.0001 N   0  0  0  0  0  0  0  0  0  0  0  0
   -1.1405    0.4828    0.0018 C   0  0  0  0  0  0  0  0  0  0  0  0
    1.3464    0.6849    0.0075 C   0  0  0  0  0  0  0  0  0  0  0  0
   -2.3097   -0.3033   -0.0007 C   0  0  0  0  0  0  0  0  0  0  0  0
   -1.2823    1.8834    0.0015 C   0  0  0  0  0  0  0  0  0  0  0  0
   -3.5721    0.2900   -0.0032 C   0  0  0  0  0  0  0  0  0  0  0  0
   -2.5448    2.4766   -0.0012 C   0  0  0  0  0  0  0  0  0  0  0  0
    2.5315   -0.2448    0.0015 C   0  0  0  0  0  0  0  0  0  0  0  0
   -3.6896    1.6800   -0.0036 C   0  0  0  0  0  0  0  0  0  0  0  0
    4.8982   -0.2443   -0.0041 C   0  0  0  0  0  0  0  0  0  0  0  0
    6.0647    0.7206   -0.0036 C   0  0  0  0  0  0  0  0  0  0  0  0
  1 13  1  0
  1 15  1  0
  2 13  2  0
  3  6  1  0
  4  6  2  0
  5  7  1  0
  5  8  1  0
  6  9  1  0
  7  9  2  0
  7 10  1  0
  8 13  1  0
  9 11  1  0
 10 12  2  0
 11 14  2  0
 12 14  1  0
 15 16  1  0
M  CHG  2   3  -1   6   1
M  END
>  <PUBCHEM_COMPOUND_CID>  (1) 
21555

>  <PUBCHEM_CONFORMER_RMSD>  (1) 
0.8

>  <PUBCHEM_CONFORMER_DIVERSEORDER>  (1) 
1
4
7
11
3
9
8
20
14
13
2
17
22
6
18
21
16
5
10
19
12
15

>  <PUBCHEM_MMFF94_PARTIAL_CHARGES>  (1) 
20
1 -0.43
10 -0.15
11 -0.15
12 -0.15
13 0.66
14 -0.15
15 0.28
19 0.4
2 -0.57
20 0.15
21 0.15
22 0.15
23 0.15
3 -0.52
4 -0.52
5 -0.87
6 0.91
7 0.1
8 0.43
9 0.13

>  <PUBCHEM_EFFECTIVE_ROTOR_COUNT>  (1) 
6

>  <PUBCHEM_PHARMACOPHORE_FEATURES>  (1) 
7
1 2 acceptor
1 3 acceptor
1 3 anion
1 4 acceptor
1 5 cation
1 5 donor
6 7 9 10 11 12 14 rings

>  <PUBCHEM_HEAVY_ATOM_COUNT>  (1) 
16

>  <PUBCHEM_ATOM_DEF_STEREO_COUNT>  (1) 
0

>  <PUBCHEM_ATOM_UDEF_STEREO_COUNT>  (1) 
0

>  <PUBCHEM_BOND_DEF_STEREO_COUNT>  (1) 
0

>  <PUBCHEM_BOND_UDEF_STEREO_COUNT>  (1) 
0

>  <PUBCHEM_ISOTOPIC_ATOM_COUNT>  (1) 
0

>  <PUBCHEM_COMPONENT_COUNT>  (1) 
1

>  <PUBCHEM_CACTVS_TAUTO_COUNT>  (1) 
1

>  <PUBCHEM_CONFORMER_ID>  (1) 
0000543300000001

>  <PUBCHEM_MMFF94_ENERGY>  (1) 
49.0791

>  <PUBCHEM_FEATURE_SELFOVERLAP>  (1) 
35.602

>  <PUBCHEM_SHAPE_FINGERPRINT>  (1) 
10014705 185 18187080628961388204
10366900 7 17846487119696201760
10411042 1 18050287261215217827
10493431 412 18269564840822130913
10616163 171 18411420622264540974
10680689 15 18409457985640143624
10912923 1 17894908547443879176
12173636 292 18265894649064214853
12390115 104 18057339283650360745
12500047 106 18411975832544171168
12757275 245 18410012164779813866
13167823 11 18260825978344338314
13214271 11 18343580754740753428
14508225 48 18267007540016024661
15042514 8 18336835281533724923
15196674 1 18338517434848962182
15375358 24 18201720613716399646
15669948 3 18410283705613310979
20510252 161 18200032820365836849
20645477 56 18410294674843993696
20645477 70 16773240570503795534
20871998 184 18272936050683167431
21267235 1 18336836389044443419
21426921 1 18410575101922238293
22224240 67 18269568156943026761
2297311 6 18270975617029131916
2306618 200 18201729456964365737
23175994 123 17060342933076485800
23402539 116 18410567396750838164
23557571 272 18271533065034475468
23559900 14 18341884238364314264
2748010 2 18195234749612301473
3312278 4 18341896281478427304
3545911 37 18412266103999025900
4214541 1 18410856547282622724
5104073 3 18410853244621428698
573450 72 18261099760881374818
58051976 378 18413108346985311204
77779 3 18411139126245101164
9709674 26 18271529701922452950

>  <PUBCHEM_SHAPE_MULTIPOLES>  (1) 
295.83
10.08
2.34
0.58
16.77
0.65
0
-1.95
0.02
-2.95
0
0
-0.05
0

>  <PUBCHEM_SHAPE_SELFOVERLAP>  (1) 
605.405

>  <PUBCHEM_SHAPE_VOLUME>  (1) 
170.8

>  <PUBCHEM_COORDINATE_TYPE>  (1) 
2
5
10

$$$$
