21583
     RDKit          3D

 16 17  0  0  0  0  0  0  0  0999 V2000
   -0.0315    1.3565   -0.4159 N   0  0  0  0  0  0  0  0  0  0  0  0
   -0.4978    0.4145    0.6009 C   0  0  0  0  0  0  0  0  0  0  0  0
    1.3313    1.7963   -0.1187 C   0  0  0  0  0  0  0  0  0  0  0  0
   -1.8767   -0.1057    0.2933 C   0  0  0  0  0  0  0  0  0  0  0  0
    2.2870    0.6368   -0.0250 C   0  0  0  0  0  0  0  0  0  0  0  0
   -0.9324    2.5054   -0.4999 C   0  0  0  0  0  0  0  0  0  0  0  0
   -2.9868    0.5717    0.7786 C   0  0  0  0  0  0  0  0  0  0  0  0
    2.4932    0.0182    1.2002 C   0  0  0  0  0  0  0  0  0  0  0  0
   -2.0188   -1.2555   -0.4707 C   0  0  0  0  0  0  0  0  0  0  0  0
    2.9489    0.2028   -1.1651 C   0  0  0  0  0  0  0  0  0  0  0  0
   -4.2644    0.0895    0.4940 C   0  0  0  0  0  0  0  0  0  0  0  0
    3.3790   -1.0558    1.2872 C   0  0  0  0  0  0  0  0  0  0  0  0
   -3.2963   -1.7377   -0.7555 C   0  0  0  0  0  0  0  0  0  0  0  0
    3.8347   -0.8712   -1.0783 C   0  0  0  0  0  0  0  0  0  0  0  0
   -4.4191   -1.0652   -0.2730 C   0  0  0  0  0  0  0  0  0  0  0  0
    4.0497   -1.5005    0.1480 C   0  0  0  0  0  0  0  0  0  0  0  0
  1  2  1  0
  1  3  1  0
  1  6  1  0
  2  4  1  0
  3  5  1  0
  4  7  2  0
  4  9  1  0
  5  8  2  0
  5 10  1  0
  7 11  1  0
  8 12  1  0
  9 13  2  0
 10 14  2  0
 11 15  2  0
 12 16  2  0
 13 15  1  0
 14 16  1  0
M  END
>  <PUBCHEM_COMPOUND_CID>  (1) 
21583

>  <PUBCHEM_CONFORMER_RMSD>  (1) 
0.6

>  <PUBCHEM_CONFORMER_DIVERSEORDER>  (1) 
3
4
9
1
10
2
7
6
8
5

>  <PUBCHEM_MMFF94_PARTIAL_CHARGES>  (1) 
26
1 -0.81
10 -0.15
11 -0.15
12 -0.15
13 -0.15
14 -0.15
15 -0.15
16 -0.15
2 0.41
24 0.15
25 0.15
26 0.15
27 0.15
28 0.15
29 0.15
3 0.41
30 0.15
31 0.15
32 0.15
33 0.15
4 -0.14
5 -0.14
6 0.27
7 -0.15
8 -0.15
9 -0.15

>  <PUBCHEM_EFFECTIVE_ROTOR_COUNT>  (1) 
4

>  <PUBCHEM_PHARMACOPHORE_FEATURES>  (1) 
3
1 1 cation
6 4 7 9 11 13 15 rings
6 5 8 10 12 14 16 rings

>  <PUBCHEM_HEAVY_ATOM_COUNT>  (1) 
16

>  <PUBCHEM_ATOM_DEF_STEREO_COUNT>  (1) 
0

>  <PUBCHEM_ATOM_UDEF_STEREO_COUNT>  (1) 
0

>  <PUBCHEM_BOND_DEF_STEREO_COUNT>  (1) 
0

>  <PUBCHEM_BOND_UDEF_STEREO_COUNT>  (1) 
0

>  <PUBCHEM_ISOTOPIC_ATOM_COUNT>  (1) 
0

>  <PUBCHEM_COMPONENT_COUNT>  (1) 
1

>  <PUBCHEM_CACTVS_TAUTO_COUNT>  (1) 
1

>  <PUBCHEM_CONFORMER_ID>  (1) 
0000544F00000003

>  <PUBCHEM_MMFF94_ENERGY>  (1) 
51.1731

>  <PUBCHEM_FEATURE_SELFOVERLAP>  (1) 
15.223

>  <PUBCHEM_SHAPE_FINGERPRINT>  (1) 
10618630 7 18409446985912432764
11046707 91 18341614793421590256
11370993 70 16487253261732884695
11543360 7 14562536205943681867
11578080 2 18340185462866804121
11715629 250 11386358270588925579
122479 349 9439398034261508972
12346177 29 18131343090688977061
12553582 1 18334576836767140866
12616999 72 16443067218370573098
12633257 1 17489317355850627163
13583140 156 14979943779431872399
14123260 362 9223225282154233535
14251764 38 13829864460854224243
14289901 80 16272205331669473651
15239191 94 18410293614002603474
15342816 4 18409730702872745150
15422964 175 17130998568453392332
15848700 24 18410851070729770148
15885798 251 18410573985494634821
16752209 62 18116139000755381473
17492 89 18126565858643080631
17804303 29 18202849855065652425
17834072 8 18334851698090282397
1798214 20 18260264157176005250
1813 80 18114471101571436613
18186145 218 15647052663874997369
18915474 69 18261117391390042558
19141452 34 18273496762974341087
19862831 5 17313101938560138800
200 152 17676205745560264378
20281475 54 18412266133673413380
20291156 8 18408886247703554121
20361792 2 18261107495479366012
20626108 58 18200018689870516351
20645477 70 18263643020980188127
21713013 43 16153720841863619627
22485316 2 18411982472568879036
2255824 54 18189902091983768476
22646028 28 18411135852799773474
235170 7 15213020453169023579
23557571 272 18341326709218478040
23559900 14 17417821655236138456
31174 14 17774991432209131000
328317 168 9223224135445509715
465052 167 18335996345403128563
5104073 3 18201726210296384667
5281201 14 14562809924193995170
603831 33 18041285400461732076
6333272 397 10231753400816014189
7364860 26 18055917838237550800
76465 3 18410005533392630358
7808743 9 9727050084957226426
94968 8 18333453161985640938
960060 61 17894630383064034119
9981440 41 17186431890330271521

>  <PUBCHEM_SHAPE_MULTIPOLES>  (1) 
324.29
8.9
1.99
1.13
1.61
0.71
-0.07
-4.74
0.04
0.27
0.41
-0.75
-0.15
-0.63

>  <PUBCHEM_SHAPE_SELFOVERLAP>  (1) 
684.689

>  <PUBCHEM_SHAPE_VOLUME>  (1) 
182.8

>  <PUBCHEM_COORDINATE_TYPE>  (1) 
2
5
10

$$$$
