21594
     RDKit          3D

 12 11  0  0  0  0  0  0  0  0999 V2000
    5.2636    1.4609   -0.1215 I   0  0  0  0  0  0  0  0  0  0  0  0
   -5.2641    1.4618    0.1224 I   0  0  0  0  0  0  0  0  0  0  0  0
    1.3758   -0.2368   -0.2784 O   0  0  0  0  0  0  0  0  0  0  0  0
   -1.3724   -0.2440    0.2757 O   0  0  0  0  0  0  0  0  0  0  0  0
    3.3296   -0.8891    0.7505 O   0  0  0  0  0  0  0  0  0  0  0  0
   -3.3305   -0.8883   -0.7501 O   0  0  0  0  0  0  0  0  0  0  0  0
    0.7216   -1.4035    0.2316 C   0  0  0  0  0  0  0  0  0  0  0  0
   -0.7225   -1.4033   -0.2314 C   0  0  0  0  0  0  0  0  0  0  0  0
    2.6959   -0.1022    0.0618 C   0  0  0  0  0  0  0  0  0  0  0  0
   -2.6966   -0.1018   -0.0613 C   0  0  0  0  0  0  0  0  0  0  0  0
    3.2122    1.1729   -0.5627 C   0  0  0  0  0  0  0  0  0  0  0  0
   -3.2126    1.1733    0.5635 C   0  0  0  0  0  0  0  0  0  0  0  0
  1 11  1  0
  2 12  1  0
  3  7  1  0
  3  9  1  0
  4  8  1  0
  4 10  1  0
  5  9  2  0
  6 10  2  0
  7  8  1  0
  9 11  1  0
 10 12  1  0
M  END
>  <PUBCHEM_COMPOUND_CID>  (1) 
21594

>  <PUBCHEM_CONFORMER_RMSD>  (1) 
0.8

>  <PUBCHEM_CONFORMER_DIVERSEORDER>  (1) 
1
84
2
8
19
62
42
79
66
45
83
5
16
89
3
61
55
87
7
12
18
63
35
57
54
41
46
51
48
9
69
86
85
80
6
72
13
78
11
82
65
29
44
40
59
90
34
88
22
15
56
26
17
28
91
75
39
93
58
70
71
73
36
27
20
92
31
60
25
50
49
37
32
4
53
68
76
43
64
33
24
52
30
67
74
21
23
38
77
81
14
10
47

>  <PUBCHEM_MMFF94_PARTIAL_CHARGES>  (1) 
12
1 -0.19
10 0.66
11 0.25
12 0.25
2 -0.19
3 -0.43
4 -0.43
5 -0.57
6 -0.57
7 0.28
8 0.28
9 0.66

>  <PUBCHEM_EFFECTIVE_ROTOR_COUNT>  (1) 
7

>  <PUBCHEM_PHARMACOPHORE_FEATURES>  (1) 
4
1 1 hydrophobe
1 2 hydrophobe
1 5 acceptor
1 6 acceptor

>  <PUBCHEM_HEAVY_ATOM_COUNT>  (1) 
12

>  <PUBCHEM_ATOM_DEF_STEREO_COUNT>  (1) 
0

>  <PUBCHEM_ATOM_UDEF_STEREO_COUNT>  (1) 
0

>  <PUBCHEM_BOND_DEF_STEREO_COUNT>  (1) 
0

>  <PUBCHEM_BOND_UDEF_STEREO_COUNT>  (1) 
0

>  <PUBCHEM_ISOTOPIC_ATOM_COUNT>  (1) 
0

>  <PUBCHEM_COMPONENT_COUNT>  (1) 
1

>  <PUBCHEM_CACTVS_TAUTO_COUNT>  (1) 
1

>  <PUBCHEM_CONFORMER_ID>  (1) 
0000545A00000001

>  <PUBCHEM_MMFF94_ENERGY>  (1) 
14.9217

>  <PUBCHEM_FEATURE_SELFOVERLAP>  (1) 
20.297

>  <PUBCHEM_SHAPE_FINGERPRINT>  (1) 
100836 57 18408329895078706700
10354089 29 17967538977806482292
11046707 91 8646776581513192388
122479 349 18334019422942220066
14123255 352 18410856551171616101
14123260 362 18131081415342851953
1420 369 8646771088303229520
14252887 29 14562524060113830856
15477762 27 10952050057248002842
15501527 16 18411986887711064768
15775835 57 18410577283686496865
17834072 32 18413111671016178553
17834072 8 18271537425027590020
20112054 13 18040438784776532149
20605781 2 18341897393764472773
20621476 21 13901327335667093917
20621476 66 18261400005192885564
20645477 56 18202566176897221841
20645477 70 11312054335756874472
20711983 171 18343582945015727790
20767249 213 18410011022983372241
20828058 44 11746927698796777348
20871999 31 17275092969040477831
212847 35 18342173341371345024
21652331 79 18334577914989029157
23402539 116 18202842175690624492
23402655 69 18201999927928979924
23500284 214 18187651331240672826
23557571 272 17560526204516670263
23590187 49 18411421713006736573
270888 7 18410857663447170656
449060 50 18336832992368539709
465052 167 8646472047437864217
59345606 38 18411700976360152389

>  <PUBCHEM_SHAPE_MULTIPOLES>  (1) 
247.35
12.49
1.83
0.78
0.01
0.13
0
9
0
0
0
0
0.04
-0.74

>  <PUBCHEM_SHAPE_SELFOVERLAP>  (1) 
428.13

>  <PUBCHEM_SHAPE_VOLUME>  (1) 
168.4

>  <PUBCHEM_COORDINATE_TYPE>  (1) 
2
5
10

$$$$
