21593
     RDKit          3D

 14 13  0  0  1  0  0  0  0  0999 V2000
    3.4303   -0.2833    0.1683 S   0  0  0  0  0  0  0  0  0  0  0  0
   -3.4343    0.2827    0.1716 S   0  0  0  0  0  0  0  0  0  0  0  0
    1.7722    1.4475   -1.0223 O   0  0  0  0  0  0  0  0  0  0  0  0
   -1.7773   -1.4075   -1.0466 O   0  0  0  0  0  0  0  0  0  0  0  0
    4.3995    1.0140    0.3577 O   0  0  0  0  0  0  0  0  0  0  0  0
   -4.3996   -1.0207    0.3428 O   0  0  0  0  0  0  0  0  0  0  0  0
    3.4789   -1.0799    1.3774 O   0  0  0  0  0  0  0  0  0  0  0  0
    3.6799   -0.8580   -1.1377 O   0  0  0  0  0  0  0  0  0  0  0  0
   -3.4986    1.0660    1.3884 O   0  0  0  0  0  0  0  0  0  0  0  0
   -3.6909    0.8654   -1.1295 O   0  0  0  0  0  0  0  0  0  0  0  0
    0.6947   -0.3769    0.1292 C   0  0  0  0  0  0  0  0  0  0  0  0
   -0.6575    0.3432    0.1517 C   0  0  0  0  0  0  0  0  0  0  0  0
    1.8706    0.6056    0.1221 C   0  0  0  0  0  0  0  0  0  0  0  0
   -1.8678   -0.5981    0.1267 C   0  0  0  0  0  0  0  0  0  0  0  0
  1  5  1  0
  1  7  2  0
  1  8  2  0
  1 13  1  0
  2  6  1  0
  2  9  2  0
  2 10  2  0
  2 14  1  0
  3 13  1  0
  4 14  1  0
 11 12  1  0
 11 13  1  0
 12 14  1  0
M  END
>  <PUBCHEM_COMPOUND_CID>  (1) 
21593

>  <PUBCHEM_CONFORMER_RMSD>  (1) 
0.6

>  <PUBCHEM_CONFORMER_DIVERSEORDER>  (1) 
3
10
19
12
2
20
6
21
17
15
5
8
4
18
16
22
11
7
13
14
1
9

>  <PUBCHEM_MMFF94_PARTIAL_CHARGES>  (1) 
16
1 1.38
10 -0.65
13 0.39
14 0.39
2 1.38
21 0.4
22 0.4
23 0.5
24 0.5
3 -0.68
4 -0.68
5 -0.68
6 -0.68
7 -0.65
8 -0.65
9 -0.65

>  <PUBCHEM_EFFECTIVE_ROTOR_COUNT>  (1) 
5

>  <PUBCHEM_PHARMACOPHORE_FEATURES>  (1) 
12
1 10 acceptor
1 3 acceptor
1 3 donor
1 4 acceptor
1 4 donor
1 5 acceptor
1 6 acceptor
1 7 acceptor
1 8 acceptor
1 9 acceptor
4 1 5 7 8 anion
4 2 6 9 10 anion

>  <PUBCHEM_HEAVY_ATOM_COUNT>  (1) 
14

>  <PUBCHEM_ATOM_DEF_STEREO_COUNT>  (1) 
0

>  <PUBCHEM_ATOM_UDEF_STEREO_COUNT>  (1) 
2

>  <PUBCHEM_BOND_DEF_STEREO_COUNT>  (1) 
0

>  <PUBCHEM_BOND_UDEF_STEREO_COUNT>  (1) 
0

>  <PUBCHEM_ISOTOPIC_ATOM_COUNT>  (1) 
0

>  <PUBCHEM_COMPONENT_COUNT>  (1) 
1

>  <PUBCHEM_CACTVS_TAUTO_COUNT>  (1) 
1

>  <PUBCHEM_CONFORMER_ID>  (1) 
0000545900000003

>  <PUBCHEM_MMFF94_ENERGY>  (1) 
11.3135

>  <PUBCHEM_FEATURE_SELFOVERLAP>  (1) 
61.017

>  <PUBCHEM_SHAPE_FINGERPRINT>  (1) 
11062470 55 15913329095602205264
12500047 106 17274816982747342374
12932764 1 18113050549717480878
13675066 3 18410856581114632698
14123238 8 18410855490192932891
14144814 61 18410573963676621355
14252887 29 18408043996691609818
17834072 8 18338798918357228301
17834076 25 16917351454484369264
18186145 218 18335424560210946728
190213 19 18412546513491284441
1986462 14 18040715857633245615
200 152 9511462212642284337
20279233 1 17385443245600833560
20645477 70 18334572404809667482
22485316 2 17967527969567698618
22959321 105 12175326024960429357
2306618 200 18336825300087978593
23402539 116 17346591963837450237
23557571 272 15698007344479512985
42 15 18202569466357010379
449060 50 18059855112298768160
58051976 100 18270121352112855071

>  <PUBCHEM_SHAPE_MULTIPOLES>  (1) 
248.86
9.24
1.26
1.1
0.1
0.01
-0.01
0.01
-0.85
-0.01
0.11
0.01
0
-0.32

>  <PUBCHEM_SHAPE_SELFOVERLAP>  (1) 
454.074

>  <PUBCHEM_SHAPE_VOLUME>  (1) 
157.7

>  <PUBCHEM_COORDINATE_TYPE>  (1) 
2
5
10

$$$$
