216
     RDKit          3D

 14 14  0  0  0  0  0  0  0  0999 V2000
   -3.2521   -0.1508   -0.2888 P   0  0  0  0  0  0  0  0  0  0  0  0
   -1.6379   -0.1780   -0.4100 O   0  0  0  0  0  0  0  0  0  0  0  0
   -3.5519    1.2046    0.5407 O   0  0  0  0  0  0  0  0  0  0  0  0
   -3.5532   -1.3197    0.7874 O   0  0  0  0  0  0  0  0  0  0  0  0
   -3.9877   -0.2827   -1.5903 O   0  0  0  0  0  0  0  0  0  0  0  0
    2.6359    0.9671   -0.1978 N   0  0  0  0  0  0  0  0  0  0  0  0
    2.5578   -1.4265    0.0706 N   0  0  0  0  0  0  0  0  0  0  0  0
    0.6863    2.2725    0.1476 N   0  0  0  0  0  0  0  0  0  0  0  0
    0.5880   -0.1095    0.4198 C   0  0  0  0  0  0  0  0  0  0  0  0
   -0.8691   -0.0589    0.7745 C   0  0  0  0  0  0  0  0  0  0  0  0
    1.3256    1.0085    0.1214 C   0  0  0  0  0  0  0  0  0  0  0  0
    1.2499   -1.3116    0.3815 C   0  0  0  0  0  0  0  0  0  0  0  0
    3.1806   -0.2645   -0.2041 C   0  0  0  0  0  0  0  0  0  0  0  0
    4.6278   -0.3507   -0.5525 C   0  0  0  0  0  0  0  0  0  0  0  0
  1  2  1  0
  1  3  1  0
  1  4  1  0
  1  5  2  0
  2 10  1  0
  6 11  2  0
  6 13  1  0
  7 12  1  0
  7 13  2  0
  8 11  1  0
  9 10  1  0
  9 11  1  0
  9 12  2  0
 13 14  1  0
M  END
>  <PUBCHEM_COMPOUND_CID>  (1) 
216

>  <PUBCHEM_CONFORMER_RMSD>  (1) 
0.6

>  <PUBCHEM_CONFORMER_DIVERSEORDER>  (1) 
1
4
3
5
6
2

>  <PUBCHEM_MMFF94_PARTIAL_CHARGES>  (1) 
19
1 1.51
10 0.42
11 0.41
12 0.16
13 0.48
14 0.14
17 0.15
2 -0.55
21 0.4
22 0.4
23 0.5
24 0.5
3 -0.77
4 -0.77
5 -0.7
6 -0.62
7 -0.62
8 -0.9
9 -0.14

>  <PUBCHEM_EFFECTIVE_ROTOR_COUNT>  (1) 
3

>  <PUBCHEM_PHARMACOPHORE_FEATURES>  (1) 
8
1 3 acceptor
1 4 acceptor
1 5 acceptor
1 8 donor
3 6 7 13 cation
3 6 8 11 cation
4 1 3 4 5 anion
6 6 7 9 11 12 13 rings

>  <PUBCHEM_HEAVY_ATOM_COUNT>  (1) 
14

>  <PUBCHEM_ATOM_DEF_STEREO_COUNT>  (1) 
0

>  <PUBCHEM_ATOM_UDEF_STEREO_COUNT>  (1) 
0

>  <PUBCHEM_BOND_DEF_STEREO_COUNT>  (1) 
0

>  <PUBCHEM_BOND_UDEF_STEREO_COUNT>  (1) 
0

>  <PUBCHEM_ISOTOPIC_ATOM_COUNT>  (1) 
0

>  <PUBCHEM_COMPONENT_COUNT>  (1) 
1

>  <PUBCHEM_CACTVS_TAUTO_COUNT>  (1) 
3

>  <PUBCHEM_CONFORMER_ID>  (1) 
000000D800000001

>  <PUBCHEM_MMFF94_ENERGY>  (1) 
3.1326

>  <PUBCHEM_FEATURE_SELFOVERLAP>  (1) 
40.767

>  <PUBCHEM_SHAPE_FINGERPRINT>  (1) 
11401426 45 18410853266064531362
11471102 20 18408038520333981252
12032990 46 18410864260859205170
12932764 1 17560798866267916739
13705890 14 18410294743837406778
14144814 61 18411981356035494939
14576447 43 18271798047083951886
14911166 2 18335991921760549238
14993402 34 18272650151589428958
15477762 27 18413388765104868998
15757776 16 18412540986142921446
18186145 218 18040716961033613281
200 152 18201720647664739730
20201158 50 18260550008887875490
20645477 70 18342453746558463574
21256008 61 18272928340931826316
221490 88 18192157220133539530
22485316 2 16773795870529832622
23402539 116 18271806792085356438
23402655 69 18337668607804172877
25 1 18186520977468802331
2748010 2 18049458216630810730
2838139 119 15864933069931942302
93112 12 18410006671917594983

>  <PUBCHEM_SHAPE_MULTIPOLES>  (1) 
253.54
7.9
1.51
0.9
2
0.5
0.18
-1.3
1.98
-0.24
-0.22
0.72
-0.1
-0.04

>  <PUBCHEM_SHAPE_SELFOVERLAP>  (1) 
504.041

>  <PUBCHEM_SHAPE_VOLUME>  (1) 
152.2

>  <PUBCHEM_COORDINATE_TYPE>  (1) 
2
5
10

$$$$
