21604
     RDKit          3D

 14 14  0  0  0  0  0  0  0  0999 V2000
    0.4592   -0.0010    0.9812 N   0  0  0  0  0  0  0  0  0  0  0  0
    1.2245   -0.0007   -0.0089 N   0  0  0  0  0  0  0  0  0  0  0  0
    3.6999   -2.2026   -0.5611 N   0  0  0  0  0  0  0  0  0  0  0  0
    3.6971    2.2040   -0.5623 N   0  0  0  0  0  0  0  0  0  0  0  0
   -3.5312    0.0001   -0.2912 C   0  0  0  0  0  0  0  0  0  0  0  0
   -2.8667   -1.2080   -0.0807 C   0  0  0  0  0  0  0  0  0  0  0  0
   -2.8667    1.2080   -0.0783 C   0  0  0  0  0  0  0  0  0  0  0  0
   -0.8730   -0.0006    0.5556 C   0  0  0  0  0  0  0  0  0  0  0  0
   -1.5377   -1.2084    0.3427 C   0  0  0  0  0  0  0  0  0  0  0  0
   -1.5376    1.2077    0.3451 C   0  0  0  0  0  0  0  0  0  0  0  0
   -4.9524    0.0002   -0.7429 C   0  0  0  0  0  0  0  0  0  0  0  0
    2.6320    0.0003    0.3882 C   0  0  0  0  0  0  0  0  0  0  0  0
    3.2270   -1.2285   -0.1433 C   0  0  0  0  0  0  0  0  0  0  0  0
    3.2255    1.2295   -0.1440 C   0  0  0  0  0  0  0  0  0  0  0  0
  1  2  2  0
  1  8  1  0
  2 12  1  0
  3 13  3  0
  4 14  3  0
  5  6  2  0
  5  7  1  0
  5 11  1  0
  6  9  1  0
  7 10  2  0
  8  9  2  0
  8 10  1  0
 12 13  1  0
 12 14  1  0
M  END
>  <PUBCHEM_COMPOUND_CID>  (1) 
21604

>  <PUBCHEM_CONFORMER_RMSD>  (1) 
0.6

>  <PUBCHEM_CONFORMER_DIVERSEORDER>  (1) 
1
3
2
4

>  <PUBCHEM_MMFF94_PARTIAL_CHARGES>  (1) 
18
1 -0.18
10 -0.15
11 0.14
12 0.65
13 0.36
14 0.36
15 0.15
16 0.15
17 0.15
18 0.15
2 -0.25
3 -0.56
4 -0.56
5 -0.14
6 -0.15
7 -0.15
8 0.18
9 -0.15

>  <PUBCHEM_EFFECTIVE_ROTOR_COUNT>  (1) 
2

>  <PUBCHEM_PHARMACOPHORE_FEATURES>  (1) 
3
1 3 acceptor
1 4 acceptor
6 5 6 7 8 9 10 rings

>  <PUBCHEM_HEAVY_ATOM_COUNT>  (1) 
14

>  <PUBCHEM_ATOM_DEF_STEREO_COUNT>  (1) 
0

>  <PUBCHEM_ATOM_UDEF_STEREO_COUNT>  (1) 
0

>  <PUBCHEM_BOND_DEF_STEREO_COUNT>  (1) 
0

>  <PUBCHEM_BOND_UDEF_STEREO_COUNT>  (1) 
0

>  <PUBCHEM_ISOTOPIC_ATOM_COUNT>  (1) 
0

>  <PUBCHEM_COMPONENT_COUNT>  (1) 
1

>  <PUBCHEM_CACTVS_TAUTO_COUNT>  (1) 
1

>  <PUBCHEM_CONFORMER_ID>  (1) 
0000546400000001

>  <PUBCHEM_MMFF94_ENERGY>  (1) 
23.904

>  <PUBCHEM_FEATURE_SELFOVERLAP>  (1) 
15.223

>  <PUBCHEM_SHAPE_FINGERPRINT>  (1) 
13760787 5 18342741806342115129
15375462 6 18412266159654148892
15477762 27 18341614764063960822
18186145 218 17749389247699376115
18619055 16 18343865532584250698
19422 9 18201441350421070961
200 152 17775280534736301563
20281475 54 18059857294142278003
20645477 56 18113617927998579101
20645477 70 18413108346764284630
22485316 2 17775277292210014415
2255824 54 18333733494775669386
23402655 69 18409729573227884804
23557571 272 17678188289225995826
23559900 14 18412258446035238674
23598291 2 18198638652506393680
3545911 37 18335423503823285988
474 4 17458910460753793892
58051976 100 18408605833673975711
58051976 378 18343304803408359924
633830 44 18260824869920742871
67856867 119 18338226172279996776
7364860 26 18413109468309463248
93112 12 18409452466401543682
9709674 26 18409452517878322074

>  <PUBCHEM_SHAPE_MULTIPOLES>  (1) 
268.19
8.91
1.84
0.79
0.4
0
-0.03
0
2.52
-2
0.31
0.06
0
0

>  <PUBCHEM_SHAPE_SELFOVERLAP>  (1) 
552.551

>  <PUBCHEM_SHAPE_VOLUME>  (1) 
151

>  <PUBCHEM_COORDINATE_TYPE>  (1) 
2
5
10

$$$$
