21611
     RDKit          3D

 15 16  0  0  0  0  0  0  0  0999 V2000
   -5.5266   -0.1366   -1.4402 Br  0  0  0  0  0  0  0  0  0  0  0  0
   -0.1504    2.3595    0.3996 O   0  0  0  0  0  0  0  0  0  0  0  0
   -0.2521   -2.2711    0.5177 O   0  0  0  0  0  0  0  0  0  0  0  0
   -0.6145    0.0572    0.5753 N   0  0  0  0  0  0  0  0  0  0  0  0
   -2.0133    0.0987    0.9525 C   0  0  0  0  0  0  0  0  0  0  0  0
    1.4849    0.6889    0.0068 C   0  0  0  0  0  0  0  0  0  0  0  0
    1.4533   -0.6974    0.0425 C   0  0  0  0  0  0  0  0  0  0  0  0
   -2.9424    0.0155   -0.2538 C   0  0  0  0  0  0  0  0  0  0  0  0
    0.1506    1.1815    0.3466 C   0  0  0  0  0  0  0  0  0  0  0  0
    0.0982   -1.1110    0.4057 C   0  0  0  0  0  0  0  0  0  0  0  0
    2.6333    1.3851   -0.3094 C   0  0  0  0  0  0  0  0  0  0  0  0
    2.5685   -1.4605   -0.2363 C   0  0  0  0  0  0  0  0  0  0  0  0
   -4.4096    0.0339    0.1469 C   0  0  0  0  0  0  0  0  0  0  0  0
    3.7761    0.6326   -0.5949 C   0  0  0  0  0  0  0  0  0  0  0  0
    3.7440   -0.7764   -0.5589 C   0  0  0  0  0  0  0  0  0  0  0  0
  1 13  1  0
  2  9  2  0
  3 10  2  0
  4  5  1  0
  4  9  1  0
  4 10  1  0
  5  8  1  0
  6  7  2  0
  6  9  1  0
  6 11  1  0
  7 10  1  0
  7 12  1  0
  8 13  1  0
 11 14  2  0
 12 15  2  0
 14 15  1  0
M  END
>  <PUBCHEM_COMPOUND_CID>  (1) 
21611

>  <PUBCHEM_CONFORMER_RMSD>  (1) 
0.6

>  <PUBCHEM_CONFORMER_DIVERSEORDER>  (1) 
1
7
6
3
8
2
4
5

>  <PUBCHEM_MMFF94_PARTIAL_CHARGES>  (1) 
18
1 -0.23
10 0.54
11 -0.15
12 -0.15
13 0.23
14 -0.15
15 -0.15
2 -0.57
20 0.15
21 0.15
24 0.15
25 0.15
3 -0.57
4 -0.42
5 0.3
6 0.09
7 0.09
9 0.54

>  <PUBCHEM_EFFECTIVE_ROTOR_COUNT>  (1) 
3.2

>  <PUBCHEM_PHARMACOPHORE_FEATURES>  (1) 
5
1 1 hydrophobe
1 2 acceptor
1 3 acceptor
5 4 6 7 9 10 rings
6 6 7 11 12 14 15 rings

>  <PUBCHEM_HEAVY_ATOM_COUNT>  (1) 
15

>  <PUBCHEM_ATOM_DEF_STEREO_COUNT>  (1) 
0

>  <PUBCHEM_ATOM_UDEF_STEREO_COUNT>  (1) 
0

>  <PUBCHEM_BOND_DEF_STEREO_COUNT>  (1) 
0

>  <PUBCHEM_BOND_UDEF_STEREO_COUNT>  (1) 
0

>  <PUBCHEM_ISOTOPIC_ATOM_COUNT>  (1) 
0

>  <PUBCHEM_COMPONENT_COUNT>  (1) 
1

>  <PUBCHEM_CACTVS_TAUTO_COUNT>  (1) 
1

>  <PUBCHEM_CONFORMER_ID>  (1) 
0000546B00000001

>  <PUBCHEM_MMFF94_ENERGY>  (1) 
27.7473

>  <PUBCHEM_FEATURE_SELFOVERLAP>  (1) 
25.464

>  <PUBCHEM_SHAPE_FINGERPRINT>  (1) 
10498660 4 16661468616497342725
11206711 2 18191603955652831780
11401426 45 18412260653368860344
11471102 20 18409168813760252572
12236239 1 17775010072662178721
12730499 353 17894911798744704227
13380535 76 18411145753269193946
14251717 144 18411981351635103839
14576447 43 18130781287454985103
14911166 2 18409457989856002622
14993402 34 18201441389096836663
15848700 24 18342455928523110404
16945 1 18338254708026581640
18186145 218 18260271832461683927
200 152 18202284675649651473
20645477 70 18410014308264335431
21256008 61 18059852887458268425
21501502 16 18194413182113166104
21637258 2 15913326853697914092
221357 26 18337659855357357637
221490 88 18195247956457720027
231179 274 17313097553773049981
2334 1 17907030813131402090
23402539 116 18272652311731053924
23402655 69 18410289195124697949
23559900 14 18340494460773714012
25 1 18261109660612342603
2748010 2 18051993698886697168
2871803 45 18409163282106204013
29717793 49 17775564217911726317
3060560 45 18336255804176831655
3286 77 17060335180744736938
4072396 5 18261658329925897696

>  <PUBCHEM_SHAPE_MULTIPOLES>  (1) 
297.92
8.76
1.74
0.97
11.25
0.05
0.16
-0.4
4.3
-1.05
-0.21
0.79
-0.03
-0.11

>  <PUBCHEM_SHAPE_SELFOVERLAP>  (1) 
624.071

>  <PUBCHEM_SHAPE_VOLUME>  (1) 
174.4

>  <PUBCHEM_COORDINATE_TYPE>  (1) 
2
5
10

$$$$
