21614
     RDKit          3D

 24 27  0  0  0  0  0  0  0  0999 V2000
    6.5608   -2.0611    0.0001 Cl  0  0  0  0  0  0  0  0  0  0  0  0
   -6.5608   -2.0612   -0.0001 Cl  0  0  0  0  0  0  0  0  0  0  0  0
    1.6618    1.8468   -0.0005 S   0  0  0  0  0  0  0  0  0  0  0  0
   -1.6618    1.8468    0.0005 S   0  0  0  0  0  0  0  0  0  0  0  0
    1.0244   -1.9585   -0.0002 O   0  0  0  0  0  0  0  0  0  0  0  0
   -1.0244   -1.9585    0.0002 O   0  0  0  0  0  0  0  0  0  0  0  0
    0.6671    0.4277   -0.0002 C   0  0  0  0  0  0  0  0  0  0  0  0
   -0.6671    0.4276    0.0002 C   0  0  0  0  0  0  0  0  0  0  0  0
    2.9019   -0.5033   -0.0007 C   0  0  0  0  0  0  0  0  0  0  0  0
   -2.9018   -0.5032    0.0006 C   0  0  0  0  0  0  0  0  0  0  0  0
    3.1416    0.8696   -0.0007 C   0  0  0  0  0  0  0  0  0  0  0  0
   -3.1416    0.8696    0.0007 C   0  0  0  0  0  0  0  0  0  0  0  0
    1.4692   -0.8253   -0.0005 C   0  0  0  0  0  0  0  0  0  0  0  0
   -1.4692   -0.8252    0.0004 C   0  0  0  0  0  0  0  0  0  0  0  0
    4.4442    1.3476   -0.0003 C   0  0  0  0  0  0  0  0  0  0  0  0
   -4.4441    1.3477    0.0002 C   0  0  0  0  0  0  0  0  0  0  0  0
    3.9343   -1.4296    0.0000 C   0  0  0  0  0  0  0  0  0  0  0  0
   -3.9342   -1.4297    0.0000 C   0  0  0  0  0  0  0  0  0  0  0  0
    5.4981    0.4290    0.0001 C   0  0  0  0  0  0  0  0  0  0  0  0
   -5.4981    0.4290    0.0000 C   0  0  0  0  0  0  0  0  0  0  0  0
    5.2445   -0.9506    0.0001 C   0  0  0  0  0  0  0  0  0  0  0  0
   -5.2446   -0.9505   -0.0001 C   0  0  0  0  0  0  0  0  0  0  0  0
    4.7498    2.8077    0.0012 C   0  0  0  0  0  0  0  0  0  0  0  0
   -4.7498    2.8077   -0.0013 C   0  0  0  0  0  0  0  0  0  0  0  0
  1 21  1  0
  2 22  1  0
  3  7  1  0
  3 11  1  0
  4  8  1  0
  4 12  1  0
  5 13  2  0
  6 14  2  0
  7  8  2  0
  7 13  1  0
  8 14  1  0
  9 11  2  0
  9 13  1  0
  9 17  1  0
 10 12  2  0
 10 14  1  0
 10 18  1  0
 11 15  1  0
 12 16  1  0
 15 19  2  0
 15 23  1  0
 16 20  2  0
 16 24  1  0
 17 21  2  0
 18 22  2  0
 19 21  1  0
 20 22  1  0
M  END
>  <PUBCHEM_COMPOUND_CID>  (1) 
21614

>  <PUBCHEM_CONFORMER_RMSD>  (1) 
0.6

>  <PUBCHEM_CONFORMER_DIVERSEORDER>  (1) 
1

>  <PUBCHEM_MMFF94_PARTIAL_CHARGES>  (1) 
28
1 -0.18
10 0.09
11 0.1
12 0.1
13 0.47
14 0.47
15 -0.14
16 -0.14
17 -0.15
18 -0.15
19 -0.15
2 -0.18
20 -0.15
21 0.18
22 0.18
23 0.14
24 0.14
25 0.15
26 0.15
27 0.15
28 0.15
3 -0.2
4 -0.2
5 -0.57
6 -0.57
7 0.12
8 0.12
9 0.09

>  <PUBCHEM_EFFECTIVE_ROTOR_COUNT>  (1) 
0.4

>  <PUBCHEM_PHARMACOPHORE_FEATURES>  (1) 
6
1 5 acceptor
1 6 acceptor
5 3 7 9 11 13 rings
5 4 8 10 12 14 rings
6 10 12 16 18 20 22 rings
6 9 11 15 17 19 21 rings

>  <PUBCHEM_HEAVY_ATOM_COUNT>  (1) 
24

>  <PUBCHEM_ATOM_DEF_STEREO_COUNT>  (1) 
0

>  <PUBCHEM_ATOM_UDEF_STEREO_COUNT>  (1) 
0

>  <PUBCHEM_BOND_DEF_STEREO_COUNT>  (1) 
0

>  <PUBCHEM_BOND_UDEF_STEREO_COUNT>  (1) 
1

>  <PUBCHEM_ISOTOPIC_ATOM_COUNT>  (1) 
0

>  <PUBCHEM_COMPONENT_COUNT>  (1) 
1

>  <PUBCHEM_CACTVS_TAUTO_COUNT>  (1) 
1

>  <PUBCHEM_CONFORMER_ID>  (1) 
0000546E00000001

>  <PUBCHEM_MMFF94_ENERGY>  (1) 
72.9511

>  <PUBCHEM_FEATURE_SELFOVERLAP>  (1) 
30.722

>  <PUBCHEM_SHAPE_FINGERPRINT>  (1) 
10 15 18265043808043760560
10595046 47 18410292540244792809
11524674 6 16343705461007980087
12107183 9 17832703465899864753
12166972 35 18335424586023533148
12236239 1 18410856559639802561
12616971 3 17774995804406353228
12788726 201 17561094591746331568
13073987 5 18411699906554625688
13167823 11 18410571790423221350
13288520 33 18411419493014747951
13533116 47 18341331180115740192
13785724 45 17835238940147110738
13862211 1 18410855464423492867
14251764 18 18260545628817610698
14341114 176 18336269023911835289
14528608 73 18410294730947223756
14790565 3 18410858758663415396
15183329 4 18409729530177660184
15196674 1 18410855460128382661
17844677 252 18411144631749882241
1813 80 16950561099294898972
18222031 100 16588023524277948070
18681886 176 18341608214270314362
200 152 18202281411901735513
20028762 73 18343299258553762398
21033648 29 17846200151530082121
21130935 74 18342736282999024122
21236236 1 18411981352252308265
21267235 1 18410580586516522886
21279426 13 18339643339219402092
21315763 129 18411138013247425252
21315763 28 18410854360616910790
21315764 268 18336541698474787060
21709351 56 18336260171952785101
21792934 111 18342728611860178113
23402539 116 18412539890556801181
23522609 53 18194434192682494276
23559900 14 18342171112388650850
23569943 247 17242723196126489602
239999 70 18342461422509059662
3004659 81 18334576824557303232
335352 9 18338797814851391540
34797466 226 17632025255185303764
350125 39 18409449155425026156
3545911 37 18411139160014203692
4073 2 18041002894798567202
4214541 1 18410855434754354181
5104073 3 18410573980872555832
5283173 99 18337388245187373817
559249 180 18338514145025261307
59755656 215 18339083666706212598
6138700 20 18337111151372626194
7495541 125 17703504475767651616
9996256 80 18412825806767345319

>  <PUBCHEM_SHAPE_MULTIPOLES>  (1) 
493.61
16.25
2.79
0.62
0
0.8
0
-3.81
0
0
0
0
0.02
0

>  <PUBCHEM_SHAPE_SELFOVERLAP>  (1) 
1068.213

>  <PUBCHEM_SHAPE_VOLUME>  (1) 
276.4

>  <PUBCHEM_COORDINATE_TYPE>  (1) 
2
5
10

$$$$
