21635
     RDKit          3D

 12 11  0  0  0  0  0  0  0  0999 V2000
    0.5346    3.9564   -0.0709 Cl  0  0  0  0  0  0  0  0  0  0  0  0
   -4.4159   -1.0465   -0.2341 Cl  0  0  0  0  0  0  0  0  0  0  0  0
    1.6830   -0.5090   -0.1572 O   0  0  0  0  0  0  0  0  0  0  0  0
    0.2381   -2.0394    0.7335 O   0  0  0  0  0  0  0  0  0  0  0  0
   -0.5381    0.0564    0.0907 N   0  0  0  0  0  0  0  0  0  0  0  0
   -0.2347    1.3664   -0.4768 C   0  0  0  0  0  0  0  0  0  0  0  0
   -1.9256   -0.1703    0.4692 C   0  0  0  0  0  0  0  0  0  0  0  0
    0.1517    2.3560    0.6112 C   0  0  0  0  0  0  0  0  0  0  0  0
   -2.7185   -0.7550   -0.6890 C   0  0  0  0  0  0  0  0  0  0  0  0
    0.4458   -0.9233    0.2607 C   0  0  0  0  0  0  0  0  0  0  0  0
    2.7479   -1.4565   -0.0151 C   0  0  0  0  0  0  0  0  0  0  0  0
    4.0317   -0.8352   -0.5223 C   0  0  0  0  0  0  0  0  0  0  0  0
  1  8  1  0
  2  9  1  0
  3 10  1  0
  3 11  1  0
  4 10  2  0
  5  6  1  0
  5  7  1  0
  5 10  1  0
  6  8  1  0
  7  9  1  0
 11 12  1  0
M  END
>  <PUBCHEM_COMPOUND_CID>  (1) 
21635

>  <PUBCHEM_CONFORMER_RMSD>  (1) 
0.8

>  <PUBCHEM_CONFORMER_DIVERSEORDER>  (1) 
1
31
37
23
5
33
53
45
2
9
20
46
11
39
21
27
34
43
30
52
29
16
28
10
56
12
51
19
35
41
6
42
44
32
25
3
36
40
8
55
54
18
49
57
15
17
48
58
7
4
14
13
26
38
47
24
22
50

>  <PUBCHEM_MMFF94_PARTIAL_CHARGES>  (1) 
11
1 -0.29
10 0.78
11 0.28
2 -0.29
3 -0.43
4 -0.57
5 -0.66
6 0.3
7 0.3
8 0.29
9 0.29

>  <PUBCHEM_EFFECTIVE_ROTOR_COUNT>  (1) 
7

>  <PUBCHEM_PHARMACOPHORE_FEATURES>  (1) 
1
1 4 acceptor

>  <PUBCHEM_HEAVY_ATOM_COUNT>  (1) 
12

>  <PUBCHEM_ATOM_DEF_STEREO_COUNT>  (1) 
0

>  <PUBCHEM_ATOM_UDEF_STEREO_COUNT>  (1) 
0

>  <PUBCHEM_BOND_DEF_STEREO_COUNT>  (1) 
0

>  <PUBCHEM_BOND_UDEF_STEREO_COUNT>  (1) 
0

>  <PUBCHEM_ISOTOPIC_ATOM_COUNT>  (1) 
0

>  <PUBCHEM_COMPONENT_COUNT>  (1) 
1

>  <PUBCHEM_CACTVS_TAUTO_COUNT>  (1) 
1

>  <PUBCHEM_CONFORMER_ID>  (1) 
0000548300000001

>  <PUBCHEM_MMFF94_ENERGY>  (1) 
10.4843

>  <PUBCHEM_FEATURE_SELFOVERLAP>  (1) 
5.074

>  <PUBCHEM_SHAPE_FINGERPRINT>  (1) 
108231 29 18334863835019261187
11680986 33 18048882084790060723
193761 8 17761496189387341762
20645477 70 18195794388304700391
20671657 1 18196094571673116189
20671657 53 18341894095540598591
20711985 327 18342745117424407239
21061003 4 18334586749952638763
21339142 36 18337663114277062476
228727 97 18188776037389557346
23402539 116 18340202990891368478
23526114 1 18410852183284873613
23532345 12 17989490736630286883
23557571 272 18201164235152696598
23598291 2 18057878229431803015
2748010 2 18268124540054479024
3071541 12 18194966468295271121
3250762 1 17758123978508515314
58734987 36 18410852187605805431
58734987 43 18410574006789830987
68521 5 18338518512949031213
7364860 26 18197495336501838957
81228 2 18124608487025998409

>  <PUBCHEM_SHAPE_MULTIPOLES>  (1) 
233.97
5.79
3.5
0.79
2.4
5.39
0
-4.86
1.35
-1.91
-0.2
0.07
-0.02
0

>  <PUBCHEM_SHAPE_SELFOVERLAP>  (1) 
414.912

>  <PUBCHEM_SHAPE_VOLUME>  (1) 
154.7

>  <PUBCHEM_COORDINATE_TYPE>  (1) 
2
5
10

$$$$
