21630
     RDKit          3D

 21 21  0  0  1  0  0  0  0  0999 V2000
   -1.4587   -0.3642   -0.0193 O   0  0  0  0  0  0  0  0  0  0  0  0
   -0.5969   -2.4555    0.4513 O   0  0  0  0  0  0  0  0  0  0  0  0
    7.1181    0.9620   -0.3729 O   0  0  0  0  0  0  0  0  0  0  0  0
   -3.8015    0.2602   -0.1543 C   0  0  0  0  0  0  0  0  0  0  0  0
   -5.2188   -0.3439   -0.2447 C   0  0  0  0  0  0  0  0  0  0  0  0
   -3.6694    1.4122    0.8669 C   0  0  0  0  0  0  0  0  0  0  0  0
   -6.2946    0.6724   -0.6413 C   0  0  0  0  0  0  0  0  0  0  0  0
   -2.7837   -0.8644    0.0973 C   0  0  0  0  0  0  0  0  0  0  0  0
   -7.6991    0.0666   -0.7116 C   0  0  0  0  0  0  0  0  0  0  0  0
   -3.9999    1.0421    2.3063 C   0  0  0  0  0  0  0  0  0  0  0  0
   -8.7756    1.0761   -1.0796 C   0  0  0  0  0  0  0  0  0  0  0  0
   -0.4600   -1.2724    0.1835 C   0  0  0  0  0  0  0  0  0  0  0  0
    0.8346   -0.5720    0.0233 C   0  0  0  0  0  0  0  0  0  0  0  0
    1.9783   -1.2546    0.1763 C   0  0  0  0  0  0  0  0  0  0  0  0
    3.3249   -0.6738    0.0325 C   0  0  0  0  0  0  0  0  0  0  0  0
    3.5039    0.7059    0.1330 C   0  0  0  0  0  0  0  0  0  0  0  0
    4.4207   -1.5038   -0.2040 C   0  0  0  0  0  0  0  0  0  0  0  0
    4.7785    1.2557   -0.0033 C   0  0  0  0  0  0  0  0  0  0  0  0
    5.6954   -0.9541   -0.3402 C   0  0  0  0  0  0  0  0  0  0  0  0
    5.8743    0.4256   -0.2400 C   0  0  0  0  0  0  0  0  0  0  0  0
    7.2293    2.3799   -0.2591 C   0  0  0  0  0  0  0  0  0  0  0  0
  1  8  1  0
  1 12  1  0
  2 12  2  0
  3 20  1  0
  3 21  1  0
  4  5  1  0
  4  6  1  0
  4  8  1  0
  5  7  1  0
  6 10  1  0
  7  9  1  0
  9 11  1  0
 12 13  1  0
 13 14  2  0
 14 15  1  0
 15 16  2  0
 15 17  1  0
 16 18  1  0
 17 19  2  0
 18 20  2  0
 19 20  1  0
M  END
>  <PUBCHEM_COMPOUND_CID>  (1) 
21630

>  <PUBCHEM_CONFORMER_RMSD>  (1) 
1

>  <PUBCHEM_CONFORMER_DIVERSEORDER>  (1) 
1
23
36
52
10
33
60
47
15
54
48
53
25
16
8
30
39
11
62
17
20
63
42
12
19
2
22
4
67
58
65
38
21
51
27
44
56
55
37
34
18
61
9
41
24
5
31
40
7
50
28
6
35
45
3
59
32
49
57
43
66
14
64
46
13
26
29

>  <PUBCHEM_MMFF94_PARTIAL_CHARGES>  (1) 
20
1 -0.43
12 0.71
13 -0.14
14 -0.18
15 0.03
16 -0.15
17 -0.15
18 -0.15
19 -0.15
2 -0.57
20 0.08
21 0.28
3 -0.36
39 0.15
40 0.15
41 0.15
42 0.15
43 0.15
44 0.15
8 0.28

>  <PUBCHEM_EFFECTIVE_ROTOR_COUNT>  (1) 
10

>  <PUBCHEM_PHARMACOPHORE_FEATURES>  (1) 
6
1 10 hydrophobe
1 11 hydrophobe
1 2 acceptor
1 3 acceptor
5 4 5 6 7 9 hydrophobe
6 15 16 17 18 19 20 rings

>  <PUBCHEM_HEAVY_ATOM_COUNT>  (1) 
21

>  <PUBCHEM_ATOM_DEF_STEREO_COUNT>  (1) 
0

>  <PUBCHEM_ATOM_UDEF_STEREO_COUNT>  (1) 
1

>  <PUBCHEM_BOND_DEF_STEREO_COUNT>  (1) 
0

>  <PUBCHEM_BOND_UDEF_STEREO_COUNT>  (1) 
1

>  <PUBCHEM_ISOTOPIC_ATOM_COUNT>  (1) 
0

>  <PUBCHEM_COMPONENT_COUNT>  (1) 
1

>  <PUBCHEM_CACTVS_TAUTO_COUNT>  (1) 
1

>  <PUBCHEM_CONFORMER_ID>  (1) 
0000547E00000001

>  <PUBCHEM_MMFF94_ENERGY>  (1) 
49.0514

>  <PUBCHEM_FEATURE_SELFOVERLAP>  (1) 
30.449

>  <PUBCHEM_SHAPE_FINGERPRINT>  (1) 
10 15 17458063780780844684
10411042 1 17904761082474062002
10595046 47 17917151602563495387
11315181 36 18343586248990167059
12592606 108 9727625108469716805
13668630 136 12967128315638709413
13673619 4 14045734929479655595
14123256 10 18059853965637387109
14251757 52 18113894961710327248
14251764 18 17989210338804326313
14931854 50 18131354089662729521
15183329 4 17561086903611868154
15690457 1 8790881878939034541
1577012 14 17988933223367081945
18643901 69 14261348068722735189
20157964 124 18411700963475387094
20281389 69 18113334206964930372
20554085 129 16443057292986255313
21150785 3 17561362893794022508
221357 26 17632573842630762089
22224240 67 17313101952057301795
2297311 6 15626221308865933643
23035841 295 8142084260495849645
23081809 10 17489593311768313218
23402655 69 18273500096291079310
246663 6 13830128412933409487
312425 54 12973894748745578236
33532 11 10375870779473261141
335352 9 18412550886818174510
351380 3 10159700183413083860
4073 2 18114466746522681858
4325135 7 17846778499347382573
5104073 3 18260548970386953562
54446538 1 18202001001728865201
59682541 35 17603308168058036285

>  <PUBCHEM_SHAPE_MULTIPOLES>  (1) 
414.56
24.55
1.88
1.04
15.49
0.07
-0.53
12.63
8.11
-2.43
-0.15
1.87
0.38
-0.38

>  <PUBCHEM_SHAPE_SELFOVERLAP>  (1) 
823.752

>  <PUBCHEM_SHAPE_VOLUME>  (1) 
246.3

>  <PUBCHEM_COORDINATE_TYPE>  (1) 
2
5
10

$$$$
