21643
     RDKit          3D

  8  8  0  0  0  0  0  0  0  0999 V2000
   -3.0115   -0.0482   -0.0028 Cl  0  0  0  0  0  0  0  0  0  0  0  0
    0.6917   -1.1894    0.0006 N   0  0  0  0  0  0  0  0  0  0  0  0
    2.7884   -0.0556   -0.0022 N   0  0  0  0  0  0  0  0  0  0  0  0
   -0.6680   -1.1604    0.0013 N   0  0  0  0  0  0  0  0  0  0  0  0
    1.3745   -0.0249    0.0002 C   0  0  0  0  0  0  0  0  0  0  0  0
    0.7546    1.2085    0.0005 C   0  0  0  0  0  0  0  0  0  0  0  0
   -0.6289    1.2379    0.0010 C   0  0  0  0  0  0  0  0  0  0  0  0
   -1.3008    0.0321    0.0014 C   0  0  0  0  0  0  0  0  0  0  0  0
  1  8  1  0
  2  4  2  0
  2  5  1  0
  3  5  1  0
  4  8  1  0
  5  6  2  0
  6  7  1  0
  7  8  2  0
M  END
>  <PUBCHEM_COMPOUND_CID>  (1) 
21643

>  <PUBCHEM_CONFORMER_RMSD>  (1) 
0.4

>  <PUBCHEM_CONFORMER_DIVERSEORDER>  (1) 
1

>  <PUBCHEM_MMFF94_PARTIAL_CHARGES>  (1) 
12
1 -0.18
10 0.15
11 0.4
12 0.4
2 -0.31
3 -0.9
4 -0.31
5 0.41
6 -0.15
7 -0.15
8 0.49
9 0.15

>  <PUBCHEM_EFFECTIVE_ROTOR_COUNT>  (1) 
0

>  <PUBCHEM_PHARMACOPHORE_FEATURES>  (1) 
4
1 3 donor
1 4 acceptor
3 2 3 5 cation
6 2 4 5 6 7 8 rings

>  <PUBCHEM_HEAVY_ATOM_COUNT>  (1) 
8

>  <PUBCHEM_ATOM_DEF_STEREO_COUNT>  (1) 
0

>  <PUBCHEM_ATOM_UDEF_STEREO_COUNT>  (1) 
0

>  <PUBCHEM_BOND_DEF_STEREO_COUNT>  (1) 
0

>  <PUBCHEM_BOND_UDEF_STEREO_COUNT>  (1) 
0

>  <PUBCHEM_ISOTOPIC_ATOM_COUNT>  (1) 
0

>  <PUBCHEM_COMPONENT_COUNT>  (1) 
1

>  <PUBCHEM_CACTVS_TAUTO_COUNT>  (1) 
2

>  <PUBCHEM_CONFORMER_ID>  (1) 
0000548B00000001

>  <PUBCHEM_MMFF94_ENERGY>  (1) 
23.2252

>  <PUBCHEM_FEATURE_SELFOVERLAP>  (1) 
20.297

>  <PUBCHEM_SHAPE_FINGERPRINT>  (1) 
16714656 1 18410576184338276036
21040471 1 18194402431498709665
23235685 24 18410570695227705357
23402655 69 18194945376439134797
23552423 10 18044946662170464286
29004967 10 18334019384498407073

>  <PUBCHEM_SHAPE_MULTIPOLES>  (1) 
151.56
3.43
1.27
0.59
0.78
0.08
0
-0.24
0
-0.07
0
0.05
0.03
0

>  <PUBCHEM_SHAPE_SELFOVERLAP>  (1) 
301.418

>  <PUBCHEM_SHAPE_VOLUME>  (1) 
91.2

>  <PUBCHEM_COORDINATE_TYPE>  (1) 
2
5
10

$$$$
