21658
     RDKit          3D

 17 18  0  0  1  0  0  0  0  0999 V2000
    3.7851    2.0939   -0.6348 S   0  0  0  0  0  0  0  0  0  0  0  0
   -3.9493    1.1448   -0.2570 N   0  0  0  0  0  0  0  0  0  0  0  0
    0.4220   -2.6111    0.5531 N   0  0  0  0  0  0  0  0  0  0  0  0
   -1.7629   -0.0015   -0.7698 C   0  0  0  0  0  0  0  0  0  0  0  0
   -2.8781    0.3079    0.2963 C   0  0  0  0  0  0  0  0  0  0  0  0
   -0.6733   -0.8660   -0.2728 C   0  0  0  0  0  0  0  0  0  0  0  0
    0.7038   -0.5211   -0.1745 C   0  0  0  0  0  0  0  0  0  0  0  0
   -2.3987   -0.5674   -2.0715 C   0  0  0  0  0  0  0  0  0  0  0  0
    1.3687   -1.6333    0.3464 C   0  0  0  0  0  0  0  0  0  0  0  0
   -0.8150   -2.1569    0.1818 C   0  0  0  0  0  0  0  0  0  0  0  0
   -2.3025    1.0159    1.5282 C   0  0  0  0  0  0  0  0  0  0  0  0
    1.4506    0.6342   -0.4797 C   0  0  0  0  0  0  0  0  0  0  0  0
    2.7487   -1.6479    0.5781 C   0  0  0  0  0  0  0  0  0  0  0  0
    2.8318    0.6339   -0.2531 C   0  0  0  0  0  0  0  0  0  0  0  0
   -5.0059    1.3339    0.7218 C   0  0  0  0  0  0  0  0  0  0  0  0
    3.4688   -0.4908    0.2679 C   0  0  0  0  0  0  0  0  0  0  0  0
    3.0061    3.3314    0.4395 C   0  0  0  0  0  0  0  0  0  0  0  0
  1 14  1  0
  1 17  1  0
  2  5  1  0
  2 15  1  0
  3  9  1  0
  3 10  1  0
  4  5  1  0
  4  6  1  0
  4  8  1  0
  5 11  1  0
  6  7  1  0
  6 10  2  0
  7  9  2  0
  7 12  1  0
  9 13  1  0
 12 14  2  0
 13 16  2  0
 14 16  1  0
M  END
>  <PUBCHEM_COMPOUND_CID>  (1) 
21658

>  <PUBCHEM_CONFORMER_RMSD>  (1) 
0.6

>  <PUBCHEM_CONFORMER_DIVERSEORDER>  (1) 
1
109
97
53
65
84
63
96
32
103
77
107
41
11
102
105
80
95
74
62
111
59
112
83
7
72
114
29
106
38
34
66
87
54
22
28
99
81
113
49
47
70
52
76
51
6
24
36
14
110
71
30
93
92
94
86
46
56
45
9
42
60
50
17
108
73
21
37
39
33
75
85
5
8
69
27
88
100
35
31
4
64
91
101
48
58
20
23
82
18
89
44
104
16
43
12
61
19
79
26
10
98
15
55
78
2
90
25
67
3
57
13
68
40

>  <PUBCHEM_MMFF94_PARTIAL_CHARGES>  (1) 
20
1 -0.33
10 -0.3
12 -0.15
13 -0.15
14 0.1
15 0.27
16 -0.15
17 0.23
2 -0.9
23 0.15
27 0.36
28 0.27
29 0.15
3 0.03
30 0.15
34 0.15
4 0.18
5 0.27
6 -0.18
9 -0.15

>  <PUBCHEM_EFFECTIVE_ROTOR_COUNT>  (1) 
4

>  <PUBCHEM_PHARMACOPHORE_FEATURES>  (1) 
8
1 17 hydrophobe
1 2 cation
1 2 donor
1 3 cation
1 3 donor
1 8 hydrophobe
5 3 6 7 9 10 rings
6 7 9 12 13 14 16 rings

>  <PUBCHEM_HEAVY_ATOM_COUNT>  (1) 
17

>  <PUBCHEM_ATOM_DEF_STEREO_COUNT>  (1) 
0

>  <PUBCHEM_ATOM_UDEF_STEREO_COUNT>  (1) 
2

>  <PUBCHEM_BOND_DEF_STEREO_COUNT>  (1) 
0

>  <PUBCHEM_BOND_UDEF_STEREO_COUNT>  (1) 
0

>  <PUBCHEM_ISOTOPIC_ATOM_COUNT>  (1) 
0

>  <PUBCHEM_COMPONENT_COUNT>  (1) 
1

>  <PUBCHEM_CACTVS_TAUTO_COUNT>  (1) 
1

>  <PUBCHEM_CONFORMER_ID>  (1) 
0000549A00000001

>  <PUBCHEM_MMFF94_ENERGY>  (1) 
30.145

>  <PUBCHEM_FEATURE_SELFOVERLAP>  (1) 
40.687

>  <PUBCHEM_SHAPE_FINGERPRINT>  (1) 
11640471 11 18201722825376728081
11725454 13 16229377137575095383
12173636 292 18194968662749025758
12236239 1 18059286561697430295
12390115 104 18046927136432098868
12403259 327 15430038811301318541
12788726 201 17843388837800752559
13140716 1 18260824942998698634
13464514 151 18341338898314577852
13965767 371 18042669754321319200
14123255 52 18410578421905889673
14142880 1 18046904063303074573
14178342 30 17972031715672395464
14251764 38 17625246899382058136
14787075 74 18199473336856873899
15342168 16 18261118512207838485
15475509 8 17841173073310689446
15534591 1 18271250546064213903
15775835 57 18341895177671936061
16945 1 18188761752523652566
1741750 31 18266458896371552504
17980427 23 17986363712470268434
1813 80 17695916522987536470
18186145 218 18409162208279951694
18219364 16 18040424486666847774
20304884 271 18268432515364118560
204376 136 18335146405412734827
20510252 161 17544759388305419992
21041028 32 17759799247982694042
21501502 16 18263356048741166334
21524375 3 18342461421738620831
21639500 275 18335687339258418982
22079108 93 18337677524451347089
22182937 141 18194690499292606280
23557571 272 16055734603342735491
23558518 356 17972039403490178370
23559900 14 18267029530881849060
25 1 18408323319810460462
2748010 2 18115588304697226646
283562 15 17613716346668650434
31174 14 17896883153593257347
4340502 62 18261403217796183483
474 4 18411698776967352528
5104073 3 18260265282441457491
633830 44 18413390929652270727
76465 3 10015599272151710260
77492 1 18130210576395465551
81228 2 17463417466269235002
8272917 22 18122914131655847299
84936 182 18270673277022546392
9981440 41 17839163449317222024

>  <PUBCHEM_SHAPE_MULTIPOLES>  (1) 
343.74
7.72
2.87
1.19
4.02
0.67
0.34
5.99
-0.53
-2.33
-0.66
0.92
0.06
-1.01

>  <PUBCHEM_SHAPE_SELFOVERLAP>  (1) 
704.015

>  <PUBCHEM_SHAPE_VOLUME>  (1) 
204

>  <PUBCHEM_COORDINATE_TYPE>  (1) 
2
5
10

$$$$
