21652
     RDKit          3D

 20 22  0  0  0  0  0  0  0  0999 V2000
    1.7913    3.0148    1.1955 O   0  0  0  0  0  0  0  0  0  0  0  0
    1.8741    3.1543   -1.0717 O   0  0  0  0  0  0  0  0  0  0  0  0
   -0.4202   -1.2160    0.0065 N   0  0  0  0  0  0  0  0  0  0  0  0
   -5.3120   -0.3701    0.0047 N   0  0  0  0  0  0  0  0  0  0  0  0
    1.6462    0.0234   -0.0164 C   0  0  0  0  0  0  0  0  0  0  0  0
    0.9259   -1.1893    0.0033 C   0  0  0  0  0  0  0  0  0  0  0  0
    0.9202    1.2219   -0.0327 C   0  0  0  0  0  0  0  0  0  0  0  0
   -1.0835   -0.0372   -0.0099 C   0  0  0  0  0  0  0  0  0  0  0  0
    3.0514    0.0142   -0.0190 C   0  0  0  0  0  0  0  0  0  0  0  0
    3.7479   -1.1908   -0.0024 C   0  0  0  0  0  0  0  0  0  0  0  0
   -0.4671    1.1974   -0.0295 C   0  0  0  0  0  0  0  0  0  0  0  0
    1.6478   -2.3796    0.0197 C   0  0  0  0  0  0  0  0  0  0  0  0
    3.0448   -2.3891    0.0170 C   0  0  0  0  0  0  0  0  0  0  0  0
   -2.5228   -0.1504   -0.0048 C   0  0  0  0  0  0  0  0  0  0  0  0
    5.2387   -1.1966   -0.0054 C   0  0  0  0  0  0  0  0  0  0  0  0
    1.5632    2.5323   -0.0545 C   0  0  0  0  0  0  0  0  0  0  0  0
   -3.2241   -0.2230   -1.2049 C   0  0  0  0  0  0  0  0  0  0  0  0
   -3.2185   -0.1879    1.2000 C   0  0  0  0  0  0  0  0  0  0  0  0
   -4.6042   -0.3310   -1.1465 C   0  0  0  0  0  0  0  0  0  0  0  0
   -4.5990   -0.2972    1.1508 C   0  0  0  0  0  0  0  0  0  0  0  0
  1 16  1  0
  2 16  2  0
  3  6  2  0
  3  8  1  0
  4 19  2  0
  4 20  1  0
  5  6  1  0
  5  7  2  0
  5  9  1  0
  6 12  1  0
  7 11  1  0
  7 16  1  0
  8 11  2  0
  8 14  1  0
  9 10  2  0
 10 13  1  0
 10 15  1  0
 12 13  2  0
 14 17  2  0
 14 18  1  0
 17 19  1  0
 18 20  2  0
M  END
>  <PUBCHEM_COMPOUND_CID>  (1) 
21652

>  <PUBCHEM_CONFORMER_RMSD>  (1) 
0.6

>  <PUBCHEM_CONFORMER_DIVERSEORDER>  (1) 
1
2
3

>  <PUBCHEM_MMFF94_PARTIAL_CHARGES>  (1) 
27
1 -0.65
10 -0.14
11 -0.15
12 -0.15
13 -0.15
15 0.14
16 0.63
17 -0.15
18 -0.15
19 0.16
2 -0.57
20 0.16
21 0.15
22 0.15
23 0.15
24 0.15
28 0.15
29 0.15
3 -0.62
30 0.15
31 0.15
32 0.5
4 -0.62
6 0.31
7 0.09
8 0.31
9 -0.15

>  <PUBCHEM_EFFECTIVE_ROTOR_COUNT>  (1) 
2

>  <PUBCHEM_PHARMACOPHORE_FEATURES>  (1) 
8
1 1 acceptor
1 2 acceptor
1 3 acceptor
1 4 acceptor
3 1 2 16 anion
6 3 5 6 7 8 11 rings
6 4 14 17 18 19 20 rings
6 5 6 9 10 12 13 rings

>  <PUBCHEM_HEAVY_ATOM_COUNT>  (1) 
20

>  <PUBCHEM_ATOM_DEF_STEREO_COUNT>  (1) 
0

>  <PUBCHEM_ATOM_UDEF_STEREO_COUNT>  (1) 
0

>  <PUBCHEM_BOND_DEF_STEREO_COUNT>  (1) 
0

>  <PUBCHEM_BOND_UDEF_STEREO_COUNT>  (1) 
0

>  <PUBCHEM_ISOTOPIC_ATOM_COUNT>  (1) 
0

>  <PUBCHEM_COMPONENT_COUNT>  (1) 
1

>  <PUBCHEM_CACTVS_TAUTO_COUNT>  (1) 
1

>  <PUBCHEM_CONFORMER_ID>  (1) 
0000549400000001

>  <PUBCHEM_MMFF94_ENERGY>  (1) 
71.2979

>  <PUBCHEM_FEATURE_SELFOVERLAP>  (1) 
40.687

>  <PUBCHEM_SHAPE_FINGERPRINT>  (1) 
10366900 7 17676204659081517491
1100329 8 18339642347372418658
11471102 20 18409166627474231822
11680986 33 18265895937775436370
11796584 16 16588020165318643658
12236239 1 17775283872532493535
12553582 1 18340200800183825206
12616971 3 18060140968695924199
12916754 54 18339637945384082439
13134695 92 18410288095069861716
13140716 1 18267020750823658962
13533116 47 18341335599985273475
13544653 18 18263648376746637286
13862211 1 18410570648553322962
14170010 4 18411695512892551233
14252887 29 18059017177101546550
14955137 171 18201169792619162550
15527383 91 18336554832964371257
15848700 24 18340201908559356382
16945 1 18410293622697961662
17357779 13 18188759566179311317
1813 80 18129112142625022606
18222031 100 18342731884699032198
18785283 64 18115876372021371212
200 152 18271520919072865923
20612939 158 18410011069937836493
20645477 70 18261948648055654087
20671657 1 18199749309263040337
21029758 11 18411978027462259576
21029758 27 18335145254509277148
21033648 29 17821997727771331845
21041028 32 18341899549827798353
21065201 7 16660641882452820355
21267235 1 18339932519568258878
21641784 216 17970086469323822428
221357 26 18262506010605082373
221490 88 18263648527281775035
22182313 1 18189872306491462268
2255824 54 18341054111305892404
23175994 123 18261680272465673087
2334 1 17906171011807030110
23402539 116 18270394976037119334
23558518 356 17686046593830960642
23559900 14 18114179774219297297
2748010 2 18195235616763009908
283562 15 18192997007284761002
314194 84 18411138013226709450
350125 39 17976830005648389714
458136 41 18119543273296320341
474 4 18198616833830047521
5104073 3 18123463883243619954
5895379 119 15338299898985538073
602551 16 15195273279224538247
6049 1 17967530177708572045
7364860 26 18341328989434616264
7471813 234 17988913470992088657
7495541 125 17968387826294511979
7615 1 17917434241882577297
77492 1 17775569762724846583
81228 2 17690006634975919184
84936 182 17843681307735283841
9971528 1 18273209798834149944
9981440 41 17335882960621137552

>  <PUBCHEM_SHAPE_MULTIPOLES>  (1) 
389.89
9.41
2.7
0.99
6.25
2.21
-0.02
-4.19
0.01
-3.56
0
0.96
0.2
-0.02

>  <PUBCHEM_SHAPE_SELFOVERLAP>  (1) 
870.646

>  <PUBCHEM_SHAPE_VOLUME>  (1) 
206.8

>  <PUBCHEM_COORDINATE_TYPE>  (1) 
2
5
10

$$$$
