2165
     RDKit          3D

 25 27  0  0  0  0  0  0  0  0999 V2000
   -7.0142    0.1866    1.3564 Cl  0  0  0  0  0  0  0  0  0  0  0  0
    4.7936   -2.2774    0.1510 O   0  0  0  0  0  0  0  0  0  0  0  0
    3.3773    1.5340    0.4275 N   0  0  0  0  0  0  0  0  0  0  0  0
   -0.6856   -1.4968   -0.4065 N   0  0  0  0  0  0  0  0  0  0  0  0
   -2.9557    1.9606   -1.1192 N   0  0  0  0  0  0  0  0  0  0  0  0
    3.7064    0.2260    0.9948 C   0  0  0  0  0  0  0  0  0  0  0  0
    2.8720   -0.8691    0.4169 C   0  0  0  0  0  0  0  0  0  0  0  0
    3.5938    1.5324   -1.0185 C   0  0  0  0  0  0  0  0  0  0  0  0
    4.1753    2.5814    1.0634 C   0  0  0  0  0  0  0  0  0  0  0  0
    1.4980   -0.6768    0.2736 C   0  0  0  0  0  0  0  0  0  0  0  0
    0.6994   -1.6886   -0.2661 C   0  0  0  0  0  0  0  0  0  0  0  0
    3.4526   -2.0740    0.0211 C   0  0  0  0  0  0  0  0  0  0  0  0
    3.2569    2.8837   -1.6256 C   0  0  0  0  0  0  0  0  0  0  0  0
    3.9165    2.6368    2.5595 C   0  0  0  0  0  0  0  0  0  0  0  0
    1.2850   -2.8943   -0.6614 C   0  0  0  0  0  0  0  0  0  0  0  0
   -1.4728   -0.3426   -0.6316 C   0  0  0  0  0  0  0  0  0  0  0  0
    2.6591   -3.0866   -0.5181 C   0  0  0  0  0  0  0  0  0  0  0  0
   -2.7849   -0.2394   -0.1505 C   0  0  0  0  0  0  0  0  0  0  0  0
   -3.5000    0.9461   -0.4210 C   0  0  0  0  0  0  0  0  0  0  0  0
   -0.9092    0.7011   -1.3515 C   0  0  0  0  0  0  0  0  0  0  0  0
   -3.3843   -1.2783    0.5816 C   0  0  0  0  0  0  0  0  0  0  0  0
   -4.8035    1.0481    0.0572 C   0  0  0  0  0  0  0  0  0  0  0  0
   -1.6866    1.8211   -1.5659 C   0  0  0  0  0  0  0  0  0  0  0  0
   -4.6895   -1.1495    1.0478 C   0  0  0  0  0  0  0  0  0  0  0  0
   -5.3996    0.0154    0.7851 C   0  0  0  0  0  0  0  0  0  0  0  0
  1 25  1  0
  2 12  1  0
  3  6  1  0
  3  8  1  0
  3  9  1  0
  4 11  1  0
  4 16  1  0
  5 19  2  0
  5 23  1  0
  6  7  1  0
  7 10  2  0
  7 12  1  0
  8 13  1  0
  9 14  1  0
 10 11  1  0
 11 15  2  0
 12 17  2  0
 15 17  1  0
 16 18  2  0
 16 20  1  0
 18 19  1  0
 18 21  1  0
 19 22  1  0
 20 23  2  0
 21 24  2  0
 22 25  2  0
 24 25  1  0
M  END
>  <PUBCHEM_COMPOUND_CID>  (1) 
2165

>  <PUBCHEM_CONFORMER_RMSD>  (1) 
0.8

>  <PUBCHEM_CONFORMER_DIVERSEORDER>  (1) 
1
105
80
61
119
54
111
67
110
114
78
55
134
133
107
8
46
101
18
50
102
24
122
92
113
64
100
98
79
131
82
118
68
65
87
103
63
35
71
116
89
84
13
57
93
30
129
17
95
48
121
60
77
69
120
99
40
88
29
112
73
20
83
2
11
85
22
104
59
123
109
94
42
125
128
96
117
47
49
62
81
127
126
108
19
72
15
56
106
58
16
130
66
9
124
25
115
53
132
31
51
34
36
45
74
97
4
5
41
39
70
86
6
32
28
75
7
14
3
23
10
12
91
90
37
26
27
52
43
76
21
44
33
38

>  <PUBCHEM_MMFF94_PARTIAL_CHARGES>  (1) 
32
1 -0.18
10 -0.15
11 0.1
12 0.08
15 -0.15
16 0.1
17 -0.15
19 0.31
2 -0.53
20 -0.15
21 -0.15
22 -0.15
23 0.16
24 -0.15
25 0.18
3 -0.81
32 0.15
39 0.4
4 -0.6
40 0.15
41 0.15
42 0.15
43 0.15
44 0.15
45 0.45
46 0.15
47 0.15
5 -0.62
6 0.41
7 -0.14
8 0.27
9 0.27

>  <PUBCHEM_EFFECTIVE_ROTOR_COUNT>  (1) 
6

>  <PUBCHEM_PHARMACOPHORE_FEATURES>  (1) 
8
1 2 donor
1 3 cation
1 4 cation
1 4 donor
1 5 acceptor
6 18 19 21 22 24 25 rings
6 5 16 18 19 20 23 rings
6 7 10 11 12 15 17 rings

>  <PUBCHEM_HEAVY_ATOM_COUNT>  (1) 
25

>  <PUBCHEM_ATOM_DEF_STEREO_COUNT>  (1) 
0

>  <PUBCHEM_ATOM_UDEF_STEREO_COUNT>  (1) 
0

>  <PUBCHEM_BOND_DEF_STEREO_COUNT>  (1) 
0

>  <PUBCHEM_BOND_UDEF_STEREO_COUNT>  (1) 
0

>  <PUBCHEM_ISOTOPIC_ATOM_COUNT>  (1) 
0

>  <PUBCHEM_COMPONENT_COUNT>  (1) 
1

>  <PUBCHEM_CACTVS_TAUTO_COUNT>  (1) 
13

>  <PUBCHEM_CONFORMER_ID>  (1) 
0000087500000001

>  <PUBCHEM_MMFF94_ENERGY>  (1) 
84.7144

>  <PUBCHEM_FEATURE_SELFOVERLAP>  (1) 
40.626

>  <PUBCHEM_SHAPE_FINGERPRINT>  (1) 
10165383 225 18339932622863615452
10319926 262 17750498612145744400
11045977 3 18262236612759727519
12035758 1 18267844152812114866
12236239 1 15625646216407665079
12422481 6 18116131398879688552
12616971 3 17989200417873036199
12925494 130 18267298725861803617
13533116 47 18341900662703745825
13583140 156 17169524390422684950
13955234 65 18342457006697448362
13965767 371 18192968600381679904
14068700 675 12173974656994437348
14251764 75 18127971030182057048
14341114 176 18336831896445276850
14341114 328 17458904958631486993
14790565 3 17758131662352863629
14955137 171 18200596874532229926
151778 21 18341327885738803992
15183329 4 8070034359419764187
15806764 133 18196376909516377558
15961568 22 17676777555884051380
16126227 98 17977671141045796140
1768 85 18271801358503717649
17844677 252 18337680702706027593
1813 80 16153432766128628749
18785283 64 18408603660995153542
1979834 28 18335985345443296189
21033648 29 17913467083005858547
21049683 271 18265626377571541118
21065198 57 18264490590148523807
21365058 113 17629223536565102278
21792934 111 18187650164170455273
21792961 116 18122628254655085662
21859007 373 16950832619534248501
22122407 14 17632308848028895425
23559900 14 18115589240693947287
350125 39 18409172099769112174
49207404 50 18335419079869665134
5104073 3 18261954042587650769
5252454 2 18128527348805679992
6287921 2 18409450288826796918
6823239 73 18113901507688710572
7495541 125 18187650137704488158
7808743 9 17905326578857260460
960060 61 11599730605387636952

>  <PUBCHEM_SHAPE_MULTIPOLES>  (1) 
495.55
13.01
3.5
1.58
14.45
0.41
0.38
-3.43
6.03
-5.7
-0.35
-0.77
-1.41
1.6

>  <PUBCHEM_SHAPE_SELFOVERLAP>  (1) 
1057.505

>  <PUBCHEM_SHAPE_VOLUME>  (1) 
276.4

>  <PUBCHEM_COORDINATE_TYPE>  (1) 
2
5
10

$$$$
