21670
     RDKit          3D

 19 21  0  0  0  0  0  0  0  0999 V2000
   -6.8456    0.8326    0.0104 Cl  0  0  0  0  0  0  0  0  0  0  0  0
    0.8835   -1.1048    0.7633 O   0  0  0  0  0  0  0  0  0  0  0  0
    3.4138   -0.3951   -0.2092 N   0  0  0  0  0  0  0  0  0  0  0  0
   -0.4429   -0.9052    1.1261 N   0  0  0  0  0  0  0  0  0  0  0  0
    3.1835    1.0394    0.0129 C   0  0  0  0  0  0  0  0  0  0  0  0
    4.7571   -0.6396   -0.7528 C   0  0  0  0  0  0  0  0  0  0  0  0
    4.2137    1.6201    0.9829 C   0  0  0  0  0  0  0  0  0  0  0  0
    5.8387   -0.1138    0.1921 C   0  0  0  0  0  0  0  0  0  0  0  0
    5.6364    1.3660    0.4982 C   0  0  0  0  0  0  0  0  0  0  0  0
    2.3932   -0.9451   -1.1010 C   0  0  0  0  0  0  0  0  0  0  0  0
    1.0077   -0.7858   -0.5336 C   0  0  0  0  0  0  0  0  0  0  0  0
   -0.1560   -0.3816   -1.0718 C   0  0  0  0  0  0  0  0  0  0  0  0
   -1.0441   -0.4732    0.0139 C   0  0  0  0  0  0  0  0  0  0  0  0
   -2.4476   -0.1583    0.0120 C   0  0  0  0  0  0  0  0  0  0  0  0
   -2.9389    0.8218   -0.8484 C   0  0  0  0  0  0  0  0  0  0  0  0
   -3.3125   -0.8330    0.8719 C   0  0  0  0  0  0  0  0  0  0  0  0
   -4.2998    1.1282   -0.8489 C   0  0  0  0  0  0  0  0  0  0  0  0
   -4.6732   -0.5266    0.8712 C   0  0  0  0  0  0  0  0  0  0  0  0
   -5.1670    0.4540    0.0109 C   0  0  0  0  0  0  0  0  0  0  0  0
  1 19  1  0
  2  4  1  0
  2 11  1  0
  3  5  1  0
  3  6  1  0
  3 10  1  0
  4 13  2  0
  5  7  1  0
  6  8  1  0
  7  9  1  0
  8  9  1  0
 10 11  1  0
 11 12  2  0
 12 13  1  0
 13 14  1  0
 14 15  2  0
 14 16  1  0
 15 17  1  0
 16 18  2  0
 17 19  2  0
 18 19  1  0
M  END
>  <PUBCHEM_COMPOUND_CID>  (1) 
21670

>  <PUBCHEM_CONFORMER_RMSD>  (1) 
0.6

>  <PUBCHEM_CONFORMER_DIVERSEORDER>  (1) 
1
35
11
24
31
25
19
23
37
34
27
38
2
28
16
26
17
12
22
36
15
18
20
29
32
10
21
33
3
9
30
6
4
5
7
8
13
14

>  <PUBCHEM_MMFF94_PARTIAL_CHARGES>  (1) 
21
1 -0.18
10 0.45
11 -0.04
12 -0.15
13 0.23
14 0.05
15 -0.15
16 -0.15
17 -0.15
18 -0.15
19 0.18
2 -0.02
3 -0.81
32 0.15
33 0.15
34 0.15
35 0.15
36 0.15
4 -0.41
5 0.27
6 0.27

>  <PUBCHEM_EFFECTIVE_ROTOR_COUNT>  (1) 
4.2

>  <PUBCHEM_PHARMACOPHORE_FEATURES>  (1) 
5
1 3 cation
1 4 acceptor
5 2 4 11 12 13 rings
6 14 15 16 17 18 19 rings
6 3 5 6 7 8 9 rings

>  <PUBCHEM_HEAVY_ATOM_COUNT>  (1) 
19

>  <PUBCHEM_ATOM_DEF_STEREO_COUNT>  (1) 
0

>  <PUBCHEM_ATOM_UDEF_STEREO_COUNT>  (1) 
0

>  <PUBCHEM_BOND_DEF_STEREO_COUNT>  (1) 
0

>  <PUBCHEM_BOND_UDEF_STEREO_COUNT>  (1) 
0

>  <PUBCHEM_ISOTOPIC_ATOM_COUNT>  (1) 
0

>  <PUBCHEM_COMPONENT_COUNT>  (1) 
1

>  <PUBCHEM_CACTVS_TAUTO_COUNT>  (1) 
1

>  <PUBCHEM_CONFORMER_ID>  (1) 
000054A600000001

>  <PUBCHEM_MMFF94_ENERGY>  (1) 
28.1773

>  <PUBCHEM_FEATURE_SELFOVERLAP>  (1) 
25.373

>  <PUBCHEM_SHAPE_FINGERPRINT>  (1) 
106641 1 15936698146152179484
11045977 3 18334579074355308008
11128504 68 15554446323074877496
11287383 113 18202003247954712279
11646440 116 18259994760191085129
12107183 9 13698919158557415180
12236239 1 16128660725587970439
12403259 415 18260545598014400628
12596602 18 15791738537335897676
12714333 28 17561362880930180457
12730499 353 18413395323741800918
13167372 99 17846224297614868744
13288520 33 11455886962935909211
13533116 47 18114177467679824938
13675066 3 18259988188637421126
13685833 64 8646768906776139957
13760787 5 16917075438137071135
14251764 18 15792019999321769734
14528608 73 15913323611224354456
15048467 5 17632578236635376481
15183329 4 15913332402880335496
16079462 125 18334850598425810181
17349148 13 15936414459151279747
19489759 90 17676205775709476905
20157964 124 17989208140245118982
20281389 69 18186800257754284253
20374829 77 11600008743148345540
20645477 56 18410292518854612479
21033648 29 18410844486671850376
21150785 3 14476955705626963809
21267235 1 12973877092947069928
220451 1 13623537861000807610
221357 26 17989487394550171072
22224240 67 18408606959836160907
23402539 116 17894912953611040823
23557571 272 17968664817620505349
23559900 14 18041008284539788494
2838139 119 18272359880520157212
2916195 48 18408881845499446665
29717793 49 15769784546310202188
300161 21 16988839488698707438
3004659 81 12967128324423731832
34797466 226 17989211438605896693
351380 180 18409166627711758020
351380 3 13839980023795738328
3545911 37 18114184107799055559
4072396 5 16298384652129845187
4325135 7 17988358269528610023
465052 167 12973888100299403216
5104073 3 17532373063675640745
5283156 175 15195290793879488382
542803 24 16845576413254292878
543368 44 16630521877668948705
59682541 52 16773252742673851092

>  <PUBCHEM_SHAPE_MULTIPOLES>  (1) 
377.05
15.74
1.34
1.08
2.09
0.35
-0.01
5.8
-0.91
-1.03
-0.08
0.27
-0.1
1.33

>  <PUBCHEM_SHAPE_SELFOVERLAP>  (1) 
796.651

>  <PUBCHEM_SHAPE_VOLUME>  (1) 
213

>  <PUBCHEM_COORDINATE_TYPE>  (1) 
2
5
10

$$$$
