21688
     RDKit          3D

 21 22  0  0  0  0  0  0  0  0999 V2000
   -4.5635    0.2582    1.4670 Cl  0  0  0  0  0  0  0  0  0  0  0  0
   -4.0845    2.6896   -0.0045 Cl  0  0  0  0  0  0  0  0  0  0  0  0
   -4.5643    0.2444   -1.4597 Cl  0  0  0  0  0  0  0  0  0  0  0  0
   -0.9293   -3.3150   -1.4632 Cl  0  0  0  0  0  0  0  0  0  0  0  0
    1.4927   -2.7859    0.0066 Cl  0  0  0  0  0  0  0  0  0  0  0  0
   -0.9430   -3.3068    1.4634 Cl  0  0  0  0  0  0  0  0  0  0  0  0
    1.1234    2.4141   -0.0036 S   0  0  0  0  0  0  0  0  0  0  0  0
   -2.0039   -0.7690   -0.0022 N   0  0  0  0  0  0  0  0  0  0  0  0
    0.3083   -0.1275   -0.0008 N   0  0  0  0  0  0  0  0  0  0  0  0
   -1.4032    1.5542   -0.0019 N   0  0  0  0  0  0  0  0  0  0  0  0
   -2.2874    0.5436   -0.0023 C   0  0  0  0  0  0  0  0  0  0  0  0
   -0.6865   -1.0292   -0.0012 C   0  0  0  0  0  0  0  0  0  0  0  0
   -0.1289    1.1394   -0.0009 C   0  0  0  0  0  0  0  0  0  0  0  0
    2.6144    1.4373   -0.0015 C   0  0  0  0  0  0  0  0  0  0  0  0
   -3.7310    0.9160   -0.0002 C   0  0  0  0  0  0  0  0  0  0  0  0
   -0.2872   -2.4657    0.0012 C   0  0  0  0  0  0  0  0  0  0  0  0
    3.1980    1.0524   -1.2086 C   0  0  0  0  0  0  0  0  0  0  0  0
    3.1977    1.0581    1.2074 C   0  0  0  0  0  0  0  0  0  0  0  0
    4.3650    0.2883   -1.2066 C   0  0  0  0  0  0  0  0  0  0  0  0
    4.3647    0.2942    1.2094 C   0  0  0  0  0  0  0  0  0  0  0  0
    4.9484   -0.0908    0.0023 C   0  0  0  0  0  0  0  0  0  0  0  0
  1 15  1  0
  2 15  1  0
  3 15  1  0
  4 16  1  0
  5 16  1  0
  6 16  1  0
  7 13  1  0
  7 14  1  0
  8 11  2  0
  8 12  1  0
  9 12  2  0
  9 13  1  0
 10 11  1  0
 10 13  2  0
 11 15  1  0
 12 16  1  0
 14 17  2  0
 14 18  1  0
 17 19  1  0
 18 20  2  0
 19 21  2  0
 20 21  1  0
M  END
>  <PUBCHEM_COMPOUND_CID>  (1) 
21688

>  <PUBCHEM_CONFORMER_RMSD>  (1) 
0.6

>  <PUBCHEM_CONFORMER_DIVERSEORDER>  (1) 
1
5
31
28
29
34
36
23
7
15
4
26
30
17
6
16
40
22
37
33
24
38
39
25
35
19
32
11
27
2
3
20
10
9
8
13
18
14
21
12

>  <PUBCHEM_MMFF94_PARTIAL_CHARGES>  (1) 
26
1 -0.29
10 -0.62
11 0.48
12 0.48
13 0.72
14 0.1
15 1.01
16 1.01
17 -0.15
18 -0.15
19 -0.15
2 -0.29
20 -0.15
21 -0.15
22 0.15
23 0.15
24 0.15
25 0.15
26 0.15
3 -0.29
4 -0.29
5 -0.29
6 -0.29
7 -0.2
8 -0.62
9 -0.62

>  <PUBCHEM_EFFECTIVE_ROTOR_COUNT>  (1) 
4

>  <PUBCHEM_PHARMACOPHORE_FEATURES>  (1) 
5
3 8 10 11 cation
3 8 9 12 cation
3 9 10 13 cation
6 14 17 18 19 20 21 rings
6 8 9 10 11 12 13 rings

>  <PUBCHEM_HEAVY_ATOM_COUNT>  (1) 
21

>  <PUBCHEM_ATOM_DEF_STEREO_COUNT>  (1) 
0

>  <PUBCHEM_ATOM_UDEF_STEREO_COUNT>  (1) 
0

>  <PUBCHEM_BOND_DEF_STEREO_COUNT>  (1) 
0

>  <PUBCHEM_BOND_UDEF_STEREO_COUNT>  (1) 
0

>  <PUBCHEM_ISOTOPIC_ATOM_COUNT>  (1) 
0

>  <PUBCHEM_COMPONENT_COUNT>  (1) 
1

>  <PUBCHEM_CACTVS_TAUTO_COUNT>  (1) 
1

>  <PUBCHEM_CONFORMER_ID>  (1) 
000054B800000001

>  <PUBCHEM_MMFF94_ENERGY>  (1) 
41.6707

>  <PUBCHEM_FEATURE_SELFOVERLAP>  (1) 
28.155

>  <PUBCHEM_SHAPE_FINGERPRINT>  (1) 
10366900 7 17203614817736272312
11578080 2 17200231748636270432
12035759 4 18127386025681996367
12236239 1 17676491636180612804
12346177 29 18200307861349305430
12553582 1 17113541974352612914
12592029 89 18335992999264461011
12633257 1 18055040351350541736
12715332 25 18342461477520409133
12788726 201 17905888428618214734
13140716 1 18194687192062209080
13544592 145 18130795547031192220
13583140 156 16805320024376228921
14115302 16 18335425690420777076
14178342 30 17832411369838913032
14251751 93 18337105765362044939
14790565 3 18337402573188139508
15042514 8 18265618878189097443
16752209 62 18193833962786950894
17349148 13 18411136952527750685
18186145 218 18060140942108852233
19591789 44 18267027335240612523
20028762 73 18129102393566777487
20600515 1 18342459279072913564
20645476 183 17749397017537827166
20681677 155 18334861649661551104
20739085 24 18049746038968279065
20905425 154 17981890744422994116
21478907 32 17908699880151579743
21524375 3 18408879638060232463
22182313 1 18269295541597779799
22907989 373 17900832857147775559
22956985 138 17753048298059764099
23184049 29 17978787140835710664
23402539 116 18201712933940964652
23558518 356 17828482806043977474
23559900 14 18043818576088565706
25147074 1 18056747747037733965
3084891 72 18341614772094908096
3298306 158 18335980878829847551
352729 6 18266468778906768773
38695281 34 18201438022159156935
465052 167 17677064524128980537
532947 4 18200317589366231286
5385378 56 18124885556010211993
59755656 215 18408885127555782117
6138700 20 18267869376627620606
633830 44 18273494567882673221
7164475 11 17909541006145362750
7226269 152 18131631166967592824
7364860 26 18053663573101483895
81228 2 17760917842250035753
9709674 26 18056192712065402484
9862522 239 18336254691759027413

>  <PUBCHEM_SHAPE_MULTIPOLES>  (1) 
432.3
9.37
3.65
1.34
1.23
3.27
0
-5.17
-0.01
-1.43
0
-0.17
0.49
0

>  <PUBCHEM_SHAPE_SELFOVERLAP>  (1) 
840.189

>  <PUBCHEM_SHAPE_VOLUME>  (1) 
262

>  <PUBCHEM_COORDINATE_TYPE>  (1) 
2
5
10

$$$$
