21699
     RDKit          3D

 13 13  0  0  0  0  0  0  0  0999 V2000
    2.0882   -0.4768   -0.0020 O   0  0  0  0  0  0  0  0  0  0  0  0
    0.8774    1.4633   -0.0026 O   0  0  0  0  0  0  0  0  0  0  0  0
   -0.1587   -0.6408   -0.0008 N   0  0  0  0  0  0  0  0  0  0  0  0
    4.4842   -0.6593   -0.0038 C   0  0  0  0  0  0  0  0  0  0  0  0
    3.2970    0.2916   -0.0036 C   0  0  0  0  0  0  0  0  0  0  0  0
    5.8059    0.0873    0.0096 C   0  0  0  0  0  0  0  0  0  0  0  0
   -1.5224   -0.3455   -0.0003 C   0  0  0  0  0  0  0  0  0  0  0  0
   -2.4596   -1.3788    0.0004 C   0  0  0  0  0  0  0  0  0  0  0  0
   -1.9487    0.9827    0.0002 C   0  0  0  0  0  0  0  0  0  0  0  0
    0.9208    0.2391   -0.0016 C   0  0  0  0  0  0  0  0  0  0  0  0
   -3.8229   -1.0840    0.0014 C   0  0  0  0  0  0  0  0  0  0  0  0
   -3.3121    1.2774    0.0013 C   0  0  0  0  0  0  0  0  0  0  0  0
   -4.2491    0.2441    0.0019 C   0  0  0  0  0  0  0  0  0  0  0  0
  1  5  1  0
  1 10  1  0
  2 10  2  0
  3  7  1  0
  3 10  1  0
  4  5  1  0
  4  6  1  0
  7  8  2  0
  7  9  1  0
  8 11  1  0
  9 12  2  0
 11 13  2  0
 12 13  1  0
M  END
>  <PUBCHEM_COMPOUND_CID>  (1) 
21699

>  <PUBCHEM_CONFORMER_RMSD>  (1) 
0.6

>  <PUBCHEM_CONFORMER_DIVERSEORDER>  (1) 
1
29
35
22
10
31
4
28
17
11
14
24
33
15
21
26
20
34
8
5
13
9
18
32
19
23
36
2
30
16
6
12
3
27
7
25

>  <PUBCHEM_MMFF94_PARTIAL_CHARGES>  (1) 
17
1 -0.43
10 0.78
11 -0.15
12 -0.15
13 -0.15
2 -0.57
21 0.37
22 0.15
23 0.15
24 0.15
25 0.15
26 0.15
3 -0.55
5 0.28
7 0.12
8 -0.15
9 -0.15

>  <PUBCHEM_EFFECTIVE_ROTOR_COUNT>  (1) 
5

>  <PUBCHEM_PHARMACOPHORE_FEATURES>  (1) 
4
1 2 acceptor
1 3 donor
1 6 hydrophobe
6 7 8 9 11 12 13 rings

>  <PUBCHEM_HEAVY_ATOM_COUNT>  (1) 
13

>  <PUBCHEM_ATOM_DEF_STEREO_COUNT>  (1) 
0

>  <PUBCHEM_ATOM_UDEF_STEREO_COUNT>  (1) 
0

>  <PUBCHEM_BOND_DEF_STEREO_COUNT>  (1) 
0

>  <PUBCHEM_BOND_UDEF_STEREO_COUNT>  (1) 
0

>  <PUBCHEM_ISOTOPIC_ATOM_COUNT>  (1) 
0

>  <PUBCHEM_COMPONENT_COUNT>  (1) 
1

>  <PUBCHEM_CACTVS_TAUTO_COUNT>  (1) 
2

>  <PUBCHEM_CONFORMER_ID>  (1) 
000054C300000001

>  <PUBCHEM_MMFF94_ENERGY>  (1) 
26.0068

>  <PUBCHEM_FEATURE_SELFOVERLAP>  (1) 
20.297

>  <PUBCHEM_SHAPE_FINGERPRINT>  (1) 
10465860 250 18060416906774118296
11401426 45 18410571786460530950
124424 183 18272931630781855489
13288520 33 18412263952051495191
14123238 8 18187365432980377518
17804303 29 18412546534966296281
17834072 33 18336830887650110972
17834076 25 14979956969387058750
18186145 218 16225766354590956156
18522853 276 18341895190361750072
1986462 14 18409731759307917431
200 152 17632572756214791895
20279233 1 17918281943197509974
20645477 56 18339080393925120025
20645477 70 17274547508220617078
21267235 1 18409174337346859427
22485316 2 18410572873277381778
2297311 6 18272099287774179316
2306618 200 18130795542667686153
23402539 116 18201994426508507501
23559900 14 18343577469460199536
42 15 18409730660139193814
4214541 1 18410856546918651844
42788 4 18410856564578315586
5104073 3 18411420656407671040
573450 72 18261945267742462122
77779 3 18410294713909675246

>  <PUBCHEM_SHAPE_MULTIPOLES>  (1) 
250.81
10.85
1.29
0.6
13.03
0.08
0
-0.74
0.02
-1.04
0
-0.02
0
0

>  <PUBCHEM_SHAPE_SELFOVERLAP>  (1) 
505.29

>  <PUBCHEM_SHAPE_VOLUME>  (1) 
146.4

>  <PUBCHEM_COORDINATE_TYPE>  (1) 
2
5
10

$$$$
