21698
     RDKit          3D

 27 29  0  0  1  0  0  0  0  0999 V2000
   -0.0140    1.1641    1.6866 S   0  0  0  0  0  0  0  0  0  0  0  0
   -1.8246   -0.7399    0.7192 N   0  0  0  0  0  0  0  0  0  0  0  0
   -4.3623    1.7596   -0.3946 N   0  0  0  0  0  0  0  0  0  0  0  0
    0.2137   -1.4558    0.8417 N   0  0  0  0  0  0  0  0  0  0  0  0
   -2.9853    0.1302    0.8056 C   0  0  0  0  0  0  0  0  0  0  0  0
   -3.1854    0.9064   -0.4904 C   0  0  0  0  0  0  0  0  0  0  0  0
   -1.8495   -2.0456    0.2741 C   0  0  0  0  0  0  0  0  0  0  0  0
   -0.5765   -0.3991    1.0569 C   0  0  0  0  0  0  0  0  0  0  0  0
   -0.5336   -2.5078    0.3532 C   0  0  0  0  0  0  0  0  0  0  0  0
   -4.5603    2.5085   -1.6374 C   0  0  0  0  0  0  0  0  0  0  0  0
   -4.2425    2.6802    0.7379 C   0  0  0  0  0  0  0  0  0  0  0  0
    5.6226    1.0597   -0.5451 C   0  0  0  0  0  0  0  0  0  0  0  0
    4.2362    1.0856    0.0038 C   0  0  0  0  0  0  0  0  0  0  0  0
   -2.8947   -2.8409   -0.1809 C   0  0  0  0  0  0  0  0  0  0  0  0
    5.9656   -0.2193   -1.3573 C   0  0  0  0  0  0  0  0  0  0  0  0
   -0.1711   -3.7975   -0.0172 C   0  0  0  0  0  0  0  0  0  0  0  0
    1.6506    1.1335    1.0274 C   0  0  0  0  0  0  0  0  0  0  0  0
    5.9063    2.2909   -1.4317 C   0  0  0  0  0  0  0  0  0  0  0  0
   -4.6874    1.5729   -2.8277 C   0  0  0  0  0  0  0  0  0  0  0  0
   -5.4930    3.5298    0.8895 C   0  0  0  0  0  0  0  0  0  0  0  0
    4.0329    1.1648    1.3814 C   0  0  0  0  0  0  0  0  0  0  0  0
    3.1427    1.0303   -0.8605 C   0  0  0  0  0  0  0  0  0  0  0  0
   -2.5445   -4.1452   -0.5583 C   0  0  0  0  0  0  0  0  0  0  0  0
   -1.2151   -4.6120   -0.4785 C   0  0  0  0  0  0  0  0  0  0  0  0
    2.7362    1.1888    1.8948 C   0  0  0  0  0  0  0  0  0  0  0  0
    1.8460    1.0544   -0.3471 C   0  0  0  0  0  0  0  0  0  0  0  0
    5.7872   -1.4965   -0.5454 C   0  0  0  0  0  0  0  0  0  0  0  0
  1  8  1  0
  1 17  1  0
  2  5  1  0
  2  7  1  0
  2  8  2  0
  3  6  1  0
  3 10  1  0
  3 11  1  0
  4  8  1  0
  4  9  1  0
  5  6  1  0
  7  9  2  0
  7 14  1  0
  9 16  1  0
 10 19  1  0
 11 20  1  0
 12 13  1  0
 12 15  1  0
 12 18  1  0
 13 21  2  0
 13 22  1  0
 14 23  2  0
 15 27  1  0
 16 24  2  0
 17 25  2  0
 17 26  1  0
 21 25  1  0
 22 26  2  0
 23 24  1  0
M  CHG  1   2   1
M  END
>  <PUBCHEM_COMPOUND_CID>  (1) 
21698

>  <PUBCHEM_CONFORMER_RMSD>  (1) 
1

>  <PUBCHEM_CONFORMER_DIVERSEORDER>  (1) 
3
101
36
97
110
12
108
85
106
46
112
26
51
1
62
57
76
30
72
29
24
107
33
47
41
67
98
75
21
79
84
74
109
68
94
63
8
70
31
52
104
55
18
27
113
58
78
4
40
73
44
32
7
56
82
77
105
100
19
5
65
95
60
99
49
93
61
9
102
71
54
35
25
28
111
45
20
14
80
22
10
89
16
69
92
59
17
48
43
13
90
23
6
2
34
81
87
50
66
42
86
91
15
39
96
38
11
103
88
64
83
53
37

>  <PUBCHEM_MMFF94_PARTIAL_CHARGES>  (1) 
31
1 -0.19
10 0.27
11 0.27
12 0.14
13 -0.14
14 -0.11
16 -0.11
17 0.1
2 -0.76
21 -0.15
22 -0.15
23 -0.15
24 -0.15
25 -0.15
26 -0.15
3 -0.81
32 0.45
38 0.15
4 -0.7
41 0.15
5 0.51
51 0.15
52 0.15
53 0.15
54 0.15
55 0.15
56 0.15
6 0.27
7 0.31
8 0.89
9 0.31

>  <PUBCHEM_EFFECTIVE_ROTOR_COUNT>  (1) 
9

>  <PUBCHEM_PHARMACOPHORE_FEATURES>  (1) 
8
1 18 hydrophobe
1 27 hydrophobe
1 3 cation
1 4 donor
3 2 4 8 cation
5 2 4 7 8 9 rings
6 13 17 21 22 25 26 rings
6 7 9 14 16 23 24 rings

>  <PUBCHEM_HEAVY_ATOM_COUNT>  (1) 
27

>  <PUBCHEM_ATOM_DEF_STEREO_COUNT>  (1) 
0

>  <PUBCHEM_ATOM_UDEF_STEREO_COUNT>  (1) 
1

>  <PUBCHEM_BOND_DEF_STEREO_COUNT>  (1) 
0

>  <PUBCHEM_BOND_UDEF_STEREO_COUNT>  (1) 
0

>  <PUBCHEM_ISOTOPIC_ATOM_COUNT>  (1) 
0

>  <PUBCHEM_COMPONENT_COUNT>  (1) 
1

>  <PUBCHEM_CACTVS_TAUTO_COUNT>  (1) 
2

>  <PUBCHEM_CONFORMER_ID>  (1) 
000054C200000003

>  <PUBCHEM_MMFF94_ENERGY>  (1) 
51.2934

>  <PUBCHEM_FEATURE_SELFOVERLAP>  (1) 
40.704

>  <PUBCHEM_SHAPE_FINGERPRINT>  (1) 
10165383 225 18341345435391874921
105312 117 18410012134862885421
10577160 183 18041543781700161218
11488393 25 17611742310467754915
11582403 64 16050908816880527409
11621639 336 17338453180742436937
11796584 16 18342464734113207606
11828422 8 16521013573659871415
11991303 11 18259982682779803235
12107183 9 18335135337889019122
12293681 160 17774444867381968601
12643181 29 18340491080750834550
12788726 201 17974002044493296187
12954195 1 18341891939683430135
13257819 37 18335408089713201223
13690498 29 18051984902672511638
13944108 23 17616814331927500849
14117953 113 18051694344246944598
14294032 229 18335701668166045493
14713325 29 18260839240955383243
14790565 3 18196663886399110680
14910302 57 18127689550746328658
14930077 153 17752204143959634261
15163728 17 18336267842985849917
15183329 4 18335423413898231948
15230672 131 18337400344880548966
15439362 3 18122908629328110985
16988056 13 16966583990400030229
17349148 13 14548746140035913084
19958102 18 18339635736937637519
21033650 10 18189616227824613168
21065201 7 18198620132813168162
21307412 95 17986694614131263942
22122407 14 15936402364744745893
22393880 68 18341896346483425714
22907989 373 18122054575386970959
23559900 14 17841153569589781274
244849 19 17559660923120146560
312425 83 18188780577713263076
32027 91 18201443541788328266
4015057 19 16988556961381527248
44062 13 18341337794260127686
508706 21 18340772662300082558
5283173 99 18341334508731641272
59755656 520 18342462521820123273
7399639 24 17122532642209946512

>  <PUBCHEM_SHAPE_MULTIPOLES>  (1) 
544.55
13.48
5.25
1.79
12.52
6.3
0.57
-12.03
6.41
-7.51
0.7
-0.57
-1.38
0.29

>  <PUBCHEM_SHAPE_SELFOVERLAP>  (1) 
1127.424

>  <PUBCHEM_SHAPE_VOLUME>  (1) 
313.8

>  <PUBCHEM_COORDINATE_TYPE>  (1) 
2
5
10

$$$$
