21703
     RDKit          3D

 12 12  0  0  0  0  0  0  0  0999 V2000
    4.3992    0.0038    0.3842 Cl  0  0  0  0  0  0  0  0  0  0  0  0
   -1.8001   -0.0032   -0.4600 S   0  0  0  0  0  0  0  0  0  0  0  0
   -2.1823    1.2497   -1.1004 O   0  0  0  0  0  0  0  0  0  0  0  0
   -2.1619   -1.2641   -1.0960 O   0  0  0  0  0  0  0  0  0  0  0  0
   -0.0700   -0.0013   -0.2262 C   0  0  0  0  0  0  0  0  0  0  0  0
    0.6216   -1.2085   -0.1263 C   0  0  0  0  0  0  0  0  0  0  0  0
    0.6204    1.2076   -0.1379 C   0  0  0  0  0  0  0  0  0  0  0  0
    2.0036   -1.2068    0.0621 C   0  0  0  0  0  0  0  0  0  0  0  0
    2.0026    1.2093    0.0504 C   0  0  0  0  0  0  0  0  0  0  0  0
    2.6942    0.0020    0.1504 C   0  0  0  0  0  0  0  0  0  0  0  0
   -2.4019    0.0055    1.1652 C   0  0  0  0  0  0  0  0  0  0  0  0
   -3.7254    0.0059    1.3347 C   0  0  0  0  0  0  0  0  0  0  0  0
  1 10  1  0
  2  3  2  0
  2  4  2  0
  2  5  1  0
  2 11  1  0
  5  6  2  0
  5  7  1  0
  6  8  1  0
  7  9  2  0
  8 10  2  0
  9 10  1  0
 11 12  2  0
M  END
>  <PUBCHEM_COMPOUND_CID>  (1) 
21703

>  <PUBCHEM_CONFORMER_RMSD>  (1) 
0.6

>  <PUBCHEM_CONFORMER_DIVERSEORDER>  (1) 
1
2

>  <PUBCHEM_MMFF94_PARTIAL_CHARGES>  (1) 
19
1 -0.18
10 0.18
11 -0.17
12 -0.3
13 0.15
14 0.15
15 0.15
16 0.15
17 0.15
18 0.15
19 0.15
2 1.33
3 -0.65
4 -0.65
5 -0.01
6 -0.15
7 -0.15
8 -0.15
9 -0.15

>  <PUBCHEM_EFFECTIVE_ROTOR_COUNT>  (1) 
2

>  <PUBCHEM_PHARMACOPHORE_FEATURES>  (1) 
3
1 3 acceptor
1 4 acceptor
6 5 6 7 8 9 10 rings

>  <PUBCHEM_HEAVY_ATOM_COUNT>  (1) 
12

>  <PUBCHEM_ATOM_DEF_STEREO_COUNT>  (1) 
0

>  <PUBCHEM_ATOM_UDEF_STEREO_COUNT>  (1) 
0

>  <PUBCHEM_BOND_DEF_STEREO_COUNT>  (1) 
0

>  <PUBCHEM_BOND_UDEF_STEREO_COUNT>  (1) 
0

>  <PUBCHEM_ISOTOPIC_ATOM_COUNT>  (1) 
0

>  <PUBCHEM_COMPONENT_COUNT>  (1) 
1

>  <PUBCHEM_CACTVS_TAUTO_COUNT>  (1) 
1

>  <PUBCHEM_CONFORMER_ID>  (1) 
000054C700000001

>  <PUBCHEM_MMFF94_ENERGY>  (1) 
16.1095

>  <PUBCHEM_FEATURE_SELFOVERLAP>  (1) 
15.241

>  <PUBCHEM_SHAPE_FINGERPRINT>  (1) 
10219947 1 18409729564948835648
11132069 177 18343007892456272426
11471102 22 18261120668201864408
12032990 46 18261115128269221154
12251169 10 18341622529021758915
124424 183 17750217154449057684
12500047 106 14261348037961424044
12932764 1 18410852166067587468
13296908 3 18188491259588153818
13581323 91 16443066114511152546
14943859 89 15482676762323180579
15219456 202 18188491263656124906
15309172 13 18413107260100368930
15653759 3 17385724698823301544
15775835 57 17418099801581169851
16945 1 18272083868888935900
17844478 74 18040442083279825405
18186145 218 18059853991602545168
19026448 4 15936401252527439846
19026448 5 15984814935636770796
200 152 18201145638060349359
20201158 50 18040720255336969547
20279233 1 17894912910465948555
20645477 70 18266445512800356150
21061003 4 18335140903312137508
21256008 23 18410863152773441240
23402539 116 17240477031356900315
23402655 69 18123445238627187621
23557571 272 15647051551615585614
2748010 2 18050843326092652404
276578 36 16486152612376371219
3248919 1 17203321208838296166
5084963 1 18270668900118068492
63268167 104 18342450422443361890

>  <PUBCHEM_SHAPE_MULTIPOLES>  (1) 
240.93
6.36
1.3
1.07
1.65
0
-0.09
-0.02
-2.01
0.2
0.25
-1.07
0
0

>  <PUBCHEM_SHAPE_SELFOVERLAP>  (1) 
476.723

>  <PUBCHEM_SHAPE_VOLUME>  (1) 
144.3

>  <PUBCHEM_COORDINATE_TYPE>  (1) 
2
5
10

$$$$
