21710
     RDKit          3D

 23 25  0  0  0  0  0  0  0  0999 V2000
   -4.9538    1.9107    0.6860 Cl  0  0  0  0  0  0  0  0  0  0  0  0
    0.9961    0.3083   -0.8966 O   0  0  0  0  0  0  0  0  0  0  0  0
   -2.9992   -0.2298    0.0316 N   0  0  0  0  0  0  0  0  0  0  0  0
    5.6993    0.7285    0.1427 N   0  0  0  0  0  0  0  0  0  0  0  0
    0.1723   -3.3101    0.3102 C   0  0  0  0  0  0  0  0  0  0  0  0
    0.0227   -2.3528   -0.8724 C   0  0  0  0  0  0  0  0  0  0  0  0
   -1.0196   -4.2459    0.5068 C   0  0  0  0  0  0  0  0  0  0  0  0
   -0.8548   -1.1706   -0.5655 C   0  0  0  0  0  0  0  0  0  0  0  0
   -2.3256   -3.5516    0.8915 C   0  0  0  0  0  0  0  0  0  0  0  0
   -2.8827   -2.6401   -0.2004 C   0  0  0  0  0  0  0  0  0  0  0  0
   -2.2048   -1.2968   -0.2504 C   0  0  0  0  0  0  0  0  0  0  0  0
   -0.3256    0.1225   -0.5926 C   0  0  0  0  0  0  0  0  0  0  0  0
   -1.1262    1.2351   -0.3064 C   0  0  0  0  0  0  0  0  0  0  0  0
   -2.4774    1.0092    0.0061 C   0  0  0  0  0  0  0  0  0  0  0  0
    1.9217    0.2966    0.1671 C   0  0  0  0  0  0  0  0  0  0  0  0
    3.3217    0.4991   -0.3964 C   0  0  0  0  0  0  0  0  0  0  0  0
   -0.6105    2.5426   -0.3261 C   0  0  0  0  0  0  0  0  0  0  0  0
    4.3732    0.5122    0.7085 C   0  0  0  0  0  0  0  0  0  0  0  0
   -3.2783    2.1115    0.2927 C   0  0  0  0  0  0  0  0  0  0  0  0
   -1.4316    3.6282   -0.0358 C   0  0  0  0  0  0  0  0  0  0  0  0
   -2.7683    3.4117    0.2741 C   0  0  0  0  0  0  0  0  0  0  0  0
    6.0494   -0.3540   -0.7788 C   0  0  0  0  0  0  0  0  0  0  0  0
    6.7019    0.8355    1.2041 C   0  0  0  0  0  0  0  0  0  0  0  0
  1 19  1  0
  2 12  1  0
  2 15  1  0
  3 11  2  0
  3 14  1  0
  4 18  1  0
  4 22  1  0
  4 23  1  0
  5  6  1  0
  5  7  1  0
  6  8  1  0
  7  9  1  0
  8 11  1  0
  8 12  2  0
  9 10  1  0
 10 11  1  0
 12 13  1  0
 13 14  2  0
 13 17  1  0
 14 19  1  0
 15 16  1  0
 16 18  1  0
 17 20  2  0
 19 21  2  0
 20 21  1  0
M  END
>  <PUBCHEM_COMPOUND_CID>  (1) 
21710

>  <PUBCHEM_CONFORMER_RMSD>  (1) 
0.8

>  <PUBCHEM_CONFORMER_DIVERSEORDER>  (1) 
1
17
29
34
24
35
28
19
6
33
11
23
15
32
2
26
18
22
30
14
12
31
3
10
13
4
20
25
7
16
27
21
9
5
8

>  <PUBCHEM_MMFF94_PARTIAL_CHARGES>  (1) 
21
1 -0.18
10 0.14
11 0.17
12 0.08
14 0.31
15 0.28
17 -0.15
18 0.27
19 0.18
2 -0.36
20 -0.15
21 -0.15
22 0.27
23 0.27
3 -0.62
38 0.15
4 -0.81
41 0.15
42 0.15
6 0.14
8 -0.14

>  <PUBCHEM_EFFECTIVE_ROTOR_COUNT>  (1) 
6

>  <PUBCHEM_PHARMACOPHORE_FEATURES>  (1) 
6
1 2 acceptor
1 3 acceptor
1 4 cation
6 13 14 17 19 20 21 rings
6 3 8 11 12 13 14 rings
7 5 6 7 8 9 10 11 rings

>  <PUBCHEM_HEAVY_ATOM_COUNT>  (1) 
23

>  <PUBCHEM_ATOM_DEF_STEREO_COUNT>  (1) 
0

>  <PUBCHEM_ATOM_UDEF_STEREO_COUNT>  (1) 
0

>  <PUBCHEM_BOND_DEF_STEREO_COUNT>  (1) 
0

>  <PUBCHEM_BOND_UDEF_STEREO_COUNT>  (1) 
0

>  <PUBCHEM_ISOTOPIC_ATOM_COUNT>  (1) 
0

>  <PUBCHEM_COMPONENT_COUNT>  (1) 
1

>  <PUBCHEM_CACTVS_TAUTO_COUNT>  (1) 
1

>  <PUBCHEM_CONFORMER_ID>  (1) 
000054CE00000001

>  <PUBCHEM_MMFF94_ENERGY>  (1) 
66.2223

>  <PUBCHEM_FEATURE_SELFOVERLAP>  (1) 
30.486

>  <PUBCHEM_SHAPE_FINGERPRINT>  (1) 
10074138 170 18337378431102050946
10319926 262 18270101493217683280
10411042 1 17978791538608720807
10493431 412 18340210696067881201
1100329 8 18337675338276453293
11049842 53 18191613894618891526
11720765 8 16334661088690038087
12107183 9 18191576455636761810
12788726 201 18336812182556334299
13140716 1 18267875054637747785
138480 1 16896802363624029859
14420673 8 18267022753159893438
14790565 3 18050293561657174524
14844126 61 18335418031792429874
14866123 147 18410575097664460883
15042514 8 18337115673598207223
15230672 131 18192156989419057382
15326921 28 17975104589028210520
15927050 60 18268993094612182951
17780758 139 18262503910466034642
19591789 44 18049732810442432183
21650355 55 18265894833562639741
22224240 67 18342743971175119817
23557571 272 18272384095904085324
23559900 14 18194111052760080520
23598288 3 18195531608718833446
283562 15 18340762655405876149
3091708 16 9199156929741245639
350125 39 17906180551050869917
4073 2 18411418428559301266
484989 97 18117831334736521287
5104073 3 17762074151180365529
5265222 85 18128263479748975910
58260988 114 16515973669565717202
58807428 26 18337678494823805721
59755656 520 18337390444341939716
79837 15 18337681819049417194
9981440 41 18263649455015667569

>  <PUBCHEM_SHAPE_MULTIPOLES>  (1) 
459.37
10.6
5.15
0.92
24.45
3.35
-0.06
-6.08
-2.73
-6.4
-0.91
0.49
0.14
0.31

>  <PUBCHEM_SHAPE_SELFOVERLAP>  (1) 
961.776

>  <PUBCHEM_SHAPE_VOLUME>  (1) 
261.2

>  <PUBCHEM_COORDINATE_TYPE>  (1) 
2
5
10

$$$$
