21713
     RDKit          3D

 21 21  0  0  0  0  0  0  0  0999 V2000
   -2.8472    2.0120    0.4324 O   0  0  0  0  0  0  0  0  0  0  0  0
   -3.7769   -2.0367    0.9170 O   0  0  0  0  0  0  0  0  0  0  0  0
   -4.3329    0.1981    0.4865 N   0  0  0  0  0  0  0  0  0  0  0  0
    1.9786    0.6158    0.2356 C   0  0  0  0  0  0  0  0  0  0  0  0
    3.2035   -0.2969    0.1411 C   0  0  0  0  0  0  0  0  0  0  0  0
    0.6850   -0.1987    0.3021 C   0  0  0  0  0  0  0  0  0  0  0  0
    4.5002    0.5140    0.1084 C   0  0  0  0  0  0  0  0  0  0  0  0
   -6.0281    1.3531   -0.9136 C   0  0  0  0  0  0  0  0  0  0  0  0
   -6.9330    0.2225   -1.3957 C   0  0  0  0  0  0  0  0  0  0  0  0
   -5.4750    1.1248    0.4904 C   0  0  0  0  0  0  0  0  0  0  0  0
   -0.5745    0.6686    0.3664 C   0  0  0  0  0  0  0  0  0  0  0  0
   -6.2790   -1.1564   -1.3785 C   0  0  0  0  0  0  0  0  0  0  0  0
    5.7228   -0.3965   -0.0196 C   0  0  0  0  0  0  0  0  0  0  0  0
   -1.8656   -0.1415    0.4069 C   0  0  0  0  0  0  0  0  0  0  0  0
   -5.9429   -1.6464    0.0268 C   0  0  0  0  0  0  0  0  0  0  0  0
    7.0179    0.4165   -0.0856 C   0  0  0  0  0  0  0  0  0  0  0  0
   -3.0487    0.7944    0.4458 C   0  0  0  0  0  0  0  0  0  0  0  0
   -4.5728   -1.1907    0.5021 C   0  0  0  0  0  0  0  0  0  0  0  0
    8.2364   -0.4949   -0.2476 C   0  0  0  0  0  0  0  0  0  0  0  0
    9.5577    0.2708   -0.3429 C   0  0  0  0  0  0  0  0  0  0  0  0
   10.7744   -0.6316   -0.4781 C   0  0  0  0  0  0  0  0  0  0  0  0
  1 17  2  0
  2 18  2  0
  3 10  1  0
  3 17  1  0
  3 18  1  0
  4  5  1  0
  4  6  1  0
  5  7  1  0
  6 11  1  0
  7 13  1  0
  8  9  1  0
  8 10  1  0
  9 12  1  0
 11 14  1  0
 12 15  1  0
 13 16  1  0
 14 17  1  0
 15 18  1  0
 16 19  1  0
 19 20  1  0
 20 21  1  0
M  END
>  <PUBCHEM_COMPOUND_CID>  (1) 
21713

>  <PUBCHEM_CONFORMER_RMSD>  (1) 
1.2

>  <PUBCHEM_CONFORMER_DIVERSEORDER>  (1) 
1
51
54
88
109
270
106
34
243
6
114
159
227
247
189
48
46
100
79
42
113
135
28
168
172
221
45
184
250
82
61
53
83
216
63
10
236
305
276
161
316
36
248
23
90
58
169
241
98
31
257
122
315
198
267
182
142
225
9
254
288
128
110
85
177
64
154
15
191
104
200
156
231
149
108
57
29
121
19
255
67
176
211
192
284
127
206
212
39
187
174
186
201
49
301
223
290
273
179
233
112
306
304
52
14
22
139
253
232
137
167
20
16
55
265
134
175
107
153
50
77
183
313
13
43
75
146
226
65
4
218
59
38
138
239
296
213
76
285
8
188
190
259
119
207
173
260
27
249
222
101
144
11
215
115
24
120
199
148
87
37
210
170
21
283
278
102
68
160
166
163
281
26
84
303
230
47
280
151
279
150
287
32
3
234
214
60
7
40
12
97
240
262
289
238
105
158
224
220
271
111
277
274
195
162
266
264
219
41
297
275
44
136
269
141
152
89
18
124
62
246
291
196
25
33
140
204
5
300
145
126
129
209
228
95
164
307
261
56
165
178
302
208
256
69
78
308
299
92
251
130
310
155
298
242
91
17
131
180
293
202
292
35
235
81
86
295
268
2
71
205
132
72
143
123
73
194
263
96
245
66
312
116
258
272
93
171
294
193
94
118
217
252
203
30
125
133
185
311
70
237
147
103
229
80
314
197
74
282
309
157
181
286
117
99
244

>  <PUBCHEM_MMFF94_PARTIAL_CHARGES>  (1) 
8
1 -0.57
10 0.3
14 0.06
15 0.06
17 0.57
18 0.57
2 -0.57
3 -0.42

>  <PUBCHEM_EFFECTIVE_ROTOR_COUNT>  (1) 
12.2

>  <PUBCHEM_PHARMACOPHORE_FEATURES>  (1) 
4
1 1 acceptor
1 2 acceptor
1 21 hydrophobe
7 3 8 9 10 12 15 18 rings

>  <PUBCHEM_HEAVY_ATOM_COUNT>  (1) 
21

>  <PUBCHEM_ATOM_DEF_STEREO_COUNT>  (1) 
0

>  <PUBCHEM_ATOM_UDEF_STEREO_COUNT>  (1) 
0

>  <PUBCHEM_BOND_DEF_STEREO_COUNT>  (1) 
0

>  <PUBCHEM_BOND_UDEF_STEREO_COUNT>  (1) 
0

>  <PUBCHEM_ISOTOPIC_ATOM_COUNT>  (1) 
0

>  <PUBCHEM_COMPONENT_COUNT>  (1) 
1

>  <PUBCHEM_CACTVS_TAUTO_COUNT>  (1) 
1

>  <PUBCHEM_CONFORMER_ID>  (1) 
000054D100000001

>  <PUBCHEM_MMFF94_ENERGY>  (1) 
21.1828

>  <PUBCHEM_FEATURE_SELFOVERLAP>  (1) 
20.297

>  <PUBCHEM_SHAPE_FINGERPRINT>  (1) 
10 15 9799695899971214261
10066227 49 18059300847455593782
11315181 36 18273216404799988377
12091667 2 17749111088922909721
13288520 33 18342738538172735233
13885169 127 18409730643022797024
14251764 18 18113616781943879418
14251764 46 16271927108204577956
14428016 248 10159691422698301602
15152005 1 17553754463122369135
15183329 4 17894906325980254235
15461852 350 18201998850029280516
15510794 2 18130510756978182222
15716309 27 15339117966044121781
1754911 235 17749111098124494798
21095086 128 16559030489707560126
21095123 145 11963400638805430465
21150785 3 18412544306363481996
21315763 28 18342460336161934504
21360442 43 17604152631327143371
21360443 120 17603301544512325634
21360443 89 10519688009369197901
21362267 20 15195276535332106148
22224240 67 15626222417025498806
23559900 14 18338508746789616321
246663 6 15626223520647626580
33684 2 18408323273125008784
59521270 166 18336263457934984933
59567204 34 13190329158908548543
59682541 35 14333123079824535366
636775 8 18041283274870405899
67123 10 18341896299803027880
8209 1 18334579032587309192
9953998 17 10159700214205913895

>  <PUBCHEM_SHAPE_MULTIPOLES>  (1) 
415.45
32.56
1.47
0.96
81.54
0.15
0.23
5.04
9.66
-3.03
-0.13
-1.59
0.09
0.29

>  <PUBCHEM_SHAPE_SELFOVERLAP>  (1) 
793.383

>  <PUBCHEM_SHAPE_VOLUME>  (1) 
252.4

>  <PUBCHEM_COORDINATE_TYPE>  (1) 
2
5
10

$$$$
