21716
     RDKit          3D

  9  9  0  0  0  0  0  0  0  0999 V2000
    2.1865    1.3662   -0.0001 S   0  0  0  0  0  0  0  0  0  0  0  0
    0.5716   -2.1422    0.0002 O   0  0  0  0  0  0  0  0  0  0  0  0
   -2.0819   -1.0772   -0.0003 O   0  0  0  0  0  0  0  0  0  0  0  0
   -0.1154    0.2252    0.0000 C   0  0  0  0  0  0  0  0  0  0  0  0
    0.8466   -0.8259    0.0000 C   0  0  0  0  0  0  0  0  0  0  0  0
   -1.5454    0.0570    0.0001 C   0  0  0  0  0  0  0  0  0  0  0  0
    0.4772    1.4688    0.0000 C   0  0  0  0  0  0  0  0  0  0  0  0
    2.1378   -0.3455   -0.0001 C   0  0  0  0  0  0  0  0  0  0  0  0
   -2.4769    1.2735    0.0001 C   0  0  0  0  0  0  0  0  0  0  0  0
  1  7  1  0
  1  8  1  0
  2  5  1  0
  3  6  2  0
  4  5  1  0
  4  6  1  0
  4  7  2  0
  5  8  2  0
  6  9  1  0
M  END
>  <PUBCHEM_COMPOUND_CID>  (1) 
21716

>  <PUBCHEM_CONFORMER_RMSD>  (1) 
0.4

>  <PUBCHEM_CONFORMER_DIVERSEORDER>  (1) 
1
3
2
4

>  <PUBCHEM_MMFF94_PARTIAL_CHARGES>  (1) 
12
1 -0.08
10 0.15
11 0.15
15 0.45
2 -0.51
3 -0.57
4 -0.09
5 0.06
6 0.6
7 -0.11
8 -0.11
9 0.06

>  <PUBCHEM_EFFECTIVE_ROTOR_COUNT>  (1) 
1

>  <PUBCHEM_PHARMACOPHORE_FEATURES>  (1) 
3
1 2 donor
1 3 acceptor
5 1 4 5 7 8 rings

>  <PUBCHEM_HEAVY_ATOM_COUNT>  (1) 
9

>  <PUBCHEM_ATOM_DEF_STEREO_COUNT>  (1) 
0

>  <PUBCHEM_ATOM_UDEF_STEREO_COUNT>  (1) 
0

>  <PUBCHEM_BOND_DEF_STEREO_COUNT>  (1) 
0

>  <PUBCHEM_BOND_UDEF_STEREO_COUNT>  (1) 
0

>  <PUBCHEM_ISOTOPIC_ATOM_COUNT>  (1) 
0

>  <PUBCHEM_COMPONENT_COUNT>  (1) 
1

>  <PUBCHEM_CACTVS_TAUTO_COUNT>  (1) 
4

>  <PUBCHEM_CONFORMER_ID>  (1) 
000054D400000001

>  <PUBCHEM_MMFF94_ENERGY>  (1) 
11.1962

>  <PUBCHEM_FEATURE_SELFOVERLAP>  (1) 
15.223

>  <PUBCHEM_SHAPE_FINGERPRINT>  (1) 
12897270 3 18338514248178128229
14325111 11 18338517542486869184
16945 1 18266458702665663396
18185500 45 18268148669169821627
21040471 1 18266740366889960420
23402655 69 18268977723198453053
23552423 10 18335986393399024486
241688 4 17186159760732053562
2748010 2 18410294739394791956
29004967 10 18335426703331127160
5084963 1 18130230483262777800

>  <PUBCHEM_SHAPE_MULTIPOLES>  (1) 
177.33
3.27
1.86
0.61
0.9
0.41
0
-0.86
0
-0.21
0
-0.04
-0.05
0

>  <PUBCHEM_SHAPE_SELFOVERLAP>  (1) 
354.543

>  <PUBCHEM_SHAPE_VOLUME>  (1) 
106.5

>  <PUBCHEM_COORDINATE_TYPE>  (1) 
2
5
10

$$$$
