21722
     RDKit          3D

 21 23  0  0  0  0  0  0  0  0999 V2000
    0.1212    0.0640   -0.3102 N   0  0  0  0  0  0  0  0  0  0  0  0
    4.9006   -0.7556    0.5231 N   0  0  0  0  0  0  0  0  0  0  0  0
   -0.8145   -0.7415    0.2825 C   0  0  0  0  0  0  0  0  0  0  0  0
   -1.8788    0.0501    0.6776 C   0  0  0  0  0  0  0  0  0  0  0  0
   -0.6354   -2.2137    0.4015 C   0  0  0  0  0  0  0  0  0  0  0  0
   -3.1113   -0.4336    1.3709 C   0  0  0  0  0  0  0  0  0  0  0  0
   -1.2596   -2.9712   -0.7703 C   0  0  0  0  0  0  0  0  0  0  0  0
   -1.5654    1.3934    0.2917 C   0  0  0  0  0  0  0  0  0  0  0  0
   -4.1105   -1.1405    0.4522 C   0  0  0  0  0  0  0  0  0  0  0  0
   -0.3110    1.3689   -0.3212 C   0  0  0  0  0  0  0  0  0  0  0  0
   -2.6916   -2.5767   -1.1587 C   0  0  0  0  0  0  0  0  0  0  0  0
   -3.7041   -2.5497   -0.0087 C   0  0  0  0  0  0  0  0  0  0  0  0
    1.3822   -0.3755   -0.8731 C   0  0  0  0  0  0  0  0  0  0  0  0
    2.5163   -0.3297    0.1506 C   0  0  0  0  0  0  0  0  0  0  0  0
   -2.2329    2.6318    0.4038 C   0  0  0  0  0  0  0  0  0  0  0  0
    0.3095    2.5177   -0.8256 C   0  0  0  0  0  0  0  0  0  0  0  0
    3.8346   -0.7854   -0.4711 C   0  0  0  0  0  0  0  0  0  0  0  0
   -1.6250    3.7893   -0.0957 C   0  0  0  0  0  0  0  0  0  0  0  0
   -0.3724    3.7307   -0.7009 C   0  0  0  0  0  0  0  0  0  0  0  0
    5.1019    0.6057    1.0225 C   0  0  0  0  0  0  0  0  0  0  0  0
    6.1464   -1.2787   -0.0407 C   0  0  0  0  0  0  0  0  0  0  0  0
  1  3  1  0
  1 10  1  0
  1 13  1  0
  2 17  1  0
  2 20  1  0
  2 21  1  0
  3  4  2  0
  3  5  1  0
  4  6  1  0
  4  8  1  0
  5  7  1  0
  6  9  1  0
  7 11  1  0
  8 10  2  0
  8 15  1  0
  9 12  1  0
 10 16  1  0
 11 12  1  0
 13 14  1  0
 14 17  1  0
 15 18  2  0
 16 19  2  0
 18 19  1  0
M  END
>  <PUBCHEM_COMPOUND_CID>  (1) 
21722

>  <PUBCHEM_CONFORMER_RMSD>  (1) 
0.8

>  <PUBCHEM_CONFORMER_DIVERSEORDER>  (1) 
1
8
17
21
9
16
20
23
5
13
19
12
4
6
24
11
18
15
3
22
7
10
2
14

>  <PUBCHEM_MMFF94_PARTIAL_CHARGES>  (1) 
19
1 0.05
10 -0.15
13 0.26
15 -0.15
16 -0.15
17 0.27
18 -0.15
19 -0.15
2 -0.81
20 0.27
21 0.27
3 -0.33
38 0.15
39 0.15
4 -0.18
42 0.15
43 0.15
5 0.18
6 0.18

>  <PUBCHEM_EFFECTIVE_ROTOR_COUNT>  (1) 
5.2

>  <PUBCHEM_PHARMACOPHORE_FEATURES>  (1) 
4
1 1 cation
1 2 cation
5 1 3 4 8 10 rings
6 8 10 15 16 18 19 rings

>  <PUBCHEM_HEAVY_ATOM_COUNT>  (1) 
21

>  <PUBCHEM_ATOM_DEF_STEREO_COUNT>  (1) 
0

>  <PUBCHEM_ATOM_UDEF_STEREO_COUNT>  (1) 
0

>  <PUBCHEM_BOND_DEF_STEREO_COUNT>  (1) 
0

>  <PUBCHEM_BOND_UDEF_STEREO_COUNT>  (1) 
0

>  <PUBCHEM_ISOTOPIC_ATOM_COUNT>  (1) 
0

>  <PUBCHEM_COMPONENT_COUNT>  (1) 
1

>  <PUBCHEM_CACTVS_TAUTO_COUNT>  (1) 
1

>  <PUBCHEM_CONFORMER_ID>  (1) 
000054DA00000001

>  <PUBCHEM_MMFF94_ENERGY>  (1) 
37.2432

>  <PUBCHEM_FEATURE_SELFOVERLAP>  (1) 
20.388

>  <PUBCHEM_SHAPE_FINGERPRINT>  (1) 
10319926 262 18268132181940632786
10411042 1 18337675338113039971
10871710 139 18335703810342188354
1100329 8 18264776639334035243
11265709 11 18337673134451607510
11578080 2 17604414323351880532
11595378 159 18262782022214561626
11833330 49 18409445912075643785
12553582 1 18265634232190609646
12633257 1 17845948393526986034
12788726 201 18263381286015990014
13004483 165 18339631352055531414
13140716 1 18337410295971432561
14420673 8 17613434442612422650
14508225 48 18340473569113718493
14910302 57 17987816124391859910
14955137 171 18263934400447415571
15042514 8 18409453548464127535
15230672 131 17832434095107540382
16945 1 18265640739635534731
17980427 23 17559964380013491657
1813 80 18339654450094178958
18927931 339 18410017606904649046
20510252 161 18342179904007494352
20600515 1 18200040684139556870
20693207 138 17558576641752429030
21339142 126 18411419501109083198
22182313 1 17979098010721621623
2334 1 18193861416545026097
23366157 5 17612595926744048893
23402539 116 18412822495126092183
23419403 2 17629172056955131793
23557571 272 18271817796002481164
23559900 14 18342733066025678160
2748010 2 17180556684375306409
3009799 131 18335125523603729199
34934 24 18261954038413918035
4409770 3 18263353720894921821
81228 2 18340223941261686346
90316 7 18410580586537284154
9981440 41 17833827171047296760

>  <PUBCHEM_SHAPE_MULTIPOLES>  (1) 
422.21
8.85
4.39
1.03
17.32
3.46
0.03
-5.98
2.19
-4.1
-1.23
-0.19
-0.11
-0.27

>  <PUBCHEM_SHAPE_SELFOVERLAP>  (1) 
883.076

>  <PUBCHEM_SHAPE_VOLUME>  (1) 
239.3

>  <PUBCHEM_COORDINATE_TYPE>  (1) 
2
5
10

$$$$
