21739
     RDKit          3D

 21 22  0  0  1  0  0  0  0  0999 V2000
   -2.4356   -1.5912   -1.9014 O   0  0  0  0  0  0  0  0  0  0  0  0
   -4.5632   -1.5413   -1.1365 O   0  0  0  0  0  0  0  0  0  0  0  0
   -0.9942   -2.1862    1.2198 O   0  0  0  0  0  0  0  0  0  0  0  0
   -1.4457   -0.2184    0.1024 N   0  0  0  0  0  0  0  0  0  0  0  0
    1.2073    0.2040   -0.1156 N   0  0  0  0  0  0  0  0  0  0  0  0
    3.1037   -1.5446    0.9167 N   0  0  0  0  0  0  0  0  0  0  0  0
   -3.6029    1.0253    0.1717 C   0  0  0  0  0  0  0  0  0  0  0  0
   -2.8809   -0.3439    0.1290 C   0  0  0  0  0  0  0  0  0  0  0  0
   -3.1238    1.8503    1.3859 C   0  0  0  0  0  0  0  0  0  0  0  0
   -3.4517    1.8074   -1.1403 C   0  0  0  0  0  0  0  0  0  0  0  0
   -3.8407    3.1851    1.5372 C   0  0  0  0  0  0  0  0  0  0  0  0
   -3.3889   -1.2073   -1.0186 C   0  0  0  0  0  0  0  0  0  0  0  0
   -0.5712   -1.1728    0.6644 C   0  0  0  0  0  0  0  0  0  0  0  0
    0.8691   -0.9167    0.5300 C   0  0  0  0  0  0  0  0  0  0  0  0
    2.5205    0.4594   -0.2499 C   0  0  0  0  0  0  0  0  0  0  0  0
    1.7854   -1.7819    1.0405 C   0  0  0  0  0  0  0  0  0  0  0  0
    3.4808   -0.4260    0.2729 C   0  0  0  0  0  0  0  0  0  0  0  0
    2.9474    1.6086   -0.9113 C   0  0  0  0  0  0  0  0  0  0  0  0
    4.8327   -0.1294    0.1151 C   0  0  0  0  0  0  0  0  0  0  0  0
    4.3026    1.8961   -1.0638 C   0  0  0  0  0  0  0  0  0  0  0  0
    5.2493    1.0234   -0.5483 C   0  0  0  0  0  0  0  0  0  0  0  0
  1 12  1  0
  2 12  2  0
  3 13  2  0
  4  8  1  0
  4 13  1  0
  5 14  2  0
  5 15  1  0
  6 16  2  0
  6 17  1  0
  7  8  1  0
  7  9  1  0
  7 10  1  0
  8 12  1  0
  9 11  1  0
 13 14  1  0
 14 16  1  0
 15 17  2  0
 15 18  1  0
 17 19  1  0
 18 20  2  0
 19 21  2  0
 20 21  1  0
M  END
>  <PUBCHEM_COMPOUND_CID>  (1) 
21739

>  <PUBCHEM_CONFORMER_RMSD>  (1) 
0.8

>  <PUBCHEM_CONFORMER_DIVERSEORDER>  (1) 
1
44
26
51
50
10
12
23
46
11
41
40
43
15
7
9
45
24
29
32
47
27
34
5
13
21
48
42
22
28
14
6
35
19
39
25
18
8
31
4
2
33
20
16
49
36
52
3
17
38
37
30

>  <PUBCHEM_MMFF94_PARTIAL_CHARGES>  (1) 
24
1 -0.65
12 0.66
13 0.54
14 0.4
15 0.31
16 0.16
17 0.31
18 -0.15
19 -0.15
2 -0.57
20 -0.15
21 -0.15
29 0.37
3 -0.57
33 0.5
34 0.15
35 0.15
36 0.15
37 0.15
38 0.15
4 -0.73
5 -0.62
6 -0.62
8 0.36

>  <PUBCHEM_EFFECTIVE_ROTOR_COUNT>  (1) 
6

>  <PUBCHEM_PHARMACOPHORE_FEATURES>  (1) 
11
1 1 acceptor
1 10 hydrophobe
1 11 hydrophobe
1 2 acceptor
1 3 acceptor
1 4 donor
1 5 acceptor
1 6 acceptor
3 1 2 12 anion
6 15 17 18 19 20 21 rings
6 5 6 14 15 16 17 rings

>  <PUBCHEM_HEAVY_ATOM_COUNT>  (1) 
21

>  <PUBCHEM_ATOM_DEF_STEREO_COUNT>  (1) 
1

>  <PUBCHEM_ATOM_UDEF_STEREO_COUNT>  (1) 
1

>  <PUBCHEM_BOND_DEF_STEREO_COUNT>  (1) 
0

>  <PUBCHEM_BOND_UDEF_STEREO_COUNT>  (1) 
0

>  <PUBCHEM_ISOTOPIC_ATOM_COUNT>  (1) 
0

>  <PUBCHEM_COMPONENT_COUNT>  (1) 
1

>  <PUBCHEM_CACTVS_TAUTO_COUNT>  (1) 
2

>  <PUBCHEM_CONFORMER_ID>  (1) 
000054EB00000001

>  <PUBCHEM_MMFF94_ENERGY>  (1) 
50.1926

>  <PUBCHEM_FEATURE_SELFOVERLAP>  (1) 
55.925

>  <PUBCHEM_SHAPE_FINGERPRINT>  (1) 
11796584 16 16916796128615227606
12107183 9 17908142075246660722
12236239 1 18410852174715823759
12390115 104 17824567363918476844
12644460 14 17458623381297910386
12714826 92 17060335266765622775
12788726 201 18272083929404041595
13675066 3 14851599982134737394
14251751 93 18131069354758076543
14251764 38 18128814334284175296
14848178 96 18115026445686837956
15183329 4 18113621192933321102
15420108 30 16613650610960365592
15475509 8 17907314160999326982
15842332 3 18339066087167667235
16988056 13 15893643074895903705
17818456 19 17771061597220407770
18186145 218 18263086530647069418
20300324 65 18343301508983821013
21033648 29 16226317175160978230
21033650 10 18057631852643192988
21864079 5 18041558035921130153
22182937 141 18114758121308566034
231179 274 16733252539250209758
23402539 116 18411696595635753596
23402655 69 18413109429333017096
235170 7 16773803618740797780
23557571 272 17561083617856359161
25147074 1 18337663127409994651
312425 83 17917450721524607284
3472631 163 18271250409084813325
469060 322 15358270410839333715
474 4 18260267412782139571
5104073 3 17895196658076594976
543358 83 18334579002100584010
633830 44 18334864870343886034

>  <PUBCHEM_SHAPE_MULTIPOLES>  (1) 
399.62
10.88
2.71
1.42
4.21
0.98
-0.12
4.78
-1.78
-2.2
0.55
-1.29
0.08
-2.89

>  <PUBCHEM_SHAPE_SELFOVERLAP>  (1) 
845.88

>  <PUBCHEM_SHAPE_VOLUME>  (1) 
222.7

>  <PUBCHEM_COORDINATE_TYPE>  (1) 
2
5
10

$$$$
