21743
     RDKit          3D

 31 34  0  0  1  0  0  0  0  0999 V2000
   -0.3199   -2.0123   -0.6248 S   0  0  0  0  0  0  0  0  0  0  0  0
   -7.7884   -0.6506   -0.5090 S   0  0  0  0  0  0  0  0  0  0  0  0
   -2.3372    1.3385    1.8914 O   0  0  0  0  0  0  0  0  0  0  0  0
   -0.4125    3.0311   -0.4248 O   0  0  0  0  0  0  0  0  0  0  0  0
    1.0577    2.8540    1.3188 O   0  0  0  0  0  0  0  0  0  0  0  0
   -4.7629   -0.6696    1.9658 O   0  0  0  0  0  0  0  0  0  0  0  0
    8.0372   -0.3206    1.1581 O   0  0  0  0  0  0  0  0  0  0  0  0
   -0.5685    0.1646    0.8697 N   0  0  0  0  0  0  0  0  0  0  0  0
   -3.0548   -1.6228    0.7170 N   0  0  0  0  0  0  0  0  0  0  0  0
    3.6658    0.5736   -0.9563 N   0  0  0  0  0  0  0  0  0  0  0  0
    7.9671   -1.8890   -0.5133 N   0  0  0  0  0  0  0  0  0  0  0  0
   -0.5091   -1.2768    1.0149 C   0  0  0  0  0  0  0  0  0  0  0  0
   -1.9497   -1.1818    1.5668 C   0  0  0  0  0  0  0  0  0  0  0  0
   -1.7222    0.3583    1.5423 C   0  0  0  0  0  0  0  0  0  0  0  0
    0.3574    0.9069    0.2108 C   0  0  0  0  0  0  0  0  0  0  0  0
    1.2619    0.3263   -0.6110 C   0  0  0  0  0  0  0  0  0  0  0  0
    1.2650   -1.1636   -0.9441 C   0  0  0  0  0  0  0  0  0  0  0  0
    2.3416    1.0672   -1.3647 C   0  0  0  0  0  0  0  0  0  0  0  0
    0.3315    2.4211    0.3864 C   0  0  0  0  0  0  0  0  0  0  0  0
   -4.3870   -1.3238    0.9944 C   0  0  0  0  0  0  0  0  0  0  0  0
   -5.3592   -1.8695   -0.0323 C   0  0  0  0  0  0  0  0  0  0  0  0
    4.1987   -0.4479   -1.6303 C   0  0  0  0  0  0  0  0  0  0  0  0
    4.2771    1.1698    0.0698 C   0  0  0  0  0  0  0  0  0  0  0  0
   -6.0966   -0.7240   -0.6677 C   0  0  0  0  0  0  0  0  0  0  0  0
    5.4470   -0.9333   -1.2682 C   0  0  0  0  0  0  0  0  0  0  0  0
    5.5275    0.7262    0.4763 C   0  0  0  0  0  0  0  0  0  0  0  0
    6.1150   -0.3369   -0.2028 C   0  0  0  0  0  0  0  0  0  0  0  0
   -5.5721    0.3089   -1.3857 C   0  0  0  0  0  0  0  0  0  0  0  0
   -6.5914    1.2013   -1.8272 C   0  0  0  0  0  0  0  0  0  0  0  0
    7.4247   -0.8236    0.1997 C   0  0  0  0  0  0  0  0  0  0  0  0
   -7.8440    0.7983   -1.4199 C   0  0  0  0  0  0  0  0  0  0  0  0
  1 12  1  0
  1 17  1  0
  2 24  1  0
  2 31  1  0
  3 14  2  0
  4 19  1  0
  5 19  2  0
  6 20  2  0
  7 30  2  0
  8 12  1  0
  8 14  1  0
  8 15  1  0
  9 13  1  0
  9 20  1  0
 10 18  1  0
 10 22  2  0
 10 23  1  0
 11 30  1  0
 12 13  1  0
 13 14  1  0
 15 16  2  0
 15 19  1  0
 16 17  1  0
 16 18  1  0
 20 21  1  0
 21 24  1  0
 22 25  1  0
 23 26  2  0
 24 28  2  0
 25 27  2  0
 26 27  1  0
 27 30  1  0
 28 29  1  0
 29 31  2  0
M  CHG  2   4  -1  10   1
M  END
>  <PUBCHEM_COMPOUND_CID>  (1) 
21743

>  <PUBCHEM_CONFORMER_RMSD>  (1) 
1

>  <PUBCHEM_CONFORMER_DIVERSEORDER>  (1) 
1
5
32
55
34
2
39
8
85
81
73
54
71
16
65
88
28
84
66
38
74
69
50
68
6
43
87
46
14
49
37
33
21
48
83
72
56
41
67
63
76
53
90
24
64
89
79
45
22
82
77
51
70
30
17
35
59
15
29
57
42
10
26
80
12
13
3
9
58
31
7
44
25
23
62
78
60
4
61
18
11
19
86
27
75
47
36
20
40
52

>  <PUBCHEM_MMFF94_PARTIAL_CHARGES>  (1) 
41
1 -0.45
10 -0.21
11 -0.8
12 0.44
13 0.28
14 0.58
15 -0.14
16 -0.28
17 0.37
18 0.63
19 1.05
2 -0.08
20 0.57
21 0.24
22 0.21
23 0.21
24 -0.14
25 -0.15
26 -0.15
27 0.09
28 -0.15
29 -0.15
3 -0.57
30 0.54
31 -0.11
36 0.37
4 -0.9
41 0.15
42 0.15
43 0.15
44 0.15
45 0.15
46 0.15
47 0.15
48 0.37
49 0.37
5 -0.9
6 -0.57
7 -0.57
8 -0.39
9 -0.65

>  <PUBCHEM_EFFECTIVE_ROTOR_COUNT>  (1) 
8.6

>  <PUBCHEM_PHARMACOPHORE_FEATURES>  (1) 
12
1 11 donor
1 3 acceptor
1 4 acceptor
1 5 acceptor
1 6 acceptor
1 7 acceptor
1 9 donor
3 4 5 19 anion
4 8 12 13 14 rings
5 2 24 28 29 31 rings
6 1 8 12 15 16 17 rings
6 10 22 23 25 26 27 rings

>  <PUBCHEM_HEAVY_ATOM_COUNT>  (1) 
31

>  <PUBCHEM_ATOM_DEF_STEREO_COUNT>  (1) 
2

>  <PUBCHEM_ATOM_UDEF_STEREO_COUNT>  (1) 
0

>  <PUBCHEM_BOND_DEF_STEREO_COUNT>  (1) 
0

>  <PUBCHEM_BOND_UDEF_STEREO_COUNT>  (1) 
0

>  <PUBCHEM_ISOTOPIC_ATOM_COUNT>  (1) 
0

>  <PUBCHEM_COMPONENT_COUNT>  (1) 
1

>  <PUBCHEM_CACTVS_TAUTO_COUNT>  (1) 
4

>  <PUBCHEM_CONFORMER_ID>  (1) 
000054EF00000001

>  <PUBCHEM_MMFF94_ENERGY>  (1) 
81.921

>  <PUBCHEM_FEATURE_SELFOVERLAP>  (1) 
61.215

>  <PUBCHEM_SHAPE_FINGERPRINT>  (1) 
10165383 225 17676201352589637359
10670039 82 17385434420139437861
10674148 151 15574712509077554188
10815517 723 9294702287605563105
10930396 42 18199727255534280808
11135926 11 18130515167409006679
11211813 128 10807933786440027069
11408170 108 17775015531334393862
11724838 91 15123789596270980210
11796584 16 17458631176489810586
12373685 5 16199595650214814367
12857493 111 18341890801048709384
13782708 43 17825684506192324835
13811026 1 18410570699596798524
13914758 101 17894347765647186330
14068700 675 17561363989543907585
14251752 14 17749388178437213595
14279260 333 18336257934559459071
14294032 229 16951397720364802885
14849402 71 10953753204707060991
14856354 85 11530486649189836419
15183329 4 16081082697085669839
15188451 53 18333731300437368410
15475509 8 13839983313846565502
15728490 51 13110958743156555517
16992727 255 18041839498688666573
18335252 98 11383835982767984716
19377110 9 15051735266049449478
19841028 212 17822283528129094826
20105231 36 7997971297382105208
21223535 225 18130230359838276937
21792961 116 18113623378755345843
21814621 53 16805894007900570024
21859007 373 18114731711491956916
22393880 68 18337103588314831203
23559900 14 18199466739613021353
24180151 40 18195524796658271522
24771293 8 17418102031123124168
24893992 56 17821730572685175299
2747138 104 10519991486682422791
2838139 119 17676485073485915727
3009799 131 18341612633353733719
3633792 109 18334574599142356042
38570 142 14851603284980555209
4149490 64 16414624030051304303
4258327 124 12535053292071348538
4325135 7 14548738417220432671
4403749 210 11887673949418236617
474113 269 18336821988626209650
5223283 242 11747210222647906730
5381727 24 13686299068264455910
563151 40 11891338668359923809
59682541 35 12103839077172604439
5969126 39 17203329988284608785
59755656 520 14273738469350364441
6004065 56 17703508895215009497
6009941 240 17168147848950932107
6126387 218 17822004329378541680
6394761 36 17022900146871688710
9689198 14 11169909476707498054

>  <PUBCHEM_SHAPE_MULTIPOLES>  (1) 
596.39
22.34
2.27
1.72
2.95
1.02
0.21
-5.6
-6.89
-0.27
0.26
-1.3
0.16
1.7

>  <PUBCHEM_SHAPE_SELFOVERLAP>  (1) 
1267.593

>  <PUBCHEM_SHAPE_VOLUME>  (1) 
334.2

>  <PUBCHEM_COORDINATE_TYPE>  (1) 
2
5
10

$$$$
