21746
     RDKit          3D

 16 15  0  0  0  0  0  0  0  0999 V2000
    4.7269    0.2581    0.2213 O   0  0  0  0  0  0  0  0  0  0  0  0
    3.6742   -1.7489   -0.2102 O   0  0  0  0  0  0  0  0  0  0  0  0
   -7.8167    1.3854    0.1650 O   0  0  0  0  0  0  0  0  0  0  0  0
    6.9832    1.6650   -0.6669 O   0  0  0  0  0  0  0  0  0  0  0  0
   -1.4350   -0.6137   -0.0272 C   0  0  0  0  0  0  0  0  0  0  0  0
   -2.6982    0.2449    0.0830 C   0  0  0  0  0  0  0  0  0  0  0  0
   -0.1730    0.2308    0.1635 C   0  0  0  0  0  0  0  0  0  0  0  0
   -3.9588   -0.5937   -0.1397 C   0  0  0  0  0  0  0  0  0  0  0  0
    1.1224   -0.5743    0.0322 C   0  0  0  0  0  0  0  0  0  0  0  0
   -5.2545    0.2111   -0.0102 C   0  0  0  0  0  0  0  0  0  0  0  0
    2.3839    0.2730    0.1968 C   0  0  0  0  0  0  0  0  0  0  0  0
   -6.5126   -0.6297   -0.2067 C   0  0  0  0  0  0  0  0  0  0  0  0
    3.6417   -0.5525    0.0426 C   0  0  0  0  0  0  0  0  0  0  0  0
   -7.7788    0.1800   -0.0570 C   0  0  0  0  0  0  0  0  0  0  0  0
    6.0011   -0.3812    0.0945 C   0  0  0  0  0  0  0  0  0  0  0  0
    7.0944    0.6455    0.3189 C   0  0  0  0  0  0  0  0  0  0  0  0
  1 13  1  0
  1 15  1  0
  2 13  2  0
  3 14  2  0
  4 16  1  0
  5  6  1  0
  5  7  1  0
  6  8  1  0
  7  9  1  0
  8 10  1  0
  9 11  1  0
 10 12  1  0
 11 13  1  0
 12 14  1  0
 15 16  1  0
M  END
>  <PUBCHEM_COMPOUND_CID>  (1) 
21746

>  <PUBCHEM_CONFORMER_RMSD>  (1) 
1

>  <PUBCHEM_CONFORMER_DIVERSEORDER>  (1) 
1
284
111
268
13
283
320
5
186
181
74
137
238
163
14
150
277
18
122
112
274
107
40
82
121
55
108
31
170
136
109
169
328
189
129
125
97
266
221
220
29
327
84
276
219
175
128
123
58
28
243
272
247
80
192
240
260
236
196
184
292
167
161
98
256
279
267
138
57
12
89
61
227
79
168
85
90
177
322
15
269
197
46
209
145
143
48
104
306
27
259
87
73
187
296
71
124
133
65
270
118
78
43
194
158
165
39
301
307
297
21
115
153
24
281
293
9
255
151
146
224
178
3
218
70
93
286
88
300
54
309
211
59
246
69
113
275
53
110
76
258
102
8
103
257
22
34
173
64
174
10
75
262
117
72
47
67
273
183
56
185
23
86
52
287
285
38
106
17
314
205
35
316
114
207
244
63
298
212
233
95
182
45
68
213
60
294
42
241
2
264
290
302
172
166
41
81
49
239
313
33
142
191
289
214
250
164
26
317
101
140
20
77
299
171
162
83
242
179
280
310
116
30
160
130
254
99
204
100
11
253
149
141
131
50
176
91
4
96
315
251
6
226
225
94
318
193
144
237
157
200
132
51
282
324
234
263
120
208
288
271
231
16
92
201
249
304
36
222
323
44
198
105
139
32
261
265
152
230
203
147
235
126
206
295
156
66
134
278
321
62
19
216
252
195
135
148
180
190
202
199
311
312
228
245
325
127
25
232
303
229
305
215
154
155
7
37
223
291
119
159
326
248
308
188
319
217
210

>  <PUBCHEM_MMFF94_PARTIAL_CHARGES>  (1) 
12
1 -0.43
11 0.06
12 0.06
13 0.66
14 0.45
15 0.28
16 0.28
2 -0.57
3 -0.57
33 0.06
38 0.4
4 -0.68

>  <PUBCHEM_EFFECTIVE_ROTOR_COUNT>  (1) 
12

>  <PUBCHEM_PHARMACOPHORE_FEATURES>  (1) 
4
1 2 acceptor
1 3 acceptor
1 4 acceptor
1 4 donor

>  <PUBCHEM_HEAVY_ATOM_COUNT>  (1) 
16

>  <PUBCHEM_ATOM_DEF_STEREO_COUNT>  (1) 
0

>  <PUBCHEM_ATOM_UDEF_STEREO_COUNT>  (1) 
0

>  <PUBCHEM_BOND_DEF_STEREO_COUNT>  (1) 
0

>  <PUBCHEM_BOND_UDEF_STEREO_COUNT>  (1) 
0

>  <PUBCHEM_ISOTOPIC_ATOM_COUNT>  (1) 
0

>  <PUBCHEM_COMPONENT_COUNT>  (1) 
1

>  <PUBCHEM_CACTVS_TAUTO_COUNT>  (1) 
2

>  <PUBCHEM_CONFORMER_ID>  (1) 
000054F200000001

>  <PUBCHEM_MMFF94_ENERGY>  (1) 
6.7145

>  <PUBCHEM_FEATURE_SELFOVERLAP>  (1) 
20.297

>  <PUBCHEM_SHAPE_FINGERPRINT>  (1) 
10066227 49 10231490600532043988
10968037 39 18343863325582899255
11315181 36 18131072637341951737
11638347 137 16298378051429685208
12091667 2 18272369781342401195
13073987 5 15936957544806785725
13533116 47 17346036671410265510
14123256 10 18059856168786798488
14251764 18 18412543215130545849
14251764 46 18411417311514285458
14729087 3 18186798055290499917
155225 1 18335984264361998276
17093844 174 17675926496231239969
17834076 25 18413669114678757322
18006028 8 15267341821202532371
195137 175 17988650679423770401
20281389 69 17749385953670664660
20621476 8 18411419483849943494
20735858 18 13695867030084134968
21130983 4 18334013899645860820
21150785 3 18202563990568957611
21315759 40 9511462242738788343
220451 1 17203604883128724743
22224240 67 16877941654746469083
23402539 116 17917986179982670991
23521765 1 18342174470915952123
246663 6 11023832786221820464
33684 2 18343018887187636218
4073 2 18187651335541675171
42788 4 18413106156420238051
4325135 7 18342176669775859436
4463277 17 18413669102495378009
59567204 34 17917433069932175169
59755656 215 13542473059218651940
67123 10 18409448107579424479
8209 1 18411136939399846250

>  <PUBCHEM_SHAPE_MULTIPOLES>  (1) 
305.8
25.22
1.14
0.64
11.37
0.05
0.01
7.46
0.78
-0.76
0.1
-0.17
0.03
-0.41

>  <PUBCHEM_SHAPE_SELFOVERLAP>  (1) 
564.583

>  <PUBCHEM_SHAPE_VOLUME>  (1) 
191.5

>  <PUBCHEM_COORDINATE_TYPE>  (1) 
2
5
10

$$$$
