21752
     RDKit          3D

  9  9  0  0  0  0  0  0  0  0999 V2000
    3.0772   -0.9696    0.0001 I   0  0  0  0  0  0  0  0  0  0  0  0
   -3.0773   -0.9695    0.0002 I   0  0  0  0  0  0  0  0  0  0  0  0
   -0.0001   -2.0063   -0.0006 O   0  0  0  0  0  0  0  0  0  0  0  0
    0.0000    2.0160   -0.0002 N   0  0  0  0  0  0  0  0  0  0  0  0
    0.0000   -0.7787    0.0003 C   0  0  0  0  0  0  0  0  0  0  0  0
    1.2877    0.0079    0.0002 C   0  0  0  0  0  0  0  0  0  0  0  0
   -1.2877    0.0079    0.0002 C   0  0  0  0  0  0  0  0  0  0  0  0
    1.1910    1.3461    0.0000 C   0  0  0  0  0  0  0  0  0  0  0  0
   -1.1909    1.3463   -0.0002 C   0  0  0  0  0  0  0  0  0  0  0  0
  1  6  1  0
  2  7  1  0
  3  5  2  0
  4  8  1  0
  4  9  1  0
  5  6  1  0
  5  7  1  0
  6  8  2  0
  7  9  2  0
M  END
>  <PUBCHEM_COMPOUND_CID>  (1) 
21752

>  <PUBCHEM_CONFORMER_RMSD>  (1) 
0.4

>  <PUBCHEM_CONFORMER_DIVERSEORDER>  (1) 
1

>  <PUBCHEM_MMFF94_PARTIAL_CHARGES>  (1) 
12
1 -0.09
10 0.15
11 0.15
12 0.4
2 -0.09
3 -0.57
4 -0.6
5 0.54
6 0.1
7 0.1
8 -0.05
9 -0.05

>  <PUBCHEM_EFFECTIVE_ROTOR_COUNT>  (1) 
0

>  <PUBCHEM_PHARMACOPHORE_FEATURES>  (1) 
6
1 1 hydrophobe
1 2 hydrophobe
1 3 acceptor
1 4 cation
1 4 donor
6 4 5 6 7 8 9 rings

>  <PUBCHEM_HEAVY_ATOM_COUNT>  (1) 
9

>  <PUBCHEM_ATOM_DEF_STEREO_COUNT>  (1) 
0

>  <PUBCHEM_ATOM_UDEF_STEREO_COUNT>  (1) 
0

>  <PUBCHEM_BOND_DEF_STEREO_COUNT>  (1) 
0

>  <PUBCHEM_BOND_UDEF_STEREO_COUNT>  (1) 
0

>  <PUBCHEM_ISOTOPIC_ATOM_COUNT>  (1) 
0

>  <PUBCHEM_COMPONENT_COUNT>  (1) 
1

>  <PUBCHEM_CACTVS_TAUTO_COUNT>  (1) 
3

>  <PUBCHEM_CONFORMER_ID>  (1) 
000054F800000001

>  <PUBCHEM_MMFF94_ENERGY>  (1) 
20.3943

>  <PUBCHEM_FEATURE_SELFOVERLAP>  (1) 
30.446

>  <PUBCHEM_SHAPE_FINGERPRINT>  (1) 
12032990 46 18410860961981716195
14128692 85 18411703196488635078
16945 1 18410573985151613542
20871998 184 18201433623901662086
20871998 22 18271254832494699535
21040471 1 17834396005221587173
23552423 10 18260553290464273222
241688 4 18410855430063631417
2748010 2 18410282618865415221
5084963 1 18201719552432268019

>  <PUBCHEM_SHAPE_MULTIPOLES>  (1) 
198.24
4.42
2.03
0.67
0
0.46
0
-2.27
0
0
0
0
-0.06
0

>  <PUBCHEM_SHAPE_SELFOVERLAP>  (1) 
366.361

>  <PUBCHEM_SHAPE_VOLUME>  (1) 
130.2

>  <PUBCHEM_COORDINATE_TYPE>  (1) 
2
5
10

$$$$
