2176
     RDKit          3D

 31 33  0  0  1  0  0  0  0  0999 V2000
    2.0288   -1.5834    1.5775 S   0  0  0  0  0  0  0  0  0  0  0  0
    1.3242    1.0660   -1.7506 O   0  0  0  0  0  0  0  0  0  0  0  0
    1.4185   -0.5393    2.3783 O   0  0  0  0  0  0  0  0  0  0  0  0
    2.5591   -2.7854    2.1909 O   0  0  0  0  0  0  0  0  0  0  0  0
   -0.2934    2.0212   -0.3000 O   0  0  0  0  0  0  0  0  0  0  0  0
   -1.0427   -0.4381   -2.1341 O   0  0  0  0  0  0  0  0  0  0  0  0
   -1.9653    2.6817    0.9734 O   0  0  0  0  0  0  0  0  0  0  0  0
   -0.2902    4.1881    0.4897 O   0  0  0  0  0  0  0  0  0  0  0  0
    0.9758   -2.0198    0.2797 N   0  0  0  0  0  0  0  0  0  0  0  0
   -1.6365   -1.4270   -0.0809 N   0  0  0  0  0  0  0  0  0  0  0  0
   -3.6946   -2.1172    0.8578 N   0  0  0  0  0  0  0  0  0  0  0  0
    3.3264   -0.8141    0.6765 C   0  0  0  0  0  0  0  0  0  0  0  0
    2.9799   -0.1147   -0.4856 C   0  0  0  0  0  0  0  0  0  0  0  0
    0.6214   -0.9086   -0.5681 C   0  0  0  0  0  0  0  0  0  0  0  0
    1.5673   -0.0165   -0.9261 C   0  0  0  0  0  0  0  0  0  0  0  0
    4.6426   -0.9332    1.1195 C   0  0  0  0  0  0  0  0  0  0  0  0
    4.0195    0.4945   -1.2028 C   0  0  0  0  0  0  0  0  0  0  0  0
    1.2976   -3.2819   -0.4480 C   0  0  0  0  0  0  0  0  0  0  0  0
   -0.7711   -0.8933   -1.0252 C   0  0  0  0  0  0  0  0  0  0  0  0
    5.6560   -0.3230    0.3874 C   0  0  0  0  0  0  0  0  0  0  0  0
    5.3460    0.3901   -0.7700 C   0  0  0  0  0  0  0  0  0  0  0  0
    0.9543    2.2165   -1.0001 C   0  0  0  0  0  0  0  0  0  0  0  0
    0.7680    3.3321   -2.0217 C   0  0  0  0  0  0  0  0  0  0  0  0
   -3.0419   -1.5696   -0.1818 C   0  0  0  0  0  0  0  0  0  0  0  0
   -3.6295   -1.1317   -1.3489 C   0  0  0  0  0  0  0  0  0  0  0  0
   -0.7961    3.0780    0.3970 C   0  0  0  0  0  0  0  0  0  0  0  0
   -5.0090   -1.2678   -1.4583 C   0  0  0  0  0  0  0  0  0  0  0  0
   -5.0339   -2.2334    0.7152 C   0  0  0  0  0  0  0  0  0  0  0  0
   -5.7319   -1.8282   -0.4110 C   0  0  0  0  0  0  0  0  0  0  0  0
   -2.6390    3.6765    1.7516 C   0  0  0  0  0  0  0  0  0  0  0  0
   -3.9103    3.0815    2.3185 C   0  0  0  0  0  0  0  0  0  0  0  0
  1  3  2  0
  1  4  2  0
  1  9  1  0
  1 12  1  0
  2 15  1  0
  2 22  1  0
  5 22  1  0
  5 26  1  0
  6 19  2  0
  7 26  1  0
  7 30  1  0
  8 26  2  0
  9 14  1  0
  9 18  1  0
 10 19  1  0
 10 24  1  0
 11 24  2  0
 11 28  1  0
 12 13  2  0
 12 16  1  0
 13 15  1  0
 13 17  1  0
 14 15  2  0
 14 19  1  0
 16 20  2  0
 17 21  2  0
 20 21  1  0
 22 23  1  0
 24 25  1  0
 25 27  2  0
 27 29  1  0
 28 29  2  0
 30 31  1  0
M  END
>  <PUBCHEM_COMPOUND_CID>  (1) 
2176

>  <PUBCHEM_CONFORMER_RMSD>  (1) 
1

>  <PUBCHEM_CONFORMER_DIVERSEORDER>  (1) 
1
49
25
70
10
43
80
59
33
69
77
2
44
39
34
62
73
63
47
53
35
3
22
50
5
31
71
40
46
81
14
36
51
32
24
4
86
55
37
11
79
57
58
19
66
42
61
84
18
83
26
13
9
54
67
41
76
64
7
85
38
78
30
15
23
29
75
27
12
8
6
16
48
72
21
45
28
82
65
60
52
56
68
20
17
74

>  <PUBCHEM_MMFF94_PARTIAL_CHARGES>  (1) 
38
1 1.45
10 -0.55
11 -0.62
12 -0.01
13 0.03
14 0.21
15 0.05
16 -0.15
17 -0.15
18 0.36
19 0.62
2 -0.36
20 -0.15
21 -0.15
22 0.56
24 0.43
25 -0.15
26 0.87
27 -0.15
28 0.16
29 -0.15
3 -0.65
30 0.28
32 0.15
33 0.15
37 0.15
38 0.15
4 -0.65
40 0.37
44 0.15
45 0.15
46 0.15
47 0.15
5 -0.43
6 -0.57
7 -0.43
8 -0.57
9 -0.68

>  <PUBCHEM_EFFECTIVE_ROTOR_COUNT>  (1) 
9.2

>  <PUBCHEM_PHARMACOPHORE_FEATURES>  (1) 
9
1 10 donor
1 11 acceptor
1 2 acceptor
1 3 acceptor
1 4 acceptor
1 6 acceptor
6 1 9 12 13 14 15 rings
6 11 24 25 27 28 29 rings
6 12 13 16 17 20 21 rings

>  <PUBCHEM_HEAVY_ATOM_COUNT>  (1) 
31

>  <PUBCHEM_ATOM_DEF_STEREO_COUNT>  (1) 
0

>  <PUBCHEM_ATOM_UDEF_STEREO_COUNT>  (1) 
1

>  <PUBCHEM_BOND_DEF_STEREO_COUNT>  (1) 
0

>  <PUBCHEM_BOND_UDEF_STEREO_COUNT>  (1) 
0

>  <PUBCHEM_ISOTOPIC_ATOM_COUNT>  (1) 
0

>  <PUBCHEM_COMPONENT_COUNT>  (1) 
1

>  <PUBCHEM_CACTVS_TAUTO_COUNT>  (1) 
3

>  <PUBCHEM_CONFORMER_ID>  (1) 
0000088000000001

>  <PUBCHEM_MMFF94_ENERGY>  (1) 
95.0446

>  <PUBCHEM_FEATURE_SELFOVERLAP>  (1) 
45.712

>  <PUBCHEM_SHAPE_FINGERPRINT>  (1) 
1100329 8 18119248617207474534
11421498 54 18412262839328457475
11578080 2 16987738795712234273
11646440 116 18338802332904084483
12166972 35 18261953080604387207
12293681 4 18266192788382165027
12788726 201 18269572674536322340
13782708 43 17274553035801316318
13899415 154 18336549424946599862
14068700 675 18271514399270176469
14464042 87 18409168826655645462
14955137 171 18339083816576536622
15131766 46 15695442322108303056
18681886 176 17984979547105511079
21033648 29 17131824370368821419
23559900 14 17532362266117406391
2818148 4 18118963594946285098
3052486 1 18343027661705816049
345986 75 18337091428571242099
35225 105 17771038532961321249
469060 322 17895189979007102372
7471813 234 18270959171599453133

>  <PUBCHEM_SHAPE_MULTIPOLES>  (1) 
585.79
10.51
4.63
2.08
2.78
5.03
-0.48
-5.6
-0.84
4.14
-1.59
0.28
0.71
-3.29

>  <PUBCHEM_SHAPE_SELFOVERLAP>  (1) 
1238.814

>  <PUBCHEM_SHAPE_VOLUME>  (1) 
328.6

>  <PUBCHEM_COORDINATE_TYPE>  (1) 
2
5
10

$$$$
