21772
     RDKit          3D

 22 24  0  0  1  0  0  0  0  0999 V2000
    3.2785    1.8122    0.9693 N   0  0  0  0  0  0  0  0  0  0  0  0
   -0.3822    0.1787   -0.7871 C   0  0  0  0  0  0  0  0  0  0  0  0
    0.7302    1.1352   -0.3299 C   0  0  0  0  0  0  0  0  0  0  0  0
    2.0864    0.8516   -0.9972 C   0  0  0  0  0  0  0  0  0  0  0  0
   -0.0377   -1.2749   -0.5102 C   0  0  0  0  0  0  0  0  0  0  0  0
   -1.7611    0.6771   -0.3643 C   0  0  0  0  0  0  0  0  0  0  0  0
   -0.0854   -1.8429    0.7727 C   0  0  0  0  0  0  0  0  0  0  0  0
   -2.4787    0.2959    0.7868 C   0  0  0  0  0  0  0  0  0  0  0  0
    3.1661    1.8267   -0.4857 C   0  0  0  0  0  0  0  0  0  0  0  0
   -0.5799   -1.0573    1.9534 C   0  0  0  0  0  0  0  0  0  0  0  0
   -2.0596   -0.7314    1.8147 C   0  0  0  0  0  0  0  0  0  0  0  0
    2.0057    0.9531   -2.5246 C   0  0  0  0  0  0  0  0  0  0  0  0
    0.4014   -2.0768   -1.5832 C   0  0  0  0  0  0  0  0  0  0  0  0
   -2.3407    1.6495   -1.2185 C   0  0  0  0  0  0  0  0  0  0  0  0
    0.2992   -3.1835    0.9560 C   0  0  0  0  0  0  0  0  0  0  0  0
   -3.7541    0.8689    1.0116 C   0  0  0  0  0  0  0  0  0  0  0  0
    0.7778   -3.4059   -1.3903 C   0  0  0  0  0  0  0  0  0  0  0  0
   -3.5916    2.2105   -0.9682 C   0  0  0  0  0  0  0  0  0  0  0  0
    0.7282   -3.9597   -0.1182 C   0  0  0  0  0  0  0  0  0  0  0  0
   -4.3036    1.8153    0.1502 C   0  0  0  0  0  0  0  0  0  0  0  0
    4.2754    2.7853    1.4178 C   0  0  0  0  0  0  0  0  0  0  0  0
    3.6258    0.4724    1.4451 C   0  0  0  0  0  0  0  0  0  0  0  0
  1  9  1  0
  1 21  1  0
  1 22  1  0
  2  3  1  0
  2  5  1  0
  2  6  1  0
  3  4  1  0
  4  9  1  0
  4 12  1  0
  5  7  2  0
  5 13  1  0
  6  8  2  0
  6 14  1  0
  7 10  1  0
  7 15  1  0
  8 11  1  0
  8 16  1  0
 10 11  1  0
 13 17  2  0
 14 18  2  0
 15 19  2  0
 16 20  2  0
 17 19  1  0
 18 20  1  0
M  END
>  <PUBCHEM_COMPOUND_CID>  (1) 
21772

>  <PUBCHEM_CONFORMER_RMSD>  (1) 
0.8

>  <PUBCHEM_CONFORMER_DIVERSEORDER>  (1) 
1
4
9
12
7
5
6
10
2
11
3
8

>  <PUBCHEM_MMFF94_PARTIAL_CHARGES>  (1) 
27
1 -0.81
10 0.14
11 0.14
13 -0.15
14 -0.15
15 -0.15
16 -0.15
17 -0.15
18 -0.15
19 -0.15
2 0.29
20 -0.15
21 0.27
22 0.27
36 0.15
37 0.15
38 0.15
39 0.15
40 0.15
41 0.15
42 0.15
43 0.15
5 -0.14
6 -0.14
7 -0.14
8 -0.14
9 0.27

>  <PUBCHEM_EFFECTIVE_ROTOR_COUNT>  (1) 
4.6

>  <PUBCHEM_PHARMACOPHORE_FEATURES>  (1) 
5
1 1 cation
1 12 hydrophobe
6 5 7 13 15 17 19 rings
6 6 8 14 16 18 20 rings
7 2 5 6 7 8 10 11 rings

>  <PUBCHEM_HEAVY_ATOM_COUNT>  (1) 
22

>  <PUBCHEM_ATOM_DEF_STEREO_COUNT>  (1) 
0

>  <PUBCHEM_ATOM_UDEF_STEREO_COUNT>  (1) 
1

>  <PUBCHEM_BOND_DEF_STEREO_COUNT>  (1) 
0

>  <PUBCHEM_BOND_UDEF_STEREO_COUNT>  (1) 
0

>  <PUBCHEM_ISOTOPIC_ATOM_COUNT>  (1) 
0

>  <PUBCHEM_COMPONENT_COUNT>  (1) 
1

>  <PUBCHEM_CACTVS_TAUTO_COUNT>  (1) 
1

>  <PUBCHEM_CONFORMER_ID>  (1) 
0000550C00000001

>  <PUBCHEM_MMFF94_ENERGY>  (1) 
71.9814

>  <PUBCHEM_FEATURE_SELFOVERLAP>  (1) 
25.386

>  <PUBCHEM_SHAPE_FINGERPRINT>  (1) 
10165383 225 17476417971412071340
10764073 3 16302854016361759952
12160290 23 17981344587280282935
12633257 1 16298381374927666272
12716301 132 18045247026434123710
12788726 201 17760084412241282094
12839892 36 18334856164671861875
13004483 165 17403450170740957506
13134695 92 17837210368225392119
13140716 1 18411134719112919706
13681431 1 17836657318145279214
14251764 3 18341902882901469172
14955137 171 16899919488264512705
16945 1 16811839948035636431
17980427 26 17199991861812198538
1813 80 16839390341883258311
19765921 60 17489582368265242409
20600515 1 16828908014930755077
21033648 29 18341331180032169272
21120745 212 17256536738425918524
21304303 282 17911484852545880895
21524375 3 18410851100889382701
21731228 192 18336260223434350424
22182313 1 17677629570780776937
23419403 2 17979394947069239243
23559900 14 17896899655094661013
23598288 3 17534916482577246756
23728640 28 18191853738129064898
2748010 2 17536640366876361659
35225 105 18054789748086889034
394222 165 17846213298456480189
484985 159 15577205144391699448
4921388 177 8212217731039996400
495365 180 18340210687129728541
5265222 85 18118430508343202244
633830 44 17560539333957887697
7097593 13 16950281862138781416
7364860 26 18194122902310891967
81228 2 17764882680858367638
84936 31 18056466258247726055
90316 7 17545894083899440658
9862522 239 18334291015373125977

>  <PUBCHEM_SHAPE_MULTIPOLES>  (1) 
447.77
6.35
4.17
2.02
1.06
3.97
-0.15
-8.06
1.96
-2.46
-0.28
-0.8
0
1.54

>  <PUBCHEM_SHAPE_SELFOVERLAP>  (1) 
946.477

>  <PUBCHEM_SHAPE_VOLUME>  (1) 
248.3

>  <PUBCHEM_COORDINATE_TYPE>  (1) 
2
5
10

$$$$
