2177
     RDKit          3D

 35 37  0  0  1  0  0  0  0  0999 V2000
    3.3438    1.7210    0.2786 S   0  0  0  0  0  0  0  0  0  0  0  0
   -0.0790    1.8388   -2.4406 O   0  0  0  0  0  0  0  0  0  0  0  0
   -2.5226   -2.0292   -0.7373 O   0  0  0  0  0  0  0  0  0  0  0  0
   -5.0110   -3.7773   -0.6863 O   0  0  0  0  0  0  0  0  0  0  0  0
    2.3985    2.4150    1.1338 O   0  0  0  0  0  0  0  0  0  0  0  0
    4.5194    2.4227   -0.2025 O   0  0  0  0  0  0  0  0  0  0  0  0
   -1.7961   -1.0307    1.1992 O   0  0  0  0  0  0  0  0  0  0  0  0
    2.5016    1.0218   -1.0561 N   0  0  0  0  0  0  0  0  0  0  0  0
   -1.7854    0.0842   -0.8344 N   0  0  0  0  0  0  0  0  0  0  0  0
    5.2514   -3.0780    3.2759 N   0  0  0  0  0  0  0  0  0  0  0  0
    0.1166    1.6430   -1.0401 C   0  0  0  0  0  0  0  0  0  0  0  0
   -1.2457    1.3481   -0.3743 C   0  0  0  0  0  0  0  0  0  0  0  0
    1.1290    0.5156   -0.8214 C   0  0  0  0  0  0  0  0  0  0  0  0
    3.2721    0.1430   -1.9743 C   0  0  0  0  0  0  0  0  0  0  0  0
   -2.2966    2.4501   -0.6103 C   0  0  0  0  0  0  0  0  0  0  0  0
    2.7539    0.2311   -3.4148 C   0  0  0  0  0  0  0  0  0  0  0  0
   -2.8091   -3.2186   -0.0096 C   0  0  0  0  0  0  0  0  0  0  0  0
   -3.4470    2.4177    0.3648 C   0  0  0  0  0  0  0  0  0  0  0  0
    3.4564   -0.7640   -4.3395 C   0  0  0  0  0  0  0  0  0  0  0  0
    2.8470    1.6492   -3.9800 C   0  0  0  0  0  0  0  0  0  0  0  0
   -2.7392   -4.3994   -0.9456 C   0  0  0  0  0  0  0  0  0  0  0  0
    3.9088    0.2968    1.1667 C   0  0  0  0  0  0  0  0  0  0  0  0
   -4.2642   -3.2280    0.4130 C   0  0  0  0  0  0  0  0  0  0  0  0
   -2.0126   -0.9925   -0.0075 C   0  0  0  0  0  0  0  0  0  0  0  0
   -4.0914   -4.3454   -1.6284 C   0  0  0  0  0  0  0  0  0  0  0  0
   -4.5854    1.6652    0.0757 C   0  0  0  0  0  0  0  0  0  0  0  0
   -3.3723    3.1398    1.5560 C   0  0  0  0  0  0  0  0  0  0  0  0
    5.1524   -0.2615    0.8708 C   0  0  0  0  0  0  0  0  0  0  0  0
    3.1108   -0.2660    2.1629 C   0  0  0  0  0  0  0  0  0  0  0  0
   -5.6492    1.6351    0.9774 C   0  0  0  0  0  0  0  0  0  0  0  0
   -4.4361    3.1095    2.4577 C   0  0  0  0  0  0  0  0  0  0  0  0
    5.5983   -1.3822    1.5712 C   0  0  0  0  0  0  0  0  0  0  0  0
    3.5567   -1.3869    2.8634 C   0  0  0  0  0  0  0  0  0  0  0  0
    4.8005   -1.9449    2.5675 C   0  0  0  0  0  0  0  0  0  0  0  0
   -5.5745    2.3571    2.1683 C   0  0  0  0  0  0  0  0  0  0  0  0
  1  5  2  0
  1  6  2  0
  1  8  1  0
  1 22  1  0
  2 11  1  0
  3 17  1  0
  3 24  1  0
  4 23  1  0
  4 25  1  0
  7 24  2  0
  8 13  1  0
  8 14  1  0
  9 12  1  0
  9 24  1  0
 10 34  1  0
 11 12  1  0
 11 13  1  0
 12 15  1  0
 14 16  1  0
 15 18  1  0
 16 19  1  0
 16 20  1  0
 17 21  1  0
 17 23  1  0
 18 26  2  0
 18 27  1  0
 21 25  1  0
 22 28  2  0
 22 29  1  0
 26 30  1  0
 27 31  2  0
 28 32  1  0
 29 33  2  0
 30 35  2  0
 31 35  1  0
 32 34  2  0
 33 34  1  0
M  END
>  <PUBCHEM_COMPOUND_CID>  (1) 
2177

>  <PUBCHEM_CONFORMER_RMSD>  (1) 
1.6

>  <PUBCHEM_CONFORMER_DIVERSEORDER>  (1) 
1
83
53
16
64
108
18
44
82
88
104
106
46
79
12
109
21
111
113
47
54
40
95
92
75
49
50
41
23
107
74
70
94
81
61
65
116
72
58
2
63
31
100
39
22
24
15
45
77
9
89
76
112
34
103
60
101
86
26
25
56
68
84
29
17
30
14
67
57
115
48
114
96
43
93
27
19
42
3
80
5
90
52
78
32
59
102
98
105
71
28
55
4
37
110
13
91
87
85
62
69
36
38
51
33
35
20
10
11
99
7
6
8
73
66
97

>  <PUBCHEM_MMFF94_PARTIAL_CHARGES>  (1) 
44
1 1.45
10 -0.9
11 0.28
12 0.3
13 0.36
14 0.36
15 0.14
17 0.28
18 -0.14
2 -0.68
22 -0.01
23 0.28
24 0.78
25 0.28
26 -0.15
27 -0.15
28 -0.15
29 -0.15
3 -0.43
30 -0.15
31 -0.15
32 -0.15
33 -0.15
34 0.1
35 -0.15
4 -0.56
45 0.37
5 -0.65
55 0.4
6 -0.65
60 0.15
61 0.15
62 0.15
63 0.15
64 0.15
65 0.15
66 0.15
67 0.15
68 0.15
69 0.4
7 -0.57
70 0.4
8 -0.85
9 -0.73

>  <PUBCHEM_EFFECTIVE_ROTOR_COUNT>  (1) 
14

>  <PUBCHEM_PHARMACOPHORE_FEATURES>  (1) 
13
1 10 cation
1 10 donor
1 2 acceptor
1 2 donor
1 4 acceptor
1 5 acceptor
1 6 acceptor
1 7 acceptor
1 9 donor
3 16 19 20 hydrophobe
5 4 17 21 23 25 rings
6 18 26 27 30 31 35 rings
6 22 28 29 32 33 34 rings

>  <PUBCHEM_HEAVY_ATOM_COUNT>  (1) 
35

>  <PUBCHEM_ATOM_DEF_STEREO_COUNT>  (1) 
0

>  <PUBCHEM_ATOM_UDEF_STEREO_COUNT>  (1) 
3

>  <PUBCHEM_BOND_DEF_STEREO_COUNT>  (1) 
0

>  <PUBCHEM_BOND_UDEF_STEREO_COUNT>  (1) 
0

>  <PUBCHEM_ISOTOPIC_ATOM_COUNT>  (1) 
0

>  <PUBCHEM_COMPONENT_COUNT>  (1) 
1

>  <PUBCHEM_CACTVS_TAUTO_COUNT>  (1) 
2

>  <PUBCHEM_CONFORMER_ID>  (1) 
0000088100000001

>  <PUBCHEM_MMFF94_ENERGY>  (1) 
77.2672

>  <PUBCHEM_FEATURE_SELFOVERLAP>  (1) 
65.993

>  <PUBCHEM_SHAPE_FINGERPRINT>  (1) 
10622 236 18116135831096319571
11069576 57 17678443385152384630
11135926 11 16443924885138384422
11445158 3 15792313504412790666
11763715 3 18113052757605627932
12422481 6 18043809780000363857
12549972 3 17202781301373829548
12633257 1 18339631240470849464
12788726 201 18123198058927151543
13692114 37 18130230355352827503
13726171 33 17986969616318661016
15320294 125 18118674427097436203
17809404 112 16487252158063068880
19319366 153 17098377269353902100
244849 19 17060066921118684431
25222932 49 17473534128723151310
44880168 125 17830147144795896746
463206 1 17683511102468681698
5081480 168 14201389474133964750
508180 173 15263712169789057364
5912855 24 18335983185090239864
613672 6 17769944798676878471
6679774 75 17972056755285109843
9658208 31 17987257555141276813

>  <PUBCHEM_SHAPE_MULTIPOLES>  (1) 
673.97
13.77
5.31
3.98
0.59
5.99
-2.61
1.12
8.34
10.11
0.41
-7.6
0.42
-5.92

>  <PUBCHEM_SHAPE_SELFOVERLAP>  (1) 
1383.928

>  <PUBCHEM_SHAPE_VOLUME>  (1) 
389.5

>  <PUBCHEM_COORDINATE_TYPE>  (1) 
2
5
10

$$$$
