21781
     RDKit          3D

 16 16  0  0  1  0  0  0  0  0999 V2000
   -1.7569   -0.4425   -0.3041 O   0  0  0  0  0  0  0  0  0  0  0  0
    1.7554   -0.4420    0.3011 O   0  0  0  0  0  0  0  0  0  0  0  0
    0.0006    3.4288    0.0019 O   0  0  0  0  0  0  0  0  0  0  0  0
   -0.8047    1.3680    0.7890 N   0  0  0  0  0  0  0  0  0  0  0  0
    0.8054    1.3688   -0.7896 N   0  0  0  0  0  0  0  0  0  0  0  0
   -0.6219   -0.0195    0.4396 C   0  0  0  0  0  0  0  0  0  0  0  0
    0.6226   -0.0190   -0.4414 C   0  0  0  0  0  0  0  0  0  0  0  0
    0.0003    2.2056    0.0001 C   0  0  0  0  0  0  0  0  0  0  0  0
   -2.9313   -0.4517    0.4958 C   0  0  0  0  0  0  0  0  0  0  0  0
    2.9319   -0.4510   -0.4975 C   0  0  0  0  0  0  0  0  0  0  0  0
   -4.1004   -0.9315   -0.3525 C   0  0  0  0  0  0  0  0  0  0  0  0
    4.0996   -0.9318    0.3524 C   0  0  0  0  0  0  0  0  0  0  0  0
   -5.4028   -0.9509    0.4423 C   0  0  0  0  0  0  0  0  0  0  0  0
    5.4033   -0.9512   -0.4405 C   0  0  0  0  0  0  0  0  0  0  0  0
   -6.5755   -1.3895   -0.4201 C   0  0  0  0  0  0  0  0  0  0  0  0
    6.5744   -1.3906    0.4236 C   0  0  0  0  0  0  0  0  0  0  0  0
  1  6  1  0
  1  9  1  0
  2  7  1  0
  2 10  1  0
  3  8  2  0
  4  6  1  0
  4  8  1  0
  5  7  1  0
  5  8  1  0
  6  7  1  0
  9 11  1  0
 10 12  1  0
 11 13  1  0
 12 14  1  0
 13 15  1  0
 14 16  1  0
M  END
>  <PUBCHEM_COMPOUND_CID>  (1) 
21781

>  <PUBCHEM_CONFORMER_RMSD>  (1) 
0.8

>  <PUBCHEM_CONFORMER_DIVERSEORDER>  (1) 
1
175
56
125
148
7
81
21
145
140
99
115
156
61
57
174
4
39
95
9
2
138
59
169
101
129
74
116
58
54
130
8
112
127
91
131
28
86
141
3
31
160
179
122
43
123
5
13
120
134
51
89
34
173
142
113
75
36
53
40
41
171
121
150
178
38
65
105
161
90
114
76
55
19
132
165
80
133
24
154
167
71
27
70
6
110
63
20
49
119
16
82
25
135
69
117
152
146
103
124
64
149
155
48
111
93
164
126
42
37
26
177
12
104
85
139
97
14
30
107
143
67
79
22
109
11
176
166
32
159
163
94
68
78
10
136
92
72
147
77
15
137
29
60
118
108
17
162
168
45
46
88
153
33
158
66
44
50
128
180
35
172
102
87
151
23
170
96
144
73
62
84
52
83
98
157
100
18
106
47

>  <PUBCHEM_MMFF94_PARTIAL_CHARGES>  (1) 
12
1 -0.56
10 0.28
19 0.37
2 -0.56
20 0.37
3 -0.57
4 -0.73
5 -0.73
6 0.58
7 0.58
8 0.69
9 0.28

>  <PUBCHEM_EFFECTIVE_ROTOR_COUNT>  (1) 
8.8

>  <PUBCHEM_PHARMACOPHORE_FEATURES>  (1) 
8
1 1 acceptor
1 15 hydrophobe
1 16 hydrophobe
1 2 acceptor
1 3 acceptor
1 4 donor
1 5 donor
5 4 5 6 7 8 rings

>  <PUBCHEM_HEAVY_ATOM_COUNT>  (1) 
16

>  <PUBCHEM_ATOM_DEF_STEREO_COUNT>  (1) 
0

>  <PUBCHEM_ATOM_UDEF_STEREO_COUNT>  (1) 
2

>  <PUBCHEM_BOND_DEF_STEREO_COUNT>  (1) 
0

>  <PUBCHEM_BOND_UDEF_STEREO_COUNT>  (1) 
0

>  <PUBCHEM_ISOTOPIC_ATOM_COUNT>  (1) 
0

>  <PUBCHEM_COMPONENT_COUNT>  (1) 
1

>  <PUBCHEM_CACTVS_TAUTO_COUNT>  (1) 
2

>  <PUBCHEM_CONFORMER_ID>  (1) 
0000551500000001

>  <PUBCHEM_MMFF94_ENERGY>  (1) 
22.8795

>  <PUBCHEM_FEATURE_SELFOVERLAP>  (1) 
40.659

>  <PUBCHEM_SHAPE_FINGERPRINT>  (1) 
100836 57 9799690402708773242
10753850 27 18186516596866008474
11265709 11 18411140233697966505
12841375 25 18410575097701046085
13740256 8 18335986458187927075
13862211 1 18410575084663670054
18006028 8 18410572885808829878
1813 80 18200607941886920260
18222031 100 18413389851705214610
187816 3 17894633647265663218
19784866 240 18411706504188673755
200 152 18113337484014518494
20281389 69 10447929451959780926
204376 136 9727635003425208437
20645477 70 18339644572508200535
21267235 1 18410862057198311714
21426921 1 18265896844198587092
22079108 93 15769768057735846686
22224240 67 10663817482120573351
2297311 6 18200603501771554558
23402539 116 18412824655431137054
23559900 14 18042405901135728337
25147074 1 18266762266580653728
2916195 48 11314319372644162958
314173 85 18342469118272639906
351380 3 18410571790423857967
366044 4 9295286140467559236
59682541 52 13335006159240581442
68521 5 18335984164364180700
77188 2 18411419531253651108
8863177 126 17825401923245920635

>  <PUBCHEM_SHAPE_MULTIPOLES>  (1) 
301.7
14.35
2.23
0.79
0.01
2.72
0
-13.42
-0.01
0
0
0
-0.02
-0.42

>  <PUBCHEM_SHAPE_SELFOVERLAP>  (1) 
579.505

>  <PUBCHEM_SHAPE_VOLUME>  (1) 
186.5

>  <PUBCHEM_COORDINATE_TYPE>  (1) 
2
5
10

$$$$
