21788
     RDKit          3D

 23 25  0  0  0  0  0  0  0  0999 V2000
    0.1906    0.3996   -0.1714 O   0  0  0  0  0  0  0  0  0  0  0  0
   -0.6859    1.2068    1.8077 O   0  0  0  0  0  0  0  0  0  0  0  0
    3.8809    0.2238   -0.2183 N   0  0  0  0  0  0  0  0  0  0  0  0
   -2.1455    0.5736   -0.0122 C   0  0  0  0  0  0  0  0  0  0  0  0
   -2.2493   -0.9193   -0.3185 C   0  0  0  0  0  0  0  0  0  0  0  0
   -3.2851    0.9945    0.9338 C   0  0  0  0  0  0  0  0  0  0  0  0
   -2.1847    1.3811   -1.3226 C   0  0  0  0  0  0  0  0  0  0  0  0
   -3.5580   -1.2314   -1.0567 C   0  0  0  0  0  0  0  0  0  0  0  0
   -2.1382   -1.7458    0.9699 C   0  0  0  0  0  0  0  0  0  0  0  0
   -3.3542    2.5071    1.1482 C   0  0  0  0  0  0  0  0  0  0  0  0
   -2.2619    2.8906   -1.0904 C   0  0  0  0  0  0  0  0  0  0  0  0
   -3.7101   -2.7266   -1.3272 C   0  0  0  0  0  0  0  0  0  0  0  0
   -2.2925   -3.2402    0.6959 C   0  0  0  0  0  0  0  0  0  0  0  0
   -3.4222    3.2618   -0.1743 C   0  0  0  0  0  0  0  0  0  0  0  0
   -3.5902   -3.5454   -0.0456 C   0  0  0  0  0  0  0  0  0  0  0  0
   -0.8145    0.7733    0.6708 C   0  0  0  0  0  0  0  0  0  0  0  0
    1.5152    0.5387    0.3522 C   0  0  0  0  0  0  0  0  0  0  0  0
    2.5087    0.0825   -0.7044 C   0  0  0  0  0  0  0  0  0  0  0  0
    4.2201   -0.8797    0.6911 C   0  0  0  0  0  0  0  0  0  0  0  0
    4.8213    0.2912   -1.3457 C   0  0  0  0  0  0  0  0  0  0  0  0
    5.6359   -0.7209    1.2473 C   0  0  0  0  0  0  0  0  0  0  0  0
    6.2569    0.4886   -0.8559 C   0  0  0  0  0  0  0  0  0  0  0  0
    6.6626   -0.6042    0.1264 C   0  0  0  0  0  0  0  0  0  0  0  0
  1 16  1  0
  1 17  1  0
  2 16  2  0
  3 18  1  0
  3 19  1  0
  3 20  1  0
  4  5  1  0
  4  6  1  0
  4  7  1  0
  4 16  1  0
  5  8  1  0
  5  9  1  0
  6 10  1  0
  7 11  1  0
  8 12  1  0
  9 13  1  0
 10 14  1  0
 11 14  1  0
 12 15  1  0
 13 15  1  0
 17 18  1  0
 19 21  1  0
 20 22  1  0
 21 23  1  0
 22 23  1  0
M  END
>  <PUBCHEM_COMPOUND_CID>  (1) 
21788

>  <PUBCHEM_CONFORMER_RMSD>  (1) 
1

>  <PUBCHEM_CONFORMER_DIVERSEORDER>  (1) 
1
52
42
20
34
13
40
46
45
56
57
55
43
26
50
32
24
9
30
7
58
19
6
47
59
44
8
22
33
14
10
11
53
36
37
49
39
51
4
2
29
21
48
16
17
25
27
15
38
18
12
23
41
28
35
54
3
5
31

>  <PUBCHEM_MMFF94_PARTIAL_CHARGES>  (1) 
9
1 -0.43
16 0.66
17 0.28
18 0.27
19 0.27
2 -0.57
20 0.27
3 -0.81
4 0.06

>  <PUBCHEM_EFFECTIVE_ROTOR_COUNT>  (1) 
9.6

>  <PUBCHEM_PHARMACOPHORE_FEATURES>  (1) 
5
1 2 acceptor
1 3 cation
6 3 19 20 21 22 23 rings
6 4 6 7 10 11 14 rings
6 5 8 9 12 13 15 rings

>  <PUBCHEM_HEAVY_ATOM_COUNT>  (1) 
23

>  <PUBCHEM_ATOM_DEF_STEREO_COUNT>  (1) 
0

>  <PUBCHEM_ATOM_UDEF_STEREO_COUNT>  (1) 
0

>  <PUBCHEM_BOND_DEF_STEREO_COUNT>  (1) 
0

>  <PUBCHEM_BOND_UDEF_STEREO_COUNT>  (1) 
0

>  <PUBCHEM_ISOTOPIC_ATOM_COUNT>  (1) 
0

>  <PUBCHEM_COMPONENT_COUNT>  (1) 
1

>  <PUBCHEM_CACTVS_TAUTO_COUNT>  (1) 
1

>  <PUBCHEM_CONFORMER_ID>  (1) 
0000551C00000001

>  <PUBCHEM_MMFF94_ENERGY>  (1) 
33.0932

>  <PUBCHEM_FEATURE_SELFOVERLAP>  (1) 
25.373

>  <PUBCHEM_SHAPE_FINGERPRINT>  (1) 
10595046 47 18260832648549653860
10912923 1 18186238438215622460
11101153 10 18119819255521881148
11315181 36 18412823603812846532
11545043 162 17988922276138944482
11809386 21 18408879650861147762
11823591 26 18123467181773760425
12107183 9 17828192208894749874
12293681 160 17343493406673736865
12523318 42 18340757222192996002
12616971 3 17749394728916363888
12760667 363 18270116941493048351
12788726 201 18337941347160483307
13004483 165 18196934594325339639
13167823 11 18040719156505817058
13583140 156 18130493172664296574
13631057 29 18339359777147418434
14251740 79 18334569161819176299
14251764 30 17389393920077592731
14508225 48 18267013037494931629
15250474 111 18187353321410707682
15463212 79 18188204299806214313
17539 30 18340479058772915197
17844677 252 18202565116372914648
17857418 61 18187920708027999762
20101258 96 18265346160260326377
21424621 283 17557997143111148801
21703447 108 18196081377544489976
21728266 224 18409158927141435930
220451 1 18260556585353009682
2303208 19 17131565998543026470
23081809 10 17894633648278149108
23557571 272 18201729435458185868
23559900 14 18267010837865228696
3027735 51 18341894091177838923
3610482 184 17896060809538088940
4015057 19 16988261119570627232
44062 13 18411984646107031068
484985 159 17531256101258417243
497634 4 18261392277971096868
508706 21 18341343231636367390
5104073 3 18201719587525327512
531348 171 17386551467543916862
559249 180 18337103454732943210
57527306 92 16056324904576443857
5924683 9 18410008853571096758
59755656 520 18268988696665742669
77188 2 17980480384832744205

>  <PUBCHEM_SHAPE_MULTIPOLES>  (1) 
456.61
13.22
3.69
1.4
30.57
1.05
-0.03
2.48
1.17
-8.22
0.14
-0.18
-0.16
-1.18

>  <PUBCHEM_SHAPE_SELFOVERLAP>  (1) 
931.049

>  <PUBCHEM_SHAPE_VOLUME>  (1) 
260.8

>  <PUBCHEM_COORDINATE_TYPE>  (1) 
2
5
10

$$$$
