21783
     RDKit          3D

 17 17  0  0  0  0  0  0  0  0999 V2000
    3.3864    0.3354   -0.0284 O   0  0  0  0  0  0  0  0  0  0  0  0
    1.6166    2.4625   -0.1441 O   0  0  0  0  0  0  0  0  0  0  0  0
    2.4141   -2.2579   -0.0123 O   0  0  0  0  0  0  0  0  0  0  0  0
   -4.9308   -1.1681   -0.3695 O   0  0  0  0  0  0  0  0  0  0  0  0
   -5.3622    0.9775    0.3396 N   0  0  0  0  0  0  0  0  0  0  0  0
   -0.7054   -0.3602   -0.1776 C   0  0  0  0  0  0  0  0  0  0  0  0
    2.0431    0.1070   -0.0769 C   0  0  0  0  0  0  0  0  0  0  0  0
    1.1549    1.1809   -0.1353 C   0  0  0  0  0  0  0  0  0  0  0  0
    1.5572   -1.2004   -0.0689 C   0  0  0  0  0  0  0  0  0  0  0  0
   -0.2194    0.9473   -0.1856 C   0  0  0  0  0  0  0  0  0  0  0  0
    0.1829   -1.4340   -0.1192 C   0  0  0  0  0  0  0  0  0  0  0  0
   -2.1383   -0.6036   -0.2302 C   0  0  0  0  0  0  0  0  0  0  0  0
   -3.0952    0.2962    0.0904 C   0  0  0  0  0  0  0  0  0  0  0  0
    4.0743    0.4166   -1.2745 C   0  0  0  0  0  0  0  0  0  0  0  0
    1.7856    3.0992    1.1209 C   0  0  0  0  0  0  0  0  0  0  0  0
    2.7710   -2.7343    1.2838 C   0  0  0  0  0  0  0  0  0  0  0  0
   -4.5347   -0.0641   -0.0122 C   0  0  0  0  0  0  0  0  0  0  0  0
  1  7  1  0
  1 14  1  0
  2  8  1  0
  2 15  1  0
  3  9  1  0
  3 16  1  0
  4 17  2  0
  5 17  1  0
  6 10  2  0
  6 11  1  0
  6 12  1  0
  7  8  2  0
  7  9  1  0
  8 10  1  0
  9 11  2  0
 12 13  2  0
 13 17  1  0
M  END
>  <PUBCHEM_COMPOUND_CID>  (1) 
21783

>  <PUBCHEM_CONFORMER_RMSD>  (1) 
0.6

>  <PUBCHEM_CONFORMER_DIVERSEORDER>  (1) 
3
10
11
15
13
14
16
2
6
7
12
4
5
9
8
1

>  <PUBCHEM_MMFF94_PARTIAL_CHARGES>  (1) 
23
1 -0.36
10 -0.15
11 -0.15
12 -0.18
13 -0.14
14 0.28
15 0.28
16 0.28
17 0.62
18 0.15
19 0.15
2 -0.36
20 0.15
21 0.15
3 -0.36
31 0.37
32 0.37
4 -0.57
5 -0.8
6 0.03
7 0.08
8 0.08
9 0.08

>  <PUBCHEM_EFFECTIVE_ROTOR_COUNT>  (1) 
5

>  <PUBCHEM_PHARMACOPHORE_FEATURES>  (1) 
6
1 1 acceptor
1 2 acceptor
1 3 acceptor
1 4 acceptor
1 5 donor
6 6 7 8 9 10 11 rings

>  <PUBCHEM_HEAVY_ATOM_COUNT>  (1) 
17

>  <PUBCHEM_ATOM_DEF_STEREO_COUNT>  (1) 
0

>  <PUBCHEM_ATOM_UDEF_STEREO_COUNT>  (1) 
0

>  <PUBCHEM_BOND_DEF_STEREO_COUNT>  (1) 
0

>  <PUBCHEM_BOND_UDEF_STEREO_COUNT>  (1) 
1

>  <PUBCHEM_ISOTOPIC_ATOM_COUNT>  (1) 
0

>  <PUBCHEM_COMPONENT_COUNT>  (1) 
1

>  <PUBCHEM_CACTVS_TAUTO_COUNT>  (1) 
2

>  <PUBCHEM_CONFORMER_ID>  (1) 
0000551700000003

>  <PUBCHEM_MMFF94_ENERGY>  (1) 
76.8249

>  <PUBCHEM_FEATURE_SELFOVERLAP>  (1) 
30.457

>  <PUBCHEM_SHAPE_FINGERPRINT>  (1) 
10366900 7 18187931720033769089
10980938 120 18410293592533145782
11471102 20 18409730668328201966
12644460 14 18334299751152080963
13140716 1 18193829577619709944
13533116 47 18334292068426558419
14178342 30 18047178937067921443
14576447 43 18341042030048679415
14911166 2 18340779220851682868
15442244 35 18267586810575962977
16945 1 18337942480793894292
17980427 26 18126266761605088476
18186145 218 18340482361355047205
19784866 9 18187366532550066522
20559304 39 18411416194031484760
20645477 70 18272936067715161767
21041028 32 18195238919292322880
21501502 16 18191590752564725988
22289505 5 18336823091968217733
2255824 54 18338516460039007748
22854114 111 18339922722705379293
2334 1 17762055841074502340
23402655 69 18411981334972102189
23526113 38 17676491618198572505
23558518 356 17833825354508017854
25 1 18334859462979586286
2748010 2 18122892149802145548
3060560 45 17989492913572266078
3071541 37 18187370930449105646
34934 24 18342737442576487630
474 4 18194114346736512353
4990 188 18059869375510514863
5104073 3 18410576176518631475
54040823 5 18411142424289770402
543358 83 18411144597616750313
58807428 26 18051105263411190792
7364860 26 18342454872029532480
81228 2 17401479347851137882
84936 182 17986388004383808449
9999458 23 18335985384292934284

>  <PUBCHEM_SHAPE_MULTIPOLES>  (1) 
321.39
8.53
2.73
0.9
12.78
0.61
-0.09
-0.51
0.58
-3.06
-1.18
-0.79
0.01
-0.6

>  <PUBCHEM_SHAPE_SELFOVERLAP>  (1) 
662.014

>  <PUBCHEM_SHAPE_VOLUME>  (1) 
185.8

>  <PUBCHEM_COORDINATE_TYPE>  (1) 
2
5
10

$$$$
