21792
     RDKit          3D

 24 27  0  0  0  0  0  0  0  0999 V2000
    6.4705   -0.6433    0.1494 O   0  0  0  0  0  0  0  0  0  0  0  0
    3.6860   -0.6027   -0.4389 N   0  0  0  0  0  0  0  0  0  0  0  0
    2.3661   -1.2267   -0.5037 C   0  0  0  0  0  0  0  0  0  0  0  0
    4.1798   -0.5689    0.9446 C   0  0  0  0  0  0  0  0  0  0  0  0
    4.6425   -1.3150   -1.2976 C   0  0  0  0  0  0  0  0  0  0  0  0
    1.3580   -0.4195    0.3134 C   0  0  0  0  0  0  0  0  0  0  0  0
   -1.1478   -0.3253    0.3123 C   0  0  0  0  0  0  0  0  0  0  0  0
   -3.5129    0.6278   -1.4856 C   0  0  0  0  0  0  0  0  0  0  0  0
   -2.1747    1.2587   -1.8733 C   0  0  0  0  0  0  0  0  0  0  0  0
   -2.4525   -1.0339    0.2303 C   0  0  0  0  0  0  0  0  0  0  0  0
   -1.0115    1.1455    0.3639 C   0  0  0  0  0  0  0  0  0  0  0  0
   -3.5183   -0.5962   -0.5868 C   0  0  0  0  0  0  0  0  0  0  0  0
   -1.5053    1.9223   -0.6972 C   0  0  0  0  0  0  0  0  0  0  0  0
    5.5625    0.0755    0.9850 C   0  0  0  0  0  0  0  0  0  0  0  0
    6.0148   -0.6540   -1.2040 C   0  0  0  0  0  0  0  0  0  0  0  0
   -0.0036   -1.0335    0.2413 C   0  0  0  0  0  0  0  0  0  0  0  0
   -2.6483   -2.1673    1.0504 C   0  0  0  0  0  0  0  0  0  0  0  0
   -0.4025    1.7740    1.4609 C   0  0  0  0  0  0  0  0  0  0  0  0
   -4.7325   -1.3183   -0.5581 C   0  0  0  0  0  0  0  0  0  0  0  0
   -1.3752    3.3176   -0.6477 C   0  0  0  0  0  0  0  0  0  0  0  0
   -3.8538   -2.8684    1.0531 C   0  0  0  0  0  0  0  0  0  0  0  0
   -0.2795    3.1627    1.4981 C   0  0  0  0  0  0  0  0  0  0  0  0
   -4.8975   -2.4443    0.2457 C   0  0  0  0  0  0  0  0  0  0  0  0
   -0.7642    3.9333    0.4446 C   0  0  0  0  0  0  0  0  0  0  0  0
  1 14  1  0
  1 15  1  0
  2  3  1  0
  2  4  1  0
  2  5  1  0
  3  6  1  0
  4 14  1  0
  5 15  1  0
  6 16  1  0
  7 10  1  0
  7 11  1  0
  7 16  2  3
  8  9  1  0
  8 12  1  0
  9 13  1  0
 10 12  2  0
 10 17  1  0
 11 13  2  0
 11 18  1  0
 12 19  1  0
 13 20  1  0
 17 21  2  0
 18 22  2  0
 19 23  2  0
 20 24  2  0
 21 23  1  0
 22 24  1  0
M  END
>  <PUBCHEM_COMPOUND_CID>  (1) 
21792

>  <PUBCHEM_CONFORMER_RMSD>  (1) 
0.8

>  <PUBCHEM_CONFORMER_DIVERSEORDER>  (1) 
1
4
12
16
23
14
10
18
22
5
20
24
19
21
15
11
2
8
3
7
9
17
6
13

>  <PUBCHEM_MMFF94_PARTIAL_CHARGES>  (1) 
33
1 -0.56
10 0.03
11 0.03
12 -0.14
13 -0.14
14 0.28
15 0.28
16 -0.29
17 -0.15
18 -0.15
19 -0.15
2 -0.81
20 -0.15
21 -0.15
22 -0.15
23 -0.15
24 -0.15
3 0.27
4 0.27
41 0.15
42 0.15
43 0.15
44 0.15
45 0.15
46 0.15
47 0.15
48 0.15
49 0.15
5 0.27
6 0.14
7 -0.06
8 0.14
9 0.14

>  <PUBCHEM_EFFECTIVE_ROTOR_COUNT>  (1) 
4.6

>  <PUBCHEM_PHARMACOPHORE_FEATURES>  (1) 
6
1 1 acceptor
1 2 cation
6 1 2 4 5 14 15 rings
6 10 12 17 19 21 23 rings
6 11 13 18 20 22 24 rings
7 7 8 9 10 11 12 13 rings

>  <PUBCHEM_HEAVY_ATOM_COUNT>  (1) 
24

>  <PUBCHEM_ATOM_DEF_STEREO_COUNT>  (1) 
0

>  <PUBCHEM_ATOM_UDEF_STEREO_COUNT>  (1) 
0

>  <PUBCHEM_BOND_DEF_STEREO_COUNT>  (1) 
0

>  <PUBCHEM_BOND_UDEF_STEREO_COUNT>  (1) 
0

>  <PUBCHEM_ISOTOPIC_ATOM_COUNT>  (1) 
0

>  <PUBCHEM_COMPONENT_COUNT>  (1) 
1

>  <PUBCHEM_CACTVS_TAUTO_COUNT>  (1) 
1

>  <PUBCHEM_CONFORMER_ID>  (1) 
0000552000000001

>  <PUBCHEM_MMFF94_ENERGY>  (1) 
75.6414

>  <PUBCHEM_FEATURE_SELFOVERLAP>  (1) 
30.462

>  <PUBCHEM_SHAPE_FINGERPRINT>  (1) 
10670039 82 18340786875211573788
10764073 3 15907466341201005251
10937287 8 17472414353154835828
11101153 10 18338249262298870044
11315181 36 14923954453287260350
12166972 35 17894914057623104764
12293681 160 17980458102237126637
12516196 113 18341896337329384955
12596602 18 17967527996260648994
12788726 201 18261387815094329699
13540713 4 17754446078877466067
13631057 29 18333448751012393714
14347332 77 18340207376211557846
14790565 3 17762613998066967785
14840074 17 17346318249761019012
16994733 274 15285347402376193261
17357779 13 18201425978633041168
1813 80 17774176698202864525
19489759 90 17894627050465064470
20600515 1 18198930147599893715
20771845 35 17540550436378305259
21049683 271 18045792435793914037
22182313 1 18196067027710639785
2297311 6 18411990160824278014
23175994 123 18341895233854618459
23419403 2 18268977860289109869
23557571 272 18341338799081697038
23559900 14 18187919633547411700
238078 22 18335702728316059925
283562 15 18409172073551220994
314173 85 18342464763249888907
329604 57 18335986454029687668
394222 165 16666256852144761409
437815 12 18342736351818175079
469060 322 18335435542569105456
497634 4 17346609547364819674
57527573 199 15624005698335993649
6371380 46 18261108613352797467
7399639 24 18060136536089578558
84936 31 17770217473169951661

>  <PUBCHEM_SHAPE_MULTIPOLES>  (1) 
483.06
11.88
3.79
1.46
20.16
3.71
-0.18
-9.96
-1.93
-4.13
1.03
-0.01
0.39
1.66

>  <PUBCHEM_SHAPE_SELFOVERLAP>  (1) 
1041.73

>  <PUBCHEM_SHAPE_VOLUME>  (1) 
263.1

>  <PUBCHEM_COORDINATE_TYPE>  (1) 
2
5
10

$$$$
