21798
     RDKit          3D

 20 21  0  0  0  0  0  0  0  0999 V2000
   -1.1971   -1.1385   -0.7753 O   0  0  0  0  0  0  0  0  0  0  0  0
    0.0909    1.9883    1.3418 O   0  0  0  0  0  0  0  0  0  0  0  0
   -1.6264   -1.9599    1.3571 O   0  0  0  0  0  0  0  0  0  0  0  0
    0.7101    0.5654   -0.4181 N   0  0  0  0  0  0  0  0  0  0  0  0
   -0.1534   -3.0519   -0.0641 N   0  0  0  0  0  0  0  0  0  0  0  0
   -1.6104    1.0790    0.0418 C   0  0  0  0  0  0  0  0  0  0  0  0
   -2.0603   -0.1141   -0.5240 C   0  0  0  0  0  0  0  0  0  0  0  0
   -0.2059    1.2629    0.3800 C   0  0  0  0  0  0  0  0  0  0  0  0
    2.1224    0.5313   -0.3130 C   0  0  0  0  0  0  0  0  0  0  0  0
   -2.5098    2.1160    0.2896 C   0  0  0  0  0  0  0  0  0  0  0  0
   -3.4096   -0.2698   -0.8419 C   0  0  0  0  0  0  0  0  0  0  0  0
   -3.8590    1.9601   -0.0284 C   0  0  0  0  0  0  0  0  0  0  0  0
   -4.3089    0.7672   -0.5942 C   0  0  0  0  0  0  0  0  0  0  0  0
    2.7436    1.2600    0.6869 C   0  0  0  0  0  0  0  0  0  0  0  0
    2.8494   -0.2301   -1.2120 C   0  0  0  0  0  0  0  0  0  0  0  0
    4.1342    1.2264    0.7908 C   0  0  0  0  0  0  0  0  0  0  0  0
    4.2400   -0.2637   -1.1079 C   0  0  0  0  0  0  0  0  0  0  0  0
    4.8823    0.4646   -0.1064 C   0  0  0  0  0  0  0  0  0  0  0  0
   -1.0422   -2.0550    0.2817 C   0  0  0  0  0  0  0  0  0  0  0  0
    0.2099   -4.1383    0.8156 C   0  0  0  0  0  0  0  0  0  0  0  0
  1  7  1  0
  1 19  1  0
  2  8  2  0
  3 19  2  0
  4  8  1  0
  4  9  1  0
  5 19  1  0
  5 20  1  0
  6  7  2  0
  6  8  1  0
  6 10  1  0
  7 11  1  0
  9 14  2  0
  9 15  1  0
 10 12  2  0
 11 13  2  0
 12 13  1  0
 14 16  1  0
 15 17  2  0
 16 18  2  0
 17 18  1  0
M  END
>  <PUBCHEM_COMPOUND_CID>  (1) 
21798

>  <PUBCHEM_CONFORMER_RMSD>  (1) 
0.8

>  <PUBCHEM_CONFORMER_DIVERSEORDER>  (1) 
1
16
10
37
24
38
33
32
19
30
36
13
25
14
12
5
29
21
8
7
2
17
34
26
28
22
6
15
4
27
35
18
20
11
9
31
3
23

>  <PUBCHEM_MMFF94_PARTIAL_CHARGES>  (1) 
31
1 -0.23
10 -0.15
11 -0.15
12 -0.15
13 -0.15
14 -0.15
15 -0.15
16 -0.15
17 -0.15
18 -0.15
19 0.78
2 -0.57
20 0.3
21 0.15
22 0.37
23 0.15
24 0.15
25 0.15
26 0.15
27 0.15
28 0.15
29 0.15
3 -0.57
30 0.15
31 0.37
4 -0.55
5 -0.73
6 0.09
7 0.08
8 0.54
9 0.12

>  <PUBCHEM_EFFECTIVE_ROTOR_COUNT>  (1) 
6

>  <PUBCHEM_PHARMACOPHORE_FEATURES>  (1) 
6
1 2 acceptor
1 3 acceptor
1 4 donor
1 5 donor
6 6 7 10 11 12 13 rings
6 9 14 15 16 17 18 rings

>  <PUBCHEM_HEAVY_ATOM_COUNT>  (1) 
20

>  <PUBCHEM_ATOM_DEF_STEREO_COUNT>  (1) 
0

>  <PUBCHEM_ATOM_UDEF_STEREO_COUNT>  (1) 
0

>  <PUBCHEM_BOND_DEF_STEREO_COUNT>  (1) 
0

>  <PUBCHEM_BOND_UDEF_STEREO_COUNT>  (1) 
0

>  <PUBCHEM_ISOTOPIC_ATOM_COUNT>  (1) 
0

>  <PUBCHEM_COMPONENT_COUNT>  (1) 
1

>  <PUBCHEM_CACTVS_TAUTO_COUNT>  (1) 
4

>  <PUBCHEM_CONFORMER_ID>  (1) 
0000552600000001

>  <PUBCHEM_MMFF94_ENERGY>  (1) 
63.5716

>  <PUBCHEM_FEATURE_SELFOVERLAP>  (1) 
30.446

>  <PUBCHEM_SHAPE_FINGERPRINT>  (1) 
10366900 7 17847065510653242000
11315181 36 17704076183998327976
11370993 70 18410008832227953812
11458722 379 18341897342129608141
11578080 2 14762066878933736751
12500047 106 18409729590861109788
12553582 1 17472148748124078966
12592029 89 18336831866665180393
12788726 201 17609508468218873994
14115302 16 18335706086975620212
15163728 17 17024854971651539397
15279308 132 18412822516611263649
15375358 24 18201997759434835956
15420108 30 16187791078488774568
16752209 62 18262233446931376763
18186145 218 18340763754263512813
200 152 16056879121948786532
20567600 347 18261674775018531371
20645476 183 18040715891607998455
20645477 70 17275109393101211700
22849339 104 18265637522552595574
23366157 5 17754177479389581203
23402539 116 18342729719703329469
23419403 2 16914525834366397523
23526113 38 17988921180141542792
23558518 356 17914917339070112080
23559900 14 18201719540375671076
23728640 28 18335977683332416826
25147074 1 17913478044775507325
3759504 43 18259706705044207111
43471831 8 18336824187274373123
59755656 215 18409721868932086959
6138700 20 18124318207989232502
633830 44 18201152166062908509
69090 78 17846493733893083813
81228 2 17976253857302626795
8809292 202 18342458200829705364
9709674 26 18201156662967137060

>  <PUBCHEM_SHAPE_MULTIPOLES>  (1) 
384.02
8.19
3.3
1.1
4.66
4.57
-0.03
-4.41
1.69
-1.21
-1.39
0.36
0.11
0.44

>  <PUBCHEM_SHAPE_SELFOVERLAP>  (1) 
822.311

>  <PUBCHEM_SHAPE_VOLUME>  (1) 
209.5

>  <PUBCHEM_COORDINATE_TYPE>  (1) 
2
5
10

$$$$
