21809
     RDKit          3D

 20 21  0  0  0  0  0  0  0  0999 V2000
   -0.4873   -2.6882    0.9669 Cl  0  0  0  0  0  0  0  0  0  0  0  0
   -0.4883    2.6889    0.9658 Cl  0  0  0  0  0  0  0  0  0  0  0  0
   -3.3738    2.7211   -0.3378 Cl  0  0  0  0  0  0  0  0  0  0  0  0
   -3.3724   -2.7218   -0.3371 Cl  0  0  0  0  0  0  0  0  0  0  0  0
   -4.8109   -0.0009   -0.9877 Cl  0  0  0  0  0  0  0  0  0  0  0  0
    2.2344    0.0000   -3.1822 Cl  0  0  0  0  0  0  0  0  0  0  0  0
    5.4530    0.0006    0.9059 Cl  0  0  0  0  0  0  0  0  0  0  0  0
    0.5649    0.0007    1.4421 O   0  0  0  0  0  0  0  0  0  0  0  0
    2.8619    0.0005    1.1615 N   0  0  0  0  0  0  0  0  0  0  0  0
    1.3776    0.0001   -0.7239 N   0  0  0  0  0  0  0  0  0  0  0  0
    3.7526   -0.0007   -1.0667 N   0  0  0  0  0  0  0  0  0  0  0  0
   -0.6805    0.0003    0.8790 C   0  0  0  0  0  0  0  0  0  0  0  0
   -1.3157   -1.2078    0.5921 C   0  0  0  0  0  0  0  0  0  0  0  0
   -1.3162    1.2082    0.5915 C   0  0  0  0  0  0  0  0  0  0  0  0
   -2.5873    1.2079    0.0169 C   0  0  0  0  0  0  0  0  0  0  0  0
   -2.5867   -1.2082    0.0174 C   0  0  0  0  0  0  0  0  0  0  0  0
   -3.2226   -0.0004   -0.2701 C   0  0  0  0  0  0  0  0  0  0  0  0
    1.6513    0.0006    0.5875 C   0  0  0  0  0  0  0  0  0  0  0  0
    2.4790   -0.0006   -1.4921 C   0  0  0  0  0  0  0  0  0  0  0  0
    3.8671   -0.0003    0.2713 C   0  0  0  0  0  0  0  0  0  0  0  0
  1 13  1  0
  2 14  1  0
  3 15  1  0
  4 16  1  0
  5 17  1  0
  6 19  1  0
  7 20  1  0
  8 12  1  0
  8 18  1  0
  9 18  2  0
  9 20  1  0
 10 18  1  0
 10 19  2  0
 11 19  1  0
 11 20  2  0
 12 13  2  0
 12 14  1  0
 13 16  1  0
 14 15  2  0
 15 17  1  0
 16 17  2  0
M  END
>  <PUBCHEM_COMPOUND_CID>  (1) 
21809

>  <PUBCHEM_CONFORMER_RMSD>  (1) 
0.6

>  <PUBCHEM_CONFORMER_DIVERSEORDER>  (1) 
1
2
3

>  <PUBCHEM_MMFF94_PARTIAL_CHARGES>  (1) 
20
1 -0.18
10 -0.62
11 -0.62
12 0.08
13 0.18
14 0.18
15 0.18
16 0.18
17 0.18
18 0.7
19 0.8
2 -0.18
20 0.8
3 -0.18
4 -0.18
5 -0.18
6 -0.18
7 -0.18
8 -0.17
9 -0.62

>  <PUBCHEM_EFFECTIVE_ROTOR_COUNT>  (1) 
2

>  <PUBCHEM_PHARMACOPHORE_FEATURES>  (1) 
5
3 10 11 19 cation
3 9 10 18 cation
3 9 11 20 cation
6 12 13 14 15 16 17 rings
6 9 10 11 18 19 20 rings

>  <PUBCHEM_HEAVY_ATOM_COUNT>  (1) 
20

>  <PUBCHEM_ATOM_DEF_STEREO_COUNT>  (1) 
0

>  <PUBCHEM_ATOM_UDEF_STEREO_COUNT>  (1) 
0

>  <PUBCHEM_BOND_DEF_STEREO_COUNT>  (1) 
0

>  <PUBCHEM_BOND_UDEF_STEREO_COUNT>  (1) 
0

>  <PUBCHEM_ISOTOPIC_ATOM_COUNT>  (1) 
0

>  <PUBCHEM_COMPONENT_COUNT>  (1) 
1

>  <PUBCHEM_CACTVS_TAUTO_COUNT>  (1) 
1

>  <PUBCHEM_CONFORMER_ID>  (1) 
0000553100000001

>  <PUBCHEM_MMFF94_ENERGY>  (1) 
53.6926

>  <PUBCHEM_FEATURE_SELFOVERLAP>  (1) 
28.155

>  <PUBCHEM_SHAPE_FINGERPRINT>  (1) 
11315181 36 18114179753245497672
11582403 64 16477618168297801025
11640471 11 17531544142923059420
121448 382 18409730655622947275
12236239 1 17676480644683601722
12251169 10 9799691519489674739
12363563 72 18200038476478841775
12507557 5 15936412247068984020
13140716 1 18266456697764963945
13583140 156 17916848176568188898
13911987 19 16558463210327378128
14115302 16 18041278858699103954
14386348 63 17632579365779245759
14790565 3 17696477278529213353
15295992 7 13912326797623075021
15375358 24 17775283837629416780
16752209 62 18335698338854306379
16945 1 18338503197828500065
17980427 23 18041000670074138124
192875 21 17675927607557248564
19489759 90 18412258433282160194
20344682 1 17489298703013622312
20600515 1 18412266125041846100
20645476 183 17531241786084822803
20645477 70 16558471894434213238
20739085 24 15391768772130922641
20871999 31 18413109467887658385
2334 1 17904747132060321921
23402539 116 18411971481794917898
23419403 2 17980449537650111677
23526113 38 17632295657382748027
23557571 272 18131631170861477136
23559900 14 18200590290431176570
2748010 2 17977085075761899931
2838139 119 15936952073620072295
474 4 16805325474373099547
7615 1 17604161427239965836
77492 1 17676203572058886474
81228 2 18058191460653265472
84936 31 16843599633208456713
9709674 26 18059862718585707222

>  <PUBCHEM_SHAPE_MULTIPOLES>  (1) 
403.87
8.68
2.54
1.8
5.43
0
-1.67
0
-1.32
-3.54
0.64
1.89
0
0

>  <PUBCHEM_SHAPE_SELFOVERLAP>  (1) 
808.014

>  <PUBCHEM_SHAPE_VOLUME>  (1) 
243

>  <PUBCHEM_COORDINATE_TYPE>  (1) 
2
5
10

$$$$
