21807
     RDKit          3D

 11 11  0  0  0  0  0  0  0  0999 V2000
   -0.0001   -0.9980   -0.4680 N   0  0  0  0  0  0  0  0  0  0  0  0
   -1.1997    1.0371   -0.0477 N   0  0  0  0  0  0  0  0  0  0  0  0
    1.1998    1.0371   -0.0478 N   0  0  0  0  0  0  0  0  0  0  0  0
    0.0000    3.0103    0.3593 N   0  0  0  0  0  0  0  0  0  0  0  0
    2.4130   -1.0056   -0.4699 C   0  0  0  0  0  0  0  0  0  0  0  0
   -2.4130   -1.0055   -0.4699 C   0  0  0  0  0  0  0  0  0  0  0  0
    1.1222   -0.2757   -0.3189 C   0  0  0  0  0  0  0  0  0  0  0  0
   -1.1221   -0.2757   -0.3188 C   0  0  0  0  0  0  0  0  0  0  0  0
    2.9167   -1.5758    0.8538 C   0  0  0  0  0  0  0  0  0  0  0  0
   -2.9168   -1.5759    0.8538 C   0  0  0  0  0  0  0  0  0  0  0  0
    0.0000    1.6277    0.0741 C   0  0  0  0  0  0  0  0  0  0  0  0
  1  7  2  0
  1  8  1  0
  2  8  2  0
  2 11  1  0
  3  7  1  0
  3 11  2  0
  4 11  1  0
  5  7  1  0
  5  9  1  0
  6  8  1  0
  6 10  1  0
M  END
>  <PUBCHEM_COMPOUND_CID>  (1) 
21807

>  <PUBCHEM_CONFORMER_RMSD>  (1) 
0.4

>  <PUBCHEM_CONFORMER_DIVERSEORDER>  (1) 
1
9
4
5
6
2
3
7
8

>  <PUBCHEM_MMFF94_PARTIAL_CHARGES>  (1) 
11
1 -0.62
11 0.72
2 -0.62
22 0.4
23 0.4
3 -0.62
4 -0.9
5 0.14
6 0.14
7 0.48
8 0.48

>  <PUBCHEM_EFFECTIVE_ROTOR_COUNT>  (1) 
2

>  <PUBCHEM_PHARMACOPHORE_FEATURES>  (1) 
5
1 10 hydrophobe
1 4 donor
1 9 hydrophobe
4 2 3 4 11 cation
6 1 2 3 7 8 11 rings

>  <PUBCHEM_HEAVY_ATOM_COUNT>  (1) 
11

>  <PUBCHEM_ATOM_DEF_STEREO_COUNT>  (1) 
0

>  <PUBCHEM_ATOM_UDEF_STEREO_COUNT>  (1) 
0

>  <PUBCHEM_BOND_DEF_STEREO_COUNT>  (1) 
0

>  <PUBCHEM_BOND_UDEF_STEREO_COUNT>  (1) 
0

>  <PUBCHEM_ISOTOPIC_ATOM_COUNT>  (1) 
0

>  <PUBCHEM_COMPONENT_COUNT>  (1) 
1

>  <PUBCHEM_CACTVS_TAUTO_COUNT>  (1) 
8

>  <PUBCHEM_CONFORMER_ID>  (1) 
0000552F00000001

>  <PUBCHEM_MMFF94_ENERGY>  (1) 
17.7338

>  <PUBCHEM_FEATURE_SELFOVERLAP>  (1) 
25.371

>  <PUBCHEM_SHAPE_FINGERPRINT>  (1) 
10130415 120 18407760322422722059
10857977 72 18270951371801803674
12716758 59 17694219967913043550
16945 1 17346881151968633270
17841504 4 18337394966947991443
19021347 4 16898489615703634384
20645477 70 18124594447480132031
20653091 64 18197509625647003891
20711985 344 18124896563409569638
20871998 184 18129374904508501582
20871998 22 18271257061640774462
21040471 1 17476646377888956188
23500284 5 18115869602984335386
23552423 10 18260554432772586884
241688 4 18412263904458766984
2748010 2 18341886394326789276
3071541 236 17903064539065600792
528862 383 18124593347297785311
81228 2 18124597483293412017

>  <PUBCHEM_SHAPE_MULTIPOLES>  (1) 
206.45
3.91
2.47
0.82
0
2.02
-0.08
-3.41
-0.73
0
-0.58
0
-0.25
0

>  <PUBCHEM_SHAPE_SELFOVERLAP>  (1) 
413.186

>  <PUBCHEM_SHAPE_VOLUME>  (1) 
117.3

>  <PUBCHEM_COORDINATE_TYPE>  (1) 
2
5
10

$$$$
