21810
     RDKit          3D

  9  9  0  0  0  0  0  0  0  0999 V2000
   -2.8855    0.9135    0.0000 Cl  0  0  0  0  0  0  0  0  0  0  0  0
    1.3348   -0.4749    0.0000 N   0  0  0  0  0  0  0  0  0  0  0  0
   -1.0368   -0.9022   -0.0001 N   0  0  0  0  0  0  0  0  0  0  0  0
    0.5059   -2.6701    0.0000 N   0  0  0  0  0  0  0  0  0  0  0  0
    1.0593    0.8459    0.0000 C   0  0  0  0  0  0  0  0  0  0  0  0
   -0.2204    1.3620    0.0002 C   0  0  0  0  0  0  0  0  0  0  0  0
    2.2268    1.7746   -0.0001 C   0  0  0  0  0  0  0  0  0  0  0  0
    0.2556   -1.2804    0.0001 C   0  0  0  0  0  0  0  0  0  0  0  0
   -1.2396    0.4316   -0.0001 C   0  0  0  0  0  0  0  0  0  0  0  0
  1  9  1  0
  2  5  2  0
  2  8  1  0
  3  8  2  0
  3  9  1  0
  4  8  1  0
  5  6  1  0
  5  7  1  0
  6  9  2  0
M  END
>  <PUBCHEM_COMPOUND_CID>  (1) 
21810

>  <PUBCHEM_CONFORMER_RMSD>  (1) 
0.4

>  <PUBCHEM_CONFORMER_DIVERSEORDER>  (1) 
1

>  <PUBCHEM_MMFF94_PARTIAL_CHARGES>  (1) 
12
1 -0.18
10 0.15
14 0.4
15 0.4
2 -0.62
3 -0.62
4 -0.9
5 0.17
6 -0.15
7 0.14
8 0.72
9 0.49

>  <PUBCHEM_EFFECTIVE_ROTOR_COUNT>  (1) 
0

>  <PUBCHEM_PHARMACOPHORE_FEATURES>  (1) 
4
1 3 acceptor
1 4 donor
4 2 3 4 8 cation
6 2 3 5 6 8 9 rings

>  <PUBCHEM_HEAVY_ATOM_COUNT>  (1) 
9

>  <PUBCHEM_ATOM_DEF_STEREO_COUNT>  (1) 
0

>  <PUBCHEM_ATOM_UDEF_STEREO_COUNT>  (1) 
0

>  <PUBCHEM_BOND_DEF_STEREO_COUNT>  (1) 
0

>  <PUBCHEM_BOND_UDEF_STEREO_COUNT>  (1) 
0

>  <PUBCHEM_ISOTOPIC_ATOM_COUNT>  (1) 
0

>  <PUBCHEM_COMPONENT_COUNT>  (1) 
1

>  <PUBCHEM_CACTVS_TAUTO_COUNT>  (1) 
3

>  <PUBCHEM_CONFORMER_ID>  (1) 
0000553200000001

>  <PUBCHEM_MMFF94_ENERGY>  (1) 
21.1862

>  <PUBCHEM_FEATURE_SELFOVERLAP>  (1) 
20.297

>  <PUBCHEM_SHAPE_FINGERPRINT>  (1) 
16945 1 18266740182005809189
18185500 45 17690564087223430479
21040471 1 18266459986882055360
23552423 10 18339643313586709173
23552449 1 17402891618760031712
241688 4 17329710916396155009
2748010 2 18337679714314942853
29004967 10 18120096078673703425

>  <PUBCHEM_SHAPE_MULTIPOLES>  (1) 
172.14
2.88
2.33
0.59
1.38
1.47
0
-1.81
0
-0.86
0
0.02
-0.05
0

>  <PUBCHEM_SHAPE_SELFOVERLAP>  (1) 
344.792

>  <PUBCHEM_SHAPE_VOLUME>  (1) 
102.9

>  <PUBCHEM_COORDINATE_TYPE>  (1) 
2
5
10

$$$$
