21813
     RDKit          3D

 13 12  0  0  1  0  0  0  0  0999 V2000
    5.8211    0.0854    0.9034 O   0  0  0  0  0  0  0  0  0  0  0  0
    4.9758   -0.5397   -1.1147 O   0  0  0  0  0  0  0  0  0  0  0  0
   -4.1507    0.4145   -0.3424 C   0  0  0  0  0  0  0  0  0  0  0  0
   -2.7530    0.0804   -0.9042 C   0  0  0  0  0  0  0  0  0  0  0  0
   -1.5900    0.2899    0.0714 C   0  0  0  0  0  0  0  0  0  0  0  0
   -0.2455    0.0042   -0.6056 C   0  0  0  0  0  0  0  0  0  0  0  0
   -4.6431   -0.5433    0.7588 C   0  0  0  0  0  0  0  0  0  0  0  0
    0.9210    0.2482    0.3544 C   0  0  0  0  0  0  0  0  0  0  0  0
   -4.2185    1.8599    0.1619 C   0  0  0  0  0  0  0  0  0  0  0  0
    2.2937   -0.0533   -0.2594 C   0  0  0  0  0  0  0  0  0  0  0  0
   -4.7112   -1.9985    0.3182 C   0  0  0  0  0  0  0  0  0  0  0  0
    3.4882    0.2559    0.6430 C   0  0  0  0  0  0  0  0  0  0  0  0
    4.8121   -0.1037    0.0151 C   0  0  0  0  0  0  0  0  0  0  0  0
  1 13  1  0
  2 13  2  0
  3  4  1  0
  3  7  1  0
  3  9  1  0
  4  5  1  0
  5  6  1  0
  6  8  1  0
  7 11  1  0
  8 10  1  0
 10 12  1  0
 12 13  1  0
M  END
>  <PUBCHEM_COMPOUND_CID>  (1) 
21813

>  <PUBCHEM_CONFORMER_RMSD>  (1) 
0.8

>  <PUBCHEM_CONFORMER_DIVERSEORDER>  (1) 
1
97
210
191
100
121
62
18
61
65
53
222
34
227
177
248
28
46
226
126
152
68
52
207
156
205
12
240
204
180
21
217
78
45
94
82
4
145
125
185
243
57
115
2
36
223
91
198
73
31
233
246
88
183
175
179
231
102
6
208
173
187
99
237
159
69
83
17
120
206
197
104
71
213
131
194
201
110
122
59
238
54
245
132
111
19
219
20
242
109
67
161
146
10
166
85
192
203
86
44
234
133
214
80
188
35
89
247
218
8
158
112
72
51
47
163
224
64
202
129
43
42
211
48
176
212
174
189
50
130
30
3
81
58
119
27
117
190
186
225
116
74
103
90
93
216
200
143
178
123
154
76
250
55
232
22
25
139
193
155
235
171
79
141
168
84
229
24
199
215
106
221
101
151
164
228
9
107
29
33
220
134
63
105
98
87
160
251
239
172
37
15
149
182
41
244
142
38
241
165
249
127
167
56
70
128
7
13
77
196
150
230
124
144
138
11
162
140
170
209
135
95
184
39
96
157
75
153
32
26
23
40
49
169
148
113
114
136
66
5
195
14
236
92
181
16
108
137
147
118
60

>  <PUBCHEM_MMFF94_PARTIAL_CHARGES>  (1) 
5
1 -0.65
12 0.06
13 0.66
2 -0.57
35 0.5

>  <PUBCHEM_EFFECTIVE_ROTOR_COUNT>  (1) 
8

>  <PUBCHEM_PHARMACOPHORE_FEATURES>  (1) 
5
1 1 acceptor
1 11 hydrophobe
1 2 acceptor
1 9 hydrophobe
3 1 2 13 anion

>  <PUBCHEM_HEAVY_ATOM_COUNT>  (1) 
13

>  <PUBCHEM_ATOM_DEF_STEREO_COUNT>  (1) 
0

>  <PUBCHEM_ATOM_UDEF_STEREO_COUNT>  (1) 
1

>  <PUBCHEM_BOND_DEF_STEREO_COUNT>  (1) 
0

>  <PUBCHEM_BOND_UDEF_STEREO_COUNT>  (1) 
0

>  <PUBCHEM_ISOTOPIC_ATOM_COUNT>  (1) 
0

>  <PUBCHEM_COMPONENT_COUNT>  (1) 
1

>  <PUBCHEM_CACTVS_TAUTO_COUNT>  (1) 
1

>  <PUBCHEM_CONFORMER_ID>  (1) 
0000553500000001

>  <PUBCHEM_MMFF94_ENERGY>  (1) 
6.2385

>  <PUBCHEM_FEATURE_SELFOVERLAP>  (1) 
25.429

>  <PUBCHEM_SHAPE_FINGERPRINT>  (1) 
10680689 15 17989201556097138477
10912923 1 17603586322381552872
11287383 113 18410855494952221408
11401426 45 10159697988742759365
117890 112 11671787065617664282
12091667 2 17989481922629479756
13214271 11 18342736300320908781
13288520 33 17603304873754758235
13675066 3 18060698398672228524
14123238 8 16877943836684560110
1420 363 18342460352260206503
14251718 22 17968098650752312006
14251732 16 18261955279569853992
14455015 7 17917438609590101710
17834072 33 17676491674244020268
17834076 25 18040715848679430952
17844677 252 18412268349861006264
19433438 28 18343297089336152497
200 152 15719106972748032671
20645477 70 16415203330686213582
20828058 44 18333731321210578263
220451 1 17894916191863134874
23402539 116 16298381353578936487
42788 4 18060134332480938844
49783359 22 18186798088869561979
542803 24 18408042905384983108
57483677 66 18040994025379955274
7062679 117 17531252798069570795
90127 26 18060413621055708081

>  <PUBCHEM_SHAPE_MULTIPOLES>  (1) 
255.8
14.4
1.28
0.93
11.59
0.13
0.06
1.98
-1.7
-2.7
-0.14
0.32
0.04
0.46

>  <PUBCHEM_SHAPE_SELFOVERLAP>  (1) 
465.886

>  <PUBCHEM_SHAPE_VOLUME>  (1) 
163.5

>  <PUBCHEM_COORDINATE_TYPE>  (1) 
2
5
10

$$$$
