21831
     RDKit          3D

 13 14  0  0  0  0  0  0  0  0999 V2000
   -3.0753   -0.8773    1.2530 S   0  0  0  0  0  0  0  0  0  0  0  0
   -3.1029    0.4828   -1.4005 S   0  0  0  0  0  0  0  0  0  0  0  0
   -2.1946   -0.6607   -0.3197 C   0  0  0  0  0  0  0  0  0  0  0  0
   -4.1956    0.5321    1.0611 C   0  0  0  0  0  0  0  0  0  0  0  0
   -4.6072    0.5864   -0.3957 C   0  0  0  0  0  0  0  0  0  0  0  0
   -0.8259   -0.1327   -0.0668 C   0  0  0  0  0  0  0  0  0  0  0  0
    0.2938   -0.7858   -0.4139 C   0  0  0  0  0  0  0  0  0  0  0  0
    1.6657   -0.3065   -0.1759 C   0  0  0  0  0  0  0  0  0  0  0  0
    1.8834    1.0424    0.0565 C   0  0  0  0  0  0  0  0  0  0  0  0
    2.7140   -1.2131   -0.1888 C   0  0  0  0  0  0  0  0  0  0  0  0
    3.1831    1.4963    0.2818 C   0  0  0  0  0  0  0  0  0  0  0  0
    4.0135   -0.7592    0.0368 C   0  0  0  0  0  0  0  0  0  0  0  0
    4.2481    0.5955    0.2721 C   0  0  0  0  0  0  0  0  0  0  0  0
  1  3  1  0
  1  4  1  0
  2  3  1  0
  2  5  1  0
  3  6  1  0
  4  5  1  0
  6  7  2  0
  7  8  1  0
  8  9  2  0
  8 10  1  0
  9 11  1  0
 10 12  2  0
 11 13  2  0
 12 13  1  0
M  END
>  <PUBCHEM_COMPOUND_CID>  (1) 
21831

>  <PUBCHEM_CONFORMER_RMSD>  (1) 
0.6

>  <PUBCHEM_CONFORMER_DIVERSEORDER>  (1) 
1
2
3
4

>  <PUBCHEM_MMFF94_PARTIAL_CHARGES>  (1) 
20
1 -0.46
10 -0.15
11 -0.15
12 -0.15
13 -0.15
19 0.15
2 -0.46
20 0.15
21 0.15
22 0.15
23 0.15
24 0.15
25 0.15
3 0.6
4 0.23
5 0.23
6 -0.29
7 -0.18
8 0.03
9 -0.15

>  <PUBCHEM_EFFECTIVE_ROTOR_COUNT>  (1) 
3

>  <PUBCHEM_PHARMACOPHORE_FEATURES>  (1) 
2
5 1 2 3 4 5 rings
6 8 9 10 11 12 13 rings

>  <PUBCHEM_HEAVY_ATOM_COUNT>  (1) 
13

>  <PUBCHEM_ATOM_DEF_STEREO_COUNT>  (1) 
0

>  <PUBCHEM_ATOM_UDEF_STEREO_COUNT>  (1) 
0

>  <PUBCHEM_BOND_DEF_STEREO_COUNT>  (1) 
0

>  <PUBCHEM_BOND_UDEF_STEREO_COUNT>  (1) 
1

>  <PUBCHEM_ISOTOPIC_ATOM_COUNT>  (1) 
0

>  <PUBCHEM_COMPONENT_COUNT>  (1) 
1

>  <PUBCHEM_CACTVS_TAUTO_COUNT>  (1) 
1

>  <PUBCHEM_CONFORMER_ID>  (1) 
0000554700000001

>  <PUBCHEM_MMFF94_ENERGY>  (1) 
26.1221

>  <PUBCHEM_FEATURE_SELFOVERLAP>  (1) 
10.149

>  <PUBCHEM_SHAPE_FINGERPRINT>  (1) 
10680689 15 17603867806085289727
114248 4 12175619581479488715
11471102 20 18342737416764212796
11543360 7 14333124230026327800
12236239 1 17203325602458016511
124424 183 18335137583507736803
12500047 106 17603862299889886555
12932764 1 17967244304189555715
13296908 3 18040434407988573199
13675066 3 18040156218767338967
13922767 16 18342173371414795920
14123260 362 17132122350835778499
15219456 202 18333449845864751967
15239191 94 12685090397469673009
15653759 3 17676488354139400213
17834072 33 18131345349862873831
18186145 218 18411983559253672750
19107657 47 18341892982843265233
19433438 15 17489868228614610877
200 152 17917986183528649295
20279233 1 18113900459489882199
20300324 65 15769772464361255657
20432913 95 10737284632336931653
20645477 56 18040150717188487671
20645477 70 18342172220332529574
20828058 21 16225765207423192478
20871999 31 13254802343365283547
22854114 59 18333733524439195267
23402539 116 15769773546487409312
23402655 69 18060136565869162244
23559900 14 17531246111011290430
26918003 58 18334575741550363690
42 15 17240480295167990122
5104073 3 18339637936272025970
602551 16 16660652898432044234
633830 44 17988652877850673502
9971528 1 17704072868103831172

>  <PUBCHEM_SHAPE_MULTIPOLES>  (1) 
275.23
9.97
1.28
1.07
1.27
0.07
-0.02
1.55
-1.22
-0.59
-0.08
1.18
0.03
0.79

>  <PUBCHEM_SHAPE_SELFOVERLAP>  (1) 
544.426

>  <PUBCHEM_SHAPE_VOLUME>  (1) 
162.5

>  <PUBCHEM_COORDINATE_TYPE>  (1) 
2
5
10

$$$$
