21839
     RDKit          3D

 13 14  0  0  0  0  0  0  0  0999 V2000
    3.8017    0.5395    0.3542 O   0  0  0  0  0  0  0  0  0  0  0  0
   -3.8013    0.5402   -0.3551 O   0  0  0  0  0  0  0  0  0  0  0  0
    1.1658   -0.3552   -0.2405 N   0  0  0  0  0  0  0  0  0  0  0  0
   -1.1661   -0.3554    0.2411 N   0  0  0  0  0  0  0  0  0  0  0  0
   -0.0001   -1.2027    0.0006 C   0  0  0  0  0  0  0  0  0  0  0  0
    1.4447    0.4927    0.9269 C   0  0  0  0  0  0  0  0  0  0  0  0
    2.3452   -1.1699   -0.5642 C   0  0  0  0  0  0  0  0  0  0  0  0
   -1.4438    0.4937   -0.9256 C   0  0  0  0  0  0  0  0  0  0  0  0
   -2.3459   -1.1704    0.5629 C   0  0  0  0  0  0  0  0  0  0  0  0
    2.6716    1.3587    0.6562 C   0  0  0  0  0  0  0  0  0  0  0  0
    3.5515   -0.2651   -0.7988 C   0  0  0  0  0  0  0  0  0  0  0  0
   -2.6709    1.3596   -0.6552 C   0  0  0  0  0  0  0  0  0  0  0  0
   -3.5523   -0.2657    0.7974 C   0  0  0  0  0  0  0  0  0  0  0  0
  1 10  1  0
  1 11  1  0
  2 12  1  0
  2 13  1  0
  3  5  1  0
  3  6  1  0
  3  7  1  0
  4  5  1  0
  4  8  1  0
  4  9  1  0
  6 10  1  0
  7 11  1  0
  8 12  1  0
  9 13  1  0
M  END
>  <PUBCHEM_COMPOUND_CID>  (1) 
21839

>  <PUBCHEM_CONFORMER_RMSD>  (1) 
0.6

>  <PUBCHEM_CONFORMER_DIVERSEORDER>  (1) 
1
6
2
5
3
4

>  <PUBCHEM_MMFF94_PARTIAL_CHARGES>  (1) 
13
1 -0.56
10 0.28
11 0.28
12 0.28
13 0.28
2 -0.56
3 -0.81
4 -0.81
5 0.54
6 0.27
7 0.27
8 0.27
9 0.27

>  <PUBCHEM_EFFECTIVE_ROTOR_COUNT>  (1) 
4.4

>  <PUBCHEM_PHARMACOPHORE_FEATURES>  (1) 
6
1 1 acceptor
1 2 acceptor
1 3 cation
1 4 cation
6 1 3 6 7 10 11 rings
6 2 4 8 9 12 13 rings

>  <PUBCHEM_HEAVY_ATOM_COUNT>  (1) 
13

>  <PUBCHEM_ATOM_DEF_STEREO_COUNT>  (1) 
0

>  <PUBCHEM_ATOM_UDEF_STEREO_COUNT>  (1) 
0

>  <PUBCHEM_BOND_DEF_STEREO_COUNT>  (1) 
0

>  <PUBCHEM_BOND_UDEF_STEREO_COUNT>  (1) 
0

>  <PUBCHEM_ISOTOPIC_ATOM_COUNT>  (1) 
0

>  <PUBCHEM_COMPONENT_COUNT>  (1) 
1

>  <PUBCHEM_CACTVS_TAUTO_COUNT>  (1) 
1

>  <PUBCHEM_CONFORMER_ID>  (1) 
0000554F00000001

>  <PUBCHEM_MMFF94_ENERGY>  (1) 
23.7482

>  <PUBCHEM_FEATURE_SELFOVERLAP>  (1) 
30.481

>  <PUBCHEM_SHAPE_FINGERPRINT>  (1) 
10608611 8 18410852161593596768
10857977 72 17894634764278627423
11031198 65 18130790070509903604
11132069 177 18040998444932645933
11471102 20 18059858363657413992
12932764 1 18410854360616923783
13764800 53 18186803539457341057
14144814 61 15719111361650844483
14325111 11 18409448080955058903
15219456 202 18411982455336184374
15653759 3 18260550034546701624
15775835 57 18410573985151756450
17844478 74 18409174319887305049
18175812 5 18410578404894520431
18186145 218 18131638871927482822
20201158 50 18343866601999393858
20279233 1 18410573985151633027
20528008 55 18408038516118128695
20645464 45 18409446990407860139
20645477 70 17917715656371309822
21119208 17 15770059423378297897
23402539 116 18040989674372232542
23402655 69 17775002362484076388
25 1 18202003205200107630
6333449 129 18335136505771788311
7364860 26 18117268156079052042
74978 22 15697707211747844331
77492 1 15769779043602449443
81228 2 17764014062330419483

>  <PUBCHEM_SHAPE_MULTIPOLES>  (1) 
245.83
7.07
1.35
0.99
0
0.05
0
1.08
0
0
0
0
0.1
1

>  <PUBCHEM_SHAPE_SELFOVERLAP>  (1) 
488.516

>  <PUBCHEM_SHAPE_VOLUME>  (1) 
145.5

>  <PUBCHEM_COORDINATE_TYPE>  (1) 
2
5
10

$$$$
