21840
     RDKit          3D

 19 21  0  0  0  0  0  0  0  0999 V2000
   -1.6880   -1.5450    1.0996 O   0  0  0  0  0  0  0  0  0  0  0  0
    4.0816    3.1253    0.8268 N   0  0  0  0  0  0  0  0  0  0  0  0
    0.0347    0.5958   -0.2717 C   0  0  0  0  0  0  0  0  0  0  0  0
    0.8622   -0.6294   -0.3592 C   0  0  0  0  0  0  0  0  0  0  0  0
    0.6641   -1.6437    0.5916 C   0  0  0  0  0  0  0  0  0  0  0  0
   -1.4550    0.5775   -0.1915 C   0  0  0  0  0  0  0  0  0  0  0  0
   -0.3792   -1.4592    1.6574 C   0  0  0  0  0  0  0  0  0  0  0  0
   -2.1874   -0.4472    0.4433 C   0  0  0  0  0  0  0  0  0  0  0  0
    0.6999    1.7610   -0.1440 C   0  0  0  0  0  0  0  0  0  0  0  0
    2.1905    1.8634   -0.0893 C   0  0  0  0  0  0  0  0  0  0  0  0
    1.8169   -0.8059   -1.3715 C   0  0  0  0  0  0  0  0  0  0  0  0
    1.4253   -2.8174    0.5224 C   0  0  0  0  0  0  0  0  0  0  0  0
   -2.1834    1.5877   -0.8570 C   0  0  0  0  0  0  0  0  0  0  0  0
   -3.5925   -0.4361    0.4043 C   0  0  0  0  0  0  0  0  0  0  0  0
    2.5721   -1.9775   -1.4296 C   0  0  0  0  0  0  0  0  0  0  0  0
    2.6260    3.0515    0.7674 C   0  0  0  0  0  0  0  0  0  0  0  0
    2.3773   -2.9810   -0.4835 C   0  0  0  0  0  0  0  0  0  0  0  0
   -3.5797    1.5967   -0.8738 C   0  0  0  0  0  0  0  0  0  0  0  0
   -4.2854    0.5835   -0.2416 C   0  0  0  0  0  0  0  0  0  0  0  0
  1  7  1  0
  1  8  1  0
  2 16  1  0
  3  4  1  0
  3  6  1  0
  3  9  2  0
  4  5  2  0
  4 11  1  0
  5  7  1  0
  5 12  1  0
  6  8  2  0
  6 13  1  0
  8 14  1  0
  9 10  1  0
 10 16  1  0
 11 15  2  0
 12 17  2  0
 13 18  2  0
 14 19  2  0
 15 17  1  0
 18 19  1  0
M  END
>  <PUBCHEM_COMPOUND_CID>  (1) 
21840

>  <PUBCHEM_CONFORMER_RMSD>  (1) 
0.6

>  <PUBCHEM_CONFORMER_DIVERSEORDER>  (1) 
1
3
5
7
6
2
4

>  <PUBCHEM_MMFF94_PARTIAL_CHARGES>  (1) 
30
1 -0.36
10 0.14
11 -0.15
12 -0.15
13 -0.15
14 -0.15
15 -0.15
16 0.27
17 -0.15
18 -0.15
19 -0.15
2 -0.99
22 0.15
25 0.15
26 0.15
27 0.15
28 0.15
29 0.15
3 -0.06
32 0.15
33 0.15
34 0.15
35 0.36
36 0.36
4 0.03
5 -0.14
6 0.03
7 0.42
8 0.08
9 -0.29

>  <PUBCHEM_EFFECTIVE_ROTOR_COUNT>  (1) 
2.4

>  <PUBCHEM_PHARMACOPHORE_FEATURES>  (1) 
6
1 1 acceptor
1 2 cation
1 2 donor
6 4 5 11 12 15 17 rings
6 6 8 13 14 18 19 rings
7 1 3 4 5 6 7 8 rings

>  <PUBCHEM_HEAVY_ATOM_COUNT>  (1) 
19

>  <PUBCHEM_ATOM_DEF_STEREO_COUNT>  (1) 
0

>  <PUBCHEM_ATOM_UDEF_STEREO_COUNT>  (1) 
0

>  <PUBCHEM_BOND_DEF_STEREO_COUNT>  (1) 
0

>  <PUBCHEM_BOND_UDEF_STEREO_COUNT>  (1) 
1

>  <PUBCHEM_ISOTOPIC_ATOM_COUNT>  (1) 
0

>  <PUBCHEM_COMPONENT_COUNT>  (1) 
1

>  <PUBCHEM_CACTVS_TAUTO_COUNT>  (1) 
1

>  <PUBCHEM_CONFORMER_ID>  (1) 
0000555000000001

>  <PUBCHEM_MMFF94_ENERGY>  (1) 
69.2959

>  <PUBCHEM_FEATURE_SELFOVERLAP>  (1) 
30.463

>  <PUBCHEM_SHAPE_FINGERPRINT>  (1) 
10764073 3 14715582546335909277
10871710 139 16029307042432025676
1100329 8 17619914954839057728
12293681 160 17902244312440267314
12553582 1 17907587925755022999
12707595 3 18196373619787699951
12716301 132 17387432317817087480
12788726 201 17329721916171572006
13134695 92 18196086638562715078
13681431 1 17987237733677203952
15042514 8 17471292233034867986
15230672 131 18192434285592984100
15475509 8 17195176903290337085
16945 1 18335428915545434459
1813 80 16843343193806702182
19049666 15 18262246534044555857
19930374 2 17690010350133179722
20369508 70 18265045830571936343
20645477 70 18340759361265810749
20671657 53 18056200159227470415
21029758 11 18121783833296422118
21524375 3 18053939829709000952
21731228 192 18123745619775543504
22182313 1 18113341929616672395
23402539 116 17834393415193180486
23419403 2 18052012295762922458
23557571 272 17550094867295579878
23559900 14 18046348522822886014
23728640 28 17835504300432062848
2748010 2 17972905792729990299
3298306 158 18340210795216126108
3323516 105 18262529099963961391
352729 6 17828774180899557093
4663303 62 18412548703850843281
5262128 65 17986120616788512991
532947 4 18342741832322999980
6138700 20 18413109430008211580
7364860 26 18411979130999835829
81228 2 17192917389409108128
84936 31 17774708788906096942
9862522 239 18050556636930965056
9981440 41 18268421511278540577

>  <PUBCHEM_SHAPE_MULTIPOLES>  (1) 
380.16
6.12
3.73
1.24
4.48
1.71
-0.02
2.04
0.78
-5.24
-0.89
-0.35
-0.34
1.88

>  <PUBCHEM_SHAPE_SELFOVERLAP>  (1) 
827.923

>  <PUBCHEM_SHAPE_VOLUME>  (1) 
204.8

>  <PUBCHEM_COORDINATE_TYPE>  (1) 
2
5
10

$$$$
