21859
     RDKit          3D

 20 19  0  0  0  0  0  0  0  0999 V2000
  -10.7034   -0.6004    0.0094 O   0  0  0  0  0  0  0  0  0  0  0  0
   -9.6697    1.4089   -0.2083 O   0  0  0  0  0  0  0  0  0  0  0  0
    1.9327   -0.4399    0.1372 C   0  0  0  0  0  0  0  0  0  0  0  0
    3.1771    0.4122   -0.1252 C   0  0  0  0  0  0  0  0  0  0  0  0
    0.6161    0.3176   -0.0734 C   0  0  0  0  0  0  0  0  0  0  0  0
    4.4910   -0.3245    0.1609 C   0  0  0  0  0  0  0  0  0  0  0  0
    5.7330    0.5507   -0.0279 C   0  0  0  0  0  0  0  0  0  0  0  0
   -0.6675   -0.5021    0.0926 C   0  0  0  0  0  0  0  0  0  0  0  0
    7.0471   -0.1875    0.2568 C   0  0  0  0  0  0  0  0  0  0  0  0
   -1.9449    0.3232   -0.0767 C   0  0  0  0  0  0  0  0  0  0  0  0
    8.2938    0.6638   -0.0073 C   0  0  0  0  0  0  0  0  0  0  0  0
   -3.1926   -0.5482    0.0860 C   0  0  0  0  0  0  0  0  0  0  0  0
    9.6144   -0.0836    0.2624 C   0  0  0  0  0  0  0  0  0  0  0  0
   -4.5043    0.2315   -0.0530 C   0  0  0  0  0  0  0  0  0  0  0  0
   -5.7892   -0.5943    0.0739 C   0  0  0  0  0  0  0  0  0  0  0  0
   -7.0669    0.2473   -0.0130 C   0  0  0  0  0  0  0  0  0  0  0  0
    9.7718   -1.3308   -0.6089 C   0  0  0  0  0  0  0  0  0  0  0  0
   10.7991    0.8580    0.0298 C   0  0  0  0  0  0  0  0  0  0  0  0
   -8.3321   -0.6015    0.1225 C   0  0  0  0  0  0  0  0  0  0  0  0
   -9.6058    0.1995   -0.0377 C   0  0  0  0  0  0  0  0  0  0  0  0
  1 20  1  0
  2 20  2  0
  3  4  1  0
  3  5  1  0
  4  6  1  0
  5  8  1  0
  6  7  1  0
  7  9  1  0
  8 10  1  0
  9 11  1  0
 10 12  1  0
 11 13  1  0
 12 14  1  0
 13 17  1  0
 13 18  1  0
 14 15  1  0
 15 16  1  0
 16 19  1  0
 19 20  1  0
M  END
>  <PUBCHEM_COMPOUND_CID>  (1) 
21859

>  <PUBCHEM_CONFORMER_RMSD>  (1) 
1.4

>  <PUBCHEM_CONFORMER_DIVERSEORDER>  (1) 
1
18
9
20
72
60
43
17
38
65
6
47
62
12
71
69
70
24
30
34
7
80
81
13
29
8
37
32
66
35
41
54
77
61
46
28
76
31
10
45
64
49
21
74
25
75
52
82
78
67
27
40
59
22
4
26
48
63
2
57
53
23
19
55
11
42
33
44
36
16
15
3
50
68
73
39
5
79
51
14
58
56

>  <PUBCHEM_MMFF94_PARTIAL_CHARGES>  (1) 
5
1 -0.65
19 0.06
2 -0.57
20 0.66
56 0.5

>  <PUBCHEM_EFFECTIVE_ROTOR_COUNT>  (1) 
15

>  <PUBCHEM_PHARMACOPHORE_FEATURES>  (1) 
4
1 1 acceptor
1 2 acceptor
3 1 2 20 anion
3 13 17 18 hydrophobe

>  <PUBCHEM_HEAVY_ATOM_COUNT>  (1) 
20

>  <PUBCHEM_ATOM_DEF_STEREO_COUNT>  (1) 
0

>  <PUBCHEM_ATOM_UDEF_STEREO_COUNT>  (1) 
0

>  <PUBCHEM_BOND_DEF_STEREO_COUNT>  (1) 
0

>  <PUBCHEM_BOND_UDEF_STEREO_COUNT>  (1) 
0

>  <PUBCHEM_ISOTOPIC_ATOM_COUNT>  (1) 
0

>  <PUBCHEM_COMPONENT_COUNT>  (1) 
1

>  <PUBCHEM_CACTVS_TAUTO_COUNT>  (1) 
1

>  <PUBCHEM_CONFORMER_ID>  (1) 
0000556300000001

>  <PUBCHEM_MMFF94_ENERGY>  (1) 
5.073

>  <PUBCHEM_FEATURE_SELFOVERLAP>  (1) 
20.356

>  <PUBCHEM_SHAPE_FINGERPRINT>  (1) 
14251764 46 18410573989446418435
14251920 1 18410573985151451147
15061470 23 18410572881350754460
15510794 2 18412548712536327655
21362267 2 18115294700427794804
21362267 313 18188765024913803064
232437 2 18272651250926996230
23521765 1 18341894099423985666
23581129 1 18409448093834543107
33684 2 18410855464423129090
59520647 119 18272932765382339982
67123 10 18410573989446424938
8209 1 18410855468723371147

>  <PUBCHEM_SHAPE_MULTIPOLES>  (1) 
399.85
47.81
0.97
0.64
8.4
0.01
-0.01
-2.04
-1.35
-0.43
-0.07
-0.3
0.03
0.53

>  <PUBCHEM_SHAPE_SELFOVERLAP>  (1) 
727.984

>  <PUBCHEM_SHAPE_VOLUME>  (1) 
255.1

>  <PUBCHEM_COORDINATE_TYPE>  (1) 
2
5
10

$$$$
