21878
     RDKit          3D

 27 29  0  0  0  0  0  0  0  0999 V2000
   -2.8796    2.9778   -0.7107 O   0  0  0  0  0  0  0  0  0  0  0  0
   -4.6800    2.0060    1.1661 O   0  0  0  0  0  0  0  0  0  0  0  0
    4.9285    0.8638    0.1638 O   0  0  0  0  0  0  0  0  0  0  0  0
    3.7582   -1.4706    1.1165 O   0  0  0  0  0  0  0  0  0  0  0  0
   -0.8354   -2.7388   -0.7154 N   0  0  0  0  0  0  0  0  0  0  0  0
   -1.8451   -0.5350   -0.5195 C   0  0  0  0  0  0  0  0  0  0  0  0
   -0.9165   -1.4317   -1.0518 C   0  0  0  0  0  0  0  0  0  0  0  0
    0.0900   -0.9940   -2.0682 C   0  0  0  0  0  0  0  0  0  0  0  0
   -2.7579   -1.0325    0.4335 C   0  0  0  0  0  0  0  0  0  0  0  0
    1.3882   -0.4989   -1.4676 C   0  0  0  0  0  0  0  0  0  0  0  0
   -1.8966    0.8172   -0.8964 C   0  0  0  0  0  0  0  0  0  0  0  0
   -2.6904   -2.3830    0.7954 C   0  0  0  0  0  0  0  0  0  0  0  0
   -1.7247   -3.1797    0.1996 C   0  0  0  0  0  0  0  0  0  0  0  0
   -3.7070   -0.1603    0.9910 C   0  0  0  0  0  0  0  0  0  0  0  0
   -2.8456    1.6694   -0.3324 C   0  0  0  0  0  0  0  0  0  0  0  0
   -3.7489    1.1817    0.6092 C   0  0  0  0  0  0  0  0  0  0  0  0
    1.9773   -1.2205   -0.4442 C   0  0  0  0  0  0  0  0  0  0  0  0
    1.9566    0.6650   -1.9546 C   0  0  0  0  0  0  0  0  0  0  0  0
    3.1731   -0.7636    0.1097 C   0  0  0  0  0  0  0  0  0  0  0  0
    3.7606    0.4076   -0.3686 C   0  0  0  0  0  0  0  0  0  0  0  0
    3.1524    1.1220   -1.4007 C   0  0  0  0  0  0  0  0  0  0  0  0
   -1.6372   -4.6223    0.5727 C   0  0  0  0  0  0  0  0  0  0  0  0
    4.9075    2.1608    0.7569 C   0  0  0  0  0  0  0  0  0  0  0  0
   -1.9208    3.3973   -1.6796 C   0  0  0  0  0  0  0  0  0  0  0  0
   -4.3088    2.6882    2.3622 C   0  0  0  0  0  0  0  0  0  0  0  0
    3.3836   -1.1304    2.4500 C   0  0  0  0  0  0  0  0  0  0  0  0
    5.9184    2.2046    1.8829 C   0  0  0  0  0  0  0  0  0  0  0  0
  1 15  1  0
  1 24  1  0
  2 16  1  0
  2 25  1  0
  3 20  1  0
  3 23  1  0
  4 19  1  0
  4 26  1  0
  5  7  2  0
  5 13  1  0
  6  7  1  0
  6  9  2  0
  6 11  1  0
  7  8  1  0
  8 10  1  0
  9 12  1  0
  9 14  1  0
 10 17  2  0
 10 18  1  0
 11 15  2  0
 12 13  2  0
 13 22  1  0
 14 16  2  0
 15 16  1  0
 17 19  1  0
 18 21  2  0
 19 20  2  0
 20 21  1  0
 23 27  1  0
M  END
>  <PUBCHEM_COMPOUND_CID>  (1) 
21878

>  <PUBCHEM_CONFORMER_RMSD>  (1) 
0.8

>  <PUBCHEM_CONFORMER_DIVERSEORDER>  (1) 
5
73
92
39
38
63
88
98
60
43
83
107
78
95
69
71
47
103
66
87
36
82
75
91
93
79
59
77
49
52
108
61
11
84
85
96
104
3
51
20
55
56
74
89
105
19
46
99
57
34
29
41
106
80
30
12
9
1
70
53
100
13
109
72
37
58
17
110
86
2
45
6
65
23
31
44
35
94
101
97
40
24
15
50
7
54
8
76
62
68
90
4
18
27
21
10
42
64
16
81
48
67
33
102
28
14
25
26
22
32

>  <PUBCHEM_MMFF94_PARTIAL_CHARGES>  (1) 
30
1 -0.36
10 -0.14
11 -0.15
12 -0.15
13 0.17
14 -0.15
15 0.08
16 0.08
17 -0.15
18 -0.15
19 0.08
2 -0.36
20 0.08
21 -0.15
22 0.14
23 0.28
24 0.28
25 0.28
26 0.28
3 -0.36
30 0.15
31 0.15
32 0.15
33 0.15
34 0.15
35 0.15
4 -0.36
5 -0.62
7 0.17
8 0.29

>  <PUBCHEM_EFFECTIVE_ROTOR_COUNT>  (1) 
7

>  <PUBCHEM_PHARMACOPHORE_FEATURES>  (1) 
8
1 1 acceptor
1 2 acceptor
1 3 acceptor
1 4 acceptor
1 5 acceptor
6 10 17 18 19 20 21 rings
6 5 6 7 9 12 13 rings
6 6 9 11 14 15 16 rings

>  <PUBCHEM_HEAVY_ATOM_COUNT>  (1) 
27

>  <PUBCHEM_ATOM_DEF_STEREO_COUNT>  (1) 
0

>  <PUBCHEM_ATOM_UDEF_STEREO_COUNT>  (1) 
0

>  <PUBCHEM_BOND_DEF_STEREO_COUNT>  (1) 
0

>  <PUBCHEM_BOND_UDEF_STEREO_COUNT>  (1) 
0

>  <PUBCHEM_ISOTOPIC_ATOM_COUNT>  (1) 
0

>  <PUBCHEM_COMPONENT_COUNT>  (1) 
1

>  <PUBCHEM_CACTVS_TAUTO_COUNT>  (1) 
1

>  <PUBCHEM_CONFORMER_ID>  (1) 
0000557600000005

>  <PUBCHEM_MMFF94_ENERGY>  (1) 
115.5642

>  <PUBCHEM_FEATURE_SELFOVERLAP>  (1) 
40.635

>  <PUBCHEM_SHAPE_FINGERPRINT>  (1) 
10074138 170 18262808487782115835
10319926 262 18340487863677482758
10721379 63 15755674843940036551
10928967 22 12107798380016718560
11796584 16 11675693639469473400
12633257 1 18336547109953627524
12788726 201 18048056339058327403
12892183 10 17531533061807384124
13140716 1 18120958130535227159
13690498 29 8718558241488618208
13965767 371 18262246512284818060
14081887 123 18263641934522267238
14178342 30 18188204411997954142
14341114 328 18114749355781669348
14856354 85 18116434928945760246
16110190 28 17970055657387150642
17974551 9 17751073600987370456
21033648 29 18263919960635685924
21401589 2 18273218590637726729
22956985 138 16317797981528077514
23559900 14 18058178219744059934
3117164 225 18191284028387801738
376196 1 17916596310652755639
392239 28 17830172764016541922
4169191 19 14331988500121234650
5104073 3 18409722985497029018
57724786 102 17917712340914662408
58807428 26 18190198797278546563
7097593 13 18113054935174794814
7288768 16 18202006503793279961
7808743 9 17846494885324146368
9849439 229 18199477580115997969
9981440 41 18042956580995787333

>  <PUBCHEM_SHAPE_MULTIPOLES>  (1) 
527.19
10.38
4.39
2.1
10.77
1.62
-0.42
-7.93
-6.89
-4.56
-0.83
0.81
-0.89
-0.07

>  <PUBCHEM_SHAPE_SELFOVERLAP>  (1) 
1133.729

>  <PUBCHEM_SHAPE_VOLUME>  (1) 
293.2

>  <PUBCHEM_COORDINATE_TYPE>  (1) 
2
5
10

$$$$
