2187
     RDKit          3D

 22 23  0  0  0  0  0  0  0  0999 V2000
   -3.3646   -0.2989   -0.4641 N   0  0  0  0  0  0  0  0  0  0  0  0
   -3.7453   -1.3975    0.1786 N   0  0  0  0  0  0  0  0  0  0  0  0
    4.0868   -2.5830   -0.9327 N   0  0  0  0  0  0  0  0  0  0  0  0
    2.0719    3.2156    2.2376 N   0  0  0  0  0  0  0  0  0  0  0  0
   -4.8415    0.4715    0.9118 N   0  0  0  0  0  0  0  0  0  0  0  0
    1.8219   -2.3341    0.4453 C   0  0  0  0  0  0  0  0  0  0  0  0
    1.4765    2.5999   -0.2837 C   0  0  0  0  0  0  0  0  0  0  0  0
    1.0457   -1.1481   -0.0186 C   0  0  0  0  0  0  0  0  0  0  0  0
    0.8780    1.2363   -0.3701 C   0  0  0  0  0  0  0  0  0  0  0  0
    1.6049    0.1272    0.0625 C   0  0  0  0  0  0  0  0  0  0  0  0
   -0.9673   -0.2052   -0.9650 C   0  0  0  0  0  0  0  0  0  0  0  0
   -0.2404   -1.3143   -0.5324 C   0  0  0  0  0  0  0  0  0  0  0  0
   -0.4081    1.0701   -0.8839 C   0  0  0  0  0  0  0  0  0  0  0  0
   -2.3431   -0.3826   -1.5131 C   0  0  0  0  0  0  0  0  0  0  0  0
    1.0924   -3.7115    0.3145 C   0  0  0  0  0  0  0  0  0  0  0  0
    2.1965   -2.2006    1.9536 C   0  0  0  0  0  0  0  0  0  0  0  0
    0.5741    3.7669   -0.8035 C   0  0  0  0  0  0  0  0  0  0  0  0
    2.7924    2.6853   -1.1165 C   0  0  0  0  0  0  0  0  0  0  0  0
    3.1038   -2.4881   -0.3229 C   0  0  0  0  0  0  0  0  0  0  0  0
    1.8184    2.9621    1.1336 C   0  0  0  0  0  0  0  0  0  0  0  0
   -4.0029    0.8061   -0.0412 C   0  0  0  0  0  0  0  0  0  0  0  0
   -4.6501   -0.8770    1.0103 C   0  0  0  0  0  0  0  0  0  0  0  0
  1  2  1  0
  1 14  1  0
  1 21  1  0
  2 22  2  0
  3 19  3  0
  4 20  3  0
  5 21  2  0
  5 22  1  0
  6  8  1  0
  6 15  1  0
  6 16  1  0
  6 19  1  0
  7  9  1  0
  7 17  1  0
  7 18  1  0
  7 20  1  0
  8 10  2  0
  8 12  1  0
  9 10  1  0
  9 13  2  0
 11 12  2  0
 11 13  1  0
 11 14  1  0
M  END
>  <PUBCHEM_COMPOUND_CID>  (1) 
2187

>  <PUBCHEM_CONFORMER_RMSD>  (1) 
0.6

>  <PUBCHEM_CONFORMER_DIVERSEORDER>  (1) 
8
186
98
212
279
217
131
184
96
204
206
58
169
92
151
100
183
224
33
187
74
47
223
66
227
176
294
16
138
89
210
179
147
156
286
282
59
56
225
40
213
191
243
231
229
46
136
64
219
87
153
85
209
134
253
291
281
177
166
171
188
36
202
90
216
20
222
93
185
275
106
214
102
221
84
175
57
2
283
232
173
220
7
148
181
270
233
69
211
42
293
99
135
1
139
97
230
86
269
261
278
290
41
145
194
152
160
287
288
61
276
95
146
273
280
24
241
215
15
284
81
274
272
35
289
237
268
264
277
267
292
246
252
132
259
238
271
285
44
257
245
247
22
260
250
34
239
218
263
244
240
126
249
144
53
158
234
193
79
235
228
226
94
236
120
258
23
141
265
192
266
118
88
91
248
67
29
45
190
137
189
155
254
104
203
163
49
63
195
255
154
262
180
26
18
128
198
75
111
60
17
256
251
165
162
119
48
76
110
112
164
117
242
129
114
178
9
70
116
196
197
62
12
157
108
38
123
77
142
25
115
68
174
161
78
71
130
37
170
65
113
73
28
133
107
109
168
19
50
103
39
72
51
13
207
167
21
10
127
125
205
27
52
43
199
200
143
14
3
101
30
105
150
83
55
4
121
208
5
182
159
54
6
140
11
201
82
124
80
31
149
122
32
172

>  <PUBCHEM_MMFF94_PARTIAL_CHARGES>  (1) 
23
1 0.31
10 -0.15
11 -0.14
12 -0.15
13 -0.15
14 0.4
19 0.36
2 -0.71
20 0.36
21 0.04
22 0.37
23 0.15
24 0.15
25 0.15
3 -0.56
4 -0.56
40 0.15
41 0.15
5 -0.57
6 0.34
7 0.34
8 -0.14
9 -0.14

>  <PUBCHEM_EFFECTIVE_ROTOR_COUNT>  (1) 
4

>  <PUBCHEM_PHARMACOPHORE_FEATURES>  (1) 
8
1 3 acceptor
1 4 acceptor
3 1 5 21 cation
3 2 5 22 cation
3 6 15 16 hydrophobe
3 7 17 18 hydrophobe
5 1 2 5 21 22 rings
6 8 9 10 11 12 13 rings

>  <PUBCHEM_HEAVY_ATOM_COUNT>  (1) 
22

>  <PUBCHEM_ATOM_DEF_STEREO_COUNT>  (1) 
0

>  <PUBCHEM_ATOM_UDEF_STEREO_COUNT>  (1) 
0

>  <PUBCHEM_BOND_DEF_STEREO_COUNT>  (1) 
0

>  <PUBCHEM_BOND_UDEF_STEREO_COUNT>  (1) 
0

>  <PUBCHEM_ISOTOPIC_ATOM_COUNT>  (1) 
0

>  <PUBCHEM_COMPONENT_COUNT>  (1) 
1

>  <PUBCHEM_CACTVS_TAUTO_COUNT>  (1) 
1

>  <PUBCHEM_CONFORMER_ID>  (1) 
0000088B00000008

>  <PUBCHEM_MMFF94_ENERGY>  (1) 
57.0979

>  <PUBCHEM_FEATURE_SELFOVERLAP>  (1) 
43.372

>  <PUBCHEM_SHAPE_FINGERPRINT>  (1) 
11578080 2 17313656054087658181
12160290 23 17187824438711528484
12166972 35 17845643752029345665
12553582 1 18264761056839439319
12788726 201 17400342465591528619
13140716 1 18120924260121885480
133893 2 18049123874168664798
13533116 47 18411420653099341271
13692114 37 17837203045312147958
13878862 14 18337093594105619845
14178342 30 17979624964042451661
14787075 74 17968672531461402894
14790565 3 18263652921123366780
14955137 171 18272379628674185414
15042514 8 17544757828905529654
15475509 84 18126298449926935825
17980427 26 17844514716354123132
1813 80 18129107723040722406
18785283 64 18188496898906450988
19591789 44 18191026909453110854
20028762 73 17332252399218070783
20600515 1 17763184635462846325
20645477 70 18261095410069266399
20671657 1 18343300413698764295
20832881 197 18129961064866389932
21033648 29 17057786431440667275
21041028 32 18269559342609526356
21120745 212 17766297383573059470
21524375 3 17983299523528965493
21731228 192 17904749334540131952
2255824 54 18408608088600066167
23557571 272 17620170067754560530
23559900 14 18333448747160109303
23598291 2 18201147828277659287
2748010 2 18049972560033239540
3091708 16 9648343735035569862
312423 11 18201434822630301455
352729 6 17254546617936671998
458136 41 18190470543589797141
474 4 18193275428249775181
58807428 26 18049423031699916728
59444896 2 17549596934546899844
6442390 28 17760661647245198287
7097593 13 18341050718809398483
7364860 26 18410294734994349255
7615 1 17845638357386976479
81228 2 17402024726929730164
84936 182 18129102393012512673

>  <PUBCHEM_SHAPE_MULTIPOLES>  (1) 
427.84
7.05
4.89
1.47
10.33
1.58
-0.61
-2.44
-1.25
-6.19
-0.75
-0.51
0.48
0.45

>  <PUBCHEM_SHAPE_SELFOVERLAP>  (1) 
905.065

>  <PUBCHEM_SHAPE_VOLUME>  (1) 
238.5

>  <PUBCHEM_COORDINATE_TYPE>  (1) 
2
5
10

$$$$
