21882
     RDKit          3D

 13 13  0  0  1  0  0  0  0  0999 V2000
   -1.9017   -2.5842   -0.6095 O   0  0  0  0  0  0  0  0  0  0  0  0
   -1.3879   -1.7513    1.4420 O   0  0  0  0  0  0  0  0  0  0  0  0
   -0.8801    0.8334    0.2416 C   0  0  0  0  0  0  0  0  0  0  0  0
   -1.1012    2.2423   -0.3515 C   0  0  0  0  0  0  0  0  0  0  0  0
   -1.8346   -0.2100   -0.3681 C   0  0  0  0  0  0  0  0  0  0  0  0
    0.5785    0.4220    0.0806 C   0  0  0  0  0  0  0  0  0  0  0  0
   -2.5406    2.7273   -0.2392 C   0  0  0  0  0  0  0  0  0  0  0  0
    1.4924    0.8279    1.0300 C   0  0  0  0  0  0  0  0  0  0  0  0
    0.9373   -0.3432   -1.0091 C   0  0  0  0  0  0  0  0  0  0  0  0
   -1.6791   -1.5729    0.2664 C   0  0  0  0  0  0  0  0  0  0  0  0
    2.8274    0.4513    0.8829 C   0  0  0  0  0  0  0  0  0  0  0  0
    2.2723   -0.7199   -1.1560 C   0  0  0  0  0  0  0  0  0  0  0  0
    3.2173   -0.3226   -0.2100 C   0  0  0  0  0  0  0  0  0  0  0  0
  1 10  1  0
  2 10  2  0
  3  4  1  0
  3  5  1  0
  3  6  1  0
  4  7  1  0
  5 10  1  0
  6  8  2  0
  6  9  1  0
  8 11  1  0
  9 12  2  0
 11 13  2  0
 12 13  1  0
M  END
>  <PUBCHEM_COMPOUND_CID>  (1) 
21882

>  <PUBCHEM_CONFORMER_RMSD>  (1) 
0.6

>  <PUBCHEM_CONFORMER_DIVERSEORDER>  (1) 
1
20
22
21
15
12
2
14
17
16
7
23
11
9
8
5
18
6
4
3
19
13
10

>  <PUBCHEM_MMFF94_PARTIAL_CHARGES>  (1) 
17
1 -0.65
10 0.66
11 -0.15
12 -0.15
13 -0.15
2 -0.57
22 0.15
23 0.15
24 0.15
25 0.15
26 0.15
27 0.5
3 0.14
5 0.06
6 -0.14
8 -0.15
9 -0.15

>  <PUBCHEM_EFFECTIVE_ROTOR_COUNT>  (1) 
4

>  <PUBCHEM_PHARMACOPHORE_FEATURES>  (1) 
5
1 1 acceptor
1 2 acceptor
1 7 hydrophobe
3 1 2 10 anion
6 6 8 9 11 12 13 rings

>  <PUBCHEM_HEAVY_ATOM_COUNT>  (1) 
13

>  <PUBCHEM_ATOM_DEF_STEREO_COUNT>  (1) 
0

>  <PUBCHEM_ATOM_UDEF_STEREO_COUNT>  (1) 
1

>  <PUBCHEM_BOND_DEF_STEREO_COUNT>  (1) 
0

>  <PUBCHEM_BOND_UDEF_STEREO_COUNT>  (1) 
0

>  <PUBCHEM_ISOTOPIC_ATOM_COUNT>  (1) 
0

>  <PUBCHEM_COMPONENT_COUNT>  (1) 
1

>  <PUBCHEM_CACTVS_TAUTO_COUNT>  (1) 
1

>  <PUBCHEM_CONFORMER_ID>  (1) 
0000557A00000001

>  <PUBCHEM_MMFF94_ENERGY>  (1) 
29.852

>  <PUBCHEM_FEATURE_SELFOVERLAP>  (1) 
25.429

>  <PUBCHEM_SHAPE_FINGERPRINT>  (1) 
1 1 17614561432696276013
12138202 97 18339922602240469492
12423570 1 14355846552531803849
12500047 106 18265612087760919180
12532896 13 18266171730347195637
12716758 59 18338798884197995080
13294875 104 17477460037757629824
13380537 58 18336264527054904092
13898156 1 17530682100068805368
14817 1 13924627223408406439
15279308 132 18124596379629176736
15852999 172 18056749936668993884
15906896 17 18041010496658358017
16945 1 18411410709231640652
17990270 104 17761774365960875427
18186145 218 17912081642568167661
18380122 1 18058442287091147312
18534176 82 18341051826536557612
20524608 308 18340202999059004415
20645476 183 17678758751098128188
20711985 344 18335136514029277211
20871998 184 18410866455534609423
21524375 3 17975130946671897221
21930827 45 18338795607053786080
23402539 116 18268126748047224389
23419403 2 13823881133086431934
23526113 38 17555742010133023462
23557571 272 18412554219174855804
23559900 14 18127128577427624094
25 1 17769374915923352773
2748010 2 17917989482269520756
276578 36 17901110715646224761
305870 269 17613991898415974277
576247 118 17901981803559101123
81228 2 18335700572284922353
81539 233 17610342641299375805
8809292 202 18199752453537628324
88987 49 18335421231980810868

>  <PUBCHEM_SHAPE_MULTIPOLES>  (1) 
255.8
4.28
2.54
1.12
1.96
0.45
-0.11
-0.95
0.22
-3.02
0.01
0.36
0.23
0.7

>  <PUBCHEM_SHAPE_SELFOVERLAP>  (1) 
521.269

>  <PUBCHEM_SHAPE_VOLUME>  (1) 
147.9

>  <PUBCHEM_COORDINATE_TYPE>  (1) 
2
5
10

$$$$
