21881
     RDKit          3D

 13 13  0  0  1  0  0  0  0  0999 V2000
    1.5675    1.5113    1.3740 O   0  0  0  0  0  0  0  0  0  0  0  0
    2.1860    1.6958   -0.8007 O   0  0  0  0  0  0  0  0  0  0  0  0
    1.4476   -0.4717    0.0284 C   0  0  0  0  0  0  0  0  0  0  0  0
    0.3382   -0.6750   -1.0200 C   0  0  0  0  0  0  0  0  0  0  0  0
    2.7041   -1.2719   -0.3616 C   0  0  0  0  0  0  0  0  0  0  0  0
   -1.0441   -0.3769   -0.4899 C   0  0  0  0  0  0  0  0  0  0  0  0
    1.7836    1.0103    0.1310 C   0  0  0  0  0  0  0  0  0  0  0  0
    3.8114   -1.1710    0.6803 C   0  0  0  0  0  0  0  0  0  0  0  0
   -1.7808   -1.3945    0.0947 C   0  0  0  0  0  0  0  0  0  0  0  0
   -1.5497    0.9088   -0.5974 C   0  0  0  0  0  0  0  0  0  0  0  0
   -3.0574   -1.1192    0.5847 C   0  0  0  0  0  0  0  0  0  0  0  0
   -2.8263    1.1840   -0.1072 C   0  0  0  0  0  0  0  0  0  0  0  0
   -3.5801    0.1699    0.4838 C   0  0  0  0  0  0  0  0  0  0  0  0
  1  7  1  0
  2  7  2  0
  3  4  1  0
  3  5  1  0
  3  7  1  0
  4  6  1  0
  5  8  1  0
  6  9  2  0
  6 10  1  0
  9 11  1  0
 10 12  2  0
 11 13  2  0
 12 13  1  0
M  END
>  <PUBCHEM_COMPOUND_CID>  (1) 
21881

>  <PUBCHEM_CONFORMER_RMSD>  (1) 
0.6

>  <PUBCHEM_CONFORMER_DIVERSEORDER>  (1) 
1
23
20
29
26
19
8
2
11
24
3
28
16
6
14
18
22
4
27
10
25
5
17
15
13
12
7
9
21

>  <PUBCHEM_MMFF94_PARTIAL_CHARGES>  (1) 
17
1 -0.65
10 -0.15
11 -0.15
12 -0.15
13 -0.15
2 -0.57
22 0.15
23 0.15
24 0.15
25 0.15
26 0.15
27 0.5
3 0.06
4 0.14
6 -0.14
7 0.66
9 -0.15

>  <PUBCHEM_EFFECTIVE_ROTOR_COUNT>  (1) 
4

>  <PUBCHEM_PHARMACOPHORE_FEATURES>  (1) 
5
1 1 acceptor
1 2 acceptor
1 8 hydrophobe
3 1 2 7 anion
6 6 9 10 11 12 13 rings

>  <PUBCHEM_HEAVY_ATOM_COUNT>  (1) 
13

>  <PUBCHEM_ATOM_DEF_STEREO_COUNT>  (1) 
0

>  <PUBCHEM_ATOM_UDEF_STEREO_COUNT>  (1) 
1

>  <PUBCHEM_BOND_DEF_STEREO_COUNT>  (1) 
0

>  <PUBCHEM_BOND_UDEF_STEREO_COUNT>  (1) 
0

>  <PUBCHEM_ISOTOPIC_ATOM_COUNT>  (1) 
0

>  <PUBCHEM_COMPONENT_COUNT>  (1) 
1

>  <PUBCHEM_CACTVS_TAUTO_COUNT>  (1) 
1

>  <PUBCHEM_CONFORMER_ID>  (1) 
0000557900000001

>  <PUBCHEM_MMFF94_ENERGY>  (1) 
24.5099

>  <PUBCHEM_FEATURE_SELFOVERLAP>  (1) 
25.43

>  <PUBCHEM_SHAPE_FINGERPRINT>  (1) 
10130415 120 18342176622652311082
10219947 1 17560796576982081470
10465860 250 18264762173894543314
10857977 72 18188776170876045025
12251169 10 18410576171443077983
124424 183 18339073779105564223
12500047 106 17677323906046906991
12696612 119 18410013268649784180
12932764 1 17987804145215939015
13296908 3 17894633690515847275
13922767 16 18272365330685339009
14965852 173 18408882944905741791
15219456 202 18410574002341908813
15375462 189 17677326109317969202
15653759 3 18261110746748347611
15775835 57 18058453264695259356
16945 1 18263930934007413087
17802600 8 18341888576496982641
17804303 29 18262244326157254127
17841504 4 18411134744872102618
18511873 20 18337953385378463114
19422 9 17022914406062722182
19973954 147 18409731772309039205
200 152 17988909073298687487
20201158 50 18342459184182180311
20361792 2 15574712516950330607
20528008 55 18410009962131491143
20645464 45 18342179930056898711
21501502 16 18339926021013376967
21524375 3 16624034943817612664
23402539 116 18342165628142630053
23557571 272 10663523946601375753
2748010 2 18409726279114342189
3248919 1 18188198922543991759
3286 77 18060129964477969993
369184 2 18409167731834714871
57426455 114 18335976476467425995
57812782 119 18412260614809197567
7364860 26 18338519745958073036

>  <PUBCHEM_SHAPE_MULTIPOLES>  (1) 
255.8
6.17
1.72
0.98
0.37
0.31
0.07
-1.08
1.35
0.46
0.09
0.25
0.12
0.19

>  <PUBCHEM_SHAPE_SELFOVERLAP>  (1) 
519.122

>  <PUBCHEM_SHAPE_VOLUME>  (1) 
148.8

>  <PUBCHEM_COORDINATE_TYPE>  (1) 
2
5
10

$$$$
