21889
     RDKit          3D

 14 15  0  0  0  0  0  0  0  0999 V2000
    2.9107    0.0000    0.0012 O   0  0  0  0  0  0  0  0  0  0  0  0
    0.8213    1.2729   -0.0001 C   0  0  0  0  0  0  0  0  0  0  0  0
    0.8213   -1.2729   -0.0003 C   0  0  0  0  0  0  0  0  0  0  0  0
    1.6851    0.0000   -0.0002 C   0  0  0  0  0  0  0  0  0  0  0  0
   -0.5775    0.7028   -0.0004 C   0  0  0  0  0  0  0  0  0  0  0  0
   -0.5776   -0.7028   -0.0002 C   0  0  0  0  0  0  0  0  0  0  0  0
    1.1047    2.0818   -1.2653 C   0  0  0  0  0  0  0  0  0  0  0  0
    1.1042    2.0813    1.2654 C   0  0  0  0  0  0  0  0  0  0  0  0
    1.1045   -2.0814   -1.2658 C   0  0  0  0  0  0  0  0  0  0  0  0
    1.1045   -2.0816    1.2650 C   0  0  0  0  0  0  0  0  0  0  0  0
   -1.7742    1.4100   -0.0003 C   0  0  0  0  0  0  0  0  0  0  0  0
   -1.7743   -1.4100    0.0003 C   0  0  0  0  0  0  0  0  0  0  0  0
   -2.9763    0.7004    0.0001 C   0  0  0  0  0  0  0  0  0  0  0  0
   -2.9764   -0.7004    0.0005 C   0  0  0  0  0  0  0  0  0  0  0  0
  1  4  2  0
  2  4  1  0
  2  5  1  0
  2  7  1  0
  2  8  1  0
  3  4  1  0
  3  6  1  0
  3  9  1  0
  3 10  1  0
  5  6  2  0
  5 11  1  0
  6 12  1  0
 11 13  2  0
 12 14  2  0
 13 14  1  0
M  END
>  <PUBCHEM_COMPOUND_CID>  (1) 
21889

>  <PUBCHEM_CONFORMER_RMSD>  (1) 
0.4

>  <PUBCHEM_CONFORMER_DIVERSEORDER>  (1) 
1

>  <PUBCHEM_MMFF94_PARTIAL_CHARGES>  (1) 
14
1 -0.57
11 -0.15
12 -0.15
13 -0.15
14 -0.15
2 0.2
27 0.15
28 0.15
29 0.15
3 0.2
30 0.15
4 0.45
5 -0.14
6 -0.14

>  <PUBCHEM_EFFECTIVE_ROTOR_COUNT>  (1) 
0.4

>  <PUBCHEM_PHARMACOPHORE_FEATURES>  (1) 
5
1 1 acceptor
3 2 7 8 hydrophobe
3 3 9 10 hydrophobe
5 2 3 4 5 6 rings
6 5 6 11 12 13 14 rings

>  <PUBCHEM_HEAVY_ATOM_COUNT>  (1) 
14

>  <PUBCHEM_ATOM_DEF_STEREO_COUNT>  (1) 
0

>  <PUBCHEM_ATOM_UDEF_STEREO_COUNT>  (1) 
0

>  <PUBCHEM_BOND_DEF_STEREO_COUNT>  (1) 
0

>  <PUBCHEM_BOND_UDEF_STEREO_COUNT>  (1) 
0

>  <PUBCHEM_ISOTOPIC_ATOM_COUNT>  (1) 
0

>  <PUBCHEM_COMPONENT_COUNT>  (1) 
1

>  <PUBCHEM_CACTVS_TAUTO_COUNT>  (1) 
1

>  <PUBCHEM_CONFORMER_ID>  (1) 
0000558100000001

>  <PUBCHEM_MMFF94_ENERGY>  (1) 
41.6007

>  <PUBCHEM_FEATURE_SELFOVERLAP>  (1) 
25.448

>  <PUBCHEM_SHAPE_FINGERPRINT>  (1) 
1 1 18342737472092535007
12382932 28 18269548334565928001
12423570 1 11085283490022473664
12524768 44 18196936565435617175
12696612 119 18335141981559516159
13140716 1 18266459995677426433
14817 1 8382822756393348522
15001771 113 17838628755457631624
15775835 57 18126855017067798537
16945 1 18410573989530814469
17990270 104 18342177717885081615
20511035 2 18121781896265983146
20588541 1 18340207384178298684
20645476 183 17173206890955179596
20645477 70 18340201990607184719
21040471 1 17906172111097196228
22344851 341 18263932046504260474
22802520 49 17258249751946107396
2334 1 17978511167490501653
23419403 2 15610368583927869135
23463225 33 18334290929705940538
23552423 10 18333732450813363903
23559900 14 18343027697094033852
241688 4 17905337225320882488
2748010 2 18051133897546540015
5084963 1 18264489653454977345
5255222 1 18337099095077393557
528886 8 18188209904701741892
53812653 166 18412538808167189241
63268167 104 18338798901472823009
7364860 26 18273496771084110721
81228 2 17403180296349288819

>  <PUBCHEM_SHAPE_MULTIPOLES>  (1) 
282.24
3.51
2.54
1.08
2.11
0
0
0
0
-0.92
0
-0.52
0
0

>  <PUBCHEM_SHAPE_SELFOVERLAP>  (1) 
607.61

>  <PUBCHEM_SHAPE_VOLUME>  (1) 
160.3

>  <PUBCHEM_COORDINATE_TYPE>  (1) 
2
5
10

$$$$
