2188
     RDKit          3D

 20 21  0  0  0  0  0  0  0  0999 V2000
    0.3684   -3.9363   -0.2299 Cl  0  0  0  0  0  0  0  0  0  0  0  0
   -3.0366    1.6101    0.0657 S   0  0  0  0  0  0  0  0  0  0  0  0
    3.3389    1.3987   -0.2889 S   0  0  0  0  0  0  0  0  0  0  0  0
    2.3705    0.6740    0.8251 O   0  0  0  0  0  0  0  0  0  0  0  0
    2.6409   -2.0359    0.4475 O   0  0  0  0  0  0  0  0  0  0  0  0
   -4.4697    1.3942   -0.2076 O   0  0  0  0  0  0  0  0  0  0  0  0
   -2.7290    2.0261    1.4498 O   0  0  0  0  0  0  0  0  0  0  0  0
   -2.3264    2.4026   -0.9595 O   0  0  0  0  0  0  0  0  0  0  0  0
    4.3464    2.0778    0.5258 O   0  0  0  0  0  0  0  0  0  0  0  0
    2.4551    2.3122   -1.0123 O   0  0  0  0  0  0  0  0  0  0  0  0
    3.8749    0.2978   -1.0886 O   0  0  0  0  0  0  0  0  0  0  0  0
   -2.3953    0.0780   -0.0668 N   0  0  0  0  0  0  0  0  0  0  0  0
   -1.0713   -0.2593    0.1024 C   0  0  0  0  0  0  0  0  0  0  0  0
   -0.9698   -1.6379   -0.0959 C   0  0  0  0  0  0  0  0  0  0  0  0
    0.0329    0.5425    0.4127 C   0  0  0  0  0  0  0  0  0  0  0  0
   -2.2777   -2.1150   -0.3899 C   0  0  0  0  0  0  0  0  0  0  0  0
   -3.1322   -1.0370   -0.3643 C   0  0  0  0  0  0  0  0  0  0  0  0
    0.2948   -2.2484    0.0208 C   0  0  0  0  0  0  0  0  0  0  0  0
    1.2770   -0.0852    0.5233 C   0  0  0  0  0  0  0  0  0  0  0  0
    1.4081   -1.4591    0.3307 C   0  0  0  0  0  0  0  0  0  0  0  0
  1 18  1  0
  2  6  1  0
  2  7  2  0
  2  8  2  0
  2 12  1  0
  3  4  1  0
  3  9  1  0
  3 10  2  0
  3 11  2  0
  4 19  1  0
  5 20  1  0
 12 13  1  0
 12 17  1  0
 13 14  2  0
 13 15  1  0
 14 16  1  0
 14 18  1  0
 15 19  2  0
 16 17  2  0
 18 20  2  0
 19 20  1  0
M  CHG  2   6  -1   9  -1
M  END
>  <PUBCHEM_COMPOUND_CID>  (1) 
2188

>  <PUBCHEM_CONFORMER_RMSD>  (1) 
0.6

>  <PUBCHEM_CONFORMER_DIVERSEORDER>  (1) 
1
5
8
3
7
6
4
2

>  <PUBCHEM_MMFF94_PARTIAL_CHARGES>  (1) 
23
1 -0.18
10 -0.82
11 -0.82
12 0.32
13 -0.15
15 -0.15
16 -0.15
17 -0.3
18 0.18
19 0.08
2 1.44
20 0.08
21 0.15
22 0.15
23 0.15
24 0.45
3 1.63
4 -0.27
5 -0.53
6 -0.82
7 -0.82
8 -0.82
9 -0.82

>  <PUBCHEM_EFFECTIVE_ROTOR_COUNT>  (1) 
3

>  <PUBCHEM_PHARMACOPHORE_FEATURES>  (1) 
11
1 10 acceptor
1 11 acceptor
1 5 donor
1 6 acceptor
1 7 acceptor
1 8 acceptor
1 9 acceptor
4 2 6 7 8 anion
4 3 9 10 11 anion
5 12 13 14 16 17 rings
6 13 14 15 18 19 20 rings

>  <PUBCHEM_HEAVY_ATOM_COUNT>  (1) 
20

>  <PUBCHEM_ATOM_DEF_STEREO_COUNT>  (1) 
0

>  <PUBCHEM_ATOM_UDEF_STEREO_COUNT>  (1) 
0

>  <PUBCHEM_BOND_DEF_STEREO_COUNT>  (1) 
0

>  <PUBCHEM_BOND_UDEF_STEREO_COUNT>  (1) 
0

>  <PUBCHEM_ISOTOPIC_ATOM_COUNT>  (1) 
0

>  <PUBCHEM_COMPONENT_COUNT>  (1) 
1

>  <PUBCHEM_CACTVS_TAUTO_COUNT>  (1) 
3

>  <PUBCHEM_CONFORMER_ID>  (1) 
0000088C00000001

>  <PUBCHEM_MMFF94_ENERGY>  (1) 
54.2981

>  <PUBCHEM_FEATURE_SELFOVERLAP>  (1) 
56.052

>  <PUBCHEM_SHAPE_FINGERPRINT>  (1) 
10411042 1 17113814653453248386
10498660 4 18409162221138823997
10967382 1 18123746452893593355
12173636 292 18339639048362288287
12788726 201 17540542752612759098
13140716 1 18338232665632309994
13380535 21 18411985728285886835
13583140 156 17024300830491327785
14790565 3 18122637303950048889
15042514 8 17977103792591942858
16945 1 18124021588335187827
17134986 127 18409169896229232820
1741750 31 18412825815235720512
18186145 218 18271820029137723780
19591789 44 17616819168429460667
20510252 161 18198908200137189115
20600515 1 17409929128891564930
20671657 1 18196374723362166559
21501502 16 18411410687994512299
21524375 3 18261671570977735674
2334 1 18411694404696160315
23366157 5 18115867403956058051
23402539 116 18053374676289625182
23419403 2 15896943898648154330
23557571 272 17984989443052636368
23558518 356 18334011735019962266
23559900 14 18197207053643755315
238 59 17541059140662117133
2748010 2 18412259532245648779
3071541 12 18196937669010363410
3091708 16 9263902767144068130
350125 39 18410857646277396419
474 4 17967534601060662924
58051976 378 18339919441060234574
7364860 26 18267304227260468974
81228 2 17764022871387120858
9709674 26 18055925535393315262
9981440 41 18336818792415921378

>  <PUBCHEM_SHAPE_MULTIPOLES>  (1) 
369.22
6.74
3.73
0.9
1.82
2.23
-0.02
-5.41
0.61
-0.08
0.3
0.12
-0.36
-0.5

>  <PUBCHEM_SHAPE_SELFOVERLAP>  (1) 
775.425

>  <PUBCHEM_SHAPE_VOLUME>  (1) 
211.6

>  <PUBCHEM_COORDINATE_TYPE>  (1) 
2
5
10

$$$$
