21894
     RDKit          3D

 10 10  0  0  0  0  0  0  0  0999 V2000
   -1.2402   -1.1853   -0.0280 O   0  0  0  0  0  0  0  0  0  0  0  0
   -1.2404    1.1849    0.0286 O   0  0  0  0  0  0  0  0  0  0  0  0
    2.1056    2.2455    0.0531 N   0  0  0  0  0  0  0  0  0  0  0  0
    2.1069   -2.2448   -0.0539 N   0  0  0  0  0  0  0  0  0  0  0  0
   -2.5489   -0.7027    0.2705 C   0  0  0  0  0  0  0  0  0  0  0  0
   -2.5489    0.7023   -0.2711 C   0  0  0  0  0  0  0  0  0  0  0  0
   -0.5153   -0.0002    0.0000 C   0  0  0  0  0  0  0  0  0  0  0  0
    0.8211    0.0001    0.0005 C   0  0  0  0  0  0  0  0  0  0  0  0
    1.5298    1.2382    0.0297 C   0  0  0  0  0  0  0  0  0  0  0  0
    1.5303   -1.2379   -0.0295 C   0  0  0  0  0  0  0  0  0  0  0  0
  1  5  1  0
  1  7  1  0
  2  6  1  0
  2  7  1  0
  3  9  3  0
  4 10  3  0
  5  6  1  0
  7  8  2  3
  8  9  1  0
  8 10  1  0
M  END
>  <PUBCHEM_COMPOUND_CID>  (1) 
21894

>  <PUBCHEM_CONFORMER_RMSD>  (1) 
0.4

>  <PUBCHEM_CONFORMER_DIVERSEORDER>  (1) 
1

>  <PUBCHEM_MMFF94_PARTIAL_CHARGES>  (1) 
10
1 -0.36
10 0.49
2 -0.36
3 -0.56
4 -0.56
5 0.28
6 0.28
7 0.15
8 0.13
9 0.49

>  <PUBCHEM_EFFECTIVE_ROTOR_COUNT>  (1) 
0.8

>  <PUBCHEM_PHARMACOPHORE_FEATURES>  (1) 
5
1 1 acceptor
1 2 acceptor
1 3 acceptor
1 4 acceptor
5 1 2 5 6 7 rings

>  <PUBCHEM_HEAVY_ATOM_COUNT>  (1) 
10

>  <PUBCHEM_ATOM_DEF_STEREO_COUNT>  (1) 
0

>  <PUBCHEM_ATOM_UDEF_STEREO_COUNT>  (1) 
0

>  <PUBCHEM_BOND_DEF_STEREO_COUNT>  (1) 
0

>  <PUBCHEM_BOND_UDEF_STEREO_COUNT>  (1) 
0

>  <PUBCHEM_ISOTOPIC_ATOM_COUNT>  (1) 
0

>  <PUBCHEM_COMPONENT_COUNT>  (1) 
1

>  <PUBCHEM_CACTVS_TAUTO_COUNT>  (1) 
1

>  <PUBCHEM_CONFORMER_ID>  (1) 
0000558600000001

>  <PUBCHEM_MMFF94_ENERGY>  (1) 
9.6776

>  <PUBCHEM_FEATURE_SELFOVERLAP>  (1) 
25.41

>  <PUBCHEM_SHAPE_FINGERPRINT>  (1) 
12897270 3 18338518671867972437
13380535 76 18263917907308372098
14648413 74 18408886204859558241
16945 1 18411138034621774982
19973954 147 18410292484674241409
20645477 70 18411975876169493463
20653091 64 18340492175038619154
20711985 344 17191243928485393606
21040471 1 17978511163285458472
23552423 10 18408885144087058047
2748010 2 18335138696057201943
5084963 1 18129654189172911523
7364860 26 18342176665633599874
81228 2 17475800849310400282

>  <PUBCHEM_SHAPE_MULTIPOLES>  (1) 
184.09
3.66
2.11
0.6
1.3
0
0
0
0
-1.8
0
0.05
0
0.17

>  <PUBCHEM_SHAPE_SELFOVERLAP>  (1) 
378.693

>  <PUBCHEM_SHAPE_VOLUME>  (1) 
101.9

>  <PUBCHEM_COORDINATE_TYPE>  (1) 
2
5
10

$$$$
