21895
     RDKit          3D

 14 15  0  0  1  0  0  0  0  0999 V2000
   -1.3997    0.3181   -0.2161 O   0  0  0  0  0  0  0  0  0  0  0  0
   -1.7564   -2.0020   -0.1329 O   0  0  0  0  0  0  0  0  0  0  0  0
   -3.4043    2.3500   -0.4195 O   0  0  0  0  0  0  0  0  0  0  0  0
   -2.7925    0.0411   -0.3773 C   0  0  0  0  0  0  0  0  0  0  0  0
   -0.7750   -0.9697   -0.3026 C   0  0  0  0  0  0  0  0  0  0  0  0
   -2.9399   -1.3131    0.2734 C   0  0  0  0  0  0  0  0  0  0  0  0
    0.2882   -1.0856    0.7724 C   0  0  0  0  0  0  0  0  0  0  0  0
   -3.6304    1.1262    0.2639 C   0  0  0  0  0  0  0  0  0  0  0  0
    1.5653   -0.3854    0.3815 C   0  0  0  0  0  0  0  0  0  0  0  0
    2.5449   -1.0882   -0.3039 C   0  0  0  0  0  0  0  0  0  0  0  0
    1.7392    0.9498    0.7135 C   0  0  0  0  0  0  0  0  0  0  0  0
    3.7261   -0.4406   -0.6657 C   0  0  0  0  0  0  0  0  0  0  0  0
    2.9205    1.5973    0.3514 C   0  0  0  0  0  0  0  0  0  0  0  0
    3.9139    0.9021   -0.3381 C   0  0  0  0  0  0  0  0  0  0  0  0
  1  4  1  0
  1  5  1  0
  2  5  1  0
  2  6  1  0
  3  8  1  0
  4  6  1  0
  4  8  1  0
  5  7  1  0
  7  9  1  0
  9 10  2  0
  9 11  1  0
 10 12  1  0
 11 13  2  0
 12 14  2  0
 13 14  1  0
M  END
>  <PUBCHEM_COMPOUND_CID>  (1) 
21895

>  <PUBCHEM_CONFORMER_RMSD>  (1) 
0.6

>  <PUBCHEM_CONFORMER_DIVERSEORDER>  (1) 
1
15
19
31
34
25
33
3
6
30
26
12
11
23
22
9
16
4
24
32
14
35
17
13
28
10
5
29
27
2
18
21
8
7
20

>  <PUBCHEM_MMFF94_PARTIAL_CHARGES>  (1) 
20
1 -0.56
10 -0.15
11 -0.15
12 -0.15
13 -0.15
14 -0.15
2 -0.56
23 0.15
24 0.15
25 0.4
26 0.15
27 0.15
28 0.15
3 -0.68
4 0.28
5 0.56
6 0.28
7 0.14
8 0.28
9 -0.14

>  <PUBCHEM_EFFECTIVE_ROTOR_COUNT>  (1) 
4

>  <PUBCHEM_PHARMACOPHORE_FEATURES>  (1) 
6
1 1 acceptor
1 2 acceptor
1 3 acceptor
1 3 donor
5 1 2 4 5 6 rings
6 9 10 11 12 13 14 rings

>  <PUBCHEM_HEAVY_ATOM_COUNT>  (1) 
14

>  <PUBCHEM_ATOM_DEF_STEREO_COUNT>  (1) 
0

>  <PUBCHEM_ATOM_UDEF_STEREO_COUNT>  (1) 
2

>  <PUBCHEM_BOND_DEF_STEREO_COUNT>  (1) 
0

>  <PUBCHEM_BOND_UDEF_STEREO_COUNT>  (1) 
0

>  <PUBCHEM_ISOTOPIC_ATOM_COUNT>  (1) 
0

>  <PUBCHEM_COMPONENT_COUNT>  (1) 
1

>  <PUBCHEM_CACTVS_TAUTO_COUNT>  (1) 
1

>  <PUBCHEM_CONFORMER_ID>  (1) 
0000558700000001

>  <PUBCHEM_MMFF94_ENERGY>  (1) 
34.0119

>  <PUBCHEM_FEATURE_SELFOVERLAP>  (1) 
30.49

>  <PUBCHEM_SHAPE_FINGERPRINT>  (1) 
10498660 4 18260819380852779933
10608611 8 18341328997871492128
10922523 26 18272373100412987974
11615756 256 18336551615506729188
116883 192 17699580143217629366
11715629 250 18271518822796386344
12173636 292 18410288125377329927
122479 349 18261678090806714633
12654215 9 18201719557449889200
12932764 1 17604138264164963450
13380535 21 18335422344013453987
13764800 53 17749116624829721459
14123255 52 18335417907596989309
14325111 11 18411136965270019762
14415576 193 18339083786912081508
15219456 202 18343023328257692726
15279308 100 18413669097667569822
15775835 57 18261112941487159313
17041 50 18201726149987318252
17834072 32 18265051328294300429
18186145 218 18202292406891529714
201361 129 18041276556691728586
20233049 118 18411981326181960584
20361792 2 14476966713385563634
20510252 161 18340208583033493195
20645477 56 18342457088111338145
20645477 70 17346326972897704062
20653085 51 18410298020670678547
22182937 141 18341339907542319329
22485316 2 11023839357252582574
22926399 65 18410295800431152940
23402539 116 18336258016475197124
23402655 69 18272936020481259012
23557571 272 18270693080784107550
23559900 14 18202003193090763158
25 1 18408887308935269514
276578 36 17022619763074816146
4028521 119 18334565842025422685
6430166 295 18337950099913006992
7832392 63 18409728460847140396
93112 12 18343302582578036398
9882013 296 12613045988765124376

>  <PUBCHEM_SHAPE_MULTIPOLES>  (1) 
270.51
7.57
1.95
0.79
0.18
0.47
-0.05
2.66
1.01
1.17
0.03
-0.19
0
0.43

>  <PUBCHEM_SHAPE_SELFOVERLAP>  (1) 
563.644

>  <PUBCHEM_SHAPE_VOLUME>  (1) 
154.1

>  <PUBCHEM_COORDINATE_TYPE>  (1) 
2
5
10

$$$$
