21897
     RDKit          3D

 13 13  0  0  1  0  0  0  0  0999 V2000
   -0.8175    0.4194   -0.4041 O   0  0  0  0  0  0  0  0  0  0  0  0
   -0.9324   -1.5374    0.8913 O   0  0  0  0  0  0  0  0  0  0  0  0
   -2.9669    2.2107   -0.9854 O   0  0  0  0  0  0  0  0  0  0  0  0
   -0.1046   -0.7566    0.0134 C   0  0  0  0  0  0  0  0  0  0  0  0
    1.1516   -0.3237    0.7587 C   0  0  0  0  0  0  0  0  0  0  0  0
   -2.1710    0.1815   -0.0075 C   0  0  0  0  0  0  0  0  0  0  0  0
    0.2389   -1.5986   -1.2088 C   0  0  0  0  0  0  0  0  0  0  0  0
   -2.0185   -0.6727    1.2274 C   0  0  0  0  0  0  0  0  0  0  0  0
    2.0496    0.5442   -0.1206 C   0  0  0  0  0  0  0  0  0  0  0  0
   -2.8919    1.4901    0.2355 C   0  0  0  0  0  0  0  0  0  0  0  0
    3.2924    1.0036    0.6413 C   0  0  0  0  0  0  0  0  0  0  0  0
    0.9959   -2.8564   -0.8235 C   0  0  0  0  0  0  0  0  0  0  0  0
    4.1743    1.8959   -0.2176 C   0  0  0  0  0  0  0  0  0  0  0  0
  1  4  1  0
  1  6  1  0
  2  4  1  0
  2  8  1  0
  3 10  1  0
  4  5  1  0
  4  7  1  0
  5  9  1  0
  6  8  1  0
  6 10  1  0
  7 12  1  0
  9 11  1  0
 11 13  1  0
M  END
>  <PUBCHEM_COMPOUND_CID>  (1) 
21897

>  <PUBCHEM_CONFORMER_RMSD>  (1) 
0.6

>  <PUBCHEM_CONFORMER_DIVERSEORDER>  (1) 
1
47
111
102
67
68
11
119
31
99
77
104
93
17
74
126
98
16
70
27
109
91
94
51
124
19
85
118
82
96
122
3
92
18
37
120
20
101
2
59
65
76
53
117
88
41
36
106
95
61
110
123
97
6
90
87
81
72
127
21
115
58
45
100
113
78
57
83
86
49
7
125
5
71
89
12
44
112
108
14
66
114
10
103
34
55
35
75
50
8
116
9
32
33
121
26
24
15
29
40
52
62
107
84
25
48
22
30
46
4
56
63
23
69
43
105
38
42
79
28
80
54
39
13
64
73
60

>  <PUBCHEM_MMFF94_PARTIAL_CHARGES>  (1) 
8
1 -0.56
10 0.28
2 -0.56
3 -0.68
33 0.4
4 0.56
6 0.28
8 0.28

>  <PUBCHEM_EFFECTIVE_ROTOR_COUNT>  (1) 
6

>  <PUBCHEM_PHARMACOPHORE_FEATURES>  (1) 
7
1 1 acceptor
1 12 hydrophobe
1 13 hydrophobe
1 2 acceptor
1 3 acceptor
1 3 donor
5 1 2 4 6 8 rings

>  <PUBCHEM_HEAVY_ATOM_COUNT>  (1) 
13

>  <PUBCHEM_ATOM_DEF_STEREO_COUNT>  (1) 
0

>  <PUBCHEM_ATOM_UDEF_STEREO_COUNT>  (1) 
2

>  <PUBCHEM_BOND_DEF_STEREO_COUNT>  (1) 
0

>  <PUBCHEM_BOND_UDEF_STEREO_COUNT>  (1) 
0

>  <PUBCHEM_ISOTOPIC_ATOM_COUNT>  (1) 
0

>  <PUBCHEM_COMPONENT_COUNT>  (1) 
1

>  <PUBCHEM_CACTVS_TAUTO_COUNT>  (1) 
1

>  <PUBCHEM_CONFORMER_ID>  (1) 
0000558900000001

>  <PUBCHEM_MMFF94_ENERGY>  (1) 
22.4364

>  <PUBCHEM_FEATURE_SELFOVERLAP>  (1) 
35.564

>  <PUBCHEM_SHAPE_FINGERPRINT>  (1) 
1 1 18272091548232711894
11769659 78 10592046860253699440
12138202 78 18053383201936610710
13024252 1 16952516125347562354
13839132 238 18261117318285700239
14250199 8 17910108015270412749
14648413 74 18194969538896103587
15219456 202 18338808818357344907
15279308 16 18334862709827201489
16945 1 18042698375444731579
18186145 218 17775016703923027840
18380122 1 18265636397112693675
20645477 56 18057045933457945416
20871998 184 18194411206143464171
21028194 46 18411983563443028152
21296965 12 18411420652054615578
21524375 3 18338504292269927704
21947302 44 18196933271121640113
23211744 41 18335989696424352923
23402539 116 18191019200461990171
2748010 2 18117013104109845907
305870 269 18412262822543707030
3250762 1 18338249162807824627
81228 2 17337860973644918834

>  <PUBCHEM_SHAPE_MULTIPOLES>  (1) 
249.93
5.48
2.59
1.09
3.94
1.04
-0.03
-5.43
-0.07
0.07
0.94
-0.33
0.2
0.73

>  <PUBCHEM_SHAPE_SELFOVERLAP>  (1) 
483.606

>  <PUBCHEM_SHAPE_VOLUME>  (1) 
153.2

>  <PUBCHEM_COORDINATE_TYPE>  (1) 
2
5
10

$$$$
