21905
     RDKit          3D

 14 14  0  0  1  0  0  0  0  0999 V2000
   -1.1989   -0.5796   -0.0442 O   0  0  0  0  0  0  0  0  0  0  0  0
   -1.3810    1.5999   -0.9009 O   0  0  0  0  0  0  0  0  0  0  0  0
   -3.3088   -2.1516    1.0697 O   0  0  0  0  0  0  0  0  0  0  0  0
    0.5258    1.0373    0.4586 C   0  0  0  0  0  0  0  0  0  0  0  0
   -0.4730    0.5408   -0.5690 C   0  0  0  0  0  0  0  0  0  0  0  0
    1.5022   -0.0791    0.8903 C   0  0  0  0  0  0  0  0  0  0  0  0
    1.3380    2.2366   -0.0744 C   0  0  0  0  0  0  0  0  0  0  0  0
   -2.5292   -0.0901    0.1481 C   0  0  0  0  0  0  0  0  0  0  0  0
    2.2803   -0.7032   -0.2726 C   0  0  0  0  0  0  0  0  0  0  0  0
   -2.6613    0.9691   -0.9194 C   0  0  0  0  0  0  0  0  0  0  0  0
    3.1705   -1.8499    0.2106 C   0  0  0  0  0  0  0  0  0  0  0  0
    2.3519    2.7852    0.9200 C   0  0  0  0  0  0  0  0  0  0  0  0
   -3.5340   -1.2154    0.0263 C   0  0  0  0  0  0  0  0  0  0  0  0
    3.9177   -2.4999   -0.9432 C   0  0  0  0  0  0  0  0  0  0  0  0
  1  5  1  0
  1  8  1  0
  2  5  1  0
  2 10  1  0
  3 13  1  0
  4  5  1  0
  4  6  1  0
  4  7  1  0
  6  9  1  0
  7 12  1  0
  8 10  1  0
  8 13  1  0
  9 11  1  0
 11 14  1  0
M  END
>  <PUBCHEM_COMPOUND_CID>  (1) 
21905

>  <PUBCHEM_CONFORMER_RMSD>  (1) 
0.8

>  <PUBCHEM_CONFORMER_DIVERSEORDER>  (1) 
3
212
198
193
116
51
158
89
110
119
147
173
100
5
85
137
208
196
214
95
106
12
206
132
75
90
24
178
192
120
159
39
1
209
78
146
183
165
176
68
174
199
117
113
55
64
25
180
2
195
170
62
154
171
82
54
109
186
179
101
9
149
166
65
11
123
157
211
72
35
84
184
6
204
108
177
162
202
41
150
97
172
131
167
91
143
21
16
182
188
115
94
210
138
88
187
121
71
191
66
129
189
8
160
200
207
92
31
145
103
80
175
83
27
15
153
201
67
168
135
185
33
156
56
111
86
126
37
130
52
112
70
194
128
124
125
22
205
63
69
104
26
136
197
181
133
58
122
107
105
76
203
36
142
10
163
73
18
213
14
40
152
161
144
45
81
155
23
61
141
87
99
17
169
79
42
190
34
28
57
13
77
127
7
164
148
102
30
118
98
29
49
93
20
139
4
32
59
134
114
53
140
60
96
74
44
151
46
48
43
38
19
47
50

>  <PUBCHEM_MMFF94_PARTIAL_CHARGES>  (1) 
8
1 -0.56
10 0.28
13 0.28
2 -0.56
3 -0.68
36 0.4
5 0.56
8 0.28

>  <PUBCHEM_EFFECTIVE_ROTOR_COUNT>  (1) 
7

>  <PUBCHEM_PHARMACOPHORE_FEATURES>  (1) 
8
1 1 acceptor
1 12 hydrophobe
1 14 hydrophobe
1 2 acceptor
1 3 acceptor
1 3 donor
5 1 2 5 8 10 rings
5 4 6 7 9 11 hydrophobe

>  <PUBCHEM_HEAVY_ATOM_COUNT>  (1) 
14

>  <PUBCHEM_ATOM_DEF_STEREO_COUNT>  (1) 
0

>  <PUBCHEM_ATOM_UDEF_STEREO_COUNT>  (1) 
3

>  <PUBCHEM_BOND_DEF_STEREO_COUNT>  (1) 
0

>  <PUBCHEM_BOND_UDEF_STEREO_COUNT>  (1) 
0

>  <PUBCHEM_ISOTOPIC_ATOM_COUNT>  (1) 
0

>  <PUBCHEM_COMPONENT_COUNT>  (1) 
1

>  <PUBCHEM_CACTVS_TAUTO_COUNT>  (1) 
1

>  <PUBCHEM_CONFORMER_ID>  (1) 
0000559100000003

>  <PUBCHEM_MMFF94_ENERGY>  (1) 
22.4406

>  <PUBCHEM_FEATURE_SELFOVERLAP>  (1) 
40.643

>  <PUBCHEM_SHAPE_FINGERPRINT>  (1) 
11127187 94 18116433639632742375
12841375 5 18200891667895946662
12932764 1 17345468370154011241
13533116 47 18199753703895877395
14252887 29 18044100287699557899
14648413 74 18338784667666828465
15219456 202 18337380647305564725
161256 15 18334855068969832820
16945 1 18044357362750931057
17804303 29 18335987463267880879
17841504 4 18342174466325735185
18380122 1 18116982497872493569
19766037 51 18335714831217798163
20339313 130 18273215262174916624
20645477 70 18339065103767732583
20711983 138 18129373804748700432
20711985 344 17622996899042748016
20871998 22 18409448102429804504
20871999 31 18189338974378851798
21061003 4 18200878357380878494
21665056 4 16755514011796493326
22213442 358 18411696556928202790
23382010 3 17023482896935353458
23557571 272 17749656485181624717
238078 22 18265910055481014518
2748010 2 18188474865729705189
3084891 72 17546431294082104485
458136 41 18052547852404594840
5493415 88 18410007702593597490
5902787 121 18262507101210153722
6049 1 18334572451753400029
7364860 26 18341889749028589104
81228 2 17552917330781602952

>  <PUBCHEM_SHAPE_MULTIPOLES>  (1) 
270.51
6.43
3.04
1.01
0.45
0.67
-0.01
-5.26
0.29
-2.56
-0.3
0.06
-0.03
1.72

>  <PUBCHEM_SHAPE_SELFOVERLAP>  (1) 
518.242

>  <PUBCHEM_SHAPE_VOLUME>  (1) 
166.5

>  <PUBCHEM_COORDINATE_TYPE>  (1) 
2
5
10

$$$$
