21902
     RDKit          3D

 11 11  0  0  1  0  0  0  0  0999 V2000
    0.5102   -0.4878    0.3548 O   0  0  0  0  0  0  0  0  0  0  0  0
   -0.5264    1.2522   -0.8362 O   0  0  0  0  0  0  0  0  0  0  0  0
    3.3131   -1.0281    0.4936 O   0  0  0  0  0  0  0  0  0  0  0  0
   -0.7494    0.0502   -0.0806 C   0  0  0  0  0  0  0  0  0  0  0  0
    1.4906    0.2360   -0.3941 C   0  0  0  0  0  0  0  0  0  0  0  0
   -1.4490   -0.9649   -0.9756 C   0  0  0  0  0  0  0  0  0  0  0  0
   -1.5886    0.3763    1.1484 C   0  0  0  0  0  0  0  0  0  0  0  0
    0.8410    1.5842   -0.5909 C   0  0  0  0  0  0  0  0  0  0  0  0
    2.8024    0.2899    0.3591 C   0  0  0  0  0  0  0  0  0  0  0  0
   -1.7080   -2.2684   -0.2423 C   0  0  0  0  0  0  0  0  0  0  0  0
   -2.9356    0.9605    0.7637 C   0  0  0  0  0  0  0  0  0  0  0  0
  1  4  1  0
  1  5  1  0
  2  4  1  0
  2  8  1  0
  3  9  1  0
  4  6  1  0
  4  7  1  0
  5  8  1  0
  5  9  1  0
  6 10  1  0
  7 11  1  0
M  END
>  <PUBCHEM_COMPOUND_CID>  (1) 
21902

>  <PUBCHEM_CONFORMER_RMSD>  (1) 
0.6

>  <PUBCHEM_CONFORMER_DIVERSEORDER>  (1) 
1
19
7
17
13
9
15
12
23
14
2
21
22
8
16
18
3
5
20
11
6
10
4

>  <PUBCHEM_MMFF94_PARTIAL_CHARGES>  (1) 
8
1 -0.56
2 -0.56
27 0.4
3 -0.68
4 0.56
5 0.28
8 0.28
9 0.28

>  <PUBCHEM_EFFECTIVE_ROTOR_COUNT>  (1) 
4

>  <PUBCHEM_PHARMACOPHORE_FEATURES>  (1) 
7
1 1 acceptor
1 10 hydrophobe
1 11 hydrophobe
1 2 acceptor
1 3 acceptor
1 3 donor
5 1 2 4 5 8 rings

>  <PUBCHEM_HEAVY_ATOM_COUNT>  (1) 
11

>  <PUBCHEM_ATOM_DEF_STEREO_COUNT>  (1) 
0

>  <PUBCHEM_ATOM_UDEF_STEREO_COUNT>  (1) 
1

>  <PUBCHEM_BOND_DEF_STEREO_COUNT>  (1) 
0

>  <PUBCHEM_BOND_UDEF_STEREO_COUNT>  (1) 
0

>  <PUBCHEM_ISOTOPIC_ATOM_COUNT>  (1) 
0

>  <PUBCHEM_COMPONENT_COUNT>  (1) 
1

>  <PUBCHEM_CACTVS_TAUTO_COUNT>  (1) 
1

>  <PUBCHEM_CONFORMER_ID>  (1) 
0000558E00000001

>  <PUBCHEM_MMFF94_ENERGY>  (1) 
22.6195

>  <PUBCHEM_FEATURE_SELFOVERLAP>  (1) 
35.563

>  <PUBCHEM_SHAPE_FINGERPRINT>  (1) 
12423570 1 9909758654626067589
12932764 1 18333445426923588072
13024252 1 16081367414815228653
14128692 85 18048869990109362158
14577589 140 18335987462930251257
14993402 34 18410857638035452613
16945 1 18342189838098083565
20653091 64 18119247509116123800
207724 885 18407478855655949425
21040471 1 18058471857919920093
23402539 116 17274814710846981041
23500284 5 18194963165291750123
23552423 10 18046631380092568796
29004967 10 17530690921905426576
369184 2 18272081699772260856
5084963 1 18191013693696250996
53812654 72 18410568530732902535

>  <PUBCHEM_SHAPE_MULTIPOLES>  (1) 
208.77
4.11
1.75
1.01
2.15
0.65
0
0.42
-1.19
-0.86
0.21
-0.24
-0.13
-0.7

>  <PUBCHEM_SHAPE_SELFOVERLAP>  (1) 
407.784

>  <PUBCHEM_SHAPE_VOLUME>  (1) 
127.3

>  <PUBCHEM_COORDINATE_TYPE>  (1) 
2
5
10

$$$$
