21929
     RDKit          3D

 16 17  0  0  0  0  0  0  0  0999 V2000
   -1.6260    2.4964    0.2587 Cl  0  0  0  0  0  0  0  0  0  0  0  0
    3.8610    0.8007    0.0656 O   0  0  0  0  0  0  0  0  0  0  0  0
    2.0763    2.2400   -0.2351 O   0  0  0  0  0  0  0  0  0  0  0  0
    3.9053   -0.5755    0.1364 N   0  0  0  0  0  0  0  0  0  0  0  0
    0.4323   -0.1940   -0.4099 N   0  0  0  0  0  0  0  0  0  0  0  0
   -0.2566   -0.1842    0.6352 N   0  0  0  0  0  0  0  0  0  0  0  0
    2.6746   -1.1203   -0.0415 C   0  0  0  0  0  0  0  0  0  0  0  0
    1.7697   -0.1529   -0.2037 C   0  0  0  0  0  0  0  0  0  0  0  0
    2.4856   -2.5939   -0.0457 C   0  0  0  0  0  0  0  0  0  0  0  0
    2.5367    1.1168   -0.1322 C   0  0  0  0  0  0  0  0  0  0  0  0
   -1.6242   -0.2290    0.3129 C   0  0  0  0  0  0  0  0  0  0  0  0
   -2.3569    0.9389    0.1162 C   0  0  0  0  0  0  0  0  0  0  0  0
   -2.2386   -1.4731    0.1933 C   0  0  0  0  0  0  0  0  0  0  0  0
   -3.7129    0.8620   -0.2022 C   0  0  0  0  0  0  0  0  0  0  0  0
   -3.5946   -1.5497   -0.1251 C   0  0  0  0  0  0  0  0  0  0  0  0
   -4.3316   -0.3822   -0.3227 C   0  0  0  0  0  0  0  0  0  0  0  0
  1 12  1  0
  2  4  1  0
  2 10  1  0
  3 10  2  0
  4  7  1  0
  5  6  2  0
  5  8  1  0
  6 11  1  0
  7  8  2  0
  7  9  1  0
  8 10  1  0
 11 12  2  0
 11 13  1  0
 12 14  1  0
 13 15  2  0
 14 16  2  0
 15 16  1  0
M  END
>  <PUBCHEM_COMPOUND_CID>  (1) 
21929

>  <PUBCHEM_CONFORMER_RMSD>  (1) 
0.6

>  <PUBCHEM_CONFORMER_DIVERSEORDER>  (1) 
3
4
5
2
1
6
8
7
9

>  <PUBCHEM_MMFF94_PARTIAL_CHARGES>  (1) 
21
1 -0.18
10 0.71
11 0.18
12 0.18
13 -0.15
14 -0.15
15 -0.15
16 -0.15
2 -0.13
20 0.4
21 0.15
22 0.15
23 0.15
24 0.15
3 -0.57
4 -0.52
5 -0.17
6 -0.18
7 -0.04
8 0.19
9 0.14

>  <PUBCHEM_EFFECTIVE_ROTOR_COUNT>  (1) 
2

>  <PUBCHEM_PHARMACOPHORE_FEATURES>  (1) 
3
1 3 acceptor
5 2 4 7 8 10 rings
6 11 12 13 14 15 16 rings

>  <PUBCHEM_HEAVY_ATOM_COUNT>  (1) 
16

>  <PUBCHEM_ATOM_DEF_STEREO_COUNT>  (1) 
0

>  <PUBCHEM_ATOM_UDEF_STEREO_COUNT>  (1) 
0

>  <PUBCHEM_BOND_DEF_STEREO_COUNT>  (1) 
0

>  <PUBCHEM_BOND_UDEF_STEREO_COUNT>  (1) 
0

>  <PUBCHEM_ISOTOPIC_ATOM_COUNT>  (1) 
0

>  <PUBCHEM_COMPONENT_COUNT>  (1) 
1

>  <PUBCHEM_CACTVS_TAUTO_COUNT>  (1) 
3

>  <PUBCHEM_CONFORMER_ID>  (1) 
000055A900000003

>  <PUBCHEM_MMFF94_ENERGY>  (1) 
40.9489

>  <PUBCHEM_FEATURE_SELFOVERLAP>  (1) 
15.223

>  <PUBCHEM_SHAPE_FINGERPRINT>  (1) 
10608611 8 18409446981564847893
10616163 171 18341614866695276927
12162725 195 18410295808720348713
14144814 61 18410577245068643170
14415576 193 18335142041794579580
15196674 1 18410575097627446389
15375462 6 18411701006060627935
15442244 35 18194402182548810202
17492 89 18411419471250689995
17802600 8 18410569591463613624
17834074 16 18411138034753929631
18186145 218 18411706447963643799
19050596 39 18411700997586750803
200 152 18272929440459304343
20559304 39 18411982459968787748
20645477 56 18187363204066651789
20645477 70 18341331115127332663
21267235 1 18410302423281357327
21501502 16 18340211786509428945
221490 88 18336837462944795922
2255824 54 18260271875754319790
23402539 116 18342166757455336693
23402655 69 18409729543083895093
23557571 272 18060426785003921337
23559900 14 18340762659273205362
3545911 37 18410013234274091413
4028521 119 18187075127582782437
4214541 1 18338797810297863533
5104073 3 18410855451575170939
58051976 100 18410858754748295535
58051976 378 18342174475005490134
69090 78 18410289207814667687
7364860 26 18412545392752973850
77779 3 18410576188665002247
93112 12 18410013212841576391
9709674 26 18410017641011491407

>  <PUBCHEM_SHAPE_MULTIPOLES>  (1) 
304.46
7.99
2.4
0.65
0.12
0.32
-0.01
-1.2
0.5
-0.43
-0.03
0.11
0
-0.15

>  <PUBCHEM_SHAPE_SELFOVERLAP>  (1) 
645.367

>  <PUBCHEM_SHAPE_VOLUME>  (1) 
171.5

>  <PUBCHEM_COORDINATE_TYPE>  (1) 
2
5
10

$$$$
