21924
     RDKit          3D

 23 25  0  0  1  0  0  0  0  0999 V2000
    0.4618    1.4286   -0.0254 O   0  0  0  0  0  0  0  0  0  0  0  0
   -1.7201    1.2889   -0.9894 O   0  0  0  0  0  0  0  0  0  0  0  0
    1.9018   -1.7271   -0.2268 N   0  0  0  0  0  0  0  0  0  0  0  0
    2.0604   -0.3279   -0.1946 N   0  0  0  0  0  0  0  0  0  0  0  0
   -1.4985   -0.6895    0.2171 N   0  0  0  0  0  0  0  0  0  0  0  0
    0.5479   -1.9969   -0.0222 C   0  0  0  0  0  0  0  0  0  0  0  0
   -0.1693   -0.8690    0.0519 C   0  0  0  0  0  0  0  0  0  0  0  0
    0.7919    0.2556   -0.0877 C   0  0  0  0  0  0  0  0  0  0  0  0
    3.3056    0.3101    0.0313 C   0  0  0  0  0  0  0  0  0  0  0  0
    2.6785   -2.4913   -1.1981 C   0  0  0  0  0  0  0  0  0  0  0  0
    0.0397   -3.3980    0.0407 C   0  0  0  0  0  0  0  0  0  0  0  0
    3.4510    1.6788   -0.2153 C   0  0  0  0  0  0  0  0  0  0  0  0
    4.3978   -0.4244    0.5035 C   0  0  0  0  0  0  0  0  0  0  0  0
   -2.2099    0.3863   -0.3149 C   0  0  0  0  0  0  0  0  0  0  0  0
    4.6764    2.3069    0.0081 C   0  0  0  0  0  0  0  0  0  0  0  0
    5.6231    0.2036    0.7270 C   0  0  0  0  0  0  0  0  0  0  0  0
   -3.6713    0.4017   -0.0457 C   0  0  0  0  0  0  0  0  0  0  0  0
    5.7623    1.5692    0.4792 C   0  0  0  0  0  0  0  0  0  0  0  0
   -4.5058    1.0421   -0.9375 C   0  0  0  0  0  0  0  0  0  0  0  0
   -4.1456   -0.2248    1.0877 C   0  0  0  0  0  0  0  0  0  0  0  0
   -5.8775    1.0567   -0.6845 C   0  0  0  0  0  0  0  0  0  0  0  0
   -5.5172   -0.2103    1.3408 C   0  0  0  0  0  0  0  0  0  0  0  0
   -6.3832    0.4305    0.4546 C   0  0  0  0  0  0  0  0  0  0  0  0
  1  8  2  0
  2 14  2  0
  3  4  1  0
  3  6  1  0
  3 10  1  0
  4  8  1  0
  4  9  1  0
  5  7  1  0
  5 14  1  0
  6  7  2  0
  6 11  1  0
  7  8  1  0
  9 12  2  0
  9 13  1  0
 12 15  1  0
 13 16  2  0
 14 17  1  0
 15 18  2  0
 16 18  1  0
 17 19  2  0
 17 20  1  0
 19 21  1  0
 20 22  2  0
 21 23  2  0
 22 23  1  0
M  END
>  <PUBCHEM_COMPOUND_CID>  (1) 
21924

>  <PUBCHEM_CONFORMER_RMSD>  (1) 
0.6

>  <PUBCHEM_CONFORMER_DIVERSEORDER>  (1) 
3
13
11
8
15
10
1
6
4
12
5
9
18
16
7
2
14
17

>  <PUBCHEM_MMFF94_PARTIAL_CHARGES>  (1) 
34
1 -0.57
10 0.37
11 0.14
12 -0.15
13 -0.15
14 0.54
15 -0.15
16 -0.15
17 0.09
18 -0.15
19 -0.15
2 -0.57
20 -0.15
21 -0.15
22 -0.15
23 -0.15
3 -0.49
30 0.37
31 0.15
32 0.15
33 0.15
34 0.15
35 0.15
36 0.15
37 0.15
38 0.15
39 0.15
4 -0.16
40 0.15
5 -0.54
6 -0.04
7 0.12
8 0.62
9 0.12

>  <PUBCHEM_EFFECTIVE_ROTOR_COUNT>  (1) 
4

>  <PUBCHEM_PHARMACOPHORE_FEATURES>  (1) 
6
1 1 acceptor
1 2 acceptor
1 5 donor
5 3 4 6 7 8 rings
6 17 19 20 21 22 23 rings
6 9 12 13 15 16 18 rings

>  <PUBCHEM_HEAVY_ATOM_COUNT>  (1) 
23

>  <PUBCHEM_ATOM_DEF_STEREO_COUNT>  (1) 
0

>  <PUBCHEM_ATOM_UDEF_STEREO_COUNT>  (1) 
0

>  <PUBCHEM_BOND_DEF_STEREO_COUNT>  (1) 
0

>  <PUBCHEM_BOND_UDEF_STEREO_COUNT>  (1) 
0

>  <PUBCHEM_ISOTOPIC_ATOM_COUNT>  (1) 
0

>  <PUBCHEM_COMPONENT_COUNT>  (1) 
1

>  <PUBCHEM_CACTVS_TAUTO_COUNT>  (1) 
2

>  <PUBCHEM_CONFORMER_ID>  (1) 
000055A400000003

>  <PUBCHEM_MMFF94_ENERGY>  (1) 
93.3865

>  <PUBCHEM_FEATURE_SELFOVERLAP>  (1) 
30.479

>  <PUBCHEM_SHAPE_FINGERPRINT>  (1) 
10 15 18113616828566371696
10074138 170 18045204197062985834
10411042 1 17763463912023501798
10493431 412 18411701027588192359
10835480 77 18262511486868031349
12236239 1 17346599647443960153
12403259 415 18260828168255283500
12596602 18 17775010068520354707
12670543 26 11095893652692395409
12730499 353 18411990147686220374
12788726 201 16415207724121506147
13402501 40 18333167271482330741
13533116 47 17703792479891262786
13583140 156 16588844872053431790
13631057 29 17987224720581003623
13955234 65 18341613659946558338
14790565 3 18337954617991801092
15081414 286 18341901765956972540
15183329 4 10879723069796987301
15188451 53 15502662662991713475
15348495 7 17677054654093888649
15475509 35 16371274521178712410
15788980 27 12829209975476754983
16994733 274 15697709381286766986
17844677 252 18199193884582873677
18222031 100 11530477848427202488
19489759 90 16225763013343964997
204376 136 18411982481095659523
20567600 254 18335413573631855934
20645477 70 18199183997547313039
21033648 29 18336527396117919536
21236236 1 18268427004963821511
21267235 1 18334576803330432168
21452121 103 18409728422324199498
21623969 137 18408610266454225963
21781051 124 18115047263330005018
22149856 69 18265360377461523379
22182313 1 18115019693338248980
22224240 67 18411134766658169115
23198884 109 16056884641187249689
23557571 272 16806165450012519021
23559900 14 17901096431001820587
239999 70 18341336574136241470
25147074 1 18201137919419296694
335352 9 18411981365406209926
34797466 226 14476956834892289072
351380 3 11314306156881989617
42630746 31 18342459214268018038
4340502 62 18411140233666409007
465052 167 17967812726490182832
474 4 18341894086824128354
474229 33 18408602573824946265
5104073 3 18118952827858738360
542803 24 16917350329498531705
59755656 215 18410859820158478958
621550 34 18261108522250700783
6669772 16 18273218573674713974

>  <PUBCHEM_SHAPE_MULTIPOLES>  (1) 
446.65
14.81
2.52
0.96
8.42
1.89
0.04
-8.18
2.85
-2.63
-0.46
0.7
0.05
1.06

>  <PUBCHEM_SHAPE_SELFOVERLAP>  (1) 
973.894

>  <PUBCHEM_SHAPE_VOLUME>  (1) 
242

>  <PUBCHEM_COORDINATE_TYPE>  (1) 
2
5
10

$$$$
