21922
     RDKit          3D

 10 10  0  0  0  0  0  0  0  0999 V2000
   -0.9279    0.8076    0.1750 N   0  0  0  0  0  0  0  0  0  0  0  0
   -4.3736   -0.5733   -0.1453 N   0  0  0  0  0  0  0  0  0  0  0  0
    0.3811    0.3577   -0.2943 C   0  0  0  0  0  0  0  0  0  0  0  0
    1.4595    1.3609    0.1298 C   0  0  0  0  0  0  0  0  0  0  0  0
    0.6798   -1.0408    0.2569 C   0  0  0  0  0  0  0  0  0  0  0  0
    2.8532    0.8852   -0.2772 C   0  0  0  0  0  0  0  0  0  0  0  0
    2.0742   -1.5135   -0.1509 C   0  0  0  0  0  0  0  0  0  0  0  0
    3.1501   -0.5120    0.2596 C   0  0  0  0  0  0  0  0  0  0  0  0
   -1.9660   -0.1368   -0.2083 C   0  0  0  0  0  0  0  0  0  0  0  0
   -3.3305    0.3649    0.2547 C   0  0  0  0  0  0  0  0  0  0  0  0
  1  3  1  0
  1  9  1  0
  2 10  1  0
  3  4  1  0
  3  5  1  0
  4  6  1  0
  5  7  1  0
  6  8  1  0
  7  8  1  0
  9 10  1  0
M  END
>  <PUBCHEM_COMPOUND_CID>  (1) 
21922

>  <PUBCHEM_CONFORMER_RMSD>  (1) 
0.6

>  <PUBCHEM_CONFORMER_DIVERSEORDER>  (1) 
1
13
17
7
9
15
18
8
6
10
12
5
19
14
16
11
2
3
20
4
21

>  <PUBCHEM_MMFF94_PARTIAL_CHARGES>  (1) 
8
1 -0.9
10 0.27
2 -0.99
22 0.36
27 0.36
28 0.36
3 0.27
9 0.27

>  <PUBCHEM_EFFECTIVE_ROTOR_COUNT>  (1) 
4.2

>  <PUBCHEM_PHARMACOPHORE_FEATURES>  (1) 
5
1 1 cation
1 1 donor
1 2 cation
1 2 donor
6 3 4 5 6 7 8 rings

>  <PUBCHEM_HEAVY_ATOM_COUNT>  (1) 
10

>  <PUBCHEM_ATOM_DEF_STEREO_COUNT>  (1) 
0

>  <PUBCHEM_ATOM_UDEF_STEREO_COUNT>  (1) 
0

>  <PUBCHEM_BOND_DEF_STEREO_COUNT>  (1) 
0

>  <PUBCHEM_BOND_UDEF_STEREO_COUNT>  (1) 
0

>  <PUBCHEM_ISOTOPIC_ATOM_COUNT>  (1) 
0

>  <PUBCHEM_COMPONENT_COUNT>  (1) 
1

>  <PUBCHEM_CACTVS_TAUTO_COUNT>  (1) 
1

>  <PUBCHEM_CONFORMER_ID>  (1) 
000055A200000001

>  <PUBCHEM_MMFF94_ENERGY>  (1) 
-3.5435

>  <PUBCHEM_FEATURE_SELFOVERLAP>  (1) 
25.371

>  <PUBCHEM_SHAPE_FINGERPRINT>  (1) 
10219947 1 18040437710813240100
11062470 55 11674877796908158933
12932764 1 17489576866575744445
14144814 61 18343585118580435289
14251717 144 18410290311368055135
14325111 11 18409730664270715237
190213 19 17917711288404893237
20201158 50 18261114058300255139
20279233 1 17458067071057999163
20606313 2 18407477773429919812
20645477 70 18410006599140839807
20871998 22 18055074259795582950
21501925 9 18336255756884536674
23402655 69 18411133624170559645
581208 293 18408882957790253898

>  <PUBCHEM_SHAPE_MULTIPOLES>  (1) 
195.83
6.38
1.37
0.65
6.57
0.09
0
0.68
0
-0.91
0.01
-0.06
0
-0.14

>  <PUBCHEM_SHAPE_SELFOVERLAP>  (1) 
369.837

>  <PUBCHEM_SHAPE_VOLUME>  (1) 
119.3

>  <PUBCHEM_COORDINATE_TYPE>  (1) 
2
5
10

$$$$
