2193
     RDKit          3D

 21 24  0  0  1  0  0  0  0  0999 V2000
   -4.1132   -1.3026    1.2030 O   0  0  0  0  0  0  0  0  0  0  0  0
    5.5708   -0.0322   -0.6962 O   0  0  0  0  0  0  0  0  0  0  0  0
   -0.7073    0.8518    0.0147 C   0  0  0  0  0  0  0  0  0  0  0  0
    0.1281   -0.4229   -0.2601 C   0  0  0  0  0  0  0  0  0  0  0  0
   -2.0712    0.8540   -0.7395 C   0  0  0  0  0  0  0  0  0  0  0  0
   -2.8440   -0.4899   -0.7135 C   0  0  0  0  0  0  0  0  0  0  0  0
    1.5429   -0.4154    0.4434 C   0  0  0  0  0  0  0  0  0  0  0  0
   -0.7185   -1.6561    0.0952 C   0  0  0  0  0  0  0  0  0  0  0  0
   -1.9603   -1.7350   -0.7812 C   0  0  0  0  0  0  0  0  0  0  0  0
    0.1082    2.1009   -0.3690 C   0  0  0  0  0  0  0  0  0  0  0  0
   -3.0594    1.8375   -0.0787 C   0  0  0  0  0  0  0  0  0  0  0  0
    2.2494    0.9171    0.1753 C   0  0  0  0  0  0  0  0  0  0  0  0
   -3.6045   -0.3645    0.6013 C   0  0  0  0  0  0  0  0  0  0  0  0
    1.4286    2.1645    0.3846 C   0  0  0  0  0  0  0  0  0  0  0  0
   -3.6822    1.0635    1.0802 C   0  0  0  0  0  0  0  0  0  0  0  0
    2.3841   -1.5872   -0.1451 C   0  0  0  0  0  0  0  0  0  0  0  0
   -3.8962   -0.5662   -1.8356 C   0  0  0  0  0  0  0  0  0  0  0  0
    1.4286   -0.6009    1.9740 C   0  0  0  0  0  0  0  0  0  0  0  0
    3.8709   -1.4849    0.1582 C   0  0  0  0  0  0  0  0  0  0  0  0
    3.5334    1.0278   -0.2042 C   0  0  0  0  0  0  0  0  0  0  0  0
    4.4117   -0.1593   -0.3068 C   0  0  0  0  0  0  0  0  0  0  0  0
  1 13  2  0
  2 21  2  0
  3  4  1  0
  3  5  1  0
  3 10  1  0
  4  7  1  0
  4  8  1  0
  5  6  1  0
  5 11  1  0
  6  9  1  0
  6 13  1  0
  6 17  1  0
  7 12  1  0
  7 16  1  0
  7 18  1  0
  8  9  1  0
 10 14  1  0
 11 15  1  0
 12 14  1  0
 12 20  2  0
 13 15  1  0
 16 19  1  0
 19 21  1  0
 20 21  1  0
M  END
>  <PUBCHEM_COMPOUND_CID>  (1) 
2193

>  <PUBCHEM_CONFORMER_RMSD>  (1) 
0.6

>  <PUBCHEM_CONFORMER_DIVERSEORDER>  (1) 
1
36
21
38
42
23
35
30
6
3
32
22
31
34
19
10
17
41
7
9
18
24
43
40
14
27
29
11
8
2
15
5
16
28
25
26
39
33
12
20
13
4
37

>  <PUBCHEM_MMFF94_PARTIAL_CHARGES>  (1) 
12
1 -0.57
12 -0.28
13 0.45
14 0.14
15 0.06
19 0.06
2 -0.57
20 -0.14
21 0.49
47 0.15
6 0.06
7 0.14

>  <PUBCHEM_EFFECTIVE_ROTOR_COUNT>  (1) 
1.6

>  <PUBCHEM_PHARMACOPHORE_FEATURES>  (1) 
6
1 1 acceptor
1 2 acceptor
5 5 6 11 13 15 rings
6 3 4 5 6 8 9 rings
6 3 4 7 10 12 14 rings
6 7 12 16 19 20 21 rings

>  <PUBCHEM_HEAVY_ATOM_COUNT>  (1) 
21

>  <PUBCHEM_ATOM_DEF_STEREO_COUNT>  (1) 
0

>  <PUBCHEM_ATOM_UDEF_STEREO_COUNT>  (1) 
5

>  <PUBCHEM_BOND_DEF_STEREO_COUNT>  (1) 
0

>  <PUBCHEM_BOND_UDEF_STEREO_COUNT>  (1) 
0

>  <PUBCHEM_ISOTOPIC_ATOM_COUNT>  (1) 
0

>  <PUBCHEM_COMPONENT_COUNT>  (1) 
1

>  <PUBCHEM_CACTVS_TAUTO_COUNT>  (1) 
10

>  <PUBCHEM_CONFORMER_ID>  (1) 
0000089100000001

>  <PUBCHEM_MMFF94_ENERGY>  (1) 
54.9153

>  <PUBCHEM_FEATURE_SELFOVERLAP>  (1) 
30.657

>  <PUBCHEM_SHAPE_FINGERPRINT>  (1) 
10062212 137 18342452616976471398
10366900 7 17458625657287718235
10616163 171 18343582962412297246
11132069 177 18341037554370632968
11578080 2 17487305271274201697
12011746 2 18335417967937248901
121448 382 16443348701530919994
12236239 1 17917993919091790485
12403814 3 17968095287513604613
12553582 1 18411411813238819176
12670546 56 17632289116184381793
12788726 201 17702396052610478256
128620 24 17385726893741422406
13140716 1 17832984227785604785
13221675 6 18335416885062184176
13224815 77 17749104482782971960
13296908 3 18113896052810978707
13583140 156 16587735447540896642
14004511 7 17846499235756544111
14787075 74 17749966560260935632
14790565 3 18339372850859237792
15196674 1 18410293580017236148
15209289 33 18259708916725647979
15309172 13 18342175570527995111
15375462 189 18261107431255082994
15536298 74 18272364321748131464
15788980 27 17775286058306714014
1601671 61 18130792231231881174
16752209 62 18267565971299703773
16945 1 18339913943654926829
17804303 29 18343586252193572309
18186145 218 17603585201384383202
19591789 44 18408888429726762914
19862831 5 18261660541264401279
200 152 18131626794294661439
20645477 70 18264469853824652205
21029758 27 18333737926533000941
21267235 1 18411428318866807030
221490 88 18264492956537892706
2334 1 18410284800924910429
23402539 116 18342172237738686716
23493267 7 17822847576907522329
23559900 14 17987219183344479937
23566358 27 17974581487105205773
2748010 2 18336811018693803125
296302 2 8574713507165579504
312423 11 16987709272344457469
335352 9 18195807371199149108
34934 24 18116149978607549913
350125 39 18413110554899532169
474 4 17603872264609606932
5104073 3 18409727323028714000
633830 44 17749113244817098492
7364860 26 18199740522060906056
90525 40 18201715141838458911
9981440 41 17258209100202509440

>  <PUBCHEM_SHAPE_MULTIPOLES>  (1) 
420.43
8.77
2.08
1.22
3.97
0.45
0.2
-1.13
-0.93
-0.19
-0.02
-0.82
-0.24
-0.31

>  <PUBCHEM_SHAPE_SELFOVERLAP>  (1) 
908.013

>  <PUBCHEM_SHAPE_VOLUME>  (1) 
228.8

>  <PUBCHEM_COORDINATE_TYPE>  (1) 
2
5
10

$$$$
