21949
     RDKit          3D

 18 19  0  0  0  0  0  0  0  0999 V2000
   -3.1598   -2.6309    0.0514 O   0  0  0  0  0  0  0  0  0  0  0  0
    1.3082   -0.1604   -0.1104 N   0  0  0  0  0  0  0  0  0  0  0  0
    4.9654   -0.6719   -0.2271 N   0  0  0  0  0  0  0  0  0  0  0  0
   -1.7489    2.7138   -0.0159 N   0  0  0  0  0  0  0  0  0  0  0  0
    2.6849    0.2144   -0.1583 C   0  0  0  0  0  0  0  0  0  0  0  0
    3.5559   -1.0353   -0.1507 C   0  0  0  0  0  0  0  0  0  0  0  0
    0.2578    0.7873   -0.0777 C   0  0  0  0  0  0  0  0  0  0  0  0
   -1.0873    0.3966   -0.0309 C   0  0  0  0  0  0  0  0  0  0  0  0
   -2.0716    1.4067   -0.0006 C   0  0  0  0  0  0  0  0  0  0  0  0
   -1.4600   -0.9582   -0.0133 C   0  0  0  0  0  0  0  0  0  0  0  0
    0.5932    2.1334   -0.0934 C   0  0  0  0  0  0  0  0  0  0  0  0
    5.8061   -1.8703   -0.2593 C   0  0  0  0  0  0  0  0  0  0  0  0
    5.3404    0.1805    0.9027 C   0  0  0  0  0  0  0  0  0  0  0  0
   -3.4076    1.0180    0.0465 C   0  0  0  0  0  0  0  0  0  0  0  0
   -2.8035   -1.3185    0.0340 C   0  0  0  0  0  0  0  0  0  0  0  0
   -0.4391    3.0488   -0.0615 C   0  0  0  0  0  0  0  0  0  0  0  0
   -3.7784   -0.3289    0.0638 C   0  0  0  0  0  0  0  0  0  0  0  0
   -4.5555   -2.9253    0.1007 C   0  0  0  0  0  0  0  0  0  0  0  0
  1 15  1  0
  1 18  1  0
  2  5  1  0
  2  7  1  0
  3  6  1  0
  3 12  1  0
  3 13  1  0
  4  9  2  0
  4 16  1  0
  5  6  1  0
  7  8  2  0
  7 11  1  0
  8  9  1  0
  8 10  1  0
  9 14  1  0
 10 15  2  0
 11 16  2  0
 14 17  2  0
 15 17  1  0
M  END
>  <PUBCHEM_COMPOUND_CID>  (1) 
21949

>  <PUBCHEM_CONFORMER_RMSD>  (1) 
0.6

>  <PUBCHEM_CONFORMER_DIVERSEORDER>  (1) 
1
22
16
17
13
9
15
8
11
12
4
19
21
7
6
5
2
18
10
20
3
14

>  <PUBCHEM_MMFF94_PARTIAL_CHARGES>  (1) 
23
1 -0.36
10 -0.15
11 -0.15
12 0.27
13 0.27
14 -0.15
15 0.08
16 0.16
17 -0.15
18 0.28
2 -0.87
23 0.4
24 0.15
25 0.15
3 -0.81
32 0.15
33 0.15
34 0.15
4 -0.62
5 0.37
6 0.27
7 0.1
9 0.31

>  <PUBCHEM_EFFECTIVE_ROTOR_COUNT>  (1) 
5

>  <PUBCHEM_PHARMACOPHORE_FEATURES>  (1) 
7
1 1 acceptor
1 2 cation
1 2 donor
1 3 cation
1 4 acceptor
6 4 7 8 9 11 16 rings
6 8 9 10 14 15 17 rings

>  <PUBCHEM_HEAVY_ATOM_COUNT>  (1) 
18

>  <PUBCHEM_ATOM_DEF_STEREO_COUNT>  (1) 
0

>  <PUBCHEM_ATOM_UDEF_STEREO_COUNT>  (1) 
0

>  <PUBCHEM_BOND_DEF_STEREO_COUNT>  (1) 
0

>  <PUBCHEM_BOND_UDEF_STEREO_COUNT>  (1) 
0

>  <PUBCHEM_ISOTOPIC_ATOM_COUNT>  (1) 
0

>  <PUBCHEM_COMPONENT_COUNT>  (1) 
1

>  <PUBCHEM_CACTVS_TAUTO_COUNT>  (1) 
3

>  <PUBCHEM_CONFORMER_ID>  (1) 
000055BD00000001

>  <PUBCHEM_MMFF94_ENERGY>  (1) 
71.8949

>  <PUBCHEM_FEATURE_SELFOVERLAP>  (1) 
35.551

>  <PUBCHEM_SHAPE_FINGERPRINT>  (1) 
10319926 262 18197198275827472090
10411042 1 18338518663626431191
10616163 171 18339081488952090910
11046707 91 18410293605586586286
11265709 11 18337675316537658403
12293681 160 17839441316469539257
12553582 1 18335129908538751555
12757275 245 18410013191382447228
13140716 1 18341900727091708865
13167823 11 18189053101999364066
13955234 65 17548987006287836569
14790565 3 17691408512518384497
15042514 8 18410580561210689465
15099037 37 18342738507443423486
15196674 1 18410575127644458916
15352361 1 18410574028143705422
17492 89 17978792642953437931
17804303 29 18342177756291886841
18927931 339 18339367374860000438
19141452 34 18342181050921913705
20281475 54 18338242664353117413
20645477 70 17831570243696754735
20871998 22 18267020755240042737
21065201 7 18339356341558242466
21267235 1 18409176506083784803
21339142 51 18409443657508301757
21728266 224 18187632588583856346
221490 88 18046632479910346467
2297311 6 18341905056497429324
23366157 5 17898009285333804340
23402539 116 18411695456952325687
23557571 272 18129387008106175740
23559900 14 18412256212842499512
2748010 2 18267015245145246101
335352 9 18410293623620952733
3421961 26 18123753320646364171
4214541 1 18267304236346106772
5104073 3 18271809050837384152
559249 180 17971189227751454010
573450 72 18187919509652678442
58779409 54 18336254670416300333
67856867 119 18188213208376034060
7364860 26 17908706472915498057
77188 2 18266742566114091901
7970288 3 18266739258525647927
9709674 26 18127132974819884422

>  <PUBCHEM_SHAPE_MULTIPOLES>  (1) 
349.62
10.85
3.22
0.66
15.55
0.35
0.04
-9.1
0.73
-3.2
-0.06
0.29
0
0.4

>  <PUBCHEM_SHAPE_SELFOVERLAP>  (1) 
734.983

>  <PUBCHEM_SHAPE_VOLUME>  (1) 
199

>  <PUBCHEM_COORDINATE_TYPE>  (1) 
2
5
10

$$$$
