21956
     RDKit          3D

 16 17  0  0  0  0  0  0  0  0999 V2000
   -1.7897   -0.2696   -0.9070 O   0  0  0  0  0  0  0  0  0  0  0  0
    4.0884    0.0432    0.6130 O   0  0  0  0  0  0  0  0  0  0  0  0
   -2.3355   -0.0798    1.3453 O   0  0  0  0  0  0  0  0  0  0  0  0
   -3.8618    0.4967   -0.3040 N   0  0  0  0  0  0  0  0  0  0  0  0
    0.5203    0.1493   -0.3372 C   0  0  0  0  0  0  0  0  0  0  0  0
    1.7784   -0.3752    0.0434 C   0  0  0  0  0  0  0  0  0  0  0  0
   -0.5570   -0.7288   -0.5390 C   0  0  0  0  0  0  0  0  0  0  0  0
    2.8558    0.5027    0.2453 C   0  0  0  0  0  0  0  0  0  0  0  0
    1.9222   -1.7622    0.2113 C   0  0  0  0  0  0  0  0  0  0  0  0
    0.3767    1.5362   -0.5047 C   0  0  0  0  0  0  0  0  0  0  0  0
   -0.3963   -2.1043   -0.3682 C   0  0  0  0  0  0  0  0  0  0  0  0
    0.8410   -2.6199    0.0065 C   0  0  0  0  0  0  0  0  0  0  0  0
    2.6953    1.8780    0.0741 C   0  0  0  0  0  0  0  0  0  0  0  0
    1.4580    2.3937   -0.3001 C   0  0  0  0  0  0  0  0  0  0  0  0
   -2.6457    0.0432    0.1640 C   0  0  0  0  0  0  0  0  0  0  0  0
   -4.9501    0.8967    0.5574 C   0  0  0  0  0  0  0  0  0  0  0  0
  1  7  1  0
  1 15  1  0
  2  8  1  0
  3 15  2  0
  4 15  1  0
  4 16  1  0
  5  6  1  0
  5  7  2  0
  5 10  1  0
  6  8  1  0
  6  9  2  0
  7 11  1  0
  8 13  2  0
  9 12  1  0
 10 14  2  0
 11 12  2  0
 13 14  1  0
M  END
>  <PUBCHEM_COMPOUND_CID>  (1) 
21956

>  <PUBCHEM_CONFORMER_RMSD>  (1) 
0.6

>  <PUBCHEM_CONFORMER_DIVERSEORDER>  (1) 
1
6
12
15
14
10
13
16
11
17
18
5
9
2
7
8
4
3

>  <PUBCHEM_MMFF94_PARTIAL_CHARGES>  (1) 
22
1 -0.23
10 -0.15
11 -0.15
12 -0.15
13 -0.15
14 -0.15
15 0.78
16 0.3
17 0.15
18 0.15
19 0.15
2 -0.53
20 0.15
21 0.15
22 0.15
23 0.45
24 0.37
3 -0.57
4 -0.73
7 0.08
8 0.08
9 -0.15

>  <PUBCHEM_EFFECTIVE_ROTOR_COUNT>  (1) 
3

>  <PUBCHEM_PHARMACOPHORE_FEATURES>  (1) 
5
1 2 donor
1 3 acceptor
1 4 donor
6 5 6 7 9 11 12 rings
6 5 6 8 10 13 14 rings

>  <PUBCHEM_HEAVY_ATOM_COUNT>  (1) 
16

>  <PUBCHEM_ATOM_DEF_STEREO_COUNT>  (1) 
0

>  <PUBCHEM_ATOM_UDEF_STEREO_COUNT>  (1) 
0

>  <PUBCHEM_BOND_DEF_STEREO_COUNT>  (1) 
0

>  <PUBCHEM_BOND_UDEF_STEREO_COUNT>  (1) 
0

>  <PUBCHEM_ISOTOPIC_ATOM_COUNT>  (1) 
0

>  <PUBCHEM_COMPONENT_COUNT>  (1) 
1

>  <PUBCHEM_CACTVS_TAUTO_COUNT>  (1) 
6

>  <PUBCHEM_CONFORMER_ID>  (1) 
000055C400000001

>  <PUBCHEM_MMFF94_ENERGY>  (1) 
46.2668

>  <PUBCHEM_FEATURE_SELFOVERLAP>  (1) 
25.398

>  <PUBCHEM_SHAPE_FINGERPRINT>  (1) 
10465860 228 18342183224090988849
10493431 412 18339076124511337072
10967382 1 18410289186149647878
10980938 120 18410291385072722095
11471102 20 18409725132236650781
11471102 22 18261119555810615899
11640471 11 17775015548529333401
12251169 10 18334859424467350739
12346645 6 18341331102257748167
12491281 212 18047752882353820256
13140716 1 18264762337081889824
13172582 1 18336820983233817686
14178342 30 17761194910759495720
14251717 144 18411132524532253223
14790565 3 18336838545603979100
15219456 202 18116144481328661429
15309172 13 18409165540916071215
15775835 57 18131632296490775785
15906896 17 17912924177654628671
16945 1 18409439302532386558
19049666 15 17679013803873955349
193761 8 17762047740919097988
20157964 124 18339358553730442789
20510252 161 17476923927165175592
21041028 32 18049997797213740610
21501502 16 18048590718898974870
21524375 3 18272370923012313975
21637258 2 15068887664728217080
22094290 62 18338232773233221828
22182313 1 18121483667001646358
23184049 59 18409727348318442996
2334 1 17904476651772633990
23402539 116 15554439691587583817
23557571 272 14261341480163450285
23558518 356 17974567206391999194
2748010 2 18049706431201433278
2838139 119 15482087488800234776
293599 30 18337115674068102164
3060560 45 18272374122483816750
350125 39 18049164672020570642
474 4 18412546513755106649
7364860 26 18271529680320911815
77492 1 17774711000977694063
7832392 63 18341889748912369286
8272917 22 18340775836522883359

>  <PUBCHEM_SHAPE_MULTIPOLES>  (1) 
306.68
6.42
2.47
0.83
6.99
0.57
0.07
-2.77
1.68
-1.53
-0.2
0.27
-0.01
-0.26

>  <PUBCHEM_SHAPE_SELFOVERLAP>  (1) 
665.527

>  <PUBCHEM_SHAPE_VOLUME>  (1) 
166.5

>  <PUBCHEM_COORDINATE_TYPE>  (1) 
2
5
10

$$$$
