21958
     RDKit          3D

  7  6  0  0  0  0  0  0  0  0999 V2000
    1.7314    1.3043   -0.0043 O   0  0  0  0  0  0  0  0  0  0  0  0
   -3.2331    0.2104    0.0003 O   0  0  0  0  0  0  0  0  0  0  0  0
    1.5765    0.0853    0.0062 C   0  0  0  0  0  0  0  0  0  0  0  0
    2.7576   -0.8492   -0.0019 C   0  0  0  0  0  0  0  0  0  0  0  0
    0.2261   -0.5430   -0.0013 C   0  0  0  0  0  0  0  0  0  0  0  0
   -0.8683    0.2245    0.0049 C   0  0  0  0  0  0  0  0  0  0  0  0
   -2.1902   -0.4324   -0.0038 C   0  0  0  0  0  0  0  0  0  0  0  0
  1  3  2  0
  2  7  2  0
  3  4  1  0
  3  5  1  0
  5  6  2  0
  6  7  1  0
M  END
>  <PUBCHEM_COMPOUND_CID>  (1) 
21958

>  <PUBCHEM_CONFORMER_RMSD>  (1) 
0.4

>  <PUBCHEM_CONFORMER_DIVERSEORDER>  (1) 
1
3
2
4

>  <PUBCHEM_MMFF94_PARTIAL_CHARGES>  (1) 
10
1 -0.57
11 0.15
12 0.15
13 0.06
2 -0.57
3 0.49
4 0.06
5 -0.14
6 -0.14
7 0.5

>  <PUBCHEM_EFFECTIVE_ROTOR_COUNT>  (1) 
2

>  <PUBCHEM_PHARMACOPHORE_FEATURES>  (1) 
2
1 1 acceptor
1 2 acceptor

>  <PUBCHEM_HEAVY_ATOM_COUNT>  (1) 
7

>  <PUBCHEM_ATOM_DEF_STEREO_COUNT>  (1) 
0

>  <PUBCHEM_ATOM_UDEF_STEREO_COUNT>  (1) 
0

>  <PUBCHEM_BOND_DEF_STEREO_COUNT>  (1) 
0

>  <PUBCHEM_BOND_UDEF_STEREO_COUNT>  (1) 
1

>  <PUBCHEM_ISOTOPIC_ATOM_COUNT>  (1) 
0

>  <PUBCHEM_COMPONENT_COUNT>  (1) 
1

>  <PUBCHEM_CACTVS_TAUTO_COUNT>  (1) 
2

>  <PUBCHEM_CONFORMER_ID>  (1) 
000055C600000001

>  <PUBCHEM_MMFF94_ENERGY>  (1) 
7.1063

>  <PUBCHEM_FEATURE_SELFOVERLAP>  (1) 
10.149

>  <PUBCHEM_SHAPE_FINGERPRINT>  (1) 
11062470 55 14117794708817017347
12932764 1 17313094259475176563
14325111 11 18410855494757035939
14390081 3 18411417345299192737
20096714 4 18339360884990037192
21040471 1 18266741483517945986
29004967 10 18411700959180088434
3248919 1 17131840875748395407
5460574 1 9223231849227826851

>  <PUBCHEM_SHAPE_MULTIPOLES>  (1) 
132.32
4.52
0.97
0.59
1.74
0.16
0
-0.39
0
-0.53
0
-0.02
-0.02
0

>  <PUBCHEM_SHAPE_SELFOVERLAP>  (1) 
245.56

>  <PUBCHEM_SHAPE_VOLUME>  (1) 
82.9

>  <PUBCHEM_COORDINATE_TYPE>  (1) 
2
5
10

$$$$
