21963
     RDKit          3D

 16 19  0  0  0  0  0  0  0  0999 V2000
    0.0000   -3.2149   -0.0001 O   0  0  0  0  0  0  0  0  0  0  0  0
   -0.6762    0.1810    0.0002 C   0  0  0  0  0  0  0  0  0  0  0  0
    0.6762    0.1809    0.0003 C   0  0  0  0  0  0  0  0  0  0  0  0
   -1.1739   -1.1011    0.0001 C   0  0  0  0  0  0  0  0  0  0  0  0
    1.1739   -1.1011    0.0001 C   0  0  0  0  0  0  0  0  0  0  0  0
   -1.4391    1.3420    0.0001 C   0  0  0  0  0  0  0  0  0  0  0  0
    1.4392    1.3420    0.0000 C   0  0  0  0  0  0  0  0  0  0  0  0
    0.0000   -2.0056   -0.0001 C   0  0  0  0  0  0  0  0  0  0  0  0
   -0.7099    2.5604   -0.0001 C   0  0  0  0  0  0  0  0  0  0  0  0
    0.7098    2.5604   -0.0001 C   0  0  0  0  0  0  0  0  0  0  0  0
   -2.5324   -1.3190    0.0000 C   0  0  0  0  0  0  0  0  0  0  0  0
    2.5324   -1.3189   -0.0001 C   0  0  0  0  0  0  0  0  0  0  0  0
   -2.8353    1.1313   -0.0001 C   0  0  0  0  0  0  0  0  0  0  0  0
    2.8352    1.1313    0.0000 C   0  0  0  0  0  0  0  0  0  0  0  0
   -3.3649   -0.1843   -0.0001 C   0  0  0  0  0  0  0  0  0  0  0  0
    3.3649   -0.1843   -0.0001 C   0  0  0  0  0  0  0  0  0  0  0  0
  1  8  2  0
  2  3  1  0
  2  4  2  0
  2  6  1  0
  3  5  2  0
  3  7  1  0
  4  8  1  0
  4 11  1  0
  5  8  1  0
  5 12  1  0
  6  9  1  0
  6 13  2  0
  7 10  1  0
  7 14  2  0
  9 10  2  0
 11 15  2  0
 12 16  2  0
 13 15  1  0
 14 16  1  0
M  END
>  <PUBCHEM_COMPOUND_CID>  (1) 
21963

>  <PUBCHEM_CONFORMER_RMSD>  (1) 
0.4

>  <PUBCHEM_CONFORMER_DIVERSEORDER>  (1) 
1

>  <PUBCHEM_MMFF94_PARTIAL_CHARGES>  (1) 
20
1 -0.57
10 -0.15
11 -0.15
12 -0.15
13 -0.15
14 -0.15
15 -0.15
16 -0.15
17 0.15
18 0.15
19 0.15
20 0.15
21 0.15
22 0.15
23 0.15
24 0.15
4 0.09
5 0.09
8 0.4
9 -0.15

>  <PUBCHEM_EFFECTIVE_ROTOR_COUNT>  (1) 
0

>  <PUBCHEM_PHARMACOPHORE_FEATURES>  (1) 
5
1 1 acceptor
5 2 3 4 5 8 rings
6 2 3 6 7 9 10 rings
6 2 4 6 11 13 15 rings
6 3 5 7 12 14 16 rings

>  <PUBCHEM_HEAVY_ATOM_COUNT>  (1) 
16

>  <PUBCHEM_ATOM_DEF_STEREO_COUNT>  (1) 
0

>  <PUBCHEM_ATOM_UDEF_STEREO_COUNT>  (1) 
0

>  <PUBCHEM_BOND_DEF_STEREO_COUNT>  (1) 
0

>  <PUBCHEM_BOND_UDEF_STEREO_COUNT>  (1) 
0

>  <PUBCHEM_ISOTOPIC_ATOM_COUNT>  (1) 
0

>  <PUBCHEM_COMPONENT_COUNT>  (1) 
1

>  <PUBCHEM_CACTVS_TAUTO_COUNT>  (1) 
1

>  <PUBCHEM_CONFORMER_ID>  (1) 
000055CB00000001

>  <PUBCHEM_MMFF94_ENERGY>  (1) 
67.122

>  <PUBCHEM_FEATURE_SELFOVERLAP>  (1) 
25.739

>  <PUBCHEM_SHAPE_FINGERPRINT>  (1) 
10967382 1 18410575114743732711
11132069 177 18412257307510280528
11471102 20 18410288095555145245
11680986 33 17978510072004828985
13140716 1 18410856520990391601
13172582 1 18411138064686578705
14614273 12 18044087960674036781
14790565 3 18266480787309203140
15196674 1 18410856563934899781
15309172 13 18411428305765374179
16945 1 18411418397196804641
193761 8 17689997838613748066
19591789 44 18410579487005135458
20510252 161 18272087163134516848
20588541 1 18340208608502538252
20905425 154 17909269087655670790
21267235 1 18410865360028071394
21501502 16 18410576141225248129
2334 1 18410574019516477249
23402539 116 18342726430111496686
23419403 2 16042444870611384185
23463225 33 18408039585306516008
23559900 14 18055354635904322134
25 1 18189883233067137213
2748010 2 18410575088963353541
335352 9 17978229361542879261
43471831 8 18263641754112996674
528886 8 18411413999155464537
589210 1 17689999354742530315
7364860 26 18126004003668682832
8809292 202 18261118447714614163

>  <PUBCHEM_SHAPE_MULTIPOLES>  (1) 
323.4
4.45
2.94
0.61
0
0.21
0
0.06
0
0
0
0
-0.02
0

>  <PUBCHEM_SHAPE_SELFOVERLAP>  (1) 
766.703

>  <PUBCHEM_SHAPE_VOLUME>  (1) 
165

>  <PUBCHEM_COORDINATE_TYPE>  (1) 
2
5
10

$$$$
