21971
     RDKit          3D

 14 16  0  0  1  0  0  0  0  0999 V2000
    0.7394   -0.3933    0.2397 C   0  0  0  0  0  0  0  0  0  0  0  0
   -0.7393   -0.3934   -0.2385 C   0  0  0  0  0  0  0  0  0  0  0  0
    1.4597    0.8885   -0.2457 C   0  0  0  0  0  0  0  0  0  0  0  0
   -1.4598    0.8887    0.2461 C   0  0  0  0  0  0  0  0  0  0  0  0
    0.7280    2.1497    0.2261 C   0  0  0  0  0  0  0  0  0  0  0  0
   -0.7278    2.1498   -0.2251 C   0  0  0  0  0  0  0  0  0  0  0  0
    1.5175   -1.6394   -0.2232 C   0  0  0  0  0  0  0  0  0  0  0  0
   -1.5176   -1.6391    0.2247 C   0  0  0  0  0  0  0  0  0  0  0  0
    2.9227    0.9169    0.2162 C   0  0  0  0  0  0  0  0  0  0  0  0
   -2.9224    0.9169   -0.2177 C   0  0  0  0  0  0  0  0  0  0  0  0
    2.9815   -1.5986    0.2111 C   0  0  0  0  0  0  0  0  0  0  0  0
   -2.9812   -1.5987   -0.2116 C   0  0  0  0  0  0  0  0  0  0  0  0
    3.6766   -0.3240   -0.2475 C   0  0  0  0  0  0  0  0  0  0  0  0
   -3.6771   -0.3240    0.2454 C   0  0  0  0  0  0  0  0  0  0  0  0
  1  2  1  0
  1  3  1  0
  1  7  1  0
  2  4  1  0
  2  8  1  0
  3  5  1  0
  3  9  1  0
  4  6  1  0
  4 10  1  0
  5  6  1  0
  7 11  1  0
  8 12  1  0
  9 13  1  0
 10 14  1  0
 11 13  1  0
 12 14  1  0
M  END
>  <PUBCHEM_COMPOUND_CID>  (1) 
21971

>  <PUBCHEM_CONFORMER_RMSD>  (1) 
0.6

>  <PUBCHEM_CONFORMER_DIVERSEORDER>  (1) 
1
8
5
4
3
7
6
9
2

>  <PUBCHEM_MMFF94_PARTIAL_CHARGES>  (1) 
0

>  <PUBCHEM_EFFECTIVE_ROTOR_COUNT>  (1) 
2

>  <PUBCHEM_PHARMACOPHORE_FEATURES>  (1) 
3
6 1 2 3 4 5 6 rings
6 1 3 7 9 11 13 rings
6 2 4 8 10 12 14 rings

>  <PUBCHEM_HEAVY_ATOM_COUNT>  (1) 
14

>  <PUBCHEM_ATOM_DEF_STEREO_COUNT>  (1) 
0

>  <PUBCHEM_ATOM_UDEF_STEREO_COUNT>  (1) 
4

>  <PUBCHEM_BOND_DEF_STEREO_COUNT>  (1) 
0

>  <PUBCHEM_BOND_UDEF_STEREO_COUNT>  (1) 
0

>  <PUBCHEM_ISOTOPIC_ATOM_COUNT>  (1) 
0

>  <PUBCHEM_COMPONENT_COUNT>  (1) 
1

>  <PUBCHEM_CACTVS_TAUTO_COUNT>  (1) 
1

>  <PUBCHEM_CONFORMER_ID>  (1) 
000055D300000001

>  <PUBCHEM_MMFF94_ENERGY>  (1) 
17.3654

>  <PUBCHEM_FEATURE_SELFOVERLAP>  (1) 
15.255

>  <PUBCHEM_SHAPE_FINGERPRINT>  (1) 
10608611 8 18410569587105264837
10618630 7 18409730655591012492
10967382 1 18338517567950458026
10980938 120 18411138077814203466
11132069 177 18411693292425997360
11471102 20 18410851092425990287
11769659 78 18410851062081787110
12032990 46 18410579487004700227
12251169 10 18342747320969347009
12382932 28 18412825772117183946
13140716 1 18339079289537958362
13221675 6 18410575084663124390
14144814 61 18411138030379737251
14251717 144 18339637974720950655
14325111 11 18410573985151581056
15196674 1 18410856559639796070
15219456 202 18411978070100618185
15375462 189 18187647968339529899
15442244 35 18266177223610315394
15536298 74 18271807960163532040
16945 1 18410573985151749956
17990270 104 18337388365213706443
19107657 46 18411699876568696550
200 152 18060410348754624703
20201158 50 18409729577496354811
20510252 161 18200030616773216504
20588541 1 18410857654856489044
20645477 70 18119237609548861471
20871998 184 18201717293300530551
21267235 1 18410584980268170626
21501502 16 18410857659156692098
221490 88 18191875723655521106
22213442 358 18411699915297183655
22721475 48 18410859858174692388
2334 1 18410575114728044874
23402539 116 18341320115705115822
23463225 33 18409731767955867660
23552423 10 18192151709911719901
23559900 14 18268705018528856674
2748010 2 18411133679546048948
3312278 4 18410014329490706440
335352 9 18122343484477362749
34934 24 18410846668330106882
5104073 3 18410575084668400138
528886 8 18411695500139407762
53812653 166 18270959158561641808
63268167 104 18410858776101572297
7364860 26 18197779001643085688
81228 2 18193008031753575376
8809292 202 18261397775160314475
9709674 26 18411422812592509782

>  <PUBCHEM_SHAPE_MULTIPOLES>  (1) 
288.11
5.82
2.3
0.67
0
0.4
0
-1.67
0
0
0
0
0
0.06

>  <PUBCHEM_SHAPE_SELFOVERLAP>  (1) 
592.924

>  <PUBCHEM_SHAPE_VOLUME>  (1) 
160.8

>  <PUBCHEM_COORDINATE_TYPE>  (1) 
2
5
10

$$$$
