21984
     RDKit          3D

 16 15  0  0  0  0  0  0  0  0999 V2000
    1.8634    0.0124   -0.0069 N   0  0  0  0  0  0  0  0  0  0  0  0
   -1.8633   -0.0043   -0.0206 N   0  0  0  0  0  0  0  0  0  0  0  0
    4.4412   -1.9359    1.1935 N   0  0  0  0  0  0  0  0  0  0  0  0
    2.5420    2.5884   -2.1947 N   0  0  0  0  0  0  0  0  0  0  0  0
   -4.4552    1.9168    1.1967 N   0  0  0  0  0  0  0  0  0  0  0  0
   -2.5379   -2.5980   -2.1904 N   0  0  0  0  0  0  0  0  0  0  0  0
    0.5143    0.5771   -0.0128 C   0  0  0  0  0  0  0  0  0  0  0  0
   -0.5114   -0.5488   -0.0422 C   0  0  0  0  0  0  0  0  0  0  0  0
    2.0678   -0.8106    1.1845 C   0  0  0  0  0  0  0  0  0  0  0  0
    2.8635    1.0774   -0.0702 C   0  0  0  0  0  0  0  0  0  0  0  0
   -2.0685    0.8201    1.1719 C   0  0  0  0  0  0  0  0  0  0  0  0
   -2.8542   -1.0810   -0.0694 C   0  0  0  0  0  0  0  0  0  0  0  0
    3.3932   -1.4378    1.1875 C   0  0  0  0  0  0  0  0  0  0  0  0
    2.6822    1.9196   -1.2567 C   0  0  0  0  0  0  0  0  0  0  0  0
   -3.4012    1.4313    1.1838 C   0  0  0  0  0  0  0  0  0  0  0  0
   -2.6759   -1.9266   -1.2540 C   0  0  0  0  0  0  0  0  0  0  0  0
  1  7  1  0
  1  9  1  0
  1 10  1  0
  2  8  1  0
  2 11  1  0
  2 12  1  0
  3 13  3  0
  4 14  3  0
  5 15  3  0
  6 16  3  0
  7  8  1  0
  9 13  1  0
 10 14  1  0
 11 15  1  0
 12 16  1  0
M  END
>  <PUBCHEM_COMPOUND_CID>  (1) 
21984

>  <PUBCHEM_CONFORMER_RMSD>  (1) 
0.8

>  <PUBCHEM_CONFORMER_DIVERSEORDER>  (1) 
2
28
13
29
24
19
20
25
30
31
23
45
21
26
14
41
46
34
40
33
43
3
48
27
36
22
37
5
47
50
49
38
39
32
35
42
9
44
1
4
10
18
17
12
7
11
8
16
6
15

>  <PUBCHEM_MMFF94_PARTIAL_CHARGES>  (1) 
16
1 -0.81
10 0.47
11 0.47
12 0.47
13 0.36
14 0.36
15 0.36
16 0.36
2 -0.81
3 -0.56
4 -0.56
5 -0.56
6 -0.56
7 0.27
8 0.27
9 0.47

>  <PUBCHEM_EFFECTIVE_ROTOR_COUNT>  (1) 
7

>  <PUBCHEM_PHARMACOPHORE_FEATURES>  (1) 
6
1 1 cation
1 2 cation
1 3 acceptor
1 4 acceptor
1 5 acceptor
1 6 acceptor

>  <PUBCHEM_HEAVY_ATOM_COUNT>  (1) 
16

>  <PUBCHEM_ATOM_DEF_STEREO_COUNT>  (1) 
0

>  <PUBCHEM_ATOM_UDEF_STEREO_COUNT>  (1) 
0

>  <PUBCHEM_BOND_DEF_STEREO_COUNT>  (1) 
0

>  <PUBCHEM_BOND_UDEF_STEREO_COUNT>  (1) 
0

>  <PUBCHEM_ISOTOPIC_ATOM_COUNT>  (1) 
0

>  <PUBCHEM_COMPONENT_COUNT>  (1) 
1

>  <PUBCHEM_CACTVS_TAUTO_COUNT>  (1) 
1

>  <PUBCHEM_CONFORMER_ID>  (1) 
000055E000000002

>  <PUBCHEM_MMFF94_ENERGY>  (1) 
33.3378

>  <PUBCHEM_FEATURE_SELFOVERLAP>  (1) 
30.449

>  <PUBCHEM_SHAPE_FINGERPRINT>  (1) 
10756046 70 18336270058846018460
12500047 106 17702932639606282507
12553582 1 17750505183857579834
12788726 201 18200316666459978091
14115302 16 18131070376997060208
15342816 4 17413010351382942767
15669948 3 18201726201532090055
15806764 133 15574716880457534678
15842332 3 18410576235719608670
16752209 62 17989207079493834887
1813 80 18044100060145691286
18186145 218 16081910612335654495
20279233 1 15697994115563165424
20600515 1 17489297551967825040
20645477 70 17386273402612860026
21041028 32 17750520568330226204
21486144 27 16950573215434355945
21524375 3 18199189491015901073
2255824 54 18113625594815915482
23557571 272 16630250298107074761
23598288 3 18343305890146245291
23598291 2 18407760317726678694
23598294 1 18130518530040578979
23622692 88 18266740186152966683
25147074 1 18410855490192932910
312423 11 18336269028138523079
603831 33 18197216068811128182
6049 1 15647053763317858430
621550 5 15503520139588979014
633830 44 17971216921737781836
7615 1 18339072786983884565
88987 49 17846218873171107857

>  <PUBCHEM_SHAPE_MULTIPOLES>  (1) 
299.39
8
2.76
1.83
0.04
0.03
-0.83
0
1.89
-0.01
-1.23
-0.01
0
-4.6

>  <PUBCHEM_SHAPE_SELFOVERLAP>  (1) 
575.34

>  <PUBCHEM_SHAPE_VOLUME>  (1) 
173.9

>  <PUBCHEM_COORDINATE_TYPE>  (1) 
2
5
10

$$$$
