21998
     RDKit          3D

 16 18  0  0  0  0  0  0  0  0999 V2000
   -0.0001   -1.3153    0.0005 N   0  0  0  0  0  0  0  0  0  0  0  0
    0.0001    2.8443    0.0008 N   0  0  0  0  0  0  0  0  0  0  0  0
   -1.1871   -0.6804    0.0003 C   0  0  0  0  0  0  0  0  0  0  0  0
    1.1871   -0.6804    0.0003 C   0  0  0  0  0  0  0  0  0  0  0  0
   -1.2156    0.7291    0.0003 C   0  0  0  0  0  0  0  0  0  0  0  0
    1.2156    0.7291    0.0004 C   0  0  0  0  0  0  0  0  0  0  0  0
    0.0000    1.4242    0.0006 C   0  0  0  0  0  0  0  0  0  0  0  0
   -2.3802   -1.4112   -0.0001 C   0  0  0  0  0  0  0  0  0  0  0  0
    2.3800   -1.4113    0.0000 C   0  0  0  0  0  0  0  0  0  0  0  0
    0.0002   -2.7939    0.0009 C   0  0  0  0  0  0  0  0  0  0  0  0
   -2.4584    1.3826   -0.0002 C   0  0  0  0  0  0  0  0  0  0  0  0
    2.4585    1.3826   -0.0002 C   0  0  0  0  0  0  0  0  0  0  0  0
   -3.6058   -0.7464   -0.0009 C   0  0  0  0  0  0  0  0  0  0  0  0
    3.6057   -0.7465   -0.0009 C   0  0  0  0  0  0  0  0  0  0  0  0
   -3.6451    0.6468   -0.0009 C   0  0  0  0  0  0  0  0  0  0  0  0
    3.6451    0.6468   -0.0010 C   0  0  0  0  0  0  0  0  0  0  0  0
  1  3  2  0
  1  4  1  0
  1 10  1  0
  2  7  1  0
  3  5  1  0
  3  8  1  0
  4  6  2  0
  4  9  1  0
  5  7  2  0
  5 11  1  0
  6  7  1  0
  6 12  1  0
  8 13  2  0
  9 14  2  0
 11 15  2  0
 12 16  2  0
 13 15  1  0
 14 16  1  0
M  CHG  1   1   1
M  END
>  <PUBCHEM_COMPOUND_CID>  (1) 
21998

>  <PUBCHEM_CONFORMER_RMSD>  (1) 
0.4

>  <PUBCHEM_CONFORMER_DIVERSEORDER>  (1) 
1

>  <PUBCHEM_MMFF94_PARTIAL_CHARGES>  (1) 
24
1 -0.21
10 0.49
11 -0.15
12 -0.15
13 -0.15
14 -0.15
15 -0.15
16 -0.15
17 0.15
18 0.15
2 -0.9
22 0.15
23 0.15
24 0.15
25 0.15
26 0.15
27 0.15
28 0.4
29 0.4
3 0.36
4 0.36
7 0.1
8 -0.15
9 -0.15

>  <PUBCHEM_EFFECTIVE_ROTOR_COUNT>  (1) 
0

>  <PUBCHEM_PHARMACOPHORE_FEATURES>  (1) 
5
1 2 cation
1 2 donor
6 1 3 4 5 6 7 rings
6 3 5 8 11 13 15 rings
6 4 6 9 12 14 16 rings

>  <PUBCHEM_HEAVY_ATOM_COUNT>  (1) 
16

>  <PUBCHEM_ATOM_DEF_STEREO_COUNT>  (1) 
0

>  <PUBCHEM_ATOM_UDEF_STEREO_COUNT>  (1) 
0

>  <PUBCHEM_BOND_DEF_STEREO_COUNT>  (1) 
0

>  <PUBCHEM_BOND_UDEF_STEREO_COUNT>  (1) 
0

>  <PUBCHEM_ISOTOPIC_ATOM_COUNT>  (1) 
0

>  <PUBCHEM_COMPONENT_COUNT>  (1) 
1

>  <PUBCHEM_CACTVS_TAUTO_COUNT>  (1) 
2

>  <PUBCHEM_CONFORMER_ID>  (1) 
000055EE00000001

>  <PUBCHEM_MMFF94_ENERGY>  (1) 
84.3459

>  <PUBCHEM_FEATURE_SELFOVERLAP>  (1) 
25.431

>  <PUBCHEM_SHAPE_FINGERPRINT>  (1) 
10062212 137 18338224994979019987
10608611 8 18410570686616931584
108231 29 18271807959799788816
10967382 1 18410575071815275686
11132069 177 18411975853966104360
11471102 20 18410288095043331917
11680986 33 18050004694688436665
11806522 49 18339637962221099191
12032990 46 18410580582221386691
12382932 28 18411982442382658937
13140716 1 18410855417178495786
13221675 6 18410573989451868578
13380535 76 18410855460128597027
13897977 150 18410853226829654909
14144814 61 18410856572529979363
14325111 11 18410573989457078368
14614273 12 18115865209527794325
15196674 1 18410573989446431431
15309172 13 18411990164950290931
15442244 35 18194401078800406346
15536298 74 18343301466155421762
16945 1 18410293605391433447
18186145 218 18412267203120101316
193761 8 17690280413102131971
19591789 44 18410576184175388771
200 152 18131340934931723775
20510252 161 18272370854124402688
20645476 183 17824280382276689246
21267235 1 18410865360028162338
21501502 16 18410856559639789570
2334 1 18410574015216228710
23402539 116 18343291583314569062
23402655 69 18269260302113354693
23419403 2 16041881929274173755
23463225 33 18408603647587856204
23559900 14 18343021061179637790
2748010 2 18410573989446425046
335352 9 18050285860342995742
34934 24 18410846668330126378
43471831 8 18335417903059701946
5104073 3 18410855468718097387
528886 8 18411414003445170090
537710 114 18409454703821191620
53812653 166 18342735251726428760
54173680 148 18120657099913138763
589210 1 17690279730202331987
69090 78 18342734147930467495
7364860 26 18125439958361522464
84936 31 15983701009645465974
8809292 202 18261116278777306659
9709674 26 18412268367172828726

>  <PUBCHEM_SHAPE_MULTIPOLES>  (1) 
319.31
5.88
2.48
0.61
0
0.13
0
-0.04
0
0
0
0
0.01
0

>  <PUBCHEM_SHAPE_SELFOVERLAP>  (1) 
721.234

>  <PUBCHEM_SHAPE_VOLUME>  (1) 
168.3

>  <PUBCHEM_COORDINATE_TYPE>  (1) 
2
5
10

$$$$
