21990
     RDKit          3D

 14 16  0  0  1  0  0  0  0  0999 V2000
   -1.2252    0.6695    0.3041 N   0  0  0  0  0  0  0  0  0  0  0  0
   -1.2252   -0.6695   -0.3037 N   0  0  0  0  0  0  0  0  0  0  0  0
    1.2253    0.6695    0.3041 N   0  0  0  0  0  0  0  0  0  0  0  0
    1.2251   -0.6696   -0.3037 N   0  0  0  0  0  0  0  0  0  0  0  0
    0.0000    1.3654   -0.1458 C   0  0  0  0  0  0  0  0  0  0  0  0
    0.0000   -1.3653    0.1463 C   0  0  0  0  0  0  0  0  0  0  0  0
   -2.4010    1.4113   -0.1931 C   0  0  0  0  0  0  0  0  0  0  0  0
   -2.4009   -1.4112    0.1933 C   0  0  0  0  0  0  0  0  0  0  0  0
    2.4009    1.4113   -0.1935 C   0  0  0  0  0  0  0  0  0  0  0  0
    2.4010   -1.4112    0.1933 C   0  0  0  0  0  0  0  0  0  0  0  0
   -3.6968    0.7247    0.2331 C   0  0  0  0  0  0  0  0  0  0  0  0
   -3.6965   -0.7248   -0.2339 C   0  0  0  0  0  0  0  0  0  0  0  0
    3.6967    0.7249    0.2328 C   0  0  0  0  0  0  0  0  0  0  0  0
    3.6966   -0.7249   -0.2333 C   0  0  0  0  0  0  0  0  0  0  0  0
  1  2  1  0
  1  5  1  0
  1  7  1  0
  2  6  1  0
  2  8  1  0
  3  4  1  0
  3  5  1  0
  3  9  1  0
  4  6  1  0
  4 10  1  0
  7 11  1  0
  8 12  1  0
  9 13  1  0
 10 14  1  0
 11 12  1  0
 13 14  1  0
M  END
>  <PUBCHEM_COMPOUND_CID>  (1) 
21990

>  <PUBCHEM_CONFORMER_RMSD>  (1) 
0.6

>  <PUBCHEM_CONFORMER_DIVERSEORDER>  (1) 
1
2
3

>  <PUBCHEM_MMFF94_PARTIAL_CHARGES>  (1) 
10
1 -0.54
10 0.27
2 -0.54
3 -0.54
4 -0.54
5 0.54
6 0.54
7 0.27
8 0.27
9 0.27

>  <PUBCHEM_EFFECTIVE_ROTOR_COUNT>  (1) 
2

>  <PUBCHEM_PHARMACOPHORE_FEATURES>  (1) 
3
6 1 2 3 4 5 6 rings
6 1 2 7 8 11 12 rings
6 3 4 9 10 13 14 rings

>  <PUBCHEM_HEAVY_ATOM_COUNT>  (1) 
14

>  <PUBCHEM_ATOM_DEF_STEREO_COUNT>  (1) 
0

>  <PUBCHEM_ATOM_UDEF_STEREO_COUNT>  (1) 
0

>  <PUBCHEM_BOND_DEF_STEREO_COUNT>  (1) 
0

>  <PUBCHEM_BOND_UDEF_STEREO_COUNT>  (1) 
0

>  <PUBCHEM_ISOTOPIC_ATOM_COUNT>  (1) 
0

>  <PUBCHEM_COMPONENT_COUNT>  (1) 
1

>  <PUBCHEM_CACTVS_TAUTO_COUNT>  (1) 
1

>  <PUBCHEM_CONFORMER_ID>  (1) 
000055E600000001

>  <PUBCHEM_MMFF94_ENERGY>  (1) 
14.5503

>  <PUBCHEM_FEATURE_SELFOVERLAP>  (1) 
15.275

>  <PUBCHEM_SHAPE_FINGERPRINT>  (1) 
10608611 8 18410852161620054984
10967382 1 18410012121845900202
10980938 120 18410011026935324770
11132069 177 18411414020667302184
11471102 20 18410852166125635750
12032990 46 18411143536474998094
12932764 1 17458336412293142887
13221675 6 18410573993741528642
13296908 3 18412546509159543302
13380535 76 18410573998042004563
14144814 61 18410011026613409115
14251717 144 18410570708107352142
14325111 11 18411136939410584144
15196674 1 18411138034616500229
15219456 202 18412263934528617612
15442244 35 18194682566614422698
15536298 74 18343019991173423362
15775835 57 18410859853895594849
16945 1 18408603660314476550
17802600 8 18410848871664309908
17834074 16 18410294722088335107
18186145 218 18333448716362219238
18522853 276 18341891900469451480
200 152 17988634216829487581
20201158 50 18411419501024622171
20528008 55 18411978065995554949
20645477 70 18342454811773714983
21267235 1 18410865360044006103
21501502 16 18411138038943122533
21501925 9 18410002248053716482
23402539 116 18342448244715562508
23402655 69 18341327816718679557
23463225 33 18408885126859579684
23552423 10 18333732441790899606
23559900 14 18341609266526855978
2748010 2 18410856563950587782
3312278 4 18412266146521184297
5104073 3 18411136935110161186
528886 8 18410569587168289218
53812653 166 18343297093725993808
57096353 35 18339079409807533853
69090 78 18343297072335507735
7364860 26 18343865515820924430
8809292 202 18261397770933925467
9709674 26 18411705404213173206

>  <PUBCHEM_SHAPE_MULTIPOLES>  (1) 
268.19
6.91
1.76
0.64
0
0
0
0
0
0
0
0
0
0

>  <PUBCHEM_SHAPE_SELFOVERLAP>  (1) 
544.291

>  <PUBCHEM_SHAPE_VOLUME>  (1) 
152.1

>  <PUBCHEM_COORDINATE_TYPE>  (1) 
2
5
10

$$$$
