21992
     RDKit          3D

 12 13  0  0  0  0  0  0  0  0999 V2000
   -1.7019   -0.5280    1.4472 S   0  0  0  0  0  0  0  0  0  0  0  0
   -1.7596    0.6042   -1.3347 S   0  0  0  0  0  0  0  0  0  0  0  0
   -0.8763   -0.5707   -0.2122 C   0  0  0  0  0  0  0  0  0  0  0  0
    0.5988   -0.1865   -0.0874 C   0  0  0  0  0  0  0  0  0  0  0  0
   -2.8915    0.7924    1.0877 C   0  0  0  0  0  0  0  0  0  0  0  0
   -3.2868    0.7002   -0.3708 C   0  0  0  0  0  0  0  0  0  0  0  0
   -1.1461   -1.9792   -0.7738 C   0  0  0  0  0  0  0  0  0  0  0  0
    1.5577   -1.1714    0.1480 C   0  0  0  0  0  0  0  0  0  0  0  0
    0.9840    1.1482   -0.2094 C   0  0  0  0  0  0  0  0  0  0  0  0
    2.9031   -0.8212    0.2617 C   0  0  0  0  0  0  0  0  0  0  0  0
    2.3295    1.4983   -0.0959 C   0  0  0  0  0  0  0  0  0  0  0  0
    3.2890    0.5135    0.1397 C   0  0  0  0  0  0  0  0  0  0  0  0
  1  3  1  0
  1  5  1  0
  2  3  1  0
  2  6  1  0
  3  4  1  0
  3  7  1  0
  4  8  2  0
  4  9  1  0
  5  6  1  0
  8 10  1  0
  9 11  2  0
 10 12  2  0
 11 12  1  0
M  END
>  <PUBCHEM_COMPOUND_CID>  (1) 
21992

>  <PUBCHEM_CONFORMER_RMSD>  (1) 
0.6

>  <PUBCHEM_CONFORMER_DIVERSEORDER>  (1) 
2
1

>  <PUBCHEM_MMFF94_PARTIAL_CHARGES>  (1) 
16
1 -0.46
10 -0.15
11 -0.15
12 -0.15
2 -0.46
20 0.15
21 0.15
22 0.15
23 0.15
24 0.15
3 0.6
4 -0.14
5 0.23
6 0.23
8 -0.15
9 -0.15

>  <PUBCHEM_EFFECTIVE_ROTOR_COUNT>  (1) 
2

>  <PUBCHEM_PHARMACOPHORE_FEATURES>  (1) 
2
5 1 2 3 5 6 rings
6 4 8 9 10 11 12 rings

>  <PUBCHEM_HEAVY_ATOM_COUNT>  (1) 
12

>  <PUBCHEM_ATOM_DEF_STEREO_COUNT>  (1) 
0

>  <PUBCHEM_ATOM_UDEF_STEREO_COUNT>  (1) 
0

>  <PUBCHEM_BOND_DEF_STEREO_COUNT>  (1) 
0

>  <PUBCHEM_BOND_UDEF_STEREO_COUNT>  (1) 
0

>  <PUBCHEM_ISOTOPIC_ATOM_COUNT>  (1) 
0

>  <PUBCHEM_COMPONENT_COUNT>  (1) 
1

>  <PUBCHEM_CACTVS_TAUTO_COUNT>  (1) 
1

>  <PUBCHEM_CONFORMER_ID>  (1) 
000055E800000002

>  <PUBCHEM_MMFF94_ENERGY>  (1) 
34.106

>  <PUBCHEM_FEATURE_SELFOVERLAP>  (1) 
10.149

>  <PUBCHEM_SHAPE_FINGERPRINT>  (1) 
10857977 72 16660371376432219285
10980938 120 18408604742920574306
12119455 92 18335132056259353901
124424 183 17822562820565085546
12491281 212 18342742918142721305
12696612 119 17968948603110422204
12716758 59 14548741677216466709
12932764 1 18186798093396416806
13024252 1 15936400165784753903
13380535 21 18336274521544009254
14144814 61 18342455937060063616
14993402 34 18272931596269090972
15219456 202 18040155110702758336
15309172 13 18411985728280663959
15775835 57 18411702114172863189
16945 1 18337946801446630518
17844478 74 17603872178103631781
18186145 218 18201721700095264085
18534176 82 14045732729770383077
19049666 15 17460589217229421779
19837323 101 14692308192137396795
20201158 50 18186519869345874544
20645464 45 17676486146557800265
20653085 51 18410569578831497167
20715346 28 17967536761371002165
21501502 16 18263921197464291438
23402539 116 17131823257887668245
23557571 272 14261053403373521915
2748010 2 18335418023603083638
305870 269 17986682454540544131
3248919 1 17561084726290302358
369184 2 18409164441451916155
5084963 1 18195802105716813398
528886 8 18412818092953054922
63268167 104 18412260640489278752
69090 78 18335695057731446007
74978 22 18201440324029369164
77492 1 17632571617784701309
8030462 33 16630813209521724278

>  <PUBCHEM_SHAPE_MULTIPOLES>  (1) 
254.65
5.22
1.6
1.17
0.92
0.3
-0.12
-1.3
-0.66
0.2
0.24
-0.99
0.05
-0.06

>  <PUBCHEM_SHAPE_SELFOVERLAP>  (1) 
503.387

>  <PUBCHEM_SHAPE_VOLUME>  (1) 
151.3

>  <PUBCHEM_COORDINATE_TYPE>  (1) 
2
5
10

$$$$
