22000
     RDKit          3D

 15 17  0  0  0  0  0  0  0  0999 V2000
    0.0000   -1.1256    0.0007 N   0  0  0  0  0  0  0  0  0  0  0  0
   -1.1871   -0.4908    0.0005 C   0  0  0  0  0  0  0  0  0  0  0  0
    1.1871   -0.4908    0.0005 C   0  0  0  0  0  0  0  0  0  0  0  0
   -1.2156    0.9187    0.0004 C   0  0  0  0  0  0  0  0  0  0  0  0
    1.2156    0.9187    0.0005 C   0  0  0  0  0  0  0  0  0  0  0  0
    0.0000    1.6138    0.0007 C   0  0  0  0  0  0  0  0  0  0  0  0
   -2.3802   -1.2216    0.0001 C   0  0  0  0  0  0  0  0  0  0  0  0
    2.3801   -1.2217    0.0002 C   0  0  0  0  0  0  0  0  0  0  0  0
   -0.0001   -2.6043   -0.0004 C   0  0  0  0  0  0  0  0  0  0  0  0
   -2.4583    1.5722   -0.0001 C   0  0  0  0  0  0  0  0  0  0  0  0
    2.4585    1.5722   -0.0001 C   0  0  0  0  0  0  0  0  0  0  0  0
   -3.6057   -0.5567   -0.0007 C   0  0  0  0  0  0  0  0  0  0  0  0
    3.6057   -0.5569   -0.0007 C   0  0  0  0  0  0  0  0  0  0  0  0
   -3.6450    0.8364   -0.0008 C   0  0  0  0  0  0  0  0  0  0  0  0
    3.6452    0.8364   -0.0009 C   0  0  0  0  0  0  0  0  0  0  0  0
  1  2  2  0
  1  3  1  0
  1  9  1  0
  2  4  1  0
  2  7  1  0
  3  5  2  0
  3  8  1  0
  4  6  2  0
  4 10  1  0
  5  6  1  0
  5 11  1  0
  7 12  2  0
  8 13  2  0
 10 14  2  0
 11 15  2  0
 12 14  1  0
 13 15  1  0
M  CHG  1   1   1
M  END
>  <PUBCHEM_COMPOUND_CID>  (1) 
22000

>  <PUBCHEM_CONFORMER_RMSD>  (1) 
0.4

>  <PUBCHEM_CONFORMER_DIVERSEORDER>  (1) 
1

>  <PUBCHEM_MMFF94_PARTIAL_CHARGES>  (1) 
22
1 -0.21
10 -0.15
11 -0.15
12 -0.15
13 -0.15
14 -0.15
15 -0.15
16 0.15
17 0.15
18 0.15
2 0.36
22 0.15
23 0.15
24 0.15
25 0.15
26 0.15
27 0.15
3 0.36
6 -0.15
7 -0.15
8 -0.15
9 0.49

>  <PUBCHEM_EFFECTIVE_ROTOR_COUNT>  (1) 
0

>  <PUBCHEM_PHARMACOPHORE_FEATURES>  (1) 
3
6 1 2 3 4 5 6 rings
6 2 4 7 10 12 14 rings
6 3 5 8 11 13 15 rings

>  <PUBCHEM_HEAVY_ATOM_COUNT>  (1) 
15

>  <PUBCHEM_ATOM_DEF_STEREO_COUNT>  (1) 
0

>  <PUBCHEM_ATOM_UDEF_STEREO_COUNT>  (1) 
0

>  <PUBCHEM_BOND_DEF_STEREO_COUNT>  (1) 
0

>  <PUBCHEM_BOND_UDEF_STEREO_COUNT>  (1) 
0

>  <PUBCHEM_ISOTOPIC_ATOM_COUNT>  (1) 
0

>  <PUBCHEM_COMPONENT_COUNT>  (1) 
1

>  <PUBCHEM_CACTVS_TAUTO_COUNT>  (1) 
1

>  <PUBCHEM_CONFORMER_ID>  (1) 
000055F000000001

>  <PUBCHEM_MMFF94_ENERGY>  (1) 
64.7809

>  <PUBCHEM_FEATURE_SELFOVERLAP>  (1) 
15.282

>  <PUBCHEM_SHAPE_FINGERPRINT>  (1) 
10062212 137 18338786841078328011
10411042 1 15816782797409148487
10608611 8 18410570686617042016
10967382 1 18410575063198817926
11132069 177 18411975858240031096
11471102 20 18410851040633292093
11806522 49 18339919432923896095
12032990 46 18410862061492960707
13140716 1 18410856516695450297
13221675 6 18410573989446444422
13380535 76 18410573985151769443
13897977 150 18410290281224006901
14144814 61 18410573985193753248
14325111 11 18410855464439239168
14614273 12 18188484671277094733
15196674 1 18410573985151503109
15219456 202 18411700971711438933
15309172 13 18411708689968201587
15442244 35 18194964041606886154
15536298 74 18343301461876343692
15775835 57 18410578383198092164
16945 1 18410575084663104903
18186145 218 18341054034023010724
193761 8 17689997834334728448
200 152 18131340926289178061
20510252 161 18272653454229609593
20645476 183 17896619451264902118
20645477 70 18340200783293814311
21267235 1 18410583885051406214
21501502 16 18410855464423168069
2334 1 18410574015221535937
23402539 116 18343010112600988822
23402655 69 18269541772774122453
23463225 33 18335701620061549188
23559900 14 18344146986887770172
2748010 2 18410013238526841301
335352 9 18050567339619967932
43471831 8 18335135354214547282
474 4 16879639408691499516
5104073 3 18410856563940084585
528886 8 18411132528468433441
53812653 166 18342453755327642136
54173680 148 18048599510191218675
69090 78 18343015622885942735
7364860 26 18197216936389740726
8809292 202 18260554445673598923
9709674 26 18412268367151658278

>  <PUBCHEM_SHAPE_MULTIPOLES>  (1) 
303.71
6.15
2.13
0.61
0
0.63
0
-0.87
0
0
0
0
-0.01
0

>  <PUBCHEM_SHAPE_SELFOVERLAP>  (1) 
685.581

>  <PUBCHEM_SHAPE_VOLUME>  (1) 
160.1

>  <PUBCHEM_COORDINATE_TYPE>  (1) 
2
5
10

$$$$
