22003
     RDKit          3D

 17 19  0  0  0  0  0  0  0  0999 V2000
    5.1830    0.8342   -0.3745 Cl  0  0  0  0  0  0  0  0  0  0  0  0
    0.1385    2.4631    0.1984 O   0  0  0  0  0  0  0  0  0  0  0  0
   -0.1966   -1.5603    0.2525 N   0  0  0  0  0  0  0  0  0  0  0  0
   -4.3702    0.0015   -0.5444 C   0  0  0  0  0  0  0  0  0  0  0  0
   -3.6014   -1.3161   -0.6327 C   0  0  0  0  0  0  0  0  0  0  0  0
   -3.5117    1.2613   -0.6465 C   0  0  0  0  0  0  0  0  0  0  0  0
   -2.6303   -1.5471    0.5268 C   0  0  0  0  0  0  0  0  0  0  0  0
   -2.5244    1.4351    0.5087 C   0  0  0  0  0  0  0  0  0  0  0  0
   -1.3302   -0.7862    0.3829 C   0  0  0  0  0  0  0  0  0  0  0  0
   -1.3024    0.5644    0.3780 C   0  0  0  0  0  0  0  0  0  0  0  0
    0.0305    1.2426    0.2193 C   0  0  0  0  0  0  0  0  0  0  0  0
    1.2344    0.3857    0.0831 C   0  0  0  0  0  0  0  0  0  0  0  0
    1.0775   -1.0065    0.1034 C   0  0  0  0  0  0  0  0  0  0  0  0
    2.5007    0.9599   -0.0646 C   0  0  0  0  0  0  0  0  0  0  0  0
    2.2088   -1.8195   -0.0252 C   0  0  0  0  0  0  0  0  0  0  0  0
    3.6194    0.1372   -0.1924 C   0  0  0  0  0  0  0  0  0  0  0  0
    3.4743   -1.2493   -0.1728 C   0  0  0  0  0  0  0  0  0  0  0  0
  1 16  1  0
  2 11  2  0
  3  9  1  0
  3 13  1  0
  4  5  1  0
  4  6  1  0
  5  7  1  0
  6  8  1  0
  7  9  1  0
  8 10  1  0
  9 10  2  0
 10 11  1  0
 11 12  1  0
 12 13  2  0
 12 14  1  0
 13 15  1  0
 14 16  2  0
 15 17  2  0
 16 17  1  0
M  END
>  <PUBCHEM_COMPOUND_CID>  (1) 
22003

>  <PUBCHEM_CONFORMER_RMSD>  (1) 
0.6

>  <PUBCHEM_CONFORMER_DIVERSEORDER>  (1) 
2
1

>  <PUBCHEM_MMFF94_PARTIAL_CHARGES>  (1) 
18
1 -0.18
10 -0.12
11 0.47
12 0.09
13 0.1
14 -0.15
15 -0.15
16 0.18
17 -0.15
2 -0.57
28 0.4
29 0.15
3 -0.6
30 0.15
31 0.15
7 0.14
8 0.14
9 -0.04

>  <PUBCHEM_EFFECTIVE_ROTOR_COUNT>  (1) 
1

>  <PUBCHEM_PHARMACOPHORE_FEATURES>  (1) 
6
1 2 acceptor
1 3 cation
1 3 donor
6 12 13 14 15 16 17 rings
6 3 9 10 11 12 13 rings
7 4 5 6 7 8 9 10 rings

>  <PUBCHEM_HEAVY_ATOM_COUNT>  (1) 
17

>  <PUBCHEM_ATOM_DEF_STEREO_COUNT>  (1) 
0

>  <PUBCHEM_ATOM_UDEF_STEREO_COUNT>  (1) 
0

>  <PUBCHEM_BOND_DEF_STEREO_COUNT>  (1) 
0

>  <PUBCHEM_BOND_UDEF_STEREO_COUNT>  (1) 
0

>  <PUBCHEM_ISOTOPIC_ATOM_COUNT>  (1) 
0

>  <PUBCHEM_COMPONENT_COUNT>  (1) 
1

>  <PUBCHEM_CACTVS_TAUTO_COUNT>  (1) 
9

>  <PUBCHEM_CONFORMER_ID>  (1) 
000055F300000002

>  <PUBCHEM_MMFF94_ENERGY>  (1) 
41.3429

>  <PUBCHEM_FEATURE_SELFOVERLAP>  (1) 
30.477

>  <PUBCHEM_SHAPE_FINGERPRINT>  (1) 
10062212 137 18338789035970179043
10498660 4 18409735045411754908
10608611 8 18409165523646661144
10967382 1 18338518538665918498
11132069 177 18411413986344454680
11401426 45 18411414033699838554
11471102 20 18409728448278548206
11806522 49 18340766039164456471
13140716 1 18265904557326751098
14289901 80 15195567887804966514
14576447 43 18272358823957929855
14790565 3 17836652920605969265
14911166 2 18410007749954334333
15196674 1 18410575054603602086
15375358 24 18335702758438944314
15442244 35 18122061996816586786
15536298 74 18342458110682884394
16945 1 18266464397802763155
18186145 218 17822290145802583335
18769570 83 16081355337272611484
200 152 18060698403251973911
20645477 70 18342176618384354326
20871999 31 18408598146120047541
21029758 11 18343582979365241473
21267235 1 18411709776394772451
21501502 16 18340208466779219138
221490 88 18265617774039344587
2334 1 18410578396114746707
23402539 116 18342170094412998926
23402655 69 18340201899742614093
23463225 33 18410013204299062586
23557571 272 18130517378794112734
23559900 14 18268706113671859090
238 59 15513872931092895509
2748010 2 18411144640329144002
2871803 45 18410293601550263854
296302 2 18113337513783715158
3312278 4 18410859858195804608
335352 9 18050286959870480191
34934 24 18410007715225324346
4028521 119 18187638068956610853
5104073 3 18410576158874525730
57096353 35 18411141354911109086
58051976 378 18410859850154775628
7364860 26 18198901607304848105
8809292 202 18261677073084445779
9709674 26 18411989031100296486

>  <PUBCHEM_SHAPE_MULTIPOLES>  (1) 
340.87
8.43
2.07
0.75
2.9
0.11
-0.03
0.37
-1.99
-0.27
0.11
-0.29
0
-0.04

>  <PUBCHEM_SHAPE_SELFOVERLAP>  (1) 
731.16

>  <PUBCHEM_SHAPE_VOLUME>  (1) 
187.3

>  <PUBCHEM_COORDINATE_TYPE>  (1) 
2
5
10

$$$$
