2202
     RDKit          3D

 17 19  0  0  0  0  0  0  0  0999 V2000
    0.0000   -2.1825    0.0009 O   0  0  0  0  0  0  0  0  0  0  0  0
   -2.5534   -2.2811   -0.0004 O   0  0  0  0  0  0  0  0  0  0  0  0
    2.5532   -2.2810   -0.0001 O   0  0  0  0  0  0  0  0  0  0  0  0
    0.0000    1.9876    0.0020 C   0  0  0  0  0  0  0  0  0  0  0  0
   -1.2726    1.1862    0.0007 C   0  0  0  0  0  0  0  0  0  0  0  0
    1.2727    1.1861    0.0002 C   0  0  0  0  0  0  0  0  0  0  0  0
   -1.2773   -0.2127    0.0004 C   0  0  0  0  0  0  0  0  0  0  0  0
    1.2772   -0.2127    0.0005 C   0  0  0  0  0  0  0  0  0  0  0  0
    0.0000   -0.9580    0.0009 C   0  0  0  0  0  0  0  0  0  0  0  0
   -2.5004    1.8667    0.0003 C   0  0  0  0  0  0  0  0  0  0  0  0
    2.5004    1.8666   -0.0007 C   0  0  0  0  0  0  0  0  0  0  0  0
   -2.4874   -0.9189   -0.0004 C   0  0  0  0  0  0  0  0  0  0  0  0
    2.4874   -0.9189    0.0002 C   0  0  0  0  0  0  0  0  0  0  0  0
   -3.7056    1.1642   -0.0010 C   0  0  0  0  0  0  0  0  0  0  0  0
    3.7056    1.1641   -0.0014 C   0  0  0  0  0  0  0  0  0  0  0  0
   -3.6983   -0.2278   -0.0015 C   0  0  0  0  0  0  0  0  0  0  0  0
    3.6984   -0.2278   -0.0008 C   0  0  0  0  0  0  0  0  0  0  0  0
  1  9  2  0
  2 12  1  0
  3 13  1  0
  4  5  1  0
  4  6  1  0
  5  7  2  0
  5 10  1  0
  6  8  2  0
  6 11  1  0
  7  9  1  0
  7 12  1  0
  8  9  1  0
  8 13  1  0
 10 14  2  0
 11 15  2  0
 12 16  2  0
 13 17  2  0
 14 16  1  0
 15 17  1  0
M  END
>  <PUBCHEM_COMPOUND_CID>  (1) 
2202

>  <PUBCHEM_CONFORMER_RMSD>  (1) 
0.4

>  <PUBCHEM_CONFORMER_DIVERSEORDER>  (1) 
1

>  <PUBCHEM_MMFF94_PARTIAL_CHARGES>  (1) 
25
1 -0.57
10 -0.15
11 -0.15
12 0.08
13 0.08
14 -0.15
15 -0.15
16 -0.15
17 -0.15
2 -0.53
20 0.15
21 0.15
22 0.15
23 0.15
24 0.15
25 0.15
26 0.45
27 0.45
3 -0.53
4 0.29
5 -0.14
6 -0.14
7 0.09
8 0.09
9 0.4

>  <PUBCHEM_EFFECTIVE_ROTOR_COUNT>  (1) 
0.2

>  <PUBCHEM_PHARMACOPHORE_FEATURES>  (1) 
6
1 1 acceptor
1 2 donor
1 3 donor
6 4 5 6 7 8 9 rings
6 5 7 10 12 14 16 rings
6 6 8 11 13 15 17 rings

>  <PUBCHEM_HEAVY_ATOM_COUNT>  (1) 
17

>  <PUBCHEM_ATOM_DEF_STEREO_COUNT>  (1) 
0

>  <PUBCHEM_ATOM_UDEF_STEREO_COUNT>  (1) 
0

>  <PUBCHEM_BOND_DEF_STEREO_COUNT>  (1) 
0

>  <PUBCHEM_BOND_UDEF_STEREO_COUNT>  (1) 
0

>  <PUBCHEM_ISOTOPIC_ATOM_COUNT>  (1) 
0

>  <PUBCHEM_COMPONENT_COUNT>  (1) 
1

>  <PUBCHEM_CACTVS_TAUTO_COUNT>  (1) 
48

>  <PUBCHEM_CONFORMER_ID>  (1) 
0000089A00000001

>  <PUBCHEM_MMFF94_ENERGY>  (1) 
52.5338

>  <PUBCHEM_FEATURE_SELFOVERLAP>  (1) 
30.487

>  <PUBCHEM_SHAPE_FINGERPRINT>  (1) 
10062212 137 18410282631755481434
10608611 8 18410571786128591840
10616163 171 18339645641105731166
10967382 1 18410575058898575876
10980938 120 18410012139342241576
11132069 177 18410851075051234568
11471102 20 18410569570009687924
13140716 1 18410573942207072849
13221675 6 18410573985151464132
13380535 76 18410573989446548359
13897977 150 18410853252573247333
14144814 61 18410573976572209113
14325111 11 18410573989462580480
15196674 1 18410856559639932485
15219456 202 18410293592638517285
15442244 35 18267021648524389226
15536298 74 18343021073484206396
15775835 57 18410579487004784677
16945 1 18410855460128317701
17492 89 18410292514592105523
17804303 29 18339647732955024020
18186145 218 18342745070011137212
200 152 18131340934779002821
20510252 161 18271529817786304217
20645477 70 18341047419889406679
21267235 1 18410583880756393446
21501502 16 18410572889934803652
221490 88 18409457998451478234
2334 1 18410855494493207393
23366157 5 18040999519075402850
23402539 116 18342166804452050564
23463225 33 18408885109648172380
23559900 14 18342737382757882736
238 59 16020531200481189109
2748010 2 18410576192769994141
3312278 4 18412547638651630657
335352 9 18050285868996363773
34934 24 18410847767841767144
474 4 17169277138114738892
5104073 3 18410855460133489504
528886 8 18411695482722226737
53812653 166 18342735243279035880
69090 78 18412259524087867077
7364860 26 18341895147907858270
7832392 63 18411981342950314644
8809292 202 18334017211071031443
9709674 26 18411985766729953270

>  <PUBCHEM_SHAPE_MULTIPOLES>  (1) 
332.24
6.52
2.45
0.6
0
0.52
0
-0.55
0
0
0
0
-0.04
0

>  <PUBCHEM_SHAPE_SELFOVERLAP>  (1) 
750.47

>  <PUBCHEM_SHAPE_VOLUME>  (1) 
172

>  <PUBCHEM_COORDINATE_TYPE>  (1) 
2
5
10

$$$$
