22022
     RDKit          3D

 20 23  0  0  0  0  0  0  0  0999 V2000
   -0.7346    1.6516    0.0841 N   0  0  0  0  0  0  0  0  0  0  0  0
    0.5060   -2.3008    0.2623 N   0  0  0  0  0  0  0  0  0  0  0  0
   -0.3147    0.3403    0.1479 C   0  0  0  0  0  0  0  0  0  0  0  0
   -1.1611    2.4338    1.2419 C   0  0  0  0  0  0  0  0  0  0  0  0
   -0.8067    2.4311   -1.1493 C   0  0  0  0  0  0  0  0  0  0  0  0
    1.0397    0.0548    0.3402 C   0  0  0  0  0  0  0  0  0  0  0  0
   -1.2251    3.8643    0.7116 C   0  0  0  0  0  0  0  0  0  0  0  0
   -1.5969    3.6747   -0.7488 C   0  0  0  0  0  0  0  0  0  0  0  0
    2.0349    1.1734    0.4823 C   0  0  0  0  0  0  0  0  0  0  0  0
    1.4034   -1.2878    0.3944 C   0  0  0  0  0  0  0  0  0  0  0  0
    3.0763    1.1935   -0.6367 C   0  0  0  0  0  0  0  0  0  0  0  0
    2.8324   -1.7117    0.6059 C   0  0  0  0  0  0  0  0  0  0  0  0
    4.1991    0.1723   -0.4586 C   0  0  0  0  0  0  0  0  0  0  0  0
    3.7575   -1.2888   -0.5340 C   0  0  0  0  0  0  0  0  0  0  0  0
   -1.2555   -0.6877    0.0104 C   0  0  0  0  0  0  0  0  0  0  0  0
   -0.7941   -2.0134    0.0742 C   0  0  0  0  0  0  0  0  0  0  0  0
   -2.6213   -0.4196   -0.1863 C   0  0  0  0  0  0  0  0  0  0  0  0
   -1.7246   -3.0401   -0.0627 C   0  0  0  0  0  0  0  0  0  0  0  0
   -3.5320   -1.4636   -0.3204 C   0  0  0  0  0  0  0  0  0  0  0  0
   -3.0824   -2.7763   -0.2584 C   0  0  0  0  0  0  0  0  0  0  0  0
  1  3  1  0
  1  4  1  0
  1  5  1  0
  2 10  2  0
  2 16  1  0
  3  6  2  0
  3 15  1  0
  4  7  1  0
  5  8  1  0
  6  9  1  0
  6 10  1  0
  7  8  1  0
  9 11  1  0
 10 12  1  0
 11 13  1  0
 12 14  1  0
 13 14  1  0
 15 16  2  0
 15 17  1  0
 16 18  1  0
 17 19  2  0
 18 20  2  0
 19 20  1  0
M  END
>  <PUBCHEM_COMPOUND_CID>  (1) 
22022

>  <PUBCHEM_CONFORMER_RMSD>  (1) 
0.6

>  <PUBCHEM_CONFORMER_DIVERSEORDER>  (1) 
1
2

>  <PUBCHEM_MMFF94_PARTIAL_CHARGES>  (1) 
18
1 -0.84
10 0.17
12 0.14
16 0.31
17 -0.15
18 -0.15
19 -0.15
2 -0.62
20 -0.15
3 0.1
39 0.15
4 0.37
40 0.15
41 0.15
42 0.15
5 0.37
6 -0.14
9 0.14

>  <PUBCHEM_EFFECTIVE_ROTOR_COUNT>  (1) 
3

>  <PUBCHEM_PHARMACOPHORE_FEATURES>  (1) 
6
1 1 cation
1 2 acceptor
5 1 4 5 7 8 rings
6 15 16 17 18 19 20 rings
6 2 3 6 10 15 16 rings
7 6 9 10 11 12 13 14 rings

>  <PUBCHEM_HEAVY_ATOM_COUNT>  (1) 
20

>  <PUBCHEM_ATOM_DEF_STEREO_COUNT>  (1) 
0

>  <PUBCHEM_ATOM_UDEF_STEREO_COUNT>  (1) 
0

>  <PUBCHEM_BOND_DEF_STEREO_COUNT>  (1) 
0

>  <PUBCHEM_BOND_UDEF_STEREO_COUNT>  (1) 
0

>  <PUBCHEM_ISOTOPIC_ATOM_COUNT>  (1) 
0

>  <PUBCHEM_COMPONENT_COUNT>  (1) 
1

>  <PUBCHEM_CACTVS_TAUTO_COUNT>  (1) 
1

>  <PUBCHEM_CONFORMER_ID>  (1) 
0000560600000001

>  <PUBCHEM_MMFF94_ENERGY>  (1) 
73.835

>  <PUBCHEM_FEATURE_SELFOVERLAP>  (1) 
30.488

>  <PUBCHEM_SHAPE_FINGERPRINT>  (1) 
10411042 1 18338796844052509226
104564 63 18411984632889845715
10871710 139 18188794806539183132
10967382 1 17977944910169753794
1100329 8 17545881525631721778
116883 192 18341618096563041326
12173636 292 18195806263176961132
12553582 1 18338513161488371611
12788726 201 18407758140584662826
12954195 1 18269569260306009638
13027679 85 18338797952432665583
13132413 78 18267307719269093981
13140716 1 18409722993285558491
13149001 5 17122289186062239398
138480 1 15888840394660920949
14178342 30 18192976150781173138
14790565 3 18267874882770880369
14955137 171 18121808237564589307
15309172 13 17690284806970240208
16752209 62 18266725896902469187
16945 1 18338508638771887818
17134986 127 17616538358897913206
17138139 8 17622961817993026885
18785283 64 17324930747093307067
19591789 44 17907305351261273419
20510252 161 18413386518968744792
20739085 24 18194992792303024043
21029758 11 18268425922510399319
21285901 2 18131078112407701615
21501502 16 18263364694562613002
21524375 3 17828209787541575872
22149856 69 16895681459746627547
2255824 54 17472977779954283839
22907989 373 18410011000996859636
2334 1 18266171927699653907
23402539 116 18340202020254932014
23419403 2 16890833578990504356
23557571 272 18340774822857977766
23558518 356 18262241006490425754
23559900 14 17619620723961984379
238 59 16598690715138926821
2748010 2 18195795478339974907
283562 15 18409448081271817122
3071541 12 17618224352699968067
3071541 158 17903915904868416623
3091708 16 9205618789589631009
350125 39 18194125118361237224
352729 6 17979911605822543515
458136 41 17260479071774280153
532947 4 17548702236818644868
6443956 14 18051130590453299141
7164475 11 18410008806622089534
7364860 26 17547854517516110865
81228 2 18336269023922690480
84936 182 17046837894061788889

>  <PUBCHEM_SHAPE_MULTIPOLES>  (1) 
401.63
5.59
4.67
0.92
3.98
3.52
0.01
-3.18
-1.09
-3.73
0.07
0.02
0.52
-0.34

>  <PUBCHEM_SHAPE_SELFOVERLAP>  (1) 
877.843

>  <PUBCHEM_SHAPE_VOLUME>  (1) 
216.6

>  <PUBCHEM_COORDINATE_TYPE>  (1) 
2
5
10

$$$$
