22033
     RDKit          3D

 12 13  0  0  0  0  0  0  0  0999 V2000
   -3.8436   -1.0289   -0.0002 Cl  0  0  0  0  0  0  0  0  0  0  0  0
    1.4633    1.4405   -0.0001 O   0  0  0  0  0  0  0  0  0  0  0  0
    3.4340    0.2408   -0.0006 O   0  0  0  0  0  0  0  0  0  0  0  0
    1.3664   -0.8527    0.0002 N   0  0  0  0  0  0  0  0  0  0  0  0
    0.0679   -0.3914    0.0000 C   0  0  0  0  0  0  0  0  0  0  0  0
    0.1530    0.9859    0.0000 C   0  0  0  0  0  0  0  0  0  0  0  0
   -1.1411   -1.0552   -0.0003 C   0  0  0  0  0  0  0  0  0  0  0  0
    2.2089    0.2472    0.0000 C   0  0  0  0  0  0  0  0  0  0  0  0
   -0.9735    1.7812    0.0005 C   0  0  0  0  0  0  0  0  0  0  0  0
    1.7755   -2.2345    0.0006 C   0  0  0  0  0  0  0  0  0  0  0  0
   -2.2968   -0.2696   -0.0002 C   0  0  0  0  0  0  0  0  0  0  0  0
   -2.2139    1.1369    0.0002 C   0  0  0  0  0  0  0  0  0  0  0  0
  1 11  1  0
  2  6  1  0
  2  8  1  0
  3  8  2  0
  4  5  1  0
  4  8  1  0
  4 10  1  0
  5  6  2  0
  5  7  1  0
  6  9  1  0
  7 11  2  0
  9 12  2  0
 11 12  1  0
M  END
>  <PUBCHEM_COMPOUND_CID>  (1) 
22033

>  <PUBCHEM_CONFORMER_RMSD>  (1) 
0.4

>  <PUBCHEM_CONFORMER_DIVERSEORDER>  (1) 
1

>  <PUBCHEM_MMFF94_PARTIAL_CHARGES>  (1) 
15
1 -0.18
10 0.3
11 0.18
12 -0.15
13 0.15
14 0.15
18 0.15
2 -0.23
3 -0.57
4 -0.48
5 0.12
6 0.08
7 -0.15
8 0.78
9 -0.15

>  <PUBCHEM_EFFECTIVE_ROTOR_COUNT>  (1) 
0

>  <PUBCHEM_PHARMACOPHORE_FEATURES>  (1) 
3
1 3 acceptor
5 2 4 5 6 8 rings
6 5 6 7 9 11 12 rings

>  <PUBCHEM_HEAVY_ATOM_COUNT>  (1) 
12

>  <PUBCHEM_ATOM_DEF_STEREO_COUNT>  (1) 
0

>  <PUBCHEM_ATOM_UDEF_STEREO_COUNT>  (1) 
0

>  <PUBCHEM_BOND_DEF_STEREO_COUNT>  (1) 
0

>  <PUBCHEM_BOND_UDEF_STEREO_COUNT>  (1) 
0

>  <PUBCHEM_ISOTOPIC_ATOM_COUNT>  (1) 
0

>  <PUBCHEM_COMPONENT_COUNT>  (1) 
1

>  <PUBCHEM_CACTVS_TAUTO_COUNT>  (1) 
1

>  <PUBCHEM_CONFORMER_ID>  (1) 
0000561100000001

>  <PUBCHEM_MMFF94_ENERGY>  (1) 
32.1509

>  <PUBCHEM_FEATURE_SELFOVERLAP>  (1) 
15.336

>  <PUBCHEM_SHAPE_FINGERPRINT>  (1) 
11471102 20 18338230583021252221
12032990 46 18410580621113508183
12897270 3 18410291427879976709
12932764 1 17418080014672156931
13380535 21 18267597809554652260
13380535 76 18335701675864884946
14325111 11 18410855421500024769
16945 1 18410575110506872133
193761 8 18122344579709840549
19973954 147 18339081462854739221
20201158 50 18334857251098094859
20588541 1 18335987570447098787
20645477 70 18339636755525563535
20871998 184 18202282481301106743
20871998 22 18341623585446836423
21501502 16 18338799987809404867
21501925 9 18336532829409278506
2334 1 17690280834088145703
23402539 116 18340194280359913207
23402655 69 18267849620163187805
23463225 33 18408603647434862414
23552423 10 18189340082301013838
23559900 14 17477201627568351046
2748010 2 18266739073782823807
5084963 1 18273216425647031753
528886 8 18339356486748405914
7364860 26 18271523070867402918
8809292 202 18042690674800777483

>  <PUBCHEM_SHAPE_MULTIPOLES>  (1) 
232.1
4.82
1.93
0.6
1.18
0.24
0
1.22
0
-0.2
0
0.07
0.01
0

>  <PUBCHEM_SHAPE_SELFOVERLAP>  (1) 
497.829

>  <PUBCHEM_SHAPE_VOLUME>  (1) 
132.1

>  <PUBCHEM_COORDINATE_TYPE>  (1) 
2
5
10

$$$$
