2203
     RDKit          3D

 29 33  0  0  1  0  0  0  0  0999 V2000
    2.0492   -3.9069    0.9419 O   0  0  0  0  0  0  0  0  0  0  0  0
   -0.1814   -3.9199    1.4686 O   0  0  0  0  0  0  0  0  0  0  0  0
    2.7532    3.3528    1.2866 O   0  0  0  0  0  0  0  0  0  0  0  0
    4.2955    3.0564   -0.5400 O   0  0  0  0  0  0  0  0  0  0  0  0
   -3.8834    0.3192    2.2195 O   0  0  0  0  0  0  0  0  0  0  0  0
   -3.0229    0.6266   -2.4818 O   0  0  0  0  0  0  0  0  0  0  0  0
   -4.7431    0.9545   -0.3359 O   0  0  0  0  0  0  0  0  0  0  0  0
    0.6649   -2.3765   -0.2130 C   0  0  0  0  0  0  0  0  0  0  0  0
    1.9574   -2.5959   -0.9793 C   0  0  0  0  0  0  0  0  0  0  0  0
    0.5103   -1.0065    0.4974 C   0  0  0  0  0  0  0  0  0  0  0  0
    2.4570   -1.3763   -1.7343 C   0  0  0  0  0  0  0  0  0  0  0  0
    1.5682    0.0414    0.1717 C   0  0  0  0  0  0  0  0  0  0  0  0
    2.8938   -3.1320    0.0840 C   0  0  0  0  0  0  0  0  0  0  0  0
    2.4930   -0.1367   -0.8852 C   0  0  0  0  0  0  0  0  0  0  0  0
    0.7544   -3.4832    0.8155 C   0  0  0  0  0  0  0  0  0  0  0  0
   -0.9050   -0.4775    0.2730 C   0  0  0  0  0  0  0  0  0  0  0  0
    1.6248    1.2148    0.9511 C   0  0  0  0  0  0  0  0  0  0  0  0
    3.4345    0.8647   -1.1806 C   0  0  0  0  0  0  0  0  0  0  0  0
    2.5710    2.1689    0.6411 C   0  0  0  0  0  0  0  0  0  0  0  0
    3.4498    1.9999   -0.3988 C   0  0  0  0  0  0  0  0  0  0  0  0
   -1.3234   -0.1632   -1.0135 C   0  0  0  0  0  0  0  0  0  0  0  0
   -1.7574   -0.3178    1.3580 C   0  0  0  0  0  0  0  0  0  0  0  0
   -3.0501    0.1645    1.1530 C   0  0  0  0  0  0  0  0  0  0  0  0
   -2.6161    0.3193   -1.2186 C   0  0  0  0  0  0  0  0  0  0  0  0
   -3.4793    0.4831   -0.1353 C   0  0  0  0  0  0  0  0  0  0  0  0
    3.8476    3.9114    0.5315 C   0  0  0  0  0  0  0  0  0  0  0  0
   -3.8613    1.5823    2.8815 C   0  0  0  0  0  0  0  0  0  0  0  0
   -3.6359   -0.4164   -3.2371 C   0  0  0  0  0  0  0  0  0  0  0  0
   -4.8653    2.2488   -0.9210 C   0  0  0  0  0  0  0  0  0  0  0  0
  1 13  1  0
  1 15  1  0
  2 15  2  0
  3 19  1  0
  3 26  1  0
  4 20  1  0
  4 26  1  0
  5 23  1  0
  5 27  1  0
  6 24  1  0
  6 28  1  0
  7 25  1  0
  7 29  1  0
  8  9  1  0
  8 10  1  0
  8 15  1  0
  9 11  1  0
  9 13  1  0
 10 12  1  0
 10 16  1  0
 11 14  1  0
 12 14  2  0
 12 17  1  0
 14 18  1  0
 16 21  2  0
 16 22  1  0
 17 19  2  0
 18 20  2  0
 19 20  1  0
 21 24  1  0
 22 23  2  0
 23 25  1  0
 24 25  2  0
M  END
>  <PUBCHEM_COMPOUND_CID>  (1) 
2203

>  <PUBCHEM_CONFORMER_RMSD>  (1) 
0.8

>  <PUBCHEM_CONFORMER_DIVERSEORDER>  (1) 
1
26
41
17
25
23
19
18
8
22
35
12
36
16
40
38
21
9
34
29
15
39
24
32
30
7
13
14
37
33
31
5
3
20
27
2
28
4
10
6
11

>  <PUBCHEM_MMFF94_PARTIAL_CHARGES>  (1) 
32
1 -0.43
10 0.29
11 0.14
12 -0.14
13 0.28
14 -0.14
15 0.66
16 -0.14
17 -0.15
18 -0.15
19 0.08
2 -0.57
20 0.08
21 -0.15
22 -0.15
23 0.08
24 0.08
25 0.08
26 0.56
27 0.28
28 0.28
29 0.28
3 -0.36
37 0.15
38 0.15
39 0.15
4 -0.36
40 0.15
5 -0.36
6 -0.36
7 -0.36
8 0.06

>  <PUBCHEM_EFFECTIVE_ROTOR_COUNT>  (1) 
5.4

>  <PUBCHEM_PHARMACOPHORE_FEATURES>  (1) 
11
1 2 acceptor
1 3 acceptor
1 4 acceptor
1 5 acceptor
1 6 acceptor
1 7 acceptor
5 1 8 9 13 15 rings
5 3 4 19 20 26 rings
6 12 14 17 18 19 20 rings
6 16 21 22 23 24 25 rings
6 8 9 10 11 12 14 rings

>  <PUBCHEM_HEAVY_ATOM_COUNT>  (1) 
29

>  <PUBCHEM_ATOM_DEF_STEREO_COUNT>  (1) 
0

>  <PUBCHEM_ATOM_UDEF_STEREO_COUNT>  (1) 
3

>  <PUBCHEM_BOND_DEF_STEREO_COUNT>  (1) 
0

>  <PUBCHEM_BOND_UDEF_STEREO_COUNT>  (1) 
0

>  <PUBCHEM_ISOTOPIC_ATOM_COUNT>  (1) 
0

>  <PUBCHEM_COMPONENT_COUNT>  (1) 
1

>  <PUBCHEM_CACTVS_TAUTO_COUNT>  (1) 
2

>  <PUBCHEM_CONFORMER_ID>  (1) 
0000089B00000001

>  <PUBCHEM_MMFF94_ENERGY>  (1) 
111.9239

>  <PUBCHEM_FEATURE_SELFOVERLAP>  (1) 
56.219

>  <PUBCHEM_SHAPE_FINGERPRINT>  (1) 
10165383 225 17900298365642252446
10258939 38 12315459757358676381
105312 117 18192714677420044356
10764073 3 15943388507082651016
1100329 8 18410584985533991386
11049842 53 15983433837131058877
11115154 58 17181901399722048917
11578080 2 18041576736773278309
11582403 64 16593036219168954455
12160290 23 17689720083506373942
12549972 3 17532371950872896097
12553582 1 17908436757158583658
12730499 353 18409175424031347857
13134695 92 18047741607943862310
13140716 1 18267315394665971298
133893 2 18269257015545455458
13583140 156 18339653231045873757
14955137 171 18263642871205661034
15230672 131 18189342428835545148
15842332 3 17846774083936353343
16752209 62 16056593193728884197
17921350 177 17698742306293459365
17980427 26 18341344317845633610
1813 80 17698729103737941398
20600515 1 15800700368724296082
21033648 29 18262516017462754300
21133410 90 16625147245979959265
22122407 14 17981913860201570529
22907989 373 17263004057436154396
23557571 272 16805329851451163669
23559900 14 17313960588897046855
238 59 18343021098969290622
283562 15 17907855463494871003
4409770 3 17548686835234265274
469060 322 17752482333524337391
474 4 18272372005238811328
495365 180 18187078404437061743
5252454 2 18189920732062647086
5895379 119 16700341802019175016
633830 44 18129959952000095172
6442390 28 18192450768205316610
70251023 43 18049138013744458815
7399639 24 18187656850859314579
7471813 234 18054497011563496390
81228 2 17469048112659865002
9981440 41 17970881518888074717

>  <PUBCHEM_SHAPE_MULTIPOLES>  (1) 
555.72
8.62
4.65
2.29
6.7
1.18
-0.51
-7.37
-1.37
-6.88
1.85
3.32
-0.02
-0.17

>  <PUBCHEM_SHAPE_SELFOVERLAP>  (1) 
1236.385

>  <PUBCHEM_SHAPE_VOLUME>  (1) 
297.2

>  <PUBCHEM_COORDINATE_TYPE>  (1) 
2
5
10

$$$$
