22047
     RDKit          3D

 23 26  0  0  0  0  0  0  0  0999 V2000
    2.1284    0.5842   -1.9440 S   0  0  0  0  0  0  0  0  0  0  0  0
   -1.4992   -0.9986   -0.4054 N   0  0  0  0  0  0  0  0  0  0  0  0
   -4.3143   -1.3797   -0.2245 N   0  0  0  0  0  0  0  0  0  0  0  0
    0.7074   -1.5617   -0.1319 N   0  0  0  0  0  0  0  0  0  0  0  0
   -2.0292   -2.2693    0.0814 C   0  0  0  0  0  0  0  0  0  0  0  0
   -2.3909   -0.2452   -1.2826 C   0  0  0  0  0  0  0  0  0  0  0  0
   -3.4062   -2.0570    0.7125 C   0  0  0  0  0  0  0  0  0  0  0  0
   -3.7599   -0.0770   -0.6216 C   0  0  0  0  0  0  0  0  0  0  0  0
   -0.2118   -0.6346   -0.2068 C   0  0  0  0  0  0  0  0  0  0  0  0
   -5.6387   -1.2138    0.3727 C   0  0  0  0  0  0  0  0  0  0  0  0
    0.0409    0.8344   -0.0966 C   0  0  0  0  0  0  0  0  0  0  0  0
    1.0185    1.4801   -0.8692 C   0  0  0  0  0  0  0  0  0  0  0  0
   -0.7818    1.5806    0.7588 C   0  0  0  0  0  0  0  0  0  0  0  0
    2.0730   -1.3174    0.0960 C   0  0  0  0  0  0  0  0  0  0  0  0
   -0.6305    2.9639    0.8459 C   0  0  0  0  0  0  0  0  0  0  0  0
    2.8592   -0.4506   -0.6836 C   0  0  0  0  0  0  0  0  0  0  0  0
    1.1550    2.8718   -0.7783 C   0  0  0  0  0  0  0  0  0  0  0  0
    0.3338    3.6089    0.0761 C   0  0  0  0  0  0  0  0  0  0  0  0
    2.7013   -2.0717    1.0984 C   0  0  0  0  0  0  0  0  0  0  0  0
   -1.5047    3.7539    1.7605 C   0  0  0  0  0  0  0  0  0  0  0  0
    4.2377   -0.3452   -0.4491 C   0  0  0  0  0  0  0  0  0  0  0  0
    4.0719   -1.9585    1.3336 C   0  0  0  0  0  0  0  0  0  0  0  0
    4.8402   -1.0972    0.5579 C   0  0  0  0  0  0  0  0  0  0  0  0
  1 12  1  0
  1 16  1  0
  2  5  1  0
  2  6  1  0
  2  9  1  0
  3  7  1  0
  3  8  1  0
  3 10  1  0
  4  9  2  0
  4 14  1  0
  5  7  1  0
  6  8  1  0
  9 11  1  0
 11 12  2  0
 11 13  1  0
 12 17  1  0
 13 15  2  0
 14 16  2  0
 14 19  1  0
 15 18  1  0
 15 20  1  0
 16 21  1  0
 17 18  2  0
 19 22  2  0
 21 23  2  0
 22 23  1  0
M  END
>  <PUBCHEM_COMPOUND_CID>  (1) 
22047

>  <PUBCHEM_CONFORMER_RMSD>  (1) 
0.6

>  <PUBCHEM_CONFORMER_DIVERSEORDER>  (1) 
1
7
5
8
2
4
6
3

>  <PUBCHEM_MMFF94_PARTIAL_CHARGES>  (1) 
30
1 -0.2
10 0.27
11 0.09
12 0.1
13 -0.15
14 0.18
15 -0.14
16 0.1
17 -0.15
18 -0.15
19 -0.15
2 -0.79
20 0.14
21 -0.15
22 -0.15
23 -0.15
3 -0.81
35 0.15
36 0.15
37 0.15
38 0.15
4 -0.63
42 0.15
43 0.15
44 0.15
5 0.37
6 0.37
7 0.27
8 0.27
9 0.41

>  <PUBCHEM_EFFECTIVE_ROTOR_COUNT>  (1) 
2.4

>  <PUBCHEM_PHARMACOPHORE_FEATURES>  (1) 
6
1 3 cation
3 2 4 9 cation
6 11 12 13 15 17 18 rings
6 14 16 19 21 22 23 rings
6 2 3 5 6 7 8 rings
7 1 4 9 11 12 14 16 rings

>  <PUBCHEM_HEAVY_ATOM_COUNT>  (1) 
23

>  <PUBCHEM_ATOM_DEF_STEREO_COUNT>  (1) 
0

>  <PUBCHEM_ATOM_UDEF_STEREO_COUNT>  (1) 
0

>  <PUBCHEM_BOND_DEF_STEREO_COUNT>  (1) 
0

>  <PUBCHEM_BOND_UDEF_STEREO_COUNT>  (1) 
0

>  <PUBCHEM_ISOTOPIC_ATOM_COUNT>  (1) 
0

>  <PUBCHEM_COMPONENT_COUNT>  (1) 
1

>  <PUBCHEM_CACTVS_TAUTO_COUNT>  (1) 
1

>  <PUBCHEM_CONFORMER_ID>  (1) 
0000561F00000001

>  <PUBCHEM_MMFF94_ENERGY>  (1) 
82.6618

>  <PUBCHEM_FEATURE_SELFOVERLAP>  (1) 
30.468

>  <PUBCHEM_SHAPE_FINGERPRINT>  (1) 
10162869 55 18202563983266426491
10165383 225 17685506742211650965
104564 63 18271528576471819708
1100329 8 18265052616446775114
11265709 11 18410856559834968392
11578080 2 17969202526162658140
12293681 160 17905356231089991372
12553582 1 18340226131832131291
12633257 1 18269009712151848531
12788726 201 18341625792869927536
13004483 165 18337940212967201346
13009979 54 18189896422996248346
13134695 92 18199456826538422941
13140716 1 18412829118012739139
13294875 104 17768528648457460665
13533116 47 18050283975802736783
14178342 30 17976245856164111826
14464042 87 18410579461234773153
14466204 15 18338800001622637393
14787075 74 18047191027959801644
14866123 147 17256239350448105451
14955137 171 18270688665558246894
15042514 8 18194967335714985264
15230672 131 17183342258778764012
15238133 3 18338528469279042997
15420108 30 17128445729760305252
15475509 84 18264794167401064689
15927050 60 17618226547760591894
17980427 26 17624403578062991637
1813 80 18059861679045314135
18785283 64 17899134094355428701
19078846 21 18342468053616421289
20369508 70 18339359794274261079
20600515 1 17988928911072333666
21033648 29 17132109122426827643
21041028 32 18413671322761569293
21250096 35 18335415777061342234
21267235 1 18187649076926888622
21421861 104 18336264660093668392
21731228 192 17547851850499779776
22112679 90 18339941324145402412
23175994 123 18411138043628766023
23557571 272 18129667387686611574
23558518 356 17977110063006649258
23559900 14 17750228287537539263
25147074 1 18116167592895665436
266924 78 16592009322500835788
345986 75 18262504914734359179
34934 24 18056482987487982396
350125 39 18260547823503590789
392239 28 18339068398302612888
4058900 60 17615986829247694837
5104073 3 18194131926734007331
5895379 119 16843357594964226073
6438718 38 17844806980087772909
7164475 11 18265896856830307446
7364860 26 18194963178133797861
7471813 234 18272080647663477125
7495541 125 18188494700179062087
81228 2 18197220247793181928

>  <PUBCHEM_SHAPE_MULTIPOLES>  (1) 
462.24
8.28
4.02
1.37
2.99
4.36
0.06
-7.7
-1.03
1.09
-1.75
-0.47
0.51
-1.5

>  <PUBCHEM_SHAPE_SELFOVERLAP>  (1) 
992.022

>  <PUBCHEM_SHAPE_VOLUME>  (1) 
255.8

>  <PUBCHEM_COORDINATE_TYPE>  (1) 
2
5
10

$$$$
