22041
     RDKit          3D

  9  8  0  0  0  0  0  0  0  0999 V2000
   -0.0694    0.5108    0.0027 O   0  0  0  0  0  0  0  0  0  0  0  0
    0.9963   -0.4864    0.0012 O   0  0  0  0  0  0  0  0  0  0  0  0
   -1.3755   -1.3957    0.0038 O   0  0  0  0  0  0  0  0  0  0  0  0
    2.3544    1.3047   -0.0013 O   0  0  0  0  0  0  0  0  0  0  0  0
    3.1898   -0.7678   -0.0044 O   0  0  0  0  0  0  0  0  0  0  0  0
    2.2924    0.0743   -0.0010 N   0  0  0  0  0  0  0  0  0  0  0  0
   -2.3912    0.8127    0.0064 C   0  0  0  0  0  0  0  0  0  0  0  0
   -3.7456    0.1262   -0.0120 C   0  0  0  0  0  0  0  0  0  0  0  0
   -1.2512   -0.1786    0.0048 C   0  0  0  0  0  0  0  0  0  0  0  0
  1  2  1  0
  1  9  1  0
  2  6  1  0
  3  9  2  0
  4  6  1  0
  5  6  2  0
  7  8  1  0
  7  9  1  0
M  CHG  2   4  -1   6   1
M  END
>  <PUBCHEM_COMPOUND_CID>  (1) 
22041

>  <PUBCHEM_CONFORMER_RMSD>  (1) 
0.6

>  <PUBCHEM_CONFORMER_DIVERSEORDER>  (1) 
1
5
3
8
19
6
22
21
10
15
11
17
28
7
23
25
27
18
26
2
24
16
4
20
9
12
13
14

>  <PUBCHEM_MMFF94_PARTIAL_CHARGES>  (1) 
8
1 -0.15
2 0.01
3 -0.57
4 -0.52
5 -0.52
6 1.03
7 0.06
9 0.66

>  <PUBCHEM_EFFECTIVE_ROTOR_COUNT>  (1) 
4

>  <PUBCHEM_PHARMACOPHORE_FEATURES>  (1) 
4
1 3 acceptor
1 4 acceptor
1 5 acceptor
1 8 hydrophobe

>  <PUBCHEM_HEAVY_ATOM_COUNT>  (1) 
9

>  <PUBCHEM_ATOM_DEF_STEREO_COUNT>  (1) 
0

>  <PUBCHEM_ATOM_UDEF_STEREO_COUNT>  (1) 
0

>  <PUBCHEM_BOND_DEF_STEREO_COUNT>  (1) 
0

>  <PUBCHEM_BOND_UDEF_STEREO_COUNT>  (1) 
0

>  <PUBCHEM_ISOTOPIC_ATOM_COUNT>  (1) 
0

>  <PUBCHEM_COMPONENT_COUNT>  (1) 
1

>  <PUBCHEM_CACTVS_TAUTO_COUNT>  (1) 
1

>  <PUBCHEM_CONFORMER_ID>  (1) 
0000561900000001

>  <PUBCHEM_MMFF94_ENERGY>  (1) 
4.5661

>  <PUBCHEM_FEATURE_SELFOVERLAP>  (1) 
20.366

>  <PUBCHEM_SHAPE_FINGERPRINT>  (1) 
11062470 55 12247674968062488571
12932764 1 17313373539475588130
14325111 11 18410856555766906369
14390081 3 18413386557512842849
23552423 10 18188490293125449758
3248919 1 17203338813814283678
5460574 1 9223228550903907617

>  <PUBCHEM_SHAPE_MULTIPOLES>  (1) 
150.89
5.74
1.1
0.55
0.18
0.03
0
-0.33
0.02
0.17
0
-0.11
-0.01
0

>  <PUBCHEM_SHAPE_SELFOVERLAP>  (1) 
278.389

>  <PUBCHEM_SHAPE_VOLUME>  (1) 
95.6

>  <PUBCHEM_COORDINATE_TYPE>  (1) 
2
5
10

$$$$
