22054
     RDKit          3D

 12 13  0  0  0  0  0  0  0  0999 V2000
    1.0495    0.2515   -0.2429 N   0  0  0  0  0  0  0  0  0  0  0  0
    0.3013   -1.8077    0.1311 N   0  0  0  0  0  0  0  0  0  0  0  0
   -0.3135    0.3687   -0.1490 C   0  0  0  0  0  0  0  0  0  0  0  0
    1.9799    1.3315   -0.4839 C   0  0  0  0  0  0  0  0  0  0  0  0
    1.3680   -1.0666   -0.0692 C   0  0  0  0  0  0  0  0  0  0  0  0
   -0.7573   -0.9299    0.0845 C   0  0  0  0  0  0  0  0  0  0  0  0
   -1.1701    1.4659   -0.2453 C   0  0  0  0  0  0  0  0  0  0  0  0
    2.4637    1.9721    0.8057 C   0  0  0  0  0  0  0  0  0  0  0  0
   -2.1343   -1.1667    0.2335 C   0  0  0  0  0  0  0  0  0  0  0  0
    2.7634   -1.5505   -0.1104 C   0  0  0  0  0  0  0  0  0  0  0  0
   -2.5374    1.2120   -0.0948 C   0  0  0  0  0  0  0  0  0  0  0  0
   -3.0131   -0.0801    0.1406 C   0  0  0  0  0  0  0  0  0  0  0  0
  1  3  1  0
  1  4  1  0
  1  5  1  0
  2  5  2  0
  2  6  1  0
  3  6  2  0
  3  7  1  0
  4  8  1  0
  5 10  1  0
  6  9  1  0
  7 11  2  0
  9 12  2  0
 11 12  1  0
M  END
>  <PUBCHEM_COMPOUND_CID>  (1) 
22054

>  <PUBCHEM_CONFORMER_RMSD>  (1) 
0.4

>  <PUBCHEM_CONFORMER_DIVERSEORDER>  (1) 
2
3
1

>  <PUBCHEM_MMFF94_PARTIAL_CHARGES>  (1) 
15
1 0.05
10 0.18
11 -0.15
12 -0.15
15 0.15
19 0.15
2 -0.57
23 0.15
24 0.15
3 -0.15
4 0.26
5 0.01
6 0.23
7 -0.15
9 -0.15

>  <PUBCHEM_EFFECTIVE_ROTOR_COUNT>  (1) 
1

>  <PUBCHEM_PHARMACOPHORE_FEATURES>  (1) 
3
3 1 2 5 cation
5 1 2 3 5 6 rings
6 3 6 7 9 11 12 rings

>  <PUBCHEM_HEAVY_ATOM_COUNT>  (1) 
12

>  <PUBCHEM_ATOM_DEF_STEREO_COUNT>  (1) 
0

>  <PUBCHEM_ATOM_UDEF_STEREO_COUNT>  (1) 
0

>  <PUBCHEM_BOND_DEF_STEREO_COUNT>  (1) 
0

>  <PUBCHEM_BOND_UDEF_STEREO_COUNT>  (1) 
0

>  <PUBCHEM_ISOTOPIC_ATOM_COUNT>  (1) 
0

>  <PUBCHEM_COMPONENT_COUNT>  (1) 
1

>  <PUBCHEM_CACTVS_TAUTO_COUNT>  (1) 
1

>  <PUBCHEM_CONFORMER_ID>  (1) 
0000562600000002

>  <PUBCHEM_MMFF94_ENERGY>  (1) 
16.689

>  <PUBCHEM_FEATURE_SELFOVERLAP>  (1) 
15.33

>  <PUBCHEM_SHAPE_FINGERPRINT>  (1) 
10608611 8 18409726244670519261
12423570 1 11398654238224597211
12524768 44 18408606950539078199
13380535 21 18337968872982890664
13380535 76 18337948021206883946
14325111 11 18409731772256298085
14648413 74 18410576141293683624
15219456 202 18410291419290120041
15775835 57 18270970144861137921
16945 1 18265895752865170943
193761 8 18338236080215764382
19973954 147 18410295791645961577
20511035 2 18336273396014644918
21040471 1 18264494055822725628
21501502 16 18411139138454750351
2334 1 18337112366483847903
23552423 10 18259990374575334119
23559900 14 18051695443911423222
2748010 2 18335706061099950967
5084963 1 18271243828888356611
53812653 166 18265049133143284920
7364860 26 18343302557066636958

>  <PUBCHEM_SHAPE_MULTIPOLES>  (1) 
236.99
4.29
2.14
0.7
0.42
0.15
-0.03
0.48
-0.28
-1.1
-0.16
-0.15
0.14
0.39

>  <PUBCHEM_SHAPE_SELFOVERLAP>  (1) 
508.037

>  <PUBCHEM_SHAPE_VOLUME>  (1) 
134

>  <PUBCHEM_COORDINATE_TYPE>  (1) 
2
5
10

$$$$
