22062
     RDKit          3D

 21 20  0  0  1  0  0  0  0  0999 V2000
    1.4913    3.0597    1.8383 S   0  0  0  0  0  0  0  0  0  0  0  0
   -0.2000    4.3393   -0.9446 S   0  0  0  0  0  0  0  0  0  0  0  0
    0.1673    2.7895    0.1971 P   0  0  0  0  0  0  0  0  0  0  0  0
   -1.2342    2.1977    0.7909 O   0  0  0  0  0  0  0  0  0  0  0  0
    0.6747    1.4924   -0.6571 O   0  0  0  0  0  0  0  0  0  0  0  0
   -2.5557    0.2681    1.4447 C   0  0  0  0  0  0  0  0  0  0  0  0
    2.5278    0.1423   -1.4486 C   0  0  0  0  0  0  0  0  0  0  0  0
   -2.5700   -0.4046    0.0558 C   0  0  0  0  0  0  0  0  0  0  0  0
    3.0026   -0.2819   -0.0428 C   0  0  0  0  0  0  0  0  0  0  0  0
   -2.8298   -0.6989    2.6183 C   0  0  0  0  0  0  0  0  0  0  0  0
    1.6005   -0.8832   -2.1388 C   0  0  0  0  0  0  0  0  0  0  0  0
   -1.2403    1.0443    1.6210 C   0  0  0  0  0  0  0  0  0  0  0  0
    1.8976    1.5426   -1.3724 C   0  0  0  0  0  0  0  0  0  0  0  0
   -3.9010   -1.0837   -0.2831 C   0  0  0  0  0  0  0  0  0  0  0  0
    3.7804   -1.6019   -0.0305 C   0  0  0  0  0  0  0  0  0  0  0  0
   -3.8989   -1.7624   -1.6556 C   0  0  0  0  0  0  0  0  0  0  0  0
    4.2320   -2.0221    1.3709 C   0  0  0  0  0  0  0  0  0  0  0  0
   -1.8367   -1.8445    2.7584 C   0  0  0  0  0  0  0  0  0  0  0  0
    1.1184   -0.4873   -3.5278 C   0  0  0  0  0  0  0  0  0  0  0  0
   -5.2087   -2.4606   -1.9874 C   0  0  0  0  0  0  0  0  0  0  0  0
    4.9824   -3.3448    1.3935 C   0  0  0  0  0  0  0  0  0  0  0  0
  1  3  1  0
  2  3  2  0
  3  4  1  0
  3  5  1  0
  4 12  1  0
  5 13  1  0
  6  8  1  0
  6 10  1  0
  6 12  1  0
  7  9  1  0
  7 11  1  0
  7 13  1  0
  8 14  1  0
  9 15  1  0
 10 18  1  0
 11 19  1  0
 14 16  1  0
 15 17  1  0
 16 20  1  0
 17 21  1  0
M  END
>  <PUBCHEM_COMPOUND_CID>  (1) 
22062

>  <PUBCHEM_CONFORMER_RMSD>  (1) 
1.4

>  <PUBCHEM_CONFORMER_DIVERSEORDER>  (1) 
1
27
37
42
26
6
21
24
36
46
38
34
53
43
44
54
35
32
31
18
48
41
4
39
11
59
52
23
8
28
33
49
47
55
14
58
45
15
16
40
30
29
13
12
19
17
22
56
51
25
57
3
20
60
5
10
9
50
7
2

>  <PUBCHEM_MMFF94_PARTIAL_CHARGES>  (1) 
8
1 -0.43
12 0.28
13 0.28
2 -0.68
3 1.47
4 -0.55
5 -0.55
56 0.18

>  <PUBCHEM_EFFECTIVE_ROTOR_COUNT>  (1) 
14

>  <PUBCHEM_PHARMACOPHORE_FEATURES>  (1) 
6
1 18 hydrophobe
1 19 hydrophobe
1 20 hydrophobe
1 21 hydrophobe
5 6 8 10 14 16 hydrophobe
5 7 9 11 15 17 hydrophobe

>  <PUBCHEM_HEAVY_ATOM_COUNT>  (1) 
21

>  <PUBCHEM_ATOM_DEF_STEREO_COUNT>  (1) 
0

>  <PUBCHEM_ATOM_UDEF_STEREO_COUNT>  (1) 
2

>  <PUBCHEM_BOND_DEF_STEREO_COUNT>  (1) 
0

>  <PUBCHEM_BOND_UDEF_STEREO_COUNT>  (1) 
0

>  <PUBCHEM_ISOTOPIC_ATOM_COUNT>  (1) 
0

>  <PUBCHEM_COMPONENT_COUNT>  (1) 
1

>  <PUBCHEM_CACTVS_TAUTO_COUNT>  (1) 
1

>  <PUBCHEM_CONFORMER_ID>  (1) 
0000562E00000001

>  <PUBCHEM_MMFF94_ENERGY>  (1) 
10.9503

>  <PUBCHEM_FEATURE_SELFOVERLAP>  (1) 
30.454

>  <PUBCHEM_SHAPE_FINGERPRINT>  (1) 
11552529 35 17981035320277042770
12156800 1 16687034387366551781
12160290 23 17834705715034214184
12633257 1 17703515385290519394
13083527 12 18059282274987973984
133893 2 18054241087547735185
14178342 30 16988298494507463367
15342168 16 8862674486326830379
19032999 76 18269821069548467810
20626108 58 18201152247693166943
21315764 21 16877660166832361967
23419403 2 16958943754554570512
23728640 28 17391369402863970600
238 59 17907305699449017285
3027735 51 16881300495313423554
312425 83 15575009423591866854
3797600 57 15266506290791292496
46194498 28 15647923537287922326
469060 322 15982532297546697116
484985 159 17685752659059542582
621550 5 7920779031472058076
85463 6 18337679590156510698
9981440 41 16479626835025056208

>  <PUBCHEM_SHAPE_MULTIPOLES>  (1) 
431.98
8.61
4.65
3.32
1.62
3.92
0.65
-12.22
0.13
-2.31
-0.62
1.02
-1.41
-2.39

>  <PUBCHEM_SHAPE_SELFOVERLAP>  (1) 
757.074

>  <PUBCHEM_SHAPE_VOLUME>  (1) 
286.9

>  <PUBCHEM_COORDINATE_TYPE>  (1) 
2
5
10

$$$$
