22060
     RDKit          3D

  6  5  0  0  1  0  0  0  0  0999 V2000
   -0.0064   -1.7547    0.1006 O   0  0  0  0  0  0  0  0  0  0  0  0
   -2.2340    0.8008    0.0946 N   0  0  0  0  0  0  0  0  0  0  0  0
    0.0598   -0.4035   -0.3473 C   0  0  0  0  0  0  0  0  0  0  0  0
    1.1542    0.2834    0.4115 C   0  0  0  0  0  0  0  0  0  0  0  0
    2.2463    0.8035   -0.1611 C   0  0  0  0  0  0  0  0  0  0  0  0
   -1.2199    0.2705   -0.0982 C   0  0  0  0  0  0  0  0  0  0  0  0
  1  3  1  0
  2  6  3  0
  3  4  1  0
  3  6  1  0
  4  5  2  0
M  END
>  <PUBCHEM_COMPOUND_CID>  (1) 
22060

>  <PUBCHEM_CONFORMER_RMSD>  (1) 
0.4

>  <PUBCHEM_CONFORMER_DIVERSEORDER>  (1) 
1
2

>  <PUBCHEM_MMFF94_PARTIAL_CHARGES>  (1) 
10
1 -0.68
10 0.15
11 0.4
2 -0.56
3 0.62
4 -0.29
5 -0.3
6 0.36
8 0.15
9 0.15

>  <PUBCHEM_EFFECTIVE_ROTOR_COUNT>  (1) 
1

>  <PUBCHEM_PHARMACOPHORE_FEATURES>  (1) 
4
1 1 acceptor
1 1 donor
1 2 acceptor
1 5 hydrophobe

>  <PUBCHEM_HEAVY_ATOM_COUNT>  (1) 
6

>  <PUBCHEM_ATOM_DEF_STEREO_COUNT>  (1) 
0

>  <PUBCHEM_ATOM_UDEF_STEREO_COUNT>  (1) 
1

>  <PUBCHEM_BOND_DEF_STEREO_COUNT>  (1) 
0

>  <PUBCHEM_BOND_UDEF_STEREO_COUNT>  (1) 
0

>  <PUBCHEM_ISOTOPIC_ATOM_COUNT>  (1) 
0

>  <PUBCHEM_COMPONENT_COUNT>  (1) 
1

>  <PUBCHEM_CACTVS_TAUTO_COUNT>  (1) 
1

>  <PUBCHEM_CONFORMER_ID>  (1) 
0000562C00000001

>  <PUBCHEM_MMFF94_ENERGY>  (1) 
2.0281

>  <PUBCHEM_FEATURE_SELFOVERLAP>  (1) 
20.297

>  <PUBCHEM_SHAPE_FINGERPRINT>  (1) 
16714656 1 18336550511731470772
20096714 4 18412259545167175024
21040471 1 18411696612483170264
24536 1 18051395551454888452
5460574 1 8790890687246974004
5943 1 12667545365713113226

>  <PUBCHEM_SHAPE_MULTIPOLES>  (1) 
112.63
2.71
1.25
0.65
0.15
0.59
0.01
-1.31
0.01
-0.14
-0.04
0.07
-0.01
-0.05

>  <PUBCHEM_SHAPE_SELFOVERLAP>  (1) 
204.876

>  <PUBCHEM_SHAPE_VOLUME>  (1) 
70.1

>  <PUBCHEM_COORDINATE_TYPE>  (1) 
2
5
10

$$$$
