22071
     RDKit          3D

 28 30  0  0  0  0  0  0  0  0999 V2000
    2.1957    1.3235   -1.0674 O   0  0  0  0  0  0  0  0  0  0  0  0
   -1.1640    0.5617    2.2539 O   0  0  0  0  0  0  0  0  0  0  0  0
   -4.4616    1.4677   -0.8722 O   0  0  0  0  0  0  0  0  0  0  0  0
   -0.7810   -1.5535   -2.2521 O   0  0  0  0  0  0  0  0  0  0  0  0
   -2.7426    1.4476    0.7439 N   0  0  0  0  0  0  0  0  0  0  0  0
    1.4391   -1.9963   -1.6641 N   0  0  0  0  0  0  0  0  0  0  0  0
    5.9587   -1.8219    1.5753 N   0  0  0  0  0  0  0  0  0  0  0  0
   -1.4973    3.3976   -0.1067 C   0  0  0  0  0  0  0  0  0  0  0  0
   -2.5046    2.8560    0.9028 C   0  0  0  0  0  0  0  0  0  0  0  0
   -0.1224    2.7346    0.0227 C   0  0  0  0  0  0  0  0  0  0  0  0
    0.8802    3.3423   -0.9634 C   0  0  0  0  0  0  0  0  0  0  0  0
   -2.0553    0.4602    1.4315 C   0  0  0  0  0  0  0  0  0  0  0  0
   -3.6877    0.9108   -0.1158 C   0  0  0  0  0  0  0  0  0  0  0  0
   -2.6154   -0.8130    0.9797 C   0  0  0  0  0  0  0  0  0  0  0  0
   -3.6024   -0.5405    0.0440 C   0  0  0  0  0  0  0  0  0  0  0  0
    2.2661    2.7223   -0.8323 C   0  0  0  0  0  0  0  0  0  0  0  0
   -2.2947   -2.1033    1.3482 C   0  0  0  0  0  0  0  0  0  0  0  0
   -4.3208   -1.5441   -0.5727 C   0  0  0  0  0  0  0  0  0  0  0  0
    3.1129    0.5393   -0.4166 C   0  0  0  0  0  0  0  0  0  0  0  0
    2.8028   -0.7727   -0.0585 C   0  0  0  0  0  0  0  0  0  0  0  0
   -3.0103   -3.1367    0.7367 C   0  0  0  0  0  0  0  0  0  0  0  0
   -4.0133   -2.8599   -0.2146 C   0  0  0  0  0  0  0  0  0  0  0  0
    1.4644   -1.3533   -0.3754 C   0  0  0  0  0  0  0  0  0  0  0  0
    4.3677    1.0674   -0.1127 C   0  0  0  0  0  0  0  0  0  0  0  0
    3.7477   -1.5568    0.6033 C   0  0  0  0  0  0  0  0  0  0  0  0
    5.0025   -1.0288    0.9073 C   0  0  0  0  0  0  0  0  0  0  0  0
    5.3125    0.2832    0.5492 C   0  0  0  0  0  0  0  0  0  0  0  0
    0.3232   -2.0337   -2.4740 C   0  0  0  0  0  0  0  0  0  0  0  0
  1 16  1  0
  1 19  1  0
  2 12  2  0
  3 13  2  0
  4 28  2  0
  5  9  1  0
  5 12  1  0
  5 13  1  0
  6 23  1  0
  6 28  1  0
  7 26  1  0
  8  9  1  0
  8 10  1  0
 10 11  1  0
 11 16  1  0
 12 14  1  0
 13 15  1  0
 14 15  2  0
 14 17  1  0
 15 18  1  0
 17 21  2  0
 18 22  2  0
 19 20  2  0
 19 24  1  0
 20 23  1  0
 20 25  1  0
 21 22  1  0
 24 27  2  0
 25 26  2  0
 26 27  1  0
M  END
>  <PUBCHEM_COMPOUND_CID>  (1) 
22071

>  <PUBCHEM_CONFORMER_RMSD>  (1) 
1

>  <PUBCHEM_CONFORMER_DIVERSEORDER>  (1) 
1
168
2
218
104
118
107
236
119
18
292
164
66
82
124
240
220
64
99
286
53
129
203
91
4
98
55
103
206
65
196
132
60
317
92
140
311
128
232
3
233
29
197
52
117
34
109
24
27
176
265
136
147
283
130
58
279
17
300
306
165
81
187
16
50
158
241
46
296
313
262
281
198
179
269
200
85
111
127
67
199
101
177
30
32
186
139
102
11
153
126
134
305
277
219
284
172
148
225
169
293
298
230
209
135
163
8
31
115
275
63
14
250
97
93
290
194
138
25
137
90
170
88
302
20
266
96
86
160
56
12
143
318
21
215
23
106
189
152
181
48
289
154
151
299
94
193
49
112
312
210
72
175
77
70
212
125
159
145
248
263
301
303
166
246
84
304
42
6
133
83
183
156
224
131
249
229
319
201
28
7
75
40
68
307
280
260
45
38
87
244
116
10
149
19
150
314
297
79
213
73
120
108
71
223
171
105
155
310
15
37
231
22
211
239
95
235
178
204
253
259
100
51
35
294
69
57
39
243
252
227
268
13
5
74
180
274
59
255
202
146
256
80
44
309
315
208
270
41
123
320
173
207
234
162
185
195
251
78
258
192
222
26
264
110
33
36
221
205
238
174
217
190
113
142
308
216
278
54
237
272
282
9
287
182
62
89
61
228
295
267
188
316
273
157
214
285
291
226
114
288
191
76
144
167
141
122
43
261
276
184
257
47
121
161
247
242
321
254
271
245

>  <PUBCHEM_MMFF94_PARTIAL_CHARGES>  (1) 
36
1 -0.36
12 0.54
13 0.54
14 0.09
15 0.09
16 0.28
17 -0.15
18 -0.15
19 0.08
2 -0.57
20 -0.14
21 -0.15
22 -0.15
23 0.44
24 -0.15
25 -0.15
26 0.1
27 -0.15
28 0.57
3 -0.57
39 0.15
4 -0.57
40 0.15
41 0.15
42 0.15
45 0.15
46 0.15
47 0.15
48 0.37
49 0.4
5 -0.42
50 0.4
51 0.06
6 -0.73
7 -0.9
9 0.3

>  <PUBCHEM_EFFECTIVE_ROTOR_COUNT>  (1) 
10.2

>  <PUBCHEM_PHARMACOPHORE_FEATURES>  (1) 
10
1 1 acceptor
1 2 acceptor
1 3 acceptor
1 4 acceptor
1 6 donor
1 7 cation
1 7 donor
5 5 12 13 14 15 rings
6 14 15 17 18 21 22 rings
6 19 20 24 25 26 27 rings

>  <PUBCHEM_HEAVY_ATOM_COUNT>  (1) 
28

>  <PUBCHEM_ATOM_DEF_STEREO_COUNT>  (1) 
0

>  <PUBCHEM_ATOM_UDEF_STEREO_COUNT>  (1) 
0

>  <PUBCHEM_BOND_DEF_STEREO_COUNT>  (1) 
0

>  <PUBCHEM_BOND_UDEF_STEREO_COUNT>  (1) 
0

>  <PUBCHEM_ISOTOPIC_ATOM_COUNT>  (1) 
0

>  <PUBCHEM_COMPONENT_COUNT>  (1) 
1

>  <PUBCHEM_CACTVS_TAUTO_COUNT>  (1) 
2

>  <PUBCHEM_CONFORMER_ID>  (1) 
0000563700000001

>  <PUBCHEM_MMFF94_ENERGY>  (1) 
70.2194

>  <PUBCHEM_FEATURE_SELFOVERLAP>  (1) 
50.838

>  <PUBCHEM_SHAPE_FINGERPRINT>  (1) 
12553582 1 18266203684651040669
12633257 1 18334586702291240925
12838863 1 18339343194189011607
14117953 113 18267586814681117725
19026451 147 18193554703649407427
192875 21 18336546109226403674
19319366 153 17399243439274510996
20715895 44 18266457603766225301
23559900 14 18264760138000845929
463206 1 17907584971086587739
469060 322 17631717392040329311
508706 21 18198635336643747094
57527452 28 16486676057542144045
9981440 41 18130505224185150451

>  <PUBCHEM_SHAPE_MULTIPOLES>  (1) 
537.81
10.57
4.26
1.71
8.66
2.2
-0.45
-4.77
2.84
-2.14
-0.5
0.03
-0.84
-1.1

>  <PUBCHEM_SHAPE_SELFOVERLAP>  (1) 
1150.081

>  <PUBCHEM_SHAPE_VOLUME>  (1) 
297.7

>  <PUBCHEM_COORDINATE_TYPE>  (1) 
2
5
10

$$$$
