22078
     RDKit          3D

 13 13  0  0  1  0  0  0  0  0999 V2000
    2.8903    2.5037   -0.4038 Cl  0  0  0  0  0  0  0  0  0  0  0  0
   -0.8279   -0.8296    0.5755 O   0  0  0  0  0  0  0  0  0  0  0  0
   -2.6314    0.9974    1.3276 O   0  0  0  0  0  0  0  0  0  0  0  0
   -3.5794    1.1236   -0.7617 N   0  0  0  0  0  0  0  0  0  0  0  0
   -1.7452   -0.4192   -0.4246 C   0  0  0  0  0  0  0  0  0  0  0  0
    0.5036   -0.6124    0.3247 C   0  0  0  0  0  0  0  0  0  0  0  0
   -2.5112   -1.6433   -0.9002 C   0  0  0  0  0  0  0  0  0  0  0  0
   -2.6836    0.6246    0.1583 C   0  0  0  0  0  0  0  0  0  0  0  0
    0.9599    0.6830    0.1150 C   0  0  0  0  0  0  0  0  0  0  0  0
    1.3791   -1.6904    0.2835 C   0  0  0  0  0  0  0  0  0  0  0  0
    2.3135    0.9040   -0.1397 C   0  0  0  0  0  0  0  0  0  0  0  0
    2.7326   -1.4693    0.0284 C   0  0  0  0  0  0  0  0  0  0  0  0
    3.1998   -0.1722   -0.1831 C   0  0  0  0  0  0  0  0  0  0  0  0
  1 11  1  0
  2  5  1  0
  2  6  1  0
  3  8  2  0
  4  8  1  0
  5  7  1  0
  5  8  1  0
  6  9  2  0
  6 10  1  0
  9 11  1  0
 10 12  2  0
 11 13  2  0
 12 13  1  0
M  END
>  <PUBCHEM_COMPOUND_CID>  (1) 
22078

>  <PUBCHEM_CONFORMER_RMSD>  (1) 
0.6

>  <PUBCHEM_CONFORMER_DIVERSEORDER>  (1) 
1
74
67
16
65
75
63
76
19
39
58
56
77
40
55
50
44
6
66
64
78
73
53
54
37
38
71
18
68
59
62
24
47
42
26
72
33
69
9
36
61
31
41
21
46
11
4
51
60
13
49
15
23
20
34
35
2
10
45
7
14
52
30
57
48
12
25
22
32
8
5
28
3
43
17
70
29
27

>  <PUBCHEM_MMFF94_PARTIAL_CHARGES>  (1) 
18
1 -0.18
10 -0.15
11 0.18
12 -0.15
13 -0.15
18 0.15
19 0.15
2 -0.36
20 0.15
21 0.15
22 0.37
23 0.37
3 -0.57
4 -0.8
5 0.34
6 0.08
8 0.57
9 -0.15

>  <PUBCHEM_EFFECTIVE_ROTOR_COUNT>  (1) 
3

>  <PUBCHEM_PHARMACOPHORE_FEATURES>  (1) 
4
1 2 acceptor
1 3 acceptor
1 4 donor
6 6 9 10 11 12 13 rings

>  <PUBCHEM_HEAVY_ATOM_COUNT>  (1) 
13

>  <PUBCHEM_ATOM_DEF_STEREO_COUNT>  (1) 
0

>  <PUBCHEM_ATOM_UDEF_STEREO_COUNT>  (1) 
1

>  <PUBCHEM_BOND_DEF_STEREO_COUNT>  (1) 
0

>  <PUBCHEM_BOND_UDEF_STEREO_COUNT>  (1) 
0

>  <PUBCHEM_ISOTOPIC_ATOM_COUNT>  (1) 
0

>  <PUBCHEM_COMPONENT_COUNT>  (1) 
1

>  <PUBCHEM_CACTVS_TAUTO_COUNT>  (1) 
2

>  <PUBCHEM_CONFORMER_ID>  (1) 
0000563E00000001

>  <PUBCHEM_MMFF94_ENERGY>  (1) 
35.9933

>  <PUBCHEM_FEATURE_SELFOVERLAP>  (1) 
20.305

>  <PUBCHEM_SHAPE_FINGERPRINT>  (1) 
10608611 8 18261110794056440757
10857977 72 15791743996354927155
11471102 20 18335136441109739694
12162725 195 18410852209043751038
12932764 1 17676764297087697682
14144814 61 18270681965524750939
14250199 8 18410011022376711037
14325111 11 18409729607613672022
14897335 6 18411975875377598201
15442244 35 18268429027702948746
15775835 57 18410858767411456325
16945 1 18337672997223624562
17844478 74 17603879849052255373
18186145 218 18341339950222693740
20653085 51 18408042905390036963
21501502 16 18411416254097892222
21524375 3 18047749584019487848
23402655 69 18411132502952019293
23552423 10 18410852174536553450
25 1 18333739017908010796
25610 137 18121500421458519311
2748010 2 18119262885378546866
3248919 1 18340195366902301290
57096353 35 18198899412623597719
63268167 104 18410012108976972201
74978 22 18412544288566544727
7832392 63 18412261696893055844
8030462 33 17989480836018539035
93112 12 18413387631112099319
9939556 21 18343581832608817383

>  <PUBCHEM_SHAPE_MULTIPOLES>  (1) 
252.68
6.03
2.14
0.87
1.84
0.44
-0.06
1.85
0.84
-1.17
0.21
0.53
0.06
-0.64

>  <PUBCHEM_SHAPE_SELFOVERLAP>  (1) 
511.225

>  <PUBCHEM_SHAPE_VOLUME>  (1) 
148.8

>  <PUBCHEM_COORDINATE_TYPE>  (1) 
2
5
10

$$$$
