22079
     RDKit          3D

 19 19  0  0  0  0  0  0  0  0999 V2000
    2.4254    0.2125    2.3838 S   0  0  0  0  0  0  0  0  0  0  0  0
    2.2288   -0.2382    0.4965 P   0  0  0  0  0  0  0  0  0  0  0  0
    0.7890   -0.8156    0.0249 O   0  0  0  0  0  0  0  0  0  0  0  0
    2.4310    0.9906   -0.5529 O   0  0  0  0  0  0  0  0  0  0  0  0
    3.2547   -1.3412   -0.1183 O   0  0  0  0  0  0  0  0  0  0  0  0
   -2.7356    1.2764   -0.0245 N   0  0  0  0  0  0  0  0  0  0  0  0
   -0.3690    1.1555    0.4139 N   0  0  0  0  0  0  0  0  0  0  0  0
   -3.9753   -0.6211   -0.8727 C   0  0  0  0  0  0  0  0  0  0  0  0
   -4.7440   -1.2776    0.2823 C   0  0  0  0  0  0  0  0  0  0  0  0
   -2.6901   -0.0123   -0.4217 C   0  0  0  0  0  0  0  0  0  0  0  0
   -1.5383   -0.7721   -0.4291 C   0  0  0  0  0  0  0  0  0  0  0  0
   -0.3954   -0.1298    0.0033 C   0  0  0  0  0  0  0  0  0  0  0  0
   -6.0682   -1.8658   -0.1783 C   0  0  0  0  0  0  0  0  0  0  0  0
   -1.5563    1.7897    0.3750 C   0  0  0  0  0  0  0  0  0  0  0  0
    3.6015    1.7880   -0.4885 C   0  0  0  0  0  0  0  0  0  0  0  0
    3.1549   -2.6969    0.2834 C   0  0  0  0  0  0  0  0  0  0  0  0
   -1.5665    3.2123    0.8217 C   0  0  0  0  0  0  0  0  0  0  0  0
    3.5355    2.8486   -1.5667 C   0  0  0  0  0  0  0  0  0  0  0  0
    4.2179   -3.5029   -0.4322 C   0  0  0  0  0  0  0  0  0  0  0  0
  1  2  2  0
  2  3  1  0
  2  4  1  0
  2  5  1  0
  3 12  1  0
  4 15  1  0
  5 16  1  0
  6 10  2  0
  6 14  1  0
  7 12  1  0
  7 14  2  0
  8  9  1  0
  8 10  1  0
  9 13  1  0
 10 11  1  0
 11 12  2  0
 14 17  1  0
 15 18  1  0
 16 19  1  0
M  END
>  <PUBCHEM_COMPOUND_CID>  (1) 
22079

>  <PUBCHEM_CONFORMER_RMSD>  (1) 
0.8

>  <PUBCHEM_CONFORMER_DIVERSEORDER>  (1) 
1
5
64
23
201
106
117
103
141
177
17
83
119
19
49
115
63
109
252
242
60
66
31
209
4
58
253
70
116
42
67
52
65
107
62
233
40
98
186
182
132
130
170
32
185
234
50
241
204
10
213
93
46
200
9
55
179
22
248
110
104
166
29
102
136
217
86
125
195
223
28
180
235
158
57
74
193
178
230
99
144
150
244
44
147
38
59
247
2
75
210
84
3
61
139
250
156
71
30
142
90
183
251
118
206
25
34
11
236
81
53
36
221
85
154
171
91
80
211
77
188
207
120
199
126
111
162
87
121
238
82
51
152
160
168
128
225
122
24
249
196
169
73
78
47
48
189
254
165
208
92
133
68
114
8
88
145
105
6
190
14
137
134
220
214
94
215
243
41
124
131
39
135
95
245
13
216
255
219
127
229
239
181
56
232
173
240
194
79
153
37
172
33
97
15
191
89
123
197
7
231
222
101
69
237
129
45
143
149
100
246
161
26
227
164
21
20
148
12
175
76
176
18
96
192
226
138
146
167
43
187
218
27
203
202
224
140
155
228
157
112
72
54
113
184
35
159
16
198
212
108
174
205
151
163

>  <PUBCHEM_MMFF94_PARTIAL_CHARGES>  (1) 
16
1 -0.68
10 0.17
11 -0.15
12 0.39
14 0.48
15 0.28
16 0.28
17 0.14
2 1.49
24 0.15
3 -0.35
4 -0.55
5 -0.55
6 -0.62
7 -0.62
8 0.14

>  <PUBCHEM_EFFECTIVE_ROTOR_COUNT>  (1) 
8

>  <PUBCHEM_PHARMACOPHORE_FEATURES>  (1) 
3
1 13 hydrophobe
3 6 7 14 cation
6 6 7 10 11 12 14 rings

>  <PUBCHEM_HEAVY_ATOM_COUNT>  (1) 
19

>  <PUBCHEM_ATOM_DEF_STEREO_COUNT>  (1) 
0

>  <PUBCHEM_ATOM_UDEF_STEREO_COUNT>  (1) 
0

>  <PUBCHEM_BOND_DEF_STEREO_COUNT>  (1) 
0

>  <PUBCHEM_BOND_UDEF_STEREO_COUNT>  (1) 
0

>  <PUBCHEM_ISOTOPIC_ATOM_COUNT>  (1) 
0

>  <PUBCHEM_COMPONENT_COUNT>  (1) 
1

>  <PUBCHEM_CACTVS_TAUTO_COUNT>  (1) 
3

>  <PUBCHEM_CONFORMER_ID>  (1) 
0000563F00000001

>  <PUBCHEM_MMFF94_ENERGY>  (1) 
20.525

>  <PUBCHEM_FEATURE_SELFOVERLAP>  (1) 
15.223

>  <PUBCHEM_SHAPE_FINGERPRINT>  (1) 
12553582 1 18200302364133830535
12616999 72 18336262456906872140
12916754 54 18336829697669785295
13009979 54 18128543661149310728
13140716 1 18057604270009686641
13955234 65 18339922714226221402
14178342 30 18121481471877985754
14787075 74 18044091478642505691
15042514 8 18198343953742162113
15442244 35 18195248811124232044
17492 89 18339360768852373182
18186145 218 17531241725807073999
193927 3 18261115145249078715
20281475 54 18341892996234601675
20559304 39 18412535527255338632
20626108 58 18194115219063383474
20645477 70 18187078477129888758
21524375 3 17751923760274387788
2255824 54 18334575703418338850
22950370 63 18341898528321569675
23558518 356 18337679589914034713
23559900 14 18339069385412042643
23598288 3 18058447608571717773
23598291 2 18265059029075131956
239999 70 17968090958339732858
312423 11 18341058427668922955
314194 84 18268710683622699935
4340502 62 16878499176140582201
4409770 3 16890602231125491260
474 4 17532375451440378988
5104073 3 18058439911747789346
537710 114 18337672048120579605
53777708 50 18340496560226972120
7164475 11 18410572855686309445
7364860 26 18410854357112857508
9709674 26 18334861601662835802
9981440 41 18191871339295914976

>  <PUBCHEM_SHAPE_MULTIPOLES>  (1) 
371.14
10.25
3.67
1.29
9.78
0.2
0.59
6.65
-1.85
-3.84
-0.57
-1.31
-0.57
-1.16

>  <PUBCHEM_SHAPE_SELFOVERLAP>  (1) 
704.572

>  <PUBCHEM_SHAPE_VOLUME>  (1) 
231.6

>  <PUBCHEM_COORDINATE_TYPE>  (1) 
2
5
10

$$$$
