22082
     RDKit          3D

 18 17  0  0  0  0  0  0  0  0999 V2000
   -0.6740    1.0110    1.9819 S   0  0  0  0  0  0  0  0  0  0  0  0
   -0.5601   -2.4139    2.6712 S   0  0  0  0  0  0  0  0  0  0  0  0
   -1.9795    2.8682    0.0795 S   0  0  0  0  0  0  0  0  0  0  0  0
   -0.2954   -0.9873    1.3511 P   0  0  0  0  0  0  0  0  0  0  0  0
    1.1883   -0.9964    0.6670 O   0  0  0  0  0  0  0  0  0  0  0  0
   -1.2157   -1.1900    0.0151 O   0  0  0  0  0  0  0  0  0  0  0  0
    0.6201    1.9841   -0.1959 N   0  0  0  0  0  0  0  0  0  0  0  0
    0.7324    2.1669   -1.6464 C   0  0  0  0  0  0  0  0  0  0  0  0
    1.9096    1.7899    0.4715 C   0  0  0  0  0  0  0  0  0  0  0  0
    1.6329   -2.1303   -0.0589 C   0  0  0  0  0  0  0  0  0  0  0  0
   -2.6290   -1.2472    0.1095 C   0  0  0  0  0  0  0  0  0  0  0  0
   -0.5988    1.9974    0.5090 C   0  0  0  0  0  0  0  0  0  0  0  0
    3.0369   -1.8618   -0.5785 C   0  0  0  0  0  0  0  0  0  0  0  0
   -3.2258   -0.9415   -1.2557 C   0  0  0  0  0  0  0  0  0  0  0  0
    0.6920    0.8410   -2.3776 C   0  0  0  0  0  0  0  0  0  0  0  0
    2.5343    3.1120    0.8671 C   0  0  0  0  0  0  0  0  0  0  0  0
    3.5751   -3.0321   -1.3820 C   0  0  0  0  0  0  0  0  0  0  0  0
   -4.7434   -0.9701   -1.2279 C   0  0  0  0  0  0  0  0  0  0  0  0
  1  4  1  0
  1 12  1  0
  2  4  2  0
  3 12  2  0
  4  5  1  0
  4  6  1  0
  5 10  1  0
  6 11  1  0
  7  8  1  0
  7  9  1  0
  7 12  1  0
  8 15  1  0
  9 16  1  0
 10 13  1  0
 11 14  1  0
 13 17  1  0
 14 18  1  0
M  END
>  <PUBCHEM_COMPOUND_CID>  (1) 
22082

>  <PUBCHEM_CONFORMER_RMSD>  (1) 
1

>  <PUBCHEM_CONFORMER_DIVERSEORDER>  (1) 
1
15
4
13
5
2
12
6
16
8
7
14
11
3
10
9

>  <PUBCHEM_MMFF94_PARTIAL_CHARGES>  (1) 
12
1 -0.39
10 0.28
11 0.28
12 0.58
2 -0.68
3 -0.38
4 1.47
5 -0.55
6 -0.55
7 -0.66
8 0.3
9 0.3

>  <PUBCHEM_EFFECTIVE_ROTOR_COUNT>  (1) 
11

>  <PUBCHEM_PHARMACOPHORE_FEATURES>  (1) 
3
1 17 hydrophobe
1 18 hydrophobe
1 3 acceptor

>  <PUBCHEM_HEAVY_ATOM_COUNT>  (1) 
18

>  <PUBCHEM_ATOM_DEF_STEREO_COUNT>  (1) 
0

>  <PUBCHEM_ATOM_UDEF_STEREO_COUNT>  (1) 
0

>  <PUBCHEM_BOND_DEF_STEREO_COUNT>  (1) 
0

>  <PUBCHEM_BOND_UDEF_STEREO_COUNT>  (1) 
0

>  <PUBCHEM_ISOTOPIC_ATOM_COUNT>  (1) 
0

>  <PUBCHEM_COMPONENT_COUNT>  (1) 
1

>  <PUBCHEM_CACTVS_TAUTO_COUNT>  (1) 
1

>  <PUBCHEM_CONFORMER_ID>  (1) 
0000564200000001

>  <PUBCHEM_MMFF94_ENERGY>  (1) 
18.7479

>  <PUBCHEM_FEATURE_SELFOVERLAP>  (1) 
15.223

>  <PUBCHEM_SHAPE_FINGERPRINT>  (1) 
15852999 172 17973437990537899640
16945 1 18340477941369274624
17492 54 17684086877462922061
20233049 118 17682655657005531961
20600515 1 17386550496896859214
21524375 3 17466201438558881819
229495 10 16413756402737012586
23402539 116 17826533067080970966
23419403 2 17900784319985925356
23557571 272 18056459678764290282
23566358 2 18338780239750615029
2748010 2 17760947520442526200
3060560 45 17622140778927114551
5845 1 13776435741922227123
81228 2 18118135666885472778

>  <PUBCHEM_SHAPE_MULTIPOLES>  (1) 
369.11
5.31
4.33
2.32
2.19
1.62
-0.37
-4
3.49
-2.19
-0.5
0.21
-0.76
0.59

>  <PUBCHEM_SHAPE_SELFOVERLAP>  (1) 
633.538

>  <PUBCHEM_SHAPE_VOLUME>  (1) 
249.7

>  <PUBCHEM_COORDINATE_TYPE>  (1) 
2
5
10

$$$$
