22085
     RDKit          3D

 30 31  0  0  0  0  0  0  0  0999 V2000
    1.0523    2.9775    0.6181 O   0  0  0  0  0  0  0  0  0  0  0  0
   -0.8230    2.3997    1.8216 O   0  0  0  0  0  0  0  0  0  0  0  0
    1.6590   -0.9059   -3.3152 O   0  0  0  0  0  0  0  0  0  0  0  0
   -3.5970    1.9122   -1.7739 O   0  0  0  0  0  0  0  0  0  0  0  0
    0.1004    0.3295   -2.3861 O   0  0  0  0  0  0  0  0  0  0  0  0
   -1.4774    2.3334   -1.3876 O   0  0  0  0  0  0  0  0  0  0  0  0
    5.3656   -2.2811    1.4627 O   0  0  0  0  0  0  0  0  0  0  0  0
   -4.5802   -3.2990    1.4408 O   0  0  0  0  0  0  0  0  0  0  0  0
    5.2583   -2.6929   -0.6909 O   0  0  0  0  0  0  0  0  0  0  0  0
   -5.7226   -1.9338    0.1562 O   0  0  0  0  0  0  0  0  0  0  0  0
    1.1527   -0.3478   -2.3134 N   0  0  0  0  0  0  0  0  0  0  0  0
   -2.5019    1.6272   -1.2344 N   0  0  0  0  0  0  0  0  0  0  0  0
    4.8016   -2.1586    0.3485 N   0  0  0  0  0  0  0  0  0  0  0  0
   -4.6555   -2.2727    0.7227 N   0  0  0  0  0  0  0  0  0  0  0  0
    0.0152    0.9282    0.0346 C   0  0  0  0  0  0  0  0  0  0  0  0
    1.2678    0.1146    0.0913 C   0  0  0  0  0  0  0  0  0  0  0  0
   -1.2547    0.0842    0.2040 C   0  0  0  0  0  0  0  0  0  0  0  0
    1.7938   -0.4882   -1.0514 C   0  0  0  0  0  0  0  0  0  0  0  0
   -2.4190    0.4635   -0.4209 C   0  0  0  0  0  0  0  0  0  0  0  0
    0.0053    2.1620    0.9516 C   0  0  0  0  0  0  0  0  0  0  0  0
    1.9126   -0.0360    1.3189 C   0  0  0  0  0  0  0  0  0  0  0  0
   -1.1629   -1.0395    0.9934 C   0  0  0  0  0  0  0  0  0  0  0  0
    2.9648   -1.2413   -0.9663 C   0  0  0  0  0  0  0  0  0  0  0  0
   -3.5567   -0.3246   -0.2478 C   0  0  0  0  0  0  0  0  0  0  0  0
    3.0835   -0.7892    1.4040 C   0  0  0  0  0  0  0  0  0  0  0  0
   -2.3007   -1.8276    1.1666 C   0  0  0  0  0  0  0  0  0  0  0  0
    3.6095   -1.3919    0.2613 C   0  0  0  0  0  0  0  0  0  0  0  0
   -3.4976   -1.4701    0.5460 C   0  0  0  0  0  0  0  0  0  0  0  0
    1.1529    4.1930    1.3668 C   0  0  0  0  0  0  0  0  0  0  0  0
    2.3539    4.9748    0.8788 C   0  0  0  0  0  0  0  0  0  0  0  0
  1 20  1  0
  1 29  1  0
  2 20  2  0
  3 11  1  0
  4 12  1  0
  5 11  2  0
  6 12  2  0
  7 13  1  0
  8 14  1  0
  9 13  2  0
 10 14  2  0
 11 18  1  0
 12 19  1  0
 13 27  1  0
 14 28  1  0
 15 16  1  0
 15 17  1  0
 15 20  1  0
 16 18  2  0
 16 21  1  0
 17 19  2  0
 17 22  1  0
 18 23  1  0
 19 24  1  0
 21 25  2  0
 22 26  2  0
 23 27  2  0
 24 28  2  0
 25 27  1  0
 26 28  1  0
 29 30  1  0
M  CHG  8   3  -1   4  -1   7  -1   8  -1  11   1  12   1  13   1  14   1
M  END
>  <PUBCHEM_COMPOUND_CID>  (1) 
22085

>  <PUBCHEM_CONFORMER_RMSD>  (1) 
1

>  <PUBCHEM_CONFORMER_DIVERSEORDER>  (1) 
1
3
4
2

>  <PUBCHEM_MMFF94_PARTIAL_CHARGES>  (1) 
35
1 -0.43
10 -0.52
11 0.91
12 0.91
13 0.91
14 0.91
15 0.35
16 -0.14
17 -0.14
18 0.13
19 0.13
2 -0.57
20 0.66
21 -0.15
22 -0.15
23 -0.15
24 -0.15
25 -0.15
26 -0.15
27 0.13
28 0.13
29 0.28
3 -0.52
32 0.15
33 0.15
34 0.15
35 0.15
36 0.15
37 0.15
4 -0.52
5 -0.52
6 -0.52
7 -0.52
8 -0.52
9 -0.52

>  <PUBCHEM_EFFECTIVE_ROTOR_COUNT>  (1) 
9

>  <PUBCHEM_PHARMACOPHORE_FEATURES>  (1) 
15
1 10 acceptor
1 2 acceptor
1 3 acceptor
1 3 anion
1 4 acceptor
1 4 anion
1 5 acceptor
1 6 acceptor
1 7 acceptor
1 7 anion
1 8 acceptor
1 8 anion
1 9 acceptor
6 16 18 21 23 25 27 rings
6 17 19 22 24 26 28 rings

>  <PUBCHEM_HEAVY_ATOM_COUNT>  (1) 
30

>  <PUBCHEM_ATOM_DEF_STEREO_COUNT>  (1) 
0

>  <PUBCHEM_ATOM_UDEF_STEREO_COUNT>  (1) 
0

>  <PUBCHEM_BOND_DEF_STEREO_COUNT>  (1) 
0

>  <PUBCHEM_BOND_UDEF_STEREO_COUNT>  (1) 
0

>  <PUBCHEM_ISOTOPIC_ATOM_COUNT>  (1) 
0

>  <PUBCHEM_COMPONENT_COUNT>  (1) 
1

>  <PUBCHEM_CACTVS_TAUTO_COUNT>  (1) 
1

>  <PUBCHEM_CONFORMER_ID>  (1) 
0000564500000001

>  <PUBCHEM_MMFF94_ENERGY>  (1) 
132.584

>  <PUBCHEM_FEATURE_SELFOVERLAP>  (1) 
76.465

>  <PUBCHEM_SHAPE_FINGERPRINT>  (1) 
10165383 225 17680984098958025893
10190108 129 17187281812285694130
10906281 52 17987520299396889896
11578080 2 17387382762659090812
11763715 3 18193021260970089636
12293681 160 17619324542790925065
12293681 4 18197491818596933200
12363563 72 18341905081661130243
12403259 226 18335135423266021515
13009979 54 17603595097041936823
13149001 5 18264467543201273173
13540713 4 18116132524451237773
14347424 109 18197794382933881851
1813 80 17917165943322107714
20600515 1 18269281153441422760
21304303 282 17473251081714387908
22182313 1 17970610000119933285
229495 10 18054774337849894229
23419403 2 18336811095982219653
23559900 14 18040989691910603189
3380486 145 17844218887221558473
3411729 13 17983306112093420937
463206 1 18336550498968927939
81228 2 17699580138290406393
9841814 1 18199207232940478635

>  <PUBCHEM_SHAPE_MULTIPOLES>  (1) 
538.77
8.91
4.6
2.07
2.49
5.9
1.53
-10.52
-2.01
-3.05
-2.06
-0.46
-0.11
2.22

>  <PUBCHEM_SHAPE_SELFOVERLAP>  (1) 
1168.429

>  <PUBCHEM_SHAPE_VOLUME>  (1) 
293.6

>  <PUBCHEM_COORDINATE_TYPE>  (1) 
2
5
10

$$$$
