2208
     RDKit          3D

 45 48  0  0  1  0  0  0  0  0999 V2000
    1.1631   -4.6982   -0.8217 P   0  0  0  0  0  0  0  0  0  0  0  0
   -1.4729   -3.2529    0.2985 P   0  0  0  0  0  0  0  0  0  0  0  0
   -3.5907    1.9311   -0.4805 O   0  0  0  0  0  0  0  0  0  0  0  0
    4.3958    2.1536    1.6709 O   0  0  0  0  0  0  0  0  0  0  0  0
   -3.1215    3.8260    2.2971 O   0  0  0  0  0  0  0  0  0  0  0  0
    6.2544    0.7730   -1.5674 O   0  0  0  0  0  0  0  0  0  0  0  0
    2.6796   -4.9936   -1.3119 O   0  0  0  0  0  0  0  0  0  0  0  0
    0.4674   -4.1905   -2.1947 O   0  0  0  0  0  0  0  0  0  0  0  0
   -2.4935   -2.3578    1.1840 O   0  0  0  0  0  0  0  0  0  0  0  0
   -1.5564   -4.6864    1.0503 O   0  0  0  0  0  0  0  0  0  0  0  0
    0.4920   -5.9078   -0.2405 O   0  0  0  0  0  0  0  0  0  0  0  0
   -1.8676   -3.3289   -1.1472 O   0  0  0  0  0  0  0  0  0  0  0  0
    2.7482    1.5614    0.1441 N   0  0  0  0  0  0  0  0  0  0  0  0
    5.9443    0.1388    0.6514 N   0  0  0  0  0  0  0  0  0  0  0  0
   -2.8347    1.6275    2.8828 N   0  0  0  0  0  0  0  0  0  0  0  0
   -5.3806    0.3334   -0.3064 C   0  0  0  0  0  0  0  0  0  0  0  0
   -5.8268   -1.0914   -0.6613 C   0  0  0  0  0  0  0  0  0  0  0  0
   -6.4042    1.3652   -0.7993 C   0  0  0  0  0  0  0  0  0  0  0  0
   -7.2300   -1.3896   -0.1379 C   0  0  0  0  0  0  0  0  0  0  0  0
   -7.8063    1.0630   -0.2755 C   0  0  0  0  0  0  0  0  0  0  0  0
   -8.2428   -0.3570   -0.6226 C   0  0  0  0  0  0  0  0  0  0  0  0
   -3.9979    0.6259   -0.8861 C   0  0  0  0  0  0  0  0  0  0  0  0
    1.9957    2.7938    0.1840 C   0  0  0  0  0  0  0  0  0  0  0  0
    2.5974    3.8848   -0.7140 C   0  0  0  0  0  0  0  0  0  0  0  0
    0.5171    2.5604   -0.0474 C   0  0  0  0  0  0  0  0  0  0  0  0
    2.8411    3.5005   -2.1730 C   0  0  0  0  0  0  0  0  0  0  0  0
   -0.0148    2.1654   -1.2904 C   0  0  0  0  0  0  0  0  0  0  0  0
    1.5788    3.1940   -2.9720 C   0  0  0  0  0  0  0  0  0  0  0  0
    0.8488    1.9375   -2.5063 C   0  0  0  0  0  0  0  0  0  0  0  0
   -2.2541    2.1407   -0.3205 C   0  0  0  0  0  0  0  0  0  0  0  0
   -1.4022    1.9584   -1.4084 C   0  0  0  0  0  0  0  0  0  0  0  0
   -0.3602    2.7348    1.0412 C   0  0  0  0  0  0  0  0  0  0  0  0
   -1.7324    2.5291    0.9059 C   0  0  0  0  0  0  0  0  0  0  0  0
    3.8956    1.3405    0.8966 C   0  0  0  0  0  0  0  0  0  0  0  0
    4.5128   -0.0246    0.6139 C   0  0  0  0  0  0  0  0  0  0  0  0
    4.0206   -1.0543    1.6375 C   0  0  0  0  0  0  0  0  0  0  0  0
   -2.5979    2.7243    2.0608 C   0  0  0  0  0  0  0  0  0  0  0  0
    2.6569   -1.6061    1.3007 C   0  0  0  0  0  0  0  0  0  0  0  0
    2.5425   -2.7452    0.5038 C   0  0  0  0  0  0  0  0  0  0  0  0
    1.5107   -0.9773    1.7871 C   0  0  0  0  0  0  0  0  0  0  0  0
    1.2820   -3.2559    0.1937 C   0  0  0  0  0  0  0  0  0  0  0  0
    6.6952    0.5254   -0.4481 C   0  0  0  0  0  0  0  0  0  0  0  0
    0.1358   -2.6271    0.6802 C   0  0  0  0  0  0  0  0  0  0  0  0
    0.2503   -1.4878    1.4767 C   0  0  0  0  0  0  0  0  0  0  0  0
    8.1612    0.6437   -0.1279 C   0  0  0  0  0  0  0  0  0  0  0  0
  1  7  1  0
  1  8  1  0
  1 11  2  0
  1 41  1  0
  2  9  1  0
  2 10  1  0
  2 12  2  0
  2 43  1  0
  3 22  1  0
  3 30  1  0
  4 34  2  0
  5 37  2  0
  6 42  2  0
 13 23  1  0
 13 34  1  0
 14 35  1  0
 14 42  1  0
 15 37  1  0
 16 17  1  0
 16 18  1  0
 16 22  1  0
 17 19  1  0
 18 20  1  0
 19 21  1  0
 20 21  1  0
 23 24  1  0
 23 25  1  0
 24 26  1  0
 25 27  2  0
 25 32  1  0
 26 28  1  0
 27 29  1  0
 27 31  1  0
 28 29  1  0
 30 31  2  0
 30 33  1  0
 32 33  2  0
 33 37  1  0
 34 35  1  0
 35 36  1  0
 36 38  1  0
 38 39  2  0
 38 40  1  0
 39 41  1  0
 40 44  2  0
 41 43  2  0
 42 45  1  0
 43 44  1  0
M  END
>  <PUBCHEM_COMPOUND_CID>  (1) 
2208

>  <PUBCHEM_CONFORMER_RMSD>  (1) 
1.4

>  <PUBCHEM_CONFORMER_DIVERSEORDER>  (1) 
1
52
54
127
2
124
95
86
17
28
97
11
44
83
120
122
81
15
107
14
104
8
39
48
24
51
80
3
89
70
40
61
69
58
90
45
72
103
98
94
10
18
93
38
106
114
126
62
42
87
33
41
64
118
119
25
76
74
7
115
128
53
31
37
112
36
57
84
82
79
73
46
121
123
50
65
32
77
105
9
101
47
16
29
49
111
100
117
125
43
102
55
12
108
129
13
27
113
96
66
99
26
35
22
21
88
59
71
78
85
56
110
19
60
116
75
34
109
6
20
92
67
30
91
63
5
4
23
68

>  <PUBCHEM_MMFF94_PARTIAL_CHARGES>  (1) 
49
1 1.38
10 -0.77
11 -0.7
12 -0.7
13 -0.73
14 -0.73
15 -0.8
2 1.38
22 0.28
23 0.44
25 -0.14
27 -0.14
29 0.14
3 -0.36
30 0.08
31 -0.15
32 -0.15
33 0.09
34 0.57
35 0.36
36 0.14
37 0.54
38 -0.14
39 -0.15
4 -0.57
40 -0.15
41 -0.14
42 0.57
43 -0.14
44 -0.15
45 0.06
5 -0.57
6 -0.57
68 0.15
69 0.15
7 -0.77
70 0.37
74 0.37
75 0.37
76 0.37
77 0.15
78 0.15
79 0.15
8 -0.77
83 0.5
84 0.5
85 0.5
86 0.5
9 -0.77

>  <PUBCHEM_EFFECTIVE_ROTOR_COUNT>  (1) 
15.2

>  <PUBCHEM_PHARMACOPHORE_FEATURES>  (1) 
19
1 10 acceptor
1 11 acceptor
1 12 acceptor
1 13 donor
1 14 donor
1 15 donor
1 3 acceptor
1 4 acceptor
1 5 acceptor
1 6 acceptor
1 7 acceptor
1 8 acceptor
1 9 acceptor
4 1 7 8 11 anion
4 2 9 10 12 anion
6 16 17 18 19 20 21 rings
6 25 27 30 31 32 33 rings
6 38 39 40 41 43 44 rings
7 23 24 25 26 27 28 29 rings

>  <PUBCHEM_HEAVY_ATOM_COUNT>  (1) 
45

>  <PUBCHEM_ATOM_DEF_STEREO_COUNT>  (1) 
0

>  <PUBCHEM_ATOM_UDEF_STEREO_COUNT>  (1) 
2

>  <PUBCHEM_BOND_DEF_STEREO_COUNT>  (1) 
0

>  <PUBCHEM_BOND_UDEF_STEREO_COUNT>  (1) 
0

>  <PUBCHEM_ISOTOPIC_ATOM_COUNT>  (1) 
0

>  <PUBCHEM_COMPONENT_COUNT>  (1) 
1

>  <PUBCHEM_CACTVS_TAUTO_COUNT>  (1) 
8

>  <PUBCHEM_CONFORMER_ID>  (1) 
000008A000000001

>  <PUBCHEM_MMFF94_ENERGY>  (1) 
37.5532

>  <PUBCHEM_FEATURE_SELFOVERLAP>  (1) 
96.536

>  <PUBCHEM_SHAPE_FINGERPRINT>  (1) 
11513181 2 18056490443134580355
12156800 1 18120125916312890158
13347071 3 18338233890083357715
1361 2 18334852780089673153
14028597 1 17917718998562696065
14918310 93 17749936804680322045
15297060 5 18272369797377688851
15538507 32 18339073904235272016
15721738 202 18341605989240079969
18365409 1 18270675501662657718
20028762 73 18341891896211270972
21133410 38 18129109914175176291
21133410 90 17916022541318371073
469060 322 17900541173397629955
57527452 28 18412543214846177149
6287921 2 17981327793957876376

>  <PUBCHEM_SHAPE_MULTIPOLES>  (1) 
860.14
15.8
7.14
2.2
13.39
8.59
-0.1
-4.06
-1.82
-2.29
-1.97
-0.55
-1.45
-1.57

>  <PUBCHEM_SHAPE_SELFOVERLAP>  (1) 
1781.785

>  <PUBCHEM_SHAPE_VOLUME>  (1) 
489.1

>  <PUBCHEM_COORDINATE_TYPE>  (1) 
2
5
10

$$$$
