22089
     RDKit          3D

 23 24  0  0  1  0  0  0  0  0999 V2000
   -0.1834    3.3067    0.9956 O   0  0  0  0  0  0  0  0  0  0  0  0
    1.9342    2.5466    0.8116 O   0  0  0  0  0  0  0  0  0  0  0  0
    3.3001   -1.0207   -0.1438 N   0  0  0  0  0  0  0  0  0  0  0  0
    0.1457    1.2650   -0.3043 C   0  0  0  0  0  0  0  0  0  0  0  0
   -0.5681    1.8917   -1.5762 C   0  0  0  0  0  0  0  0  0  0  0  0
    1.3930    0.4053   -0.7441 C   0  0  0  0  0  0  0  0  0  0  0  0
   -0.8674    0.4288    0.5204 C   0  0  0  0  0  0  0  0  0  0  0  0
    2.1830   -0.2516    0.3993 C   0  0  0  0  0  0  0  0  0  0  0  0
    0.7426    2.4101    0.5591 C   0  0  0  0  0  0  0  0  0  0  0  0
   -1.7921    2.7704   -1.2579 C   0  0  0  0  0  0  0  0  0  0  0  0
    0.3636    2.6979   -2.4959 C   0  0  0  0  0  0  0  0  0  0  0  0
   -1.5148   -0.6393   -0.0585 C   0  0  0  0  0  0  0  0  0  0  0  0
   -1.0465    0.8374    1.8171 C   0  0  0  0  0  0  0  0  0  0  0  0
   -2.4274   -1.3615    0.7469 C   0  0  0  0  0  0  0  0  0  0  0  0
    4.1123   -1.5783    0.9376 C   0  0  0  0  0  0  0  0  0  0  0  0
   -1.9439    0.1273    2.6090 C   0  0  0  0  0  0  0  0  0  0  0  0
   -1.3116   -1.0356   -1.3904 C   0  0  0  0  0  0  0  0  0  0  0  0
   -2.6306   -0.9653    2.0787 C   0  0  0  0  0  0  0  0  0  0  0  0
    2.8112   -2.0881   -1.0168 C   0  0  0  0  0  0  0  0  0  0  0  0
   -3.1100   -2.4586    0.1965 C   0  0  0  0  0  0  0  0  0  0  0  0
   -1.9984   -2.1281   -1.9208 C   0  0  0  0  0  0  0  0  0  0  0  0
    5.3042   -2.3218    0.3657 C   0  0  0  0  0  0  0  0  0  0  0  0
   -2.8958   -2.8383   -1.1288 C   0  0  0  0  0  0  0  0  0  0  0  0
  1  9  1  0
  2  9  2  0
  3  8  1  0
  3 15  1  0
  3 19  1  0
  4  5  1  0
  4  6  1  0
  4  7  1  0
  4  9  1  0
  5 10  1  0
  5 11  1  0
  6  8  1  0
  7 12  2  0
  7 13  1  0
 12 14  1  0
 12 17  1  0
 13 16  2  0
 14 18  2  0
 14 20  1  0
 15 22  1  0
 16 18  1  0
 17 21  2  0
 20 23  2  0
 21 23  1  0
M  END
>  <PUBCHEM_COMPOUND_CID>  (1) 
22089

>  <PUBCHEM_CONFORMER_RMSD>  (1) 
0.8

>  <PUBCHEM_CONFORMER_DIVERSEORDER>  (1) 
1
9
32
12
35
16
28
39
34
11
4
5
30
18
3
6
10
22
8
14
7
15
36
31
25
19
27
2
13
29
24
20
26
21
33
38
17
37
23

>  <PUBCHEM_MMFF94_PARTIAL_CHARGES>  (1) 
24
1 -0.65
13 -0.15
15 0.27
16 -0.15
17 -0.15
18 -0.15
19 0.27
2 -0.57
20 -0.15
21 -0.15
23 -0.15
3 -0.81
35 0.15
38 0.15
39 0.15
4 0.2
40 0.15
44 0.5
45 0.15
46 0.15
50 0.15
7 -0.14
8 0.27
9 0.66

>  <PUBCHEM_EFFECTIVE_ROTOR_COUNT>  (1) 
7

>  <PUBCHEM_PHARMACOPHORE_FEATURES>  (1) 
7
1 1 acceptor
1 2 acceptor
1 3 cation
3 1 2 9 anion
3 5 10 11 hydrophobe
6 12 14 17 20 21 23 rings
6 7 12 13 14 16 18 rings

>  <PUBCHEM_HEAVY_ATOM_COUNT>  (1) 
23

>  <PUBCHEM_ATOM_DEF_STEREO_COUNT>  (1) 
0

>  <PUBCHEM_ATOM_UDEF_STEREO_COUNT>  (1) 
1

>  <PUBCHEM_BOND_DEF_STEREO_COUNT>  (1) 
0

>  <PUBCHEM_BOND_UDEF_STEREO_COUNT>  (1) 
0

>  <PUBCHEM_ISOTOPIC_ATOM_COUNT>  (1) 
0

>  <PUBCHEM_COMPONENT_COUNT>  (1) 
1

>  <PUBCHEM_CACTVS_TAUTO_COUNT>  (1) 
1

>  <PUBCHEM_CONFORMER_ID>  (1) 
0000564900000001

>  <PUBCHEM_MMFF94_ENERGY>  (1) 
99.7316

>  <PUBCHEM_FEATURE_SELFOVERLAP>  (1) 
35.608

>  <PUBCHEM_SHAPE_FINGERPRINT>  (1) 
11578080 2 18129645530466816809
12035758 1 18267874878369859849
12363563 72 18040988575082462650
12553582 1 18342188777536943966
12633257 1 17275110505123441866
12714826 92 18263656065138822374
13004483 165 18272643550066504443
13149001 5 18049690006967581132
133893 2 18044949114459406454
13583140 156 17763491773602075363
13681431 1 17823699874238622220
14142880 1 10735579306871474018
14844126 61 18120919638959342554
16945 1 17915207713418850899
1813 80 18337125539091074902
18981168 100 10447652464848601554
20600515 1 17060074643817990907
21304303 282 16519024659982906756
21421861 104 17699588118750956115
21731516 1 18337685182046051230
23419403 2 17199627996535857675
23526113 38 17241601904302329026
23598288 3 17971212343212609350
23728640 28 17905311936759756794
3027735 51 18194382416967727335
3380486 145 18411697694841731720
3383291 50 17330542155851703827
484985 159 18127401255493934102
5845 1 18340775861944605588
6992083 37 18129961012851788307
81228 2 17896019027621999013

>  <PUBCHEM_SHAPE_MULTIPOLES>  (1) 
456.61
5.98
4
2.26
8.84
1.82
0.2
-7.36
1.13
-0.34
-1.41
-1.57
0.47
-0.34

>  <PUBCHEM_SHAPE_SELFOVERLAP>  (1) 
961.271

>  <PUBCHEM_SHAPE_VOLUME>  (1) 
258

>  <PUBCHEM_COORDINATE_TYPE>  (1) 
2
5
10

$$$$
