22083
     RDKit          3D

 16 15  0  0  1  0  0  0  0  0999 V2000
    0.7053   -1.0233    0.1231 S   0  0  0  0  0  0  0  0  0  0  0  0
    3.6947   -0.7408    0.1814 S   0  0  0  0  0  0  0  0  0  0  0  0
   -1.2585    0.1600   -2.5434 S   0  0  0  0  0  0  0  0  0  0  0  0
   -0.9999    0.0211   -0.6033 P   0  0  0  0  0  0  0  0  0  0  0  0
   -2.3016   -0.6206    0.1504 O   0  0  0  0  0  0  0  0  0  0  0  0
   -1.0136    1.4822    0.1309 O   0  0  0  0  0  0  0  0  0  0  0  0
    3.7730   -0.6414    1.6765 O   0  0  0  0  0  0  0  0  0  0  0  0
   -2.7275   -1.9388   -0.1512 C   0  0  0  0  0  0  0  0  0  0  0  0
   -2.1398    2.3353    0.0121 C   0  0  0  0  0  0  0  0  0  0  0  0
    2.1210    0.0023   -0.3401 C   0  0  0  0  0  0  0  0  0  0  0  0
   -3.9885   -2.2512    0.6402 C   0  0  0  0  0  0  0  0  0  0  0  0
   -1.6033   -2.9131    0.1661 C   0  0  0  0  0  0  0  0  0  0  0  0
   -1.8553    3.6438    0.7337 C   0  0  0  0  0  0  0  0  0  0  0  0
   -3.3635    1.6306    0.5776 C   0  0  0  0  0  0  0  0  0  0  0  0
    4.7445    0.5654   -0.5014 C   0  0  0  0  0  0  0  0  0  0  0  0
    6.2130    0.2885   -0.2528 C   0  0  0  0  0  0  0  0  0  0  0  0
  1  4  1  0
  1 10  1  0
  2  7  2  0
  2 10  1  0
  2 15  1  0
  3  4  2  0
  4  5  1  0
  4  6  1  0
  5  8  1  0
  6  9  1  0
  8 11  1  0
  8 12  1  0
  9 13  1  0
  9 14  1  0
 15 16  1  0
M  END
>  <PUBCHEM_COMPOUND_CID>  (1) 
22083

>  <PUBCHEM_CONFORMER_RMSD>  (1) 
0.8

>  <PUBCHEM_CONFORMER_DIVERSEORDER>  (1) 
3
137
94
228
160
2
164
34
169
23
186
149
58
35
195
166
214
134
111
196
180
77
105
224
115
74
62
194
114
5
103
85
11
221
153
37
230
117
170
229
121
55
83
49
190
141
159
71
52
88
129
222
207
227
192
39
12
167
204
155
90
168
66
50
54
225
75
143
65
205
45
31
95
176
124
146
126
173
78
53
30
156
218
116
13
175
104
101
21
182
57
174
1
211
157
163
150
213
61
8
86
184
130
17
106
32
151
199
206
29
219
36
40
162
210
191
139
226
48
15
147
47
108
118
81
4
43
127
145
135
69
97
99
152
82
59
67
33
87
91
131
215
100
125
92
193
187
202
181
148
14
200
223
24
136
20
154
16
185
189
212
60
172
178
158
144
79
38
72
26
89
183
197
217
93
177
84
107
109
68
123
70
98
198
25
56
112
63
128
22
18
161
6
73
208
138
119
142
28
132
216
201
7
10
80
44
42
220
120
179
140
46
122
133
102
110
64
76
203
188
96
165
41
209
171
113
19
9
27
51

>  <PUBCHEM_MMFF94_PARTIAL_CHARGES>  (1) 
11
1 -0.48
10 0.42
15 0.19
2 0.11
3 -0.68
4 1.47
5 -0.55
6 -0.55
7 -0.5
8 0.28
9 0.28

>  <PUBCHEM_EFFECTIVE_ROTOR_COUNT>  (1) 
8

>  <PUBCHEM_PHARMACOPHORE_FEATURES>  (1) 
3
1 7 acceptor
3 8 11 12 hydrophobe
3 9 13 14 hydrophobe

>  <PUBCHEM_HEAVY_ATOM_COUNT>  (1) 
16

>  <PUBCHEM_ATOM_DEF_STEREO_COUNT>  (1) 
0

>  <PUBCHEM_ATOM_UDEF_STEREO_COUNT>  (1) 
1

>  <PUBCHEM_BOND_DEF_STEREO_COUNT>  (1) 
0

>  <PUBCHEM_BOND_UDEF_STEREO_COUNT>  (1) 
0

>  <PUBCHEM_ISOTOPIC_ATOM_COUNT>  (1) 
0

>  <PUBCHEM_COMPONENT_COUNT>  (1) 
1

>  <PUBCHEM_CACTVS_TAUTO_COUNT>  (1) 
1

>  <PUBCHEM_CONFORMER_ID>  (1) 
0000564300000003

>  <PUBCHEM_MMFF94_ENERGY>  (1) 
21.7863

>  <PUBCHEM_FEATURE_SELFOVERLAP>  (1) 
15.223

>  <PUBCHEM_SHAPE_FINGERPRINT>  (1) 
10366900 7 18130213909126303278
11357001 24 18411698777357645123
12173636 292 18339917095918257623
12788726 201 18335136522635471810
13073987 5 18410290312322681458
14178342 30 18263916662295643442
15806764 133 17561088020878670616
18006028 8 18339643459884979959
20510252 161 18413111653725357939
20600515 1 17914642650515969955
20681651 13 17750217163228909528
21524375 3 17626094248757059085
21650355 55 18411704326555657275
2297311 6 18340498862561499582
2306618 200 17895740833962807671
23402539 116 18271242828472758847
23419403 2 17974824462453790645
23503958 25 18059847377347550576
23557571 272 18342748433397648622
23598294 1 18409441483943418986
5104073 3 18410567363335352290
633830 44 17624977127926984629

>  <PUBCHEM_SHAPE_MULTIPOLES>  (1) 
327.06
9.77
3.34
1.37
18.4
1.59
-0.92
-0.57
1.43
-5.4
1.14
-0.26
0.09
-0.44

>  <PUBCHEM_SHAPE_SELFOVERLAP>  (1) 
554.699

>  <PUBCHEM_SHAPE_VOLUME>  (1) 
222.6

>  <PUBCHEM_COORDINATE_TYPE>  (1) 
2
5
10

$$$$
