22094
     RDKit          3D

 22 23  0  0  0  0  0  0  0  0999 V2000
    5.9023   -0.6207   -0.3602 Cl  0  0  0  0  0  0  0  0  0  0  0  0
   -3.2604   -4.5249   -0.2303 Cl  0  0  0  0  0  0  0  0  0  0  0  0
   -1.8737    1.7370   -0.2454 O   0  0  0  0  0  0  0  0  0  0  0  0
   -0.2418    1.0309    1.6708 O   0  0  0  0  0  0  0  0  0  0  0  0
    0.1017    2.2935   -1.2829 O   0  0  0  0  0  0  0  0  0  0  0  0
    0.0414    0.4521    0.3650 C   0  0  0  0  0  0  0  0  0  0  0  0
    1.4980    0.1867    0.1841 C   0  0  0  0  0  0  0  0  0  0  0  0
   -0.8095   -0.8281    0.2123 C   0  0  0  0  0  0  0  0  0  0  0  0
   -0.5325    1.6051   -0.4922 C   0  0  0  0  0  0  0  0  0  0  0  0
   -2.4062    3.0564   -0.4005 C   0  0  0  0  0  0  0  0  0  0  0  0
    1.9672   -0.3374   -1.0203 C   0  0  0  0  0  0  0  0  0  0  0  0
   -1.0563   -1.5752    1.3324 C   0  0  0  0  0  0  0  0  0  0  0  0
    2.3906    0.4616    1.2202 C   0  0  0  0  0  0  0  0  0  0  0  0
   -1.2713   -1.1492   -1.0360 C   0  0  0  0  0  0  0  0  0  0  0  0
    3.3293   -0.5867   -1.1887 C   0  0  0  0  0  0  0  0  0  0  0  0
   -1.8236   -2.7319    1.1940 C   0  0  0  0  0  0  0  0  0  0  0  0
    3.7527    0.2124    1.0516 C   0  0  0  0  0  0  0  0  0  0  0  0
   -2.0388   -2.3058   -1.1743 C   0  0  0  0  0  0  0  0  0  0  0  0
   -3.9018    3.0281   -0.1247 C   0  0  0  0  0  0  0  0  0  0  0  0
   -1.6748    4.0050    0.5371 C   0  0  0  0  0  0  0  0  0  0  0  0
    4.2221   -0.3118   -0.1527 C   0  0  0  0  0  0  0  0  0  0  0  0
   -2.3149   -3.0971   -0.0594 C   0  0  0  0  0  0  0  0  0  0  0  0
  1 21  1  0
  2 22  1  0
  3  9  1  0
  3 10  1  0
  4  6  1  0
  5  9  2  0
  6  7  1  0
  6  8  1  0
  6  9  1  0
  7 11  2  0
  7 13  1  0
  8 12  2  0
  8 14  1  0
 10 19  1  0
 10 20  1  0
 11 15  1  0
 12 16  1  0
 13 17  2  0
 14 18  2  0
 15 21  2  0
 16 22  2  0
 17 21  1  0
 18 22  1  0
M  END
>  <PUBCHEM_COMPOUND_CID>  (1) 
22094

>  <PUBCHEM_CONFORMER_RMSD>  (1) 
0.8

>  <PUBCHEM_CONFORMER_DIVERSEORDER>  (1) 
1
3
2
9
7
8
4
10
5
6
11

>  <PUBCHEM_MMFF94_PARTIAL_CHARGES>  (1) 
29
1 -0.18
10 0.28
11 -0.15
12 -0.15
13 -0.15
14 -0.15
15 -0.15
16 -0.15
17 -0.15
18 -0.15
2 -0.18
21 0.18
22 0.18
24 0.15
25 0.15
26 0.15
27 0.15
28 0.4
29 0.15
3 -0.43
30 0.15
31 0.15
32 0.15
4 -0.68
5 -0.57
6 0.63
7 -0.14
8 -0.14
9 0.66

>  <PUBCHEM_EFFECTIVE_ROTOR_COUNT>  (1) 
5

>  <PUBCHEM_PHARMACOPHORE_FEATURES>  (1) 
6
1 4 acceptor
1 4 donor
1 5 acceptor
3 10 19 20 hydrophobe
6 7 11 13 15 17 21 rings
6 8 12 14 16 18 22 rings

>  <PUBCHEM_HEAVY_ATOM_COUNT>  (1) 
22

>  <PUBCHEM_ATOM_DEF_STEREO_COUNT>  (1) 
0

>  <PUBCHEM_ATOM_UDEF_STEREO_COUNT>  (1) 
0

>  <PUBCHEM_BOND_DEF_STEREO_COUNT>  (1) 
0

>  <PUBCHEM_BOND_UDEF_STEREO_COUNT>  (1) 
0

>  <PUBCHEM_ISOTOPIC_ATOM_COUNT>  (1) 
0

>  <PUBCHEM_COMPONENT_COUNT>  (1) 
1

>  <PUBCHEM_CACTVS_TAUTO_COUNT>  (1) 
1

>  <PUBCHEM_CONFORMER_ID>  (1) 
0000564E00000001

>  <PUBCHEM_MMFF94_ENERGY>  (1) 
63.2877

>  <PUBCHEM_FEATURE_SELFOVERLAP>  (1) 
30.446

>  <PUBCHEM_SHAPE_FINGERPRINT>  (1) 
10254770 206 17183058047812953178
1100329 8 18336821000894001269
11101153 10 18117848931154404972
11488393 25 17619364108561958003
11578080 2 17702100472549815049
116883 192 18339358690330249511
11796584 16 18268716005514662222
12293681 4 18339066212164707255
12363563 72 18120373413297386846
12500047 106 18339360739388352108
12532896 13 18267858380994111733
12549972 3 17845915361334588714
12553582 1 18046643457799691522
12714826 92 18201733872428284718
12788726 201 18261972837068826565
13134695 92 17761762271359350439
13140716 1 18266181810640460929
13681431 1 17757831512815612285
13757389 114 18263659376395623636
13955234 65 17259065091632238209
14955137 171 17185030008498509384
15042514 8 18410016550368756003
15906896 17 18260557688299885427
15927050 60 18195526982691655558
16945 1 18411694379042193053
17357779 13 18128521842230345390
17539 30 18411133671093530911
1813 80 18054244390177268822
19591789 44 17977944588326768447
200 152 13685715188250033504
20197701 30 18120654621890666541
20567600 347 17977106764993517981
20600515 1 17609466656416328872
20602899 9 18126854784970662408
20711985 344 18336538386986020818
21041028 32 18120095232781547239
21452121 199 17975971286871631958
21524375 3 18047751490388985304
22224240 67 18267872679610906929
2255824 54 16899903579378256055
22620623 9 18412833490511213366
23419403 2 17345458457189813425
23557571 272 18192133001234729616
23558518 356 18260548974175452944
23559900 14 18199466564099727246
23598288 3 18115893886786935644
298252 57 18044381530278808968
3729539 64 17476373699222124206
3759504 43 18264491684953571788
404807 78 18113887249273078941
4409770 3 18408885118765595247
458136 41 17691416208962284649
59025328 239 17053265535695185551
59755656 520 18194678172852381684
6138700 20 17114388035755722342
6442390 28 18124038931666408033
6669772 16 17981325590671912902
7364860 26 17184463764294141603
77188 2 18050568744369672525
81228 2 18335411396125823305
9925002 15 18187657941354208093

>  <PUBCHEM_SHAPE_MULTIPOLES>  (1) 
438.88
7.52
5.03
1.31
11.33
0.72
0.17
-2.62
-0.8
-9.81
-0.15
0.21
-0.2
0.35

>  <PUBCHEM_SHAPE_SELFOVERLAP>  (1) 
919.754

>  <PUBCHEM_SHAPE_VOLUME>  (1) 
250.4

>  <PUBCHEM_COORDINATE_TYPE>  (1) 
2
5
10

$$$$
