22115
     RDKit          3D

 25 27  0  0  0  0  0  0  0  0999 V2000
    5.9994    0.3734   -0.9514 Cl  0  0  0  0  0  0  0  0  0  0  0  0
    4.1045    2.9384   -1.5032 Cl  0  0  0  0  0  0  0  0  0  0  0  0
    1.8025   -2.2584    1.1392 S   0  0  0  0  0  0  0  0  0  0  0  0
   -1.3581    2.8715    1.5325 O   0  0  0  0  0  0  0  0  0  0  0  0
    0.8258   -2.9158    0.0064 O   0  0  0  0  0  0  0  0  0  0  0  0
    2.9105   -3.1799    1.3345 O   0  0  0  0  0  0  0  0  0  0  0  0
    0.9784   -1.8362    2.2595 O   0  0  0  0  0  0  0  0  0  0  0  0
   -0.3785    1.0201   -0.2710 N   0  0  0  0  0  0  0  0  0  0  0  0
    0.2651    0.2858    0.5115 N   0  0  0  0  0  0  0  0  0  0  0  0
   -2.6159    0.0566   -0.4814 C   0  0  0  0  0  0  0  0  0  0  0  0
   -3.9805    0.0719   -0.1067 C   0  0  0  0  0  0  0  0  0  0  0  0
   -1.7402    1.0028    0.0757 C   0  0  0  0  0  0  0  0  0  0  0  0
    2.4387   -0.8035    0.4031 C   0  0  0  0  0  0  0  0  0  0  0  0
    1.6270    0.3025    0.1649 C   0  0  0  0  0  0  0  0  0  0  0  0
   -4.4292    1.0326    0.8143 C   0  0  0  0  0  0  0  0  0  0  0  0
   -2.2033    1.9505    0.9890 C   0  0  0  0  0  0  0  0  0  0  0  0
   -2.1673   -0.9043   -1.4021 C   0  0  0  0  0  0  0  0  0  0  0  0
   -4.8562   -0.8743   -0.6635 C   0  0  0  0  0  0  0  0  0  0  0  0
   -3.5453    1.9652    1.3578 C   0  0  0  0  0  0  0  0  0  0  0  0
    3.7878   -0.7629    0.0508 C   0  0  0  0  0  0  0  0  0  0  0  0
   -3.0514   -1.8367   -1.9456 C   0  0  0  0  0  0  0  0  0  0  0  0
    2.1549    1.4489   -0.4231 C   0  0  0  0  0  0  0  0  0  0  0  0
   -4.3934   -1.8217   -1.5771 C   0  0  0  0  0  0  0  0  0  0  0  0
    4.3205    0.3838   -0.5385 C   0  0  0  0  0  0  0  0  0  0  0  0
    3.5039    1.4897   -0.7756 C   0  0  0  0  0  0  0  0  0  0  0  0
  1 24  1  0
  2 25  1  0
  3  5  1  0
  3  6  2  0
  3  7  2  0
  3 13  1  0
  4 16  1  0
  8  9  2  0
  8 12  1  0
  9 14  1  0
 10 11  1  0
 10 12  2  0
 10 17  1  0
 11 15  2  0
 11 18  1  0
 12 16  1  0
 13 14  2  0
 13 20  1  0
 14 22  1  0
 15 19  1  0
 16 19  2  0
 17 21  2  0
 18 23  2  0
 20 24  2  0
 21 23  1  0
 22 25  2  0
 24 25  1  0
M  END
>  <PUBCHEM_COMPOUND_CID>  (1) 
22115

>  <PUBCHEM_CONFORMER_RMSD>  (1) 
0.6

>  <PUBCHEM_CONFORMER_DIVERSEORDER>  (1) 
1
2
13
8
14
15
10
7
16
12
11
3
4
5
6
9

>  <PUBCHEM_MMFF94_PARTIAL_CHARGES>  (1) 
33
1 -0.18
12 0.18
13 -0.01
14 0.18
15 -0.15
16 0.08
17 -0.15
18 -0.15
19 -0.15
2 -0.18
20 -0.15
21 -0.15
22 -0.15
23 -0.15
24 0.18
25 0.18
26 0.15
27 0.15
28 0.15
29 0.15
3 1.49
30 0.15
31 0.15
32 0.15
33 0.15
34 0.45
35 0.5
4 -0.53
5 -0.68
6 -0.65
7 -0.65
8 -0.18
9 -0.18

>  <PUBCHEM_EFFECTIVE_ROTOR_COUNT>  (1) 
3

>  <PUBCHEM_PHARMACOPHORE_FEATURES>  (1) 
8
1 4 donor
1 5 acceptor
1 6 acceptor
1 7 acceptor
4 3 5 6 7 anion
6 10 11 12 15 16 19 rings
6 10 11 17 18 21 23 rings
6 13 14 20 22 24 25 rings

>  <PUBCHEM_HEAVY_ATOM_COUNT>  (1) 
25

>  <PUBCHEM_ATOM_DEF_STEREO_COUNT>  (1) 
0

>  <PUBCHEM_ATOM_UDEF_STEREO_COUNT>  (1) 
0

>  <PUBCHEM_BOND_DEF_STEREO_COUNT>  (1) 
0

>  <PUBCHEM_BOND_UDEF_STEREO_COUNT>  (1) 
0

>  <PUBCHEM_ISOTOPIC_ATOM_COUNT>  (1) 
0

>  <PUBCHEM_COMPONENT_COUNT>  (1) 
1

>  <PUBCHEM_CACTVS_TAUTO_COUNT>  (1) 
3

>  <PUBCHEM_CONFORMER_ID>  (1) 
0000566300000001

>  <PUBCHEM_MMFF94_ENERGY>  (1) 
64.8028

>  <PUBCHEM_FEATURE_SELFOVERLAP>  (1) 
40.678

>  <PUBCHEM_SHAPE_FINGERPRINT>  (1) 
10090160 65 18186800330995529604
10616163 171 18202283598003497519
11135609 187 18116993497294593965
11578080 2 18050531193619342417
11725454 13 15719658970091964740
12107183 9 17690002228255376809
12236239 1 18413110563162419348
12553582 1 18058996394034187791
12788726 201 18201718436426514955
13009979 54 18126835006984342314
13167823 11 18413392024895350037
13383668 90 17986138252642020116
13583140 156 18114191787570300649
13631057 29 18265614467131116171
13726171 33 17489042542305603961
13911987 19 17168155571671122940
14251764 3 16153704344962527530
14289585 56 17967813808663758204
15537594 2 18413114944107890299
15842332 3 18340487764049372169
16752209 62 17774707698316564047
17138139 8 18124299769193509903
17349148 13 18187070750942425832
19319366 153 18264477558759169390
20511986 3 18339348700242158741
20645477 70 17531237336181842010
21033648 144 17604714503301191020
21033648 29 15719387382446721540
21033650 10 17842314486624230444
21054139 6 18410007775792865878
21709351 56 18261110747154887204
2255824 54 18334018259533479992
235170 7 17095509717490576847
23559900 14 17418087728476015089
23598288 3 18057311804364763157
23598291 2 18266175028628670098
25147074 1 18339638945309602595
266924 1 18411697668860567205
312423 11 18411697647512656071
4409770 3 15456760586173340741
474 4 18260274066150951220
602551 16 17346310514081845958
6034566 193 16954524989279642676
633830 44 18335151907455933796
6823239 73 17060050480057624728
7097593 13 18053375501166120779
7970288 3 17630034099841788767
9981440 41 17263835284169708608

>  <PUBCHEM_SHAPE_MULTIPOLES>  (1) 
488.64
11.07
3.2
1.67
2.99
0.55
-0.09
-1.3
3.97
0.98
-0.84
-0.56
0.43
-3.94

>  <PUBCHEM_SHAPE_SELFOVERLAP>  (1) 
1048.549

>  <PUBCHEM_SHAPE_VOLUME>  (1) 
272.5

>  <PUBCHEM_COORDINATE_TYPE>  (1) 
2
5
10

$$$$
