22129
     RDKit          3D

  6  5  0  0  1  0  0  0  0  0999 V2000
    2.0665    0.9237   -0.1510 O   0  0  0  0  0  0  0  0  0  0  0  0
   -0.5136   -1.7009    0.0308 N   0  0  0  0  0  0  0  0  0  0  0  0
    0.0365   -0.3834   -0.2883 C   0  0  0  0  0  0  0  0  0  0  0  0
   -0.8127    0.7399    0.3363 C   0  0  0  0  0  0  0  0  0  0  0  0
    1.4853   -0.3243    0.2068 C   0  0  0  0  0  0  0  0  0  0  0  0
   -2.2620    0.7451   -0.1346 C   0  0  0  0  0  0  0  0  0  0  0  0
  1  5  1  0
  2  3  1  0
  3  4  1  0
  3  5  1  0
  4  6  1  0
M  END
>  <PUBCHEM_COMPOUND_CID>  (1) 
22129

>  <PUBCHEM_CONFORMER_RMSD>  (1) 
0.4

>  <PUBCHEM_CONFORMER_DIVERSEORDER>  (1) 
1
17
5
16
7
15
3
8
11
13
12
6
10
2
14
9
4

>  <PUBCHEM_MMFF94_PARTIAL_CHARGES>  (1) 
7
1 -0.68
15 0.36
16 0.36
17 0.4
2 -0.99
3 0.27
5 0.28

>  <PUBCHEM_EFFECTIVE_ROTOR_COUNT>  (1) 
2

>  <PUBCHEM_PHARMACOPHORE_FEATURES>  (1) 
5
1 1 acceptor
1 1 donor
1 2 cation
1 2 donor
1 6 hydrophobe

>  <PUBCHEM_HEAVY_ATOM_COUNT>  (1) 
6

>  <PUBCHEM_ATOM_DEF_STEREO_COUNT>  (1) 
0

>  <PUBCHEM_ATOM_UDEF_STEREO_COUNT>  (1) 
1

>  <PUBCHEM_BOND_DEF_STEREO_COUNT>  (1) 
0

>  <PUBCHEM_BOND_UDEF_STEREO_COUNT>  (1) 
0

>  <PUBCHEM_ISOTOPIC_ATOM_COUNT>  (1) 
0

>  <PUBCHEM_COMPONENT_COUNT>  (1) 
1

>  <PUBCHEM_CACTVS_TAUTO_COUNT>  (1) 
1

>  <PUBCHEM_CONFORMER_ID>  (1) 
0000567100000001

>  <PUBCHEM_MMFF94_ENERGY>  (1) 
-1.4708

>  <PUBCHEM_FEATURE_SELFOVERLAP>  (1) 
25.371

>  <PUBCHEM_SHAPE_FINGERPRINT>  (1) 
16714656 1 18339928215720384197
20096714 4 18410575059067478392
21040471 1 18411980256312876872
23552449 1 18125439958376885424
5460574 1 9079107869449011025
5943 1 17025735924619127183

>  <PUBCHEM_SHAPE_MULTIPOLES>  (1) 
112.63
2.65
1.33
0.64
0.37
0.5
0.01
-1.03
-0.1
-0.05
0.01
0.03
-0.02
-0.06

>  <PUBCHEM_SHAPE_SELFOVERLAP>  (1) 
193.513

>  <PUBCHEM_SHAPE_VOLUME>  (1) 
76

>  <PUBCHEM_COORDINATE_TYPE>  (1) 
2
5
10

$$$$
