22145
     RDKit          3D

 24 26  0  0  0  0  0  0  0  0999 V2000
   -4.9372    1.7103    0.1314 S   0  0  0  0  0  0  0  0  0  0  0  0
    1.2784   -3.4961   -0.2239 O   0  0  0  0  0  0  0  0  0  0  0  0
   -5.5155    1.7870   -1.3959 O   0  0  0  0  0  0  0  0  0  0  0  0
   -5.8824    0.9175    0.9040 O   0  0  0  0  0  0  0  0  0  0  0  0
   -4.5842    3.0582    0.5488 O   0  0  0  0  0  0  0  0  0  0  0  0
    1.3713   -0.7475   -0.4967 N   0  0  0  0  0  0  0  0  0  0  0  0
    1.8993   -0.4465    0.5970 N   0  0  0  0  0  0  0  0  0  0  0  0
   -1.0502   -0.6439   -0.1767 C   0  0  0  0  0  0  0  0  0  0  0  0
   -2.2711   -1.3219    0.0525 C   0  0  0  0  0  0  0  0  0  0  0  0
   -3.4471    0.8077    0.0124 C   0  0  0  0  0  0  0  0  0  0  0  0
   -3.4609   -0.5813    0.1444 C   0  0  0  0  0  0  0  0  0  0  0  0
    0.1397   -1.3843   -0.2688 C   0  0  0  0  0  0  0  0  0  0  0  0
   -1.0549    0.7544   -0.3075 C   0  0  0  0  0  0  0  0  0  0  0  0
   -2.2662   -2.7201    0.1830 C   0  0  0  0  0  0  0  0  0  0  0  0
   -2.2464    1.4743   -0.2134 C   0  0  0  0  0  0  0  0  0  0  0  0
    0.1261   -2.7731   -0.1364 C   0  0  0  0  0  0  0  0  0  0  0  0
   -1.0747   -3.4397    0.0890 C   0  0  0  0  0  0  0  0  0  0  0  0
    3.1314    0.1902    0.3694 C   0  0  0  0  0  0  0  0  0  0  0  0
    5.5714    1.4511   -0.0787 C   0  0  0  0  0  0  0  0  0  0  0  0
    3.1788    1.5742    0.2323 C   0  0  0  0  0  0  0  0  0  0  0  0
    4.2952   -0.5679    0.2844 C   0  0  0  0  0  0  0  0  0  0  0  0
    4.4019    2.2061    0.0076 C   0  0  0  0  0  0  0  0  0  0  0  0
    5.5182    0.0641    0.0598 C   0  0  0  0  0  0  0  0  0  0  0  0
    6.8791    2.1272   -0.3179 C   0  0  0  0  0  0  0  0  0  0  0  0
  1  3  1  0
  1  4  2  0
  1  5  2  0
  1 10  1  0
  2 16  1  0
  6  7  2  0
  6 12  1  0
  7 18  1  0
  8  9  2  0
  8 12  1  0
  8 13  1  0
  9 11  1  0
  9 14  1  0
 10 11  2  0
 10 15  1  0
 12 16  2  0
 13 15  2  0
 14 17  2  0
 16 17  1  0
 18 20  2  0
 18 21  1  0
 19 22  2  0
 19 23  1  0
 19 24  1  0
 20 22  1  0
 21 23  2  0
M  END
>  <PUBCHEM_COMPOUND_CID>  (1) 
22145

>  <PUBCHEM_CONFORMER_RMSD>  (1) 
0.6

>  <PUBCHEM_CONFORMER_DIVERSEORDER>  (1) 
1
5
4
2
6
3

>  <PUBCHEM_MMFF94_PARTIAL_CHARGES>  (1) 
33
1 1.49
10 -0.01
11 -0.15
12 0.18
13 -0.15
14 -0.15
15 -0.15
16 0.08
17 -0.15
18 0.18
19 -0.14
2 -0.53
20 -0.15
21 -0.15
22 -0.15
23 -0.15
24 0.14
25 0.15
26 0.15
27 0.15
28 0.15
29 0.15
3 -0.68
30 0.15
31 0.15
32 0.15
33 0.15
34 0.45
35 0.5
4 -0.65
5 -0.65
6 -0.18
7 -0.18

>  <PUBCHEM_EFFECTIVE_ROTOR_COUNT>  (1) 
3

>  <PUBCHEM_PHARMACOPHORE_FEATURES>  (1) 
8
1 2 donor
1 3 acceptor
1 4 acceptor
1 5 acceptor
4 1 3 4 5 anion
6 18 19 20 21 22 23 rings
6 8 9 10 11 13 15 rings
6 8 9 12 14 16 17 rings

>  <PUBCHEM_HEAVY_ATOM_COUNT>  (1) 
24

>  <PUBCHEM_ATOM_DEF_STEREO_COUNT>  (1) 
0

>  <PUBCHEM_ATOM_UDEF_STEREO_COUNT>  (1) 
0

>  <PUBCHEM_BOND_DEF_STEREO_COUNT>  (1) 
0

>  <PUBCHEM_BOND_UDEF_STEREO_COUNT>  (1) 
0

>  <PUBCHEM_ISOTOPIC_ATOM_COUNT>  (1) 
0

>  <PUBCHEM_COMPONENT_COUNT>  (1) 
1

>  <PUBCHEM_CACTVS_TAUTO_COUNT>  (1) 
3

>  <PUBCHEM_CONFORMER_ID>  (1) 
0000568100000001

>  <PUBCHEM_MMFF94_ENERGY>  (1) 
61.4492

>  <PUBCHEM_FEATURE_SELFOVERLAP>  (1) 
40.678

>  <PUBCHEM_SHAPE_FINGERPRINT>  (1) 
10 15 18187089464104495305
10050765 1 18411419475762045583
10165383 225 18412266129373418345
10411042 1 17546165659156719927
10493431 412 18410014329897011693
12107183 9 18263634092476786546
12173636 292 18267859669816889366
12390115 104 18342189876726214193
12422481 6 17168428168808242069
12769317 202 18270106903927448953
12788726 201 18046614878876554747
13540713 4 18337973198590925595
13785724 45 17833828271144935018
138480 1 17546445579196429251
14257110 125 18410011035256266489
14767858 380 18271507764031092245
14787075 74 18201714047101956417
14790565 3 18411422782385456865
15196674 1 18410572920479681120
15778101 99 18410296956167680732
17834072 32 18410573989683840760
17980427 23 17967536813169235759
18785283 64 18192992612789873386
19784866 170 18335423443809573995
21033648 29 18200586025291424576
21236236 1 18340767147814943855
21279426 13 18343312457388488150
21421861 104 17895458251923745650
21756936 100 18342731970756237612
23559900 14 18272654511635751870
283562 15 18264763445184439411
2838139 119 18059848441866748521
335352 9 18411418368076480926
350125 39 18339081618111748569
4073 2 18114466786115702274
4214541 1 18338516464929736058
474 4 18339920407670326171
5104073 3 18188761864609001792
59682541 35 18261405468533185233
59755656 520 18410007741042783078
6327066 14 18335414664749111629
633830 44 18271239430820935350
77188 2 17041761461203021343
7808743 9 18410291445212956792
9981440 41 18408324401863300787

>  <PUBCHEM_SHAPE_MULTIPOLES>  (1) 
464.32
14.11
3.75
0.75
10.72
2.28
0.05
-14.24
-0.1
-2.33
0.06
-0.43
-0.17
-0.07

>  <PUBCHEM_SHAPE_SELFOVERLAP>  (1) 
1010.156

>  <PUBCHEM_SHAPE_VOLUME>  (1) 
253.7

>  <PUBCHEM_COORDINATE_TYPE>  (1) 
2
5
10

$$$$
