22150
     RDKit          3D

 33 36  0  0  0  0  0  0  0  0999 V2000
   -3.9360   -1.4051    0.9661 O   0  0  0  0  0  0  0  0  0  0  0  0
    5.4769   -3.7248   -0.2122 O   0  0  0  0  0  0  0  0  0  0  0  0
    0.2335    2.7951   -0.8526 O   0  0  0  0  0  0  0  0  0  0  0  0
    0.4855    2.8898    1.3334 O   0  0  0  0  0  0  0  0  0  0  0  0
   -7.2209   -0.4235   -0.3693 N   0  0  0  0  0  0  0  0  0  0  0  0
    0.7612    2.4636    0.2105 N   0  0  0  0  0  0  0  0  0  0  0  0
   -7.1574    1.0134   -0.6347 C   0  0  0  0  0  0  0  0  0  0  0  0
   -8.5935   -0.6677    0.0733 C   0  0  0  0  0  0  0  0  0  0  0  0
   -8.4720    1.2854   -1.3509 C   0  0  0  0  0  0  0  0  0  0  0  0
   -9.4167    0.1828   -0.8829 C   0  0  0  0  0  0  0  0  0  0  0  0
   -6.2360   -0.8510    0.6133 C   0  0  0  0  0  0  0  0  0  0  0  0
   -4.8672   -1.0043   -0.0304 C   0  0  0  0  0  0  0  0  0  0  0  0
   -2.6331   -1.0205    0.7849 C   0  0  0  0  0  0  0  0  0  0  0  0
    0.0189   -0.2377    0.4159 C   0  0  0  0  0  0  0  0  0  0  0  0
   -1.8127   -0.7939    1.8901 C   0  0  0  0  0  0  0  0  0  0  0  0
   -2.1276   -0.8556   -0.5047 C   0  0  0  0  0  0  0  0  0  0  0  0
    1.4015    0.1703    0.2236 C   0  0  0  0  0  0  0  0  0  0  0  0
   -0.4867   -0.4026    1.7055 C   0  0  0  0  0  0  0  0  0  0  0  0
   -0.8017   -0.4641   -0.6891 C   0  0  0  0  0  0  0  0  0  0  0  0
    2.4852   -0.8653    0.1077 C   0  0  0  0  0  0  0  0  0  0  0  0
    1.8053    1.4801    0.1326 C   0  0  0  0  0  0  0  0  0  0  0  0
    3.1756    1.9801   -0.0466 C   0  0  0  0  0  0  0  0  0  0  0  0
    2.8305   -1.3765   -1.1434 C   0  0  0  0  0  0  0  0  0  0  0  0
    3.1454   -1.3149    1.2512 C   0  0  0  0  0  0  0  0  0  0  0  0
    3.8358   -2.3373   -1.2510 C   0  0  0  0  0  0  0  0  0  0  0  0
    4.1508   -2.2758    1.1437 C   0  0  0  0  0  0  0  0  0  0  0  0
    3.6833    2.1781   -1.3307 C   0  0  0  0  0  0  0  0  0  0  0  0
    3.9683    2.2573    1.0671 C   0  0  0  0  0  0  0  0  0  0  0  0
    4.4959   -2.7870   -0.1074 C   0  0  0  0  0  0  0  0  0  0  0  0
    4.9837    2.6533   -1.5010 C   0  0  0  0  0  0  0  0  0  0  0  0
    5.2686    2.7325    0.8968 C   0  0  0  0  0  0  0  0  0  0  0  0
    5.7763    2.9304   -0.3873 C   0  0  0  0  0  0  0  0  0  0  0  0
    5.7793   -4.2044   -1.5216 C   0  0  0  0  0  0  0  0  0  0  0  0
  1 12  1  0
  1 13  1  0
  2 29  1  0
  2 33  1  0
  3  6  1  0
  4  6  2  0
  5  7  1  0
  5  8  1  0
  5 11  1  0
  6 21  1  0
  7  9  1  0
  8 10  1  0
  9 10  1  0
 11 12  1  0
 13 15  2  0
 13 16  1  0
 14 17  1  0
 14 18  2  0
 14 19  1  0
 15 18  1  0
 16 19  2  0
 17 20  1  0
 17 21  2  0
 20 23  2  0
 20 24  1  0
 21 22  1  0
 22 27  2  0
 22 28  1  0
 23 25  1  0
 24 26  2  0
 25 29  2  0
 26 29  1  0
 27 30  1  0
 28 31  2  0
 30 32  2  0
 31 32  1  0
M  CHG  2   3  -1   6   1
M  END
>  <PUBCHEM_COMPOUND_CID>  (1) 
22150

>  <PUBCHEM_CONFORMER_RMSD>  (1) 
1

>  <PUBCHEM_CONFORMER_DIVERSEORDER>  (1) 
1
3
13
11
5
7
6
10
2
8
4
12
9

>  <PUBCHEM_MMFF94_PARTIAL_CHARGES>  (1) 
44
1 -0.36
11 0.27
12 0.28
13 0.08
14 0.03
15 -0.15
16 -0.15
17 -0.06
18 -0.15
19 -0.15
2 -0.36
20 0.03
21 0.18
22 0.03
23 -0.15
24 -0.15
25 -0.15
26 -0.15
27 -0.15
28 -0.15
29 0.08
3 -0.52
30 -0.15
31 -0.15
32 -0.15
33 0.28
4 -0.52
46 0.15
47 0.15
48 0.15
49 0.15
5 -0.81
50 0.15
51 0.15
52 0.15
53 0.15
54 0.15
55 0.15
56 0.15
57 0.15
58 0.15
6 0.84
7 0.27
8 0.27

>  <PUBCHEM_EFFECTIVE_ROTOR_COUNT>  (1) 
10

>  <PUBCHEM_PHARMACOPHORE_FEATURES>  (1) 
10
1 1 acceptor
1 2 acceptor
1 3 acceptor
1 3 anion
1 4 acceptor
1 5 cation
5 5 7 8 9 10 rings
6 13 14 15 16 18 19 rings
6 20 23 24 25 26 29 rings
6 22 27 28 30 31 32 rings

>  <PUBCHEM_HEAVY_ATOM_COUNT>  (1) 
33

>  <PUBCHEM_ATOM_DEF_STEREO_COUNT>  (1) 
0

>  <PUBCHEM_ATOM_UDEF_STEREO_COUNT>  (1) 
0

>  <PUBCHEM_BOND_DEF_STEREO_COUNT>  (1) 
0

>  <PUBCHEM_BOND_UDEF_STEREO_COUNT>  (1) 
1

>  <PUBCHEM_ISOTOPIC_ATOM_COUNT>  (1) 
0

>  <PUBCHEM_COMPONENT_COUNT>  (1) 
1

>  <PUBCHEM_CACTVS_TAUTO_COUNT>  (1) 
1

>  <PUBCHEM_CONFORMER_ID>  (1) 
0000568600000001

>  <PUBCHEM_MMFF94_ENERGY>  (1) 
122.0922

>  <PUBCHEM_FEATURE_SELFOVERLAP>  (1) 
50.827

>  <PUBCHEM_SHAPE_FINGERPRINT>  (1) 
10411042 1 18196374715748645830
10554248 39 18271800216648903215
10906281 52 17531813604924040476
11093857 5 17024326303774277523
11181472 205 18341620308772171529
11607047 191 17630026395556520616
13149001 5 17974277726255651740
13383665 225 17822587052591937156
14118638 360 18201729461586854785
14747281 78 15430327970596683516
15183329 4 17989211465040455481
1577012 14 17989215846065379361
1813 80 18057058917392299894
20771845 65 17988357058511596746
21033648 29 17240207655714532827
21133410 58 18340483379484992607
21781055 127 15574710244806934480
23559900 14 17385739014361216878
249057 25 17775013336768953827
255183 451 18200040517575063390
3411729 13 18261390109302658320
3633792 109 18342742905563859227
4073 2 17895195579871277771
4093350 32 18412260649237572663
4144715 1 18260837029479956923
57359948 33 17894911840823952853
59682541 52 18412547608818890223
70251023 43 18339083671059143634

>  <PUBCHEM_SHAPE_MULTIPOLES>  (1) 
645.69
22.17
4.26
1.5
64.07
0.73
0.11
0.41
-7.75
-12.17
-1.08
-0.66
0.12
1.97

>  <PUBCHEM_SHAPE_SELFOVERLAP>  (1) 
1393.724

>  <PUBCHEM_SHAPE_VOLUME>  (1) 
356.5

>  <PUBCHEM_COORDINATE_TYPE>  (1) 
2
5
10

$$$$
