22157
     RDKit          3D

 17 20  0  0  0  0  0  0  0  0999 V2000
   -4.7229    0.8282   -0.0017 N   0  0  0  0  0  0  0  0  0  0  0  0
    1.1869    0.0415    0.0004 C   0  0  0  0  0  0  0  0  0  0  0  0
    0.2802    1.0921    0.0008 C   0  0  0  0  0  0  0  0  0  0  0  0
    0.5167   -1.1740    0.0004 C   0  0  0  0  0  0  0  0  0  0  0  0
   -1.0604    0.5230    0.0009 C   0  0  0  0  0  0  0  0  0  0  0  0
   -0.9123   -0.8941    0.0005 C   0  0  0  0  0  0  0  0  0  0  0  0
    2.5726    0.1862   -0.0003 C   0  0  0  0  0  0  0  0  0  0  0  0
    0.7544    2.3906    0.0002 C   0  0  0  0  0  0  0  0  0  0  0  0
    1.2490   -2.3464    0.0002 C   0  0  0  0  0  0  0  0  0  0  0  0
   -2.3107    1.1112    0.0008 C   0  0  0  0  0  0  0  0  0  0  0  0
   -2.0139   -1.7282    0.0000 C   0  0  0  0  0  0  0  0  0  0  0  0
    3.0513    1.5109   -0.0005 C   0  0  0  0  0  0  0  0  0  0  0  0
    3.3145   -1.0111   -0.0007 C   0  0  0  0  0  0  0  0  0  0  0  0
    2.1460    2.5942   -0.0003 C   0  0  0  0  0  0  0  0  0  0  0  0
    2.6525   -2.2580   -0.0004 C   0  0  0  0  0  0  0  0  0  0  0  0
   -3.4253    0.2674    0.0001 C   0  0  0  0  0  0  0  0  0  0  0  0
   -3.2788   -1.1335   -0.0002 C   0  0  0  0  0  0  0  0  0  0  0  0
  1 16  1  0
  2  3  1  0
  2  4  2  0
  2  7  1  0
  3  5  1  0
  3  8  2  0
  4  6  1  0
  4  9  1  0
  5  6  2  0
  5 10  1  0
  6 11  1  0
  7 12  1  0
  7 13  2  0
  8 14  1  0
  9 15  2  0
 10 16  2  0
 11 17  2  0
 12 14  2  0
 13 15  1  0
 16 17  1  0
M  END
>  <PUBCHEM_COMPOUND_CID>  (1) 
22157

>  <PUBCHEM_CONFORMER_RMSD>  (1) 
0.4

>  <PUBCHEM_CONFORMER_DIVERSEORDER>  (1) 
1

>  <PUBCHEM_MMFF94_PARTIAL_CHARGES>  (1) 
22
1 -0.9
10 -0.15
11 -0.15
12 -0.15
13 -0.15
14 -0.15
15 -0.15
16 0.1
17 -0.15
18 0.15
19 0.15
20 0.15
21 0.15
22 0.15
23 0.15
24 0.15
25 0.15
26 0.15
27 0.4
28 0.4
8 -0.15
9 -0.15

>  <PUBCHEM_EFFECTIVE_ROTOR_COUNT>  (1) 
0

>  <PUBCHEM_PHARMACOPHORE_FEATURES>  (1) 
6
1 1 cation
1 1 donor
5 2 3 4 5 6 rings
6 2 3 7 8 12 14 rings
6 2 4 7 9 13 15 rings
6 5 6 10 11 16 17 rings

>  <PUBCHEM_HEAVY_ATOM_COUNT>  (1) 
17

>  <PUBCHEM_ATOM_DEF_STEREO_COUNT>  (1) 
0

>  <PUBCHEM_ATOM_UDEF_STEREO_COUNT>  (1) 
0

>  <PUBCHEM_BOND_DEF_STEREO_COUNT>  (1) 
0

>  <PUBCHEM_BOND_UDEF_STEREO_COUNT>  (1) 
0

>  <PUBCHEM_ISOTOPIC_ATOM_COUNT>  (1) 
0

>  <PUBCHEM_COMPONENT_COUNT>  (1) 
1

>  <PUBCHEM_CACTVS_TAUTO_COUNT>  (1) 
1

>  <PUBCHEM_CONFORMER_ID>  (1) 
0000568D00000001

>  <PUBCHEM_MMFF94_ENERGY>  (1) 
83.1424

>  <PUBCHEM_FEATURE_SELFOVERLAP>  (1) 
30.751

>  <PUBCHEM_SHAPE_FINGERPRINT>  (1) 
10411042 1 17906453225297342607
10608611 8 18408320003853238125
10616163 171 18267306628179043863
10967382 1 18410575080484221124
10980938 120 18410575119186399616
11132069 177 18410004451102907512
11471102 20 18410570678227151909
11578080 2 17096628925806366918
11680986 33 18409454708226785827
116883 192 18054230929749295420
12553582 1 18194117404674177226
13140716 1 18338230565435201368
13380535 76 18263922318308317898
138480 1 18338516340133058848
13897977 150 18337669818900242357
14178342 30 18196355121210406394
14648413 74 18336266837609932035
14790565 3 16685152964548649480
15196674 1 18410855494503750407
15219456 202 18335986453892608987
15442244 35 18340488842112459161
15475509 8 17412213978472824789
15536298 74 18343302578398977130
16945 1 18410575058924943140
18186145 218 18200326531355888985
193761 8 18194401323492320198
19591789 44 18050292771351660438
20510252 161 17550394372085894721
20559304 39 18411419501267130896
20645477 70 18413669102215972375
21267235 1 18339652143749676579
21501502 16 18339077193857778567
221490 88 18336554896761490539
22854114 111 18409730694103247821
2334 1 18266459995577290112
23366157 5 18040996276111226868
23463225 33 18410291389383565474
23559900 14 18413102853701150810
25 1 18335700589211408468
2748010 2 18337954596822848220
3071541 12 18411140276811234692
3091708 16 9432730591793175354
335352 9 18338516331126477751
34934 24 18411693271041026338
352729 6 17472700703002920294
5104073 3 18410013256186785195
53812653 166 18341610468648272064
54173680 148 17185312041926469802
5939293 188 18411978066190831248
7364860 26 18412826893309350336
7832392 63 18413105069645760639
81228 2 17764882294490581042
84936 182 18058447784322797744
8809292 202 18260271845331138595
9709674 26 18410296947219524207

>  <PUBCHEM_SHAPE_MULTIPOLES>  (1) 
344.87
6.17
2.77
0.61
4.83
0.17
0
0.29
0
-1.89
0
-0.02
0
0

>  <PUBCHEM_SHAPE_SELFOVERLAP>  (1) 
804.263

>  <PUBCHEM_SHAPE_VOLUME>  (1) 
177.4

>  <PUBCHEM_COORDINATE_TYPE>  (1) 
2
5
10

$$$$
