22165
     RDKit          3D

 17 17  0  0  1  0  0  0  0  0999 V2000
    1.7205    1.7104    1.2175 O   0  0  0  0  0  0  0  0  0  0  0  0
    2.0033    1.7601   -1.0326 O   0  0  0  0  0  0  0  0  0  0  0  0
    5.5931   -0.3641   -0.5619 O   0  0  0  0  0  0  0  0  0  0  0  0
    4.5799   -0.0786    1.4554 O   0  0  0  0  0  0  0  0  0  0  0  0
    0.8747   -0.9238   -0.6470 N   0  0  0  0  0  0  0  0  0  0  0  0
    2.0044   -0.3933    0.1163 C   0  0  0  0  0  0  0  0  0  0  0  0
   -0.3849   -0.4357   -0.1081 C   0  0  0  0  0  0  0  0  0  0  0  0
   -1.5732   -0.9845   -0.9015 C   0  0  0  0  0  0  0  0  0  0  0  0
    3.3181   -0.9502   -0.4463 C   0  0  0  0  0  0  0  0  0  0  0  0
   -2.8850   -0.4766   -0.3796 C   0  0  0  0  0  0  0  0  0  0  0  0
    1.9229    1.1211    0.0083 C   0  0  0  0  0  0  0  0  0  0  0  0
   -3.5534   -1.1869    0.6113 C   0  0  0  0  0  0  0  0  0  0  0  0
   -3.4209    0.6998   -0.8917 C   0  0  0  0  0  0  0  0  0  0  0  0
    4.5311   -0.4191    0.2831 C   0  0  0  0  0  0  0  0  0  0  0  0
   -4.7733   -0.7149    1.0963 C   0  0  0  0  0  0  0  0  0  0  0  0
   -4.6405    1.1718   -0.4068 C   0  0  0  0  0  0  0  0  0  0  0  0
   -5.3167    0.4645    0.5872 C   0  0  0  0  0  0  0  0  0  0  0  0
  1 11  1  0
  2 11  2  0
  3 14  1  0
  4 14  2  0
  5  6  1  0
  5  7  1  0
  6  9  1  0
  6 11  1  0
  7  8  1  0
  8 10  1  0
  9 14  1  0
 10 12  2  0
 10 13  1  0
 12 15  1  0
 13 16  2  0
 15 17  2  0
 16 17  1  0
M  END
>  <PUBCHEM_COMPOUND_CID>  (1) 
22165

>  <PUBCHEM_CONFORMER_RMSD>  (1) 
0.8

>  <PUBCHEM_CONFORMER_DIVERSEORDER>  (1) 
1
55
19
5
24
61
12
28
11
26
53
20
64
35
58
22
45
36
44
17
62
25
49
15
50
23
63
57
34
9
56
41
8
52
65
43
47
21
2
60
31
7
10
30
6
59
33
3
38
27
42
46
48
16
40
32
54
4
13
14
18
51
37
29
39

>  <PUBCHEM_MMFF94_PARTIAL_CHARGES>  (1) 
25
1 -0.65
10 -0.14
11 0.66
12 -0.15
13 -0.15
14 0.66
15 -0.15
16 -0.15
17 -0.15
2 -0.57
23 0.36
26 0.15
27 0.15
28 0.15
29 0.15
3 -0.65
30 0.15
31 0.5
32 0.5
4 -0.57
5 -0.9
6 0.33
7 0.27
8 0.14
9 0.06

>  <PUBCHEM_EFFECTIVE_ROTOR_COUNT>  (1) 
7

>  <PUBCHEM_PHARMACOPHORE_FEATURES>  (1) 
9
1 1 acceptor
1 2 acceptor
1 3 acceptor
1 4 acceptor
1 5 cation
1 5 donor
3 1 2 11 anion
3 3 4 14 anion
6 10 12 13 15 16 17 rings

>  <PUBCHEM_HEAVY_ATOM_COUNT>  (1) 
17

>  <PUBCHEM_ATOM_DEF_STEREO_COUNT>  (1) 
0

>  <PUBCHEM_ATOM_UDEF_STEREO_COUNT>  (1) 
1

>  <PUBCHEM_BOND_DEF_STEREO_COUNT>  (1) 
0

>  <PUBCHEM_BOND_UDEF_STEREO_COUNT>  (1) 
0

>  <PUBCHEM_ISOTOPIC_ATOM_COUNT>  (1) 
0

>  <PUBCHEM_COMPONENT_COUNT>  (1) 
1

>  <PUBCHEM_CACTVS_TAUTO_COUNT>  (1) 
1

>  <PUBCHEM_CONFORMER_ID>  (1) 
0000569500000001

>  <PUBCHEM_MMFF94_ENERGY>  (1) 
27.9915

>  <PUBCHEM_FEATURE_SELFOVERLAP>  (1) 
45.787

>  <PUBCHEM_SHAPE_FINGERPRINT>  (1) 
10354089 29 18341897385206102331
10366900 7 17748821938934541219
11089746 13 15913321391000900378
11405975 8 18334015025285949819
12236239 1 16200430260954881383
12507557 5 18202565094576013089
128620 24 8070028873981441107
13675066 3 18343299288185210946
13922767 16 18201996642468811430
14251718 22 9295283937265342011
14251731 8 18260830380031422381
14341114 176 18040442113376271005
14528608 73 11959720595131145554
15375358 24 11815897864125875221
17834072 33 16153432761343134974
18186145 218 18113891684961165879
18222031 100 15285637759229616311
18785283 64 18042405914501249924
19433438 28 18260551147523512529
20279233 1 12103848977346177319
21054139 6 10953749944641818704
21503847 285 17676488371256342973
21618674 57 18113336396992050299
23402539 116 14117796899181753562
23559900 14 17894348912888504237
351380 180 18342173354572530301
3545911 37 18131635573445548599
42 15 17894632556470459879
474229 33 10665234752287087984
5104073 3 18261959656046479817
7495541 125 17240489134521798204
9971528 1 17132120126090334820

>  <PUBCHEM_SHAPE_MULTIPOLES>  (1) 
321.39
12.69
1.42
1.1
1.51
0.46
0.18
-0.24
2.29
-0.15
-0.04
0.05
0.07
0.57

>  <PUBCHEM_SHAPE_SELFOVERLAP>  (1) 
654.061

>  <PUBCHEM_SHAPE_VOLUME>  (1) 
185.4

>  <PUBCHEM_COORDINATE_TYPE>  (1) 
2
5
10

$$$$
