22160
     RDKit          3D

 18 18  0  0  1  0  0  0  0  0999 V2000
    5.3269    1.5617    0.3666 Cl  0  0  0  0  0  0  0  0  0  0  0  0
   -3.6427   -0.3655   -0.2392 O   0  0  0  0  0  0  0  0  0  0  0  0
   -2.1870    2.0439    1.3076 O   0  0  0  0  0  0  0  0  0  0  0  0
   -2.0010   -1.5733    0.8376 O   0  0  0  0  0  0  0  0  0  0  0  0
   -0.0853    0.1320    0.0460 N   0  0  0  0  0  0  0  0  0  0  0  0
    0.6519   -0.0679   -0.9423 N   0  0  0  0  0  0  0  0  0  0  0  0
   -1.4504    0.4689   -0.3585 C   0  0  0  0  0  0  0  0  0  0  0  0
   -1.7149    1.8569    0.1861 C   0  0  0  0  0  0  0  0  0  0  0  0
   -2.3625   -0.6119    0.1716 C   0  0  0  0  0  0  0  0  0  0  0  0
   -4.6171   -1.3340    0.1615 C   0  0  0  0  0  0  0  0  0  0  0  0
   -1.3417    3.0169   -0.7015 C   0  0  0  0  0  0  0  0  0  0  0  0
    1.9495   -0.3862   -0.5079 C   0  0  0  0  0  0  0  0  0  0  0  0
   -5.9727   -0.9183   -0.3689 C   0  0  0  0  0  0  0  0  0  0  0  0
    2.8816    0.6286   -0.3116 C   0  0  0  0  0  0  0  0  0  0  0  0
    2.2940   -1.7146   -0.2764 C   0  0  0  0  0  0  0  0  0  0  0  0
    4.1698    0.3120    0.1202 C   0  0  0  0  0  0  0  0  0  0  0  0
    3.5819   -2.0312    0.1554 C   0  0  0  0  0  0  0  0  0  0  0  0
    4.5197   -1.0180    0.3538 C   0  0  0  0  0  0  0  0  0  0  0  0
  1 16  1  0
  2  9  1  0
  2 10  1  0
  3  8  2  0
  4  9  2  0
  5  6  2  0
  5  7  1  0
  6 12  1  0
  7  8  1  0
  7  9  1  0
  8 11  1  0
 10 13  1  0
 12 14  2  0
 12 15  1  0
 14 16  1  0
 15 17  2  0
 16 18  2  0
 17 18  1  0
M  END
>  <PUBCHEM_COMPOUND_CID>  (1) 
22160

>  <PUBCHEM_CONFORMER_RMSD>  (1) 
0.8

>  <PUBCHEM_CONFORMER_DIVERSEORDER>  (1) 
1
135
151
61
55
118
92
71
60
122
18
100
102
50
115
59
37
6
34
40
29
89
109
145
124
90
72
133
150
67
97
152
63
19
17
123
44
136
80
43
140
111
8
22
129
93
83
155
84
116
25
32
56
78
154
138
128
120
53
79
105
48
16
58
46
62
142
131
15
94
87
74
30
26
20
13
88
66
86
106
39
121
127
141
157
156
99
107
158
137
148
51
96
68
108
125
126
101
144
139
73
5
91
70
119
75
134
153
113
149
31
98
117
112
76
114
33
95
77
132
69
21
64
45
42
54
103
10
11
36
49
23
57
9
104
52
14
4
82
81
85
7
146
47
65
27
35
12
3
143
41
110
28
130
2
24
147
38

>  <PUBCHEM_MMFF94_PARTIAL_CHARGES>  (1) 
21
1 -0.18
10 0.28
11 0.06
12 0.18
14 -0.15
15 -0.15
16 0.18
17 -0.15
18 -0.15
2 -0.43
28 0.15
29 0.15
3 -0.57
30 0.15
31 0.15
4 -0.57
5 -0.25
6 -0.18
7 0.37
8 0.45
9 0.66

>  <PUBCHEM_EFFECTIVE_ROTOR_COUNT>  (1) 
6

>  <PUBCHEM_PHARMACOPHORE_FEATURES>  (1) 
4
1 3 acceptor
1 4 acceptor
1 7 anion
6 12 14 15 16 17 18 rings

>  <PUBCHEM_HEAVY_ATOM_COUNT>  (1) 
18

>  <PUBCHEM_ATOM_DEF_STEREO_COUNT>  (1) 
0

>  <PUBCHEM_ATOM_UDEF_STEREO_COUNT>  (1) 
1

>  <PUBCHEM_BOND_DEF_STEREO_COUNT>  (1) 
0

>  <PUBCHEM_BOND_UDEF_STEREO_COUNT>  (1) 
0

>  <PUBCHEM_ISOTOPIC_ATOM_COUNT>  (1) 
0

>  <PUBCHEM_COMPONENT_COUNT>  (1) 
1

>  <PUBCHEM_CACTVS_TAUTO_COUNT>  (1) 
5

>  <PUBCHEM_CONFORMER_ID>  (1) 
0000569000000001

>  <PUBCHEM_MMFF94_ENERGY>  (1) 
30.5185

>  <PUBCHEM_FEATURE_SELFOVERLAP>  (1) 
20.297

>  <PUBCHEM_SHAPE_FINGERPRINT>  (1) 
10366900 7 18411707616474219586
10447042 23 18410846681357895271
10608611 8 18338514128314845124
11045515 52 18040713675911692285
12916754 54 18341052900314979894
13533116 47 18335417941920148970
14251764 18 18131356324126690299
14289901 80 18343298150557006362
17492 89 18267864986876021558
200 152 18411132541749117191
20279233 1 15936413334064734786
20510252 161 18412263896021670225
20645477 70 18409446956096198886
20681677 76 18337665322370599172
21065198 48 18412266095345554098
21065199 12 18339921516025089650
21267235 1 18412832361277913734
21652331 79 18341891922361006212
22079108 93 14045736041380235095
23402539 116 18413102858270528823
23419403 2 17987213647865209249
23557571 272 18272942595791372308
23559900 14 18262235646075659168
26918003 58 18040997383849169235
2871803 45 18261110759807712522
3009799 131 18335975433576116429
312423 11 18340218401128154758
347723 3 16660357091787646245
4214541 1 18338798888688095696
5104073 3 18341327782780636090
5283173 99 18114450164070417253
5374978 207 18410853274232622298
5486654 2 18339364187999411526
9709674 26 18338242557058420062

>  <PUBCHEM_SHAPE_MULTIPOLES>  (1) 
344.73
11.58
2.51
0.83
2.77
1.4
-0.06
-3.18
-0.78
0.25
-0.08
0.16
0.18
0.08

>  <PUBCHEM_SHAPE_SELFOVERLAP>  (1) 
694.512

>  <PUBCHEM_SHAPE_VOLUME>  (1) 
202.8

>  <PUBCHEM_COORDINATE_TYPE>  (1) 
2
5
10

$$$$
