22161
     RDKit          3D

 18 18  0  0  1  0  0  0  0  0999 V2000
    6.1744   -0.6651    0.7093 Cl  0  0  0  0  0  0  0  0  0  0  0  0
   -3.6514   -0.5592   -0.2304 O   0  0  0  0  0  0  0  0  0  0  0  0
   -2.4170    1.8990    1.4279 O   0  0  0  0  0  0  0  0  0  0  0  0
   -1.8767   -1.6501    0.7562 O   0  0  0  0  0  0  0  0  0  0  0  0
   -0.1575    0.2808    0.0349 N   0  0  0  0  0  0  0  0  0  0  0  0
    0.5774    0.2101   -0.9725 N   0  0  0  0  0  0  0  0  0  0  0  0
   -1.5569    0.4987   -0.3323 C   0  0  0  0  0  0  0  0  0  0  0  0
   -1.9496    1.8214    0.2917 C   0  0  0  0  0  0  0  0  0  0  0  0
   -2.3455   -0.6960    0.1492 C   0  0  0  0  0  0  0  0  0  0  0  0
   -4.5158   -1.6417    0.1289 C   0  0  0  0  0  0  0  0  0  0  0  0
   -1.7116    3.0592   -0.5352 C   0  0  0  0  0  0  0  0  0  0  0  0
    1.9084    0.0024   -0.5735 C   0  0  0  0  0  0  0  0  0  0  0  0
   -5.9160   -1.3379   -0.3598 C   0  0  0  0  0  0  0  0  0  0  0  0
    2.3890   -1.2944   -0.4203 C   0  0  0  0  0  0  0  0  0  0  0  0
    2.7364    1.0949   -0.3334 C   0  0  0  0  0  0  0  0  0  0  0  0
    3.7101   -1.5009   -0.0232 C   0  0  0  0  0  0  0  0  0  0  0  0
    4.0576    0.8885    0.0637 C   0  0  0  0  0  0  0  0  0  0  0  0
    4.5445   -0.4096    0.2187 C   0  0  0  0  0  0  0  0  0  0  0  0
  1 18  1  0
  2  9  1  0
  2 10  1  0
  3  8  2  0
  4  9  2  0
  5  6  2  0
  5  7  1  0
  6 12  1  0
  7  8  1  0
  7  9  1  0
  8 11  1  0
 10 13  1  0
 12 14  2  0
 12 15  1  0
 14 16  1  0
 15 17  2  0
 16 18  2  0
 17 18  1  0
M  END
>  <PUBCHEM_COMPOUND_CID>  (1) 
22161

>  <PUBCHEM_CONFORMER_RMSD>  (1) 
0.8

>  <PUBCHEM_CONFORMER_DIVERSEORDER>  (1) 
1
59
82
45
80
39
68
22
23
74
53
29
56
34
72
10
58
79
41
43
14
81
64
9
69
65
67
55
42
3
62
46
18
54
26
27
44
77
49
37
52
70
25
50
78
12
11
51
47
28
35
19
66
60
73
38
16
13
4
61
76
7
20
30
21
75
48
2
5
24
63
57
15
6
31
36
8
40
71
33
32
17

>  <PUBCHEM_MMFF94_PARTIAL_CHARGES>  (1) 
21
1 -0.18
10 0.28
11 0.06
12 0.18
14 -0.15
15 -0.15
16 -0.15
17 -0.15
18 0.18
2 -0.43
28 0.15
29 0.15
3 -0.57
30 0.15
31 0.15
4 -0.57
5 -0.25
6 -0.18
7 0.37
8 0.45
9 0.66

>  <PUBCHEM_EFFECTIVE_ROTOR_COUNT>  (1) 
6

>  <PUBCHEM_PHARMACOPHORE_FEATURES>  (1) 
4
1 3 acceptor
1 4 acceptor
1 7 anion
6 12 14 15 16 17 18 rings

>  <PUBCHEM_HEAVY_ATOM_COUNT>  (1) 
18

>  <PUBCHEM_ATOM_DEF_STEREO_COUNT>  (1) 
0

>  <PUBCHEM_ATOM_UDEF_STEREO_COUNT>  (1) 
1

>  <PUBCHEM_BOND_DEF_STEREO_COUNT>  (1) 
0

>  <PUBCHEM_BOND_UDEF_STEREO_COUNT>  (1) 
0

>  <PUBCHEM_ISOTOPIC_ATOM_COUNT>  (1) 
0

>  <PUBCHEM_COMPONENT_COUNT>  (1) 
1

>  <PUBCHEM_CACTVS_TAUTO_COUNT>  (1) 
5

>  <PUBCHEM_CONFORMER_ID>  (1) 
0000569100000001

>  <PUBCHEM_MMFF94_ENERGY>  (1) 
30.5525

>  <PUBCHEM_FEATURE_SELFOVERLAP>  (1) 
20.297

>  <PUBCHEM_SHAPE_FINGERPRINT>  (1) 
10366900 7 18339653329550566434
10447042 23 18410566322977697095
11045515 52 18040994072888567381
12107183 9 17687460162099026970
12507560 40 17917713449100653446
12916754 54 18411422786875122252
13533116 47 18408319995300480330
13583140 156 17916568865938405908
17492 89 18340486643190112470
200 152 18410289233415504167
20281475 54 18114465536005951262
20510252 161 18341896260024683369
21065198 48 18410858737752665712
21065199 12 18271523101016264778
21267235 1 18411706482803599134
22079108 93 14189575264801049807
23402539 116 18413385449875354975
23557571 272 18131079211818887548
23559900 14 18189895494671350144
26918003 58 18261109711898950291
2871803 45 18260546731785799402
3004659 81 17894625993470404662
3009799 131 18411971478333316335
312423 11 18338252512908156844
3286 77 18335699460178517076
347723 3 17458340849796245387
4214541 1 18338516339980285932
5104073 3 18200588082728445962
5283173 99 18187634779096597589
5374978 207 18341048605178891922
5924683 9 18410855421615952569
9709674 26 18410865330132436830

>  <PUBCHEM_SHAPE_MULTIPOLES>  (1) 
344.73
12.26
2.34
0.86
2.45
1.51
0.1
-6.5
1.37
-2.34
0.06
-0.06
0.16
-0.33

>  <PUBCHEM_SHAPE_SELFOVERLAP>  (1) 
694.471

>  <PUBCHEM_SHAPE_VOLUME>  (1) 
203

>  <PUBCHEM_COORDINATE_TYPE>  (1) 
2
5
10

$$$$
