22184
     RDKit          3D

 20 19  0  0  0  0  0  0  0  0999 V2000
   10.4397    1.1090   -0.0817 Cl  0  0  0  0  0  0  0  0  0  0  0  0
    9.0205   -1.1897    1.7705 Cl  0  0  0  0  0  0  0  0  0  0  0  0
    9.0959   -1.5271   -1.4867 Cl  0  0  0  0  0  0  0  0  0  0  0  0
    8.8878   -0.1873    0.0166 Si  0  0  0  0  0  4  0  0  0  0  0  0
   -1.7028   -0.2511   -0.0042 C   0  0  0  0  0  0  0  0  0  0  0  0
   -0.4619    0.6450   -0.0277 C   0  0  0  0  0  0  0  0  0  0  0  0
   -3.0185    0.5319    0.0265 C   0  0  0  0  0  0  0  0  0  0  0  0
    0.8210   -0.1903   -0.0355 C   0  0  0  0  0  0  0  0  0  0  0  0
   -4.2596   -0.3632    0.0253 C   0  0  0  0  0  0  0  0  0  0  0  0
    2.0977    0.6556   -0.0516 C   0  0  0  0  0  0  0  0  0  0  0  0
   -5.5440    0.4708    0.0436 C   0  0  0  0  0  0  0  0  0  0  0  0
    3.4143   -0.1246    0.0212 C   0  0  0  0  0  0  0  0  0  0  0  0
   -6.7853   -0.4236    0.0104 C   0  0  0  0  0  0  0  0  0  0  0  0
    4.6939    0.7156   -0.0528 C   0  0  0  0  0  0  0  0  0  0  0  0
   -8.1009    0.3594    0.0497 C   0  0  0  0  0  0  0  0  0  0  0  0
    5.9745   -0.1283   -0.0570 C   0  0  0  0  0  0  0  0  0  0  0  0
   -9.3419   -0.5340   -0.0080 C   0  0  0  0  0  0  0  0  0  0  0  0
    7.2559    0.7147   -0.1146 C   0  0  0  0  0  0  0  0  0  0  0  0
  -10.6247    0.2983    0.0226 C   0  0  0  0  0  0  0  0  0  0  0  0
  -11.8617   -0.5812   -0.0666 C   0  0  0  0  0  0  0  0  0  0  0  0
  1  4  1  0
  2  4  1  0
  3  4  1  0
  4 18  1  0
  5  6  1  0
  5  7  1  0
  6  8  1  0
  7  9  1  0
  8 10  1  0
  9 11  1  0
 10 12  1  0
 11 13  1  0
 12 14  1  0
 13 15  1  0
 14 16  1  0
 15 17  1  0
 16 18  1  0
 17 19  1  0
 19 20  1  0
M  END
>  <PUBCHEM_COMPOUND_CID>  (1) 
22184

>  <PUBCHEM_CONFORMER_RMSD>  (1) 
1.6

>  <PUBCHEM_CONFORMER_DIVERSEORDER>  (1) 
1
20
38
14
10
2
17
22
16
24
44
26
32
23
3
25
30
12
27
42
6
9
28
41
21
18
34
36
40
7
19
43
8
33
4
13
45
31
5
35
15
29
39
11
37

>  <PUBCHEM_MMFF94_PARTIAL_CHARGES>  (1) 
5
1 -0.37
18 -0.08
2 -0.37
3 -0.37
4 1.19

>  <PUBCHEM_EFFECTIVE_ROTOR_COUNT>  (1) 
15

>  <PUBCHEM_PHARMACOPHORE_FEATURES>  (1) 
1
1 20 hydrophobe

>  <PUBCHEM_HEAVY_ATOM_COUNT>  (1) 
20

>  <PUBCHEM_ATOM_DEF_STEREO_COUNT>  (1) 
0

>  <PUBCHEM_ATOM_UDEF_STEREO_COUNT>  (1) 
0

>  <PUBCHEM_BOND_DEF_STEREO_COUNT>  (1) 
0

>  <PUBCHEM_BOND_UDEF_STEREO_COUNT>  (1) 
0

>  <PUBCHEM_ISOTOPIC_ATOM_COUNT>  (1) 
0

>  <PUBCHEM_COMPONENT_COUNT>  (1) 
1

>  <PUBCHEM_CACTVS_TAUTO_COUNT>  (1) 
1

>  <PUBCHEM_CONFORMER_ID>  (1) 
000056A800000001

>  <PUBCHEM_MMFF94_ENERGY>  (1) 
-1.3068

>  <PUBCHEM_FEATURE_SELFOVERLAP>  (1) 
5.074

>  <PUBCHEM_SHAPE_FINGERPRINT>  (1) 
14202775 3 18272939332017862383
14251764 46 18187364333584800717
14251920 1 18411419509614426820
15061470 23 17894346679289804557
15510794 2 18273219703229675495
20812841 46 18343297098928744992
21362267 20 18408884074942226979
21362267 313 17845660222859842882
232437 2 18186238433488145099
23521765 1 18341895194672457076
23581129 1 18409449193351601565
33684 2 18409166614837217233
59520647 119 18271246118639819270
67123 10 18410856568519965469
8209 1 18407478864784071132
9663363 56 15068339026017366836

>  <PUBCHEM_SHAPE_MULTIPOLES>  (1) 
435.41
51.81
1.08
0.93
69.08
0.14
0.12
7.24
0.16
-2.22
-0.06
-2.66
0.36
-0.04

>  <PUBCHEM_SHAPE_SELFOVERLAP>  (1) 
754.372

>  <PUBCHEM_SHAPE_VOLUME>  (1) 
288

>  <PUBCHEM_COORDINATE_TYPE>  (1) 
2
5
10

$$$$
