2218
     RDKit          3D

 24 26  0  0  1  0  0  0  0  0999 V2000
   -0.1151   -0.6672   -0.3212 N   0  0  0  0  0  0  0  0  0  0  0  0
   -4.4464   -0.1373    0.0038 N   0  0  0  0  0  0  0  0  0  0  0  0
    0.7413   -1.8404   -0.2945 C   0  0  0  0  0  0  0  0  0  0  0  0
    1.7838   -1.7466   -1.4259 C   0  0  0  0  0  0  0  0  0  0  0  0
    1.5266   -1.8889    1.0312 C   0  0  0  0  0  0  0  0  0  0  0  0
    2.9380   -1.0965   -0.7258 C   0  0  0  0  0  0  0  0  0  0  0  0
    2.7929   -1.1775    0.6634 C   0  0  0  0  0  0  0  0  0  0  0  0
   -1.5532   -0.8648   -0.4729 C   0  0  0  0  0  0  0  0  0  0  0  0
   -2.2465   -0.8571    0.8891 C   0  0  0  0  0  0  0  0  0  0  0  0
    0.4171    0.6182   -0.1922 C   0  0  0  0  0  0  0  0  0  0  0  0
    4.0576   -0.5126   -1.2941 C   0  0  0  0  0  0  0  0  0  0  0  0
    3.7646   -0.6765    1.5134 C   0  0  0  0  0  0  0  0  0  0  0  0
   -3.7560   -1.1135    0.8376 C   0  0  0  0  0  0  0  0  0  0  0  0
    5.0371    0.0062   -0.4446 C   0  0  0  0  0  0  0  0  0  0  0  0
    4.8917   -0.0754    0.9492 C   0  0  0  0  0  0  0  0  0  0  0  0
    0.8169    1.3392   -1.3257 C   0  0  0  0  0  0  0  0  0  0  0  0
    0.5589    1.2048    1.0728 C   0  0  0  0  0  0  0  0  0  0  0  0
   -5.8761   -0.4435   -0.0729 C   0  0  0  0  0  0  0  0  0  0  0  0
   -4.2450    1.2174    0.5212 C   0  0  0  0  0  0  0  0  0  0  0  0
    1.3487    2.6222   -1.1966 C   0  0  0  0  0  0  0  0  0  0  0  0
    1.0908    2.4879    1.2018 C   0  0  0  0  0  0  0  0  0  0  0  0
   -6.1091   -1.8462   -0.6080 C   0  0  0  0  0  0  0  0  0  0  0  0
   -4.9041    2.2515   -0.3758 C   0  0  0  0  0  0  0  0  0  0  0  0
    1.4856    3.1966    0.0669 C   0  0  0  0  0  0  0  0  0  0  0  0
  1  3  1  0
  1  8  1  0
  1 10  1  0
  2 13  1  0
  2 18  1  0
  2 19  1  0
  3  4  1  0
  3  5  1  0
  4  6  1  0
  5  7  1  0
  6  7  2  0
  6 11  1  0
  7 12  1  0
  8  9  1  0
  9 13  1  0
 10 16  2  0
 10 17  1  0
 11 14  2  0
 12 15  2  0
 14 15  1  0
 16 20  1  0
 17 21  2  0
 18 22  1  0
 19 23  1  0
 20 24  2  0
 21 24  1  0
M  END
>  <PUBCHEM_COMPOUND_CID>  (1) 
2218

>  <PUBCHEM_CONFORMER_RMSD>  (1) 
1

>  <PUBCHEM_CONFORMER_DIVERSEORDER>  (1) 
1
38
90
67
73
76
56
61
41
94
95
93
89
65
83
68
98
72
62
99
29
8
40
59
85
10
50
91
82
102
39
16
52
69
19
58
47
14
35
13
20
11
64
103
7
28
71
51
92
15
42
63
84
33
12
86
80
6
9
96
81
22
45
105
31
57
60
27
100
37
36
4
54
25
70
79
18
32
2
24
34
5
88
97
48
87
53
23
104
77
75
74
101
26
3
46
66
78
21
44
17
49
55
43
30

>  <PUBCHEM_MMFF94_PARTIAL_CHARGES>  (1) 
30
1 -0.84
10 0.1
11 -0.15
12 -0.15
13 0.27
14 -0.15
15 -0.15
16 -0.15
17 -0.15
18 0.27
19 0.27
2 -0.81
20 -0.15
21 -0.15
24 -0.15
3 0.37
34 0.15
35 0.15
38 0.15
39 0.15
4 0.14
40 0.15
41 0.15
46 0.15
47 0.15
5 0.14
54 0.15
6 -0.14
7 -0.14
8 0.37

>  <PUBCHEM_EFFECTIVE_ROTOR_COUNT>  (1) 
8.6

>  <PUBCHEM_PHARMACOPHORE_FEATURES>  (1) 
5
1 1 cation
1 2 cation
5 3 4 5 6 7 rings
6 10 16 17 20 21 24 rings
6 6 7 11 12 14 15 rings

>  <PUBCHEM_HEAVY_ATOM_COUNT>  (1) 
24

>  <PUBCHEM_ATOM_DEF_STEREO_COUNT>  (1) 
0

>  <PUBCHEM_ATOM_UDEF_STEREO_COUNT>  (1) 
0

>  <PUBCHEM_BOND_DEF_STEREO_COUNT>  (1) 
0

>  <PUBCHEM_BOND_UDEF_STEREO_COUNT>  (1) 
0

>  <PUBCHEM_ISOTOPIC_ATOM_COUNT>  (1) 
0

>  <PUBCHEM_COMPONENT_COUNT>  (1) 
1

>  <PUBCHEM_CACTVS_TAUTO_COUNT>  (1) 
1

>  <PUBCHEM_CONFORMER_ID>  (1) 
000008AA00000001

>  <PUBCHEM_MMFF94_ENERGY>  (1) 
80.8828

>  <PUBCHEM_FEATURE_SELFOVERLAP>  (1) 
25.454

>  <PUBCHEM_SHAPE_FINGERPRINT>  (1) 
10162869 55 18343299276708661395
10366900 7 18041000652735961043
12011746 2 18131355193938368170
12166972 35 17918278675096487651
12422481 6 18124289827098496800
12623949 98 16629701547479182158
14170010 4 18342739637246487137
14466204 15 18261950748284106057
14790565 3 18335146435773541868
14955137 171 18202006550995488078
15238133 3 18187087204471447949
15664445 248 18336841818563412724
1601671 61 18411702049943389524
16945 1 18341886425098454910
17349148 13 15051733105717822545
17492 54 18117018735186673788
18222031 100 18341618109389927182
18681886 176 18130505331163343195
18785283 64 18263643025191363700
19078846 21 18260265213890713563
20691752 17 17387956815187049486
21033648 29 17274246271835574875
23558518 356 17832137599616845130
23559900 14 18261671584421819675
3411729 13 18193552496632472144
350125 39 18409730682004368549
5895379 119 17345499023261925689
67856867 119 18340483491226676009
7495541 125 17894633698868561019
8509985 295 18040992942705305266
9971528 1 18201727219054568263

>  <PUBCHEM_SHAPE_MULTIPOLES>  (1) 
483.95
11.63
2.88
1.36
15.55
2.19
0
-2.88
0.15
0.24
0.18
-1.07
0
-0.09

>  <PUBCHEM_SHAPE_SELFOVERLAP>  (1) 
1017.909

>  <PUBCHEM_SHAPE_VOLUME>  (1) 
273.6

>  <PUBCHEM_COORDINATE_TYPE>  (1) 
2
5
10

$$$$
