2220
     RDKit          3D

 22 21  0  0  0  0  0  0  0  0999 V2000
    0.2638    3.7141   -1.1588 O   0  0  0  0  0  0  0  0  0  0  0  0
    1.0266    1.7647   -2.1165 N   0  0  0  0  0  0  0  0  0  0  0  0
    3.5817    1.5304    0.7432 C   0  0  0  0  0  0  0  0  0  0  0  0
    2.3898    1.1081    1.6080 C   0  0  0  0  0  0  0  0  0  0  0  0
    4.4279    0.3533    0.2542 C   0  0  0  0  0  0  0  0  0  0  0  0
    1.5421    2.2466    2.1797 C   0  0  0  0  0  0  0  0  0  0  0  0
    3.6122   -0.5850   -0.5877 C   0  0  0  0  0  0  0  0  0  0  0  0
    0.4095    1.7716    3.0748 C   0  0  0  0  0  0  0  0  0  0  0  0
   -2.2526    2.7772   -0.6215 C   0  0  0  0  0  0  0  0  0  0  0  0
   -3.6385    2.1461   -0.4649 C   0  0  0  0  0  0  0  0  0  0  0  0
    3.4272   -1.8818   -0.2998 C   0  0  0  0  0  0  0  0  0  0  0  0
   -1.2486    1.8497   -1.3054 C   0  0  0  0  0  0  0  0  0  0  0  0
    2.5993   -2.8096   -1.1405 C   0  0  0  0  0  0  0  0  0  0  0  0
   -3.6333    0.9282    0.4119 C   0  0  0  0  0  0  0  0  0  0  0  0
   -4.0914   -1.4905    0.8949 C   0  0  0  0  0  0  0  0  0  0  0  0
   -4.0773   -0.2742    0.0164 C   0  0  0  0  0  0  0  0  0  0  0  0
    1.4569   -3.3884   -0.3589 C   0  0  0  0  0  0  0  0  0  0  0  0
   -0.9757   -3.8023    0.0841 C   0  0  0  0  0  0  0  0  0  0  0  0
    0.1681   -3.2167   -0.6906 C   0  0  0  0  0  0  0  0  0  0  0  0
    0.0770    2.5500   -1.5034 C   0  0  0  0  0  0  0  0  0  0  0  0
   -3.1860   -2.5628    0.3632 C   0  0  0  0  0  0  0  0  0  0  0  0
   -1.8785   -2.7287    0.6176 C   0  0  0  0  0  0  0  0  0  0  0  0
  1 20  2  0
  2 20  1  0
  3  4  1  0
  3  5  1  0
  4  6  1  0
  5  7  1  0
  6  8  1  0
  7 11  2  0
  9 10  1  0
  9 12  1  0
 10 14  1  0
 11 13  1  0
 12 20  1  0
 13 17  1  0
 14 16  2  0
 15 16  1  0
 15 21  1  0
 17 19  2  0
 18 19  1  0
 18 22  1  0
 21 22  2  0
M  END
>  <PUBCHEM_COMPOUND_CID>  (1) 
2220

>  <PUBCHEM_CONFORMER_RMSD>  (1) 
1.4

>  <PUBCHEM_CONFORMER_DIVERSEORDER>  (1) 
1
129
111
135
105
21
45
100
22
48
38
92
144
24
61
103
43
40
99
50
69
42
29
13
73
143
36
106
120
7
26
10
149
64
27
78
47
81
17
131
37
138
16
132
86
93
110
107
62
153
49
67
71
44
117
58
151
8
76
46
136
133
94
145
75
148
122
83
59
79
101
65
56
116
97
121
72
60
52
123
18
80
152
124
114
91
35
14
150
30
89
57
19
128
113
85
63
34
141
15
146
31
3
84
108
39
140
54
130
66
33
12
55
23
125
142
139
126
112
20
51
88
96
90
98
74
127
68
70
95
4
32
118
147
104
87
82
102
134
137
154
11
119
2
41
115
53
25
77
5
28
9
109
6

>  <PUBCHEM_MMFF94_PARTIAL_CHARGES>  (1) 
27
1 -0.57
10 0.14
11 -0.29
12 0.06
13 0.28
14 -0.29
15 0.28
16 -0.29
17 -0.29
18 0.28
19 -0.29
2 -0.8
20 0.57
21 -0.29
22 -0.29
31 0.15
39 0.15
44 0.15
47 0.15
48 0.15
5 0.14
51 0.15
52 0.15
53 0.15
54 0.37
55 0.37
7 -0.29

>  <PUBCHEM_EFFECTIVE_ROTOR_COUNT>  (1) 
14

>  <PUBCHEM_PHARMACOPHORE_FEATURES>  (1) 
5
1 1 acceptor
1 2 donor
1 8 hydrophobe
4 9 10 12 14 hydrophobe
5 3 4 5 6 7 hydrophobe

>  <PUBCHEM_HEAVY_ATOM_COUNT>  (1) 
22

>  <PUBCHEM_ATOM_DEF_STEREO_COUNT>  (1) 
0

>  <PUBCHEM_ATOM_UDEF_STEREO_COUNT>  (1) 
0

>  <PUBCHEM_BOND_DEF_STEREO_COUNT>  (1) 
0

>  <PUBCHEM_BOND_UDEF_STEREO_COUNT>  (1) 
4

>  <PUBCHEM_ISOTOPIC_ATOM_COUNT>  (1) 
0

>  <PUBCHEM_COMPONENT_COUNT>  (1) 
1

>  <PUBCHEM_CACTVS_TAUTO_COUNT>  (1) 
2

>  <PUBCHEM_CONFORMER_ID>  (1) 
000008AC00000001

>  <PUBCHEM_MMFF94_ENERGY>  (1) 
6.1587

>  <PUBCHEM_FEATURE_SELFOVERLAP>  (1) 
25.373

>  <PUBCHEM_SHAPE_FINGERPRINT>  (1) 
12038231 1 18191032209511637791
12100795 323 17910661399930336744
12539773 59 17120843298749813413
13122387 1 17903921050234345887
13402501 40 18411699859315240530
13422730 73 17543023976488461901
13615921 28 17560523880696809145
14251757 17 18341612555786068074
17093844 170 18408319964982150854
17977149 70 18408322168553561992
19930381 70 15019646723256655301
20398071 114 18192710042875635231
238918 7 18342446046162331230
3524813 1 18342175574496168274
474144 1 15740755608826136498
5047190 48 18121782995857161268
57091435 65 17397553481148594958
581034 39 17116906471423301552
58250162 1 16682321248932145316
6433294 58 17977383837206900126
9543594 6 17906457984569058020

>  <PUBCHEM_SHAPE_MULTIPOLES>  (1) 
441.9
7.89
5.8
2.01
0.88
2.8
1.03
0.72
0.77
0.77
-1.04
-0.78
-2.14
2.39

>  <PUBCHEM_SHAPE_SELFOVERLAP>  (1) 
829.034

>  <PUBCHEM_SHAPE_VOLUME>  (1) 
272.9

>  <PUBCHEM_COORDINATE_TYPE>  (1) 
2
5
10

$$$$
