22207
     RDKit          3D

 19 18  0  0  1  0  0  0  0  0999 V2000
    9.7255   -0.4600    0.6720 O   0  0  0  0  0  0  0  0  0  0  0  0
    8.7935    0.7019   -1.0480 O   0  0  0  0  0  0  0  0  0  0  0  0
   -6.5611    0.7096   -0.6305 C   0  0  0  0  0  0  0  0  0  0  0  0
   -5.3525    0.1618    0.1367 C   0  0  0  0  0  0  0  0  0  0  0  0
   -7.9368    0.3796   -0.0119 C   0  0  0  0  0  0  0  0  0  0  0  0
   -4.0090    0.5683   -0.4817 C   0  0  0  0  0  0  0  0  0  0  0  0
   -2.7585    0.0299    0.2204 C   0  0  0  0  0  0  0  0  0  0  0  0
   -1.4511    0.5197   -0.4046 C   0  0  0  0  0  0  0  0  0  0  0  0
   -0.2385   -0.1205    0.2748 C   0  0  0  0  0  0  0  0  0  0  0  0
    1.0694    0.3389   -0.3740 C   0  0  0  0  0  0  0  0  0  0  0  0
    2.2814   -0.2763    0.3288 C   0  0  0  0  0  0  0  0  0  0  0  0
   -8.1265   -1.1002    0.3699 C   0  0  0  0  0  0  0  0  0  0  0  0
    3.6210    0.1743   -0.2611 C   0  0  0  0  0  0  0  0  0  0  0  0
   -8.2337    1.2696    1.1998 C   0  0  0  0  0  0  0  0  0  0  0  0
    4.8340   -0.4208    0.4585 C   0  0  0  0  0  0  0  0  0  0  0  0
    6.1436    0.0736   -0.1659 C   0  0  0  0  0  0  0  0  0  0  0  0
   -7.8532   -2.0662   -0.7739 C   0  0  0  0  0  0  0  0  0  0  0  0
    7.3772   -0.4769    0.5500 C   0  0  0  0  0  0  0  0  0  0  0  0
    8.6754   -0.0062   -0.0594 C   0  0  0  0  0  0  0  0  0  0  0  0
  1 19  1  0
  2 19  2  0
  3  4  1  0
  3  5  1  0
  4  6  1  0
  5 12  1  0
  5 14  1  0
  6  7  1  0
  7  8  1  0
  8  9  1  0
  9 10  1  0
 10 11  1  0
 11 13  1  0
 12 17  1  0
 13 15  1  0
 15 16  1  0
 16 18  1  0
 18 19  1  0
M  END
>  <PUBCHEM_COMPOUND_CID>  (1) 
22207

>  <PUBCHEM_CONFORMER_RMSD>  (1) 
1.4

>  <PUBCHEM_CONFORMER_DIVERSEORDER>  (1) 
1
48
54
5
13
16
35
43
39
33
28
52
46
53
31
49
37
23
3
8
4
24
36
56
57
47
7
44
30
14
50
18
26
21
41
17
38
12
34
22
27
42
20
51
29
45
32
55
10
11
15
40
25
6
2
19
9

>  <PUBCHEM_MMFF94_PARTIAL_CHARGES>  (1) 
5
1 -0.65
18 0.06
19 0.66
2 -0.57
53 0.5

>  <PUBCHEM_EFFECTIVE_ROTOR_COUNT>  (1) 
14

>  <PUBCHEM_PHARMACOPHORE_FEATURES>  (1) 
5
1 1 acceptor
1 14 hydrophobe
1 17 hydrophobe
1 2 acceptor
3 1 2 19 anion

>  <PUBCHEM_HEAVY_ATOM_COUNT>  (1) 
19

>  <PUBCHEM_ATOM_DEF_STEREO_COUNT>  (1) 
0

>  <PUBCHEM_ATOM_UDEF_STEREO_COUNT>  (1) 
1

>  <PUBCHEM_BOND_DEF_STEREO_COUNT>  (1) 
0

>  <PUBCHEM_BOND_UDEF_STEREO_COUNT>  (1) 
0

>  <PUBCHEM_ISOTOPIC_ATOM_COUNT>  (1) 
0

>  <PUBCHEM_COMPONENT_COUNT>  (1) 
1

>  <PUBCHEM_CACTVS_TAUTO_COUNT>  (1) 
1

>  <PUBCHEM_CONFORMER_ID>  (1) 
000056BF00000001

>  <PUBCHEM_MMFF94_ENERGY>  (1) 
5.9647

>  <PUBCHEM_FEATURE_SELFOVERLAP>  (1) 
25.429

>  <PUBCHEM_SHAPE_FINGERPRINT>  (1) 
11315181 36 18411139130993918233
11638347 137 18412543177135599938
12089408 11 18333449841965287100
14123256 10 18410573976566797792
14251764 18 17603300449252634931
14251764 46 18410575080368111627
14428016 248 18343026592438651792
15510794 2 17775571926776921942
155225 1 8862673404549433815
16120349 18 17095526227856416476
20621476 8 15052013454959661305
21095123 145 18060136574738723975
21150785 3 18040434386576968712
21360442 43 9006758884331754929
21362267 20 18260828223969884411
21362267 313 18199186196892016762
22224240 67 18333448746564341762
232437 2 18113899347568093386
23521765 1 18341892983117656044
246663 6 17418375800595877452
28498 318 11674874486031725280
33684 2 17458061556647019016
59682541 35 17703787033376703554
67123 10 18186519908396212452
8209 1 17458345234382880668

>  <PUBCHEM_SHAPE_MULTIPOLES>  (1) 
379.27
37.92
1.12
0.88
31.84
0.42
-0.02
3.45
-2.31
-3.14
0.05
-0.24
-0.08
-1.31

>  <PUBCHEM_SHAPE_SELFOVERLAP>  (1) 
692.566

>  <PUBCHEM_SHAPE_VOLUME>  (1) 
241.4

>  <PUBCHEM_COORDINATE_TYPE>  (1) 
2
5
10

$$$$
