22216
     RDKit          3D

  7  7  0  0  0  0  0  0  0  0999 V2000
   -1.7797    1.8339   -0.0007 Br  0  0  0  0  0  0  0  0  0  0  0  0
   -1.6716   -1.9213    0.0001 Br  0  0  0  0  0  0  0  0  0  0  0  0
    1.0168    1.0730    0.0004 N   0  0  0  0  0  0  0  0  0  0  0  0
    1.8911    0.0524   -0.0003 N   0  0  0  0  0  0  0  0  0  0  0  0
   -0.2893    0.6798    0.0009 C   0  0  0  0  0  0  0  0  0  0  0  0
   -0.2679   -0.6936    0.0001 C   0  0  0  0  0  0  0  0  0  0  0  0
    1.1005   -1.0242   -0.0004 C   0  0  0  0  0  0  0  0  0  0  0  0
  1  5  1  0
  2  6  1  0
  3  4  1  0
  3  5  1  0
  4  7  2  0
  5  6  2  0
  6  7  1  0
M  END
>  <PUBCHEM_COMPOUND_CID>  (1) 
22216

>  <PUBCHEM_CONFORMER_RMSD>  (1) 
0.4

>  <PUBCHEM_CONFORMER_DIVERSEORDER>  (1) 
1

>  <PUBCHEM_MMFF94_PARTIAL_CHARGES>  (1) 
9
1 -0.06
2 -0.06
3 0.3
4 -0.71
5 -0.09
6 0.06
7 0.14
8 0.27
9 0.15

>  <PUBCHEM_EFFECTIVE_ROTOR_COUNT>  (1) 
0

>  <PUBCHEM_PHARMACOPHORE_FEATURES>  (1) 
5
1 1 hydrophobe
1 2 hydrophobe
1 3 donor
1 4 acceptor
5 3 4 5 6 7 rings

>  <PUBCHEM_HEAVY_ATOM_COUNT>  (1) 
7

>  <PUBCHEM_ATOM_DEF_STEREO_COUNT>  (1) 
0

>  <PUBCHEM_ATOM_UDEF_STEREO_COUNT>  (1) 
0

>  <PUBCHEM_BOND_DEF_STEREO_COUNT>  (1) 
0

>  <PUBCHEM_BOND_UDEF_STEREO_COUNT>  (1) 
0

>  <PUBCHEM_ISOTOPIC_ATOM_COUNT>  (1) 
0

>  <PUBCHEM_COMPONENT_COUNT>  (1) 
1

>  <PUBCHEM_CACTVS_TAUTO_COUNT>  (1) 
2

>  <PUBCHEM_CONFORMER_ID>  (1) 
000056C800000001

>  <PUBCHEM_MMFF94_ENERGY>  (1) 
2.0235

>  <PUBCHEM_FEATURE_SELFOVERLAP>  (1) 
25.371

>  <PUBCHEM_SHAPE_FINGERPRINT>  (1) 
18185500 45 17836652190144277035
21040471 1 18266740177626471844
29004967 10 17831861617802702643

>  <PUBCHEM_SHAPE_MULTIPOLES>  (1) 
145.98
2.39
2.28
0.64
1.52
1.82
0
-0.91
0
-0.25
0
0.07
0.07
0

>  <PUBCHEM_SHAPE_SELFOVERLAP>  (1) 
270.578

>  <PUBCHEM_SHAPE_VOLUME>  (1) 
95.7

>  <PUBCHEM_COORDINATE_TYPE>  (1) 
2
5
10

$$$$
