22212
     RDKit          3D

  9  8  0  0  0  0  0  0  0  0999 V2000
    2.4035    1.5653   -0.5830 Cl  0  0  0  0  0  0  0  0  0  0  0  0
   -0.0338   -0.0256   -0.0263 Si  0  0  0  0  0  4  0  0  0  0  0  0
   -0.7685    1.3077    0.6810 O   0  0  0  0  0  0  0  0  0  0  0  0
   -1.2152   -1.0147   -0.6918 O   0  0  0  0  0  0  0  0  0  0  0  0
    0.7714   -0.9017    1.1573 O   0  0  0  0  0  0  0  0  0  0  0  0
    1.1615    0.5500   -1.3458 C   0  0  0  0  0  0  0  0  0  0  0  0
   -1.7215    1.1130    1.7167 C   0  0  0  0  0  0  0  0  0  0  0  0
   -2.0655   -0.5065   -1.7099 C   0  0  0  0  0  0  0  0  0  0  0  0
    1.4682   -2.0874    0.8018 C   0  0  0  0  0  0  0  0  0  0  0  0
  1  6  1  0
  2  3  1  0
  2  4  1  0
  2  5  1  0
  2  6  1  0
  3  7  1  0
  4  8  1  0
  5  9  1  0
M  END
>  <PUBCHEM_COMPOUND_CID>  (1) 
22212

>  <PUBCHEM_CONFORMER_RMSD>  (1) 
0.6

>  <PUBCHEM_CONFORMER_DIVERSEORDER>  (1) 
2
1
8
4
5
7
6
3

>  <PUBCHEM_MMFF94_PARTIAL_CHARGES>  (1) 
9
1 -0.29
2 0.97
3 -0.58
4 -0.58
5 -0.58
6 0.21
7 0.28
8 0.28
9 0.28

>  <PUBCHEM_EFFECTIVE_ROTOR_COUNT>  (1) 
4

>  <PUBCHEM_PHARMACOPHORE_FEATURES>  (1) 
0

>  <PUBCHEM_HEAVY_ATOM_COUNT>  (1) 
9

>  <PUBCHEM_ATOM_DEF_STEREO_COUNT>  (1) 
0

>  <PUBCHEM_ATOM_UDEF_STEREO_COUNT>  (1) 
0

>  <PUBCHEM_BOND_DEF_STEREO_COUNT>  (1) 
0

>  <PUBCHEM_BOND_UDEF_STEREO_COUNT>  (1) 
0

>  <PUBCHEM_ISOTOPIC_ATOM_COUNT>  (1) 
0

>  <PUBCHEM_COMPONENT_COUNT>  (1) 
1

>  <PUBCHEM_CACTVS_TAUTO_COUNT>  (1) 
1

>  <PUBCHEM_CONFORMER_ID>  (1) 
000056C400000002

>  <PUBCHEM_MMFF94_ENERGY>  (1) 
11.226

>  <PUBCHEM_FEATURE_SELFOVERLAP>  (1) 
0

>  <PUBCHEM_SHAPE_FINGERPRINT>  (1) 
12423570 1 16841673237170046721
137420 1 10851686407640732976
14817 1 15380436817951147995
20711978 78 17823717277429949976
20711985 344 17275385425910953759
23211744 25 17547268456201446767
23552333 60 18338219523142867991
5084963 1 17532948322498572382
5943 1 14863769638306865919
59915604 170 17555167322060784388
68250623 7 17838662990600042347
68419 9 18201157663346194719
76951 1 17767092647632209971

>  <PUBCHEM_SHAPE_MULTIPOLES>  (1) 
187.69
2.74
1.91
1.78
0.44
0.94
0.05
-0.96
0.45
1.18
-0.51
-1.28
-0.27
-0.87

>  <PUBCHEM_SHAPE_SELFOVERLAP>  (1) 
320.754

>  <PUBCHEM_SHAPE_VOLUME>  (1) 
127.6

>  <PUBCHEM_COORDINATE_TYPE>  (1) 
2
5
10

$$$$
