22211
     RDKit          3D

 14 14  0  0  0  0  0  0  0  0999 V2000
    4.4631   -2.1377   -0.0088 Cl  0  0  0  0  0  0  0  0  0  0  0  0
    2.5387    0.2145    0.3257 O   0  0  0  0  0  0  0  0  0  0  0  0
    1.2593    1.5927   -0.9931 O   0  0  0  0  0  0  0  0  0  0  0  0
   -0.8023    1.1923    0.7784 N   0  0  0  0  0  0  0  0  0  0  0  0
    0.4190    0.6174    0.9344 N   0  0  0  0  0  0  0  0  0  0  0  0
   -1.8864    0.3954    0.3547 C   0  0  0  0  0  0  0  0  0  0  0  0
   -3.0608    0.9984   -0.0953 C   0  0  0  0  0  0  0  0  0  0  0  0
   -1.7837   -0.9954    0.3850 C   0  0  0  0  0  0  0  0  0  0  0  0
   -4.1326    0.2107   -0.5154 C   0  0  0  0  0  0  0  0  0  0  0  0
   -2.8555   -1.7830   -0.0350 C   0  0  0  0  0  0  0  0  0  0  0  0
    3.6428    0.3950   -0.5683 C   0  0  0  0  0  0  0  0  0  0  0  0
   -4.0300   -1.1801   -0.4853 C   0  0  0  0  0  0  0  0  0  0  0  0
    4.8384   -0.3968   -0.0720 C   0  0  0  0  0  0  0  0  0  0  0  0
    1.3901    0.8768   -0.0050 C   0  0  0  0  0  0  0  0  0  0  0  0
  1 13  1  0
  2 11  1  0
  2 14  1  0
  3 14  2  0
  4  5  1  0
  4  6  1  0
  5 14  1  0
  6  7  2  0
  6  8  1  0
  7  9  1  0
  8 10  2  0
  9 12  2  0
 10 12  1  0
 11 13  1  0
M  END
>  <PUBCHEM_COMPOUND_CID>  (1) 
22211

>  <PUBCHEM_CONFORMER_RMSD>  (1) 
0.6

>  <PUBCHEM_CONFORMER_DIVERSEORDER>  (1) 
3
91
37
126
92
97
31
84
124
101
103
30
125
5
76
119
95
50
48
109
10
74
54
100
63
113
123
25
23
120
73
22
108
71
55
111
52
15
13
110
38
43
83
80
82
102
66
47
128
20
104
29
61
90
42
118
117
89
115
7
65
122
26
41
75
34
53
59
112
60
116
39
86
70
68
67
64
45
88
57
121
107
93
85
81
11
44
27
16
78
87
105
33
106
96
72
40
21
4
36
24
46
49
14
94
17
114
35
99
9
58
51
69
19
12
8
77
56
79
1
18
98
2
127
28
6
62
32

>  <PUBCHEM_MMFF94_PARTIAL_CHARGES>  (1) 
21
1 -0.29
10 -0.15
11 0.28
12 -0.15
13 0.29
14 0.78
15 0.15
16 0.15
17 0.4
2 -0.43
20 0.15
21 0.15
22 0.37
23 0.15
3 -0.57
4 -0.52
5 -0.41
6 0.1
7 -0.15
8 -0.15
9 -0.15

>  <PUBCHEM_EFFECTIVE_ROTOR_COUNT>  (1) 
6

>  <PUBCHEM_PHARMACOPHORE_FEATURES>  (1) 
4
1 3 acceptor
1 4 donor
1 5 donor
6 6 7 8 9 10 12 rings

>  <PUBCHEM_HEAVY_ATOM_COUNT>  (1) 
14

>  <PUBCHEM_ATOM_DEF_STEREO_COUNT>  (1) 
0

>  <PUBCHEM_ATOM_UDEF_STEREO_COUNT>  (1) 
0

>  <PUBCHEM_BOND_DEF_STEREO_COUNT>  (1) 
0

>  <PUBCHEM_BOND_UDEF_STEREO_COUNT>  (1) 
0

>  <PUBCHEM_ISOTOPIC_ATOM_COUNT>  (1) 
0

>  <PUBCHEM_COMPONENT_COUNT>  (1) 
1

>  <PUBCHEM_CACTVS_TAUTO_COUNT>  (1) 
2

>  <PUBCHEM_CONFORMER_ID>  (1) 
000056C300000003

>  <PUBCHEM_MMFF94_ENERGY>  (1) 
34.8246

>  <PUBCHEM_FEATURE_SELFOVERLAP>  (1) 
21.899

>  <PUBCHEM_SHAPE_FINGERPRINT>  (1) 
10062212 137 18343861108884272735
10465860 250 17703789214840483328
11458722 379 18408323267733393370
122479 349 9439109962715925212
12346645 44 9943809975824854052
12410352 35 18339355271821806858
12555020 224 18411128118049191351
13081056 2 8502654818290870778
13214271 11 8358260341550614489
13549 16 18113898256018431752
13690532 89 18411418410092145610
13897977 58 9007051379085705531
14123255 52 8718830877237932512
14252887 29 15769784537551365100
17834072 14 18059579053085991878
17834072 33 18409732906686911596
17834072 8 18261384529892208079
17870717 6 18342188747065569070
1798214 20 18410009927582127942
18186145 218 15719397260855463188
200 152 17989203759167402335
20279233 1 16702029690249843653
20281475 54 18341055138235826664
20432913 95 16056885727671382222
20645476 183 17822283626532942611
20645477 70 18334296474693459342
20671657 53 18412830204676901216
21119208 17 18040995163419441085
21250096 35 18272368659580516050
22485316 2 18411699885585827424
22854114 59 13039187000651051808
23402539 116 18272928298351899317
23403322 49 18343582949463870551
23559900 14 18342731949345159608
27216 239 9079121068215782215
4921388 177 16805614710588245459
559249 180 18337950065374160890
573450 72 18272088240986288984
58051976 100 18259982704127649415
76465 3 17702934972190106327

>  <PUBCHEM_SHAPE_MULTIPOLES>  (1) 
268.28
10.13
1.81
0.82
7.07
0.74
0.01
4.33
1.66
0.4
0.09
-0.02
-0.14
-0.29

>  <PUBCHEM_SHAPE_SELFOVERLAP>  (1) 
532.785

>  <PUBCHEM_SHAPE_VOLUME>  (1) 
159.3

>  <PUBCHEM_COORDINATE_TYPE>  (1) 
2
5
10

$$$$
