22210
     RDKit          3D

 14 13  0  0  0  0  0  0  0  0999 V2000
    1.2850   -0.4122   -0.3400 O   0  0  0  0  0  0  0  0  0  0  0  0
   -1.0017    0.1602   -0.3916 O   0  0  0  0  0  0  0  0  0  0  0  0
   -0.0190   -0.7138    0.1743 C   0  0  0  0  0  0  0  0  0  0  0  0
   -0.3575   -2.1565   -0.2237 C   0  0  0  0  0  0  0  0  0  0  0  0
    0.6642   -3.1644    0.3068 C   0  0  0  0  0  0  0  0  0  0  0  0
    1.8867    0.6893    0.3272 C   0  0  0  0  0  0  0  0  0  0  0  0
   -2.2082    0.1953    0.3590 C   0  0  0  0  0  0  0  0  0  0  0  0
    3.2607    0.9399   -0.2778 C   0  0  0  0  0  0  0  0  0  0  0  0
   -3.1825    1.1469   -0.3205 C   0  0  0  0  0  0  0  0  0  0  0  0
    3.9731    2.1042    0.4047 C   0  0  0  0  0  0  0  0  0  0  0  0
   -4.4995    1.2458    0.4441 C   0  0  0  0  0  0  0  0  0  0  0  0
    0.2898   -4.5879   -0.0750 C   0  0  0  0  0  0  0  0  0  0  0  0
    5.3620    2.3234   -0.1735 C   0  0  0  0  0  0  0  0  0  0  0  0
   -5.4533    2.2298   -0.2141 C   0  0  0  0  0  0  0  0  0  0  0  0
  1  3  1  0
  1  6  1  0
  2  3  1  0
  2  7  1  0
  3  4  1  0
  4  5  1  0
  5 12  1  0
  6  8  1  0
  7  9  1  0
  8 10  1  0
  9 11  1  0
 10 13  1  0
 11 14  1  0
M  END
>  <PUBCHEM_COMPOUND_CID>  (1) 
22210

>  <PUBCHEM_CONFORMER_RMSD>  (1) 
0.8

>  <PUBCHEM_CONFORMER_DIVERSEORDER>  (1) 
1
236
242
23
265
216
148
222
239
72
391
253
58
81
298
128
249
61
245
233
38
402
364
196
360
203
359
346
399
28
232
260
5
177
243
144
74
308
147
94
331
107
113
14
299
270
210
247
195
130
312
220
389
66
50
401
34
349
133
231
350
257
42
347
287
267
309
297
361
30
85
136
104
377
103
227
160
387
241
122
71
190
315
37
326
221
303
248
127
259
165
380
19
154
155
189
45
368
84
251
129
192
275
252
370
181
322
73
194
118
105
205
382
284
12
95
353
213
132
400
156
286
182
88
201
261
288
351
393
390
10
344
75
304
67
102
313
208
40
186
274
358
348
228
200
142
356
324
178
240
384
366
8
90
381
114
202
277
149
115
39
291
78
111
395
100
388
183
80
46
22
59
268
77
263
162
49
191
292
325
188
300
375
87
282
138
98
337
333
314
163
36
204
230
225
31
341
187
374
357
185
159
68
212
83
385
27
170
269
218
53
373
306
193
310
386
330
161
62
184
328
151
175
317
120
237
139
321
13
266
137
41
363
285
207
301
372
367
397
258
197
362
126
256
343
305
24
108
318
311
25
335
345
378
99
234
116
238
214
289
121
47
229
392
283
336
323
209
250
158
117
379
48
70
295
79
172
174
332
63
290
2
168
164
17
123
340
396
223
101
244
226
9
224
334
339
215
140
57
150
302
173
403
93
279
293
153
141
112
319
55
21
198
143
109
217
119
206
11
281
180
43
167
320
262
29
131
152
354
44
35
338
254
255
235
398
86
56
176
134
273
278
371
327
65
394
26
146
89
125
280
352
96
97
60
365
52
294
166
342
307
376
6
16
110
20
219
145
329
7
296
32
69
179
272
199
15
18
246
264
4
92
169
124
211
383
135
54
33
271
157
276
64
91
82
316
355
3
76
171
106
51
369

>  <PUBCHEM_MMFF94_PARTIAL_CHARGES>  (1) 
5
1 -0.56
2 -0.56
3 0.56
6 0.28
7 0.28

>  <PUBCHEM_EFFECTIVE_ROTOR_COUNT>  (1) 
10

>  <PUBCHEM_PHARMACOPHORE_FEATURES>  (1) 
5
1 1 acceptor
1 12 hydrophobe
1 13 hydrophobe
1 14 hydrophobe
1 2 acceptor

>  <PUBCHEM_HEAVY_ATOM_COUNT>  (1) 
14

>  <PUBCHEM_ATOM_DEF_STEREO_COUNT>  (1) 
0

>  <PUBCHEM_ATOM_UDEF_STEREO_COUNT>  (1) 
0

>  <PUBCHEM_BOND_DEF_STEREO_COUNT>  (1) 
0

>  <PUBCHEM_BOND_UDEF_STEREO_COUNT>  (1) 
0

>  <PUBCHEM_ISOTOPIC_ATOM_COUNT>  (1) 
0

>  <PUBCHEM_COMPONENT_COUNT>  (1) 
1

>  <PUBCHEM_CACTVS_TAUTO_COUNT>  (1) 
1

>  <PUBCHEM_CONFORMER_ID>  (1) 
000056C200000001

>  <PUBCHEM_MMFF94_ENERGY>  (1) 
7.9079

>  <PUBCHEM_FEATURE_SELFOVERLAP>  (1) 
25.412

>  <PUBCHEM_SHAPE_FINGERPRINT>  (1) 
12500047 106 18268429208550628008
12532896 13 18412265072901082454
12788726 201 17979900928587398514
13955234 65 18193281789117296955
14123255 52 18410854373528186489
14178000 22 18338234976440538446
1741750 31 18339641256392307056
17539 30 17838612614997446590
17834072 32 18338517555335309060
18785283 64 18262516970871088746
19784866 34 18413107251700513929
204376 136 18410293622824692161
20645477 56 18267309909792397352
20645477 70 18047750404701184791
20671657 1 18195815068007513439
212916 134 18270663364317005936
21426921 1 17906172103187529286
21499 59 18410849958649719109
21524375 3 18201717340603238196
2255824 54 18126283035078066431
23532345 1 18338518513492278729
23557571 272 17984152727747004636
23558518 356 17684928390526513840
23598288 3 17754189883392009238
59755656 520 18337386136515998788
6025842 7 18267580209480280511
621550 34 18188771635443789717
633830 44 18271805700651993309
7364860 26 18194682557977275019
77188 2 17473825022225284598
81539 233 18336546019332575799
9999458 23 18337675192031326870

>  <PUBCHEM_SHAPE_MULTIPOLES>  (1) 
276.37
10.01
4.73
0.69
2.45
7.61
0.02
-15.91
-0.12
-1.64
-0.03
0.03
-0.04
0.1

>  <PUBCHEM_SHAPE_SELFOVERLAP>  (1) 
494.728

>  <PUBCHEM_SHAPE_VOLUME>  (1) 
179.3

>  <PUBCHEM_COORDINATE_TYPE>  (1) 
2
5
10

$$$$
