22227
     RDKit          3D

 11 11  0  0  1  0  0  0  0  0999 V2000
   -2.0451   -1.8620   -0.2432 O   0  0  0  0  0  0  0  0  0  0  0  0
    0.9163    0.0411   -0.3304 C   0  0  0  0  0  0  0  0  0  0  0  0
    0.3693    1.4351    0.0033 C   0  0  0  0  0  0  0  0  0  0  0  0
   -1.9542    0.4844    0.3574 C   0  0  0  0  0  0  0  0  0  0  0  0
   -1.1125    1.5440   -0.3591 C   0  0  0  0  0  0  0  0  0  0  0  0
    0.1163   -1.0490    0.3846 C   0  0  0  0  0  0  0  0  0  0  0  0
   -1.3626   -0.8963    0.0955 C   0  0  0  0  0  0  0  0  0  0  0  0
    2.3698   -0.0492    0.0178 C   0  0  0  0  0  0  0  0  0  0  0  0
   -3.4130    0.5669   -0.0804 C   0  0  0  0  0  0  0  0  0  0  0  0
    3.3080   -0.3115   -1.1227 C   0  0  0  0  0  0  0  0  0  0  0  0
    2.8075    0.0965    1.2772 C   0  0  0  0  0  0  0  0  0  0  0  0
  1  7  2  0
  2  3  1  0
  2  6  1  0
  2  8  1  0
  3  5  1  0
  4  5  1  0
  4  7  1  0
  4  9  1  0
  6  7  1  0
  8 10  1  0
  8 11  2  0
M  END
>  <PUBCHEM_COMPOUND_CID>  (1) 
22227

>  <PUBCHEM_CONFORMER_RMSD>  (1) 
0.4

>  <PUBCHEM_CONFORMER_DIVERSEORDER>  (1) 
1
13
14
11
5
8
2
6
9
7
3
10
12
4

>  <PUBCHEM_MMFF94_PARTIAL_CHARGES>  (1) 
10
1 -0.57
10 0.14
11 -0.3
2 0.14
26 0.15
27 0.15
4 0.06
6 0.06
7 0.45
8 -0.28

>  <PUBCHEM_EFFECTIVE_ROTOR_COUNT>  (1) 
2

>  <PUBCHEM_PHARMACOPHORE_FEATURES>  (1) 
2
1 1 acceptor
6 2 3 4 5 6 7 rings

>  <PUBCHEM_HEAVY_ATOM_COUNT>  (1) 
11

>  <PUBCHEM_ATOM_DEF_STEREO_COUNT>  (1) 
2

>  <PUBCHEM_ATOM_UDEF_STEREO_COUNT>  (1) 
0

>  <PUBCHEM_BOND_DEF_STEREO_COUNT>  (1) 
0

>  <PUBCHEM_BOND_UDEF_STEREO_COUNT>  (1) 
0

>  <PUBCHEM_ISOTOPIC_ATOM_COUNT>  (1) 
0

>  <PUBCHEM_COMPONENT_COUNT>  (1) 
1

>  <PUBCHEM_CACTVS_TAUTO_COUNT>  (1) 
3

>  <PUBCHEM_CONFORMER_ID>  (1) 
000056D300000001

>  <PUBCHEM_MMFF94_ENERGY>  (1) 
15.4919

>  <PUBCHEM_FEATURE_SELFOVERLAP>  (1) 
10.148

>  <PUBCHEM_SHAPE_FINGERPRINT>  (1) 
10857977 72 18342166812883774976
12716758 59 18341896242728860386
12932741 1 17846780710975834898
12932764 1 17894346687689483916
14128692 85 18264498441005628852
14911166 2 18410293592875926973
14993402 34 18335703823601435285
15219456 202 17917991711373118328
15310529 11 16370725911292929229
15775835 57 18186804660063763328
16945 1 18409727335533936769
18175812 5 17846499248778570292
20201158 50 17988368078833032678
20279233 1 17988924466213543062
20645464 45 18131057230408096016
20645476 183 17458922495014637318
20711983 138 17846509088532795074
20715346 28 17846498183642634834
20871998 184 18272655692155406031
21040471 1 18192991526167856840
21501502 16 18266735981417316281
23235685 24 18411417267842016893
23402539 116 18200861890729544917
23402655 69 18120917431894791725
23552423 10 17970350540407090557
23559900 14 18341898472745159158
2748010 2 18193553591511002517
3248919 1 17917989486247866560
369184 2 18410001131109005456
5084963 1 18272940422648410744
6333449 129 18271801337086571759

>  <PUBCHEM_SHAPE_MULTIPOLES>  (1) 
220.51
4.99
1.49
0.93
0.77
0.12
-0.07
0.07
0.31
-0.88
0.09
0.78
0
0.08

>  <PUBCHEM_SHAPE_SELFOVERLAP>  (1) 
435.983

>  <PUBCHEM_SHAPE_VOLUME>  (1) 
131.9

>  <PUBCHEM_COORDINATE_TYPE>  (1) 
2
5
10

$$$$
