22238
     RDKit          3D

  5  4  0  0  0  0  0  0  0  0999 V2000
    2.4977    0.6237    0.0856 S   0  0  0  0  0  0  0  0  0  0  0  0
    1.2496   -0.6887    0.0182 C   0  0  0  0  0  0  0  0  0  0  0  0
   -0.0695   -0.1196   -0.3973 C   0  0  0  0  0  0  0  0  0  0  0  0
   -1.1779   -0.1848    0.3552 C   0  0  0  0  0  0  0  0  0  0  0  0
   -2.4998    0.3693   -0.0617 C   0  0  0  0  0  0  0  0  0  0  0  0
  1  2  1  0
  2  3  1  0
  3  4  2  0
  4  5  1  0
M  END
>  <PUBCHEM_COMPOUND_CID>  (1) 
22238

>  <PUBCHEM_CONFORMER_RMSD>  (1) 
0.4

>  <PUBCHEM_CONFORMER_DIVERSEORDER>  (1) 
1

>  <PUBCHEM_MMFF94_PARTIAL_CHARGES>  (1) 
8
1 -0.41
13 0.18
2 0.37
3 -0.29
4 -0.29
5 0.14
8 0.15
9 0.15

>  <PUBCHEM_EFFECTIVE_ROTOR_COUNT>  (1) 
1

>  <PUBCHEM_PHARMACOPHORE_FEATURES>  (1) 
1
1 5 hydrophobe

>  <PUBCHEM_HEAVY_ATOM_COUNT>  (1) 
5

>  <PUBCHEM_ATOM_DEF_STEREO_COUNT>  (1) 
0

>  <PUBCHEM_ATOM_UDEF_STEREO_COUNT>  (1) 
0

>  <PUBCHEM_BOND_DEF_STEREO_COUNT>  (1) 
0

>  <PUBCHEM_BOND_UDEF_STEREO_COUNT>  (1) 
1

>  <PUBCHEM_ISOTOPIC_ATOM_COUNT>  (1) 
0

>  <PUBCHEM_COMPONENT_COUNT>  (1) 
1

>  <PUBCHEM_CACTVS_TAUTO_COUNT>  (1) 
1

>  <PUBCHEM_CONFORMER_ID>  (1) 
000056DE00000001

>  <PUBCHEM_MMFF94_ENERGY>  (1) 
-0.4866

>  <PUBCHEM_FEATURE_SELFOVERLAP>  (1) 
5.074

>  <PUBCHEM_SHAPE_FINGERPRINT>  (1) 
139733 1 18272371996632850934
14390081 3 18343018899824787193
16714656 1 14692571026523408877
20096714 4 18201438120753311840
29004967 10 8070027765958915636
5460574 1 9223231844959161863

>  <PUBCHEM_SHAPE_MULTIPOLES>  (1) 
106.75
3.83
0.85
0.69
0.07
0
0
1.02
-0.13
-0.25
-0.01
-0.01
0
0.04

>  <PUBCHEM_SHAPE_SELFOVERLAP>  (1) 
173.77

>  <PUBCHEM_SHAPE_VOLUME>  (1) 
75.4

>  <PUBCHEM_COORDINATE_TYPE>  (1) 
2
5
10

$$$$
