22231
     RDKit          3D

 21 24  0  0  0  0  0  0  0  0999 V2000
   -2.1745    1.6281   -0.0002 N   0  0  0  0  0  0  0  0  0  0  0  0
   -1.2351   -2.4568    0.0013 N   0  0  0  0  0  0  0  0  0  0  0  0
   -0.5246   -0.1231    0.0008 C   0  0  0  0  0  0  0  0  0  0  0  0
   -1.5527   -1.0713    0.0006 C   0  0  0  0  0  0  0  0  0  0  0  0
   -0.8861    1.2347    0.0003 C   0  0  0  0  0  0  0  0  0  0  0  0
   -2.8919   -0.6684    0.0000 C   0  0  0  0  0  0  0  0  0  0  0  0
    1.8295    0.4685    0.0013 C   0  0  0  0  0  0  0  0  0  0  0  0
    0.8298   -0.4997    0.0013 C   0  0  0  0  0  0  0  0  0  0  0  0
   -3.1608    0.7108   -0.0003 C   0  0  0  0  0  0  0  0  0  0  0  0
    0.1329    2.1834    0.0005 C   0  0  0  0  0  0  0  0  0  0  0  0
    1.4798    1.8128    0.0009 C   0  0  0  0  0  0  0  0  0  0  0  0
    3.2225    0.0791    0.0002 C   0  0  0  0  0  0  0  0  0  0  0  0
   -3.9452   -1.5995   -0.0003 C   0  0  0  0  0  0  0  0  0  0  0  0
   -4.4922    1.1181   -0.0008 C   0  0  0  0  0  0  0  0  0  0  0  0
   -5.2676   -1.1662   -0.0007 C   0  0  0  0  0  0  0  0  0  0  0  0
   -5.5414    0.1956   -0.0010 C   0  0  0  0  0  0  0  0  0  0  0  0
    3.8941   -0.1077   -1.2082 C   0  0  0  0  0  0  0  0  0  0  0  0
    3.8954   -0.1079    1.2077 C   0  0  0  0  0  0  0  0  0  0  0  0
    5.2380   -0.4811   -1.2089 C   0  0  0  0  0  0  0  0  0  0  0  0
    5.2394   -0.4815    1.2069 C   0  0  0  0  0  0  0  0  0  0  0  0
    5.9108   -0.6680   -0.0014 C   0  0  0  0  0  0  0  0  0  0  0  0
  1  5  2  0
  1  9  1  0
  2  4  1  0
  3  4  2  0
  3  5  1  0
  3  8  1  0
  4  6  1  0
  5 10  1  0
  6  9  2  0
  6 13  1  0
  7  8  2  0
  7 11  1  0
  7 12  1  0
  9 14  1  0
 10 11  2  0
 12 17  2  0
 12 18  1  0
 13 15  2  0
 14 16  2  0
 15 16  1  0
 17 19  1  0
 18 20  2  0
 19 21  2  0
 20 21  1  0
M  END
>  <PUBCHEM_COMPOUND_CID>  (1) 
22231

>  <PUBCHEM_CONFORMER_RMSD>  (1) 
0.6

>  <PUBCHEM_CONFORMER_DIVERSEORDER>  (1) 
1
2

>  <PUBCHEM_MMFF94_PARTIAL_CHARGES>  (1) 
31
1 -0.62
10 -0.15
11 -0.15
13 -0.15
14 -0.15
15 -0.15
16 -0.15
17 -0.15
18 -0.15
19 -0.15
2 -0.9
20 -0.15
21 -0.15
22 0.15
23 0.15
24 0.15
25 0.15
26 0.15
27 0.4
28 0.4
29 0.15
30 0.15
31 0.15
32 0.15
33 0.15
34 0.15
35 0.15
4 0.1
5 0.31
8 -0.15
9 0.31

>  <PUBCHEM_EFFECTIVE_ROTOR_COUNT>  (1) 
1

>  <PUBCHEM_PHARMACOPHORE_FEATURES>  (1) 
7
1 1 acceptor
1 2 cation
1 2 donor
6 1 3 4 5 6 9 rings
6 12 17 18 19 20 21 rings
6 3 5 7 8 10 11 rings
6 6 9 13 14 15 16 rings

>  <PUBCHEM_HEAVY_ATOM_COUNT>  (1) 
21

>  <PUBCHEM_ATOM_DEF_STEREO_COUNT>  (1) 
0

>  <PUBCHEM_ATOM_UDEF_STEREO_COUNT>  (1) 
0

>  <PUBCHEM_BOND_DEF_STEREO_COUNT>  (1) 
0

>  <PUBCHEM_BOND_UDEF_STEREO_COUNT>  (1) 
0

>  <PUBCHEM_ISOTOPIC_ATOM_COUNT>  (1) 
0

>  <PUBCHEM_COMPONENT_COUNT>  (1) 
1

>  <PUBCHEM_CACTVS_TAUTO_COUNT>  (1) 
2

>  <PUBCHEM_CONFORMER_ID>  (1) 
000056D700000001

>  <PUBCHEM_MMFF94_ENERGY>  (1) 
89.6361

>  <PUBCHEM_FEATURE_SELFOVERLAP>  (1) 
35.583

>  <PUBCHEM_SHAPE_FINGERPRINT>  (1) 
10 15 17917697030020819618
11315181 36 18272655649031555856
11524674 6 16917347030552563006
11646440 116 18131079242236833723
12011746 2 18410290303052128543
12107183 9 17248629677964048720
12236239 1 17749108872677365820
12516196 113 18202282520066919784
12788726 201 18189052014792428912
13140716 1 18267581492994903115
13288520 33 18411139134518550709
13402501 40 18202290169493559550
13533116 47 14764354804096956038
13583140 156 15123497151241050335
13675066 3 17846495958638533469
13862211 1 18410570704144895447
14251752 14 17603576396791201501
14386348 63 18060704974757665382
15042514 8 18267022937511145139
15099037 51 18410577296819299279
15196674 1 18338516447301811745
17349148 13 18343868830939747093
17492 89 17978790435039366119
17804303 29 18412262860829303505
17844677 252 18272938223688985216
1813 80 17675928664414290814
18222031 100 18412265043036641236
19141452 34 17775281698572342439
200 152 16515683321307754764
20028762 73 18059009613796436447
20374829 77 18410011043898864197
21033648 29 16916771947215835752
21033650 10 17825410491552181868
21267235 1 18409454717481410531
21279426 13 18196656189859693431
21859007 373 18042941238840265453
2297311 6 18343591715871871484
23175994 123 17418375800506499585
23366157 5 17899131895501426492
23402539 116 18343014497836470543
23522609 53 18044968764004267237
23536379 177 16225762995451686061
23557571 272 18129671807076376180
23559900 14 18270677674910808392
23569914 152 12618030045263056067
23569943 247 17629214718481194727
239999 70 18201721761015960462
3004659 81 18260271850184891884
335352 9 18410573994617235333
34797466 226 17917723439580102244
4340502 62 14764353760013591333
4463277 17 18408886252346973364
465052 167 18336272330868198926
5104073 3 18340491187555019641
5385378 56 18197507233893889875
542803 24 17167582682899594862
559249 180 18261105236337143787
59755656 215 18412545375404579303
6138700 20 18409731720632573815
8863177 126 17752781383406873579
9709674 26 18122344842056332035

>  <PUBCHEM_SHAPE_MULTIPOLES>  (1) 
422.21
13.16
1.82
0.89
4.25
0.19
0
-3.67
-0.01
-1.39
0
1.3
-0.08
0

>  <PUBCHEM_SHAPE_SELFOVERLAP>  (1) 
964.054

>  <PUBCHEM_SHAPE_VOLUME>  (1) 
217.8

>  <PUBCHEM_COORDINATE_TYPE>  (1) 
2
5
10

$$$$
