22239
     RDKit          3D

 16 16  0  0  0  0  0  0  0  0999 V2000
    2.8620   -0.5800    0.3986 O   0  0  0  0  0  0  0  0  0  0  0  0
    2.0744    2.0564    0.0827 O   0  0  0  0  0  0  0  0  0  0  0  0
    0.9498   -2.5830    0.4711 O   0  0  0  0  0  0  0  0  0  0  0  0
   -2.9940    1.8544   -0.2331 O   0  0  0  0  0  0  0  0  0  0  0  0
   -4.3715   -1.2083   -0.0228 N   0  0  0  0  0  0  0  0  0  0  0  0
    1.5397   -0.2699    0.2791 C   0  0  0  0  0  0  0  0  0  0  0  0
    1.1472    1.0591    0.1201 C   0  0  0  0  0  0  0  0  0  0  0  0
    0.5796   -1.2811    0.3153 C   0  0  0  0  0  0  0  0  0  0  0  0
   -1.1655    0.3657    0.0334 C   0  0  0  0  0  0  0  0  0  0  0  0
   -0.2055    1.3770   -0.0026 C   0  0  0  0  0  0  0  0  0  0  0  0
   -0.7730   -0.9633    0.1924 C   0  0  0  0  0  0  0  0  0  0  0  0
   -2.5759    0.6968   -0.0925 C   0  0  0  0  0  0  0  0  0  0  0  0
    3.7116   -0.2209   -0.6886 C   0  0  0  0  0  0  0  0  0  0  0  0
    1.5886    3.3871   -0.0826 C   0  0  0  0  0  0  0  0  0  0  0  0
    1.2116   -3.3288   -0.7160 C   0  0  0  0  0  0  0  0  0  0  0  0
   -3.5791   -0.3611   -0.0547 C   0  0  0  0  0  0  0  0  0  0  0  0
  1  6  1  0
  1 13  1  0
  2  7  1  0
  2 14  1  0
  3  8  1  0
  3 15  1  0
  4 12  2  0
  5 16  3  0
  6  7  2  0
  6  8  1  0
  7 10  1  0
  8 11  2  0
  9 10  2  0
  9 11  1  0
  9 12  1  0
 12 16  1  0
M  END
>  <PUBCHEM_COMPOUND_CID>  (1) 
22239

>  <PUBCHEM_CONFORMER_RMSD>  (1) 
0.6

>  <PUBCHEM_CONFORMER_DIVERSEORDER>  (1) 
4
9
3
6
8
7
5
11
12
10
1
2

>  <PUBCHEM_MMFF94_PARTIAL_CHARGES>  (1) 
18
1 -0.36
10 -0.15
11 -0.15
12 0.59
13 0.28
14 0.28
15 0.28
16 0.45
17 0.15
18 0.15
2 -0.36
3 -0.36
4 -0.57
5 -0.56
6 0.08
7 0.08
8 0.08
9 0.09

>  <PUBCHEM_EFFECTIVE_ROTOR_COUNT>  (1) 
4

>  <PUBCHEM_PHARMACOPHORE_FEATURES>  (1) 
6
1 1 acceptor
1 2 acceptor
1 3 acceptor
1 4 acceptor
1 5 acceptor
6 6 7 8 9 10 11 rings

>  <PUBCHEM_HEAVY_ATOM_COUNT>  (1) 
16

>  <PUBCHEM_ATOM_DEF_STEREO_COUNT>  (1) 
0

>  <PUBCHEM_ATOM_UDEF_STEREO_COUNT>  (1) 
0

>  <PUBCHEM_BOND_DEF_STEREO_COUNT>  (1) 
0

>  <PUBCHEM_BOND_UDEF_STEREO_COUNT>  (1) 
0

>  <PUBCHEM_ISOTOPIC_ATOM_COUNT>  (1) 
0

>  <PUBCHEM_COMPONENT_COUNT>  (1) 
1

>  <PUBCHEM_CACTVS_TAUTO_COUNT>  (1) 
1

>  <PUBCHEM_CONFORMER_ID>  (1) 
000056DF00000004

>  <PUBCHEM_MMFF94_ENERGY>  (1) 
70.1398

>  <PUBCHEM_FEATURE_SELFOVERLAP>  (1) 
30.459

>  <PUBCHEM_SHAPE_FINGERPRINT>  (1) 
10967382 1 18337952393240842264
11680986 33 18118409685376574728
116883 192 17476353903247663038
13140716 1 18265052629326097307
13380535 76 18122620827912162952
13380536 305 18338518646261542936
14178342 30 18268697330004556529
14251717 144 18410851109621748543
15536298 74 18270680981961701608
16945 1 18410852131623505001
17990270 104 18337950074296372475
18186145 218 18413109484946338201
193761 8 17905890636515929658
19591789 44 18339083825050121103
20511035 2 17970357120634435674
20588541 1 18262242110027657498
20645477 70 18337663205215213039
21501502 16 18262797337851543731
21524375 3 18117554248171732536
221490 88 18335988661437441811
2255824 54 18410575123344437676
2334 1 18122061180561407641
23402539 116 18341888546796319182
23526114 1 18194965141002787647
23530152 11 18123189262390978775
23557571 272 16904960757657750838
2748010 2 18191873541817045624
2871803 45 18336538413388892183
3060560 45 18411696608204183534
58051976 378 18196085771053277973
7364860 26 18412261727094814505
7832392 63 18196372511812919721
81228 2 17114656320464925371
9709674 26 18408885114629247211

>  <PUBCHEM_SHAPE_MULTIPOLES>  (1) 
300.81
5.63
3.37
0.69
4.41
0.1
-0.03
0.21
-0.65
-2.06
-0.37
-0.18
0.15
0.17

>  <PUBCHEM_SHAPE_SELFOVERLAP>  (1) 
626.514

>  <PUBCHEM_SHAPE_VOLUME>  (1) 
170.6

>  <PUBCHEM_COORDINATE_TYPE>  (1) 
2
5
10

$$$$
