22259
     RDKit          3D

 21 21  0  0  1  0  0  0  0  0999 V2000
   -7.9509    2.4438   -0.1997 O   0  0  0  0  0  0  0  0  0  0  0  0
   -9.6096    0.9223    0.2637 N   0  0  0  0  0  0  0  0  0  0  0  0
    3.7270   -2.6420   -0.4854 C   0  0  0  0  0  0  0  0  0  0  0  0
    4.6015   -2.0440    0.5774 C   0  0  0  0  0  0  0  0  0  0  0  0
    4.8479   -3.4467    0.1044 C   0  0  0  0  0  0  0  0  0  0  0  0
    2.3134   -3.0036   -0.1487 C   0  0  0  0  0  0  0  0  0  0  0  0
    5.5628   -0.9766    0.2064 C   0  0  0  0  0  0  0  0  0  0  0  0
    1.3596   -1.8295   -0.3697 C   0  0  0  0  0  0  0  0  0  0  0  0
    5.0152    0.4456    0.3963 C   0  0  0  0  0  0  0  0  0  0  0  0
   -0.0866   -2.2194   -0.0621 C   0  0  0  0  0  0  0  0  0  0  0  0
    6.0161    1.5297   -0.0130 C   0  0  0  0  0  0  0  0  0  0  0  0
   -1.0355   -1.0337   -0.2521 C   0  0  0  0  0  0  0  0  0  0  0  0
    5.4204    2.9284    0.1628 C   0  0  0  0  0  0  0  0  0  0  0  0
   -2.4857   -1.4355    0.0258 C   0  0  0  0  0  0  0  0  0  0  0  0
    6.4061    4.0117   -0.2747 C   0  0  0  0  0  0  0  0  0  0  0  0
   -3.4818   -0.2875   -0.1613 C   0  0  0  0  0  0  0  0  0  0  0  0
   -4.9351   -0.6955    0.0929 C   0  0  0  0  0  0  0  0  0  0  0  0
    5.8304    5.4039   -0.0705 C   0  0  0  0  0  0  0  0  0  0  0  0
   -5.8767    0.5070   -0.0366 C   0  0  0  0  0  0  0  0  0  0  0  0
   -7.3403    0.1254    0.1797 C   0  0  0  0  0  0  0  0  0  0  0  0
   -8.2981    1.2964    0.0641 C   0  0  0  0  0  0  0  0  0  0  0  0
  1 21  2  0
  2 21  1  0
  3  4  1  0
  3  5  1  0
  3  6  1  0
  4  5  1  0
  4  7  1  0
  6  8  1  0
  7  9  1  0
  8 10  1  0
  9 11  1  0
 10 12  1  0
 11 13  1  0
 12 14  1  0
 13 15  1  0
 14 16  1  0
 15 18  1  0
 16 17  1  0
 17 19  1  0
 19 20  1  0
 20 21  1  0
M  END
>  <PUBCHEM_COMPOUND_CID>  (1) 
22259

>  <PUBCHEM_CONFORMER_RMSD>  (1) 
1.6

>  <PUBCHEM_CONFORMER_DIVERSEORDER>  (1) 
1
13
7
28
11
2
24
43
14
5
34
30
33
48
53
54
29
10
20
40
16
45
21
25
23
8
44
3
32
15
38
37
4
46
47
6
36
26
19
39
17
18
41
22
50
27
35
49
52
51
31
9
42
12

>  <PUBCHEM_MMFF94_PARTIAL_CHARGES>  (1) 
15
1 -0.57
2 -0.8
20 0.06
21 0.57
22 0.1
23 0.1
24 0.1
25 0.1
3 -0.19
4 -0.19
5 -0.2
57 0.37
58 0.37
6 0.09
7 0.09

>  <PUBCHEM_EFFECTIVE_ROTOR_COUNT>  (1) 
15.6

>  <PUBCHEM_PHARMACOPHORE_FEATURES>  (1) 
4
1 1 acceptor
1 18 hydrophobe
1 2 donor
5 7 9 11 13 15 hydrophobe

>  <PUBCHEM_HEAVY_ATOM_COUNT>  (1) 
21

>  <PUBCHEM_ATOM_DEF_STEREO_COUNT>  (1) 
0

>  <PUBCHEM_ATOM_UDEF_STEREO_COUNT>  (1) 
2

>  <PUBCHEM_BOND_DEF_STEREO_COUNT>  (1) 
0

>  <PUBCHEM_BOND_UDEF_STEREO_COUNT>  (1) 
0

>  <PUBCHEM_ISOTOPIC_ATOM_COUNT>  (1) 
0

>  <PUBCHEM_COMPONENT_COUNT>  (1) 
1

>  <PUBCHEM_CACTVS_TAUTO_COUNT>  (1) 
2

>  <PUBCHEM_CONFORMER_ID>  (1) 
000056F300000001

>  <PUBCHEM_MMFF94_ENERGY>  (1) 
10.6973

>  <PUBCHEM_FEATURE_SELFOVERLAP>  (1) 
20.297

>  <PUBCHEM_SHAPE_FINGERPRINT>  (1) 
10693767 8 9511464411633995660
11135609 127 18411978065858638935
11374522 174 17971202671326976988
125118 31 18339081480556763467
12522641 24 17749945549450359770
12888983 3 17969488339283347245
13944108 23 18413108390526379800
14142895 15 18341048601670278631
14251757 52 18409445877948079331
14251764 75 18194399116649153036
14598715 104 17313656046157021925
15419008 91 17822565037469805005
155225 6 18265616670676354804
16120349 18 18411415090752520831
17810953 82 18336265751974892070
19427546 62 18411418419316258790
21585482 111 18336832000063016980
22224240 67 18113902607749620531
23569943 247 9727092957246715021
33532 11 8790876385702093675
397830 11 18261966227558069251
444735 82 18410857650888907197
44555599 121 18129666292559544225
5047190 36 17389665516829983028
57634706 306 18334287678432041347

>  <PUBCHEM_SHAPE_MULTIPOLES>  (1) 
421.32
28.83
5.89
0.67
64.53
6.93
0
29.58
-1.75
-17.78
0.4
-0.21
-0.07
-0.41

>  <PUBCHEM_SHAPE_SELFOVERLAP>  (1) 
787.06

>  <PUBCHEM_SHAPE_VOLUME>  (1) 
264.5

>  <PUBCHEM_COORDINATE_TYPE>  (1) 
2
5
10

$$$$
