22288
     RDKit          3D

 48 51  0  0  1  0  0  0  0  0999 V2000
   -6.1233   -1.8958    0.7216 Cl  0  0  0  0  0  0  0  0  0  0  0  0
    6.1226    1.8961    0.7212 Cl  0  0  0  0  0  0  0  0  0  0  0  0
  -10.8077   -3.8216    2.5431 Cl  0  0  0  0  0  0  0  0  0  0  0  0
   10.8069    3.8226    2.5423 Cl  0  0  0  0  0  0  0  0  0  0  0  0
   -5.3438    1.0888   -2.5501 O   0  0  0  0  0  0  0  0  0  0  0  0
    5.3431   -1.0894   -2.5498 O   0  0  0  0  0  0  0  0  0  0  0  0
   -8.7426    2.1594   -2.6395 O   0  0  0  0  0  0  0  0  0  0  0  0
    8.7419   -2.1599   -2.6389 O   0  0  0  0  0  0  0  0  0  0  0  0
   -4.6712    1.5137   -0.3364 N   0  0  0  0  0  0  0  0  0  0  0  0
    4.6882   -1.5192   -0.3363 N   0  0  0  0  0  0  0  0  0  0  0  0
   -7.6965    0.9018   -0.5395 N   0  0  0  0  0  0  0  0  0  0  0  0
    7.6958   -0.9018   -0.5392 N   0  0  0  0  0  0  0  0  0  0  0  0
   -7.5712    0.7720    0.6956 N   0  0  0  0  0  0  0  0  0  0  0  0
    7.5705   -0.7715    0.6959 N   0  0  0  0  0  0  0  0  0  0  0  0
   -0.6882    0.2240   -0.3145 C   0  0  0  0  0  0  0  0  0  0  0  0
    0.6875   -0.2238   -0.3144 C   0  0  0  0  0  0  0  0  0  0  0  0
   -2.5815    1.1688    0.8515 C   0  0  0  0  0  0  0  0  0  0  0  0
    2.5809   -1.1683    0.8518 C   0  0  0  0  0  0  0  0  0  0  0  0
   -1.2552    0.7373    0.8519 C   0  0  0  0  0  0  0  0  0  0  0  0
    1.2545   -0.7367    0.8522 C   0  0  0  0  0  0  0  0  0  0  0  0
   -3.3411    1.0869   -0.3157 C   0  0  0  0  0  0  0  0  0  0  0  0
    3.3403   -1.0868   -0.3153 C   0  0  0  0  0  0  0  0  0  0  0  0
   -1.4478    0.1420   -1.4815 C   0  0  0  0  0  0  0  0  0  0  0  0
    1.4471   -0.1423   -1.4816 C   0  0  0  0  0  0  0  0  0  0  0  0
   -2.7742    0.5735   -1.4822 C   0  0  0  0  0  0  0  0  0  0  0  0
    2.7735   -0.5737   -1.4821 C   0  0  0  0  0  0  0  0  0  0  0  0
   -3.1632    1.7146    2.1151 C   0  0  0  0  0  0  0  0  0  0  0  0
    3.1626   -1.7136    2.1156 C   0  0  0  0  0  0  0  0  0  0  0  0
   -5.5679    1.4963   -1.4130 C   0  0  0  0  0  0  0  0  0  0  0  0
    5.5672   -1.4966   -1.4127 C   0  0  0  0  0  0  0  0  0  0  0  0
   -6.9323    2.0472   -1.0404 C   0  0  0  0  0  0  0  0  0  0  0  0
    6.9316   -2.0473   -1.0398 C   0  0  0  0  0  0  0  0  0  0  0  0
   -7.6890    2.6354   -2.2176 C   0  0  0  0  0  0  0  0  0  0  0  0
    7.6883   -2.6358   -2.2168 C   0  0  0  0  0  0  0  0  0  0  0  0
   -7.0884    3.8633   -2.8551 C   0  0  0  0  0  0  0  0  0  0  0  0
    7.0877   -3.8639   -2.8539 C   0  0  0  0  0  0  0  0  0  0  0  0
   -8.3198   -0.3343    1.1312 C   0  0  0  0  0  0  0  0  0  0  0  0
    8.3189    0.3349    1.1312 C   0  0  0  0  0  0  0  0  0  0  0  0
   -7.7623   -1.6118    1.1853 C   0  0  0  0  0  0  0  0  0  0  0  0
    7.7615    1.6123    1.1850 C   0  0  0  0  0  0  0  0  0  0  0  0
   -9.6465   -0.1357    1.5134 C   0  0  0  0  0  0  0  0  0  0  0  0
    9.6458    0.1363    1.5134 C   0  0  0  0  0  0  0  0  0  0  0  0
   -8.5314   -2.6905    1.6217 C   0  0  0  0  0  0  0  0  0  0  0  0
    8.5305    2.6912    1.6211 C   0  0  0  0  0  0  0  0  0  0  0  0
  -10.4157   -1.2143    1.9496 C   0  0  0  0  0  0  0  0  0  0  0  0
   10.4148    1.2150    1.9494 C   0  0  0  0  0  0  0  0  0  0  0  0
   -9.8581   -2.4917    2.0039 C   0  0  0  0  0  0  0  0  0  0  0  0
    9.8572    2.4925    2.0033 C   0  0  0  0  0  0  0  0  0  0  0  0
  1 39  1  0
  2 40  1  0
  3 47  1  0
  4 48  1  0
  5 29  2  0
  6 30  2  0
  7 33  2  0
  8 34  2  0
  9 21  1  0
  9 29  1  0
 10 22  1  0
 10 30  1  0
 11 13  2  0
 11 31  1  0
 12 14  2  0
 12 32  1  0
 13 37  1  0
 14 38  1  0
 15 16  1  0
 15 19  1  0
 15 23  2  0
 16 20  1  0
 16 24  2  0
 17 19  2  0
 17 21  1  0
 17 27  1  0
 18 20  2  0
 18 22  1  0
 18 28  1  0
 21 25  2  0
 22 26  2  0
 23 25  1  0
 24 26  1  0
 29 31  1  0
 30 32  1  0
 31 33  1  0
 32 34  1  0
 33 35  1  0
 34 36  1  0
 37 39  2  0
 37 41  1  0
 38 40  2  0
 38 42  1  0
 39 43  1  0
 40 44  1  0
 41 45  2  0
 42 46  2  0
 43 47  2  0
 44 48  2  0
 45 47  1  0
 46 48  1  0
M  END
>  <PUBCHEM_COMPOUND_CID>  (1) 
22288

>  <PUBCHEM_CONFORMER_RMSD>  (1) 
1.4

>  <PUBCHEM_CONFORMER_DIVERSEORDER>  (1) 
1
9
33
2
10
48
41
34
59
3
43
49
44
57
55
50
4
53
21
45
36
58
7
17
26
65
30
39
28
51
63
47
14
15
19
62
37
67
16
66
46
18
64
20
27
31
52
54
68
42
35
69
38
29
40
25
56
60
8
22
61
5
11
32
24
23
12
13
6

>  <PUBCHEM_MMFF94_PARTIAL_CHARGES>  (1) 
60
1 -0.18
10 -0.55
11 -0.25
12 -0.25
13 -0.18
14 -0.18
17 -0.14
18 -0.14
19 -0.15
2 -0.18
20 -0.15
21 0.12
22 0.12
23 -0.15
24 -0.15
25 -0.15
26 -0.15
27 0.14
28 0.14
29 0.57
3 -0.18
30 0.57
31 0.37
32 0.37
33 0.45
34 0.45
35 0.06
36 0.06
37 0.18
38 0.18
39 0.18
4 -0.18
40 0.18
41 -0.15
42 -0.15
43 -0.15
44 -0.15
45 -0.15
46 -0.15
47 0.18
48 0.18
49 0.15
5 -0.57
50 0.15
51 0.15
52 0.15
53 0.15
54 0.15
6 -0.57
61 0.37
62 0.37
7 -0.57
71 0.15
72 0.15
73 0.15
74 0.15
75 0.15
76 0.15
8 -0.57
9 -0.55

>  <PUBCHEM_EFFECTIVE_ROTOR_COUNT>  (1) 
13

>  <PUBCHEM_PHARMACOPHORE_FEATURES>  (1) 
12
1 10 donor
1 31 anion
1 32 anion
1 5 acceptor
1 6 acceptor
1 7 acceptor
1 8 acceptor
1 9 donor
6 15 17 19 21 23 25 rings
6 16 18 20 22 24 26 rings
6 37 39 41 43 45 47 rings
6 38 40 42 44 46 48 rings

>  <PUBCHEM_HEAVY_ATOM_COUNT>  (1) 
48

>  <PUBCHEM_ATOM_DEF_STEREO_COUNT>  (1) 
0

>  <PUBCHEM_ATOM_UDEF_STEREO_COUNT>  (1) 
2

>  <PUBCHEM_BOND_DEF_STEREO_COUNT>  (1) 
0

>  <PUBCHEM_BOND_UDEF_STEREO_COUNT>  (1) 
0

>  <PUBCHEM_ISOTOPIC_ATOM_COUNT>  (1) 
0

>  <PUBCHEM_COMPONENT_COUNT>  (1) 
1

>  <PUBCHEM_CACTVS_TAUTO_COUNT>  (1) 
78

>  <PUBCHEM_CONFORMER_ID>  (1) 
0000571000000001

>  <PUBCHEM_MMFF94_ENERGY>  (1) 
133.1352

>  <PUBCHEM_FEATURE_SELFOVERLAP>  (1) 
60.897

>  <PUBCHEM_SHAPE_FINGERPRINT>  (1) 
11621639 148 18411417349589229696
12089408 11 15769769135170842492
15461852 350 17749402429476481335
15554971 5 15791454807263454031
16728433 110 18131914841025281841
17686467 74 18410854343891118649
19315958 150 18060424629479426302
21895431 317 16805592681853504466
22149856 69 13398633806244834366
3991529 128 16128383713588592299
4173938 188 18261111902495601219
4353968 344 14273723067866822167
437795 160 17894347787201079169
4516262 110 17988911302909479412
474113 269 13262386775032560168

>  <PUBCHEM_SHAPE_MULTIPOLES>  (1) 
941.93
47.69
4.05
3.22
0.03
0
1.16
0
-23.75
-0.01
0.73
0.01
0
18.82

>  <PUBCHEM_SHAPE_SELFOVERLAP>  (1) 
1993.21

>  <PUBCHEM_SHAPE_VOLUME>  (1) 
529.2

>  <PUBCHEM_COORDINATE_TYPE>  (1) 
2
5
10

$$$$
