22289
     RDKit          3D

 11 11  0  0  0  0  0  0  0  0999 V2000
    2.2510    2.6467    0.0010 Cl  0  0  0  0  0  0  0  0  0  0  0  0
    2.0868   -2.7479   -0.0031 Cl  0  0  0  0  0  0  0  0  0  0  0  0
   -2.8516    1.1642   -0.0106 O   0  0  0  0  0  0  0  0  0  0  0  0
   -2.9209   -1.1280    0.0037 N   0  0  0  0  0  0  0  0  0  0  0  0
   -0.7824    0.0393    0.0028 C   0  0  0  0  0  0  0  0  0  0  0  0
   -0.1221   -1.1894    0.0007 C   0  0  0  0  0  0  0  0  0  0  0  0
   -0.0485    1.2255    0.0028 C   0  0  0  0  0  0  0  0  0  0  0  0
    1.3457    1.1831    0.0007 C   0  0  0  0  0  0  0  0  0  0  0  0
    1.2721   -1.2318   -0.0012 C   0  0  0  0  0  0  0  0  0  0  0  0
    2.0060   -0.0456   -0.0012 C   0  0  0  0  0  0  0  0  0  0  0  0
   -2.2362    0.0838    0.0043 C   0  0  0  0  0  0  0  0  0  0  0  0
  1  8  1  0
  2  9  1  0
  3 11  2  0
  4 11  1  0
  5  6  2  0
  5  7  1  0
  5 11  1  0
  6  9  1  0
  7  8  2  0
  8 10  1  0
  9 10  2  0
M  END
>  <PUBCHEM_COMPOUND_CID>  (1) 
22289

>  <PUBCHEM_CONFORMER_RMSD>  (1) 
0.4

>  <PUBCHEM_CONFORMER_DIVERSEORDER>  (1) 
1

>  <PUBCHEM_MMFF94_PARTIAL_CHARGES>  (1) 
16
1 -0.18
10 -0.15
11 0.54
12 0.15
13 0.15
14 0.15
15 0.37
16 0.37
2 -0.18
3 -0.57
4 -0.8
5 0.09
6 -0.15
7 -0.15
8 0.18
9 0.18

>  <PUBCHEM_EFFECTIVE_ROTOR_COUNT>  (1) 
1

>  <PUBCHEM_PHARMACOPHORE_FEATURES>  (1) 
3
1 3 acceptor
1 4 donor
6 5 6 7 8 9 10 rings

>  <PUBCHEM_HEAVY_ATOM_COUNT>  (1) 
11

>  <PUBCHEM_ATOM_DEF_STEREO_COUNT>  (1) 
0

>  <PUBCHEM_ATOM_UDEF_STEREO_COUNT>  (1) 
0

>  <PUBCHEM_BOND_DEF_STEREO_COUNT>  (1) 
0

>  <PUBCHEM_BOND_UDEF_STEREO_COUNT>  (1) 
0

>  <PUBCHEM_ISOTOPIC_ATOM_COUNT>  (1) 
0

>  <PUBCHEM_COMPONENT_COUNT>  (1) 
1

>  <PUBCHEM_CACTVS_TAUTO_COUNT>  (1) 
2

>  <PUBCHEM_CONFORMER_ID>  (1) 
0000571100000001

>  <PUBCHEM_MMFF94_ENERGY>  (1) 
27.5023

>  <PUBCHEM_FEATURE_SELFOVERLAP>  (1) 
15.223

>  <PUBCHEM_SHAPE_FINGERPRINT>  (1) 
1 1 18338799030337659628
13380535 76 18120651589717420186
14325111 11 18266458883128305249
14648413 74 18408886204965027337
16945 1 18410856551134283488
17990270 104 18409728430703261035
19021347 11 18338515360458658678
19973954 147 18410576163064036009
20645477 70 18409721881585237391
20871998 22 18053948346750708646
21040471 1 18050287265114098016
21501502 16 18411699889854375507
21524375 3 18055071227342755028
23552423 10 18410857667904927799
241688 4 17906172845868718762
2748010 2 18120663692993250086
3071541 12 18411706473923546532
7364860 26 18413107255947566594
81228 2 17403181400409130458

>  <PUBCHEM_SHAPE_MULTIPOLES>  (1) 
219.26
3.92
2.83
0.61
2.74
0.32
0
-0.28
0
-2.69
0
-0.06
0
0.01

>  <PUBCHEM_SHAPE_SELFOVERLAP>  (1) 
442.369

>  <PUBCHEM_SHAPE_VOLUME>  (1) 
130.6

>  <PUBCHEM_COORDINATE_TYPE>  (1) 
2
5
10

$$$$
