22291
     RDKit          3D

 25 26  0  0  1  0  0  0  0  0999 V2000
    0.3891   -2.4754    1.4305 N   0  0  0  0  0  0  0  0  0  0  0  0
   -1.0664   -0.7838    0.6527 N   0  0  0  0  0  0  0  0  0  0  0  0
    1.9956   -1.1600    0.3014 N   0  0  0  0  0  0  0  0  0  0  0  0
    0.1993   -2.6403   -0.0488 C   0  0  0  0  0  0  0  0  0  0  0  0
   -1.0461   -1.8003   -0.3962 C   0  0  0  0  0  0  0  0  0  0  0  0
    1.4998   -2.1137   -0.6878 C   0  0  0  0  0  0  0  0  0  0  0  0
   -0.6861   -1.5461    1.8395 C   0  0  0  0  0  0  0  0  0  0  0  0
    1.7184   -1.8409    1.5638 C   0  0  0  0  0  0  0  0  0  0  0  0
   -0.0221   -4.1122   -0.4017 C   0  0  0  0  0  0  0  0  0  0  0  0
   -2.3639   -0.1396    0.7871 C   0  0  0  0  0  0  0  0  0  0  0  0
    3.4059   -0.8489    0.1254 C   0  0  0  0  0  0  0  0  0  0  0  0
   -2.8031    0.6260   -0.4792 C   0  0  0  0  0  0  0  0  0  0  0  0
    3.6765    0.1431   -1.0259 C   0  0  0  0  0  0  0  0  0  0  0  0
   -4.2123    1.2564   -0.3620 C   0  0  0  0  0  0  0  0  0  0  0  0
    2.9261    1.4885   -0.8709 C   0  0  0  0  0  0  0  0  0  0  0  0
   -1.8013    1.7289   -0.8978 C   0  0  0  0  0  0  0  0  0  0  0  0
    5.1820    0.4374   -1.2301 C   0  0  0  0  0  0  0  0  0  0  0  0
   -5.3987    0.2948   -0.4983 C   0  0  0  0  0  0  0  0  0  0  0  0
    3.3098    2.3429    0.3429 C   0  0  0  0  0  0  0  0  0  0  0  0
   -1.7093    2.8859    0.0874 C   0  0  0  0  0  0  0  0  0  0  0  0
    6.0382   -0.8103   -1.3966 C   0  0  0  0  0  0  0  0  0  0  0  0
   -6.7577    0.9941   -0.4626 C   0  0  0  0  0  0  0  0  0  0  0  0
    2.4699    3.6125    0.4849 C   0  0  0  0  0  0  0  0  0  0  0  0
   -7.8991   -0.0106   -0.5004 C   0  0  0  0  0  0  0  0  0  0  0  0
    2.9554    4.4716    1.6425 C   0  0  0  0  0  0  0  0  0  0  0  0
  1  4  1  0
  1  7  1  0
  1  8  1  0
  2  5  1  0
  2  7  1  0
  2 10  1  0
  3  6  1  0
  3  8  1  0
  3 11  1  0
  4  5  1  0
  4  6  1  0
  4  9  1  0
 10 12  1  0
 11 13  1  0
 12 14  1  0
 12 16  1  0
 13 15  1  0
 13 17  1  0
 14 18  1  0
 15 19  1  0
 16 20  1  0
 17 21  1  0
 18 22  1  0
 19 23  1  0
 22 24  1  0
 23 25  1  0
M  END
>  <PUBCHEM_COMPOUND_CID>  (1) 
22291

>  <PUBCHEM_CONFORMER_RMSD>  (1) 
1.2

>  <PUBCHEM_CONFORMER_DIVERSEORDER>  (1) 
1
148
192
101
20
71
73
157
144
176
182
83
70
66
88
164
162
191
90
63
106
175
114
173
120
187
121
153
50
48
170
53
189
190
184
57
2
111
95
167
94
37
104
132
124
112
193
27
169
163
127
179
142
143
46
81
75
152
64
154
31
194
181
137
116
174
136
133
33
180
147
86
22
171
56
35
125
185
159
76
72
188
59
3
168
38
24
41
118
123
158
100
47
77
74
60
79
129
126
42
110
44
13
55
89
156
54
146
52
21
91
128
45
183
151
105
172
113
141
92
109
160
51
119
145
139
58
39
10
122
177
102
84
80
117
155
135
40
8
78
23
97
99
165
4
65
108
43
131
34
15
150
49
93
61
18
138
115
5
103
19
17
107
134
82
28
25
140
178
68
62
69
186
85
149
195
96
67
29
16
26
11
9
36
14
98
12
6
166
32
87
30
161
130
7

>  <PUBCHEM_MMFF94_PARTIAL_CHARGES>  (1) 
10
1 -0.81
10 0.27
11 0.27
2 -0.81
3 -0.81
4 0.27
5 0.27
6 0.27
7 0.54
8 0.54

>  <PUBCHEM_EFFECTIVE_ROTOR_COUNT>  (1) 
13.2

>  <PUBCHEM_PHARMACOPHORE_FEATURES>  (1) 
11
1 1 cation
1 2 cation
1 20 hydrophobe
1 21 hydrophobe
1 24 hydrophobe
1 25 hydrophobe
1 3 cation
5 1 2 4 5 7 rings
5 1 3 4 6 8 rings
5 12 14 16 18 22 hydrophobe
5 13 15 17 19 23 hydrophobe

>  <PUBCHEM_HEAVY_ATOM_COUNT>  (1) 
25

>  <PUBCHEM_ATOM_DEF_STEREO_COUNT>  (1) 
0

>  <PUBCHEM_ATOM_UDEF_STEREO_COUNT>  (1) 
2

>  <PUBCHEM_BOND_DEF_STEREO_COUNT>  (1) 
0

>  <PUBCHEM_BOND_UDEF_STEREO_COUNT>  (1) 
0

>  <PUBCHEM_ISOTOPIC_ATOM_COUNT>  (1) 
0

>  <PUBCHEM_COMPONENT_COUNT>  (1) 
1

>  <PUBCHEM_CACTVS_TAUTO_COUNT>  (1) 
1

>  <PUBCHEM_CONFORMER_ID>  (1) 
0000571300000001

>  <PUBCHEM_MMFF94_ENERGY>  (1) 
41.8282

>  <PUBCHEM_FEATURE_SELFOVERLAP>  (1) 
56.625

>  <PUBCHEM_SHAPE_FINGERPRINT>  (1) 
10165383 225 17894635846636844734
11014199 57 17548133329544851019
11578080 2 17201904037799147946
12107698 1 17989490697311625228
12769317 202 18189045396020809749
13402501 40 18335145297422429764
1361 2 18338512049540371269
146900 427 18409170983404643497
14725015 67 18411127018437590056
14787075 74 18187645770102036519
14790565 3 18341327869012401135
14931854 50 18336836281913101732
15322687 12 18410855490409685184
18335252 114 18340201903974310631
18681886 176 18268980995241073306
20465049 17 18411141324761909212
20567600 254 17749392550882882111
20775438 99 17699539718484747854
21049683 118 17822837801604233595
21344244 246 17986963942545712814
21344244 78 17973420136691666954
21524375 3 18260552195184750930
221357 26 18340492175260444580
23559900 14 18262522601331069213
238 59 18410011009507691928
3524813 1 18261114062917079836
437795 51 18337675312822998273
46194498 28 18055920883422241959
484989 97 18338244876593753187
5312625 73 18335419050553986885
53794403 172 18190745430018779780
59755656 215 18335145262962172503

>  <PUBCHEM_SHAPE_MULTIPOLES>  (1) 
499.55
13.3
4.73
1.41
20.75
1.92
-0.43
5.64
6.08
-4.21
-1.71
-1.14
-0.08
1.41

>  <PUBCHEM_SHAPE_SELFOVERLAP>  (1) 
967.605

>  <PUBCHEM_SHAPE_VOLUME>  (1) 
303.9

>  <PUBCHEM_COORDINATE_TYPE>  (1) 
2
5
10

$$$$
