22327
     RDKit          3D

 19 19  0  0  0  0  0  0  0  0999 V2000
   -5.6557   -0.2279   -0.2046 C   0  0  0  0  0  0  0  0  0  0  0  0
   -6.8257   -1.2020   -0.0113 C   0  0  0  0  0  0  0  0  0  0  0  0
   -5.9362    1.1088    0.4951 C   0  0  0  0  0  0  0  0  0  0  0  0
   -4.3532   -0.8411    0.3061 C   0  0  0  0  0  0  0  0  0  0  0  0
   -8.1491   -0.5906   -0.4658 C   0  0  0  0  0  0  0  0  0  0  0  0
   -7.2612    1.7162    0.0399 C   0  0  0  0  0  0  0  0  0  0  0  0
   -8.4204    0.7419    0.2253 C   0  0  0  0  0  0  0  0  0  0  0  0
   -3.1344   -0.1150   -0.2646 C   0  0  0  0  0  0  0  0  0  0  0  0
   -1.8020   -0.6453    0.2729 C   0  0  0  0  0  0  0  0  0  0  0  0
   -0.5810    0.0651   -0.3179 C   0  0  0  0  0  0  0  0  0  0  0  0
    0.7203   -0.5256    0.2316 C   0  0  0  0  0  0  0  0  0  0  0  0
    1.9780    0.1400   -0.3344 C   0  0  0  0  0  0  0  0  0  0  0  0
    3.2792   -0.4666    0.1958 C   0  0  0  0  0  0  0  0  0  0  0  0
    4.5016    0.2504   -0.3846 C   0  0  0  0  0  0  0  0  0  0  0  0
    5.8018   -0.3310    0.1752 C   0  0  0  0  0  0  0  0  0  0  0  0
    7.0582    0.3652   -0.3555 C   0  0  0  0  0  0  0  0  0  0  0  0
    8.3545   -0.1667    0.2600 C   0  0  0  0  0  0  0  0  0  0  0  0
    9.5688    0.6111   -0.2497 C   0  0  0  0  0  0  0  0  0  0  0  0
   10.8565    0.1133    0.3868 C   0  0  0  0  0  0  0  0  0  0  0  0
  1  2  1  0
  1  3  1  0
  1  4  1  0
  2  5  1  0
  3  6  1  0
  4  8  1  0
  5  7  1  0
  6  7  1  0
  8  9  1  0
  9 10  1  0
 10 11  1  0
 11 12  1  0
 12 13  1  0
 13 14  1  0
 14 15  1  0
 15 16  1  0
 16 17  1  0
 17 18  1  0
 18 19  1  0
M  END
>  <PUBCHEM_COMPOUND_CID>  (1) 
22327

>  <PUBCHEM_CONFORMER_RMSD>  (1) 
1.4

>  <PUBCHEM_CONFORMER_DIVERSEORDER>  (1) 
1
29
25
15
40
4
45
26
5
36
7
32
37
39
14
2
12
24
23
9
33
35
17
22
19
21
31
6
44
16
20
28
42
13
34
41
8
43
10
38
18
27
3
46
30
11

>  <PUBCHEM_MMFF94_PARTIAL_CHARGES>  (1) 
0

>  <PUBCHEM_EFFECTIVE_ROTOR_COUNT>  (1) 
13.2

>  <PUBCHEM_PHARMACOPHORE_FEATURES>  (1) 
2
1 19 hydrophobe
6 1 2 3 5 6 7 rings

>  <PUBCHEM_HEAVY_ATOM_COUNT>  (1) 
19

>  <PUBCHEM_ATOM_DEF_STEREO_COUNT>  (1) 
0

>  <PUBCHEM_ATOM_UDEF_STEREO_COUNT>  (1) 
0

>  <PUBCHEM_BOND_DEF_STEREO_COUNT>  (1) 
0

>  <PUBCHEM_BOND_UDEF_STEREO_COUNT>  (1) 
0

>  <PUBCHEM_ISOTOPIC_ATOM_COUNT>  (1) 
0

>  <PUBCHEM_COMPONENT_COUNT>  (1) 
1

>  <PUBCHEM_CACTVS_TAUTO_COUNT>  (1) 
1

>  <PUBCHEM_CONFORMER_ID>  (1) 
0000573700000001

>  <PUBCHEM_MMFF94_ENERGY>  (1) 
0.713

>  <PUBCHEM_FEATURE_SELFOVERLAP>  (1) 
10.148

>  <PUBCHEM_SHAPE_FINGERPRINT>  (1) 
11315181 36 17917715700011513931
11638347 137 14129053704561102496
12091667 2 18342177778832197159
13885169 127 18412265017282434341
14251764 18 18187362121175658971
14251764 46 18040715874923923442
14428016 248 17968101936798303116
15061470 23 18410853266392124576
15510794 2 18202287992124507950
155225 1 18412263909402859881
21150785 3 12895353291693886532
21362267 313 18338513020629826298
22224240 67 17458344152003896522
232437 2 18260829298506999650
23521765 1 18341895199399954078
23581129 1 18409448093834679566
246663 6 11602542022386630924
249057 3 15913323624320317772
33684 2 18334857221703028802
5758199 1 17894911827849496699
59567204 34 18271808970098844017
636775 8 12175608600256409557
67123 10 18342175579275951334
8209 1 18411982468669440206

>  <PUBCHEM_SHAPE_MULTIPOLES>  (1) 
391.01
39.27
1.09
0.71
56.41
0.21
0
6.61
1.25
-2.29
0.05
0.01
0.01
-0.52

>  <PUBCHEM_SHAPE_SELFOVERLAP>  (1) 
725.535

>  <PUBCHEM_SHAPE_VOLUME>  (1) 
244.6

>  <PUBCHEM_COORDINATE_TYPE>  (1) 
2
5
10

$$$$
