22320
     RDKit          3D

  7  6  0  0  0  0  0  0  0  0999 V2000
   -1.1880    0.2068    0.1852 N   0  0  0  0  0  0  0  0  0  0  0  0
   -0.1191    0.1927   -0.8093 C   0  0  0  0  0  0  0  0  0  0  0  0
    1.2507    0.0691   -0.1909 C   0  0  0  0  0  0  0  0  0  0  0  0
   -1.1761   -1.0287    0.9693 C   0  0  0  0  0  0  0  0  0  0  0  0
   -2.4884    0.3873   -0.4608 C   0  0  0  0  0  0  0  0  0  0  0  0
    1.6808    1.1593    0.7497 C   0  0  0  0  0  0  0  0  0  0  0  0
    2.0402   -0.9864   -0.4433 C   0  0  0  0  0  0  0  0  0  0  0  0
  1  2  1  0
  1  4  1  0
  1  5  1  0
  2  3  1  0
  3  6  1  0
  3  7  2  0
M  END
>  <PUBCHEM_COMPOUND_CID>  (1) 
22320

>  <PUBCHEM_CONFORMER_RMSD>  (1) 
0.4

>  <PUBCHEM_CONFORMER_DIVERSEORDER>  (1) 
2
3
1
4

>  <PUBCHEM_MMFF94_PARTIAL_CHARGES>  (1) 
9
1 -0.81
19 0.15
2 0.41
20 0.15
3 -0.28
4 0.27
5 0.27
6 0.14
7 -0.3

>  <PUBCHEM_EFFECTIVE_ROTOR_COUNT>  (1) 
2

>  <PUBCHEM_PHARMACOPHORE_FEATURES>  (1) 
1
1 1 cation

>  <PUBCHEM_HEAVY_ATOM_COUNT>  (1) 
7

>  <PUBCHEM_ATOM_DEF_STEREO_COUNT>  (1) 
0

>  <PUBCHEM_ATOM_UDEF_STEREO_COUNT>  (1) 
0

>  <PUBCHEM_BOND_DEF_STEREO_COUNT>  (1) 
0

>  <PUBCHEM_BOND_UDEF_STEREO_COUNT>  (1) 
0

>  <PUBCHEM_ISOTOPIC_ATOM_COUNT>  (1) 
0

>  <PUBCHEM_COMPONENT_COUNT>  (1) 
1

>  <PUBCHEM_CACTVS_TAUTO_COUNT>  (1) 
1

>  <PUBCHEM_CONFORMER_ID>  (1) 
0000573000000002

>  <PUBCHEM_MMFF94_ENERGY>  (1) 
12.0505

>  <PUBCHEM_FEATURE_SELFOVERLAP>  (1) 
5.074

>  <PUBCHEM_SHAPE_FINGERPRINT>  (1) 
12932741 1 18409736187382289262
16714656 1 17023193673415524423
20096714 4 17274822527428736992
21040471 1 17530959146949928175
23552449 11 18272076163533081482
24536 1 18041281079165417621
29004967 10 18272658909212316090
5084963 1 18187930530143250837

>  <PUBCHEM_SHAPE_MULTIPOLES>  (1) 
139.08
3.15
1.14
0.99
0.74
0.07
0.09
-0.1
-0.18
-0.36
0.22
0.04
0.04
0.59

>  <PUBCHEM_SHAPE_SELFOVERLAP>  (1) 
247.893

>  <PUBCHEM_SHAPE_VOLUME>  (1) 
92.8

>  <PUBCHEM_COORDINATE_TYPE>  (1) 
2
5
10

$$$$
