2233
     RDKit          2D

 12 11  0  0  1  0  0  0  0  0999 V2000
    0.0000    0.0000    0.0000 O   0  0  0  0  0  0  0  0  0  0  0  0
    0.0000    0.0000    0.0000 N   0  0  0  0  0  0  0  0  0  0  0  0
    0.0000    0.0000    0.0000 N   0  0  0  0  0  0  0  0  0  0  0  0
    0.0000    0.0000    0.0000 N   0  0  0  0  0  0  0  0  0  0  0  0
    0.0000    0.0000    0.0000 N   0  0  0  0  0  0  0  0  0  0  0  0
    0.0000    0.0000    0.0000 N   0  0  0  0  0  0  0  0  0  0  0  0
    0.0000    0.0000    0.0000 C   0  0  0  0  0  0  0  0  0  0  0  0
    0.0000    0.0000    0.0000 C   0  0  0  0  0  0  0  0  0  0  0  0
    0.0000    0.0000    0.0000 C   0  0  0  0  0  0  0  0  0  0  0  0
    0.0000    0.0000    0.0000 C   0  0  0  0  0  0  0  0  0  0  0  0
    0.0000    0.0000    0.0000 C   0  0  0  0  0  0  0  0  0  0  0  0
    0.0000    0.0000    0.0000 C   0  0  0  0  0  0  0  0  0  0  0  0
  1 11  2  0
  2 10  1  0
  2 12  2  3
  3  9  1  0
  4 11  1  0
  5 12  1  0
  6 12  1  0
  7  8  1  0
  7  9  1  0
  8 10  1  0
  9 11  1  0
M  CHG  1   2   1
M  END
>  <PUBCHEM_COMPOUND_CID>  (1) 
2233

>  <PUBCHEM_CONFORMER_RMSD>  (1) 
0.6

>  <PUBCHEM_CONFORMER_DIVERSEORDER>  (1) 
33
205
5
220
69
38
247
252
6
253
60
234
68
245
178
12
230
30
169
182
207
111
249
137
167
238
216
129
244
159
7
19
237
227
210
184
119
31
236
113
133
258
191
209
77
8
257
231
74
72
222
183
43
232
165
217
156
239
127
57
175
235
215
56
174
75
202
13
109
181
242
17
254
194
143
116
112
89
2
229
198
80
226
219
173
145
70
26
27
206
170
248
246
192
158
114
185
164
166
96
21
126
256
204
223
100
208
161
172
171
35
241
102
1
101
92
251
4
176
24
73
146
228
177
105
66
82
214
213
49
64
18
218
118
147
115
243
29
240
186
125
25
163
51
108
187
103
135
46
65
188
98
106
138
3
211
107
151
94
196
28
41
139
233
144
189
61
155
225
63
250
212
78
200
131
157
224
168
203
201
154
42
255
86
45
54
16
20
9
180
32
95
149
152
87
83
121
67
36
76
47
99
160
193
14
136
58
40
123
84
122
71
130
179
22
195
93
221
140
199
104
141
53
197
23
81
134
62
97
148
55
128
11
50
48
190
132
15
117
34
90
39
44
59
10
162
120
150
142
52
85
153
88
91
110
124
37
79

>  <PUBCHEM_MMFF94_PARTIAL_CHARGES>  (1) 
19
1 -0.57
10 0.33
11 0.57
12 1.2
2 -0.84
20 0.45
21 0.36
22 0.36
23 0.37
24 0.37
25 0.45
26 0.45
27 0.45
28 0.45
3 -0.99
4 -0.8
5 -0.97
6 -0.97
9 0.33

>  <PUBCHEM_EFFECTIVE_ROTOR_COUNT>  (1) 
5

>  <PUBCHEM_PHARMACOPHORE_FEATURES>  (1) 
8
1 1 acceptor
1 2 donor
1 3 cation
1 3 donor
1 4 donor
1 5 donor
1 6 donor
4 2 5 6 12 cation

>  <PUBCHEM_HEAVY_ATOM_COUNT>  (1) 
12

>  <PUBCHEM_ATOM_DEF_STEREO_COUNT>  (1) 
0

>  <PUBCHEM_ATOM_UDEF_STEREO_COUNT>  (1) 
1

>  <PUBCHEM_BOND_DEF_STEREO_COUNT>  (1) 
0

>  <PUBCHEM_BOND_UDEF_STEREO_COUNT>  (1) 
0

>  <PUBCHEM_ISOTOPIC_ATOM_COUNT>  (1) 
0

>  <PUBCHEM_COMPONENT_COUNT>  (1) 
1

>  <PUBCHEM_CACTVS_TAUTO_COUNT>  (1) 
4

$$$$
