22332
     RDKit          3D

  7  7  0  0  0  0  0  0  0  0999 V2000
   -0.2553   -1.4539   -0.3497 S   0  0  0  0  0  0  0  0  0  0  0  0
   -0.2555    1.4531    0.3525 S   0  0  0  0  0  0  0  0  0  0  0  0
    0.8059    0.0000    0.0000 C   0  0  0  0  0  0  0  0  0  0  0  0
   -1.8165   -0.7276    0.2081 C   0  0  0  0  0  0  0  0  0  0  0  0
   -1.8160    0.7278   -0.2083 C   0  0  0  0  0  0  0  0  0  0  0  0
    1.6668    0.2927   -1.2284 C   0  0  0  0  0  0  0  0  0  0  0  0
    1.6706   -0.2920    1.2259 C   0  0  0  0  0  0  0  0  0  0  0  0
  1  3  1  0
  1  4  1  0
  2  3  1  0
  2  5  1  0
  3  6  1  0
  3  7  1  0
  4  5  1  0
M  END
>  <PUBCHEM_COMPOUND_CID>  (1) 
22332

>  <PUBCHEM_CONFORMER_RMSD>  (1) 
0.4

>  <PUBCHEM_CONFORMER_DIVERSEORDER>  (1) 
1

>  <PUBCHEM_MMFF94_PARTIAL_CHARGES>  (1) 
5
1 -0.46
2 -0.46
3 0.46
4 0.23
5 0.23

>  <PUBCHEM_EFFECTIVE_ROTOR_COUNT>  (1) 
1

>  <PUBCHEM_PHARMACOPHORE_FEATURES>  (1) 
2
3 3 6 7 hydrophobe
5 1 2 3 4 5 rings

>  <PUBCHEM_HEAVY_ATOM_COUNT>  (1) 
7

>  <PUBCHEM_ATOM_DEF_STEREO_COUNT>  (1) 
0

>  <PUBCHEM_ATOM_UDEF_STEREO_COUNT>  (1) 
0

>  <PUBCHEM_BOND_DEF_STEREO_COUNT>  (1) 
0

>  <PUBCHEM_BOND_UDEF_STEREO_COUNT>  (1) 
0

>  <PUBCHEM_ISOTOPIC_ATOM_COUNT>  (1) 
0

>  <PUBCHEM_COMPONENT_COUNT>  (1) 
1

>  <PUBCHEM_CACTVS_TAUTO_COUNT>  (1) 
1

>  <PUBCHEM_CONFORMER_ID>  (1) 
0000573C00000001

>  <PUBCHEM_MMFF94_ENERGY>  (1) 
12.5371

>  <PUBCHEM_FEATURE_SELFOVERLAP>  (1) 
10.148

>  <PUBCHEM_SHAPE_FINGERPRINT>  (1) 
137420 1 11108564819674805223
16714656 1 18269294476250016471
18185500 45 18187076286659345778
21040471 1 18268711602164939305
23235685 24 18339651018605148341
23552423 10 18188497860779028830
24536 1 18191310381552645133
29004967 10 15482401850093389134
5084963 1 18190743037800278635
5943 1 11756263321326271496

>  <PUBCHEM_SHAPE_MULTIPOLES>  (1) 
151.76
2.4
1.49
1.1
0.25
0
0
0
0
0.4
0
-0.66
0
-0.06

>  <PUBCHEM_SHAPE_SELFOVERLAP>  (1) 
262.992

>  <PUBCHEM_SHAPE_VOLUME>  (1) 
101.4

>  <PUBCHEM_COORDINATE_TYPE>  (1) 
2
5
10

$$$$
