22349
     RDKit          3D

 14 14  0  0  0  0  0  0  0  0999 V2000
    5.4805   -0.0007   -0.8459 I   0  0  0  0  0  0  0  0  0  0  0  0
   -0.5106    0.0013    0.9886 N   0  0  0  0  0  0  0  0  0  0  0  0
   -1.2641    0.0007   -0.0107 N   0  0  0  0  0  0  0  0  0  0  0  0
   -3.7327    2.2023   -0.5934 N   0  0  0  0  0  0  0  0  0  0  0  0
   -3.7296   -2.2042   -0.5934 N   0  0  0  0  0  0  0  0  0  0  0  0
    0.8264    0.0008    0.5792 C   0  0  0  0  0  0  0  0  0  0  0  0
    1.4933    1.2086    0.3742 C   0  0  0  0  0  0  0  0  0  0  0  0
    1.4931   -1.2074    0.3758 C   0  0  0  0  0  0  0  0  0  0  0  0
    2.8270    1.2081   -0.0343 C   0  0  0  0  0  0  0  0  0  0  0  0
    2.8269   -1.2080   -0.0326 C   0  0  0  0  0  0  0  0  0  0  0  0
    3.4939   -0.0001   -0.2376 C   0  0  0  0  0  0  0  0  0  0  0  0
   -2.6762   -0.0002    0.3694 C   0  0  0  0  0  0  0  0  0  0  0  0
   -3.2649    1.2284   -0.1697 C   0  0  0  0  0  0  0  0  0  0  0  0
   -3.2632   -1.2296   -0.1698 C   0  0  0  0  0  0  0  0  0  0  0  0
  1 11  1  0
  2  3  2  0
  2  6  1  0
  3 12  1  0
  4 13  3  0
  5 14  3  0
  6  7  2  0
  6  8  1  0
  7  9  1  0
  8 10  2  0
  9 11  2  0
 10 11  1  0
 12 13  1  0
 12 14  1  0
M  END
>  <PUBCHEM_COMPOUND_CID>  (1) 
22349

>  <PUBCHEM_CONFORMER_RMSD>  (1) 
0.6

>  <PUBCHEM_CONFORMER_DIVERSEORDER>  (1) 
1
4
3
2

>  <PUBCHEM_MMFF94_PARTIAL_CHARGES>  (1) 
18
1 -0.08
10 -0.15
11 0.08
12 0.65
13 0.36
14 0.36
15 0.15
16 0.15
17 0.15
18 0.15
2 -0.18
3 -0.25
4 -0.56
5 -0.56
6 0.18
7 -0.15
8 -0.15
9 -0.15

>  <PUBCHEM_EFFECTIVE_ROTOR_COUNT>  (1) 
2

>  <PUBCHEM_PHARMACOPHORE_FEATURES>  (1) 
4
1 1 hydrophobe
1 4 acceptor
1 5 acceptor
6 6 7 8 9 10 11 rings

>  <PUBCHEM_HEAVY_ATOM_COUNT>  (1) 
14

>  <PUBCHEM_ATOM_DEF_STEREO_COUNT>  (1) 
0

>  <PUBCHEM_ATOM_UDEF_STEREO_COUNT>  (1) 
0

>  <PUBCHEM_BOND_DEF_STEREO_COUNT>  (1) 
0

>  <PUBCHEM_BOND_UDEF_STEREO_COUNT>  (1) 
0

>  <PUBCHEM_ISOTOPIC_ATOM_COUNT>  (1) 
0

>  <PUBCHEM_COMPONENT_COUNT>  (1) 
1

>  <PUBCHEM_CACTVS_TAUTO_COUNT>  (1) 
1

>  <PUBCHEM_CONFORMER_ID>  (1) 
0000574D00000001

>  <PUBCHEM_MMFF94_ENERGY>  (1) 
22.8372

>  <PUBCHEM_FEATURE_SELFOVERLAP>  (1) 
20.297

>  <PUBCHEM_SHAPE_FINGERPRINT>  (1) 
10680689 15 18409174324182162003
11401426 45 18412826872414840640
12500047 106 18339073805233953717
12670543 26 18264220136585019606
12932764 1 18410856564282890907
13296908 3 17632572781646966297
13705890 14 17917997200267430528
13760787 19 18408886204791057786
14576447 43 18341610464554024598
18186145 218 18202004334718413096
1986462 14 18342178877425790829
200 152 18202569496812145714
20645477 56 18336547127761594969
20645477 70 18270402659702125902
20871999 31 18411414016847114543
21709351 56 18335420184077271828
221490 88 18196940083103620354
23402539 116 17822010900367346236
23402655 69 18335703793341582668
23557571 272 18413114961055813261
2871803 45 18339352093440402439
3545911 37 18411702062886586553
4990 188 18272379667950818142
58051976 100 18342174483948547263
633830 44 17095810923393784994
93112 12 18411695465869417961

>  <PUBCHEM_SHAPE_MULTIPOLES>  (1) 
280.12
10.15
1.81
0.85
3.11
0
0.03
0
3.47
-2.09
0.32
0.2
0
0

>  <PUBCHEM_SHAPE_SELFOVERLAP>  (1) 
556.744

>  <PUBCHEM_SHAPE_VOLUME>  (1) 
167.7

>  <PUBCHEM_COORDINATE_TYPE>  (1) 
2
5
10

$$$$
