22358
     RDKit          3D

 15 15  0  0  0  0  0  0  0  0999 V2000
    5.0454    0.6587    0.7770 Br  0  0  0  0  0  0  0  0  0  0  0  0
    3.5639   -2.2856    0.1773 Cl  0  0  0  0  0  0  0  0  0  0  0  0
   -0.7548    0.1414   -0.9959 N   0  0  0  0  0  0  0  0  0  0  0  0
   -1.5017    0.0533    0.0044 N   0  0  0  0  0  0  0  0  0  0  0  0
   -3.7794   -2.3581    0.5314 N   0  0  0  0  0  0  0  0  0  0  0  0
   -4.1373    2.0322    0.6510 N   0  0  0  0  0  0  0  0  0  0  0  0
    0.5794    0.2404   -0.5889 C   0  0  0  0  0  0  0  0  0  0  0  0
    1.3444   -0.9136   -0.4191 C   0  0  0  0  0  0  0  0  0  0  0  0
    1.1455    1.4934   -0.3541 C   0  0  0  0  0  0  0  0  0  0  0  0
    2.6756   -0.8147   -0.0144 C   0  0  0  0  0  0  0  0  0  0  0  0
    2.4767    1.5924    0.0505 C   0  0  0  0  0  0  0  0  0  0  0  0
    3.2418    0.4384    0.2204 C   0  0  0  0  0  0  0  0  0  0  0  0
   -2.9108   -0.0512   -0.3731 C   0  0  0  0  0  0  0  0  0  0  0  0
   -3.3946   -1.3380    0.1335 C   0  0  0  0  0  0  0  0  0  0  0  0
   -3.5943    1.1109    0.2002 C   0  0  0  0  0  0  0  0  0  0  0  0
  1 12  1  0
  2 10  1  0
  3  4  2  0
  3  7  1  0
  4 13  1  0
  5 14  3  0
  6 15  3  0
  7  8  2  0
  7  9  1  0
  8 10  1  0
  9 11  2  0
 10 12  2  0
 11 12  1  0
 13 14  1  0
 13 15  1  0
M  END
>  <PUBCHEM_COMPOUND_CID>  (1) 
22358

>  <PUBCHEM_CONFORMER_RMSD>  (1) 
0.6

>  <PUBCHEM_CONFORMER_DIVERSEORDER>  (1) 
1
3
11
9
5
10
8
7
12
2
6
4

>  <PUBCHEM_MMFF94_PARTIAL_CHARGES>  (1) 
18
1 -0.11
10 0.18
11 -0.15
12 0.11
13 0.65
14 0.36
15 0.36
16 0.15
17 0.15
18 0.15
2 -0.18
3 -0.18
4 -0.25
5 -0.56
6 -0.56
7 0.18
8 -0.15
9 -0.15

>  <PUBCHEM_EFFECTIVE_ROTOR_COUNT>  (1) 
2

>  <PUBCHEM_PHARMACOPHORE_FEATURES>  (1) 
4
1 1 hydrophobe
1 5 acceptor
1 6 acceptor
6 7 8 9 10 11 12 rings

>  <PUBCHEM_HEAVY_ATOM_COUNT>  (1) 
15

>  <PUBCHEM_ATOM_DEF_STEREO_COUNT>  (1) 
0

>  <PUBCHEM_ATOM_UDEF_STEREO_COUNT>  (1) 
0

>  <PUBCHEM_BOND_DEF_STEREO_COUNT>  (1) 
0

>  <PUBCHEM_BOND_UDEF_STEREO_COUNT>  (1) 
0

>  <PUBCHEM_ISOTOPIC_ATOM_COUNT>  (1) 
0

>  <PUBCHEM_COMPONENT_COUNT>  (1) 
1

>  <PUBCHEM_CACTVS_TAUTO_COUNT>  (1) 
1

>  <PUBCHEM_CONFORMER_ID>  (1) 
0000575600000001

>  <PUBCHEM_MMFF94_ENERGY>  (1) 
25.0115

>  <PUBCHEM_FEATURE_SELFOVERLAP>  (1) 
20.297

>  <PUBCHEM_SHAPE_FINGERPRINT>  (1) 
12251169 10 18340484572814753278
12500047 106 18411695470290985849
12507560 40 18201722846735481031
12670543 26 9799148395664610752
12892183 10 18343297102300019488
13296908 3 18409732858893580079
13583140 156 17988916808038882697
13675066 3 18060699511501346268
14178342 30 18334017194239230699
14252887 29 18407759231748864450
14289901 80 18339924930165413483
14341114 176 18412553093328454073
14790565 3 18266181811195277804
14965852 173 18408606950728943311
15442244 35 18338800009347583813
1813 80 17022628545940038740
18186145 218 18186518769834350639
19050596 39 18338239370392529345
200 152 18271794779267681735
20281475 54 18187367614444157382
20645477 70 18200585908873789318
21065199 12 18412826897546360539
21501925 9 18335698394351270943
22169311 14 18339925922334435743
22485316 2 18261108547941460734
23402539 116 16081076083147069252
23559900 14 18341048511085412586
26918003 58 18335697303936031771
3545911 37 18412827975731111025
4214541 1 18410292502001647713
5104073 3 18412824664147705402
9709674 26 18262523701006019195

>  <PUBCHEM_SHAPE_MULTIPOLES>  (1) 
296.58
9.74
2.21
0.81
2.06
0.76
0
0.11
2.88
0.62
0.36
-0.06
-0.05
0.1

>  <PUBCHEM_SHAPE_SELFOVERLAP>  (1) 
591.272

>  <PUBCHEM_SHAPE_VOLUME>  (1) 
178.4

>  <PUBCHEM_COORDINATE_TYPE>  (1) 
2
5
10

$$$$
