22357
     RDKit          3D

 15 15  0  0  0  0  0  0  0  0999 V2000
    5.2521    0.3880    0.8485 Br  0  0  0  0  0  0  0  0  0  0  0  0
    0.7536   -2.5885   -0.3670 Cl  0  0  0  0  0  0  0  0  0  0  0  0
   -0.5461    0.0872   -0.9582 N   0  0  0  0  0  0  0  0  0  0  0  0
   -1.3045    0.1499    0.0341 N   0  0  0  0  0  0  0  0  0  0  0  0
   -3.7542   -2.0325    0.7532 N   0  0  0  0  0  0  0  0  0  0  0  0
   -3.7977    2.3628    0.4426 N   0  0  0  0  0  0  0  0  0  0  0  0
    0.7904    0.1313   -0.5397 C   0  0  0  0  0  0  0  0  0  0  0  0
    1.4949   -1.0344   -0.2387 C   0  0  0  0  0  0  0  0  0  0  0  0
    1.4156    1.3730   -0.4268 C   0  0  0  0  0  0  0  0  0  0  0  0
    2.8249   -0.9584    0.1751 C   0  0  0  0  0  0  0  0  0  0  0  0
    2.7455    1.4491   -0.0131 C   0  0  0  0  0  0  0  0  0  0  0  0
    3.4502    0.2835    0.2879 C   0  0  0  0  0  0  0  0  0  0  0  0
   -2.7136    0.1084   -0.3550 C   0  0  0  0  0  0  0  0  0  0  0  0
   -3.2934   -1.0856    0.2651 C   0  0  0  0  0  0  0  0  0  0  0  0
   -3.3177    1.3661    0.0920 C   0  0  0  0  0  0  0  0  0  0  0  0
  1 12  1  0
  2  8  1  0
  3  4  2  0
  3  7  1  0
  4 13  1  0
  5 14  3  0
  6 15  3  0
  7  8  2  0
  7  9  1  0
  8 10  1  0
  9 11  2  0
 10 12  2  0
 11 12  1  0
 13 14  1  0
 13 15  1  0
M  END
>  <PUBCHEM_COMPOUND_CID>  (1) 
22357

>  <PUBCHEM_CONFORMER_RMSD>  (1) 
0.6

>  <PUBCHEM_CONFORMER_DIVERSEORDER>  (1) 
1
3
9
5
10
8
4
11
6
7
12
2

>  <PUBCHEM_MMFF94_PARTIAL_CHARGES>  (1) 
18
1 -0.11
10 -0.15
11 -0.15
12 0.11
13 0.65
14 0.36
15 0.36
16 0.15
17 0.15
18 0.15
2 -0.18
3 -0.18
4 -0.25
5 -0.56
6 -0.56
7 0.18
8 0.18
9 -0.15

>  <PUBCHEM_EFFECTIVE_ROTOR_COUNT>  (1) 
2

>  <PUBCHEM_PHARMACOPHORE_FEATURES>  (1) 
4
1 1 hydrophobe
1 5 acceptor
1 6 acceptor
6 7 8 9 10 11 12 rings

>  <PUBCHEM_HEAVY_ATOM_COUNT>  (1) 
15

>  <PUBCHEM_ATOM_DEF_STEREO_COUNT>  (1) 
0

>  <PUBCHEM_ATOM_UDEF_STEREO_COUNT>  (1) 
0

>  <PUBCHEM_BOND_DEF_STEREO_COUNT>  (1) 
0

>  <PUBCHEM_BOND_UDEF_STEREO_COUNT>  (1) 
0

>  <PUBCHEM_ISOTOPIC_ATOM_COUNT>  (1) 
0

>  <PUBCHEM_COMPONENT_COUNT>  (1) 
1

>  <PUBCHEM_CACTVS_TAUTO_COUNT>  (1) 
1

>  <PUBCHEM_CONFORMER_ID>  (1) 
0000575500000001

>  <PUBCHEM_MMFF94_ENERGY>  (1) 
23.8008

>  <PUBCHEM_FEATURE_SELFOVERLAP>  (1) 
20.297

>  <PUBCHEM_SHAPE_FINGERPRINT>  (1) 
10465860 228 18198909119286648356
11132069 177 18260828163791458900
12251169 10 18335979869591842542
12500047 106 18337387141617720237
12507560 40 18201442445505869159
13214271 11 18412820283175509405
13675066 3 18131348622675399860
14178342 30 18261398827796216043
18186145 218 17917445219354612558
19050596 39 18409172146860654537
200 152 18270105925086083207
20281475 54 17967814925175964462
20645477 56 18262521386556547853
20645477 70 17559955420205473262
23402539 116 18263354940771368959
23559900 14 18269273465771423962
26918003 58 18188486986401675475
2748010 2 18049139100681998532
2916195 48 17774707771468470192
3286 77 18188488107008325132
3545911 37 18412266099577548981
5104073 3 18410852136219159954
58051976 378 18341894129737118679
7364860 26 18056480551983244446
9709674 26 18340492171203016447

>  <PUBCHEM_SHAPE_MULTIPOLES>  (1) 
296.58
8.92
2.27
0.83
0.97
0.59
-0.02
-2.06
-3.06
-1.65
-0.11
0.12
0.04
0.25

>  <PUBCHEM_SHAPE_SELFOVERLAP>  (1) 
591.701

>  <PUBCHEM_SHAPE_VOLUME>  (1) 
178.1

>  <PUBCHEM_COORDINATE_TYPE>  (1) 
2
5
10

$$$$
