22361
     RDKit          3D

 17 17  0  0  0  0  0  0  0  0999 V2000
    4.7999    1.3118   -0.4896 O   0  0  0  0  0  0  0  0  0  0  0  0
    4.8204   -0.8770   -0.6553 O   0  0  0  0  0  0  0  0  0  0  0  0
   -1.2033    0.0632    1.0011 N   0  0  0  0  0  0  0  0  0  0  0  0
    4.2221    0.2003   -0.4190 N   0  0  0  0  0  0  0  0  0  0  0  0
   -1.9148    0.1412   -0.0247 N   0  0  0  0  0  0  0  0  0  0  0  0
   -4.3483    2.3979   -0.5408 N   0  0  0  0  0  0  0  0  0  0  0  0
   -4.3655   -1.9968   -0.8633 N   0  0  0  0  0  0  0  0  0  0  0  0
    0.8359   -1.1025    0.3772 C   0  0  0  0  0  0  0  0  0  0  0  0
    0.1507    0.0826    0.6450 C   0  0  0  0  0  0  0  0  0  0  0  0
    2.1850   -1.0638    0.0247 C   0  0  0  0  0  0  0  0  0  0  0  0
    2.8487    0.1602   -0.0601 C   0  0  0  0  0  0  0  0  0  0  0  0
    0.8143    1.3065    0.5603 C   0  0  0  0  0  0  0  0  0  0  0  0
    2.1633    1.3453    0.2077 C   0  0  0  0  0  0  0  0  0  0  0  0
    0.1464   -2.4250    0.4612 C   0  0  0  0  0  0  0  0  0  0  0  0
   -3.3409    0.1231    0.2987 C   0  0  0  0  0  0  0  0  0  0  0  0
   -3.9021    1.3921   -0.1716 C   0  0  0  0  0  0  0  0  0  0  0  0
   -3.9118   -1.0592   -0.3515 C   0  0  0  0  0  0  0  0  0  0  0  0
  1  4  1  0
  2  4  2  0
  3  5  2  0
  3  9  1  0
  4 11  1  0
  5 15  1  0
  6 16  3  0
  7 17  3  0
  8  9  2  0
  8 10  1  0
  8 14  1  0
  9 12  1  0
 10 11  2  0
 11 13  1  0
 12 13  2  0
 15 16  1  0
 15 17  1  0
M  CHG  2   1  -1   4   1
M  END
>  <PUBCHEM_COMPOUND_CID>  (1) 
22361

>  <PUBCHEM_CONFORMER_RMSD>  (1) 
0.6

>  <PUBCHEM_CONFORMER_DIVERSEORDER>  (1) 
2
3
5
10
9
7
11
1
8
4
6

>  <PUBCHEM_MMFF94_PARTIAL_CHARGES>  (1) 
20
1 -0.52
10 -0.15
11 0.13
12 -0.15
13 -0.15
14 0.14
15 0.65
16 0.36
17 0.36
18 0.15
19 0.15
2 -0.52
20 0.15
3 -0.18
4 0.91
5 -0.25
6 -0.56
7 -0.56
8 -0.14
9 0.18

>  <PUBCHEM_EFFECTIVE_ROTOR_COUNT>  (1) 
3

>  <PUBCHEM_PHARMACOPHORE_FEATURES>  (1) 
6
1 1 acceptor
1 1 anion
1 2 acceptor
1 6 acceptor
1 7 acceptor
6 8 9 10 11 12 13 rings

>  <PUBCHEM_HEAVY_ATOM_COUNT>  (1) 
17

>  <PUBCHEM_ATOM_DEF_STEREO_COUNT>  (1) 
0

>  <PUBCHEM_ATOM_UDEF_STEREO_COUNT>  (1) 
0

>  <PUBCHEM_BOND_DEF_STEREO_COUNT>  (1) 
0

>  <PUBCHEM_BOND_UDEF_STEREO_COUNT>  (1) 
0

>  <PUBCHEM_ISOTOPIC_ATOM_COUNT>  (1) 
0

>  <PUBCHEM_COMPONENT_COUNT>  (1) 
1

>  <PUBCHEM_CACTVS_TAUTO_COUNT>  (1) 
1

>  <PUBCHEM_CONFORMER_ID>  (1) 
0000575900000002

>  <PUBCHEM_MMFF94_ENERGY>  (1) 
36.8539

>  <PUBCHEM_FEATURE_SELFOVERLAP>  (1) 
30.53

>  <PUBCHEM_SHAPE_FINGERPRINT>  (1) 
11401426 45 18342737399610847448
12251169 10 8862935087625312849
12670543 26 18337682901940306046
12892183 10 7853565795028153238
13004483 165 16601507638518674923
13705890 14 17775286088202667064
13760787 19 18411134697944025355
14251751 93 18202559601207665039
14252887 29 10737285719227583608
14576447 43 18271801375657271255
14911166 2 18411991269231379556
15196674 1 18411138030611670278
1813 80 13470417702768663826
18186145 218 18131068251188819153
200 152 17917998307868138475
20645477 70 18269838605815437415
20681677 274 9726476131392077261
20871999 31 18341324548897101815
21709351 56 18335417971662757620
221357 26 18271240616711742079
221490 88 18126005107448696379
22393880 68 18412539890577984519
23402539 116 18411134723676834580
23402655 69 18410573942471095881
23557571 272 18342461439477815293
23559900 14 18271807861796418362
25 1 18261954046571127955
2748010 2 17981619461530212368
2871803 45 18268415992989239687
4280585 95 17481152202294543390
4990 188 18201725041801353518
58051976 100 18342733031898048309
633830 44 17603590694484070130

>  <PUBCHEM_SHAPE_MULTIPOLES>  (1) 
313.21
9.77
2.16
0.81
0.31
0.27
0.04
-1.82
-3.4
1.61
-0.17
0.09
0.06
-0.16

>  <PUBCHEM_SHAPE_SELFOVERLAP>  (1) 
652.829

>  <PUBCHEM_SHAPE_VOLUME>  (1) 
174.7

>  <PUBCHEM_COORDINATE_TYPE>  (1) 
2
5
10

$$$$
