22365
     RDKit          3D

 17 17  0  0  0  0  0  0  0  0999 V2000
    4.9310    1.0596   -0.9186 Cl  0  0  0  0  0  0  0  0  0  0  0  0
    1.8035   -2.9222    0.2821 O   0  0  0  0  0  0  0  0  0  0  0  0
   -0.1636   -2.1205    0.8357 O   0  0  0  0  0  0  0  0  0  0  0  0
    1.0220   -1.9590    0.4622 N   0  0  0  0  0  0  0  0  0  0  0  0
   -0.6635    0.3100    0.8396 N   0  0  0  0  0  0  0  0  0  0  0  0
   -1.4105    0.1937   -0.1564 N   0  0  0  0  0  0  0  0  0  0  0  0
   -3.8448    2.4305    0.4361 N   0  0  0  0  0  0  0  0  0  0  0  0
   -3.9409   -1.4742   -1.6039 N   0  0  0  0  0  0  0  0  0  0  0  0
    1.4970   -0.6372    0.2356 C   0  0  0  0  0  0  0  0  0  0  0  0
    0.6652    0.4668    0.4224 C   0  0  0  0  0  0  0  0  0  0  0  0
    2.8161   -0.4544   -0.1797 C   0  0  0  0  0  0  0  0  0  0  0  0
    1.1523    1.7537    0.1942 C   0  0  0  0  0  0  0  0  0  0  0  0
    3.3032    0.8326   -0.4081 C   0  0  0  0  0  0  0  0  0  0  0  0
    2.4712    1.9366   -0.2212 C   0  0  0  0  0  0  0  0  0  0  0  0
   -2.8106    0.0258    0.2309 C   0  0  0  0  0  0  0  0  0  0  0  0
   -3.3869    1.3681    0.3435 C   0  0  0  0  0  0  0  0  0  0  0  0
   -3.4406   -0.8099   -0.7944 C   0  0  0  0  0  0  0  0  0  0  0  0
  1 13  1  0
  2  4  1  0
  3  4  2  0
  4  9  1  0
  5  6  2  0
  5 10  1  0
  6 15  1  0
  7 16  3  0
  8 17  3  0
  9 10  2  0
  9 11  1  0
 10 12  1  0
 11 13  2  0
 12 14  2  0
 13 14  1  0
 15 16  1  0
 15 17  1  0
M  CHG  2   2  -1   4   1
M  END
>  <PUBCHEM_COMPOUND_CID>  (1) 
22365

>  <PUBCHEM_CONFORMER_RMSD>  (1) 
0.6

>  <PUBCHEM_CONFORMER_DIVERSEORDER>  (1) 
1
5
2
4
3
7
6
9
10
8

>  <PUBCHEM_MMFF94_PARTIAL_CHARGES>  (1) 
20
1 -0.18
10 0.18
11 -0.15
12 -0.15
13 0.18
14 -0.15
15 0.65
16 0.36
17 0.36
18 0.15
19 0.15
2 -0.52
20 0.15
3 -0.52
4 0.91
5 -0.18
6 -0.25
7 -0.56
8 -0.56
9 0.13

>  <PUBCHEM_EFFECTIVE_ROTOR_COUNT>  (1) 
3

>  <PUBCHEM_PHARMACOPHORE_FEATURES>  (1) 
6
1 2 acceptor
1 2 anion
1 3 acceptor
1 7 acceptor
1 8 acceptor
6 9 10 11 12 13 14 rings

>  <PUBCHEM_HEAVY_ATOM_COUNT>  (1) 
17

>  <PUBCHEM_ATOM_DEF_STEREO_COUNT>  (1) 
0

>  <PUBCHEM_ATOM_UDEF_STEREO_COUNT>  (1) 
0

>  <PUBCHEM_BOND_DEF_STEREO_COUNT>  (1) 
0

>  <PUBCHEM_BOND_UDEF_STEREO_COUNT>  (1) 
0

>  <PUBCHEM_ISOTOPIC_ATOM_COUNT>  (1) 
0

>  <PUBCHEM_COMPONENT_COUNT>  (1) 
1

>  <PUBCHEM_CACTVS_TAUTO_COUNT>  (1) 
1

>  <PUBCHEM_CONFORMER_ID>  (1) 
0000575D00000001

>  <PUBCHEM_MMFF94_ENERGY>  (1) 
39.3945

>  <PUBCHEM_FEATURE_SELFOVERLAP>  (1) 
30.53

>  <PUBCHEM_SHAPE_FINGERPRINT>  (1) 
10756046 5 18341607067292376677
12553582 1 17687456871775192115
13380535 76 18261955245094116730
13464514 151 18337682927230074474
13705890 14 16487263200656199436
13760787 19 18343866593578342373
14251751 93 17988924496009205013
14576447 43 18271799185234240246
14911166 2 18337680818897257916
15442244 35 17979074881879926425
16945 1 18409450318791282434
18186145 218 18410856589879036772
20645477 70 18270122288383895071
21501502 16 18338509747242253939
21524375 3 18187359986798549786
231179 274 16805593806982097028
23379529 103 17343226525890253718
23402539 116 18413671314388049188
23402655 69 18412265008408117949
23559900 14 18268442390385917692
23598291 2 18269265769121276087
25 1 18334299751389431488
2748010 2 17976270345771448290
2871803 45 18270107054546294391
3060560 45 18263070166942867902
474 4 18186525422918378005
4990 188 18060430118410129412
53748568 43 18343021077726393781
57096353 35 18340481261653288165
58051976 378 18339640165022214447
603831 33 18271792567180176047
633830 44 18335148570086860342
7832392 63 18340767023086903417
81228 2 17326051153525962258

>  <PUBCHEM_SHAPE_MULTIPOLES>  (1) 
315.08
8.06
2.56
0.95
1.14
0.87
-0.24
-2.82
-2.99
0.29
0.39
0.45
0.22
-1.29

>  <PUBCHEM_SHAPE_SELFOVERLAP>  (1) 
651.749

>  <PUBCHEM_SHAPE_VOLUME>  (1) 
177

>  <PUBCHEM_COORDINATE_TYPE>  (1) 
2
5
10

$$$$
