22360
     RDKit          3D

 16 16  0  0  0  0  0  0  0  0999 V2000
   -4.6943    0.7496   -0.5537 O   0  0  0  0  0  0  0  0  0  0  0  0
   -3.2245    2.2289    0.1322 O   0  0  0  0  0  0  0  0  0  0  0  0
   -3.5425    1.0501   -0.1570 N   0  0  0  0  0  0  0  0  0  0  0  0
    0.9670   -0.3641    0.9671 N   0  0  0  0  0  0  0  0  0  0  0  0
    1.6956   -0.0870   -0.0119 N   0  0  0  0  0  0  0  0  0  0  0  0
    4.6500   -1.5230   -0.7120 N   0  0  0  0  0  0  0  0  0  0  0  0
    3.5083    2.7187   -0.3616 N   0  0  0  0  0  0  0  0  0  0  0  0
   -2.5688    0.0240   -0.0308 C   0  0  0  0  0  0  0  0  0  0  0  0
   -0.3245   -0.6741    0.5289 C   0  0  0  0  0  0  0  0  0  0  0  0
   -1.2809    0.3339    0.4067 C   0  0  0  0  0  0  0  0  0  0  0  0
   -2.8999   -1.2938   -0.3461 C   0  0  0  0  0  0  0  0  0  0  0  0
   -0.6559   -1.9919    0.2136 C   0  0  0  0  0  0  0  0  0  0  0  0
   -1.9436   -2.3018   -0.2239 C   0  0  0  0  0  0  0  0  0  0  0  0
    3.0591    0.2460    0.3989 C   0  0  0  0  0  0  0  0  0  0  0  0
    3.9459   -0.7407   -0.2228 C   0  0  0  0  0  0  0  0  0  0  0  0
    3.3091    1.6253   -0.0274 C   0  0  0  0  0  0  0  0  0  0  0  0
  1  3  1  0
  2  3  2  0
  3  8  1  0
  4  5  2  0
  4  9  1  0
  5 14  1  0
  6 15  3  0
  7 16  3  0
  8 10  2  0
  8 11  1  0
  9 10  1  0
  9 12  2  0
 11 13  2  0
 12 13  1  0
 14 15  1  0
 14 16  1  0
M  CHG  2   1  -1   3   1
M  END
>  <PUBCHEM_COMPOUND_CID>  (1) 
22360

>  <PUBCHEM_CONFORMER_RMSD>  (1) 
0.6

>  <PUBCHEM_CONFORMER_DIVERSEORDER>  (1) 
2
1
12
5
6
7
3
4
10
11
8
9

>  <PUBCHEM_MMFF94_PARTIAL_CHARGES>  (1) 
20
1 -0.52
10 -0.15
11 -0.15
12 -0.15
13 -0.15
14 0.65
15 0.36
16 0.36
17 0.15
18 0.15
19 0.15
2 -0.52
20 0.15
3 0.91
4 -0.18
5 -0.25
6 -0.56
7 -0.56
8 0.13
9 0.18

>  <PUBCHEM_EFFECTIVE_ROTOR_COUNT>  (1) 
3

>  <PUBCHEM_PHARMACOPHORE_FEATURES>  (1) 
6
1 1 acceptor
1 1 anion
1 2 acceptor
1 6 acceptor
1 7 acceptor
6 8 9 10 11 12 13 rings

>  <PUBCHEM_HEAVY_ATOM_COUNT>  (1) 
16

>  <PUBCHEM_ATOM_DEF_STEREO_COUNT>  (1) 
0

>  <PUBCHEM_ATOM_UDEF_STEREO_COUNT>  (1) 
0

>  <PUBCHEM_BOND_DEF_STEREO_COUNT>  (1) 
0

>  <PUBCHEM_BOND_UDEF_STEREO_COUNT>  (1) 
0

>  <PUBCHEM_ISOTOPIC_ATOM_COUNT>  (1) 
0

>  <PUBCHEM_COMPONENT_COUNT>  (1) 
1

>  <PUBCHEM_CACTVS_TAUTO_COUNT>  (1) 
1

>  <PUBCHEM_CONFORMER_ID>  (1) 
0000575800000002

>  <PUBCHEM_MMFF94_ENERGY>  (1) 
33.5044

>  <PUBCHEM_FEATURE_SELFOVERLAP>  (1) 
30.53

>  <PUBCHEM_SHAPE_FINGERPRINT>  (1) 
10608611 8 18339922731237096864
12173636 292 18339354262182128591
14123255 52 18334287639766324965
15099037 51 18339927004761360742
15442244 35 18409729552195932552
17492 89 18338237188629037294
17834072 32 18336824187417148789
18186145 218 18040426711718389094
200 152 15697996301907604482
20510252 161 18339082721617955915
20645477 56 18410290358406882808
20645477 70 17846787304004316510
20653085 51 18335143106672318418
20671657 53 14908173144896160491
21524375 3 18261111816553978443
21618674 54 18268429216955861782
23402539 116 18201711800016318220
23402655 69 18410296926050149236
23557571 272 18196100056066674436
23559900 14 18272930527639976842
2838139 119 16953061316323216317
4214541 1 18411136956896278510
474 4 17386848490217927388
58051976 100 18408322176822210614
59027123 10 18342736338395209806
633830 44 18114177562147687514
93112 12 18411984671892769450
9709674 26 18339082717460443530
9981440 41 17830170569615704384

>  <PUBCHEM_SHAPE_MULTIPOLES>  (1) 
292.63
8.89
2.46
0.74
3.45
0.59
0.04
2.48
-2
0.15
-0.3
0.12
-0.08
0.12

>  <PUBCHEM_SHAPE_SELFOVERLAP>  (1) 
609.729

>  <PUBCHEM_SHAPE_VOLUME>  (1) 
162.6

>  <PUBCHEM_COORDINATE_TYPE>  (1) 
2
5
10

$$$$
