22370
     RDKit          3D

 14 14  0  0  0  0  0  0  0  0999 V2000
   -1.6071   -0.0080   -1.8571 Cl  0  0  0  0  0  0  0  0  0  0  0  0
    3.2296    2.2738   -0.0516 Cl  0  0  0  0  0  0  0  0  0  0  0  0
    4.5553   -0.6578   -0.4069 Cl  0  0  0  0  0  0  0  0  0  0  0  0
   -3.4740    0.1340    0.0443 N   0  0  0  0  0  0  0  0  0  0  0  0
   -1.2132   -0.0804    0.7721 N   0  0  0  0  0  0  0  0  0  0  0  0
    0.1569   -0.2017    0.4921 C   0  0  0  0  0  0  0  0  0  0  0  0
   -2.0998    0.0117   -0.1836 C   0  0  0  0  0  0  0  0  0  0  0  0
   -3.9972    0.1651    1.4087 C   0  0  0  0  0  0  0  0  0  0  0  0
   -4.4784    0.0933   -1.0151 C   0  0  0  0  0  0  0  0  0  0  0  0
    0.9420    0.9414    0.3686 C   0  0  0  0  0  0  0  0  0  0  0  0
    0.7231   -1.4645    0.3395 C   0  0  0  0  0  0  0  0  0  0  0  0
    2.3035    0.8208    0.0905 C   0  0  0  0  0  0  0  0  0  0  0  0
    2.0844   -1.5852    0.0615 C   0  0  0  0  0  0  0  0  0  0  0  0
    2.8747   -0.4425   -0.0629 C   0  0  0  0  0  0  0  0  0  0  0  0
  1  7  1  0
  2 12  1  0
  3 14  1  0
  4  7  1  0
  4  8  1  0
  4  9  1  0
  5  6  1  0
  5  7  2  0
  6 10  2  0
  6 11  1  0
 10 12  1  0
 11 13  2  0
 12 14  2  0
 13 14  1  0
M  END
>  <PUBCHEM_COMPOUND_CID>  (1) 
22370

>  <PUBCHEM_CONFORMER_RMSD>  (1) 
0.6

>  <PUBCHEM_CONFORMER_DIVERSEORDER>  (1) 
1
4
2
3

>  <PUBCHEM_MMFF94_PARTIAL_CHARGES>  (1) 
17
1 -0.21
10 -0.15
11 -0.15
12 0.18
13 -0.15
14 0.18
2 -0.18
21 0.15
22 0.15
23 0.15
3 -0.18
4 -0.79
5 -0.63
6 0.18
7 0.71
8 0.37
9 0.37

>  <PUBCHEM_EFFECTIVE_ROTOR_COUNT>  (1) 
2

>  <PUBCHEM_PHARMACOPHORE_FEATURES>  (1) 
2
3 4 5 7 cation
6 6 10 11 12 13 14 rings

>  <PUBCHEM_HEAVY_ATOM_COUNT>  (1) 
14

>  <PUBCHEM_ATOM_DEF_STEREO_COUNT>  (1) 
0

>  <PUBCHEM_ATOM_UDEF_STEREO_COUNT>  (1) 
0

>  <PUBCHEM_BOND_DEF_STEREO_COUNT>  (1) 
0

>  <PUBCHEM_BOND_UDEF_STEREO_COUNT>  (1) 
0

>  <PUBCHEM_ISOTOPIC_ATOM_COUNT>  (1) 
0

>  <PUBCHEM_COMPONENT_COUNT>  (1) 
1

>  <PUBCHEM_CACTVS_TAUTO_COUNT>  (1) 
1

>  <PUBCHEM_CONFORMER_ID>  (1) 
0000576200000001

>  <PUBCHEM_MMFF94_ENERGY>  (1) 
39.4771

>  <PUBCHEM_FEATURE_SELFOVERLAP>  (1) 
10.148

>  <PUBCHEM_SHAPE_FINGERPRINT>  (1) 
10751810 167 16917069988261155989
11031198 65 18410296942644442940
11132069 177 17530962544395744413
11471102 20 18410009940371785452
12236239 1 17703791405579525323
12932764 1 17748817527512641114
13760787 5 18202005438794104737
14115302 16 16774076288965629150
14251717 144 18413385436526235622
14911166 2 18410019823487322022
14993402 34 17632291263936892831
15219456 202 18113619018630063593
15342168 16 18116718623545402244
15775835 57 18201156658397960532
16945 1 18337100199247810178
17834072 33 18343298206470559671
17844478 74 17822011982403705669
18175812 5 17822012025353436999
18186145 218 18410292523186255976
19026448 5 17847064397845034681
19422 9 17918274272707594511
200 152 18272646831663897131
20279233 1 17603585218928281947
20645476 183 17417529236729899733
20645477 70 18412260623140818943
21119208 17 17917991663648540654
21486144 27 18260824951145384924
23402539 116 15051728642983168585
23402655 69 18339356371100826021
23532345 42 16443631302089852381
23557571 272 16805328777709417287
23559900 14 16298383514005840034
23598291 2 17846212284702065997
25 1 18410294752585635864
2748010 2 18193570088981513978
3060560 45 18412543189572141846
474 4 17914321618648110952
77492 1 17775566429424062651
81228 2 16026160661170564554
8272917 22 18200317589914551791

>  <PUBCHEM_SHAPE_MULTIPOLES>  (1) 
283.76
8.35
1.53
1.19
3.77
0.44
0.31
0.72
0.64
-2.1
-0.06
1.33
0.01
0.01

>  <PUBCHEM_SHAPE_SELFOVERLAP>  (1) 
553.535

>  <PUBCHEM_SHAPE_VOLUME>  (1) 
172.1

>  <PUBCHEM_COORDINATE_TYPE>  (1) 
2
5
10

$$$$
