22375
     RDKit          3D

 17 18  0  0  0  0  0  0  0  0999 V2000
   -0.3203    2.2227    0.5834 O   0  0  0  0  0  0  0  0  0  0  0  0
   -1.5610   -2.3006    0.4580 O   0  0  0  0  0  0  0  0  0  0  0  0
   -2.5145    0.4209   -1.5349 O   0  0  0  0  0  0  0  0  0  0  0  0
   -4.3688    0.8928   -0.3156 O   0  0  0  0  0  0  0  0  0  0  0  0
    0.6615   -1.7603    0.0308 N   0  0  0  0  0  0  0  0  0  0  0  0
   -0.9656   -0.0360    0.5263 N   0  0  0  0  0  0  0  0  0  0  0  0
    2.4316    1.2601   -0.0860 N   0  0  0  0  0  0  0  0  0  0  0  0
    2.9284   -0.8936   -0.3777 N   0  0  0  0  0  0  0  0  0  0  0  0
    1.2680    0.5707    0.1019 C   0  0  0  0  0  0  0  0  0  0  0  0
    1.6000   -0.7438   -0.0821 C   0  0  0  0  0  0  0  0  0  0  0  0
   -0.0418    1.0378    0.4217 C   0  0  0  0  0  0  0  0  0  0  0  0
   -0.6827   -1.4380    0.3446 C   0  0  0  0  0  0  0  0  0  0  0  0
   -2.3438    0.3163    0.8513 C   0  0  0  0  0  0  0  0  0  0  0  0
    3.4023    0.3352   -0.3723 C   0  0  0  0  0  0  0  0  0  0  0  0
    1.0634   -3.1464   -0.1743 C   0  0  0  0  0  0  0  0  0  0  0  0
    2.6304    2.6873   -0.0046 C   0  0  0  0  0  0  0  0  0  0  0  0
   -3.1871    0.5749   -0.3707 C   0  0  0  0  0  0  0  0  0  0  0  0
  1 11  2  0
  2 12  2  0
  3 17  1  0
  4 17  2  0
  5 10  1  0
  5 12  1  0
  5 15  1  0
  6 11  1  0
  6 12  1  0
  6 13  1  0
  7  9  1  0
  7 14  1  0
  7 16  1  0
  8 10  1  0
  8 14  2  0
  9 10  2  0
  9 11  1  0
 13 17  1  0
M  END
>  <PUBCHEM_COMPOUND_CID>  (1) 
22375

>  <PUBCHEM_CONFORMER_RMSD>  (1) 
0.6

>  <PUBCHEM_CONFORMER_DIVERSEORDER>  (1) 
1
3
6
5
2
4

>  <PUBCHEM_MMFF94_PARTIAL_CHARGES>  (1) 
19
1 -0.57
10 0.29
11 0.71
12 0.69
13 0.36
14 0.04
15 0.3
16 0.26
17 0.66
2 -0.57
20 0.15
27 0.5
3 -0.65
4 -0.57
5 -0.42
6 -0.42
7 0.05
8 -0.57
9 -0.24

>  <PUBCHEM_EFFECTIVE_ROTOR_COUNT>  (1) 
2

>  <PUBCHEM_PHARMACOPHORE_FEATURES>  (1) 
8
1 1 acceptor
1 2 acceptor
1 3 acceptor
1 4 acceptor
3 3 4 17 anion
3 7 8 14 cation
5 7 8 9 10 14 rings
6 5 6 9 10 11 12 rings

>  <PUBCHEM_HEAVY_ATOM_COUNT>  (1) 
17

>  <PUBCHEM_ATOM_DEF_STEREO_COUNT>  (1) 
0

>  <PUBCHEM_ATOM_UDEF_STEREO_COUNT>  (1) 
0

>  <PUBCHEM_BOND_DEF_STEREO_COUNT>  (1) 
0

>  <PUBCHEM_BOND_UDEF_STEREO_COUNT>  (1) 
0

>  <PUBCHEM_ISOTOPIC_ATOM_COUNT>  (1) 
0

>  <PUBCHEM_COMPONENT_COUNT>  (1) 
1

>  <PUBCHEM_CACTVS_TAUTO_COUNT>  (1) 
1

>  <PUBCHEM_CONFORMER_ID>  (1) 
0000576700000001

>  <PUBCHEM_MMFF94_ENERGY>  (1) 
27.0075

>  <PUBCHEM_FEATURE_SELFOVERLAP>  (1) 
40.771

>  <PUBCHEM_SHAPE_FINGERPRINT>  (1) 
10608611 8 18336829817591480296
10967382 1 18339085895487783658
11471102 20 18410573942354895485
12730499 353 18261110739086853741
13140716 1 18339367456390279386
13380535 76 18409730642653733458
13583140 156 17023448871740510057
13897977 150 18410577309477328297
14614273 12 17905328785974013268
14617773 55 17628922227096823121
14911166 2 18411427180832095718
16945 1 18339371759915848106
18186145 218 18410288099454668629
18219364 16 18337124443947721969
193761 8 17691972978325352480
20201158 50 18337393746850004219
20645477 70 18267298734503615351
20820808 20 18411412916992692929
21160774 45 17691688204645200270
21639500 275 18337663135904743175
2334 1 18195815295550862514
23402539 116 18271517599010223396
23402655 69 18341889650423741557
23493267 7 17603595126969532104
23559900 14 18271535273528672748
238 59 17829286321426563581
25 1 18408600336263003645
257057 1 17472411050382572138
2748010 2 18267597977343239514
3060560 45 18411416181188852718
353137 74 18339360747403559737
528886 8 18412262848012720266
7364860 26 18268147565674787786
77492 1 17632015235289943473
81228 2 17614842246021423315
8272917 22 18197785401813977365

>  <PUBCHEM_SHAPE_MULTIPOLES>  (1) 
306.45
5.39
2.84
0.83
2.64
1.22
-0.13
-2.4
-1.18
-1.39
0.15
0.45
-0.09
0.32

>  <PUBCHEM_SHAPE_SELFOVERLAP>  (1) 
657.734

>  <PUBCHEM_SHAPE_VOLUME>  (1) 
170.2

>  <PUBCHEM_COORDINATE_TYPE>  (1) 
2
5
10

$$$$
