22401
     RDKit          3D

 18 19  0  0  0  0  0  0  0  0999 V2000
   -5.1072   -0.4166   -0.0057 S   0  0  0  0  0  0  0  0  0  0  0  0
    0.8884   -0.1814    0.1448 N   0  0  0  0  0  0  0  0  0  0  0  0
    2.9975    1.1378   -0.0494 N   0  0  0  0  0  0  0  0  0  0  0  0
    2.9950   -1.2136   -0.2499 N   0  0  0  0  0  0  0  0  0  0  0  0
    1.0997   -2.5282   -0.0497 N   0  0  0  0  0  0  0  0  0  0  0  0
    4.9596    0.0341   -0.5517 N   0  0  0  0  0  0  0  0  0  0  0  0
    1.5551    1.1355    0.2592 C   0  0  0  0  0  0  0  0  0  0  0  0
    0.9440    2.1619   -0.7141 C   0  0  0  0  0  0  0  0  0  0  0  0
    1.4540    1.6684    1.6991 C   0  0  0  0  0  0  0  0  0  0  0  0
   -0.5196   -0.2409    0.1087 C   0  0  0  0  0  0  0  0  0  0  0  0
    1.7021   -1.2901   -0.0646 C   0  0  0  0  0  0  0  0  0  0  0  0
    3.6137    0.0187   -0.2732 C   0  0  0  0  0  0  0  0  0  0  0  0
   -1.2568   -0.5097    1.2741 C   0  0  0  0  0  0  0  0  0  0  0  0
   -1.2161   -0.0288   -1.0931 C   0  0  0  0  0  0  0  0  0  0  0  0
   -2.6500   -0.5648    1.2390 C   0  0  0  0  0  0  0  0  0  0  0  0
   -2.6094   -0.0838   -1.1284 C   0  0  0  0  0  0  0  0  0  0  0  0
   -3.3266   -0.3517    0.0378 C   0  0  0  0  0  0  0  0  0  0  0  0
   -5.5232    1.2532   -0.5831 C   0  0  0  0  0  0  0  0  0  0  0  0
  1 17  1  0
  1 18  1  0
  2  7  1  0
  2 10  1  0
  2 11  1  0
  3  7  1  0
  3 12  2  0
  4 11  2  0
  4 12  1  0
  5 11  1  0
  6 12  1  0
  7  8  1  0
  7  9  1  0
 10 13  2  0
 10 14  1  0
 13 15  1  0
 14 16  2  0
 15 17  2  0
 16 17  1  0
M  END
>  <PUBCHEM_COMPOUND_CID>  (1) 
22401

>  <PUBCHEM_CONFORMER_RMSD>  (1) 
0.6

>  <PUBCHEM_CONFORMER_DIVERSEORDER>  (1) 
1
3
4
2

>  <PUBCHEM_MMFF94_PARTIAL_CHARGES>  (1) 
24
1 -0.33
10 0.1
11 0.55
12 0.71
13 -0.15
14 -0.15
15 -0.15
16 -0.15
17 0.1
18 0.23
2 -0.52
25 0.15
26 0.15
27 0.15
28 0.15
29 0.4
3 -0.7
30 0.4
31 0.4
32 0.4
4 -0.66
5 -0.85
6 -0.85
7 0.62

>  <PUBCHEM_EFFECTIVE_ROTOR_COUNT>  (1) 
2.4

>  <PUBCHEM_PHARMACOPHORE_FEATURES>  (1) 
8
1 18 hydrophobe
1 5 donor
1 6 donor
3 7 8 9 hydrophobe
4 2 4 5 11 cation
4 3 4 6 12 cation
6 10 13 14 15 16 17 rings
6 2 3 4 7 11 12 rings

>  <PUBCHEM_HEAVY_ATOM_COUNT>  (1) 
18

>  <PUBCHEM_ATOM_DEF_STEREO_COUNT>  (1) 
0

>  <PUBCHEM_ATOM_UDEF_STEREO_COUNT>  (1) 
0

>  <PUBCHEM_BOND_DEF_STEREO_COUNT>  (1) 
0

>  <PUBCHEM_BOND_UDEF_STEREO_COUNT>  (1) 
0

>  <PUBCHEM_ISOTOPIC_ATOM_COUNT>  (1) 
0

>  <PUBCHEM_COMPONENT_COUNT>  (1) 
1

>  <PUBCHEM_CACTVS_TAUTO_COUNT>  (1) 
5

>  <PUBCHEM_CONFORMER_ID>  (1) 
0000578100000001

>  <PUBCHEM_MMFF94_ENERGY>  (1) 
78.3661

>  <PUBCHEM_FEATURE_SELFOVERLAP>  (1) 
40.631

>  <PUBCHEM_SHAPE_FINGERPRINT>  (1) 
104564 63 18199757946748520160
11471102 20 18411138034621787982
12236239 1 17489872639192550423
12500047 106 18335983151305734771
13134695 92 18201716258382632720
13538477 17 17274815909052971639
13581323 91 15052018948233245987
13583140 156 18201437026090656179
13760787 19 18131627894608480463
14115302 16 16271922753086634495
14251717 144 18342178864451536382
14993402 34 17632861923124599302
15219456 202 18187367657520372211
15375358 24 18040719164694980787
16752209 62 16200149847040905667
16945 1 18413109485383713936
18186145 218 18272076241026985711
192875 21 16056881351305786873
19862831 5 17561364010844144007
200 152 18202282507181751435
20279233 1 17968103022876395923
20645476 183 17632289103937855407
20645477 70 18340768139625601695
21637258 2 15769500812022263318
22289505 5 18337101264252182197
22892500 29 18272364299998988393
23402539 116 17167859794279586903
23402655 69 18412824664453445437
23419403 2 16384726959797388874
23493267 7 17385715885782564112
23526113 38 17967817093886717867
23557571 272 16950561047681210982
23559900 14 18114180821938207515
25 1 18407755928312573003
2748010 2 17980486977470276634
3060560 45 18343301470292575670
3545911 37 18410012135595945861
4072396 5 18335126571649635098
474 4 17487325187079361480
495365 180 18342726451533442841
77492 1 17489593371807943970
8272917 22 18271249309694238655

>  <PUBCHEM_SHAPE_MULTIPOLES>  (1) 
349.38
9.07
1.77
1.18
6.47
0.06
-0.33
0.95
1.68
-0.96
-0.02
0.29
0.25
0.63

>  <PUBCHEM_SHAPE_SELFOVERLAP>  (1) 
720.35

>  <PUBCHEM_SHAPE_VOLUME>  (1) 
203.1

>  <PUBCHEM_COORDINATE_TYPE>  (1) 
2
5
10

$$$$
