22419
     RDKit          3D

 22 23  0  0  0  0  0  0  0  0999 V2000
    5.7906    0.8039    0.2440 O   0  0  0  0  0  0  0  0  0  0  0  0
   -5.7900    0.8036   -0.2449 O   0  0  0  0  0  0  0  0  0  0  0  0
    3.6742   -2.6815    0.5722 O   0  0  0  0  0  0  0  0  0  0  0  0
   -3.6732   -2.6817   -0.5719 O   0  0  0  0  0  0  0  0  0  0  0  0
    5.6249   -1.8956   -0.2900 O   0  0  0  0  0  0  0  0  0  0  0  0
   -5.6243   -1.8958    0.2895 O   0  0  0  0  0  0  0  0  0  0  0  0
    0.2971    0.7810   -0.5514 N   0  0  0  0  0  0  0  0  0  0  0  0
   -0.2966    0.7811    0.5526 N   0  0  0  0  0  0  0  0  0  0  0  0
    1.6809    0.7812   -0.3505 C   0  0  0  0  0  0  0  0  0  0  0  0
   -1.6874    0.7812    0.3502 C   0  0  0  0  0  0  0  0  0  0  0  0
    3.7523   -0.4259   -0.0511 C   0  0  0  0  0  0  0  0  0  0  0  0
   -3.7515   -0.4261    0.0512 C   0  0  0  0  0  0  0  0  0  0  0  0
    2.3718   -0.4265   -0.2509 C   0  0  0  0  0  0  0  0  0  0  0  0
   -2.3712   -0.4266    0.2514 C   0  0  0  0  0  0  0  0  0  0  0  0
    4.4420    0.7823    0.0489 C   0  0  0  0  0  0  0  0  0  0  0  0
   -4.4413    0.7821   -0.0492 C   0  0  0  0  0  0  0  0  0  0  0  0
    2.3705    1.9895   -0.2506 C   0  0  0  0  0  0  0  0  0  0  0  0
   -2.3701    1.9894    0.2508 C   0  0  0  0  0  0  0  0  0  0  0  0
    3.7511    1.9900   -0.0508 C   0  0  0  0  0  0  0  0  0  0  0  0
   -3.7505    1.9898    0.0507 C   0  0  0  0  0  0  0  0  0  0  0  0
    4.4550   -1.6977    0.0495 C   0  0  0  0  0  0  0  0  0  0  0  0
   -4.4543   -1.6979   -0.0495 C   0  0  0  0  0  0  0  0  0  0  0  0
  1 15  1  0
  2 16  1  0
  3 21  1  0
  4 22  1  0
  5 21  2  0
  6 22  2  0
  7  8  2  0
  7  9  1  0
  8 10  1  0
  9 13  1  0
  9 17  2  0
 10 14  1  0
 10 18  2  0
 11 13  2  0
 11 15  1  0
 11 21  1  0
 12 14  2  0
 12 16  1  0
 12 22  1  0
 15 19  2  0
 16 20  2  0
 17 19  1  0
 18 20  1  0
M  END
>  <PUBCHEM_COMPOUND_CID>  (1) 
22419

>  <PUBCHEM_CONFORMER_RMSD>  (1) 
0.6

>  <PUBCHEM_CONFORMER_DIVERSEORDER>  (1) 
1
14
18
8
5
13
9
19
6
3
4
16
11
7
12
15
10
17
2

>  <PUBCHEM_MMFF94_PARTIAL_CHARGES>  (1) 
32
1 -0.53
10 0.18
11 0.09
12 0.09
13 -0.15
14 -0.15
15 0.08
16 0.08
17 -0.15
18 -0.15
19 -0.15
2 -0.53
20 -0.15
21 0.63
22 0.63
23 0.15
24 0.15
25 0.15
26 0.15
27 0.15
28 0.15
29 0.45
3 -0.65
30 0.45
31 0.5
32 0.5
4 -0.65
5 -0.57
6 -0.57
7 -0.18
8 -0.18
9 0.18

>  <PUBCHEM_EFFECTIVE_ROTOR_COUNT>  (1) 
4

>  <PUBCHEM_PHARMACOPHORE_FEATURES>  (1) 
10
1 1 donor
1 2 donor
1 3 acceptor
1 4 acceptor
1 5 acceptor
1 6 acceptor
3 3 5 21 anion
3 4 6 22 anion
6 10 12 14 16 18 20 rings
6 9 11 13 15 17 19 rings

>  <PUBCHEM_HEAVY_ATOM_COUNT>  (1) 
22

>  <PUBCHEM_ATOM_DEF_STEREO_COUNT>  (1) 
0

>  <PUBCHEM_ATOM_UDEF_STEREO_COUNT>  (1) 
0

>  <PUBCHEM_BOND_DEF_STEREO_COUNT>  (1) 
0

>  <PUBCHEM_BOND_UDEF_STEREO_COUNT>  (1) 
0

>  <PUBCHEM_ISOTOPIC_ATOM_COUNT>  (1) 
0

>  <PUBCHEM_COMPONENT_COUNT>  (1) 
1

>  <PUBCHEM_CACTVS_TAUTO_COUNT>  (1) 
13

>  <PUBCHEM_CONFORMER_ID>  (1) 
0000579300000001

>  <PUBCHEM_MMFF94_ENERGY>  (1) 
68.0888

>  <PUBCHEM_FEATURE_SELFOVERLAP>  (1) 
50.862

>  <PUBCHEM_SHAPE_FINGERPRINT>  (1) 
10595046 47 18410295851659842500
10616163 171 18341053003336653599
10835480 77 18411692205926683829
11405975 8 18341054034102398577
11796584 16 18272935990052491118
12107183 9 17906736899349556784
13167823 11 18410573989446450918
13533116 47 18411702127036516584
13583140 156 17988632025779520624
14341114 176 18412549790504066364
15196674 1 18410575084663260806
15250474 111 18411972585438664943
15352361 1 18410575088979398561
15788980 27 18259990365964261545
17492 89 18410013268671220747
17834072 33 18408605885456026908
17844677 252 18411707577360999936
17857418 61 18410853261110258978
1813 80 17095244704928229324
19141452 34 18408606929259719445
200 152 18272088305411129393
20028762 73 18344142584025170118
20645477 70 18339925914155983894
21033648 29 13973698191296320227
21065198 48 18342462534204040648
21065198 57 18410855434369557156
21267235 1 18410583885051074919
21673915 165 18409729577654779202
220451 1 18411149029743639296
22393880 68 18040989605557667227
23402539 116 18334572482029245749
23559900 14 18412256263991911985
239999 70 18272658948352221438
3004659 81 18334295340700683042
338550 245 18408324414805984350
3545911 37 18410575084679481332
4073 2 18187370964613431584
4214541 1 18410856529860277357
465052 167 18201162075069067894
5104073 3 18272934903431079664
559249 180 18336544911531869147
633830 44 16877950433696824165
67856867 119 18336547243372726004
7495541 125 17775000228069953616
77779 3 18410576188470135200
7970288 3 17905325131474815978
960060 61 17821739308163040422
9709674 26 18261962941279651451
9971528 1 17967255295332899412

>  <PUBCHEM_SHAPE_MULTIPOLES>  (1) 
407.57
14.53
2.7
0.66
0.01
1.11
0
4.72
0
0
0
0
0.01
-0.31

>  <PUBCHEM_SHAPE_SELFOVERLAP>  (1) 
890.783

>  <PUBCHEM_SHAPE_VOLUME>  (1) 
220.2

>  <PUBCHEM_COORDINATE_TYPE>  (1) 
2
5
10

$$$$
