22427
     RDKit          3D

 16 16  0  0  0  0  0  0  0  0999 V2000
   -2.3735    2.6442   -0.2304 O   0  0  0  0  0  0  0  0  0  0  0  0
   -0.3723    1.9955   -0.8574 O   0  0  0  0  0  0  0  0  0  0  0  0
   -1.5172    1.7470   -0.4120 N   0  0  0  0  0  0  0  0  0  0  0  0
    0.3473   -0.3796   -0.7842 N   0  0  0  0  0  0  0  0  0  0  0  0
    1.1313   -0.1496    0.1625 N   0  0  0  0  0  0  0  0  0  0  0  0
    3.5737    1.8017    1.3903 N   0  0  0  0  0  0  0  0  0  0  0  0
    3.7220   -2.1931   -0.4637 N   0  0  0  0  0  0  0  0  0  0  0  0
   -1.8563    0.4006   -0.1014 C   0  0  0  0  0  0  0  0  0  0  0  0
   -0.9382   -0.6331   -0.2869 C   0  0  0  0  0  0  0  0  0  0  0  0
   -3.1297    0.1216    0.3950 C   0  0  0  0  0  0  0  0  0  0  0  0
   -1.2936   -1.9456    0.0241 C   0  0  0  0  0  0  0  0  0  0  0  0
   -3.4851   -1.1908    0.7060 C   0  0  0  0  0  0  0  0  0  0  0  0
   -2.5671   -2.2244    0.5205 C   0  0  0  0  0  0  0  0  0  0  0  0
    2.4889    0.1198   -0.3094 C   0  0  0  0  0  0  0  0  0  0  0  0
    3.0936    1.0570    0.6406 C   0  0  0  0  0  0  0  0  0  0  0  0
    3.1764   -1.1713   -0.3935 C   0  0  0  0  0  0  0  0  0  0  0  0
  1  3  1  0
  2  3  2  0
  3  8  1  0
  4  5  2  0
  4  9  1  0
  5 14  1  0
  6 15  3  0
  7 16  3  0
  8  9  2  0
  8 10  1  0
  9 11  1  0
 10 12  2  0
 11 13  2  0
 12 13  1  0
 14 15  1  0
 14 16  1  0
M  CHG  2   1  -1   3   1
M  END
>  <PUBCHEM_COMPOUND_CID>  (1) 
22427

>  <PUBCHEM_CONFORMER_RMSD>  (1) 
0.6

>  <PUBCHEM_CONFORMER_DIVERSEORDER>  (1) 
1
5
2
4
3
6
7
8

>  <PUBCHEM_MMFF94_PARTIAL_CHARGES>  (1) 
20
1 -0.52
10 -0.15
11 -0.15
12 -0.15
13 -0.15
14 0.65
15 0.36
16 0.36
17 0.15
18 0.15
19 0.15
2 -0.52
20 0.15
3 0.91
4 -0.18
5 -0.25
6 -0.56
7 -0.56
8 0.13
9 0.18

>  <PUBCHEM_EFFECTIVE_ROTOR_COUNT>  (1) 
3

>  <PUBCHEM_PHARMACOPHORE_FEATURES>  (1) 
6
1 1 acceptor
1 1 anion
1 2 acceptor
1 6 acceptor
1 7 acceptor
6 8 9 10 11 12 13 rings

>  <PUBCHEM_HEAVY_ATOM_COUNT>  (1) 
16

>  <PUBCHEM_ATOM_DEF_STEREO_COUNT>  (1) 
0

>  <PUBCHEM_ATOM_UDEF_STEREO_COUNT>  (1) 
0

>  <PUBCHEM_BOND_DEF_STEREO_COUNT>  (1) 
0

>  <PUBCHEM_BOND_UDEF_STEREO_COUNT>  (1) 
0

>  <PUBCHEM_ISOTOPIC_ATOM_COUNT>  (1) 
0

>  <PUBCHEM_COMPONENT_COUNT>  (1) 
1

>  <PUBCHEM_CACTVS_TAUTO_COUNT>  (1) 
1

>  <PUBCHEM_CONFORMER_ID>  (1) 
0000579B00000001

>  <PUBCHEM_MMFF94_ENERGY>  (1) 
38.5401

>  <PUBCHEM_FEATURE_SELFOVERLAP>  (1) 
30.53

>  <PUBCHEM_SHAPE_FINGERPRINT>  (1) 
10608611 8 18413667998266750752
11132069 177 18335701688933967867
12553582 1 17975707399844670391
12932764 1 18060421347949630926
13296908 3 18334016115875560678
14866123 147 16110092951051074006
15219456 202 18343299267105786010
15375462 6 18411703226880609750
16945 1 18337113478938503933
17804303 29 18339090267796509934
19049666 15 18341047420005366506
19784866 170 18195247939103511272
20510252 161 18412545405564010081
20871998 22 18264215870991638043
21524375 3 17979070484054902997
21650355 55 18118396474273521571
22802520 49 18341049623270789814
23559900 14 18408887330499549646
2748010 2 18409446951389105997
45790113 53 18272091561064944062
5902787 121 17534622912872527363
6049 1 18413392021043331884
81228 2 18187649119554191129
84936 182 17111832783448763829
90316 7 18186798097686492573

>  <PUBCHEM_SHAPE_MULTIPOLES>  (1) 
292.63
6.74
2.64
0.89
3.78
0.53
0.14
-1.27
1.63
-0.36
-0.14
0.37
0.19
1.38

>  <PUBCHEM_SHAPE_SELFOVERLAP>  (1) 
612.77

>  <PUBCHEM_SHAPE_VOLUME>  (1) 
161.4

>  <PUBCHEM_COORDINATE_TYPE>  (1) 
2
5
10

$$$$
