22442
     RDKit          3D

 11 10  0  0  0  0  0  0  0  0999 V2000
   -1.9068   -1.5942   -1.1339 O   0  0  0  0  0  0  0  0  0  0  0  0
   -2.7938   -1.4196    0.8745 O   0  0  0  0  0  0  0  0  0  0  0  0
   -2.0859   -1.0187   -0.0553 N   0  0  0  0  0  0  0  0  0  0  0  0
    1.0644    0.0485   -0.2444 C   0  0  0  0  0  0  0  0  0  0  0  0
    2.4287   -0.0354    0.4451 C   0  0  0  0  0  0  0  0  0  0  0  0
   -0.0717    0.1088    0.7832 C   0  0  0  0  0  0  0  0  0  0  0  0
    3.6005   -0.1112   -0.5358 C   0  0  0  0  0  0  0  0  0  0  0  0
   -1.4118    0.2274    0.1340 C   0  0  0  0  0  0  0  0  0  0  0  0
    4.9564   -0.2206    0.1441 C   0  0  0  0  0  0  0  0  0  0  0  0
   -2.1114    1.2962   -0.2675 C   0  0  0  0  0  0  0  0  0  0  0  0
   -1.6686    2.7189   -0.1440 C   0  0  0  0  0  0  0  0  0  0  0  0
  1  3  1  0
  2  3  2  0
  3  8  1  0
  4  5  1  0
  4  6  1  0
  5  7  1  0
  6  8  1  0
  7  9  1  0
  8 10  2  0
 10 11  1  0
M  CHG  2   1  -1   3   1
M  END
>  <PUBCHEM_COMPOUND_CID>  (1) 
22442

>  <PUBCHEM_CONFORMER_RMSD>  (1) 
0.6

>  <PUBCHEM_CONFORMER_DIVERSEORDER>  (1) 
1
61
28
54
33
56
31
57
43
60
58
51
18
41
46
10
22
52
38
6
49
26
59
2
17
19
24
13
30
55
34
53
47
25
7
21
14
5
40
4
44
48
45
3
50
20
39
42
36
16
23
35
11
32
12
37
8
29
15
27
9

>  <PUBCHEM_MMFF94_PARTIAL_CHARGES>  (1) 
8
1 -0.52
10 -0.29
11 0.14
2 -0.52
23 0.15
3 0.84
6 0.14
8 0.07

>  <PUBCHEM_EFFECTIVE_ROTOR_COUNT>  (1) 
5

>  <PUBCHEM_PHARMACOPHORE_FEATURES>  (1) 
6
1 1 acceptor
1 1 anion
1 11 hydrophobe
1 2 acceptor
1 9 hydrophobe
4 4 5 6 7 hydrophobe

>  <PUBCHEM_HEAVY_ATOM_COUNT>  (1) 
11

>  <PUBCHEM_ATOM_DEF_STEREO_COUNT>  (1) 
0

>  <PUBCHEM_ATOM_UDEF_STEREO_COUNT>  (1) 
0

>  <PUBCHEM_BOND_DEF_STEREO_COUNT>  (1) 
0

>  <PUBCHEM_BOND_UDEF_STEREO_COUNT>  (1) 
1

>  <PUBCHEM_ISOTOPIC_ATOM_COUNT>  (1) 
0

>  <PUBCHEM_COMPONENT_COUNT>  (1) 
1

>  <PUBCHEM_CACTVS_TAUTO_COUNT>  (1) 
1

>  <PUBCHEM_CONFORMER_ID>  (1) 
000057AA00000001

>  <PUBCHEM_MMFF94_ENERGY>  (1) 
12.4086

>  <PUBCHEM_FEATURE_SELFOVERLAP>  (1) 
30.525

>  <PUBCHEM_SHAPE_FINGERPRINT>  (1) 
10680689 15 18341899589109634194
12138202 97 18270673143577607069
12932764 1 18273491278206171730
13024252 1 17312827074018118705
14325111 11 18409450263489372850
1741750 31 18125439713653784376
18186145 218 15647064755046458620
1986462 14 18335706014235001846
20279233 1 17632576024785118102
20645477 56 18340208475385348128
20645477 70 16772953572167474142
20711985 344 18338218415331579377
20871998 184 18342181050826864357
21061003 4 17275105063146189280
21524375 3 17905315231168458033
22169311 21 17917426480929375326
22959321 105 18201998841993317800
2306618 200 18131635551812275016
23380061 127 18260829293678996560
23402539 116 18341039732151368901
23557571 272 18271254850238973692
3248919 1 17312829273231232834
573450 72 18188196612437103954
58051976 100 18335423413929562382
6333449 129 18341047423947198157

>  <PUBCHEM_SHAPE_MULTIPOLES>  (1) 
209.66
6.98
1.87
0.86
10.58
0.91
-0.03
-0.58
-0.15
-2.72
-0.19
-0.16
-0.21
0.09

>  <PUBCHEM_SHAPE_SELFOVERLAP>  (1) 
387.658

>  <PUBCHEM_SHAPE_VOLUME>  (1) 
133.3

>  <PUBCHEM_COORDINATE_TYPE>  (1) 
2
5
10

$$$$
