22452
     RDKit          3D

 22 22  0  0  1  0  0  0  0  0999 V2000
    3.9949   -0.0798    0.3819 S   0  0  0  0  0  0  0  0  0  0  0  0
    1.3577   -0.0321    0.8668 O   0  0  0  0  0  0  0  0  0  0  0  0
   -0.4299    3.6183    0.7772 O   0  0  0  0  0  0  0  0  0  0  0  0
    1.3463    2.3992    1.1986 O   0  0  0  0  0  0  0  0  0  0  0  0
   -4.5546   -0.5879   -1.1700 O   0  0  0  0  0  0  0  0  0  0  0  0
   -4.4672    1.5809   -0.8415 O   0  0  0  0  0  0  0  0  0  0  0  0
    2.0326    0.2741   -1.3350 O   0  0  0  0  0  0  0  0  0  0  0  0
    0.1567    2.5112    0.8191 N   0  0  0  0  0  0  0  0  0  0  0  0
   -3.9338    0.4454   -0.8216 N   0  0  0  0  0  0  0  0  0  0  0  0
   -0.0090   -2.3934    0.0884 C   0  0  0  0  0  0  0  0  0  0  0  0
   -0.6592   -1.0208    0.0621 C   0  0  0  0  0  0  0  0  0  0  0  0
   -0.7224   -3.3881    1.0267 C   0  0  0  0  0  0  0  0  0  0  0  0
    0.0733   -2.9777   -1.3271 C   0  0  0  0  0  0  0  0  0  0  0  0
    0.0623    0.0907    0.4544 C   0  0  0  0  0  0  0  0  0  0  0  0
   -1.9723   -0.9264   -0.3604 C   0  0  0  0  0  0  0  0  0  0  0  0
   -0.8168   -2.8916    2.4644 C   0  0  0  0  0  0  0  0  0  0  0  0
   -0.5514    1.3429    0.4236 C   0  0  0  0  0  0  0  0  0  0  0  0
   -2.5858    0.3258   -0.3911 C   0  0  0  0  0  0  0  0  0  0  0  0
   -1.8755    1.4605    0.0008 C   0  0  0  0  0  0  0  0  0  0  0  0
    2.3166    0.0807   -0.1579 C   0  0  0  0  0  0  0  0  0  0  0  0
    4.8686    0.1196   -1.1863 C   0  0  0  0  0  0  0  0  0  0  0  0
    6.3688    0.0485   -0.9731 C   0  0  0  0  0  0  0  0  0  0  0  0
  1 20  1  0
  1 21  1  0
  2 14  1  0
  2 20  1  0
  3  8  1  0
  4  8  2  0
  5  9  1  0
  6  9  2  0
  7 20  2  0
  8 17  1  0
  9 18  1  0
 10 11  1  0
 10 12  1  0
 10 13  1  0
 11 14  2  0
 11 15  1  0
 12 16  1  0
 14 17  1  0
 15 18  2  0
 17 19  2  0
 18 19  1  0
 21 22  1  0
M  CHG  4   3  -1   5  -1   8   1   9   1
M  END
>  <PUBCHEM_COMPOUND_CID>  (1) 
22452

>  <PUBCHEM_CONFORMER_RMSD>  (1) 
0.8

>  <PUBCHEM_CONFORMER_DIVERSEORDER>  (1) 
3
22
15
25
29
24
35
10
8
28
2
32
36
26
20
38
7
27
16
17
21
6
31
23
37
30
18
12
13
11
9
4
1
5
14
33
19
34

>  <PUBCHEM_MMFF94_PARTIAL_CHARGES>  (1) 
20
1 -0.37
10 0.14
11 -0.14
14 0.08
15 -0.15
17 0.13
18 0.13
19 -0.15
2 -0.23
20 0.86
21 0.23
29 0.15
3 -0.52
33 0.15
4 -0.52
5 -0.52
6 -0.52
7 -0.57
8 0.91
9 0.91

>  <PUBCHEM_EFFECTIVE_ROTOR_COUNT>  (1) 
8

>  <PUBCHEM_PHARMACOPHORE_FEATURES>  (1) 
10
1 13 hydrophobe
1 16 hydrophobe
1 22 hydrophobe
1 3 acceptor
1 3 anion
1 4 acceptor
1 5 acceptor
1 5 anion
1 6 acceptor
6 11 14 15 17 18 19 rings

>  <PUBCHEM_HEAVY_ATOM_COUNT>  (1) 
22

>  <PUBCHEM_ATOM_DEF_STEREO_COUNT>  (1) 
0

>  <PUBCHEM_ATOM_UDEF_STEREO_COUNT>  (1) 
1

>  <PUBCHEM_BOND_DEF_STEREO_COUNT>  (1) 
0

>  <PUBCHEM_BOND_UDEF_STEREO_COUNT>  (1) 
0

>  <PUBCHEM_ISOTOPIC_ATOM_COUNT>  (1) 
0

>  <PUBCHEM_COMPONENT_COUNT>  (1) 
1

>  <PUBCHEM_CACTVS_TAUTO_COUNT>  (1) 
1

>  <PUBCHEM_CONFORMER_ID>  (1) 
000057B400000003

>  <PUBCHEM_MMFF94_ENERGY>  (1) 
66.2151

>  <PUBCHEM_FEATURE_SELFOVERLAP>  (1) 
50.91

>  <PUBCHEM_SHAPE_FINGERPRINT>  (1) 
10366900 7 17988649580191288214
10693767 8 17845634968362901047
107951 10 18041003946839363602
10906281 52 18129680672042030956
11315181 36 18130515197715500404
11680986 33 18054223507988117016
12035758 1 18268716176289480939
12236239 1 17967530156270385612
12293681 160 18341047411157443512
12788726 201 18342459184651549104
13140716 1 18339913927008009361
13149001 5 18267297818952953141
14115302 16 18261395593738791388
14790565 3 18341623576878696193
15163728 17 17315361327586285774
16752209 62 18339640036753554752
16945 1 18273211985157100347
187816 3 18413109450665429004
20602899 9 17132119065049452974
20645476 183 17967250926976430570
20871999 31 18410574015432519774
20905425 154 17912073958939688375
21421861 104 17759238501600469881
21524375 3 18335127705278531239
21637258 2 14836111131305353564
22182313 1 17981607375218207720
22713019 99 18131347526931238398
229495 10 16811559868469700720
2334 1 18051677031011480905
23366157 5 17685214971697301442
23402539 116 18273213075931380172
23558518 356 17834679296958746034
23559900 14 18341612659867602336
23598288 3 18118418464648937206
266924 87 18126567821252678652
2748010 2 17980479284508557971
283562 15 18270403776240668128
3084891 72 18412258415791262354
3250762 1 17834670878617221281
34934 24 18200024016036002421
3759504 43 17894914044079144226
4409770 3 18115038518344210387
81228 2 18129117657627151392
9709674 26 17981877854661681516
9981440 41 18340776936156635890

>  <PUBCHEM_SHAPE_MULTIPOLES>  (1) 
411.42
8.13
3.62
1.47
10.28
1.03
-0.38
-2.3
4.84
-2.03
-1.7
-0.12
0.77
0.67

>  <PUBCHEM_SHAPE_SELFOVERLAP>  (1) 
835.899

>  <PUBCHEM_SHAPE_VOLUME>  (1) 
242

>  <PUBCHEM_COORDINATE_TYPE>  (1) 
2
5
10

$$$$
