22458
     RDKit          3D

 12 13  0  0  0  0  0  0  0  0999 V2000
    1.5658    0.0028    0.4730 N   0  0  0  0  0  0  0  0  0  0  0  0
    2.0894    1.1406    0.0301 N   0  0  0  0  0  0  0  0  0  0  0  0
    3.1840   -0.6998   -0.7744 N   0  0  0  0  0  0  0  0  0  0  0  0
    0.4120    0.0322    1.3779 C   0  0  0  0  0  0  0  0  0  0  0  0
   -0.8798    0.0113    0.6328 C   0  0  0  0  0  0  0  0  0  0  0  0
   -1.4856   -1.2060    0.3213 C   0  0  0  0  0  0  0  0  0  0  0  0
   -1.4825    1.2090    0.2476 C   0  0  0  0  0  0  0  0  0  0  0  0
   -2.6939   -1.2258   -0.3753 C   0  0  0  0  0  0  0  0  0  0  0  0
   -2.6908    1.1891   -0.4491 C   0  0  0  0  0  0  0  0  0  0  0  0
    2.2016   -1.0859    0.0060 C   0  0  0  0  0  0  0  0  0  0  0  0
   -3.2964   -0.0283   -0.7605 C   0  0  0  0  0  0  0  0  0  0  0  0
    3.0762    0.6608   -0.7295 C   0  0  0  0  0  0  0  0  0  0  0  0
  1  2  1  0
  1  4  1  0
  1 10  1  0
  2 12  2  0
  3 10  2  0
  3 12  1  0
  4  5  1  0
  5  6  2  0
  5  7  1  0
  6  8  1  0
  7  9  2  0
  8 11  2  0
  9 11  1  0
M  END
>  <PUBCHEM_COMPOUND_CID>  (1) 
22458

>  <PUBCHEM_CONFORMER_RMSD>  (1) 
0.6

>  <PUBCHEM_CONFORMER_DIVERSEORDER>  (1) 
1
4
6
2
3
5

>  <PUBCHEM_MMFF94_PARTIAL_CHARGES>  (1) 
19
1 0.31
10 0.04
11 -0.15
12 0.37
15 0.15
16 0.15
17 0.15
18 0.15
19 0.15
2 -0.71
20 0.15
21 0.15
3 -0.57
4 0.4
5 -0.14
6 -0.15
7 -0.15
8 -0.15
9 -0.15

>  <PUBCHEM_EFFECTIVE_ROTOR_COUNT>  (1) 
2

>  <PUBCHEM_PHARMACOPHORE_FEATURES>  (1) 
4
3 1 3 10 cation
3 2 3 12 cation
5 1 2 3 10 12 rings
6 5 6 7 8 9 11 rings

>  <PUBCHEM_HEAVY_ATOM_COUNT>  (1) 
12

>  <PUBCHEM_ATOM_DEF_STEREO_COUNT>  (1) 
0

>  <PUBCHEM_ATOM_UDEF_STEREO_COUNT>  (1) 
0

>  <PUBCHEM_BOND_DEF_STEREO_COUNT>  (1) 
0

>  <PUBCHEM_BOND_UDEF_STEREO_COUNT>  (1) 
0

>  <PUBCHEM_ISOTOPIC_ATOM_COUNT>  (1) 
0

>  <PUBCHEM_COMPONENT_COUNT>  (1) 
1

>  <PUBCHEM_CACTVS_TAUTO_COUNT>  (1) 
1

>  <PUBCHEM_CONFORMER_ID>  (1) 
000057BA00000001

>  <PUBCHEM_MMFF94_ENERGY>  (1) 
20.6605

>  <PUBCHEM_FEATURE_SELFOVERLAP>  (1) 
23.074

>  <PUBCHEM_SHAPE_FINGERPRINT>  (1) 
11031198 65 16153707587599545715
11127187 94 18131351912467329207
12382932 28 9079116661093916391
12696612 119 9007048076387996602
12897270 3 18410575123386401898
12932764 1 18409451383779492179
13296908 3 16056876914292989184
13764800 53 15792027661638631217
14250199 8 18187654651287738284
15775835 57 17458060434990693861
18186145 218 17822007597062631389
20201158 50 17989488493739740134
20279233 1 17560507469468567122
20281407 28 14548742789539201592
20361792 2 15697998539390218241
20645464 45 11674872273701587721
20645476 183 18040707052924415227
20653085 51 18041284279195803305
20711985 344 16557636213619750176
20871999 31 18337101393359767927
22169311 14 9150904870546029260
22802520 49 18412266137994598675
230 275 14851596666145541690
23402655 69 18335139748071397820
23552423 10 18262508187710532347
23559900 14 18059003979136239194
2748010 2 17185313682155110065
528716 315 18334581277947869775
8030462 33 17967530164222120994
81228 2 15912219585427773690
93112 12 18410012126183033278

>  <PUBCHEM_SHAPE_MULTIPOLES>  (1) 
232.01
5.71
1.38
1
1.35
0.01
-0.15
-0.01
2.17
-0.38
0.08
0.11
0
-0.01

>  <PUBCHEM_SHAPE_SELFOVERLAP>  (1) 
496.368

>  <PUBCHEM_SHAPE_VOLUME>  (1) 
130.3

>  <PUBCHEM_COORDINATE_TYPE>  (1) 
2
5
10

$$$$
