22455
     RDKit          3D

 34 38  0  0  1  0  0  0  0  0999 V2000
    1.2469    2.8205   -1.2478 O   0  0  0  0  0  0  0  0  0  0  0  0
    2.1186   -1.7476   -0.6202 O   0  0  0  0  0  0  0  0  0  0  0  0
   -6.3686   -0.1355    0.3773 O   0  0  0  0  0  0  0  0  0  0  0  0
    5.9269   -1.5546    1.0675 O   0  0  0  0  0  0  0  0  0  0  0  0
    0.3115   -3.1768   -0.4527 O   0  0  0  0  0  0  0  0  0  0  0  0
    7.6699   -0.2698    0.2884 O   0  0  0  0  0  0  0  0  0  0  0  0
   -6.2832   -1.1188    2.4659 O   0  0  0  0  0  0  0  0  0  0  0  0
    1.1294    1.9284   -0.1315 C   0  0  0  0  0  0  0  0  0  0  0  0
   -0.3729    1.5416    0.0032 C   0  0  0  0  0  0  0  0  0  0  0  0
    2.0878    0.6838   -0.3082 C   0  0  0  0  0  0  0  0  0  0  0  0
   -0.8230    0.6181   -1.1611 C   0  0  0  0  0  0  0  0  0  0  0  0
   -2.3535    0.2259   -1.1020 C   0  0  0  0  0  0  0  0  0  0  0  0
    1.2746   -0.6363   -0.3248 C   0  0  0  0  0  0  0  0  0  0  0  0
   -3.2254    1.5149   -0.9303 C   0  0  0  0  0  0  0  0  0  0  0  0
    0.1249   -0.5951   -1.3325 C   0  0  0  0  0  0  0  0  0  0  0  0
    2.9909    0.7332    0.9710 C   0  0  0  0  0  0  0  0  0  0  0  0
    1.6365    2.6764    1.1227 C   0  0  0  0  0  0  0  0  0  0  0  0
   -1.2742    2.7863    0.0678 C   0  0  0  0  0  0  0  0  0  0  0  0
   -2.7378    2.4079    0.2235 C   0  0  0  0  0  0  0  0  0  0  0  0
    3.0783    2.2223    1.2954 C   0  0  0  0  0  0  0  0  0  0  0  0
   -2.6592   -0.7605    0.0625 C   0  0  0  0  0  0  0  0  0  0  0  0
    2.9484    0.7965   -1.5965 C   0  0  0  0  0  0  0  0  0  0  0  0
   -4.7211    1.1977   -0.7397 C   0  0  0  0  0  0  0  0  0  0  0  0
   -2.7213   -0.4480   -2.4536 C   0  0  0  0  0  0  0  0  0  0  0  0
   -4.1485   -1.0609    0.2391 C   0  0  0  0  0  0  0  0  0  0  0  0
   -4.9848    0.2046    0.3893 C   0  0  0  0  0  0  0  0  0  0  0  0
    4.3310    0.0773    0.8918 C   0  0  0  0  0  0  0  0  0  0  0  0
    4.5316   -1.3295    1.2947 C   0  0  0  0  0  0  0  0  0  0  0  0
    5.4694    0.6253    0.4750 C   0  0  0  0  0  0  0  0  0  0  0  0
    1.4996   -2.9624   -0.6513 C   0  0  0  0  0  0  0  0  0  0  0  0
    6.4962   -0.4120    0.5845 C   0  0  0  0  0  0  0  0  0  0  0  0
   -6.7731   -1.0045    1.3506 C   0  0  0  0  0  0  0  0  0  0  0  0
    2.5028   -4.0287   -0.9717 C   0  0  0  0  0  0  0  0  0  0  0  0
   -7.9285   -1.8197    0.8539 C   0  0  0  0  0  0  0  0  0  0  0  0
  1  8  1  0
  2 13  1  0
  2 30  1  0
  3 26  1  0
  3 32  1  0
  4 28  1  0
  4 31  1  0
  5 30  2  0
  6 31  2  0
  7 32  2  0
  8  9  1  0
  8 10  1  0
  8 17  1  0
  9 11  1  0
  9 18  1  0
 10 13  1  0
 10 16  1  0
 10 22  1  0
 11 12  1  0
 11 15  1  0
 12 14  1  0
 12 21  1  0
 12 24  1  0
 13 15  1  0
 14 19  1  0
 14 23  1  0
 16 20  1  0
 16 27  1  0
 17 20  1  0
 18 19  1  0
 21 25  1  0
 23 26  1  0
 25 26  1  0
 27 28  1  0
 27 29  2  0
 29 31  1  0
 30 33  1  0
 32 34  1  0
M  END
>  <PUBCHEM_COMPOUND_CID>  (1) 
22455

>  <PUBCHEM_CONFORMER_RMSD>  (1) 
1

>  <PUBCHEM_CONFORMER_DIVERSEORDER>  (1) 
9
5
11
15
16
21
22
2
1
19
23
7
20
4
18
6
17
8
14
12
13
3
10

>  <PUBCHEM_MMFF94_PARTIAL_CHARGES>  (1) 
21
1 -0.68
13 0.28
16 0.14
2 -0.43
26 0.28
27 -0.28
28 0.42
29 -0.14
3 -0.43
30 0.66
31 0.71
32 0.66
33 0.06
34 0.06
4 -0.43
5 -0.57
6 -0.57
63 0.4
66 0.15
7 -0.57
8 0.28

>  <PUBCHEM_EFFECTIVE_ROTOR_COUNT>  (1) 
7.6

>  <PUBCHEM_PHARMACOPHORE_FEATURES>  (1) 
10
1 1 acceptor
1 1 donor
1 5 acceptor
1 6 acceptor
1 7 acceptor
5 4 27 28 29 31 rings
5 8 10 16 17 20 rings
6 12 14 21 23 25 26 rings
6 8 9 10 11 13 15 rings
6 9 11 12 14 18 19 rings

>  <PUBCHEM_HEAVY_ATOM_COUNT>  (1) 
34

>  <PUBCHEM_ATOM_DEF_STEREO_COUNT>  (1) 
7

>  <PUBCHEM_ATOM_UDEF_STEREO_COUNT>  (1) 
2

>  <PUBCHEM_BOND_DEF_STEREO_COUNT>  (1) 
0

>  <PUBCHEM_BOND_UDEF_STEREO_COUNT>  (1) 
0

>  <PUBCHEM_ISOTOPIC_ATOM_COUNT>  (1) 
0

>  <PUBCHEM_COMPONENT_COUNT>  (1) 
1

>  <PUBCHEM_CACTVS_TAUTO_COUNT>  (1) 
1

>  <PUBCHEM_CONFORMER_ID>  (1) 
000057B700000009

>  <PUBCHEM_MMFF94_ENERGY>  (1) 
118.6331

>  <PUBCHEM_FEATURE_SELFOVERLAP>  (1) 
50.885

>  <PUBCHEM_SHAPE_FINGERPRINT>  (1) 
10076449 9 18412267234150301624
11115154 58 14056991716518573095
11135609 12 18260551104162538729
11445158 3 18114741641698711916
11646440 116 17918275350633824248
11963148 33 18335695044388543803
12035758 1 18342161290162390194
12166972 35 17603868918134030453
12422481 6 18131066022095588765
12633257 1 17203321260304635297
13140716 1 18127685135271827229
13402501 40 18408038498505983378
13540713 4 17842568348912855933
13583140 156 18342449314896025669
13673619 4 17603302678689191325
13782708 43 17603866728354427803
13947930 73 17750529519179494699
14028597 1 17346606248328919922
14068700 675 13262671552037807550
14341114 176 18336261322925119672
14790565 3 18342170060618152528
14849402 71 18128532850516933432
14955137 171 18413387635924355812
15064986 96 17345480280324878183
15324884 4 17754134800205317684
15510800 12 17822588178727826323
16112460 7 17917430977602282208
17909252 39 17984715415502024078
19315092 285 16227431981810932634
1979834 28 18342182176119254523
20028762 73 17916568973249772910
20105231 36 18343025480748887102
20721686 56 18267860593139990303
21267235 1 18410012130931986344
21304304 249 18114183072944435763
21623969 137 18410293592554322747
21781051 124 18335714827767077214
21792934 111 18411140222026420265
21987483 16 17696466657570637347
22223350 30 17915161645151800282
23559900 14 18336253583700156757
23569914 2 13251959921050738731
25222932 49 17749383758800315850
2838139 119 12247674968073025729
3178227 256 18342739632898967440
350125 39 18412258437524879924
392239 28 18272931652599505339
4093350 32 16343431613487069790
439807 62 17749112205899068057
4461854 278 18341902921520057047
46194498 28 16588302826033109028
465052 167 18040436615617574592
5104073 3 18128263285858249329
5265222 85 18340485664770473324
563151 248 17703788158500230855
57527358 35 15121792977638912204
59755656 215 18341889641743993430
6376802 90 17753320977328178093

>  <PUBCHEM_SHAPE_MULTIPOLES>  (1) 
658.62
16.19
3.4
1.61
9.58
1.44
-0.1
7.08
9.26
-1.44
-0.32
1.13
0.19
1.47

>  <PUBCHEM_SHAPE_SELFOVERLAP>  (1) 
1414.04

>  <PUBCHEM_SHAPE_VOLUME>  (1) 
360.9

>  <PUBCHEM_COORDINATE_TYPE>  (1) 
2
5
10

$$$$
