22467
     RDKit          3D

  9  8  0  0  0  0  0  0  0  0999 V2000
    0.1422   -0.3062   -0.2361 O   0  0  0  0  0  0  0  0  0  0  0  0
    1.5911    1.3468    0.4313 O   0  0  0  0  0  0  0  0  0  0  0  0
    3.6737   -0.3271   -0.0217 O   0  0  0  0  0  0  0  0  0  0  0  0
    2.3496   -0.7242   -0.2456 N   0  0  0  0  0  0  0  0  0  0  0  0
   -2.2697   -0.1566   -0.3286 C   0  0  0  0  0  0  0  0  0  0  0  0
   -0.9584    0.5614    0.0023 C   0  0  0  0  0  0  0  0  0  0  0  0
   -2.4615   -1.3978    0.5455 C   0  0  0  0  0  0  0  0  0  0  0  0
   -3.4534    0.7946   -0.1667 C   0  0  0  0  0  0  0  0  0  0  0  0
    1.3864    0.2092    0.0197 C   0  0  0  0  0  0  0  0  0  0  0  0
  1  6  1  0
  1  9  1  0
  2  9  2  0
  3  4  1  0
  4  9  1  0
  5  6  1  0
  5  7  1  0
  5  8  1  0
M  END
>  <PUBCHEM_COMPOUND_CID>  (1) 
22467

>  <PUBCHEM_CONFORMER_RMSD>  (1) 
0.6

>  <PUBCHEM_CONFORMER_DIVERSEORDER>  (1) 
1
2
6
5
4
3

>  <PUBCHEM_MMFF94_PARTIAL_CHARGES>  (1) 
8
1 -0.43
19 0.37
2 -0.57
20 0.4
3 -0.44
4 -0.39
6 0.28
9 0.78

>  <PUBCHEM_EFFECTIVE_ROTOR_COUNT>  (1) 
4

>  <PUBCHEM_PHARMACOPHORE_FEATURES>  (1) 
3
1 2 acceptor
1 4 donor
3 5 7 8 hydrophobe

>  <PUBCHEM_HEAVY_ATOM_COUNT>  (1) 
9

>  <PUBCHEM_ATOM_DEF_STEREO_COUNT>  (1) 
0

>  <PUBCHEM_ATOM_UDEF_STEREO_COUNT>  (1) 
0

>  <PUBCHEM_BOND_DEF_STEREO_COUNT>  (1) 
0

>  <PUBCHEM_BOND_UDEF_STEREO_COUNT>  (1) 
0

>  <PUBCHEM_ISOTOPIC_ATOM_COUNT>  (1) 
0

>  <PUBCHEM_COMPONENT_COUNT>  (1) 
1

>  <PUBCHEM_CACTVS_TAUTO_COUNT>  (1) 
3

>  <PUBCHEM_CONFORMER_ID>  (1) 
000057C300000001

>  <PUBCHEM_MMFF94_ENERGY>  (1) 
10.3178

>  <PUBCHEM_FEATURE_SELFOVERLAP>  (1) 
15.223

>  <PUBCHEM_SHAPE_FINGERPRINT>  (1) 
10219947 1 17060339608945546820
11062470 55 17703505519397140397
12932741 1 18336540607626388005
12932764 1 16660633077226589805
14325111 11 18410292548845322405
14390081 3 18412820309372678281
19973954 147 18337391655512505169
20201158 50 18342458110371771567
23552423 10 18041561446251607807
29004967 10 18131355202232936010
3248919 1 18261382412246646469

>  <PUBCHEM_SHAPE_MULTIPOLES>  (1) 
162.63
5.77
1.18
0.65
1.63
0.1
-0.02
0.31
0.12
-0.48
-0.17
-0.12
0.02
0.38

>  <PUBCHEM_SHAPE_SELFOVERLAP>  (1) 
298.172

>  <PUBCHEM_SHAPE_VOLUME>  (1) 
103.9

>  <PUBCHEM_COORDINATE_TYPE>  (1) 
2
5
10

$$$$
