22464
     RDKit          3D

  7  6  0  0  0  0  0  0  0  0999 V2000
    2.5570    0.9959    0.0368 O   0  0  0  0  0  0  0  0  0  0  0  0
    1.9140   -1.1824    0.0118 O   0  0  0  0  0  0  0  0  0  0  0  0
    0.2147    0.5327   -0.0759 C   0  0  0  0  0  0  0  0  0  0  0  0
   -0.8093   -0.5943   -0.0152 C   0  0  0  0  0  0  0  0  0  0  0  0
    1.6287    0.0083    0.0034 C   0  0  0  0  0  0  0  0  0  0  0  0
   -2.1888   -0.0860    0.0098 C   0  0  0  0  0  0  0  0  0  0  0  0
   -3.3163    0.3258    0.0292 C   0  0  0  0  0  0  0  0  0  0  0  0
  1  5  1  0
  2  5  2  0
  3  4  1  0
  3  5  1  0
  4  6  1  0
  6  7  3  0
M  END
>  <PUBCHEM_COMPOUND_CID>  (1) 
22464

>  <PUBCHEM_CONFORMER_RMSD>  (1) 
0.4

>  <PUBCHEM_CONFORMER_DIVERSEORDER>  (1) 
1
4
7
6
3
5
8
2

>  <PUBCHEM_MMFF94_PARTIAL_CHARGES>  (1) 
9
1 -0.65
12 0.5
13 0.18
2 -0.57
3 0.06
4 0.2
5 0.66
6 -0.2
7 -0.18

>  <PUBCHEM_EFFECTIVE_ROTOR_COUNT>  (1) 
2

>  <PUBCHEM_PHARMACOPHORE_FEATURES>  (1) 
4
1 1 acceptor
1 2 acceptor
1 7 hydrophobe
3 1 2 5 anion

>  <PUBCHEM_HEAVY_ATOM_COUNT>  (1) 
7

>  <PUBCHEM_ATOM_DEF_STEREO_COUNT>  (1) 
0

>  <PUBCHEM_ATOM_UDEF_STEREO_COUNT>  (1) 
0

>  <PUBCHEM_BOND_DEF_STEREO_COUNT>  (1) 
0

>  <PUBCHEM_BOND_UDEF_STEREO_COUNT>  (1) 
0

>  <PUBCHEM_ISOTOPIC_ATOM_COUNT>  (1) 
0

>  <PUBCHEM_COMPONENT_COUNT>  (1) 
1

>  <PUBCHEM_CACTVS_TAUTO_COUNT>  (1) 
1

>  <PUBCHEM_CONFORMER_ID>  (1) 
000057C000000001

>  <PUBCHEM_MMFF94_ENERGY>  (1) 
3.2526

>  <PUBCHEM_FEATURE_SELFOVERLAP>  (1) 
20.355

>  <PUBCHEM_SHAPE_FINGERPRINT>  (1) 
12932764 1 17275098444833590289
14325111 11 18410856560140968967
14390081 3 18272368710925035745
20651381 32 18337383851572362989
21040471 1 18338236093227039414
23552333 60 18341049631865999538
29004967 10 18040157326758112144
3248919 1 17168148957358169791
5460574 1 9295291638194412173

>  <PUBCHEM_SHAPE_MULTIPOLES>  (1) 
132.32
4.66
0.97
0.59
1.85
0.07
0
-0.64
0.09
-0.5
0
0.07
0
0

>  <PUBCHEM_SHAPE_SELFOVERLAP>  (1) 
243.387

>  <PUBCHEM_SHAPE_VOLUME>  (1) 
82.8

>  <PUBCHEM_COORDINATE_TYPE>  (1) 
2
5
10

$$$$
