22466
     RDKit          3D

 10  9  0  0  0  0  0  0  0  0999 V2000
    4.6107    1.0384    0.0032 Cl  0  0  0  0  0  0  0  0  0  0  0  0
    2.0620    0.4886    0.0053 O   0  0  0  0  0  0  0  0  0  0  0  0
    3.4482   -1.3307   -0.0235 O   0  0  0  0  0  0  0  0  0  0  0  0
   -1.5850   -0.4145    0.0219 C   0  0  0  0  0  0  0  0  0  0  0  0
   -2.8894    0.3873    0.0047 C   0  0  0  0  0  0  0  0  0  0  0  0
   -0.3332    0.4615    0.0132 C   0  0  0  0  0  0  0  0  0  0  0  0
   -4.1422   -0.4891    0.0382 C   0  0  0  0  0  0  0  0  0  0  0  0
    0.9368   -0.3790   -0.0022 C   0  0  0  0  0  0  0  0  0  0  0  0
   -5.4079    0.3498   -0.0538 C   0  0  0  0  0  0  0  0  0  0  0  0
    3.3000   -0.1122   -0.0069 C   0  0  0  0  0  0  0  0  0  0  0  0
  1 10  1  0
  2  8  1  0
  2 10  1  0
  3 10  2  0
  4  5  1  0
  4  6  1  0
  5  7  1  0
  6  8  1  0
  7  9  1  0
M  END
>  <PUBCHEM_COMPOUND_CID>  (1) 
22466

>  <PUBCHEM_CONFORMER_RMSD>  (1) 
0.6

>  <PUBCHEM_CONFORMER_DIVERSEORDER>  (1) 
1
174
153
90
215
30
155
71
148
82
3
7
225
205
53
117
173
190
100
227
5
43
159
46
180
94
70
36
195
4
63
93
181
103
218
67
88
19
164
158
37
165
92
72
17
99
58
2
78
106
18
209
87
221
202
212
142
220
85
109
81
217
197
54
185
98
123
47
219
31
160
213
163
25
175
107
66
113
32
200
50
172
126
207
38
167
211
10
222
26
223
6
191
201
141
133
116
73
48
84
176
130
187
224
8
154
16
204
144
52
95
138
59
101
192
119
129
182
80
28
199
64
122
115
196
110
134
102
170
147
189
69
27
86
22
131
146
226
120
41
216
128
42
168
75
145
74
12
178
35
179
108
77
124
13
57
169
105
34
127
194
186
79
177
62
149
15
143
112
40
44
45
139
29
39
140
171
161
9
183
91
96
135
65
104
166
206
152
184
121
137
11
60
114
49
203
136
157
56
61
76
97
21
162
33
83
89
150
125
210
111
188
132
156
14
198
68
151
20
208
193
214
118
23
55
51
24

>  <PUBCHEM_MMFF94_PARTIAL_CHARGES>  (1) 
5
1 -0.21
10 0.93
2 -0.43
3 -0.57
8 0.28

>  <PUBCHEM_EFFECTIVE_ROTOR_COUNT>  (1) 
6

>  <PUBCHEM_PHARMACOPHORE_FEATURES>  (1) 
3
1 3 acceptor
1 9 hydrophobe
4 4 5 6 7 hydrophobe

>  <PUBCHEM_HEAVY_ATOM_COUNT>  (1) 
10

>  <PUBCHEM_ATOM_DEF_STEREO_COUNT>  (1) 
0

>  <PUBCHEM_ATOM_UDEF_STEREO_COUNT>  (1) 
0

>  <PUBCHEM_BOND_DEF_STEREO_COUNT>  (1) 
0

>  <PUBCHEM_BOND_UDEF_STEREO_COUNT>  (1) 
0

>  <PUBCHEM_ISOTOPIC_ATOM_COUNT>  (1) 
0

>  <PUBCHEM_COMPONENT_COUNT>  (1) 
1

>  <PUBCHEM_CACTVS_TAUTO_COUNT>  (1) 
1

>  <PUBCHEM_CONFORMER_ID>  (1) 
000057C200000001

>  <PUBCHEM_MMFF94_ENERGY>  (1) 
3.3786

>  <PUBCHEM_FEATURE_SELFOVERLAP>  (1) 
15.223

>  <PUBCHEM_SHAPE_FINGERPRINT>  (1) 
11062470 55 18411138047522520609
14123238 8 17917992789140903677
14325111 11 18410856547034501514
15242433 33 18343302582414623126
17834072 33 18201154459495829317
17834076 25 18202565094285979328
18342897 14 18201720665108476433
190213 19 17749112192396967751
20279233 1 17676212372652721298
20645477 70 18340769239385116750
20719005 15 18410856555350097027
22485316 2 18410291423806717803
23402539 116 18408879651219304735
23402655 69 18343018891282026597
23532345 1 18334018328284780688
42788 4 18410292514817925861
449060 50 18335138726074682164
522135 26 18343584027838077102

>  <PUBCHEM_SHAPE_MULTIPOLES>  (1) 
195.93
11.5
0.98
0.6
4.28
0.08
0
-1.52
-0.11
-0.79
0
0.04
-0.01
0.03

>  <PUBCHEM_SHAPE_SELFOVERLAP>  (1) 
344.898

>  <PUBCHEM_SHAPE_VOLUME>  (1) 
127.9

>  <PUBCHEM_COORDINATE_TYPE>  (1) 
2
5
10

$$$$
