22473
     RDKit          3D

 13 13  0  0  0  0  0  0  0  0999 V2000
    2.1970    0.3075   -0.2113 S   0  0  0  0  0  0  0  0  0  0  0  0
    0.9615    0.0632    0.8451 O   0  0  0  0  0  0  0  0  0  0  0  0
   -0.5615   -1.9406   -0.3345 O   0  0  0  0  0  0  0  0  0  0  0  0
    3.5117   -0.2291    0.5938 O   0  0  0  0  0  0  0  0  0  0  0  0
    2.0042   -0.5455   -1.3696 O   0  0  0  0  0  0  0  0  0  0  0  0
    2.3503    1.7404   -0.3847 O   0  0  0  0  0  0  0  0  0  0  0  0
   -0.3140    0.3124    0.4369 C   0  0  0  0  0  0  0  0  0  0  0  0
   -1.0781   -0.6931   -0.1557 C   0  0  0  0  0  0  0  0  0  0  0  0
   -0.8548    1.5858    0.6154 C   0  0  0  0  0  0  0  0  0  0  0  0
   -2.3829   -0.4250   -0.5697 C   0  0  0  0  0  0  0  0  0  0  0  0
   -2.1596    1.8538    0.2015 C   0  0  0  0  0  0  0  0  0  0  0  0
   -2.9236    0.8484   -0.3910 C   0  0  0  0  0  0  0  0  0  0  0  0
   -0.7501   -2.8782    0.7238 C   0  0  0  0  0  0  0  0  0  0  0  0
  1  2  1  0
  1  4  1  0
  1  5  2  0
  1  6  2  0
  2  7  1  0
  3  8  1  0
  3 13  1  0
  7  8  2  0
  7  9  1  0
  8 10  1  0
  9 11  2  0
 10 12  2  0
 11 12  1  0
M  END
>  <PUBCHEM_COMPOUND_CID>  (1) 
22473

>  <PUBCHEM_CONFORMER_RMSD>  (1) 
0.6

>  <PUBCHEM_CONFORMER_DIVERSEORDER>  (1) 
1
3
2
4

>  <PUBCHEM_MMFF94_PARTIAL_CHARGES>  (1) 
18
1 1.67
10 -0.15
11 -0.15
12 -0.15
13 0.28
14 0.15
15 0.15
16 0.15
17 0.15
2 -0.27
21 0.5
3 -0.36
4 -0.68
5 -0.65
6 -0.65
7 0.08
8 0.08
9 -0.15

>  <PUBCHEM_EFFECTIVE_ROTOR_COUNT>  (1) 
3

>  <PUBCHEM_PHARMACOPHORE_FEATURES>  (1) 
6
1 3 acceptor
1 4 acceptor
1 5 acceptor
1 6 acceptor
4 1 4 5 6 anion
6 7 8 9 10 11 12 rings

>  <PUBCHEM_HEAVY_ATOM_COUNT>  (1) 
13

>  <PUBCHEM_ATOM_DEF_STEREO_COUNT>  (1) 
0

>  <PUBCHEM_ATOM_UDEF_STEREO_COUNT>  (1) 
0

>  <PUBCHEM_BOND_DEF_STEREO_COUNT>  (1) 
0

>  <PUBCHEM_BOND_UDEF_STEREO_COUNT>  (1) 
0

>  <PUBCHEM_ISOTOPIC_ATOM_COUNT>  (1) 
0

>  <PUBCHEM_COMPONENT_COUNT>  (1) 
1

>  <PUBCHEM_CACTVS_TAUTO_COUNT>  (1) 
1

>  <PUBCHEM_CONFORMER_ID>  (1) 
000057C900000001

>  <PUBCHEM_MMFF94_ENERGY>  (1) 
38.8832

>  <PUBCHEM_FEATURE_SELFOVERLAP>  (1) 
30.506

>  <PUBCHEM_SHAPE_FINGERPRINT>  (1) 
12716758 59 18339636836485766176
13024252 1 13479130203106243661
13380535 76 18342736304199098990
14614273 12 18190452762773546189
15775835 57 18040436559909834348
161256 15 17329711436451265875
16945 1 18411708685462114039
18534176 82 18341057435768770124
19021347 11 18193272988412698443
20201158 50 17775565329833391556
20645476 183 18113909268219847742
21028194 46 18041000596553096493
22802520 49 18129400274732437550
23402539 116 18270382962675781173
23419403 2 13539040512781864238
23552423 10 18050844417072412987
23559900 14 18130497558184634682
2748010 2 17188959658739951881
305870 269 18118400635753829346
353137 74 18200028413713378161
5084963 1 18131071476561636377
528862 383 17973719177999903091
7364860 26 17766836135190397239
74978 22 18334299790307816268
81228 2 18194125337604964587

>  <PUBCHEM_SHAPE_MULTIPOLES>  (1) 
242.04
4.28
2.36
0.92
2.23
1.48
0.08
-1.47
0.52
-0.83
-0.46
0.2
0.11
-0.11

>  <PUBCHEM_SHAPE_SELFOVERLAP>  (1) 
487.842

>  <PUBCHEM_SHAPE_VOLUME>  (1) 
142.8

>  <PUBCHEM_COORDINATE_TYPE>  (1) 
2
5
10

$$$$
