22488
     RDKit          3D

 19 22  0  0  0  0  0  0  0  0999 V2000
    0.5033   -0.0551   -0.0001 C   0  0  0  0  0  0  0  0  0  0  0  0
    0.1886   -1.4361   -0.0002 C   0  0  0  0  0  0  0  0  0  0  0  0
   -1.9338    0.4211    0.0000 C   0  0  0  0  0  0  0  0  0  0  0  0
    1.8861    0.3504    0.0000 C   0  0  0  0  0  0  0  0  0  0  0  0
   -2.2158   -0.9568    0.0000 C   0  0  0  0  0  0  0  0  0  0  0  0
   -0.5916    0.8468    0.0000 C   0  0  0  0  0  0  0  0  0  0  0  0
   -1.1499   -1.8664   -0.0001 C   0  0  0  0  0  0  0  0  0  0  0  0
    2.8996   -0.6434   -0.0001 C   0  0  0  0  0  0  0  0  0  0  0  0
   -2.9989    1.3385    0.0001 C   0  0  0  0  0  0  0  0  0  0  0  0
    1.2144   -2.3853   -0.0001 C   0  0  0  0  0  0  0  0  0  0  0  0
    2.5493   -1.9953   -0.0001 C   0  0  0  0  0  0  0  0  0  0  0  0
   -3.5533   -1.3885    0.0000 C   0  0  0  0  0  0  0  0  0  0  0  0
    2.3208    1.6999    0.0000 C   0  0  0  0  0  0  0  0  0  0  0  0
   -4.3223    0.8969    0.0004 C   0  0  0  0  0  0  0  0  0  0  0  0
    4.2576   -0.2815    0.0001 C   0  0  0  0  0  0  0  0  0  0  0  0
   -4.5994   -0.4661    0.0002 C   0  0  0  0  0  0  0  0  0  0  0  0
   -2.7731    2.8192   -0.0007 C   0  0  0  0  0  0  0  0  0  0  0  0
    3.6748    2.0464    0.0002 C   0  0  0  0  0  0  0  0  0  0  0  0
    4.6436    1.0552    0.0002 C   0  0  0  0  0  0  0  0  0  0  0  0
  1  2  1  0
  1  4  1  0
  1  6  2  0
  2  7  2  0
  2 10  1  0
  3  5  2  0
  3  6  1  0
  3  9  1  0
  4  8  2  0
  4 13  1  0
  5  7  1  0
  5 12  1  0
  8 11  1  0
  8 15  1  0
  9 14  2  0
  9 17  1  0
 10 11  2  0
 12 16  2  0
 13 18  2  0
 14 16  1  0
 15 19  2  0
 18 19  1  0
M  END
>  <PUBCHEM_COMPOUND_CID>  (1) 
22488

>  <PUBCHEM_CONFORMER_RMSD>  (1) 
0.4

>  <PUBCHEM_CONFORMER_DIVERSEORDER>  (1) 
1

>  <PUBCHEM_MMFF94_PARTIAL_CHARGES>  (1) 
24
10 -0.15
11 -0.15
12 -0.15
13 -0.15
14 -0.15
15 -0.15
16 -0.15
17 0.14
18 -0.15
19 -0.15
20 0.15
21 0.15
22 0.15
23 0.15
24 0.15
25 0.15
26 0.15
27 0.15
28 0.15
32 0.15
33 0.15
6 -0.15
7 -0.15
9 -0.14

>  <PUBCHEM_EFFECTIVE_ROTOR_COUNT>  (1) 
0

>  <PUBCHEM_PHARMACOPHORE_FEATURES>  (1) 
4
6 1 2 3 5 6 7 rings
6 1 2 4 8 10 11 rings
6 3 5 9 12 14 16 rings
6 4 8 13 15 18 19 rings

>  <PUBCHEM_HEAVY_ATOM_COUNT>  (1) 
19

>  <PUBCHEM_ATOM_DEF_STEREO_COUNT>  (1) 
0

>  <PUBCHEM_ATOM_UDEF_STEREO_COUNT>  (1) 
0

>  <PUBCHEM_BOND_DEF_STEREO_COUNT>  (1) 
0

>  <PUBCHEM_BOND_UDEF_STEREO_COUNT>  (1) 
0

>  <PUBCHEM_ISOTOPIC_ATOM_COUNT>  (1) 
0

>  <PUBCHEM_COMPONENT_COUNT>  (1) 
1

>  <PUBCHEM_CACTVS_TAUTO_COUNT>  (1) 
1

>  <PUBCHEM_CONFORMER_ID>  (1) 
000057D800000001

>  <PUBCHEM_MMFF94_ENERGY>  (1) 
68.1608

>  <PUBCHEM_FEATURE_SELFOVERLAP>  (1) 
20.37

>  <PUBCHEM_SHAPE_FINGERPRINT>  (1) 
10411042 1 17041761990011441351
10498660 4 18409164415787932405
10608611 8 18410009897205867181
10616163 171 18411702118668504879
10646746 165 18410576175885569500
10670039 82 18261126183642038756
10967382 1 18410575076247354048
11370993 70 18410007740989768810
11471102 20 18411416198421592462
11578080 2 16879898652210331687
12107183 9 17760644767828553409
12173636 292 18411133628275674949
12390115 104 18200049360274331097
12403260 363 18409720751285593128
13140716 1 17977111485025309603
138480 1 17834113044023343874
14466204 15 18411128126897575944
15196674 1 18410573980872444518
15442244 35 18194401087195084130
15536298 74 18341896268604263190
16945 1 18410856585436363367
17492 89 18411136896757096347
18186145 218 18201449029854205592
19591789 44 18051694644324137275
200 152 18059853987027827551
20510252 161 18342178869004772009
20645477 70 18271808986407859366
21267235 1 18410865351506819022
21279426 13 18268434525846715462
21501502 16 18338513045492502067
21524375 3 18412828018559347746
21652331 79 18410293631493683017
221490 88 18337962198725577738
22854114 111 18408324384561572478
23227448 37 18341893051536647759
23366157 5 18042127574697612706
23402539 116 18341324591440586655
23559900 14 18198338455751701202
238 59 16744484875014431701
245318 6 16954802074937388260
3004659 81 18261965055733240566
335352 9 18050568443474074742
350125 39 18410295787245583696
3545911 37 18409731759366088957
4214541 1 18410855430121763777
474 4 17822296828961431220
4990 188 18060148630532458790
5104073 3 18409167679778149987
58051976 378 18412824685516844885
6138700 20 18338803291700162902
6333272 397 18409166631943188000
69090 78 18341328976238458535
7097593 13 17608917695219435379
7364860 26 18341333288813093038
77779 3 18411139129838441957
7808743 9 17979350086800750288
9709674 26 18411143523664449503
9981440 41 18335415824421956442

>  <PUBCHEM_SHAPE_MULTIPOLES>  (1) 
391.01
8.95
2.64
0.62
0.11
0.32
0
2.71
0
-0.05
0
0
0
0

>  <PUBCHEM_SHAPE_SELFOVERLAP>  (1) 
895.651

>  <PUBCHEM_SHAPE_VOLUME>  (1) 
185.2

>  <PUBCHEM_COORDINATE_TYPE>  (1) 
2
5
10

$$$$
