22492
     RDKit          3D

 18 20  0  0  0  0  0  0  0  0999 V2000
   -0.0878   -2.9967    0.1386 Cl  0  0  0  0  0  0  0  0  0  0  0  0
   -0.0631    1.5245    0.2424 N   0  0  0  0  0  0  0  0  0  0  0  0
   -3.5244   -1.1042   -0.6139 C   0  0  0  0  0  0  0  0  0  0  0  0
   -4.3063    0.2016   -0.4777 C   0  0  0  0  0  0  0  0  0  0  0  0
   -2.5308   -1.3544    0.5208 C   0  0  0  0  0  0  0  0  0  0  0  0
   -3.4614    1.4709   -0.5803 C   0  0  0  0  0  0  0  0  0  0  0  0
   -1.2541   -0.5744    0.3675 C   0  0  0  0  0  0  0  0  0  0  0  0
   -2.4633    1.6403    0.5637 C   0  0  0  0  0  0  0  0  0  0  0  0
   -1.2155    0.8170    0.3849 C   0  0  0  0  0  0  0  0  0  0  0  0
   -0.0382   -1.2430    0.2019 C   0  0  0  0  0  0  0  0  0  0  0  0
    1.1601   -0.5335    0.0545 C   0  0  0  0  0  0  0  0  0  0  0  0
    1.1002    0.8699    0.0803 C   0  0  0  0  0  0  0  0  0  0  0  0
    2.3920   -1.1892   -0.1158 C   0  0  0  0  0  0  0  0  0  0  0  0
    2.2882    1.5810   -0.0668 C   0  0  0  0  0  0  0  0  0  0  0  0
    3.5660   -0.4559   -0.2608 C   0  0  0  0  0  0  0  0  0  0  0  0
    3.5136    0.9320   -0.2361 C   0  0  0  0  0  0  0  0  0  0  0  0
    2.6436   -2.6641   -0.1568 C   0  0  0  0  0  0  0  0  0  0  0  0
    2.2812    3.0781   -0.0466 C   0  0  0  0  0  0  0  0  0  0  0  0
  1 10  1  0
  2  9  2  0
  2 12  1  0
  3  4  1  0
  3  5  1  0
  4  6  1  0
  5  7  1  0
  6  8  1  0
  7  9  1  0
  7 10  2  0
  8  9  1  0
 10 11  1  0
 11 12  2  0
 11 13  1  0
 12 14  1  0
 13 15  2  0
 13 17  1  0
 14 16  2  0
 14 18  1  0
 15 16  1  0
M  END
>  <PUBCHEM_COMPOUND_CID>  (1) 
22492

>  <PUBCHEM_CONFORMER_RMSD>  (1) 
0.6

>  <PUBCHEM_CONFORMER_DIVERSEORDER>  (1) 
1
2

>  <PUBCHEM_MMFF94_PARTIAL_CHARGES>  (1) 
16
1 -0.18
10 0.18
12 0.31
13 -0.14
14 -0.14
15 -0.15
16 -0.15
17 0.14
18 0.14
2 -0.62
29 0.15
30 0.15
5 0.14
7 -0.14
8 0.14
9 0.17

>  <PUBCHEM_EFFECTIVE_ROTOR_COUNT>  (1) 
1

>  <PUBCHEM_PHARMACOPHORE_FEATURES>  (1) 
4
1 2 acceptor
6 11 12 13 14 15 16 rings
6 2 7 9 10 11 12 rings
7 3 4 5 6 7 8 9 rings

>  <PUBCHEM_HEAVY_ATOM_COUNT>  (1) 
18

>  <PUBCHEM_ATOM_DEF_STEREO_COUNT>  (1) 
0

>  <PUBCHEM_ATOM_UDEF_STEREO_COUNT>  (1) 
0

>  <PUBCHEM_BOND_DEF_STEREO_COUNT>  (1) 
0

>  <PUBCHEM_BOND_UDEF_STEREO_COUNT>  (1) 
0

>  <PUBCHEM_ISOTOPIC_ATOM_COUNT>  (1) 
0

>  <PUBCHEM_COMPONENT_COUNT>  (1) 
1

>  <PUBCHEM_CACTVS_TAUTO_COUNT>  (1) 
1

>  <PUBCHEM_CONFORMER_ID>  (1) 
000057DC00000001

>  <PUBCHEM_MMFF94_ENERGY>  (1) 
65.9818

>  <PUBCHEM_FEATURE_SELFOVERLAP>  (1) 
20.337

>  <PUBCHEM_SHAPE_FINGERPRINT>  (1) 
10062212 137 18341040810077318507
10608611 8 18336264642939958121
10616163 171 18341614858152509799
10756046 5 18339635655797053751
10967382 1 18338519634024912794
11370993 70 18338228396582458400
11471102 20 18410572894540981452
116883 192 17837776625583173678
12403259 226 18261670359718077245
12553582 1 17905897976383404226
13140716 1 18338804398756603632
13380535 76 18410009978958023394
13583140 156 16806991337700485161
138480 1 18194402182765438694
13897977 150 18409450280115503489
14223421 5 18263933296234164051
14250199 8 18411420617948058861
14251717 144 18410571743183868943
14790565 3 15532793233078790340
15196674 1 18410856551055142735
15442244 35 18196092148915837864
15536298 74 18343301448796204538
16945 1 18339089305760433946
17492 89 18412261727269881911
18186145 218 18341902878389931701
19591789 44 17763187234044485235
200 152 18060416928206646021
20645477 70 18342176652643619079
21267235 1 18340215106603785079
21501502 16 18412267198761849889
21634736 98 18342737407689053231
221490 88 18409455794716517474
2334 1 18410862074409446320
23402539 116 18342168917840048470
23402655 69 18412542076917045213
23463225 33 18338518525870732802
23493267 7 17749669704800506115
23559900 14 18341608218333172888
238 59 17828724462294673621
25 1 18261954042429121783
2748010 2 18337118933309475987
2871803 45 18338789113638143799
335352 9 18050286960044508063
350125 39 18337683000112935681
352729 6 18194690499445379170
5104073 3 18410856546870959193
5262128 65 17916606240416625598
58051976 378 18413103987277124445
7364860 26 18412825781086874578
74978 22 18410014303831672507
7832392 63 18124317095075270193
84936 182 18201153351247126488
90525 40 17917428701163801599
9709674 26 18410578409031582791
9981440 41 18049152569225010296

>  <PUBCHEM_SHAPE_MULTIPOLES>  (1) 
367.32
6.74
3.11
0.73
2.94
0.38
-0.01
-1.01
-1.32
-1.62
0.05
0.27
0
0.06

>  <PUBCHEM_SHAPE_SELFOVERLAP>  (1) 
791.844

>  <PUBCHEM_SHAPE_VOLUME>  (1) 
202.4

>  <PUBCHEM_COORDINATE_TYPE>  (1) 
2
5
10

$$$$
