22498
     RDKit          3D

 26 26  0  0  1  0  0  0  0  0999 V2000
   -1.4136    1.0313    0.4129 O   0  0  0  0  0  0  0  0  0  0  0  0
   -1.5588   -0.7504    3.2551 O   0  0  0  0  0  0  0  0  0  0  0  0
   -3.2752   -1.2752    1.9911 O   0  0  0  0  0  0  0  0  0  0  0  0
    1.5727   -4.1509   -1.4946 O   0  0  0  0  0  0  0  0  0  0  0  0
    0.5216   -4.9422    0.2628 O   0  0  0  0  0  0  0  0  0  0  0  0
   -3.2268    0.4376   -0.9415 O   0  0  0  0  0  0  0  0  0  0  0  0
   -2.0458   -1.0887    2.1505 N   0  0  0  0  0  0  0  0  0  0  0  0
    0.8047   -3.9984   -0.5141 N   0  0  0  0  0  0  0  0  0  0  0  0
    0.3239    0.7501   -1.8301 C   0  0  0  0  0  0  0  0  0  0  0  0
    1.8312    1.0809   -1.8686 C   0  0  0  0  0  0  0  0  0  0  0  0
    2.4053    1.4159   -0.4865 C   0  0  0  0  0  0  0  0  0  0  0  0
    3.9175    1.6460   -0.5552 C   0  0  0  0  0  0  0  0  0  0  0  0
   -0.0162   -0.3959   -0.8928 C   0  0  0  0  0  0  0  0  0  0  0  0
    4.4849    2.0089    0.8190 C   0  0  0  0  0  0  0  0  0  0  0  0
   -0.1825    0.4540   -3.2470 C   0  0  0  0  0  0  0  0  0  0  0  0
    5.9994    2.2273    0.8112 C   0  0  0  0  0  0  0  0  0  0  0  0
   -0.8732   -0.2024    0.1908 C   0  0  0  0  0  0  0  0  0  0  0  0
    0.5398   -1.6536   -1.1260 C   0  0  0  0  0  0  0  0  0  0  0  0
   -1.1741   -1.2666    1.0407 C   0  0  0  0  0  0  0  0  0  0  0  0
    0.2390   -2.7179   -0.2760 C   0  0  0  0  0  0  0  0  0  0  0  0
   -0.6181   -2.5243    0.8074 C   0  0  0  0  0  0  0  0  0  0  0  0
    6.5646    2.6123    2.1696 C   0  0  0  0  0  0  0  0  0  0  0  0
   -2.6378    1.2377   -0.2312 C   0  0  0  0  0  0  0  0  0  0  0  0
   -3.1061    2.6040    0.0930 C   0  0  0  0  0  0  0  0  0  0  0  0
   -4.2655    3.0489   -0.4084 C   0  0  0  0  0  0  0  0  0  0  0  0
   -4.8109    4.4118   -0.1322 C   0  0  0  0  0  0  0  0  0  0  0  0
  1 17  1  0
  1 23  1  0
  2  7  1  0
  3  7  2  0
  4  8  1  0
  5  8  2  0
  6 23  2  0
  7 19  1  0
  8 20  1  0
  9 10  1  0
  9 13  1  0
  9 15  1  0
 10 11  1  0
 11 12  1  0
 12 14  1  0
 13 17  2  0
 13 18  1  0
 14 16  1  0
 16 22  1  0
 17 19  1  0
 18 20  2  0
 19 21  2  0
 20 21  1  0
 23 24  1  0
 24 25  2  0
 25 26  1  0
M  CHG  4   2  -1   4  -1   7   1   8   1
M  END
>  <PUBCHEM_COMPOUND_CID>  (1) 
22498

>  <PUBCHEM_CONFORMER_RMSD>  (1) 
1

>  <PUBCHEM_CONFORMER_DIVERSEORDER>  (1) 
1
67
17
48
124
94
121
44
19
51
87
106
75
2
70
26
24
49
59
64
123
13
118
71
8
88
65
98
101
18
32
80
73
25
4
5
69
125
108
23
37
34
109
30
117
41
22
31
119
35
89
10
85
90
54
103
7
50
33
116
107
96
42
15
112
77
57
16
113
120
9
122
6
45
20
62
56
82
60
55
52
63
28
97
38
91
43
114
92
40
39
72
74
115
61
78
81
100
58
111
66
14
95
12
53
46
76
29
11
86
84
110
83
36
68
27
21
104
102
99
3
79
47
105
93

>  <PUBCHEM_MMFF94_PARTIAL_CHARGES>  (1) 
23
1 -0.23
13 -0.14
17 0.08
18 -0.15
19 0.13
2 -0.52
20 0.13
21 -0.15
23 0.71
24 -0.14
25 -0.29
26 0.14
3 -0.52
4 -0.52
41 0.15
42 0.15
46 0.15
47 0.15
5 -0.52
6 -0.57
7 0.91
8 0.91
9 0.14

>  <PUBCHEM_EFFECTIVE_ROTOR_COUNT>  (1) 
11

>  <PUBCHEM_PHARMACOPHORE_FEATURES>  (1) 
13
1 15 hydrophobe
1 2 acceptor
1 2 anion
1 22 hydrophobe
1 26 hydrophobe
1 3 acceptor
1 4 acceptor
1 4 anion
1 5 acceptor
1 6 acceptor
3 12 14 16 hydrophobe
3 9 10 11 hydrophobe
6 13 17 18 19 20 21 rings

>  <PUBCHEM_HEAVY_ATOM_COUNT>  (1) 
26

>  <PUBCHEM_ATOM_DEF_STEREO_COUNT>  (1) 
0

>  <PUBCHEM_ATOM_UDEF_STEREO_COUNT>  (1) 
1

>  <PUBCHEM_BOND_DEF_STEREO_COUNT>  (1) 
0

>  <PUBCHEM_BOND_UDEF_STEREO_COUNT>  (1) 
1

>  <PUBCHEM_ISOTOPIC_ATOM_COUNT>  (1) 
0

>  <PUBCHEM_COMPONENT_COUNT>  (1) 
1

>  <PUBCHEM_CACTVS_TAUTO_COUNT>  (1) 
1

>  <PUBCHEM_CONFORMER_ID>  (1) 
000057E200000001

>  <PUBCHEM_MMFF94_ENERGY>  (1) 
65.1279

>  <PUBCHEM_FEATURE_SELFOVERLAP>  (1) 
66.16

>  <PUBCHEM_SHAPE_FINGERPRINT>  (1) 
10764073 3 17751351777571667586
11552529 35 17904183069721374884
11578080 2 18200890474190347297
11582403 64 17989198227218338540
12788726 201 17682975640426370932
13004483 165 17546444939446541558
13149001 5 17392796603611765863
17980427 26 18197201564938964700
20600515 1 17478633637740027607
21033648 29 18341341062841406116
21304303 282 18270099323262238327
23558518 356 17605867796688548459
23559900 14 18117578240001200540
23598288 3 17825674623266204516
23728640 28 18192141805817251690
3380486 77 16900484112686006102
3493558 16 17266358199187042536
394222 165 17702379550776258589
4938544 92 18196361736368150424
5895379 119 16335263109687124073
59444896 2 17828440895637870491
6371380 46 18342177714449944652
81228 2 17334532738788621142
90316 7 17688048804056416277
9981440 41 18410572890067088633

>  <PUBCHEM_SHAPE_MULTIPOLES>  (1) 
489.89
9.34
5.73
2.45
14.61
4.44
-0.17
-16.81
-5.62
-2.11
-0.09
0.18
0.36
2.71

>  <PUBCHEM_SHAPE_SELFOVERLAP>  (1) 
993.955

>  <PUBCHEM_SHAPE_VOLUME>  (1) 
284.2

>  <PUBCHEM_COORDINATE_TYPE>  (1) 
2
5
10

$$$$
