22503
     RDKit          3D

 11 11  0  0  0  0  0  0  0  0999 V2000
   -1.8638   -2.4783   -0.0003 Cl  0  0  0  0  0  0  0  0  0  0  0  0
    2.3242    2.1513   -0.0003 Cl  0  0  0  0  0  0  0  0  0  0  0  0
    3.2710   -0.9432    0.0004 Cl  0  0  0  0  0  0  0  0  0  0  0  0
   -2.4375    0.4716    0.0002 O   0  0  0  0  0  0  0  0  0  0  0  0
   -1.1161    0.1365   -0.0001 C   0  0  0  0  0  0  0  0  0  0  0  0
   -0.7082   -1.1974    0.0000 C   0  0  0  0  0  0  0  0  0  0  0  0
   -0.1648    1.1566    0.0000 C   0  0  0  0  0  0  0  0  0  0  0  0
    1.1944    0.8429    0.0000 C   0  0  0  0  0  0  0  0  0  0  0  0
    0.6510   -1.5111    0.0001 C   0  0  0  0  0  0  0  0  0  0  0  0
    1.6022   -0.4910   -0.0001 C   0  0  0  0  0  0  0  0  0  0  0  0
   -2.7525    1.8622    0.0002 C   0  0  0  0  0  0  0  0  0  0  0  0
  1  6  1  0
  2  8  1  0
  3 10  1  0
  4  5  1  0
  4 11  1  0
  5  6  2  0
  5  7  1  0
  6  9  1  0
  7  8  2  0
  8 10  1  0
  9 10  2  0
M  END
>  <PUBCHEM_COMPOUND_CID>  (1) 
22503

>  <PUBCHEM_CONFORMER_RMSD>  (1) 
0.4

>  <PUBCHEM_CONFORMER_DIVERSEORDER>  (1) 
3
1
2

>  <PUBCHEM_MMFF94_PARTIAL_CHARGES>  (1) 
13
1 -0.18
10 0.18
11 0.28
12 0.15
13 0.15
2 -0.18
3 -0.18
4 -0.36
5 0.08
6 0.18
7 -0.15
8 0.18
9 -0.15

>  <PUBCHEM_EFFECTIVE_ROTOR_COUNT>  (1) 
1

>  <PUBCHEM_PHARMACOPHORE_FEATURES>  (1) 
2
1 4 acceptor
6 5 6 7 8 9 10 rings

>  <PUBCHEM_HEAVY_ATOM_COUNT>  (1) 
11

>  <PUBCHEM_ATOM_DEF_STEREO_COUNT>  (1) 
0

>  <PUBCHEM_ATOM_UDEF_STEREO_COUNT>  (1) 
0

>  <PUBCHEM_BOND_DEF_STEREO_COUNT>  (1) 
0

>  <PUBCHEM_BOND_UDEF_STEREO_COUNT>  (1) 
0

>  <PUBCHEM_ISOTOPIC_ATOM_COUNT>  (1) 
0

>  <PUBCHEM_COMPONENT_COUNT>  (1) 
1

>  <PUBCHEM_CACTVS_TAUTO_COUNT>  (1) 
1

>  <PUBCHEM_CONFORMER_ID>  (1) 
000057E700000003

>  <PUBCHEM_MMFF94_ENERGY>  (1) 
33.3082

>  <PUBCHEM_FEATURE_SELFOVERLAP>  (1) 
10.148

>  <PUBCHEM_SHAPE_FINGERPRINT>  (1) 
12423570 1 12031525305652748890
13380535 21 18338811124833884520
13380535 76 18341046303066235551
14325111 11 18410856559671762885
14648413 74 18411140251231075264
14911166 2 18339645516799294342
14993402 34 18266458702781500222
16945 1 18338516339690064134
193761 8 18338517559465985990
19973954 147 18338516460017622752
20511035 2 18201146733034208612
20588541 1 18268713796956700102
20645476 183 17751106655151223422
21040471 1 18410856542591854145
21501502 16 18338517559571487542
23235685 24 18268140955429592048
2334 1 18266459995561394414
23402539 116 17982999073476437782
23402655 69 17907561546757585661
23552423 10 18261672700649268238
23559900 14 18270404881091618710
241688 4 17259911719363089106
2748010 2 18339080509466893206
5084963 1 18130500843006583705
528886 8 18267017245945514553
53812653 166 18268705009353236424
57177213 63 17901392508729908252
68250623 7 18337675333701729258

>  <PUBCHEM_SHAPE_MULTIPOLES>  (1) 
226.11
4.2
2.65
0.62
0.83
0.06
0
-0.59
0
-0.79
0
0.03
0.01
0

>  <PUBCHEM_SHAPE_SELFOVERLAP>  (1) 
442.419

>  <PUBCHEM_SHAPE_VOLUME>  (1) 
139.9

>  <PUBCHEM_COORDINATE_TYPE>  (1) 
2
5
10

$$$$
