22506
     RDKit          3D

 12 12  0  0  0  0  0  0  0  0999 V2000
    0.9657    2.5395   -0.1638 O   0  0  0  0  0  0  0  0  0  0  0  0
    0.1175    0.6338    0.1690 N   0  0  0  0  0  0  0  0  0  0  0  0
    0.3232    1.6209   -0.6822 N   0  0  0  0  0  0  0  0  0  0  0  0
    1.1827   -0.4299    0.1782 C   0  0  0  0  0  0  0  0  0  0  0  0
   -1.3083    0.1553    0.1713 C   0  0  0  0  0  0  0  0  0  0  0  0
    0.8956   -1.5254   -0.8788 C   0  0  0  0  0  0  0  0  0  0  0  0
   -1.5403   -0.9507   -0.8863 C   0  0  0  0  0  0  0  0  0  0  0  0
   -0.5214   -2.0801   -0.8131 C   0  0  0  0  0  0  0  0  0  0  0  0
    1.3210   -1.0584    1.5875 C   0  0  0  0  0  0  0  0  0  0  0  0
    2.6130    0.1245   -0.1211 C   0  0  0  0  0  0  0  0  0  0  0  0
   -2.3181    1.3095   -0.1374 C   0  0  0  0  0  0  0  0  0  0  0  0
   -1.7305   -0.3390    1.5769 C   0  0  0  0  0  0  0  0  0  0  0  0
  1  3  2  0
  2  3  1  0
  2  4  1  0
  2  5  1  0
  4  6  1  0
  4  9  1  0
  4 10  1  0
  5  7  1  0
  5 11  1  0
  5 12  1  0
  6  8  1  0
  7  8  1  0
M  END
>  <PUBCHEM_COMPOUND_CID>  (1) 
22506

>  <PUBCHEM_CONFORMER_RMSD>  (1) 
0.6

>  <PUBCHEM_CONFORMER_DIVERSEORDER>  (1) 
3
1
2
4

>  <PUBCHEM_MMFF94_PARTIAL_CHARGES>  (1) 
5
1 -0.16
2 -0.36
3 -0.01
4 0.27
5 0.27

>  <PUBCHEM_EFFECTIVE_ROTOR_COUNT>  (1) 
2.2

>  <PUBCHEM_PHARMACOPHORE_FEATURES>  (1) 
3
3 4 9 10 hydrophobe
3 5 11 12 hydrophobe
6 2 4 5 6 7 8 rings

>  <PUBCHEM_HEAVY_ATOM_COUNT>  (1) 
12

>  <PUBCHEM_ATOM_DEF_STEREO_COUNT>  (1) 
0

>  <PUBCHEM_ATOM_UDEF_STEREO_COUNT>  (1) 
0

>  <PUBCHEM_BOND_DEF_STEREO_COUNT>  (1) 
0

>  <PUBCHEM_BOND_UDEF_STEREO_COUNT>  (1) 
0

>  <PUBCHEM_ISOTOPIC_ATOM_COUNT>  (1) 
0

>  <PUBCHEM_COMPONENT_COUNT>  (1) 
1

>  <PUBCHEM_CACTVS_TAUTO_COUNT>  (1) 
1

>  <PUBCHEM_CONFORMER_ID>  (1) 
000057EA00000003

>  <PUBCHEM_MMFF94_ENERGY>  (1) 
35.5302

>  <PUBCHEM_FEATURE_SELFOVERLAP>  (1) 
15.223

>  <PUBCHEM_SHAPE_FINGERPRINT>  (1) 
12423570 1 10652091361966026250
12524768 44 18122067502816694221
13024252 1 16447815819906836858
14993402 34 18413101753809604693
16945 1 18266464384960124158
18185500 45 17621023696150417151
21040471 1 18058718113858984927
23419403 2 15307132137356892190
241688 4 18127690426793238327
2748010 2 18198348364024780743
430814 3 17769413656760101249
5084963 1 17917993909948234327
528886 8 18270680848748838430
54338 74 18049685694514135690
68250623 7 17762644053788552074

>  <PUBCHEM_SHAPE_MULTIPOLES>  (1) 
231.12
2.76
2.14
1.28
0.01
0.62
-0.56
0.41
-0.29
-0.13
0.71
0.07
-0.45
-0.12

>  <PUBCHEM_SHAPE_SELFOVERLAP>  (1) 
453.596

>  <PUBCHEM_SHAPE_VOLUME>  (1) 
140.5

>  <PUBCHEM_COORDINATE_TYPE>  (1) 
2
5
10

$$$$
