22526
     RDKit          3D

 29 32  0  0  0  0  0  0  0  0999 V2000
   -4.3580   -0.2550   -0.0071 N   0  0  0  0  0  0  0  0  0  0  0  0
    2.4155   -0.5435    0.5100 N   0  0  0  0  0  0  0  0  0  0  0  0
    7.8053    0.7241    0.1329 N   0  0  0  0  0  0  0  0  0  0  0  0
   -3.1912    0.4508   -0.1437 C   0  0  0  0  0  0  0  0  0  0  0  0
   -2.2136   -0.4683   -0.1837 C   0  0  0  0  0  0  0  0  0  0  0  0
    3.7238   -0.2364    0.4271 C   0  0  0  0  0  0  0  0  0  0  0  0
   -4.0810   -1.5966    0.0343 C   0  0  0  0  0  0  0  0  0  0  0  0
    4.3062   -0.0600   -0.8477 C   0  0  0  0  0  0  0  0  0  0  0  0
    1.6311   -0.6919   -0.5659 C   0  0  0  0  0  0  0  0  0  0  0  0
   -2.7166   -1.7494   -0.0768 C   0  0  0  0  0  0  0  0  0  0  0  0
   -5.6361    0.3065    0.0768 C   0  0  0  0  0  0  0  0  0  0  0  0
   -0.7864   -0.1295   -0.3251 C   0  0  0  0  0  0  0  0  0  0  0  0
    0.2221   -1.0271   -0.4068 C   0  0  0  0  0  0  0  0  0  0  0  0
    5.6702    0.2609   -0.9306 C   0  0  0  0  0  0  0  0  0  0  0  0
    6.4349    0.4024    0.2293 C   0  0  0  0  0  0  0  0  0  0  0  0
    3.4962   -0.2127   -1.9810 C   0  0  0  0  0  0  0  0  0  0  0  0
    2.1497   -0.5309   -1.8400 C   0  0  0  0  0  0  0  0  0  0  0  0
    4.4958   -0.0934    1.5842 C   0  0  0  0  0  0  0  0  0  0  0  0
   -3.1674    1.9305   -0.2188 C   0  0  0  0  0  0  0  0  0  0  0  0
   -5.1318   -2.6282    0.1761 C   0  0  0  0  0  0  0  0  0  0  0  0
    5.8492    0.2256    1.4826 C   0  0  0  0  0  0  0  0  0  0  0  0
    1.7944   -0.7289    1.8347 C   0  0  0  0  0  0  0  0  0  0  0  0
   -6.1545    0.6387    1.3198 C   0  0  0  0  0  0  0  0  0  0  0  0
   -6.3626    0.5250   -1.0846 C   0  0  0  0  0  0  0  0  0  0  0  0
    8.7389    0.2665    1.1423 C   0  0  0  0  0  0  0  0  0  0  0  0
    8.2985    1.5045   -0.9843 C   0  0  0  0  0  0  0  0  0  0  0  0
   -7.4279    1.2018    1.4035 C   0  0  0  0  0  0  0  0  0  0  0  0
   -7.6360    1.0881   -1.0009 C   0  0  0  0  0  0  0  0  0  0  0  0
   -8.1686    1.4264    0.2432 C   0  0  0  0  0  0  0  0  0  0  0  0
  1  4  1  0
  1  7  1  0
  1 11  1  0
  2  6  2  0
  2  9  1  0
  2 22  1  0
  3 15  1  0
  3 25  1  0
  3 26  1  0
  4  5  2  0
  4 19  1  0
  5 10  1  0
  5 12  1  0
  6  8  1  0
  6 18  1  0
  7 10  2  0
  7 20  1  0
  8 14  1  0
  8 16  2  0
  9 13  1  0
  9 17  2  0
 11 23  2  0
 11 24  1  0
 12 13  2  0
 14 15  2  0
 15 21  1  0
 16 17  1  0
 18 21  2  0
 23 27  1  0
 24 28  2  0
 27 29  2  0
 28 29  1  0
M  CHG  1   2   1
M  END
>  <PUBCHEM_COMPOUND_CID>  (1) 
22526

>  <PUBCHEM_CONFORMER_RMSD>  (1) 
0.8

>  <PUBCHEM_CONFORMER_DIVERSEORDER>  (1) 
1
6
3
5
4
2

>  <PUBCHEM_MMFF94_PARTIAL_CHARGES>  (1) 
41
1 0.33
10 -0.15
11 -0.02
12 -0.1
13 -0.18
14 -0.15
15 0.1
16 -0.15
17 -0.15
18 -0.15
19 0.18
2 -0.21
20 0.18
21 -0.15
22 0.49
23 -0.15
24 -0.15
25 0.37
26 0.37
27 -0.15
28 -0.15
29 -0.15
3 -0.84
30 0.15
31 0.15
32 0.15
33 0.15
34 0.15
35 0.15
36 0.15
4 -0.33
43 0.15
47 0.15
48 0.15
5 -0.05
55 0.15
56 0.15
57 0.15
6 0.36
7 -0.33
9 0.39

>  <PUBCHEM_EFFECTIVE_ROTOR_COUNT>  (1) 
4

>  <PUBCHEM_PHARMACOPHORE_FEATURES>  (1) 
6
1 1 cation
1 3 cation
5 1 4 5 7 10 rings
6 11 23 24 27 28 29 rings
6 2 6 8 9 16 17 rings
6 6 8 14 15 18 21 rings

>  <PUBCHEM_HEAVY_ATOM_COUNT>  (1) 
29

>  <PUBCHEM_ATOM_DEF_STEREO_COUNT>  (1) 
0

>  <PUBCHEM_ATOM_UDEF_STEREO_COUNT>  (1) 
0

>  <PUBCHEM_BOND_DEF_STEREO_COUNT>  (1) 
0

>  <PUBCHEM_BOND_UDEF_STEREO_COUNT>  (1) 
1

>  <PUBCHEM_ISOTOPIC_ATOM_COUNT>  (1) 
0

>  <PUBCHEM_COMPONENT_COUNT>  (1) 
1

>  <PUBCHEM_CACTVS_TAUTO_COUNT>  (1) 
1

>  <PUBCHEM_CONFORMER_ID>  (1) 
000057FE00000001

>  <PUBCHEM_MMFF94_ENERGY>  (1) 
133.1914

>  <PUBCHEM_FEATURE_SELFOVERLAP>  (1) 
30.478

>  <PUBCHEM_SHAPE_FINGERPRINT>  (1) 
10 15 17967814938060827257
10162869 55 17095240358980604783
10835480 77 17775289356678378983
11135926 11 16298378076440373027
11315181 36 17704354377709318491
11386260 185 15339115780291118552
11409948 35 18267586815810739446
11409948 41 13757807962776963092
11456790 92 16805597075969829924
12089408 11 18114178662170920738
12236239 1 17749387092021796214
12539765 74 18335427889734358606
12616971 3 17167583808524359791
13383665 225 17844553070591579864
13685833 64 13623529052233834422
14251764 18 16877944958077310382
14394314 77 17749106695118878421
14849402 71 17458914863596562804
15183329 4 14189578524533475571
15352257 5 12107786302510224393
15461852 350 17704067439159824071
15510794 2 17917717906638890758
1577012 14 18040149634714752450
15840311 113 17748830735565887412
16989713 51 17630602543211414399
17093844 174 18411421730956765235
1754911 235 15697998526695545009
18335252 114 15770055047687559464
19301679 30 16226876745787455546
19841028 212 13912869892724006920
2026 5 8069486819704311656
21033648 29 17560787853692461530
21150785 3 14692850294261397869
21623969 137 15285360600341402835
21792961 116 17275113799779698862
221357 26 15769775732314449306
22224240 67 16298384673878754920
23559900 14 18273213123550391089
23576562 1 16486396819573993625
246663 6 11025798686736006636
24771293 8 18272935990954967301
3178227 256 15213019358600631272
4073 2 18272376377415896239
4093350 32 17822007580442373930
5104073 3 18042414689208593105
5937810 71 16271656581664294289
636775 72 18060140921140808353
6691757 9 18408042936252049339
9962374 69 10737582642953335523

>  <PUBCHEM_SHAPE_MULTIPOLES>  (1) 
581.86
27.48
1.59
1.54
7.9
0.45
-0.05
-12.88
-3.17
-2.8
0
1.44
-0.07
-0.31

>  <PUBCHEM_SHAPE_SELFOVERLAP>  (1) 
1279.399

>  <PUBCHEM_SHAPE_VOLUME>  (1) 
317.2

>  <PUBCHEM_COORDINATE_TYPE>  (1) 
2
5
10

$$$$
