22530
     RDKit          3D

 21 24  0  0  1  0  0  0  0  0999 V2000
    0.0694    0.2433    0.8760 N   0  0  0  0  0  0  0  0  0  0  0  0
   -2.9182   -2.1608   -0.5918 N   0  0  0  0  0  0  0  0  0  0  0  0
   -0.9144   -0.6531    0.5819 C   0  0  0  0  0  0  0  0  0  0  0  0
   -1.9374    0.0028   -0.0661 C   0  0  0  0  0  0  0  0  0  0  0  0
   -0.8874   -2.1068    0.8733 C   0  0  0  0  0  0  0  0  0  0  0  0
   -3.1772   -0.7023   -0.5053 C   0  0  0  0  0  0  0  0  0  0  0  0
   -2.2996   -2.6920    0.6454 C   0  0  0  0  0  0  0  0  0  0  0  0
   -1.5632    1.3723   -0.1651 C   0  0  0  0  0  0  0  0  0  0  0  0
   -0.3021    1.4951    0.4313 C   0  0  0  0  0  0  0  0  0  0  0  0
    1.3096   -0.0655    1.5557 C   0  0  0  0  0  0  0  0  0  0  0  0
   -2.1728    2.5246   -0.7009 C   0  0  0  0  0  0  0  0  0  0  0  0
    0.3768    2.7163    0.5126 C   0  0  0  0  0  0  0  0  0  0  0  0
   -4.1612   -2.8724   -0.8898 C   0  0  0  0  0  0  0  0  0  0  0  0
    2.3923   -0.4392    0.5798 C   0  0  0  0  0  0  0  0  0  0  0  0
   -1.5039    3.7514   -0.6250 C   0  0  0  0  0  0  0  0  0  0  0  0
   -0.2486    3.8434   -0.0276 C   0  0  0  0  0  0  0  0  0  0  0  0
    3.2153    0.5502    0.0592 C   0  0  0  0  0  0  0  0  0  0  0  0
    2.5543   -1.7684    0.2134 C   0  0  0  0  0  0  0  0  0  0  0  0
    4.2192    0.2040   -0.8453 C   0  0  0  0  0  0  0  0  0  0  0  0
    3.5583   -2.1146   -0.6911 C   0  0  0  0  0  0  0  0  0  0  0  0
    4.3907   -1.1284   -1.2203 C   0  0  0  0  0  0  0  0  0  0  0  0
  1  3  1  0
  1  9  1  0
  1 10  1  0
  2  6  1  0
  2  7  1  0
  2 13  1  0
  3  4  2  0
  3  5  1  0
  4  6  1  0
  4  8  1  0
  5  7  1  0
  8  9  2  0
  8 11  1  0
  9 12  1  0
 10 14  1  0
 11 15  2  0
 12 16  2  0
 14 17  2  0
 14 18  1  0
 15 16  1  0
 17 19  1  0
 18 20  2  0
 19 21  2  0
 20 21  1  0
M  END
>  <PUBCHEM_COMPOUND_CID>  (1) 
22530

>  <PUBCHEM_CONFORMER_RMSD>  (1) 
0.6

>  <PUBCHEM_CONFORMER_DIVERSEORDER>  (1) 
1
10
7
6
9
5
3
4
8
2

>  <PUBCHEM_MMFF94_PARTIAL_CHARGES>  (1) 
29
1 0.05
10 0.4
11 -0.15
12 -0.15
13 0.27
14 -0.14
15 -0.15
16 -0.15
17 -0.15
18 -0.15
19 -0.15
2 -0.81
20 -0.15
21 -0.15
3 -0.33
30 0.15
31 0.15
35 0.15
36 0.15
37 0.15
38 0.15
39 0.15
4 -0.18
40 0.15
41 0.15
5 0.18
6 0.45
7 0.27
9 -0.15

>  <PUBCHEM_EFFECTIVE_ROTOR_COUNT>  (1) 
2.8

>  <PUBCHEM_PHARMACOPHORE_FEATURES>  (1) 
6
1 1 cation
1 2 cation
5 1 3 4 8 9 rings
6 14 17 18 19 20 21 rings
6 2 3 4 5 6 7 rings
6 8 9 11 12 15 16 rings

>  <PUBCHEM_HEAVY_ATOM_COUNT>  (1) 
21

>  <PUBCHEM_ATOM_DEF_STEREO_COUNT>  (1) 
0

>  <PUBCHEM_ATOM_UDEF_STEREO_COUNT>  (1) 
0

>  <PUBCHEM_BOND_DEF_STEREO_COUNT>  (1) 
0

>  <PUBCHEM_BOND_UDEF_STEREO_COUNT>  (1) 
0

>  <PUBCHEM_ISOTOPIC_ATOM_COUNT>  (1) 
0

>  <PUBCHEM_COMPONENT_COUNT>  (1) 
1

>  <PUBCHEM_CACTVS_TAUTO_COUNT>  (1) 
1

>  <PUBCHEM_CONFORMER_ID>  (1) 
0000580200000001

>  <PUBCHEM_MMFF94_ENERGY>  (1) 
51.8563

>  <PUBCHEM_FEATURE_SELFOVERLAP>  (1) 
30.628

>  <PUBCHEM_SHAPE_FINGERPRINT>  (1) 
10498660 4 18335415768465866718
10764073 3 16827338620595586131
11578080 2 17560507495275535481
11582403 64 15610094642387243048
11640471 11 17459763510173071156
116883 192 18339350972384866093
12173636 292 18048029679874178252
12553582 1 18336262435474513403
12788726 201 18334856069770890707
13681431 1 18051132789418513113
13690498 29 18126030212060589174
138480 1 15672385020973803677
14022347 108 18261380187722723483
14790565 3 18122910833011149057
14955137 171 18263666064139095059
15210252 30 17968370246950892501
15463212 79 17970351404249242738
15475509 8 18342179960464587303
15664445 248 18193266610270135144
16752209 62 18192138300854906465
17134986 127 17541379033963092524
17357779 13 18270671082130623831
17492 54 17757280645122471364
1813 80 18340492286892742131
19591789 44 18122904231709023737
20645476 183 17902230005529365720
20645477 70 17761197118425576047
20775438 99 17837445861498776677
20871999 31 18410009909995726277
21285901 2 18273216361581550223
21524375 3 17466512204890739536
22182313 1 18122600981121437149
22393880 68 18267878181722170790
22907989 373 18339080389107771124
23352939 185 18270411618813611729
23557571 272 18341879776293811416
23559900 14 17912072864630805082
23566358 2 18119229891281894125
26353 1 18188202234006177069
2748010 2 17686331375515413609
298252 57 17612601025144542680
314173 41 18192992849166042315
352729 6 17689421703527641673
4280585 95 18195235848871033562
458136 41 17261034316752012633
46194498 28 17617064321121262935
532947 4 17690847082692904292
57262259 84 18341900662255404895
6913067 236 18057306487622323770
7164475 11 18336541621471246186
7364860 26 17761487393578863921
81228 2 18410289220351339121
84936 182 8140717589065132463
84936 31 17553197014250470969
9709674 26 18270402668639947334

>  <PUBCHEM_SHAPE_MULTIPOLES>  (1) 
422.21
6.86
4.53
1.11
5.31
3
0.07
-5.35
-3.15
-4.27
-0.64
0.32
-0.24
0.29

>  <PUBCHEM_SHAPE_SELFOVERLAP>  (1) 
932.303

>  <PUBCHEM_SHAPE_VOLUME>  (1) 
227.1

>  <PUBCHEM_COORDINATE_TYPE>  (1) 
2
5
10

$$$$
