22548
     RDKit          3D

 16 16  0  0  1  0  0  0  0  0999 V2000
    2.3629   -1.6599   -0.7163 O   0  0  0  0  0  0  0  0  0  0  0  0
    0.1406    1.9410   -0.1988 O   0  0  0  0  0  0  0  0  0  0  0  0
   -3.7595   -0.7638    0.2350 O   0  0  0  0  0  0  0  0  0  0  0  0
    1.8206   -0.3495   -0.5002 C   0  0  0  0  0  0  0  0  0  0  0  0
    2.5194    0.2792    0.7537 C   0  0  0  0  0  0  0  0  0  0  0  0
    0.3016   -0.4477   -0.3000 C   0  0  0  0  0  0  0  0  0  0  0  0
    2.0951    0.4516   -1.7879 C   0  0  0  0  0  0  0  0  0  0  0  0
    4.0397    0.4349    0.5947 C   0  0  0  0  0  0  0  0  0  0  0  0
    2.2555   -0.5341    2.0324 C   0  0  0  0  0  0  0  0  0  0  0  0
   -0.4326    0.7055   -0.1639 C   0  0  0  0  0  0  0  0  0  0  0  0
   -0.2593   -1.7023   -0.2660 C   0  0  0  0  0  0  0  0  0  0  0  0
   -1.8116    0.5985    0.0175 C   0  0  0  0  0  0  0  0  0  0  0  0
   -1.6380   -1.8092   -0.0846 C   0  0  0  0  0  0  0  0  0  0  0  0
   -2.4142   -0.6589    0.0572 C   0  0  0  0  0  0  0  0  0  0  0  0
   -0.7272    3.0624   -0.0459 C   0  0  0  0  0  0  0  0  0  0  0  0
   -4.4930    0.4522    0.3731 C   0  0  0  0  0  0  0  0  0  0  0  0
  1  4  1  0
  2 10  1  0
  2 15  1  0
  3 14  1  0
  3 16  1  0
  4  5  1  0
  4  6  1  0
  4  7  1  0
  5  8  1  0
  5  9  1  0
  6 10  2  0
  6 11  1  0
 10 12  1  0
 11 13  2  0
 12 14  2  0
 13 14  1  0
M  END
>  <PUBCHEM_COMPOUND_CID>  (1) 
22548

>  <PUBCHEM_CONFORMER_RMSD>  (1) 
0.6

>  <PUBCHEM_CONFORMER_DIVERSEORDER>  (1) 
1
17
5
8
4
7
11
12
16
20
3
19
13
21
15
14
18
6
9
2
10

>  <PUBCHEM_MMFF94_PARTIAL_CHARGES>  (1) 
16
1 -0.68
10 0.08
11 -0.15
12 -0.15
13 -0.15
14 0.08
15 0.28
16 0.28
2 -0.36
27 0.15
28 0.4
29 0.15
3 -0.36
30 0.15
4 0.42
6 -0.14

>  <PUBCHEM_EFFECTIVE_ROTOR_COUNT>  (1) 
4

>  <PUBCHEM_PHARMACOPHORE_FEATURES>  (1) 
6
1 1 acceptor
1 1 donor
1 2 acceptor
1 3 acceptor
3 5 8 9 hydrophobe
6 6 10 11 12 13 14 rings

>  <PUBCHEM_HEAVY_ATOM_COUNT>  (1) 
16

>  <PUBCHEM_ATOM_DEF_STEREO_COUNT>  (1) 
0

>  <PUBCHEM_ATOM_UDEF_STEREO_COUNT>  (1) 
1

>  <PUBCHEM_BOND_DEF_STEREO_COUNT>  (1) 
0

>  <PUBCHEM_BOND_UDEF_STEREO_COUNT>  (1) 
0

>  <PUBCHEM_ISOTOPIC_ATOM_COUNT>  (1) 
0

>  <PUBCHEM_COMPONENT_COUNT>  (1) 
1

>  <PUBCHEM_CACTVS_TAUTO_COUNT>  (1) 
1

>  <PUBCHEM_CONFORMER_ID>  (1) 
0000581400000001

>  <PUBCHEM_MMFF94_ENERGY>  (1) 
72.9153

>  <PUBCHEM_FEATURE_SELFOVERLAP>  (1) 
30.446

>  <PUBCHEM_SHAPE_FINGERPRINT>  (1) 
10130415 120 18186802504259154075
11031198 65 15985108543722038840
11132069 177 18411140221245477343
11680611 10 17751918017348796416
12119455 92 17132109143605718982
12236239 1 17821450183817900910
12382932 28 18411698824217410467
12423570 1 9852448389476942188
13140716 1 18194965364361978321
13172582 1 18410009974568025999
13538477 17 17968101983388795662
14022347 108 18261973863624214451
14115302 16 17240769518292167554
14142880 1 15764658751385962480
14178342 30 18200586033517848847
15076042 46 18118664561852942938
15219456 202 18059572447658282014
15375462 189 17895464916605186826
15848700 24 18342451548004517941
16945 1 18340214093191677631
18175812 5 17632008766800176554
18186145 218 17561095682915541131
193761 8 17545608855474617743
19765921 60 17244728967191036900
19784866 170 18341894129947679832
20233049 118 18333171678313676293
20388701 513 18338227185201253312
20510252 161 18341611456285184337
20600515 1 18341614857983659020
22344851 262 18059287794063121423
22892500 29 16774075185011295618
2334 1 17763186134801434615
23402539 116 18272077318678830758
23419403 2 16547990439038772623
23557571 272 18271533009337356012
23559900 14 18342469127553645622
2748010 2 18195533584472237599
3286 77 17131556024626885174
34934 24 18409727408463809503
350125 39 18052266089416765472
394222 165 17387709425028861908
4072396 5 18262785273610065259
474 4 13829264226711647018
53812653 166 18202001044678570579
53812654 25 18336827584271517271
7364860 26 17981328112002143025
77492 1 17749108915542746814
81228 2 18265629692515880569
8272917 22 14620251723058932701
90316 7 18264464291731409456

>  <PUBCHEM_SHAPE_MULTIPOLES>  (1) 
311.66
6.04
2.13
1.21
2.67
1.29
-0.14
-0.28
-1.46
0.68
0.19
-1.24
-0.09
-0.07

>  <PUBCHEM_SHAPE_SELFOVERLAP>  (1) 
638.447

>  <PUBCHEM_SHAPE_VOLUME>  (1) 
182.5

>  <PUBCHEM_COORDINATE_TYPE>  (1) 
2
5
10

$$$$
