22559
     RDKit          3D

 27 29  0  0  0  0  0  0  0  0999 V2000
   -4.3337    0.3466    0.0463 O   0  0  0  0  0  0  0  0  0  0  0  0
    3.1991   -1.4971   -0.0354 O   0  0  0  0  0  0  0  0  0  0  0  0
    2.1831    0.5838    0.0235 O   0  0  0  0  0  0  0  0  0  0  0  0
    8.6519    1.3905    1.1132 O   0  0  0  0  0  0  0  0  0  0  0  0
    8.6416    1.4462   -1.0814 O   0  0  0  0  0  0  0  0  0  0  0  0
    0.9300   -1.3987   -0.0223 N   0  0  0  0  0  0  0  0  0  0  0  0
    8.1107    1.1314    0.0112 N   0  0  0  0  0  0  0  0  0  0  0  0
   -5.3417   -0.6566    0.0268 C   0  0  0  0  0  0  0  0  0  0  0  0
   -6.6850   -0.0087    0.0065 C   0  0  0  0  0  0  0  0  0  0  0  0
   -3.0333   -0.0847    0.0281 C   0  0  0  0  0  0  0  0  0  0  0  0
   -0.3943   -0.9601   -0.0045 C   0  0  0  0  0  0  0  0  0  0  0  0
   -2.7605   -1.4476   -0.0077 C   0  0  0  0  0  0  0  0  0  0  0  0
   -1.9996    0.8449    0.0477 C   0  0  0  0  0  0  0  0  0  0  0  0
   -1.4366   -1.8866   -0.0239 C   0  0  0  0  0  0  0  0  0  0  0  0
   -0.6757    0.4057    0.0313 C   0  0  0  0  0  0  0  0  0  0  0  0
   -7.3327    0.2911    1.2052 C   0  0  0  0  0  0  0  0  0  0  0  0
   -7.2934    0.2979   -1.2107 C   0  0  0  0  0  0  0  0  0  0  0  0
   -8.5889    0.8971    1.1864 C   0  0  0  0  0  0  0  0  0  0  0  0
   -8.5495    0.9041   -1.2292 C   0  0  0  0  0  0  0  0  0  0  0  0
    4.4324   -0.8371   -0.0240 C   0  0  0  0  0  0  0  0  0  0  0  0
   -9.1972    1.2037   -0.0307 C   0  0  0  0  0  0  0  0  0  0  0  0
    6.8592    0.4608    0.0001 C   0  0  0  0  0  0  0  0  0  0  0  0
    2.0974   -0.6385   -0.0078 C   0  0  0  0  0  0  0  0  0  0  0  0
    5.0194   -0.5577    1.1893 C   0  0  0  0  0  0  0  0  0  0  0  0
    5.0091   -0.4942   -1.2258 C   0  0  0  0  0  0  0  0  0  0  0  0
    6.2492    0.1002    1.2015 C   0  0  0  0  0  0  0  0  0  0  0  0
    6.2391    0.1636   -1.2137 C   0  0  0  0  0  0  0  0  0  0  0  0
  1  8  1  0
  1 10  1  0
  2 20  1  0
  2 23  1  0
  3 23  2  0
  4  7  1  0
  5  7  2  0
  6 11  1  0
  6 23  1  0
  7 22  1  0
  8  9  1  0
  9 16  2  0
  9 17  1  0
 10 12  2  0
 10 13  1  0
 11 14  2  0
 11 15  1  0
 12 14  1  0
 13 15  2  0
 16 18  1  0
 17 19  2  0
 18 21  2  0
 19 21  1  0
 20 24  2  0
 20 25  1  0
 22 26  2  0
 22 27  1  0
 24 26  1  0
 25 27  2  0
M  CHG  2   4  -1   7   1
M  END
>  <PUBCHEM_COMPOUND_CID>  (1) 
22559

>  <PUBCHEM_CONFORMER_RMSD>  (1) 
1

>  <PUBCHEM_CONFORMER_DIVERSEORDER>  (1) 
1
48
41
44
21
39
8
22
11
34
13
37
17
35
32
46
3
2
15
47
31
20
27
18
23
4
33
43
6
29
9
14
36
10
12
26
42
28
25
40
19
38
30
16
7
5
24
45

>  <PUBCHEM_MMFF94_PARTIAL_CHARGES>  (1) 
41
1 -0.36
10 0.08
11 0.12
12 -0.15
13 -0.15
14 -0.15
15 -0.15
16 -0.15
17 -0.15
18 -0.15
19 -0.15
2 -0.23
20 0.08
21 -0.15
22 0.13
23 0.78
24 -0.15
25 -0.15
26 -0.15
27 -0.15
3 -0.57
30 0.15
31 0.15
32 0.15
33 0.15
34 0.15
35 0.15
36 0.37
37 0.15
38 0.15
39 0.15
4 -0.52
40 0.15
41 0.15
42 0.15
43 0.15
5 -0.52
6 -0.55
7 0.91
8 0.42
9 -0.14

>  <PUBCHEM_EFFECTIVE_ROTOR_COUNT>  (1) 
8

>  <PUBCHEM_PHARMACOPHORE_FEATURES>  (1) 
9
1 1 acceptor
1 3 acceptor
1 4 acceptor
1 4 anion
1 5 acceptor
1 6 donor
6 10 11 12 13 14 15 rings
6 20 22 24 25 26 27 rings
6 9 16 17 18 19 21 rings

>  <PUBCHEM_HEAVY_ATOM_COUNT>  (1) 
27

>  <PUBCHEM_ATOM_DEF_STEREO_COUNT>  (1) 
0

>  <PUBCHEM_ATOM_UDEF_STEREO_COUNT>  (1) 
0

>  <PUBCHEM_BOND_DEF_STEREO_COUNT>  (1) 
0

>  <PUBCHEM_BOND_UDEF_STEREO_COUNT>  (1) 
0

>  <PUBCHEM_ISOTOPIC_ATOM_COUNT>  (1) 
0

>  <PUBCHEM_COMPONENT_COUNT>  (1) 
1

>  <PUBCHEM_CACTVS_TAUTO_COUNT>  (1) 
2

>  <PUBCHEM_CONFORMER_ID>  (1) 
0000581F00000001

>  <PUBCHEM_MMFF94_ENERGY>  (1) 
94.4595

>  <PUBCHEM_FEATURE_SELFOVERLAP>  (1) 
45.754

>  <PUBCHEM_SHAPE_FINGERPRINT>  (1) 
10 15 18040152915858432227
10299344 5 13470688148585933983
106641 1 16660648470273288683
11135609 127 16486682685109607552
11135926 11 11819272287472536025
11181472 205 16127828348616240539
11315181 36 17918556826675904603
11386260 185 15482665814773258666
11409948 35 18335985248147145798
11456790 92 15936405646015753308
11638347 137 13984377773680837152
12089408 11 18114178666313134658
12522641 33 17275107206704356511
12592606 108 11600007647884147238
12664476 115 17704067400811469832
12838862 33 18337659880145517797
13553643 46 18113333111258744973
14150022 121 15213293098294173127
14216079 64 8718833085299567584
14251764 18 18202562861229994393
14251764 46 18410856559650345597
14344974 52 17131544050880224896
14428016 248 18342462538910594641
14617042 71 18041566957465653100
150020 25 15769772476834889519
15152005 1 12964081471116351108
15183329 4 18341895173909595197
15247644 1 10735880569180035148
15461852 350 15697994155225550109
155225 1 18411982463852532329
15690457 1 8070027752994996400
1577012 14 18335414681850196895
15840311 113 17894634777812655820
15849732 13 15267337423346217177
15980000 95 18060139830304018217
17093844 174 17240485793939218105
1754908 1 14779270821493930693
1754911 235 17346880056789058349
1818759 1 9727635024789385677
195137 175 17847065471982458889
19841028 212 15502926420938483656
21095086 128 12967128315586117709
21095123 145 18272372014762792695
21150785 3 16343985810043465942
21315763 28 9007055764659219519
21792965 169 13110688310767675114
22224240 67 14273740651014259969
232437 2 11602536516718748584
23576562 1 16772653577281492745
246663 6 9727633912424329071
24771293 8 18343587317962809081
249057 3 15626215845124239733
335352 9 18343016710293228109
3711267 37 18411149034292457449
5470011 282 13758069727868533568
5758199 1 18343585114776370843
59521099 67 12319448906019896906
59682541 35 18113343024854484371
636775 72 17968372327013601541
636775 8 13326567493623456589
67123 10 17917710210832351687
68570916 9 15575578975505958251
9953998 17 16515406283570311971

>  <PUBCHEM_SHAPE_MULTIPOLES>  (1) 
516.34
33.03
1.4
1.13
6.68
0.24
-0.01
-17.36
0.02
-0.63
-0.01
-0.11
-0.2
0.01

>  <PUBCHEM_SHAPE_SELFOVERLAP>  (1) 
1120.666

>  <PUBCHEM_SHAPE_VOLUME>  (1) 
279.5

>  <PUBCHEM_COORDINATE_TYPE>  (1) 
2
5
10

$$$$
