22558
     RDKit          3D

 23 25  0  0  0  0  0  0  0  0999 V2000
    0.9478    1.2830   -0.4710 N   0  0  0  0  0  0  0  0  0  0  0  0
    1.2540   -1.0303   -0.5307 N   0  0  0  0  0  0  0  0  0  0  0  0
   -0.9221   -0.2066   -0.3222 N   0  0  0  0  0  0  0  0  0  0  0  0
    2.3603    1.5894   -0.5962 C   0  0  0  0  0  0  0  0  0  0  0  0
    0.8767   -2.4310   -0.5176 C   0  0  0  0  0  0  0  0  0  0  0  0
    2.5472    2.9080   -1.3536 C   0  0  0  0  0  0  0  0  0  0  0  0
    3.0126    1.6393    0.7891 C   0  0  0  0  0  0  0  0  0  0  0  0
    1.8499   -3.2458   -1.3757 C   0  0  0  0  0  0  0  0  0  0  0  0
    0.8278   -2.9493    0.9232 C   0  0  0  0  0  0  0  0  0  0  0  0
    2.1215    4.1265   -0.5344 C   0  0  0  0  0  0  0  0  0  0  0  0
    2.5852    2.8624    1.6007 C   0  0  0  0  0  0  0  0  0  0  0  0
    3.2334   -3.3766   -0.7387 C   0  0  0  0  0  0  0  0  0  0  0  0
    2.2151   -3.0812    1.5519 C   0  0  0  0  0  0  0  0  0  0  0  0
    2.8084    4.1580    0.8273 C   0  0  0  0  0  0  0  0  0  0  0  0
    3.1496   -3.9186    0.6846 C   0  0  0  0  0  0  0  0  0  0  0  0
    0.3578    0.0230   -0.4347 C   0  0  0  0  0  0  0  0  0  0  0  0
   -1.8190    0.9362   -0.2251 C   0  0  0  0  0  0  0  0  0  0  0  0
   -3.2495    0.5110   -0.0452 C   0  0  0  0  0  0  0  0  0  0  0  0
   -4.0489    0.3031   -1.1621 C   0  0  0  0  0  0  0  0  0  0  0  0
   -3.7555    0.3305    1.2359 C   0  0  0  0  0  0  0  0  0  0  0  0
   -5.3762   -0.0916   -0.9952 C   0  0  0  0  0  0  0  0  0  0  0  0
   -5.0828   -0.0643    1.4027 C   0  0  0  0  0  0  0  0  0  0  0  0
   -5.8932   -0.2754    0.2870 C   0  0  0  0  0  0  0  0  0  0  0  0
  1  4  1  0
  1 16  1  0
  2  5  1  0
  2 16  1  0
  3 16  2  3
  3 17  1  0
  4  6  1  0
  4  7  1  0
  5  8  1  0
  5  9  1  0
  6 10  1  0
  7 11  1  0
  8 12  1  0
  9 13  1  0
 10 14  1  0
 11 14  1  0
 12 15  1  0
 13 15  1  0
 17 18  1  0
 18 19  2  0
 18 20  1  0
 19 21  1  0
 20 22  2  0
 21 23  2  0
 22 23  1  0
M  END
>  <PUBCHEM_COMPOUND_CID>  (1) 
22558

>  <PUBCHEM_CONFORMER_RMSD>  (1) 
0.8

>  <PUBCHEM_CONFORMER_DIVERSEORDER>  (1) 
1
167
164
123
160
185
110
93
64
114
200
198
84
221
191
74
60
146
218
216
171
143
169
91
157
77
51
127
106
190
186
118
32
108
147
14
165
211
225
189
57
90
194
121
132
183
100
212
193
65
209
54
115
40
112
138
176
217
181
159
67
27
117
104
180
213
135
145
131
134
9
226
161
163
78
97
141
96
195
196
207
170
92
42
83
58
130
203
113
68
23
220
219
103
201
122
137
139
31
49
175
142
197
173
35
210
174
61
62
152
16
144
66
215
28
116
177
43
158
107
224
109
18
101
182
39
80
94
95
10
75
81
124
166
34
12
192
223
187
63
47
133
149
26
205
8
52
70
30
20
4
69
11
227
128
73
148
87
85
129
168
155
178
140
36
72
222
88
172
99
214
162
53
2
154
199
22
59
44
6
150
208
136
21
202
125
50
188
15
98
19
71
105
82
119
86
151
179
111
79
156
89
206
29
55
5
45
37
126
46
38
56
33
25
41
17
48
153
204
76
7
184
3
120
102
24
13

>  <PUBCHEM_MMFF94_PARTIAL_CHARGES>  (1) 
20
1 -0.82
16 0.55
17 0.39
18 -0.14
19 -0.15
2 -0.82
20 -0.15
21 -0.15
22 -0.15
23 -0.15
3 -0.7
4 0.37
46 0.4
47 0.4
5 0.37
50 0.15
51 0.15
52 0.15
53 0.15
54 0.15

>  <PUBCHEM_EFFECTIVE_ROTOR_COUNT>  (1) 
8.4

>  <PUBCHEM_PHARMACOPHORE_FEATURES>  (1) 
6
1 1 donor
1 2 donor
4 1 2 3 16 cation
6 18 19 20 21 22 23 rings
6 4 6 7 10 11 14 rings
6 5 8 9 12 13 15 rings

>  <PUBCHEM_HEAVY_ATOM_COUNT>  (1) 
23

>  <PUBCHEM_ATOM_DEF_STEREO_COUNT>  (1) 
0

>  <PUBCHEM_ATOM_UDEF_STEREO_COUNT>  (1) 
0

>  <PUBCHEM_BOND_DEF_STEREO_COUNT>  (1) 
0

>  <PUBCHEM_BOND_UDEF_STEREO_COUNT>  (1) 
0

>  <PUBCHEM_ISOTOPIC_ATOM_COUNT>  (1) 
0

>  <PUBCHEM_COMPONENT_COUNT>  (1) 
1

>  <PUBCHEM_CACTVS_TAUTO_COUNT>  (1) 
2

>  <PUBCHEM_CONFORMER_ID>  (1) 
0000581E00000001

>  <PUBCHEM_MMFF94_ENERGY>  (1) 
37.0297

>  <PUBCHEM_FEATURE_SELFOVERLAP>  (1) 
30.491

>  <PUBCHEM_SHAPE_FINGERPRINT>  (1) 
10074138 170 17402591434958924232
10090160 65 18268706285296607413
11070050 100 18125459719785256785
12160290 23 17546455934251277804
12549972 3 17749964245843639449
12553582 1 17976268937080827343
12707595 3 18190465948339144327
12788726 201 17109872349799334059
13140716 1 18266458891839312376
13533116 47 18410863149106026603
13955234 65 18410578400710154171
14251757 5 17329151269309838900
14955137 171 18271250413369179310
1813 80 18055073164151765039
18785283 64 18408885157050964314
204376 136 18194683889733654501
20693207 138 17749676190992757879
21049683 118 17839155747808124072
21049683 271 18263095357247832038
21120745 212 17764042268044550166
2132832 1 18058160623447443569
21344244 78 17987791896253976681
21796203 349 18050884072274200019
23557571 272 17116618957922837358
23558518 356 17834666472576920126
23559900 14 17895195463880182493
249999 5 18410574015416682427
283562 15 17620468447511681799
3178227 256 18336557091911486328
474 4 18269837673950004357
633830 44 17916034627715284309
6442390 28 17978803624482459753
6673363 416 18052268298413208158
67856867 119 18342451539620148947
81228 2 16970546613015245892
9841814 1 18263362495212810179

>  <PUBCHEM_SHAPE_MULTIPOLES>  (1) 
458.39
9.89
6.04
1.48
20.27
0.06
0.24
-0.55
1.04
-12.55
0.52
-0.13
0.06
0.24

>  <PUBCHEM_SHAPE_SELFOVERLAP>  (1) 
939.397

>  <PUBCHEM_SHAPE_VOLUME>  (1) 
260.1

>  <PUBCHEM_COORDINATE_TYPE>  (1) 
2
5
10

$$$$
