22551
     RDKit          3D

 25 27  0  0  1  0  0  0  0  0999 V2000
    1.9001    0.1558    2.2399 O   0  0  0  0  0  0  0  0  0  0  0  0
   -0.7617    0.9622   -0.6149 O   0  0  0  0  0  0  0  0  0  0  0  0
    0.0865   -1.7603    0.6456 N   0  0  0  0  0  0  0  0  0  0  0  0
    1.4145   -2.3361    0.9544 C   0  0  0  0  0  0  0  0  0  0  0  0
   -0.2352   -1.8273   -0.7980 C   0  0  0  0  0  0  0  0  0  0  0  0
    1.6057   -3.7532    0.3854 C   0  0  0  0  0  0  0  0  0  0  0  0
   -0.1063   -3.2451   -1.3811 C   0  0  0  0  0  0  0  0  0  0  0  0
    1.2676   -3.8425   -1.0985 C   0  0  0  0  0  0  0  0  0  0  0  0
    2.5351   -1.3888    0.5019 C   0  0  0  0  0  0  0  0  0  0  0  0
   -1.6066   -1.2326   -1.1427 C   0  0  0  0  0  0  0  0  0  0  0  0
   -0.9473   -2.3346    1.5105 C   0  0  0  0  0  0  0  0  0  0  0  0
    2.3978   -0.0176    1.1297 C   0  0  0  0  0  0  0  0  0  0  0  0
   -1.7265    0.2038   -0.6795 C   0  0  0  0  0  0  0  0  0  0  0  0
    2.8896    1.1620    0.3584 C   0  0  0  0  0  0  0  0  0  0  0  0
   -3.0765    0.7059   -0.2875 C   0  0  0  0  0  0  0  0  0  0  0  0
    3.9433    0.9891   -0.5094 C   0  0  0  0  0  0  0  0  0  0  0  0
   -4.1839    0.1654   -0.9000 C   0  0  0  0  0  0  0  0  0  0  0  0
    2.2697    2.3763    0.5450 C   0  0  0  0  0  0  0  0  0  0  0  0
   -3.1610    1.6893    0.6714 C   0  0  0  0  0  0  0  0  0  0  0  0
    4.4028    2.0912   -1.2303 C   0  0  0  0  0  0  0  0  0  0  0  0
   -5.4454    0.6343   -0.5335 C   0  0  0  0  0  0  0  0  0  0  0  0
    2.7292    3.4785   -0.1761 C   0  0  0  0  0  0  0  0  0  0  0  0
   -4.4226    2.1581    1.0378 C   0  0  0  0  0  0  0  0  0  0  0  0
    3.7958    3.3358   -1.0637 C   0  0  0  0  0  0  0  0  0  0  0  0
   -5.5648    1.6305    0.4352 C   0  0  0  0  0  0  0  0  0  0  0  0
  1 12  2  0
  2 13  2  0
  3  4  1  0
  3  5  1  0
  3 11  1  0
  4  6  1  0
  4  9  1  0
  5  7  1  0
  5 10  1  0
  6  8  1  0
  7  8  1  0
  9 12  1  0
 10 13  1  0
 12 14  1  0
 13 15  1  0
 14 16  2  0
 14 18  1  0
 15 17  2  0
 15 19  1  0
 16 20  1  0
 17 21  1  0
 18 22  2  0
 19 23  2  0
 20 24  2  0
 21 25  2  0
 22 24  1  0
 23 25  1  0
M  END
>  <PUBCHEM_COMPOUND_CID>  (1) 
22551

>  <PUBCHEM_CONFORMER_RMSD>  (1) 
1

>  <PUBCHEM_CONFORMER_DIVERSEORDER>  (1) 
1
298
432
44
69
165
15
118
435
297
547
91
247
38
500
391
109
363
7
334
78
370
677
37
369
540
408
47
503
415
105
194
541
26
14
510
254
523
98
131
239
711
572
208
580
560
12
269
10
528
108
219
200
339
525
192
205
117
317
646
289
31
51
518
418
573
188
421
85
3
712
156
444
198
330
350
175
273
57
380
68
86
11
53
490
88
699
145
183
314
379
179
25
128
107
656
112
477
207
48
689
163
446
343
18
242
40
2
365
509
605
34
691
325
80
248
21
127
50
182
367
217
5
29
561
9
417
607
60
79
571
641
250
506
133
218
407
201
718
302
431
410
249
8
76
90
504
329
726
263
84
168
110
177
82
186
602
146
450
19
375
482
670
28
268
4
424
39
322
224
72
170
176
722
6
77
366
593
33
430
17
724

>  <PUBCHEM_MMFF94_PARTIAL_CHARGES>  (1) 
32
1 -0.57
10 0.06
11 0.27
12 0.42
13 0.42
14 0.09
15 0.09
16 -0.15
17 -0.15
18 -0.15
19 -0.15
2 -0.57
20 -0.15
21 -0.15
22 -0.15
23 -0.15
24 -0.15
25 -0.15
3 -0.81
4 0.27
41 0.15
42 0.15
43 0.15
44 0.15
45 0.15
46 0.15
47 0.15
48 0.15
49 0.15
5 0.27
50 0.15
9 0.06

>  <PUBCHEM_EFFECTIVE_ROTOR_COUNT>  (1) 
7.2

>  <PUBCHEM_PHARMACOPHORE_FEATURES>  (1) 
6
1 1 acceptor
1 2 acceptor
1 3 cation
6 14 16 18 20 22 24 rings
6 15 17 19 21 23 25 rings
6 3 4 5 6 7 8 rings

>  <PUBCHEM_HEAVY_ATOM_COUNT>  (1) 
25

>  <PUBCHEM_ATOM_DEF_STEREO_COUNT>  (1) 
0

>  <PUBCHEM_ATOM_UDEF_STEREO_COUNT>  (1) 
2

>  <PUBCHEM_BOND_DEF_STEREO_COUNT>  (1) 
0

>  <PUBCHEM_BOND_UDEF_STEREO_COUNT>  (1) 
0

>  <PUBCHEM_ISOTOPIC_ATOM_COUNT>  (1) 
0

>  <PUBCHEM_COMPONENT_COUNT>  (1) 
1

>  <PUBCHEM_CACTVS_TAUTO_COUNT>  (1) 
3

>  <PUBCHEM_CONFORMER_ID>  (1) 
0000581700000001

>  <PUBCHEM_MMFF94_ENERGY>  (1) 
64.458

>  <PUBCHEM_FEATURE_SELFOVERLAP>  (1) 
30.447

>  <PUBCHEM_SHAPE_FINGERPRINT>  (1) 
10483366 6 18268166279569775766
10688039 33 17474671646310566842
10937287 8 18265613371692779788
11200772 48 18195830642223678148
12156800 1 16955392439323491790
12160290 23 17758933197607227635
12422481 6 17621001324151511610
12617007 42 17842846516670062710
12633257 1 17968928700173989707
12788726 201 17691109852897130334
13135754 10 17171821467712559146
13583140 156 17534322459020995463
13590594 115 17761781662978546658
14251764 75 18264218069836318653
14790565 3 18338519758706195237
14955137 171 18263637382289905338
15163728 17 18340781428069467967
151778 21 18410291393510033157
1813 80 17695348075212004503
18785283 64 18337674100803801530
20465049 17 18339093626602944556
20567600 9 18271251512574585541
20739085 24 18053374410175855954
21365058 113 17837790931903323071
21860390 5 18268146444377067958
23366157 5 18266460902126846991
23419403 2 17686952350509068274
23558518 356 17250333272700876980
23559900 14 17699841831459647551
238 59 18412550881372940890
23845131 108 18114461253475495843
2637199 183 18410580599728504932
3411729 13 18337114467097642397
397830 11 18189074019033779057
469060 322 15215532987677975726
474 4 18410006624614782977
5048184 11 18337669840206832476
5252454 2 18115298024847947692
5312544 6 18411692210442391925
6034566 193 17679309825620652733
6287921 2 18199180703217530975
6438754 60 12607139369609898349

>  <PUBCHEM_SHAPE_MULTIPOLES>  (1) 
497.77
9.51
5.02
1.47
10.45
2.53
0.27
-10.6
-0.89
-4.6
-0.8
-0.36
0.42
-1.57

>  <PUBCHEM_SHAPE_SELFOVERLAP>  (1) 
1058.513

>  <PUBCHEM_SHAPE_VOLUME>  (1) 
276.4

>  <PUBCHEM_COORDINATE_TYPE>  (1) 
2
5
10

$$$$
