22562
     RDKit          3D

 22 26  0  0  1  0  0  0  0  0999 V2000
    1.5808    0.9604    1.2757 O   0  0  0  0  0  0  0  0  0  0  0  0
    1.7357    2.9386   -0.6046 O   0  0  0  0  0  0  0  0  0  0  0  0
    3.8497   -0.8008    0.7634 O   0  0  0  0  0  0  0  0  0  0  0  0
   -3.4679   -0.8818    0.4493 N   0  0  0  0  0  0  0  0  0  0  0  0
   -0.7108    0.5142    0.6670 C   0  0  0  0  0  0  0  0  0  0  0  0
   -1.7203    0.6404   -0.4545 C   0  0  0  0  0  0  0  0  0  0  0  0
   -2.3031   -0.8202   -0.4409 C   0  0  0  0  0  0  0  0  0  0  0  0
    0.3405    1.6110    0.8576 C   0  0  0  0  0  0  0  0  0  0  0  0
   -1.5535    0.1609    1.9655 C   0  0  0  0  0  0  0  0  0  0  0  0
    0.2604   -0.5687    0.2075 C   0  0  0  0  0  0  0  0  0  0  0  0
   -1.1356    1.2180   -1.7473 C   0  0  0  0  0  0  0  0  0  0  0  0
   -1.4292   -1.7920   -1.2705 C   0  0  0  0  0  0  0  0  0  0  0  0
   -3.1262   -0.0809    1.6892 C   0  0  0  0  0  0  0  0  0  0  0  0
   -0.0022   -1.6371   -0.6855 C   0  0  0  0  0  0  0  0  0  0  0  0
   -0.4761    2.5615   -1.4371 C   0  0  0  0  0  0  0  0  0  0  0  0
    0.6426    2.3989   -0.4259 C   0  0  0  0  0  0  0  0  0  0  0  0
    1.5302   -0.2596    0.6423 C   0  0  0  0  0  0  0  0  0  0  0  0
   -4.6933   -0.4327   -0.1915 C   0  0  0  0  0  0  0  0  0  0  0  0
    1.0675   -2.4631   -1.0169 C   0  0  0  0  0  0  0  0  0  0  0  0
    2.5934   -1.0795    0.3342 C   0  0  0  0  0  0  0  0  0  0  0  0
    2.3500   -2.1931   -0.4902 C   0  0  0  0  0  0  0  0  0  0  0  0
    4.6673    0.0056   -0.0869 C   0  0  0  0  0  0  0  0  0  0  0  0
  1  8  1  0
  1 17  1  0
  2 16  2  0
  3 20  1  0
  3 22  1  0
  4  7  1  0
  4 13  1  0
  4 18  1  0
  5  6  1  0
  5  8  1  0
  5  9  1  0
  5 10  1  0
  6  7  1  0
  6 11  1  0
  7 12  1  0
  8 16  1  0
  9 13  1  0
 10 14  2  0
 10 17  1  0
 11 15  1  0
 12 14  1  0
 14 19  1  0
 15 16  1  0
 17 20  2  0
 19 21  2  0
 20 21  1  0
M  END
>  <PUBCHEM_COMPOUND_CID>  (1) 
22562

>  <PUBCHEM_CONFORMER_RMSD>  (1) 
0.6

>  <PUBCHEM_CONFORMER_DIVERSEORDER>  (1) 
1
2

>  <PUBCHEM_MMFF94_PARTIAL_CHARGES>  (1) 
21
1 -0.36
10 -0.14
12 0.14
13 0.27
14 -0.14
15 0.06
16 0.45
17 0.08
18 0.27
19 -0.15
2 -0.57
20 0.08
21 -0.15
22 0.28
3 -0.36
39 0.15
4 -0.81
40 0.15
5 0.14
7 0.27
8 0.34

>  <PUBCHEM_EFFECTIVE_ROTOR_COUNT>  (1) 
2.4

>  <PUBCHEM_PHARMACOPHORE_FEATURES>  (1) 
9
1 1 acceptor
1 2 acceptor
1 3 acceptor
1 4 cation
5 1 5 8 10 17 rings
6 10 14 17 19 20 21 rings
6 4 5 6 7 9 13 rings
6 5 6 7 10 12 14 rings
6 5 6 8 11 15 16 rings

>  <PUBCHEM_HEAVY_ATOM_COUNT>  (1) 
22

>  <PUBCHEM_ATOM_DEF_STEREO_COUNT>  (1) 
3

>  <PUBCHEM_ATOM_UDEF_STEREO_COUNT>  (1) 
1

>  <PUBCHEM_BOND_DEF_STEREO_COUNT>  (1) 
0

>  <PUBCHEM_BOND_UDEF_STEREO_COUNT>  (1) 
0

>  <PUBCHEM_ISOTOPIC_ATOM_COUNT>  (1) 
0

>  <PUBCHEM_COMPONENT_COUNT>  (1) 
1

>  <PUBCHEM_CACTVS_TAUTO_COUNT>  (1) 
3

>  <PUBCHEM_CONFORMER_ID>  (1) 
0000582200000001

>  <PUBCHEM_MMFF94_ENERGY>  (1) 
142.0349

>  <PUBCHEM_FEATURE_SELFOVERLAP>  (1) 
47.044

>  <PUBCHEM_SHAPE_FINGERPRINT>  (1) 
10863032 1 17984984791249185241
10948715 1 17832996314029427309
12011746 2 18202002109973014759
12403814 3 18408879616479920370
12423570 1 10925584287917389201
12592029 89 17756441704564577357
13027679 85 18131342025099328665
13132413 78 17775290430356763281
13140716 1 18127399262444174090
13172582 1 18342453763796289706
13681431 1 18042709297847239333
14142880 1 18199465450711557528
14181834 199 18336839700643336613
144361 1 18192978529528182552
14790565 3 18271533082278194024
14817 1 13926478366986952605
14840074 17 18189618427154375348
14955137 171 18128279911144051490
1601671 61 18340771442507829277
16945 1 17845353514512495970
17357779 13 18339063896797162797
17492 54 18116730675718890044
1813 80 18336844003894761463
19868273 325 18262800657476024660
20600515 1 17386871455397126247
20691752 17 18266200347440203171
21029758 27 18335704957208979230
22182313 1 18197769999718479734
2334 1 17838603810303764566
23419403 2 17913459416789837601
23493267 7 17826783751272892034
23557571 272 18116155472107702278
2748010 2 17983289331423898310
576247 118 18042709233375016577
5845 1 11637041652007926021
81228 2 17754756930475446097

>  <PUBCHEM_SHAPE_MULTIPOLES>  (1) 
430.16
5.78
2.71
1.53
0.65
1.03
0.17
-1.98
1.1
1.14
-1.32
-0.76
0.32
0.12

>  <PUBCHEM_SHAPE_SELFOVERLAP>  (1) 
961.05

>  <PUBCHEM_SHAPE_VOLUME>  (1) 
228.5

>  <PUBCHEM_COORDINATE_TYPE>  (1) 
2
5
10

$$$$
