22566
     RDKit          3D

  9 10  0  0  1  0  0  0  0  0999 V2000
   -1.5355    0.1575    0.0785 C   0  0  0  0  0  0  0  0  0  0  0  0
   -0.5954   -0.8518    0.4960 C   0  0  0  0  0  0  0  0  0  0  0  0
   -2.0531   -1.1942    0.2631 C   0  0  0  0  0  0  0  0  0  0  0  0
   -1.8964    1.4978    0.5283 C   0  0  0  0  0  0  0  0  0  0  0  0
   -1.6218    1.1904   -0.9484 C   0  0  0  0  0  0  0  0  0  0  0  0
    0.4207   -1.3523   -0.5181 C   0  0  0  0  0  0  0  0  0  0  0  0
    1.8446   -0.9600   -0.1249 C   0  0  0  0  0  0  0  0  0  0  0  0
    2.0066    0.5588   -0.0662 C   0  0  0  0  0  0  0  0  0  0  0  0
    3.4303    0.9539    0.2918 C   0  0  0  0  0  0  0  0  0  0  0  0
  1  2  1  0
  1  3  1  0
  1  4  1  0
  1  5  1  0
  2  3  1  0
  2  6  1  0
  4  5  1  0
  6  7  1  0
  7  8  1  0
  8  9  1  0
M  END
>  <PUBCHEM_COMPOUND_CID>  (1) 
22566

>  <PUBCHEM_CONFORMER_RMSD>  (1) 
0.6

>  <PUBCHEM_CONFORMER_DIVERSEORDER>  (1) 
1
9
21
6
14
15
5
19
2
11
20
3
24
10
12
4
17
16
13
8
22
18
7
25
23

>  <PUBCHEM_MMFF94_PARTIAL_CHARGES>  (1) 
12
10 0.1
11 0.1
12 0.1
13 0.1
14 0.1
15 0.1
16 0.1
2 -0.19
3 -0.2
4 -0.2
5 -0.2
6 0.09

>  <PUBCHEM_EFFECTIVE_ROTOR_COUNT>  (1) 
3.8

>  <PUBCHEM_PHARMACOPHORE_FEATURES>  (1) 
1
1 9 hydrophobe

>  <PUBCHEM_HEAVY_ATOM_COUNT>  (1) 
9

>  <PUBCHEM_ATOM_DEF_STEREO_COUNT>  (1) 
0

>  <PUBCHEM_ATOM_UDEF_STEREO_COUNT>  (1) 
1

>  <PUBCHEM_BOND_DEF_STEREO_COUNT>  (1) 
0

>  <PUBCHEM_BOND_UDEF_STEREO_COUNT>  (1) 
0

>  <PUBCHEM_ISOTOPIC_ATOM_COUNT>  (1) 
0

>  <PUBCHEM_COMPONENT_COUNT>  (1) 
1

>  <PUBCHEM_CACTVS_TAUTO_COUNT>  (1) 
1

>  <PUBCHEM_CONFORMER_ID>  (1) 
0000582600000001

>  <PUBCHEM_MMFF94_ENERGY>  (1) 
19.5635

>  <PUBCHEM_FEATURE_SELFOVERLAP>  (1) 
5.074

>  <PUBCHEM_SHAPE_FINGERPRINT>  (1) 
10149128 76 18266171734452323948
12897270 3 18343299296775067662
12932764 1 17968946275301496546
14390081 3 18341613702710945640
15310529 11 14763808389245325814
15775835 57 18334297552408536352
19973954 147 18411705348478266346
20645464 45 18410296869835681790
20653085 51 17915750764435355339
21028194 46 18412546543856716354
21040471 1 17972328317239138023
369184 2 17458058270342974803
5084963 1 18187372008142920934
54338 74 17531245131573695525

>  <PUBCHEM_SHAPE_MULTIPOLES>  (1) 
185.22
4.23
1.71
0.82
3.47
0.05
-0.08
1.5
0.39
-0.41
-0.03
-0.2
0.1
0.29

>  <PUBCHEM_SHAPE_SELFOVERLAP>  (1) 
360.133

>  <PUBCHEM_SHAPE_VOLUME>  (1) 
116

>  <PUBCHEM_COORDINATE_TYPE>  (1) 
2
5
10

$$$$
