22570
     RDKit          3D

 16 17  0  0  1  0  0  0  0  0999 V2000
   -0.7113   -1.3626   -0.5319 C   0  0  0  0  0  0  0  0  0  0  0  0
    0.6741   -0.8093   -0.1767 C   0  0  0  0  0  0  0  0  0  0  0  0
   -1.8243   -0.4707   -0.0952 C   0  0  0  0  0  0  0  0  0  0  0  0
   -0.7725   -1.8015   -2.0171 C   0  0  0  0  0  0  0  0  0  0  0  0
    1.0593    0.3924   -0.7208 C   0  0  0  0  0  0  0  0  0  0  0  0
    2.3195    0.8953   -0.3975 C   0  0  0  0  0  0  0  0  0  0  0  0
    1.4729   -1.5386    0.6712 C   0  0  0  0  0  0  0  0  0  0  0  0
    3.1563    0.1813    0.4602 C   0  0  0  0  0  0  0  0  0  0  0  0
    2.7330   -1.0356    0.9945 C   0  0  0  0  0  0  0  0  0  0  0  0
   -2.2641   -0.5010    1.2281 C   0  0  0  0  0  0  0  0  0  0  0  0
   -2.4255    0.3934   -1.0104 C   0  0  0  0  0  0  0  0  0  0  0  0
    2.7509    2.2004   -0.9812 C   0  0  0  0  0  0  0  0  0  0  0  0
    4.5096    0.6995    0.8213 C   0  0  0  0  0  0  0  0  0  0  0  0
   -3.3051    0.3328    1.6364 C   0  0  0  0  0  0  0  0  0  0  0  0
   -3.4665    1.2272   -0.6021 C   0  0  0  0  0  0  0  0  0  0  0  0
   -3.9063    1.1969    0.7212 C   0  0  0  0  0  0  0  0  0  0  0  0
  1  2  1  0
  1  3  1  0
  1  4  1  0
  2  5  2  0
  2  7  1  0
  3 10  2  0
  3 11  1  0
  5  6  1  0
  6  8  2  0
  6 12  1  0
  7  9  2  0
  8  9  1  0
  8 13  1  0
 10 14  1  0
 11 15  2  0
 14 16  2  0
 15 16  1  0
M  END
>  <PUBCHEM_COMPOUND_CID>  (1) 
22570

>  <PUBCHEM_CONFORMER_RMSD>  (1) 
0.6

>  <PUBCHEM_CONFORMER_DIVERSEORDER>  (1) 
1
7
5
3
8
6
4
2

>  <PUBCHEM_MMFF94_PARTIAL_CHARGES>  (1) 
23
1 0.29
10 -0.15
11 -0.15
12 0.14
13 0.14
14 -0.15
15 -0.15
16 -0.15
2 -0.14
21 0.15
22 0.15
23 0.15
24 0.15
25 0.15
3 -0.14
32 0.15
33 0.15
34 0.15
5 -0.15
6 -0.14
7 -0.15
8 -0.14
9 -0.15

>  <PUBCHEM_EFFECTIVE_ROTOR_COUNT>  (1) 
2

>  <PUBCHEM_PHARMACOPHORE_FEATURES>  (1) 
3
1 4 hydrophobe
6 2 5 6 7 8 9 rings
6 3 10 11 14 15 16 rings

>  <PUBCHEM_HEAVY_ATOM_COUNT>  (1) 
16

>  <PUBCHEM_ATOM_DEF_STEREO_COUNT>  (1) 
0

>  <PUBCHEM_ATOM_UDEF_STEREO_COUNT>  (1) 
1

>  <PUBCHEM_BOND_DEF_STEREO_COUNT>  (1) 
0

>  <PUBCHEM_BOND_UDEF_STEREO_COUNT>  (1) 
0

>  <PUBCHEM_ISOTOPIC_ATOM_COUNT>  (1) 
0

>  <PUBCHEM_COMPONENT_COUNT>  (1) 
1

>  <PUBCHEM_CACTVS_TAUTO_COUNT>  (1) 
1

>  <PUBCHEM_CONFORMER_ID>  (1) 
0000582A00000001

>  <PUBCHEM_MMFF94_ENERGY>  (1) 
48.3162

>  <PUBCHEM_FEATURE_SELFOVERLAP>  (1) 
15.223

>  <PUBCHEM_SHAPE_FINGERPRINT>  (1) 
10366900 7 17386014982872726009
10498660 4 16486977228959623729
10618630 7 12251901486164012033
11046707 91 12612751315411825001
11471102 22 17675926499518658114
11640471 11 18201712959678489523
11806522 49 8934997084205101058
12077114 3 17676762081211549349
12138202 97 16056872580781952470
12251169 10 17822013111795429715
12500047 106 17346590915865404318
12633257 1 17385445422901709673
12670545 47 17385444319174040615
13675066 3 18409448111621009064
13705890 14 11600001042340542514
13764800 53 17632307795451027803
15209294 21 18270381906878762984
15309172 13 18272089374921088279
15375462 189 7997679926668628989
15653759 3 16877663439676224889
15775835 57 18273491269252162177
16945 1 18261956249736532350
17357990 137 18201727240576598044
1741750 31 17846499261442140278
1813 80 17340140948497151814
18186145 218 15913060806212094535
19049666 15 16952800649909113711
19107657 9 17917161536812334041
20233049 118 17988922262837493344
20291156 8 10809341139579231161
20361792 2 12468647148586255235
20871999 31 14261057771788161869
21065199 12 17530970172120655257
21524375 3 18272652355007936959
21713013 43 11455593388625317585
21731228 192 18334298673273863411
21756936 100 17900840545577442428
22169311 14 17167863041195468585
23402539 116 16343983585693486096
23402655 69 13038917602874588107
23557571 272 16199578233552840535
23559900 14 16805894969894031943
2748010 2 17902774277097330470
3286 77 17095808818627642936
3472631 163 16845289419661910617
351380 180 18040710325884478709
4028521 119 16128657414453165153
7615 1 18195795495915093484
81228 2 17200785885544341807

>  <PUBCHEM_SHAPE_MULTIPOLES>  (1) 
329.27
7.37
1.82
1.52
0.71
0.1
-0.15
3.72
2.5
0.51
-0.58
-0.67
-0.31
-0.76

>  <PUBCHEM_SHAPE_SELFOVERLAP>  (1) 
702.237

>  <PUBCHEM_SHAPE_VOLUME>  (1) 
176.5

>  <PUBCHEM_COORDINATE_TYPE>  (1) 
2
5
10

$$$$
