22579
     RDKit          3D

 27 29  0  0  1  0  0  0  0  0999 V2000
    1.7528    1.1506   -0.9678 S   0  0  0  0  0  0  0  0  0  0  0  0
   -2.7047    1.4615    1.1157 O   0  0  0  0  0  0  0  0  0  0  0  0
    0.5751    0.5427   -0.0058 O   0  0  0  0  0  0  0  0  0  0  0  0
   -0.0615    2.8687    1.2681 O   0  0  0  0  0  0  0  0  0  0  0  0
   -4.5367    3.0414   -0.3038 O   0  0  0  0  0  0  0  0  0  0  0  0
    1.9786    2.5390   -0.6166 O   0  0  0  0  0  0  0  0  0  0  0  0
    1.4611    0.7521   -2.3320 O   0  0  0  0  0  0  0  0  0  0  0  0
   -0.7133   -2.1101    1.5201 O   0  0  0  0  0  0  0  0  0  0  0  0
   -4.1530   -4.1535   -0.7685 O   0  0  0  0  0  0  0  0  0  0  0  0
   -2.3089   -0.7540    0.4838 N   0  0  0  0  0  0  0  0  0  0  0  0
   -2.4266   -3.1258    0.3793 N   0  0  0  0  0  0  0  0  0  0  0  0
   -0.7432    1.0318   -0.1425 C   0  0  0  0  0  0  0  0  0  0  0  0
   -0.8342    2.5203    0.1197 C   0  0  0  0  0  0  0  0  0  0  0  0
   -1.6873    0.4688    0.9058 C   0  0  0  0  0  0  0  0  0  0  0  0
   -2.3050    2.6924    0.4741 C   0  0  0  0  0  0  0  0  0  0  0  0
   -3.1964    2.9044   -0.7423 C   0  0  0  0  0  0  0  0  0  0  0  0
   -1.7386   -1.9974    0.8450 C   0  0  0  0  0  0  0  0  0  0  0  0
   -3.4702   -0.7147   -0.2791 C   0  0  0  0  0  0  0  0  0  0  0  0
    3.2095    0.2829   -0.4772 C   0  0  0  0  0  0  0  0  0  0  0  0
   -4.1146   -1.7989   -0.7156 C   0  0  0  0  0  0  0  0  0  0  0  0
   -3.5847   -3.1365   -0.3825 C   0  0  0  0  0  0  0  0  0  0  0  0
    3.5378   -0.9043   -1.1114 C   0  0  0  0  0  0  0  0  0  0  0  0
    4.0005    0.8030    0.5343 C   0  0  0  0  0  0  0  0  0  0  0  0
    4.6890   -1.5900   -0.7235 C   0  0  0  0  0  0  0  0  0  0  0  0
    5.1517    0.1173    0.9221 C   0  0  0  0  0  0  0  0  0  0  0  0
    5.4960   -1.0792    0.2931 C   0  0  0  0  0  0  0  0  0  0  0  0
    6.7266   -1.8124    0.7076 C   0  0  0  0  0  0  0  0  0  0  0  0
  1  3  1  0
  1  6  2  0
  1  7  2  0
  1 19  1  0
  2 14  1  0
  2 15  1  0
  3 12  1  0
  4 13  1  0
  5 16  1  0
  8 17  2  0
  9 21  2  0
 10 14  1  0
 10 17  1  0
 10 18  1  0
 11 17  1  0
 11 21  1  0
 12 13  1  0
 12 14  1  0
 13 15  1  0
 15 16  1  0
 18 20  2  0
 19 22  2  0
 19 23  1  0
 20 21  1  0
 22 24  1  0
 23 25  2  0
 24 26  2  0
 25 26  1  0
 26 27  1  0
M  END
>  <PUBCHEM_COMPOUND_CID>  (1) 
22579

>  <PUBCHEM_CONFORMER_RMSD>  (1) 
0.8

>  <PUBCHEM_CONFORMER_DIVERSEORDER>  (1) 
1
9
3
11
10
4
6
5
8
12
2
7

>  <PUBCHEM_MMFF94_PARTIAL_CHARGES>  (1) 
36
1 1.49
10 -0.47
11 -0.49
12 0.28
13 0.28
14 0.58
15 0.28
16 0.28
17 0.69
18 -0.04
19 -0.01
2 -0.56
20 -0.14
21 0.62
22 -0.15
23 -0.15
24 -0.15
25 -0.15
26 -0.14
27 0.14
3 -0.46
34 0.4
35 0.15
36 0.4
37 0.37
38 0.15
39 0.15
4 -0.68
40 0.15
41 0.15
42 0.15
5 -0.68
6 -0.65
7 -0.65
8 -0.57
9 -0.57

>  <PUBCHEM_EFFECTIVE_ROTOR_COUNT>  (1) 
6

>  <PUBCHEM_PHARMACOPHORE_FEATURES>  (1) 
13
1 11 donor
1 2 acceptor
1 4 acceptor
1 4 donor
1 5 acceptor
1 5 donor
1 6 acceptor
1 7 acceptor
1 8 acceptor
1 9 acceptor
5 2 12 13 14 15 rings
6 10 11 17 18 20 21 rings
6 19 22 23 24 25 26 rings

>  <PUBCHEM_HEAVY_ATOM_COUNT>  (1) 
27

>  <PUBCHEM_ATOM_DEF_STEREO_COUNT>  (1) 
4

>  <PUBCHEM_ATOM_UDEF_STEREO_COUNT>  (1) 
0

>  <PUBCHEM_BOND_DEF_STEREO_COUNT>  (1) 
0

>  <PUBCHEM_BOND_UDEF_STEREO_COUNT>  (1) 
0

>  <PUBCHEM_ISOTOPIC_ATOM_COUNT>  (1) 
0

>  <PUBCHEM_COMPONENT_COUNT>  (1) 
1

>  <PUBCHEM_CACTVS_TAUTO_COUNT>  (1) 
3

>  <PUBCHEM_CONFORMER_ID>  (1) 
0000583300000001

>  <PUBCHEM_MMFF94_ENERGY>  (1) 
63.114

>  <PUBCHEM_FEATURE_SELFOVERLAP>  (1) 
66.002

>  <PUBCHEM_SHAPE_FINGERPRINT>  (1) 
10483366 6 18337939131394734519
10693767 8 17838880883620174487
11045977 3 18272365322907989256
11135609 149 17696163174791073471
12156800 1 16839609312264142311
12160290 23 18121816930514852281
12166972 35 17895473751543455230
12293681 25 17982419862945794813
12346177 29 18336550430153504892
12363563 72 18197510716436964583
12422481 6 18056791821575615443
12553582 1 17979100462583750371
12788726 201 18264220251552097472
13004483 165 18198624526301123311
13083527 12 17984421003682526948
13583140 156 17703217447920485704
13911987 19 16962966042904124573
14114207 22 17317033642054983567
14251740 79 18187075157389135991
14790565 3 17837211472517823145
14844126 61 18410013208499260339
14866123 147 18411421700833874587
15250474 111 18334575712224668290
15352361 1 18340206405174103686
15420108 30 17902222317654392217
17492 89 18338797926705215702
17913733 40 17837233484504978953
19141452 34 18336830771380350604
19958102 18 18263071146438089309
20600515 1 18129396903416115096
21478907 32 18339082717517907243
21703447 108 18195798785870897184
23536364 44 18264186141834748855
23557571 272 18202281390168527296
23559900 14 18339352075996808760
23572383 38 18201435840236720734
23622692 118 18410011082869996684
255183 313 18269571450898151529
3027735 51 18409729534747596651
3178227 256 18266195959070687569
376196 1 14112221125720572995
38695281 34 17976257942112275197
397830 11 18271791429789199098
4015057 19 17988625381513035056
4073 2 18341891841257800610
4403749 210 18200859739721095146
463206 1 18122344854599453391
5104073 3 18201997721117676152
5385378 56 17684940102749732753
559249 180 18188208689183649864
57527585 103 17605586346691273818
5924683 9 18413387631370600970
59755656 520 18191580857023516261
6201320 77 16951716720929844915
6669772 16 17982732970409161031
7164475 11 18336551632612550636
9709674 26 18411987983291436160

>  <PUBCHEM_SHAPE_MULTIPOLES>  (1) 
502.58
11.89
4.41
1.26
15.82
1.3
0.22
6.73
-0.33
-7.19
0.12
0.39
-0.07
-0.6

>  <PUBCHEM_SHAPE_SELFOVERLAP>  (1) 
1063.479

>  <PUBCHEM_SHAPE_VOLUME>  (1) 
282.1

>  <PUBCHEM_COORDINATE_TYPE>  (1) 
2
5
10

$$$$
