22586
     RDKit          3D

 16 17  0  0  0  0  0  0  0  0999 V2000
    5.2287   -1.1341    0.2441 O   0  0  0  0  0  0  0  0  0  0  0  0
    0.2635    1.3336   -0.1843 N   0  0  0  0  0  0  0  0  0  0  0  0
   -4.9940   -0.5799    0.2580 N   0  0  0  0  0  0  0  0  0  0  0  0
   -1.0564    0.8485   -0.0755 C   0  0  0  0  0  0  0  0  0  0  0  0
   -2.6519   -0.9493   -0.3201 C   0  0  0  0  0  0  0  0  0  0  0  0
   -1.3466   -0.4694   -0.4287 C   0  0  0  0  0  0  0  0  0  0  0  0
   -3.6669   -0.1112    0.1418 C   0  0  0  0  0  0  0  0  0  0  0  0
    1.5212    0.7091   -0.0758 C   0  0  0  0  0  0  0  0  0  0  0  0
   -2.0713    1.6866    0.3863 C   0  0  0  0  0  0  0  0  0  0  0  0
   -3.3764    1.2067    0.4950 C   0  0  0  0  0  0  0  0  0  0  0  0
   -2.9359   -2.3649   -0.7048 C   0  0  0  0  0  0  0  0  0  0  0  0
    2.6100    1.1982   -0.7991 C   0  0  0  0  0  0  0  0  0  0  0  0
    1.6810   -0.4014    0.7549 C   0  0  0  0  0  0  0  0  0  0  0  0
    3.8552    0.5788   -0.6923 C   0  0  0  0  0  0  0  0  0  0  0  0
    2.9263   -1.0208    0.8620 C   0  0  0  0  0  0  0  0  0  0  0  0
    4.0135   -0.5306    0.1384 C   0  0  0  0  0  0  0  0  0  0  0  0
  1 16  1  0
  2  4  1  0
  2  8  1  0
  3  7  1  0
  4  6  1  0
  4  9  2  0
  5  6  2  0
  5  7  1  0
  5 11  1  0
  7 10  2  0
  8 12  2  0
  8 13  1  0
  9 10  1  0
 12 14  1  0
 13 15  2  0
 14 16  2  0
 15 16  1  0
M  END
>  <PUBCHEM_COMPOUND_CID>  (1) 
22586

>  <PUBCHEM_CONFORMER_RMSD>  (1) 
0.6

>  <PUBCHEM_CONFORMER_DIVERSEORDER>  (1) 
1
4
5
3
2
6

>  <PUBCHEM_MMFF94_PARTIAL_CHARGES>  (1) 
27
1 -0.53
10 -0.15
11 0.14
12 -0.15
13 -0.15
14 -0.15
15 -0.15
16 0.08
17 0.15
18 0.4
19 0.15
2 -0.6
20 0.15
24 0.15
25 0.15
26 0.15
27 0.15
28 0.4
29 0.4
3 -0.9
30 0.45
4 0.1
5 -0.14
6 -0.15
7 0.1
8 0.1
9 -0.15

>  <PUBCHEM_EFFECTIVE_ROTOR_COUNT>  (1) 
2

>  <PUBCHEM_PHARMACOPHORE_FEATURES>  (1) 
7
1 1 donor
1 2 cation
1 2 donor
1 3 cation
1 3 donor
6 4 5 6 7 9 10 rings
6 8 12 13 14 15 16 rings

>  <PUBCHEM_HEAVY_ATOM_COUNT>  (1) 
16

>  <PUBCHEM_ATOM_DEF_STEREO_COUNT>  (1) 
0

>  <PUBCHEM_ATOM_UDEF_STEREO_COUNT>  (1) 
0

>  <PUBCHEM_BOND_DEF_STEREO_COUNT>  (1) 
0

>  <PUBCHEM_BOND_UDEF_STEREO_COUNT>  (1) 
0

>  <PUBCHEM_ISOTOPIC_ATOM_COUNT>  (1) 
0

>  <PUBCHEM_COMPONENT_COUNT>  (1) 
1

>  <PUBCHEM_CACTVS_TAUTO_COUNT>  (1) 
4

>  <PUBCHEM_CONFORMER_ID>  (1) 
0000583A00000001

>  <PUBCHEM_MMFF94_ENERGY>  (1) 
69.2721

>  <PUBCHEM_FEATURE_SELFOVERLAP>  (1) 
35.522

>  <PUBCHEM_SHAPE_FINGERPRINT>  (1) 
10465860 250 17632293454307131384
10616163 171 18412826901710128086
11046707 91 18412261739874247333
11578080 2 18190152715905255772
12236239 1 18334016090031773956
12251169 10 18341894082434053085
12346177 29 17846205679411292263
12500047 106 18200588090759243217
12553582 1 18335689555387762003
13167823 11 18335140886342875160
13551218 46 18270685268608335327
13862211 1 18272649104424731631
14144814 61 18411419496798239681
14576447 43 18186518796279517618
14965852 173 18341330071586877293
15242433 33 18335704974272758487
15375462 189 18334293158551283360
15536298 74 18411135870459697128
15653759 3 17203889660544642288
15669948 3 18343301504741601399
16752209 62 18340469094374980541
17804303 29 18202001040689610369
17834072 33 18408888460144695596
1813 80 17749680575959013262
18186145 218 16660360406959190240
18915474 69 18335983163895016726
19050596 39 18408886239366892208
19422 9 18409169934831125940
200 152 18187081754147568729
20279233 1 16272208582949284220
20281475 54 18410852204569331860
20291156 8 18337389439134962861
20645477 70 15574984032256234178
21267235 1 18336274482620330098
21634736 98 18192150610489659134
221490 88 18115878562686463058
22485316 2 18411135865837584756
2255824 54 18041002877629240644
22646028 1 18407759235532226036
22646028 28 18407758140389360130
23402539 116 18060413613198970413
23402655 69 18113617855005403204
23463225 33 18408886213359666116
23559900 14 18272644692628298304
3268164 11 12468636170681482499
42 15 18412827971145818032
4214541 1 18411138004557361192
465052 167 18338807831179686839
474 4 17679030537056673500
5104073 3 18412830204560643233
559249 180 18262795147022590322
573450 72 18413386518789409585
633830 44 16805326578475437996
67856867 119 18264767830556778804
77779 3 18410295813242175820
9981440 41 17397830562817763784

>  <PUBCHEM_SHAPE_MULTIPOLES>  (1) 
313.44
9.64
1.78
0.85
2.94
0.36
0
2.77
-0.43
-1.06
0.16
0.26
0.05
-1.12

>  <PUBCHEM_SHAPE_SELFOVERLAP>  (1) 
672.741

>  <PUBCHEM_SHAPE_VOLUME>  (1) 
173.6

>  <PUBCHEM_COORDINATE_TYPE>  (1) 
2
5
10

$$$$
