22587
     RDKit          3D

 17 16  0  0  0  0  0  0  0  0999 V2000
    6.8253    0.0279   -0.0091 Si  0  0  0  0  0  4  0  0  0  0  0  0
    5.2746   -0.6120   -0.0434 O   0  0  0  0  0  0  0  0  0  0  0  0
   -0.9407    0.3454    0.0418 C   0  0  0  0  0  0  0  0  0  0  0  0
   -2.2204   -0.4931   -0.0010 C   0  0  0  0  0  0  0  0  0  0  0  0
    0.3377   -0.4982    0.0057 C   0  0  0  0  0  0  0  0  0  0  0  0
   -3.4996    0.3506    0.0225 C   0  0  0  0  0  0  0  0  0  0  0  0
    1.6183    0.3402    0.0239 C   0  0  0  0  0  0  0  0  0  0  0  0
   -4.8174   -0.4309    0.0712 C   0  0  0  0  0  0  0  0  0  0  0  0
    2.8636   -0.5503   -0.0420 C   0  0  0  0  0  0  0  0  0  0  0  0
   -6.0581    0.4649    0.0327 C   0  0  0  0  0  0  0  0  0  0  0  0
   -7.3732   -0.3204   -0.0075 C   0  0  0  0  0  0  0  0  0  0  0  0
    4.1539    0.2593    0.0010 C   0  0  0  0  0  0  0  0  0  0  0  0
   -8.6142    0.5708   -0.0730 C   0  0  0  0  0  0  0  0  0  0  0  0
    7.1258    1.1620   -1.4793 C   0  0  0  0  0  0  0  0  0  0  0  0
    7.1239    1.0040    1.5710 C   0  0  0  0  0  0  0  0  0  0  0  0
    8.0919   -1.3652   -0.0804 C   0  0  0  0  0  0  0  0  0  0  0  0
   -9.8915   -0.2548   -0.0343 C   0  0  0  0  0  0  0  0  0  0  0  0
  1  2  1  0
  1 14  1  0
  1 15  1  0
  1 16  1  0
  2 12  1  0
  3  4  1  0
  3  5  1  0
  4  6  1  0
  5  7  1  0
  6  8  1  0
  7  9  1  0
  8 10  1  0
  9 12  1  0
 10 11  1  0
 11 13  1  0
 13 17  1  0
M  END
>  <PUBCHEM_COMPOUND_CID>  (1) 
22587

>  <PUBCHEM_CONFORMER_RMSD>  (1) 
1

>  <PUBCHEM_CONFORMER_DIVERSEORDER>  (1) 
1
245
27
285
229
2
46
58
88
3
207
202
32
60
24
277
69
313
248
167
311
211
282
4
216
95
251
209
63
219
110
91
279
5
109
213
19
281
247
305
397
352
389
55
359
163
22
93
296
132
255
164
12
144
351
312
273
291
295
54
402
374
53
258
343
340
115
7
179
268
114
45
68
118
222
307
128
284
238
310
218
99
328
275
198
400
33
84
363
243
123
160
141
139
381
64
65
6
9
98
131
267
87
89
288
329
276
36
391
396
192
364
16
47
10
210
298
322
380
393
337
341
28
107
353
260
66
297
290
59
240
183
20
75
386
48
266
13
235
185
150
169
18
287
135
270
81
388
38
57
76
149
136
333
145
321
339
187
104
261
85
215
26
344
133
153
140
338
170
41
177
162
278
15
231
11
331
172
21
335
108
176
129
383
151
31
127
224
234
125
286
241
253
174
308
246
79
180
304
349
280
242
369
39
34
25
14
221
300
155
147
67
318
301
62
398
182
309
126
102
237
250
252
77
82
208
178
30
203
120
61
377
188
100
74
157
194
401
302
228
96
345
356
226
113
196
92
101
225
191
8
165
142
119
197
262
154
44
206
283
303
367
370
166
319
361
51
392
299
17
116
42
71
199
289
195
223
23
264
306
78
227
124
168
269
325
73
138
315
272
293
56
29
212
334
184
371
40
175
382
181
50
232
37
263
146
323
376
148
362
94
143
265
159
274
152
384
97
348
217
294
403
394
271
368
233
200
387
358
326
357
161
134
117
346
220
254
158
316
86
236
137
83
130
72
230
332
404
189
105
320
372
43
256
35
327
190
360
365
385
214
257
103
106
395
239
259
366
292
390
70
156
317
173
354
49
122
171
52
186
80
204
375
112
399
249
342
379
355
378
205
244
314
193
324
373
121
90
111
201
350
336
330
347

>  <PUBCHEM_MMFF94_PARTIAL_CHARGES>  (1) 
6
1 0.54
12 0.28
14 -0.08
15 -0.08
16 -0.08
2 -0.58

>  <PUBCHEM_EFFECTIVE_ROTOR_COUNT>  (1) 
12

>  <PUBCHEM_PHARMACOPHORE_FEATURES>  (1) 
1
1 17 hydrophobe

>  <PUBCHEM_HEAVY_ATOM_COUNT>  (1) 
17

>  <PUBCHEM_ATOM_DEF_STEREO_COUNT>  (1) 
0

>  <PUBCHEM_ATOM_UDEF_STEREO_COUNT>  (1) 
0

>  <PUBCHEM_BOND_DEF_STEREO_COUNT>  (1) 
0

>  <PUBCHEM_BOND_UDEF_STEREO_COUNT>  (1) 
0

>  <PUBCHEM_ISOTOPIC_ATOM_COUNT>  (1) 
0

>  <PUBCHEM_COMPONENT_COUNT>  (1) 
1

>  <PUBCHEM_CACTVS_TAUTO_COUNT>  (1) 
1

>  <PUBCHEM_CONFORMER_ID>  (1) 
0000583B00000001

>  <PUBCHEM_MMFF94_ENERGY>  (1) 
0.9028

>  <PUBCHEM_FEATURE_SELFOVERLAP>  (1) 
5.074

>  <PUBCHEM_SHAPE_FINGERPRINT>  (1) 
11315181 36 18408891742106215465
11638347 137 18271807895987338646
14123256 10 17846499227446125921
14251764 18 18413111649699376921
14251764 46 18410573985151470630
155225 1 17895198848784527708
16120349 18 17894632586403570524
20281389 69 18342454833870881040
20621476 8 18334574629211966535
21362267 313 17532080610503993425
22224240 67 18343299275437712567
232437 2 18343021090880626335
23521765 1 18341894091393233251
33684 2 18413388726766583451
59682541 35 18412545436029506363
67123 10 17967816059479788711
8209 1 18410856559639796071

>  <PUBCHEM_SHAPE_MULTIPOLES>  (1) 
362.2
35.08
1.02
0.91
45.34
0.02
0.04
-0.85
-0.49
-1.65
-0.04
-2.02
-0.28
0.02

>  <PUBCHEM_SHAPE_SELFOVERLAP>  (1) 
634.318

>  <PUBCHEM_SHAPE_VOLUME>  (1) 
237.8

>  <PUBCHEM_COORDINATE_TYPE>  (1) 
2
5
10

$$$$
