22595
     RDKit          3D

 45 49  0  0  0  0  0  0  0  0999 V2000
    2.0759    2.6918   -0.4505 S   0  0  0  0  0  0  0  0  0  0  0  0
  -11.5631   -0.0600   -0.2448 S   0  0  0  0  0  0  0  0  0  0  0  0
    2.1862   -2.4274   -0.5274 O   0  0  0  0  0  0  0  0  0  0  0  0
    1.4286    2.7858    1.0465 O   0  0  0  0  0  0  0  0  0  0  0  0
    3.0760    3.7427   -0.5504 O   0  0  0  0  0  0  0  0  0  0  0  0
    0.9889    2.6037   -1.4109 O   0  0  0  0  0  0  0  0  0  0  0  0
   -1.0480   -2.4673    0.7141 O   0  0  0  0  0  0  0  0  0  0  0  0
  -12.0206   -0.0337   -1.8143 O   0  0  0  0  0  0  0  0  0  0  0  0
  -11.9818    1.1910    0.3684 O   0  0  0  0  0  0  0  0  0  0  0  0
  -11.9982   -1.3368    0.3027 O   0  0  0  0  0  0  0  0  0  0  0  0
    8.5226   -1.3028   -0.6367 N   0  0  0  0  0  0  0  0  0  0  0  0
    0.8070   -0.0513   -0.4657 N   0  0  0  0  0  0  0  0  0  0  0  0
    0.4061   -0.0691    0.7203 N   0  0  0  0  0  0  0  0  0  0  0  0
   -5.1828   -0.0514    0.8263 N   0  0  0  0  0  0  0  0  0  0  0  0
   -5.6298   -0.0341   -0.3439 N   0  0  0  0  0  0  0  0  0  0  0  0
    5.0173   -0.0617   -0.5490 C   0  0  0  0  0  0  0  0  0  0  0  0
    4.3044   -1.2843   -0.5528 C   0  0  0  0  0  0  0  0  0  0  0  0
    2.9103    1.1530   -0.4896 C   0  0  0  0  0  0  0  0  0  0  0  0
    4.3052    1.1483   -0.5172 C   0  0  0  0  0  0  0  0  0  0  0  0
    2.9005   -1.2607   -0.5248 C   0  0  0  0  0  0  0  0  0  0  0  0
    2.2094   -0.0492   -0.4934 C   0  0  0  0  0  0  0  0  0  0  0  0
    6.4212   -0.0852   -0.5770 C   0  0  0  0  0  0  0  0  0  0  0  0
    7.1123   -1.2967   -0.6084 C   0  0  0  0  0  0  0  0  0  0  0  0
    5.0164   -2.4944   -0.5845 C   0  0  0  0  0  0  0  0  0  0  0  0
    6.4113   -2.4990   -0.6121 C   0  0  0  0  0  0  0  0  0  0  0  0
    9.4907   -0.4178   -0.1239 C   0  0  0  0  0  0  0  0  0  0  0  0
   -0.9990   -0.0710    0.7486 C   0  0  0  0  0  0  0  0  0  0  0  0
   -3.0742    1.1560    0.8069 C   0  0  0  0  0  0  0  0  0  0  0  0
   -1.6796    1.1432    0.7801 C   0  0  0  0  0  0  0  0  0  0  0  0
   -1.7023   -1.2725    0.7435 C   0  0  0  0  0  0  0  0  0  0  0  0
   -3.7827   -0.0455    0.8020 C   0  0  0  0  0  0  0  0  0  0  0  0
   10.7224   -0.2802   -0.7663 C   0  0  0  0  0  0  0  0  0  0  0  0
    9.2208    0.3245    1.0270 C   0  0  0  0  0  0  0  0  0  0  0  0
   -3.0968   -1.2596    0.7704 C   0  0  0  0  0  0  0  0  0  0  0  0
   -3.7866    2.4686    0.8383 C   0  0  0  0  0  0  0  0  0  0  0  0
   11.6811    0.5970   -0.2594 C   0  0  0  0  0  0  0  0  0  0  0  0
   10.1796    1.2017    1.5339 C   0  0  0  0  0  0  0  0  0  0  0  0
   11.4098    1.3381    0.8907 C   0  0  0  0  0  0  0  0  0  0  0  0
   -7.0350   -0.0403   -0.3199 C   0  0  0  0  0  0  0  0  0  0  0  0
   -9.8176   -0.0529   -0.2755 C   0  0  0  0  0  0  0  0  0  0  0  0
   -7.7307    1.1643   -0.2885 C   0  0  0  0  0  0  0  0  0  0  0  0
   -7.7205   -1.2512   -0.3295 C   0  0  0  0  0  0  0  0  0  0  0  0
   -9.1254    1.1581   -0.2663 C   0  0  0  0  0  0  0  0  0  0  0  0
   -9.1151   -1.2575   -0.3073 C   0  0  0  0  0  0  0  0  0  0  0  0
   -0.7141   -3.0541    1.9702 C   0  0  0  0  0  0  0  0  0  0  0  0
  1  4  1  0
  1  5  2  0
  1  6  2  0
  1 18  1  0
  2  8  1  0
  2  9  2  0
  2 10  2  0
  2 40  1  0
  3 20  1  0
  7 30  1  0
  7 45  1  0
 11 23  1  0
 11 26  1  0
 12 13  2  0
 12 21  1  0
 13 27  1  0
 14 15  2  0
 14 31  1  0
 15 39  1  0
 16 17  2  0
 16 19  1  0
 16 22  1  0
 17 20  1  0
 17 24  1  0
 18 19  2  0
 18 21  1  0
 20 21  2  0
 22 23  2  0
 23 25  1  0
 24 25  2  0
 26 32  2  0
 26 33  1  0
 27 29  1  0
 27 30  2  0
 28 29  2  0
 28 31  1  0
 28 35  1  0
 30 34  1  0
 31 34  2  0
 32 36  1  0
 33 37  2  0
 36 38  2  0
 37 38  1  0
 39 41  2  0
 39 42  1  0
 40 43  2  0
 40 44  1  0
 41 43  1  0
 42 44  2  0
M  END
>  <PUBCHEM_COMPOUND_CID>  (1) 
22595

>  <PUBCHEM_CONFORMER_RMSD>  (1) 
1.2

>  <PUBCHEM_CONFORMER_DIVERSEORDER>  (1) 
1
9
7
8
6
11
4
12
3
10
2
5

>  <PUBCHEM_MMFF94_PARTIAL_CHARGES>  (1) 
62
1 1.49
10 -0.65
11 -0.6
12 -0.18
13 -0.18
14 -0.18
15 -0.18
18 -0.01
19 -0.15
2 1.49
20 0.08
21 0.18
22 -0.15
23 0.1
24 -0.15
25 -0.15
26 0.1
27 0.18
28 -0.14
29 -0.15
3 -0.53
30 0.08
31 0.18
32 -0.15
33 -0.15
34 -0.15
35 0.14
36 -0.15
37 -0.15
38 -0.15
39 0.18
4 -0.68
40 -0.01
41 -0.15
42 -0.15
43 -0.15
44 -0.15
45 0.28
46 0.15
47 0.15
48 0.15
49 0.15
5 -0.65
50 0.4
51 0.45
52 0.15
53 0.15
54 0.15
55 0.15
56 0.5
6 -0.65
60 0.15
61 0.15
62 0.15
63 0.15
64 0.15
65 0.15
66 0.15
7 -0.36
70 0.5
8 -0.68
9 -0.65

>  <PUBCHEM_EFFECTIVE_ROTOR_COUNT>  (1) 
9

>  <PUBCHEM_PHARMACOPHORE_FEATURES>  (1) 
17
1 10 acceptor
1 11 cation
1 11 donor
1 3 donor
1 4 acceptor
1 5 acceptor
1 6 acceptor
1 7 acceptor
1 8 acceptor
1 9 acceptor
4 1 4 5 6 anion
4 2 8 9 10 anion
6 16 17 18 19 20 21 rings
6 16 17 22 23 24 25 rings
6 26 32 33 36 37 38 rings
6 27 28 29 30 31 34 rings
6 39 40 41 42 43 44 rings

>  <PUBCHEM_HEAVY_ATOM_COUNT>  (1) 
45

>  <PUBCHEM_ATOM_DEF_STEREO_COUNT>  (1) 
0

>  <PUBCHEM_ATOM_UDEF_STEREO_COUNT>  (1) 
0

>  <PUBCHEM_BOND_DEF_STEREO_COUNT>  (1) 
0

>  <PUBCHEM_BOND_UDEF_STEREO_COUNT>  (1) 
0

>  <PUBCHEM_ISOTOPIC_ATOM_COUNT>  (1) 
0

>  <PUBCHEM_COMPONENT_COUNT>  (1) 
1

>  <PUBCHEM_CACTVS_TAUTO_COUNT>  (1) 
19

>  <PUBCHEM_CONFORMER_ID>  (1) 
0000584300000001

>  <PUBCHEM_MMFF94_ENERGY>  (1) 
144.5955

>  <PUBCHEM_FEATURE_SELFOVERLAP>  (1) 
86.415

>  <PUBCHEM_SHAPE_FINGERPRINT>  (1) 
10580692 12 18410575067493759253
11061554 47 18260827068781092133
12013929 2 9223232940861878087
12202916 173 18409453570520018282
12664476 115 17530682104754098533
12838862 33 18187079555820892354
13811026 1 18408888447339012344
13947947 74 18411423899107933585
14344974 52 18413106186690932403
15061470 23 18341331116150387377
15326923 82 18272369780704325156
15347591 1 17898861411076208248
15392192 104 16271929294949645918
15890870 6 18333171665102155315
16087824 20 18411420605453807358
16728433 110 17989485233875471280
20105231 36 9943808885282767608
21057603 130 18131345332181962180
21792934 111 18409448112270414004
24771293 8 18271816683717091432
24893992 56 18040155141369020563
3092352 35 13262401073079097217
335352 9 18334864913345942910
4874694 18 18335423465538436866
6201320 215 15502642768075789214
9663363 56 18113899364041009192

>  <PUBCHEM_SHAPE_MULTIPOLES>  (1) 
861.92
47.72
2.8
1.17
42.54
0.54
-0.21
1.29
4.85
-2.18
-0.19
-0.37
-0.07
1.33

>  <PUBCHEM_SHAPE_SELFOVERLAP>  (1) 
1875.891

>  <PUBCHEM_SHAPE_VOLUME>  (1) 
470.3

>  <PUBCHEM_COORDINATE_TYPE>  (1) 
2
5
10

$$$$
