22598
     RDKit          3D

 24 25  0  0  1  0  0  0  0  0999 V2000
   -1.7920    2.6799   -0.2008 Cl  0  0  0  0  0  0  0  0  0  0  0  0
   -2.2562   -2.7445   -0.4839 Cl  0  0  0  0  0  0  0  0  0  0  0  0
    7.2199    2.4476   -0.2983 O   0  0  0  0  0  0  0  0  0  0  0  0
   -6.8328    1.4521    0.2336 O   0  0  0  0  0  0  0  0  0  0  0  0
   -7.0196   -0.7323    0.1226 O   0  0  0  0  0  0  0  0  0  0  0  0
    5.3347   -0.6855    0.0580 N   0  0  0  0  0  0  0  0  0  0  0  0
   -0.2148   -0.2385    0.6482 N   0  0  0  0  0  0  0  0  0  0  0  0
   -0.7586   -0.1338   -0.4763 N   0  0  0  0  0  0  0  0  0  0  0  0
   -6.3236    0.3115    0.1151 N   0  0  0  0  0  0  0  0  0  0  0  0
    6.2049    0.4044    0.4528 C   0  0  0  0  0  0  0  0  0  0  0  0
    3.9367   -0.5729    0.2063 C   0  0  0  0  0  0  0  0  0  0  0  0
    5.9187   -1.8871   -0.5041 C   0  0  0  0  0  0  0  0  0  0  0  0
    6.3940    1.3653   -0.7087 C   0  0  0  0  0  0  0  0  0  0  0  0
    3.3488    0.6848    0.3417 C   0  0  0  0  0  0  0  0  0  0  0  0
    3.1420   -1.7192    0.2183 C   0  0  0  0  0  0  0  0  0  0  0  0
    1.1714   -0.3502    0.5007 C   0  0  0  0  0  0  0  0  0  0  0  0
    1.9662    0.7961    0.4890 C   0  0  0  0  0  0  0  0  0  0  0  0
    1.7594   -1.6079    0.3653 C   0  0  0  0  0  0  0  0  0  0  0  0
   -2.1516   -0.0218   -0.3274 C   0  0  0  0  0  0  0  0  0  0  0  0
   -4.9156    0.1987   -0.0325 C   0  0  0  0  0  0  0  0  0  0  0  0
   -2.7391    1.2353   -0.1917 C   0  0  0  0  0  0  0  0  0  0  0  0
   -2.9442   -1.1688   -0.3157 C   0  0  0  0  0  0  0  0  0  0  0  0
   -4.1218    1.3456   -0.0441 C   0  0  0  0  0  0  0  0  0  0  0  0
   -4.3268   -1.0586   -0.1682 C   0  0  0  0  0  0  0  0  0  0  0  0
  1 21  1  0
  2 22  1  0
  3 13  1  0
  4  9  1  0
  5  9  2  0
  6 10  1  0
  6 11  1  0
  6 12  1  0
  7  8  2  0
  7 16  1  0
  8 19  1  0
  9 20  1  0
 10 13  1  0
 11 14  2  0
 11 15  1  0
 14 17  1  0
 15 18  2  0
 16 17  2  0
 16 18  1  0
 19 21  2  0
 19 22  1  0
 20 23  2  0
 20 24  1  0
 21 23  1  0
 22 24  2  0
M  CHG  2   4  -1   9   1
M  END
>  <PUBCHEM_COMPOUND_CID>  (1) 
22598

>  <PUBCHEM_CONFORMER_RMSD>  (1) 
0.8

>  <PUBCHEM_CONFORMER_DIVERSEORDER>  (1) 
1
5
3
7
6
4
2

>  <PUBCHEM_MMFF94_PARTIAL_CHARGES>  (1) 
31
1 -0.18
10 0.37
11 0.1
12 0.37
13 0.28
14 -0.15
15 -0.15
16 0.18
17 -0.15
18 -0.15
19 0.18
2 -0.18
20 0.13
21 0.18
22 0.18
23 -0.15
24 -0.15
3 -0.68
32 0.15
33 0.15
34 0.15
35 0.15
36 0.15
37 0.15
38 0.4
4 -0.52
5 -0.52
6 -0.84
7 -0.18
8 -0.18
9 0.91

>  <PUBCHEM_EFFECTIVE_ROTOR_COUNT>  (1) 
6

>  <PUBCHEM_PHARMACOPHORE_FEATURES>  (1) 
8
1 3 acceptor
1 3 donor
1 4 acceptor
1 4 anion
1 5 acceptor
1 6 cation
6 11 14 15 16 17 18 rings
6 19 20 21 22 23 24 rings

>  <PUBCHEM_HEAVY_ATOM_COUNT>  (1) 
24

>  <PUBCHEM_ATOM_DEF_STEREO_COUNT>  (1) 
0

>  <PUBCHEM_ATOM_UDEF_STEREO_COUNT>  (1) 
0

>  <PUBCHEM_BOND_DEF_STEREO_COUNT>  (1) 
0

>  <PUBCHEM_BOND_UDEF_STEREO_COUNT>  (1) 
0

>  <PUBCHEM_ISOTOPIC_ATOM_COUNT>  (1) 
0

>  <PUBCHEM_COMPONENT_COUNT>  (1) 
1

>  <PUBCHEM_CACTVS_TAUTO_COUNT>  (1) 
1

>  <PUBCHEM_CONFORMER_ID>  (1) 
0000584600000001

>  <PUBCHEM_MMFF94_ENERGY>  (1) 
79.4757

>  <PUBCHEM_FEATURE_SELFOVERLAP>  (1) 
40.676

>  <PUBCHEM_SHAPE_FINGERPRINT>  (1) 
10 15 18113335336646954368
10595046 47 18409446977586261786
10968037 39 18334857217138977703
11524674 6 16415476060735398735
12107183 9 17544470852001587570
12236239 1 18114180813617044771
12788726 201 17489027042021216667
12916748 109 18335420141185510208
13533116 47 17131551631076217270
13914758 101 11743847945427035771
14251764 18 18131069346822184559
14341114 176 18410294692308238358
14617045 38 18412265012745231219
14933364 13 18410576171427123744
15183329 4 17704078386714846082
17844677 252 18338804412401160260
18335252 98 18335425694515258547
18608769 82 18335142042006167515
20281389 69 18113615660292809092
21267235 1 18409733950332055963
221357 26 18342454820732810496
22224240 67 16950280723650207955
2297311 6 18340771451197828317
23402539 116 18272923922027702975
23522609 53 18128841714136132777
23559900 14 18271516593719013449
3004659 81 18339924823640985614
335352 9 18413102884493896405
34797466 226 18131639984904313684
350125 39 18411980264855715521
3545911 37 18412260623161657963
4073 2 18187368774428634698
4214541 1 18341047432520964234
4325135 7 18408887348001315124
4340502 62 16225760823058097562
4463277 17 18410011026829777777
59682541 35 17967542298364751017
59755656 215 18342741767144655902
59755656 520 17095241419426265819
6328613 192 18341897397985645721

>  <PUBCHEM_SHAPE_MULTIPOLES>  (1) 
460.12
18.8
2.44
0.73
5.12
0.13
-0.01
4.83
-1.02
0.72
-0.37
0.3
-0.02
-0.44

>  <PUBCHEM_SHAPE_SELFOVERLAP>  (1) 
958.256

>  <PUBCHEM_SHAPE_VOLUME>  (1) 
264.7

>  <PUBCHEM_COORDINATE_TYPE>  (1) 
2
5
10

$$$$
