22593
     RDKit          3D

 43 46  0  0  0  0  0  0  0  0999 V2000
    3.1676   -3.7417    2.8052 S   0  0  0  0  0  0  0  0  0  0  0  0
    6.6506   -0.0933   -3.2469 S   0  0  0  0  0  0  0  0  0  0  0  0
    1.6472    4.1600    1.4707 S   0  0  0  0  0  0  0  0  0  0  0  0
   -8.8876   -1.6987   -1.2940 S   0  0  0  0  0  0  0  0  0  0  0  0
    0.9730   -1.7702    2.3016 O   0  0  0  0  0  0  0  0  0  0  0  0
    2.0507   -4.8390    2.3380 O   0  0  0  0  0  0  0  0  0  0  0  0
    6.3035   -1.0621   -4.5174 O   0  0  0  0  0  0  0  0  0  0  0  0
    4.4645   -4.3967    2.7355 O   0  0  0  0  0  0  0  0  0  0  0  0
    2.7099   -3.1258    4.0398 O   0  0  0  0  0  0  0  0  0  0  0  0
    7.8093   -0.6447   -2.5619 O   0  0  0  0  0  0  0  0  0  0  0  0
    6.6651    1.2737   -3.7472 O   0  0  0  0  0  0  0  0  0  0  0  0
    2.4801    3.9925    0.0751 O   0  0  0  0  0  0  0  0  0  0  0  0
    1.4329    5.5842    1.6719 O   0  0  0  0  0  0  0  0  0  0  0  0
    2.2998    3.3537    2.4886 O   0  0  0  0  0  0  0  0  0  0  0  0
   -9.1552   -2.7190   -0.0447 O   0  0  0  0  0  0  0  0  0  0  0  0
   -8.7669   -2.4925   -2.5070 O   0  0  0  0  0  0  0  0  0  0  0  0
   -9.8808   -0.6389   -1.1964 O   0  0  0  0  0  0  0  0  0  0  0  0
    0.9065    0.1881    0.3789 N   0  0  0  0  0  0  0  0  0  0  0  0
    1.0808    1.1954    1.1003 N   0  0  0  0  0  0  0  0  0  0  0  0
   -3.6731    1.7365    0.4293 N   0  0  0  0  0  0  0  0  0  0  0  0
   -3.5494    0.6907   -0.2507 N   0  0  0  0  0  0  0  0  0  0  0  0
    4.2192   -1.3844   -0.2927 C   0  0  0  0  0  0  0  0  0  0  0  0
    3.1092   -0.5148   -0.4139 C   0  0  0  0  0  0  0  0  0  0  0  0
    2.0256   -0.6574    0.4682 C   0  0  0  0  0  0  0  0  0  0  0  0
    3.1279   -2.4985    1.5746 C   0  0  0  0  0  0  0  0  0  0  0  0
    4.2129   -2.3710    0.7069 C   0  0  0  0  0  0  0  0  0  0  0  0
    5.3029   -1.2419   -1.1746 C   0  0  0  0  0  0  0  0  0  0  0  0
    2.0364   -1.6432    1.4554 C   0  0  0  0  0  0  0  0  0  0  0  0
    5.2924   -0.2560   -2.1616 C   0  0  0  0  0  0  0  0  0  0  0  0
    3.1158    0.4718   -1.4133 C   0  0  0  0  0  0  0  0  0  0  0  0
    4.2009    0.5992   -2.2807 C   0  0  0  0  0  0  0  0  0  0  0  0
   -0.0380    2.0413    1.0111 C   0  0  0  0  0  0  0  0  0  0  0  0
    0.0901    3.4220    1.1628 C   0  0  0  0  0  0  0  0  0  0  0  0
   -1.2912    1.4798    0.7666 C   0  0  0  0  0  0  0  0  0  0  0  0
   -1.0351    4.2412    1.0702 C   0  0  0  0  0  0  0  0  0  0  0  0
   -2.4164    2.2990    0.6738 C   0  0  0  0  0  0  0  0  0  0  0  0
   -2.2883    3.6797    0.8257 C   0  0  0  0  0  0  0  0  0  0  0  0
   -7.3186   -0.9979   -0.9858 C   0  0  0  0  0  0  0  0  0  0  0  0
   -4.8122    0.1249   -0.4965 C   0  0  0  0  0  0  0  0  0  0  0  0
   -7.2142    0.1780   -0.2428 C   0  0  0  0  0  0  0  0  0  0  0  0
   -6.1699   -1.6124   -1.4843 C   0  0  0  0  0  0  0  0  0  0  0  0
   -5.9610    0.7394    0.0018 C   0  0  0  0  0  0  0  0  0  0  0  0
   -4.9167   -1.0509   -1.2396 C   0  0  0  0  0  0  0  0  0  0  0  0
  1  6  1  0
  1  8  2  0
  1  9  2  0
  1 25  1  0
  2  7  1  0
  2 10  2  0
  2 11  2  0
  2 29  1  0
  3 12  1  0
  3 13  2  0
  3 14  2  0
  3 33  1  0
  4 15  1  0
  4 16  2  0
  4 17  2  0
  4 38  1  0
  5 28  1  0
 18 19  2  0
 18 24  1  0
 19 32  1  0
 20 21  2  0
 20 36  1  0
 21 39  1  0
 22 23  2  0
 22 26  1  0
 22 27  1  0
 23 24  1  0
 23 30  1  0
 24 28  2  0
 25 26  2  0
 25 28  1  0
 27 29  2  0
 29 31  1  0
 30 31  2  0
 32 33  2  0
 32 34  1  0
 33 35  1  0
 34 36  2  0
 35 37  2  0
 36 37  1  0
 38 40  2  0
 38 41  1  0
 39 42  2  0
 39 43  1  0
 40 42  1  0
 41 43  2  0
M  END
>  <PUBCHEM_COMPOUND_CID>  (1) 
22593

>  <PUBCHEM_CONFORMER_RMSD>  (1) 
1

>  <PUBCHEM_CONFORMER_DIVERSEORDER>  (1) 
1
2
9
6
11
16
12
7
8
13
15
5
17
18
14
3
19
10
4

>  <PUBCHEM_MMFF94_PARTIAL_CHARGES>  (1) 
57
1 1.49
10 -0.65
11 -0.65
12 -0.68
13 -0.65
14 -0.65
15 -0.68
16 -0.65
17 -0.65
18 -0.18
19 -0.18
2 1.49
20 -0.18
21 -0.18
24 0.18
25 -0.01
26 -0.15
27 -0.15
28 0.08
29 -0.01
3 1.49
30 -0.15
31 -0.15
32 0.18
33 -0.01
34 -0.15
35 -0.15
36 0.18
37 -0.15
38 -0.01
39 0.18
4 1.49
40 -0.15
41 -0.15
42 -0.15
43 -0.15
44 0.15
45 0.15
46 0.15
47 0.15
48 0.45
49 0.15
5 -0.53
50 0.15
51 0.15
52 0.5
53 0.5
54 0.15
55 0.15
56 0.15
57 0.15
58 0.5
59 0.5
6 -0.68
7 -0.68
8 -0.65
9 -0.65

>  <PUBCHEM_EFFECTIVE_ROTOR_COUNT>  (1) 
8

>  <PUBCHEM_PHARMACOPHORE_FEATURES>  (1) 
21
1 10 acceptor
1 11 acceptor
1 12 acceptor
1 13 acceptor
1 14 acceptor
1 15 acceptor
1 16 acceptor
1 17 acceptor
1 5 donor
1 6 acceptor
1 7 acceptor
1 8 acceptor
1 9 acceptor
4 1 6 8 9 anion
4 2 7 10 11 anion
4 3 12 13 14 anion
4 4 15 16 17 anion
6 22 23 24 25 26 28 rings
6 22 23 27 29 30 31 rings
6 32 33 34 35 36 37 rings
6 38 39 40 41 42 43 rings

>  <PUBCHEM_HEAVY_ATOM_COUNT>  (1) 
43

>  <PUBCHEM_ATOM_DEF_STEREO_COUNT>  (1) 
0

>  <PUBCHEM_ATOM_UDEF_STEREO_COUNT>  (1) 
0

>  <PUBCHEM_BOND_DEF_STEREO_COUNT>  (1) 
0

>  <PUBCHEM_BOND_UDEF_STEREO_COUNT>  (1) 
0

>  <PUBCHEM_ISOTOPIC_ATOM_COUNT>  (1) 
0

>  <PUBCHEM_COMPONENT_COUNT>  (1) 
1

>  <PUBCHEM_CACTVS_TAUTO_COUNT>  (1) 
3

>  <PUBCHEM_CONFORMER_ID>  (1) 
0000584100000001

>  <PUBCHEM_MMFF94_ENERGY>  (1) 
99.1545

>  <PUBCHEM_FEATURE_SELFOVERLAP>  (1) 
106.845

>  <PUBCHEM_SHAPE_FINGERPRINT>  (1) 
10622 236 17899403195758343411
11049842 53 13295677100545424124
11135926 11 17677354735184916786
11607047 403 18266152064113798816
11621639 208 17836082647669998191
117089 54 17703525310843915741
11966995 16 18261375773309097055
12342043 65 16415202209161763076
13540713 5 17973450897268318376
13673619 4 16128381428539584588
13690498 29 18341057324501443757
13782708 43 16414355538396252572
14767858 380 18261968370545704788
15684393 108 17894912915526190199
17138139 8 18338811009534581224
19246450 95 11383286115010575367
19315092 285 18042398028777205214
19841028 212 18128525150711157567
208703 8 18131637781180292589
21585481 104 16878776081968481103
23522609 53 18119548560844433305
24893989 43 17914319424073173911
255183 451 18060423538452212277
3388396 114 17895207549591749348
44344687 77 18269008638267106233
44426701 196 16827281949135617542
57527295 17 18262807258973504849
6058803 2 17757561750774082328
6697151 62 17986078939465784629
6700243 42 17701831977127737764

>  <PUBCHEM_SHAPE_MULTIPOLES>  (1) 
804.09
23.39
6.16
3.73
55.08
4.82
1.27
-22.01
25.02
-2.95
-6.93
-9.85
-3.14
-5.45

>  <PUBCHEM_SHAPE_SELFOVERLAP>  (1) 
1720.865

>  <PUBCHEM_SHAPE_VOLUME>  (1) 
446.1

>  <PUBCHEM_COORDINATE_TYPE>  (1) 
2
5
10

$$$$
