22591
     RDKit          3D

  8  7  0  0  0  0  0  0  0  0999 V2000
    1.1582   -1.3858   -0.0034 O   0  0  0  0  0  0  0  0  0  0  0  0
    2.2502    0.6647    0.0049 N   0  0  0  0  0  0  0  0  0  0  0  0
   -1.3972   -0.2380   -0.0276 C   0  0  0  0  0  0  0  0  0  0  0  0
   -0.1536    0.6480   -0.0164 C   0  0  0  0  0  0  0  0  0  0  0  0
   -2.6760    0.5977    0.0004 C   0  0  0  0  0  0  0  0  0  0  0  0
   -3.9160   -0.2818    0.0281 C   0  0  0  0  0  0  0  0  0  0  0  0
    1.1332   -0.1581   -0.0051 C   0  0  0  0  0  0  0  0  0  0  0  0
    3.6012    0.1532    0.0190 C   0  0  0  0  0  0  0  0  0  0  0  0
  1  7  2  0
  2  7  1  0
  2  8  1  0
  3  4  1  0
  3  5  1  0
  4  7  1  0
  5  6  1  0
M  END
>  <PUBCHEM_COMPOUND_CID>  (1) 
22591

>  <PUBCHEM_CONFORMER_RMSD>  (1) 
0.6

>  <PUBCHEM_CONFORMER_DIVERSEORDER>  (1) 
1
8
13
15
17
4
16
14
18
3
6
12
9
2
7
11
10
5

>  <PUBCHEM_MMFF94_PARTIAL_CHARGES>  (1) 
6
1 -0.57
18 0.37
2 -0.73
4 0.06
7 0.57
8 0.3

>  <PUBCHEM_EFFECTIVE_ROTOR_COUNT>  (1) 
4

>  <PUBCHEM_PHARMACOPHORE_FEATURES>  (1) 
3
1 1 acceptor
1 2 donor
1 6 hydrophobe

>  <PUBCHEM_HEAVY_ATOM_COUNT>  (1) 
8

>  <PUBCHEM_ATOM_DEF_STEREO_COUNT>  (1) 
0

>  <PUBCHEM_ATOM_UDEF_STEREO_COUNT>  (1) 
0

>  <PUBCHEM_BOND_DEF_STEREO_COUNT>  (1) 
0

>  <PUBCHEM_BOND_UDEF_STEREO_COUNT>  (1) 
0

>  <PUBCHEM_ISOTOPIC_ATOM_COUNT>  (1) 
0

>  <PUBCHEM_COMPONENT_COUNT>  (1) 
1

>  <PUBCHEM_CACTVS_TAUTO_COUNT>  (1) 
2

>  <PUBCHEM_CONFORMER_ID>  (1) 
0000583F00000001

>  <PUBCHEM_MMFF94_ENERGY>  (1) 
0.5268

>  <PUBCHEM_FEATURE_SELFOVERLAP>  (1) 
15.223

>  <PUBCHEM_SHAPE_FINGERPRINT>  (1) 
10219947 1 17822012016705415284
11062470 55 14345793855099797245
12932764 1 16701726173458576769
14325111 11 18410856555344835269
14390081 3 18343862212506063097
20645477 70 18267015069030631055
20719005 15 18410575097864517899
23235685 24 18408036325210015050
29004967 10 18187370912989518561
3248919 1 16660939793952783381
5460574 1 9295288339717629069

>  <PUBCHEM_SHAPE_MULTIPOLES>  (1) 
153.79
6.4
0.95
0.59
1.29
0.17
0
-0.17
0.09
-0.14
0
0.04
-0.01
0.01

>  <PUBCHEM_SHAPE_SELFOVERLAP>  (1) 
273.876

>  <PUBCHEM_SHAPE_VOLUME>  (1) 
100.7

>  <PUBCHEM_COORDINATE_TYPE>  (1) 
2
5
10

$$$$
