22601
     RDKit          3D

 11 11  0  0  0  0  0  0  0  0999 V2000
    0.2375    0.6226   -0.0001 O   0  0  0  0  0  0  0  0  0  0  0  0
    3.6027   -0.3198    0.0011 O   0  0  0  0  0  0  0  0  0  0  0  0
    2.6356    1.6557   -0.0013 O   0  0  0  0  0  0  0  0  0  0  0  0
   -4.3803    0.7133    0.0045 O   0  0  0  0  0  0  0  0  0  0  0  0
    2.5563    0.3923    0.0001 N   0  0  0  0  0  0  0  0  0  0  0  0
   -3.2815   -0.1587   -0.0062 N   0  0  0  0  0  0  0  0  0  0  0  0
   -0.8760   -0.1562    0.0004 C   0  0  0  0  0  0  0  0  0  0  0  0
    1.3023   -0.2215   -0.0001 C   0  0  0  0  0  0  0  0  0  0  0  0
   -0.5340   -1.4884    0.0008 C   0  0  0  0  0  0  0  0  0  0  0  0
    0.8807   -1.5309    0.0004 C   0  0  0  0  0  0  0  0  0  0  0  0
   -2.1432    0.4916    0.0004 C   0  0  0  0  0  0  0  0  0  0  0  0
  1  7  1  0
  1  8  1  0
  2  5  1  0
  3  5  2  0
  4  6  1  0
  5  8  1  0
  6 11  2  0
  7  9  2  0
  7 11  1  0
  8 10  2  0
  9 10  1  0
M  CHG  2   2  -1   5   1
M  END
>  <PUBCHEM_COMPOUND_CID>  (1) 
22601

>  <PUBCHEM_CONFORMER_RMSD>  (1) 
0.4

>  <PUBCHEM_CONFORMER_DIVERSEORDER>  (1) 
1

>  <PUBCHEM_MMFF94_PARTIAL_CHARGES>  (1) 
15
1 -0.28
10 -0.15
11 0.47
12 0.15
13 0.15
14 0.06
15 0.4
2 -0.52
3 -0.52
4 -0.34
5 0.96
6 -0.51
7 0.05
8 0.22
9 -0.15

>  <PUBCHEM_EFFECTIVE_ROTOR_COUNT>  (1) 
2

>  <PUBCHEM_PHARMACOPHORE_FEATURES>  (1) 
7
1 1 acceptor
1 2 acceptor
1 2 anion
1 3 acceptor
1 4 anion
1 6 acceptor
5 1 7 8 9 10 rings

>  <PUBCHEM_HEAVY_ATOM_COUNT>  (1) 
11

>  <PUBCHEM_ATOM_DEF_STEREO_COUNT>  (1) 
0

>  <PUBCHEM_ATOM_UDEF_STEREO_COUNT>  (1) 
0

>  <PUBCHEM_BOND_DEF_STEREO_COUNT>  (1) 
0

>  <PUBCHEM_BOND_UDEF_STEREO_COUNT>  (1) 
1

>  <PUBCHEM_ISOTOPIC_ATOM_COUNT>  (1) 
0

>  <PUBCHEM_COMPONENT_COUNT>  (1) 
1

>  <PUBCHEM_CACTVS_TAUTO_COUNT>  (1) 
2

>  <PUBCHEM_CONFORMER_ID>  (1) 
0000584900000001

>  <PUBCHEM_MMFF94_ENERGY>  (1) 
16.3516

>  <PUBCHEM_FEATURE_SELFOVERLAP>  (1) 
35.614

>  <PUBCHEM_SHAPE_FINGERPRINT>  (1) 
10219947 1 18187086152389187229
11062470 55 11891335348280760959
12932764 1 17168410640946323338
13380535 76 18411700984649640459
14325111 11 18410855498956966759
170605 34 18409449176398624707
20645477 70 18268705001359745215
21028194 46 18335422369724917124
21040471 1 18410856598484659138
22485316 2 9223231828016805985
23235685 24 18410568496193809355
23402539 116 17988633095204901732
23402655 69 18269824338746262341
366044 4 18411418418751015802

>  <PUBCHEM_SHAPE_MULTIPOLES>  (1) 
192.94
5.81
1.37
0.56
3.19
0.19
0
-2.07
0
-0.55
0
0.02
0.03
0

>  <PUBCHEM_SHAPE_SELFOVERLAP>  (1) 
400.724

>  <PUBCHEM_SHAPE_VOLUME>  (1) 
110.9

>  <PUBCHEM_COORDINATE_TYPE>  (1) 
2
5
10

$$$$
