22609
     RDKit          3D

 22 23  0  0  0  0  0  0  0  0999 V2000
    4.0942   -3.7287   -0.5077 Cl  0  0  0  0  0  0  0  0  0  0  0  0
   -6.4435    0.5739    0.0854 Cl  0  0  0  0  0  0  0  0  0  0  0  0
    1.9125    1.5795    0.7430 O   0  0  0  0  0  0  0  0  0  0  0  0
   -0.6478   -2.6643   -0.4063 O   0  0  0  0  0  0  0  0  0  0  0  0
    1.6130    4.7360   -0.9335 O   0  0  0  0  0  0  0  0  0  0  0  0
    0.1590    3.6416    0.4360 O   0  0  0  0  0  0  0  0  0  0  0  0
    0.1602   -0.5339    0.1537 N   0  0  0  0  0  0  0  0  0  0  0  0
    1.5644   -0.7205    0.1556 C   0  0  0  0  0  0  0  0  0  0  0  0
    2.4026    0.3417    0.4505 C   0  0  0  0  0  0  0  0  0  0  0  0
    2.0678   -1.9767   -0.1407 C   0  0  0  0  0  0  0  0  0  0  0  0
   -2.2099   -0.9744   -0.0669 C   0  0  0  0  0  0  0  0  0  0  0  0
   -0.8447   -1.4734   -0.1157 C   0  0  0  0  0  0  0  0  0  0  0  0
    3.7833    0.1426    0.4491 C   0  0  0  0  0  0  0  0  0  0  0  0
    3.4485   -2.1758   -0.1424 C   0  0  0  0  0  0  0  0  0  0  0  0
    4.3062   -1.1162    0.1527 C   0  0  0  0  0  0  0  0  0  0  0  0
   -3.2586   -1.8406    0.2424 C   0  0  0  0  0  0  0  0  0  0  0  0
   -2.4705    0.3705   -0.3294 C   0  0  0  0  0  0  0  0  0  0  0  0
    2.3095    2.6511   -0.1099 C   0  0  0  0  0  0  0  0  0  0  0  0
   -4.5680   -1.3620    0.2889 C   0  0  0  0  0  0  0  0  0  0  0  0
   -3.7799    0.8491   -0.2828 C   0  0  0  0  0  0  0  0  0  0  0  0
   -4.8287   -0.0172    0.0262 C   0  0  0  0  0  0  0  0  0  0  0  0
    1.2306    3.6977   -0.1482 C   0  0  0  0  0  0  0  0  0  0  0  0
  1 14  1  0
  2 21  1  0
  3  9  1  0
  3 18  1  0
  4 12  2  0
  5 22  1  0
  6 22  2  0
  7  8  1  0
  7 12  1  0
  8  9  2  0
  8 10  1  0
  9 13  1  0
 10 14  2  0
 11 12  1  0
 11 16  2  0
 11 17  1  0
 13 15  2  0
 14 15  1  0
 16 19  1  0
 17 20  2  0
 18 22  1  0
 19 21  2  0
 20 21  1  0
M  END
>  <PUBCHEM_COMPOUND_CID>  (1) 
22609

>  <PUBCHEM_CONFORMER_RMSD>  (1) 
0.8

>  <PUBCHEM_CONFORMER_DIVERSEORDER>  (1) 
1
15
19
27
24
9
21
17
6
23
10
11
29
25
12
14
22
5
3
2
13
20
4
18
16
26
28
7
8

>  <PUBCHEM_MMFF94_PARTIAL_CHARGES>  (1) 
31
1 -0.18
10 -0.15
11 0.09
12 0.54
13 -0.15
14 0.18
15 -0.15
16 -0.15
17 -0.15
18 0.34
19 -0.15
2 -0.18
20 -0.15
21 0.18
22 0.66
23 0.37
24 0.15
25 0.15
26 0.15
27 0.15
28 0.15
3 -0.36
31 0.15
32 0.15
33 0.5
4 -0.57
5 -0.65
6 -0.57
7 -0.55
8 0.12
9 0.08

>  <PUBCHEM_EFFECTIVE_ROTOR_COUNT>  (1) 
6

>  <PUBCHEM_PHARMACOPHORE_FEATURES>  (1) 
8
1 3 acceptor
1 4 acceptor
1 5 acceptor
1 6 acceptor
1 7 donor
3 5 6 22 anion
6 11 16 17 19 20 21 rings
6 8 9 10 13 14 15 rings

>  <PUBCHEM_HEAVY_ATOM_COUNT>  (1) 
22

>  <PUBCHEM_ATOM_DEF_STEREO_COUNT>  (1) 
0

>  <PUBCHEM_ATOM_UDEF_STEREO_COUNT>  (1) 
0

>  <PUBCHEM_BOND_DEF_STEREO_COUNT>  (1) 
0

>  <PUBCHEM_BOND_UDEF_STEREO_COUNT>  (1) 
0

>  <PUBCHEM_ISOTOPIC_ATOM_COUNT>  (1) 
0

>  <PUBCHEM_COMPONENT_COUNT>  (1) 
1

>  <PUBCHEM_CACTVS_TAUTO_COUNT>  (1) 
2

>  <PUBCHEM_CONFORMER_ID>  (1) 
0000585100000001

>  <PUBCHEM_MMFF94_ENERGY>  (1) 
66.7061

>  <PUBCHEM_FEATURE_SELFOVERLAP>  (1) 
40.659

>  <PUBCHEM_SHAPE_FINGERPRINT>  (1) 
10074138 170 15665594484785927083
10411042 1 18267022743847187726
10688039 33 18190744137428120004
10763959 59 18334287635835595405
10937287 8 17617097348665400757
11045977 3 18113623400340945467
116883 192 18196372516424157726
12166972 35 18201438056624130513
12173636 292 17331394784126257332
12403259 226 18335135376137295959
12645989 146 18270676459772934015
12788726 201 17901388896773656722
13052359 8 17329142469544198306
138480 1 18410574006848392356
14341114 176 18412549782293966075
14790565 3 17904765836364360300
14866123 147 17113537017860711442
15003188 100 18336809950027447837
15081414 286 18411138022043166020
151778 21 18193279821737607177
15210252 30 18187376458430978532
15420108 30 17912058841414286464
16087824 20 18194403282309176197
17844677 252 18339651126596678251
18335252 114 18266447734289887261
18785283 64 18191024701871692344
21065198 57 18410575119614206795
21133410 127 17823971449976158597
21285901 2 17915467082336624302
21478907 32 18050849918852088522
21641784 216 18191045417200575292
21860390 5 18343585174214524756
221357 26 18337669707352567999
23419403 2 17056081093316680442
23558518 356 18049708913345312530
23559900 14 18410851071188965931
3004659 81 18188496744868838454
3103668 31 17830457172166337277
345986 75 17316733522894247898
4015057 19 18339350968722830091
474 4 18193269930137313129
5104073 3 18411136944281052507
58779409 8 17185887091050456822
6443956 14 18408605859717514380
7164475 11 18120943802756228558
7364860 26 18266178516469155548
9709674 26 18337392746408253531
9981440 41 17689429812088449240

>  <PUBCHEM_SHAPE_MULTIPOLES>  (1) 
428.03
10.86
4.84
0.72
13.03
5.89
0.01
-5.01
-0.29
-5.52
1.03
-0.13
0.12
0.44

>  <PUBCHEM_SHAPE_SELFOVERLAP>  (1) 
897.456

>  <PUBCHEM_SHAPE_VOLUME>  (1) 
242.7

>  <PUBCHEM_COORDINATE_TYPE>  (1) 
2
5
10

$$$$
