22614
     RDKit          3D

 18 19  0  0  1  0  0  0  0  0999 V2000
   -1.7074   -2.3334   -0.9581 O   0  0  0  0  0  0  0  0  0  0  0  0
    0.7332   -0.1721    0.5863 O   0  0  0  0  0  0  0  0  0  0  0  0
    0.8140   -1.5368   -1.3090 O   0  0  0  0  0  0  0  0  0  0  0  0
   -1.2279   -1.4294    0.0551 C   0  0  0  0  0  0  0  0  0  0  0  0
   -2.1146   -0.2301    0.0624 C   0  0  0  0  0  0  0  0  0  0  0  0
   -1.1610   -2.2766    1.3495 C   0  0  0  0  0  0  0  0  0  0  0  0
    0.2187   -1.0764   -0.3420 C   0  0  0  0  0  0  0  0  0  0  0  0
   -2.8006    0.1371   -1.0953 C   0  0  0  0  0  0  0  0  0  0  0  0
   -2.2581    0.5242    1.2270 C   0  0  0  0  0  0  0  0  0  0  0  0
   -3.6300    1.2585   -1.0886 C   0  0  0  0  0  0  0  0  0  0  0  0
   -3.0877    1.6456    1.2337 C   0  0  0  0  0  0  0  0  0  0  0  0
   -3.7736    2.0127    0.0758 C   0  0  0  0  0  0  0  0  0  0  0  0
    2.0472    0.2081    0.3072 C   0  0  0  0  0  0  0  0  0  0  0  0
    2.2627    1.3075   -0.4944 C   0  0  0  0  0  0  0  0  0  0  0  0
    3.0784   -0.5312    0.8439 C   0  0  0  0  0  0  0  0  0  0  0  0
    3.5756    1.6868   -0.7737 C   0  0  0  0  0  0  0  0  0  0  0  0
    4.3914   -0.1518    0.5645 C   0  0  0  0  0  0  0  0  0  0  0  0
    4.6398    0.9573   -0.2442 C   0  0  0  0  0  0  0  0  0  0  0  0
  1  4  1  0
  2  7  1  0
  2 13  1  0
  3  7  2  0
  4  5  1  0
  4  6  1  0
  4  7  1  0
  5  8  2  0
  5  9  1  0
  8 10  1  0
  9 11  2  0
 10 12  2  0
 11 12  1  0
 13 14  2  0
 13 15  1  0
 14 16  1  0
 15 17  2  0
 16 18  2  0
 17 18  1  0
M  END
>  <PUBCHEM_COMPOUND_CID>  (1) 
22614

>  <PUBCHEM_CONFORMER_RMSD>  (1) 
0.6

>  <PUBCHEM_CONFORMER_DIVERSEORDER>  (1) 
9
119
51
110
102
88
71
7
56
68
66
101
72
97
30
25
41
27
87
122
74
96
82
99
75
94
35
38
118
76
17
85
49
57
65
58
103
106
45
31
32
115
89
60
78
105
77
70
109
91
100
98
44
47
6
67
117
90
92
34
63
62
53
59
64
52
24
113
19
73
79
21
81
14
5
36
50
28
80
48
93
114
40
61
108
12
120
2
43
86
39
22
37
11
54
83
42
33
46
107
84
55
8
29
26
111
15
20
104
16
116
23
10
13
121
1
69
4
3
18
112
95

>  <PUBCHEM_MMFF94_PARTIAL_CHARGES>  (1) 
28
1 -0.68
10 -0.15
11 -0.15
12 -0.15
13 0.08
14 -0.15
15 -0.15
16 -0.15
17 -0.15
18 -0.15
2 -0.23
22 0.15
23 0.15
24 0.4
25 0.15
26 0.15
27 0.15
28 0.15
29 0.15
3 -0.57
30 0.15
31 0.15
32 0.15
4 0.48
5 -0.14
7 0.66
8 -0.15
9 -0.15

>  <PUBCHEM_EFFECTIVE_ROTOR_COUNT>  (1) 
4

>  <PUBCHEM_PHARMACOPHORE_FEATURES>  (1) 
5
1 1 acceptor
1 1 donor
1 3 acceptor
6 13 14 15 16 17 18 rings
6 5 8 9 10 11 12 rings

>  <PUBCHEM_HEAVY_ATOM_COUNT>  (1) 
18

>  <PUBCHEM_ATOM_DEF_STEREO_COUNT>  (1) 
0

>  <PUBCHEM_ATOM_UDEF_STEREO_COUNT>  (1) 
1

>  <PUBCHEM_BOND_DEF_STEREO_COUNT>  (1) 
0

>  <PUBCHEM_BOND_UDEF_STEREO_COUNT>  (1) 
0

>  <PUBCHEM_ISOTOPIC_ATOM_COUNT>  (1) 
0

>  <PUBCHEM_COMPONENT_COUNT>  (1) 
1

>  <PUBCHEM_CACTVS_TAUTO_COUNT>  (1) 
1

>  <PUBCHEM_CONFORMER_ID>  (1) 
0000585600000009

>  <PUBCHEM_MMFF94_ENERGY>  (1) 
54.4022

>  <PUBCHEM_FEATURE_SELFOVERLAP>  (1) 
25.38

>  <PUBCHEM_SHAPE_FINGERPRINT>  (1) 
11370993 144 15502647153353532640
11552529 35 15358274795536836144
12077114 3 17967249784578297061
12173636 292 18115869775030816682
122479 349 18407762525397943171
12633257 1 17895463757497007114
12788726 201 18121764278137101323
12892183 10 16226331408857008009
13103583 49 8213285451467917837
13583140 156 17603871100172231865
14004511 7 18334856125932486936
14123260 362 18342460339375363137
15342168 16 18339371760243376309
15534591 1 18408038528771188491
1741750 31 18413673512740969378
17834072 32 18409451375237705653
18186145 218 18269845207121876303
18981168 100 18054543324127030679
19765921 60 18269832026368151747
20361792 2 9727338122548370425
204376 136 18334014956587487483
21524375 3 18411133606890359467
21731228 192 18040440962409425491
22907989 373 18056761155149938661
2306618 200 17702956961937514475
231179 274 18187363173395225620
23402539 116 18340477967709121967
235170 7 14908175335351177784
23559900 14 17775851216596122544
27216 239 18040723571437058113
2838139 119 17533755153923445869
4028521 119 17989201517136873881
474 4 18339080363649060153
4921388 177 15267058173020056933
5104073 3 18114738343781052096
74978 22 18341327907108100008
9981440 41 18272082799152533378

>  <PUBCHEM_SHAPE_MULTIPOLES>  (1) 
352.82
8.34
2.26
1.27
5.63
0.59
-0.03
-5.08
-0.09
-1.26
0.06
-0.73
0.14
-0.59

>  <PUBCHEM_SHAPE_SELFOVERLAP>  (1) 
758.07

>  <PUBCHEM_SHAPE_VOLUME>  (1) 
193

>  <PUBCHEM_COORDINATE_TYPE>  (1) 
2
5
10

$$$$
