22622
     RDKit          3D

 18 18  0  0  0  0  0  0  0  0999 V2000
   -2.1376    0.5098   -0.6855 O   0  0  0  0  0  0  0  0  0  0  0  0
   -2.4097   -0.5512    1.3526 O   0  0  0  0  0  0  0  0  0  0  0  0
    2.6102   -0.4376   -0.4443 N   0  0  0  0  0  0  0  0  0  0  0  0
   -4.1536   -0.6045   -0.1854 N   0  0  0  0  0  0  0  0  0  0  0  0
    2.3896   -1.7780    0.2512 C   0  0  0  0  0  0  0  0  0  0  0  0
    3.9254    0.1501    0.0632 C   0  0  0  0  0  0  0  0  0  0  0  0
    1.4167    0.4736   -0.1476 C   0  0  0  0  0  0  0  0  0  0  0  0
    2.7234   -0.6218   -1.9549 C   0  0  0  0  0  0  0  0  0  0  0  0
    2.2992   -1.5553    1.7451 C   0  0  0  0  0  0  0  0  0  0  0  0
    5.0516   -0.8141   -0.2391 C   0  0  0  0  0  0  0  0  0  0  0  0
    0.2007    0.0466   -0.5648 C   0  0  0  0  0  0  0  0  0  0  0  0
    1.6768    1.6303    0.5076 C   0  0  0  0  0  0  0  0  0  0  0  0
   -0.8871    0.8768   -0.2939 C   0  0  0  0  0  0  0  0  0  0  0  0
    0.5890    2.4607    0.7783 C   0  0  0  0  0  0  0  0  0  0  0  0
   -0.6929    2.0838    0.3777 C   0  0  0  0  0  0  0  0  0  0  0  0
   -2.8742   -0.2473    0.2544 C   0  0  0  0  0  0  0  0  0  0  0  0
   -5.0310   -1.3862    0.6741 C   0  0  0  0  0  0  0  0  0  0  0  0
   -4.6965   -0.2358   -1.4888 C   0  0  0  0  0  0  0  0  0  0  0  0
  1 13  1  0
  1 16  1  0
  2 16  2  0
  3  5  1  0
  3  6  1  0
  3  7  1  0
  3  8  1  0
  4 16  1  0
  4 17  1  0
  4 18  1  0
  5  9  1  0
  6 10  1  0
  7 11  2  0
  7 12  1  0
 11 13  1  0
 12 14  2  0
 13 15  2  0
 14 15  1  0
M  CHG  1   3   1
M  END
>  <PUBCHEM_COMPOUND_CID>  (1) 
22622

>  <PUBCHEM_CONFORMER_RMSD>  (1) 
0.8

>  <PUBCHEM_CONFORMER_DIVERSEORDER>  (1) 
1
36
27
52
43
63
47
24
62
9
13
23
41
16
31
60
59
38
61
34
19
6
11
58
49
75
76
17
7
67
50
71
45
12
54
33
53
14
64
30
8
46
37
72
44
66
73
4
51
29
18
35
20
65
26
32
57
15
69
2
68
39
56
3
21
48
5
40
77
10
22
25
74
70
55
28
42

>  <PUBCHEM_MMFF94_PARTIAL_CHARGES>  (1) 
20
1 -0.23
11 -0.15
12 -0.15
13 0.08
14 -0.15
15 -0.15
16 0.78
17 0.3
18 0.3
2 -0.57
3 -0.87
32 0.15
33 0.15
34 0.15
35 0.15
4 -0.66
5 0.5
6 0.5
7 0.36
8 0.5

>  <PUBCHEM_EFFECTIVE_ROTOR_COUNT>  (1) 
6

>  <PUBCHEM_PHARMACOPHORE_FEATURES>  (1) 
3
1 2 acceptor
1 3 cation
6 7 11 12 13 14 15 rings

>  <PUBCHEM_HEAVY_ATOM_COUNT>  (1) 
18

>  <PUBCHEM_ATOM_DEF_STEREO_COUNT>  (1) 
0

>  <PUBCHEM_ATOM_UDEF_STEREO_COUNT>  (1) 
0

>  <PUBCHEM_BOND_DEF_STEREO_COUNT>  (1) 
0

>  <PUBCHEM_BOND_UDEF_STEREO_COUNT>  (1) 
0

>  <PUBCHEM_ISOTOPIC_ATOM_COUNT>  (1) 
0

>  <PUBCHEM_COMPONENT_COUNT>  (1) 
1

>  <PUBCHEM_CACTVS_TAUTO_COUNT>  (1) 
1

>  <PUBCHEM_CONFORMER_ID>  (1) 
0000585E00000001

>  <PUBCHEM_MMFF94_ENERGY>  (1) 
77.7097

>  <PUBCHEM_FEATURE_SELFOVERLAP>  (1) 
15.223

>  <PUBCHEM_SHAPE_FINGERPRINT>  (1) 
10447042 23 18335128783262561998
11370993 70 16805323301083231402
11543360 7 16515973648259366591
11796584 16 17967525744912198651
11806522 49 18408887334810444884
12251169 10 17132116857298430341
12363563 72 18341618092030320239
12553582 1 18342166765586679519
12707595 3 18412260649126562599
12824470 246 18042680611649711136
12892183 10 15267069103273858086
13464513 79 18202282532777618366
14115302 16 17894639179325932566
14251764 30 16343436007644230486
14252887 29 17989494013083717886
14787075 74 18336549425690112352
15375462 189 18410568500583988526
15848700 24 18272082794835999093
16945 1 17968959525423258704
1813 80 17988097633079416604
18186145 218 18186793712988814677
18222031 100 17917417731505863663
19862831 5 13912323477671253741
200 152 18334576823924352438
20028762 73 17774439524828319911
20281475 54 18259707787613375017
20369508 70 18337099146727498153
20645477 70 18270956955485869261
20671657 53 18410296917170213681
20871998 22 17988936526207494884
20871999 31 17603861170434846277
21250096 35 18411413995229872675
21501925 9 18202561791276988525
2255824 54 18268432510715970405
23402539 116 18271523105179324518
23402655 69 12612746930397869685
23559900 14 17968089867233410253
2871803 45 18333448725205231330
465052 167 18272375312527302719
4990 188 14634870833972659681
5104073 3 17987232223761691154
83771 10 18411702088424268729
8863177 126 18045514255601133907
94968 8 18409452500576620306

>  <PUBCHEM_SHAPE_MULTIPOLES>  (1) 
348.73
9.27
1.99
1.36
6.58
0.95
0.16
-5.28
1.18
-0.49
-0.72
-0.08
-0.45
0.25

>  <PUBCHEM_SHAPE_SELFOVERLAP>  (1) 
704.072

>  <PUBCHEM_SHAPE_VOLUME>  (1) 
206.3

>  <PUBCHEM_COORDINATE_TYPE>  (1) 
2
5
10

$$$$
