22629
     RDKit          3D

 16 16  0  0  0  0  0  0  0  0999 V2000
   -0.0419    0.0768    0.0899 O   0  0  0  0  0  0  0  0  0  0  0  0
    1.0941    2.0083    0.6170 O   0  0  0  0  0  0  0  0  0  0  0  0
    3.5331    1.9395   -0.5786 O   0  0  0  0  0  0  0  0  0  0  0  0
   -3.7819    0.4352    0.0647 C   0  0  0  0  0  0  0  0  0  0  0  0
   -4.9505   -0.5236   -0.1800 C   0  0  0  0  0  0  0  0  0  0  0  0
   -2.4129   -0.2328   -0.0537 C   0  0  0  0  0  0  0  0  0  0  0  0
   -6.3199    0.1505   -0.0858 C   0  0  0  0  0  0  0  0  0  0  0  0
   -1.2851    0.7507    0.2296 C   0  0  0  0  0  0  0  0  0  0  0  0
   -7.4465   -0.8562   -0.2641 C   0  0  0  0  0  0  0  0  0  0  0  0
    1.0735    0.8259    0.3125 C   0  0  0  0  0  0  0  0  0  0  0  0
    2.3008    0.0094    0.1342 C   0  0  0  0  0  0  0  0  0  0  0  0
    3.4667    0.6066   -0.3015 C   0  0  0  0  0  0  0  0  0  0  0  0
    2.2298   -1.3413    0.4144 C   0  0  0  0  0  0  0  0  0  0  0  0
    4.6084   -0.1782   -0.4637 C   0  0  0  0  0  0  0  0  0  0  0  0
    3.3716   -2.1261    0.2521 C   0  0  0  0  0  0  0  0  0  0  0  0
    4.5608   -1.5445   -0.1869 C   0  0  0  0  0  0  0  0  0  0  0  0
  1  8  1  0
  1 10  1  0
  2 10  2  0
  3 12  1  0
  4  5  1  0
  4  6  1  0
  5  7  1  0
  6  8  1  0
  7  9  1  0
 10 11  1  0
 11 12  2  0
 11 13  1  0
 12 14  1  0
 13 15  2  0
 14 16  2  0
 15 16  1  0
M  END
>  <PUBCHEM_COMPOUND_CID>  (1) 
22629

>  <PUBCHEM_CONFORMER_RMSD>  (1) 
0.8

>  <PUBCHEM_CONFORMER_DIVERSEORDER>  (1) 
1
111
97
199
102
60
143
109
178
13
124
125
114
46
195
26
59
136
159
5
128
101
17
104
25
137
57
208
151
15
173
118
9
10
205
32
70
160
16
84
202
122
86
158
31
107
135
12
130
44
145
43
49
116
155
39
201
37
58
52
6
141
47
98
162
11
152
193
207
166
108
56
185
117
170
8
90
198
187
95
149
96
65
126
156
7
110
153
94
18
142
78
179
2
131
190
165
91
197
184
146
175
181
203
87
14
21
24
22
191
99
163
127
129
83
66
35
147
3
93
161
77
172
61
113
100
68
121
148
171
76
140
169
209
105
157
54
154
106
138
89
73
27
123
200
30
88
182
20
206
168
176
167
115
45
186
80
53
133
134
92
34
82
183
103
4
38
85
192
19
119
23
196
29
194
42
144
55
120
28
51
63
189
62
79
112
132
36
180
188
164
50
71
74
33
174
40
72
41
150
177
81
75
139
204
69
48
64
67

>  <PUBCHEM_MMFF94_PARTIAL_CHARGES>  (1) 
16
1 -0.43
10 0.63
11 0.09
12 0.08
13 -0.15
14 -0.15
15 -0.15
16 -0.15
2 -0.57
3 -0.53
30 0.15
31 0.15
32 0.15
33 0.15
34 0.45
8 0.28

>  <PUBCHEM_EFFECTIVE_ROTOR_COUNT>  (1) 
7

>  <PUBCHEM_PHARMACOPHORE_FEATURES>  (1) 
5
1 2 acceptor
1 3 donor
1 9 hydrophobe
4 4 5 6 7 hydrophobe
6 11 12 13 14 15 16 rings

>  <PUBCHEM_HEAVY_ATOM_COUNT>  (1) 
16

>  <PUBCHEM_ATOM_DEF_STEREO_COUNT>  (1) 
0

>  <PUBCHEM_ATOM_UDEF_STEREO_COUNT>  (1) 
0

>  <PUBCHEM_BOND_DEF_STEREO_COUNT>  (1) 
0

>  <PUBCHEM_BOND_UDEF_STEREO_COUNT>  (1) 
0

>  <PUBCHEM_ISOTOPIC_ATOM_COUNT>  (1) 
0

>  <PUBCHEM_COMPONENT_COUNT>  (1) 
1

>  <PUBCHEM_CACTVS_TAUTO_COUNT>  (1) 
4

>  <PUBCHEM_CONFORMER_ID>  (1) 
0000586500000001

>  <PUBCHEM_MMFF94_ENERGY>  (1) 
28.1163

>  <PUBCHEM_FEATURE_SELFOVERLAP>  (1) 
25.372

>  <PUBCHEM_SHAPE_FINGERPRINT>  (1) 
11471102 20 18334861610837774000
12236239 1 18060140925297877993
13167823 11 18413106165284602719
13533116 47 18342457049809969387
13668630 136 18060142029162768447
13836976 161 18409172116949085518
14576447 43 18337394825636115582
15183329 4 18337105671442307657
15348495 7 13182726092337841503
15477762 27 18336549314094867638
17834072 33 18411136944174855039
17844677 252 18334581222525219429
200 152 18271806800427436217
20369508 70 18201996642416401952
20645477 70 18409449154818442598
21267235 1 18342743975169081638
220451 1 18201441411289188823
221357 26 18334290955634298797
2215653 11 18334289877892737583
23402539 116 17561078095488759029
23522609 53 18055945232309410113
23557571 272 16950559956722581549
23559900 14 18337104687699696329
2871803 45 18114181904275136978
29717793 49 18201722829808800109
3004659 81 18334575724344334826
3411729 13 16199005388258605232
351380 3 18131347501736532007
42630746 31 18411417332852062824
42788 4 18408885140382733061
465052 167 18202285809916845279
522135 26 18409729564579648480
5281201 14 17895193272750867404
57483677 66 18343299293297849383
6025842 7 18408608093295810756
6327066 14 17608947705037232228

>  <PUBCHEM_SHAPE_MULTIPOLES>  (1) 
311.66
15.67
1.73
0.69
30.82
0
0
5.15
-2.38
-2.32
0.1
-0.15
-0.03
-0.41

>  <PUBCHEM_SHAPE_SELFOVERLAP>  (1) 
626.788

>  <PUBCHEM_SHAPE_VOLUME>  (1) 
182.9

>  <PUBCHEM_COORDINATE_TYPE>  (1) 
2
5
10

$$$$
