22650
     RDKit          3D

 20 21  0  0  0  0  0  0  0  0999 V2000
   -6.4126    1.1943   -0.3010 O   0  0  0  0  0  0  0  0  0  0  0  0
   -6.5961   -1.0643   -0.1227 O   0  0  0  0  0  0  0  0  0  0  0  0
    5.8351    0.0245    0.1268 N   0  0  0  0  0  0  0  0  0  0  0  0
    0.2796   -0.0630   -0.5577 N   0  0  0  0  0  0  0  0  0  0  0  0
   -0.2895    0.0364    0.5547 N   0  0  0  0  0  0  0  0  0  0  0  0
    4.4360    0.0027   -0.0474 C   0  0  0  0  0  0  0  0  0  0  0  0
    3.7493   -1.2112   -0.0229 C   0  0  0  0  0  0  0  0  0  0  0  0
    3.7385    1.1947   -0.2423 C   0  0  0  0  0  0  0  0  0  0  0  0
    1.6745   -0.0409   -0.3874 C   0  0  0  0  0  0  0  0  0  0  0  0
    2.3650   -1.2330   -0.1934 C   0  0  0  0  0  0  0  0  0  0  0  0
    2.3542    1.1730   -0.4127 C   0  0  0  0  0  0  0  0  0  0  0  0
    6.4830    1.1760    0.7231 C   0  0  0  0  0  0  0  0  0  0  0  0
    6.6459   -1.0983   -0.3010 C   0  0  0  0  0  0  0  0  0  0  0  0
   -1.6775    0.0145    0.3857 C   0  0  0  0  0  0  0  0  0  0  0  0
   -4.4467   -0.0280    0.0509 C   0  0  0  0  0  0  0  0  0  0  0  0
   -2.3647   -1.1991    0.4116 C   0  0  0  0  0  0  0  0  0  0  0  0
   -2.3750    1.2068    0.1924 C   0  0  0  0  0  0  0  0  0  0  0  0
   -3.7493   -1.2203    0.2441 C   0  0  0  0  0  0  0  0  0  0  0  0
   -3.7595    1.1857    0.0250 C   0  0  0  0  0  0  0  0  0  0  0  0
   -5.8901   -0.0505   -0.1260 C   0  0  0  0  0  0  0  0  0  0  0  0
  1 20  1  0
  2 20  2  0
  3  6  1  0
  3 12  1  0
  3 13  1  0
  4  5  2  0
  4  9  1  0
  5 14  1  0
  6  7  2  0
  6  8  1  0
  7 10  1  0
  8 11  2  0
  9 10  2  0
  9 11  1  0
 14 16  2  0
 14 17  1  0
 15 18  2  0
 15 19  1  0
 15 20  1  0
 16 18  1  0
 17 19  2  0
M  END
>  <PUBCHEM_COMPOUND_CID>  (1) 
22650

>  <PUBCHEM_CONFORMER_RMSD>  (1) 
0.6

>  <PUBCHEM_CONFORMER_DIVERSEORDER>  (1) 
1
2
4
5
3

>  <PUBCHEM_MMFF94_PARTIAL_CHARGES>  (1) 
29
1 -0.65
10 -0.15
11 -0.15
12 0.37
13 0.37
14 0.18
15 0.09
16 -0.15
17 -0.15
18 -0.15
19 -0.15
2 -0.57
20 0.63
21 0.15
22 0.15
23 0.15
24 0.15
3 -0.84
31 0.15
32 0.15
33 0.15
34 0.15
35 0.5
4 -0.18
5 -0.18
6 0.1
7 -0.15
8 -0.15
9 0.18

>  <PUBCHEM_EFFECTIVE_ROTOR_COUNT>  (1) 
4

>  <PUBCHEM_PHARMACOPHORE_FEATURES>  (1) 
6
1 1 acceptor
1 2 acceptor
1 3 cation
3 1 2 20 anion
6 14 15 16 17 18 19 rings
6 6 7 8 9 10 11 rings

>  <PUBCHEM_HEAVY_ATOM_COUNT>  (1) 
20

>  <PUBCHEM_ATOM_DEF_STEREO_COUNT>  (1) 
0

>  <PUBCHEM_ATOM_UDEF_STEREO_COUNT>  (1) 
0

>  <PUBCHEM_BOND_DEF_STEREO_COUNT>  (1) 
0

>  <PUBCHEM_BOND_UDEF_STEREO_COUNT>  (1) 
0

>  <PUBCHEM_ISOTOPIC_ATOM_COUNT>  (1) 
0

>  <PUBCHEM_COMPONENT_COUNT>  (1) 
1

>  <PUBCHEM_CACTVS_TAUTO_COUNT>  (1) 
1

>  <PUBCHEM_CONFORMER_ID>  (1) 
0000587A00000001

>  <PUBCHEM_MMFF94_ENERGY>  (1) 
72.8093

>  <PUBCHEM_FEATURE_SELFOVERLAP>  (1) 
30.503

>  <PUBCHEM_SHAPE_FINGERPRINT>  (1) 
10 15 18339916117710342848
10366900 7 14979959168062771863
10968037 39 18413389843653174807
11315181 36 18202568384515849529
11719270 70 18343018874714775766
12091667 2 18260831497461371643
12107183 9 17688871930243565648
12166972 35 18410295826196273184
12236239 1 18060419114471600294
12516196 113 18202282511033821616
13073987 5 18336829689116689731
13288520 33 18412545414644262413
13533116 47 17240755139137241610
1420 363 18060142037488705214
14251732 16 18342174496369199409
14251764 18 18113899377390128300
14251764 46 18410292510185432898
15183329 4 17967249780193438145
17834076 25 18411419513888288630
19489759 90 18409168801049521505
200 152 18131350804402611817
20645477 70 18341054012574970390
21267235 1 18409456881342976951
220451 1 14851605492282268944
22224240 67 18335415795016268954
23035841 295 12823295693176479164
23402539 116 18410570695886984749
23536379 177 18408322177069617347
23559900 14 18339637948988174297
26918003 58 18334579061475778219
29717793 49 18343026579800948924
300161 21 18410007736700245211
3004659 81 18259703402262134576
34797466 226 17418381315840638604
351380 180 18409449197678191369
3545911 37 18409167705505663854
4073 2 17967820495970392778
4214541 1 18408888421173478613
4325135 7 18272087202042014255
5104073 3 18337115553196634067
542803 24 15936412242705230631
59755656 215 18261114041389618942
59755656 520 16515683368747788979
67856867 119 18263646328021097356
7495541 125 17775002440009447649

>  <PUBCHEM_SHAPE_MULTIPOLES>  (1) 
384.91
18.28
1.45
0.7
0.17
0.01
-0.02
0.04
-0.11
-0.21
-0.01
-0.21
0.03
0.47

>  <PUBCHEM_SHAPE_SELFOVERLAP>  (1) 
822.466

>  <PUBCHEM_SHAPE_VOLUME>  (1) 
214.8

>  <PUBCHEM_COORDINATE_TYPE>  (1) 
2
5
10

$$$$
