22652
     RDKit          3D

 15 16  0  0  0  0  0  0  0  0999 V2000
   -2.9289    1.0060   -0.1091 O   0  0  0  0  0  0  0  0  0  0  0  0
   -2.4082   -1.6920   -0.5042 O   0  0  0  0  0  0  0  0  0  0  0  0
    3.3919   -0.0131   -0.0820 N   0  0  0  0  0  0  0  0  0  0  0  0
    0.7198    0.9680    0.1445 C   0  0  0  0  0  0  0  0  0  0  0  0
    1.8746    1.8885    0.4064 C   0  0  0  0  0  0  0  0  0  0  0  0
    0.9752   -0.3973   -0.0358 C   0  0  0  0  0  0  0  0  0  0  0  0
    3.0948    1.3960   -0.3605 C   0  0  0  0  0  0  0  0  0  0  0  0
    2.3952   -0.8273    0.0339 C   0  0  0  0  0  0  0  0  0  0  0  0
   -0.5988    1.4309    0.1310 C   0  0  0  0  0  0  0  0  0  0  0  0
   -0.0748   -1.2915   -0.2535 C   0  0  0  0  0  0  0  0  0  0  0  0
   -1.6491    0.5390   -0.0867 C   0  0  0  0  0  0  0  0  0  0  0  0
   -1.3869   -0.8174   -0.2813 C   0  0  0  0  0  0  0  0  0  0  0  0
    2.7023   -2.2881    0.2587 C   0  0  0  0  0  0  0  0  0  0  0  0
   -3.1117    2.4051    0.0983 C   0  0  0  0  0  0  0  0  0  0  0  0
   -2.9957   -2.3069    0.6404 C   0  0  0  0  0  0  0  0  0  0  0  0
  1 11  1  0
  1 14  1  0
  2 12  1  0
  2 15  1  0
  3  7  1  0
  3  8  2  0
  4  5  1  0
  4  6  2  0
  4  9  1  0
  5  7  1  0
  6  8  1  0
  6 10  1  0
  8 13  1  0
  9 11  2  0
 10 12  2  0
 11 12  1  0
M  END
>  <PUBCHEM_COMPOUND_CID>  (1) 
22652

>  <PUBCHEM_CONFORMER_RMSD>  (1) 
0.6

>  <PUBCHEM_CONFORMER_DIVERSEORDER>  (1) 
4
2
3
1

>  <PUBCHEM_MMFF94_PARTIAL_CHARGES>  (1) 
17
1 -0.36
10 -0.15
11 0.08
12 0.08
13 0.06
14 0.28
15 0.28
2 -0.36
20 0.15
21 0.15
3 -0.7
4 -0.14
5 0.14
6 0.09
7 0.25
8 0.3
9 -0.15

>  <PUBCHEM_EFFECTIVE_ROTOR_COUNT>  (1) 
2.4

>  <PUBCHEM_PHARMACOPHORE_FEATURES>  (1) 
5
1 1 acceptor
1 2 acceptor
1 3 acceptor
6 3 4 5 6 7 8 rings
6 4 6 9 10 11 12 rings

>  <PUBCHEM_HEAVY_ATOM_COUNT>  (1) 
15

>  <PUBCHEM_ATOM_DEF_STEREO_COUNT>  (1) 
0

>  <PUBCHEM_ATOM_UDEF_STEREO_COUNT>  (1) 
0

>  <PUBCHEM_BOND_DEF_STEREO_COUNT>  (1) 
0

>  <PUBCHEM_BOND_UDEF_STEREO_COUNT>  (1) 
0

>  <PUBCHEM_ISOTOPIC_ATOM_COUNT>  (1) 
0

>  <PUBCHEM_COMPONENT_COUNT>  (1) 
1

>  <PUBCHEM_CACTVS_TAUTO_COUNT>  (1) 
1

>  <PUBCHEM_CONFORMER_ID>  (1) 
0000587C00000004

>  <PUBCHEM_MMFF94_ENERGY>  (1) 
62.6876

>  <PUBCHEM_FEATURE_SELFOVERLAP>  (1) 
25.401

>  <PUBCHEM_SHAPE_FINGERPRINT>  (1) 
10130415 120 18193832648515973794
10608611 8 18412822516537663920
10967382 1 18195526999981417372
11680986 33 18341608179551827666
12730499 353 17683797715065003189
12932764 1 17631729503499540782
13140716 1 18411696548000658434
13380535 21 18410018727495194892
13380535 76 18270396062721503823
13897977 150 18411695474190470268
14178342 30 18337376210846798640
14325111 11 18411418427425320428
14648413 74 18411698768556701016
14790565 3 17400378127185788753
15442244 35 18339077064871551154
15775835 57 18336552633535076748
16945 1 18340763750126430592
17844478 74 18192437582887423459
193761 8 18411417314870203879
19591789 44 15596402948045963013
20510252 161 18127413568811438624
20511035 2 18201424861994109836
21501502 16 18410007741021482350
21524375 3 18125434220880989205
22094290 62 18267020553070559704
2334 1 18411698832812424790
23463225 33 18338796685274927342
23552423 10 18335982047176944558
23559900 14 18199748056145498302
25610 137 18119813761756899495
2748010 2 18341326772909510892
2871803 45 18265892643092785367
3312278 4 18413110563104202056
335352 9 18123187892195957556
5104073 3 18411133650151328144
7364860 26 18343016658600684986
74978 22 18339078190073763948
7832392 63 18411418375991181964
81228 2 18188206615284184081
8809292 202 18336831879254988122
9709674 26 18341895160349941119

>  <PUBCHEM_SHAPE_MULTIPOLES>  (1) 
291.97
5.55
2.79
0.68
0.11
0.32
0.02
0
0.12
1.11
0.3
0.05
0.06
0.02

>  <PUBCHEM_SHAPE_SELFOVERLAP>  (1) 
618.094

>  <PUBCHEM_SHAPE_VOLUME>  (1) 
165

>  <PUBCHEM_COORDINATE_TYPE>  (1) 
2
5
10

$$$$
