22662
     RDKit          3D

 15 16  0  0  0  0  0  0  0  0999 V2000
   -2.3629   -0.7792    0.6105 O   0  0  0  0  0  0  0  0  0  0  0  0
   -1.9054    1.9520    0.4069 O   0  0  0  0  0  0  0  0  0  0  0  0
    3.9515    0.2156    0.0829 N   0  0  0  0  0  0  0  0  0  0  0  0
    1.2646   -0.7273    0.1034 C   0  0  0  0  0  0  0  0  0  0  0  0
    2.4155   -1.6982    0.0286 C   0  0  0  0  0  0  0  0  0  0  0  0
    1.5006    0.6567    0.0237 C   0  0  0  0  0  0  0  0  0  0  0  0
    3.6783   -1.0681   -0.5618 C   0  0  0  0  0  0  0  0  0  0  0  0
    2.8925    1.1827   -0.2278 C   0  0  0  0  0  0  0  0  0  0  0  0
   -0.0383   -1.1977    0.3117 C   0  0  0  0  0  0  0  0  0  0  0  0
    0.4228    1.5472    0.1168 C   0  0  0  0  0  0  0  0  0  0  0  0
   -1.1022   -0.3018    0.4137 C   0  0  0  0  0  0  0  0  0  0  0  0
   -0.8724    1.0686    0.3143 C   0  0  0  0  0  0  0  0  0  0  0  0
   -2.8875   -1.6542   -0.3861 C   0  0  0  0  0  0  0  0  0  0  0  0
   -4.3933   -1.5052   -0.4300 C   0  0  0  0  0  0  0  0  0  0  0  0
   -2.5638    2.3090   -0.8069 C   0  0  0  0  0  0  0  0  0  0  0  0
  1 11  1  0
  1 13  1  0
  2 12  1  0
  2 15  1  0
  3  7  1  0
  3  8  1  0
  4  5  1  0
  4  6  2  0
  4  9  1  0
  5  7  1  0
  6  8  1  0
  6 10  1  0
  9 11  2  0
 10 12  2  0
 11 12  1  0
 13 14  1  0
M  END
>  <PUBCHEM_COMPOUND_CID>  (1) 
22662

>  <PUBCHEM_CONFORMER_RMSD>  (1) 
0.6

>  <PUBCHEM_CONFORMER_DIVERSEORDER>  (1) 
2
1
3
8
7
9
10
4
6
5

>  <PUBCHEM_MMFF94_PARTIAL_CHARGES>  (1) 
17
1 -0.36
10 -0.15
11 0.08
12 0.08
13 0.28
15 0.28
2 -0.36
22 0.36
23 0.15
24 0.15
3 -0.9
4 -0.14
5 0.14
6 -0.14
7 0.27
8 0.41
9 -0.15

>  <PUBCHEM_EFFECTIVE_ROTOR_COUNT>  (1) 
3.8

>  <PUBCHEM_PHARMACOPHORE_FEATURES>  (1) 
6
1 1 acceptor
1 2 acceptor
1 3 cation
1 3 donor
6 3 4 5 6 7 8 rings
6 4 6 9 10 11 12 rings

>  <PUBCHEM_HEAVY_ATOM_COUNT>  (1) 
15

>  <PUBCHEM_ATOM_DEF_STEREO_COUNT>  (1) 
0

>  <PUBCHEM_ATOM_UDEF_STEREO_COUNT>  (1) 
0

>  <PUBCHEM_BOND_DEF_STEREO_COUNT>  (1) 
0

>  <PUBCHEM_BOND_UDEF_STEREO_COUNT>  (1) 
0

>  <PUBCHEM_ISOTOPIC_ATOM_COUNT>  (1) 
0

>  <PUBCHEM_COMPONENT_COUNT>  (1) 
1

>  <PUBCHEM_CACTVS_TAUTO_COUNT>  (1) 
1

>  <PUBCHEM_CONFORMER_ID>  (1) 
0000588600000002

>  <PUBCHEM_MMFF94_ENERGY>  (1) 
48.698

>  <PUBCHEM_FEATURE_SELFOVERLAP>  (1) 
30.472

>  <PUBCHEM_SHAPE_FINGERPRINT>  (1) 
10608611 8 18410012113699460584
10756046 5 18336546001883817918
10967382 1 18122909995122234880
11206711 2 18335709342243923109
11471102 20 18337952418958106374
11578080 2 17488442222453169673
11769659 78 18412263913407442938
11806522 49 18339642347071458870
12138202 97 18193274092229635405
13140716 1 18266741285949444416
13296908 3 18272937077122185726
13583140 156 14692577563553778555
14251717 144 18340769359338109326
14576447 43 17913199047414775567
16945 1 18191036779351195368
17357779 13 18336813295426987717
200 152 18272366498927148999
20645477 70 18341332296433230103
21267235 1 18340216266202880398
21501502 16 18336830801376134072
21501925 9 18410004455883294994
2334 1 18409735049453306688
23402539 116 18338227258252620806
23557571 272 18202291285989357566
23559900 14 18126562324412146106
2748010 2 18411142398614593776
2871803 45 18409445907701867054
57096353 35 18335995258596619718
58051976 378 18192723447774566972
69090 78 18265333906924254969
81228 2 18333734641268238929
9709674 26 18410301306616429002

>  <PUBCHEM_SHAPE_MULTIPOLES>  (1) 
291.97
6.69
2.36
0.75
0.51
0.71
0.04
-2.43
1.34
1.49
0.28
0.17
0.04
0.09

>  <PUBCHEM_SHAPE_SELFOVERLAP>  (1) 
607.141

>  <PUBCHEM_SHAPE_VOLUME>  (1) 
166.5

>  <PUBCHEM_COORDINATE_TYPE>  (1) 
2
5
10

$$$$
