22664
     RDKit          3D

 21 22  0  0  1  0  0  0  0  0999 V2000
    2.3613    3.6609    0.4238 O   0  0  0  0  0  0  0  0  0  0  0  0
   -4.9572    0.5809    0.5515 O   0  0  0  0  0  0  0  0  0  0  0  0
    2.1548   -2.6016   -0.3818 N   0  0  0  0  0  0  0  0  0  0  0  0
    0.9931   -1.7979    0.0222 C   0  0  0  0  0  0  0  0  0  0  0  0
   -0.1972   -2.0541   -0.9422 C   0  0  0  0  0  0  0  0  0  0  0  0
    1.3618   -0.3281    0.1302 C   0  0  0  0  0  0  0  0  0  0  0  0
   -1.4552   -1.3575   -0.5473 C   0  0  0  0  0  0  0  0  0  0  0  0
    3.2293   -2.4643    0.5854 C   0  0  0  0  0  0  0  0  0  0  0  0
    1.2881    0.2917    1.3621 C   0  0  0  0  0  0  0  0  0  0  0  0
    1.7601    0.3475   -1.0066 C   0  0  0  0  0  0  0  0  0  0  0  0
   -2.3690   -1.9918    0.2941 C   0  0  0  0  0  0  0  0  0  0  0  0
   -1.7180   -0.0715   -1.0194 C   0  0  0  0  0  0  0  0  0  0  0  0
    1.6263    1.6412    1.4613 C   0  0  0  0  0  0  0  0  0  0  0  0
    2.0984    1.6970   -0.9076 C   0  0  0  0  0  0  0  0  0  0  0  0
    4.4367   -3.2955    0.1861 C   0  0  0  0  0  0  0  0  0  0  0  0
    2.0317    2.3440    0.3265 C   0  0  0  0  0  0  0  0  0  0  0  0
   -3.5458   -1.3403    0.6632 C   0  0  0  0  0  0  0  0  0  0  0  0
   -2.8947    0.5802   -0.6503 C   0  0  0  0  0  0  0  0  0  0  0  0
   -3.8087   -0.0542    0.1912 C   0  0  0  0  0  0  0  0  0  0  0  0
    2.7673    4.3189   -0.7754 C   0  0  0  0  0  0  0  0  0  0  0  0
   -5.1631    1.8942    0.0331 C   0  0  0  0  0  0  0  0  0  0  0  0
  1 16  1  0
  1 20  1  0
  2 19  1  0
  2 21  1  0
  3  4  1  0
  3  8  1  0
  4  5  1  0
  4  6  1  0
  5  7  1  0
  6  9  2  0
  6 10  1  0
  7 11  2  0
  7 12  1  0
  8 15  1  0
  9 13  1  0
 10 14  2  0
 11 17  1  0
 12 18  2  0
 13 16  2  0
 14 16  1  0
 17 19  2  0
 18 19  1  0
M  END
>  <PUBCHEM_COMPOUND_CID>  (1) 
22664

>  <PUBCHEM_CONFORMER_RMSD>  (1) 
0.8

>  <PUBCHEM_CONFORMER_DIVERSEORDER>  (1) 
2
3
17
11
20
18
15
7
33
31
21
23
24
30
32
8
4
16
29
19
25
13
28
1
14
10
12
9
22
5
27
26
6

>  <PUBCHEM_MMFF94_PARTIAL_CHARGES>  (1) 
29
1 -0.36
10 -0.15
11 -0.15
12 -0.15
13 -0.15
14 -0.15
16 0.08
17 -0.15
18 -0.15
19 0.08
2 -0.36
20 0.28
21 0.28
25 0.36
28 0.15
29 0.15
3 -0.9
30 0.15
31 0.15
32 0.15
33 0.15
37 0.15
38 0.15
4 0.41
5 0.14
6 -0.14
7 -0.14
8 0.27
9 -0.15

>  <PUBCHEM_EFFECTIVE_ROTOR_COUNT>  (1) 
7

>  <PUBCHEM_PHARMACOPHORE_FEATURES>  (1) 
6
1 1 acceptor
1 2 acceptor
1 3 cation
1 3 donor
6 6 9 10 13 14 16 rings
6 7 11 12 17 18 19 rings

>  <PUBCHEM_HEAVY_ATOM_COUNT>  (1) 
21

>  <PUBCHEM_ATOM_DEF_STEREO_COUNT>  (1) 
0

>  <PUBCHEM_ATOM_UDEF_STEREO_COUNT>  (1) 
1

>  <PUBCHEM_BOND_DEF_STEREO_COUNT>  (1) 
0

>  <PUBCHEM_BOND_UDEF_STEREO_COUNT>  (1) 
0

>  <PUBCHEM_ISOTOPIC_ATOM_COUNT>  (1) 
0

>  <PUBCHEM_COMPONENT_COUNT>  (1) 
1

>  <PUBCHEM_CACTVS_TAUTO_COUNT>  (1) 
1

>  <PUBCHEM_CONFORMER_ID>  (1) 
0000588800000002

>  <PUBCHEM_MMFF94_ENERGY>  (1) 
66.2966

>  <PUBCHEM_FEATURE_SELFOVERLAP>  (1) 
30.446

>  <PUBCHEM_SHAPE_FINGERPRINT>  (1) 
10165383 225 17839200836659198273
10498660 4 18124310777610965997
11578080 2 14711490297887064126
11582403 64 15406639129840766112
12166972 35 18201711804860009371
12173636 292 17763739197360572876
12422481 6 18048560873509060272
12788726 201 17756987809999805274
128993 33 18128257981167540917
13004483 165 18049996702256095458
13132413 78 18270956856796742070
13134695 92 18338509729893930814
13294875 104 17916297406804162000
13965767 371 18115293592214942245
14466204 15 17977946783281741377
14866123 147 16104168765157652235
14955137 171 18341056203166761126
15163728 17 17902529399347746564
15238133 3 18125170333515501429
15295992 7 18261406511777916011
1601671 61 18411130338794865226
1813 80 18057049008475369846
18785283 64 18409732875946907154
20600515 1 18199752436363767958
20671657 1 18411138056228785767
20739085 24 18270400482369724882
21033648 29 17486747720036493219
21041028 32 18267303123400853636
21285901 2 17413310165986285902
21521721 280 7851844019975647975
21524375 3 17769092689680533446
21864079 5 18267866271150007165
23175994 123 18268149747222982975
23366157 5 18262230131575333266
23419403 2 17770186429088346792
23557571 272 15892490421589697488
23558518 356 18268696363732776087
23559900 14 18335697222474363795
345986 75 17173476975631753466
350125 39 18339923826428059159
4409770 3 17468466024146997900
458136 41 18194128648908536234
5104073 3 18337685165631021875
5252454 2 17985837149300541361
6442390 28 17689731069832464594
7364860 26 18411134762189329694
7808743 9 17907863160244966625
81228 2 17695077595715431962
9981440 41 17977940512186397538

>  <PUBCHEM_SHAPE_MULTIPOLES>  (1) 
415.45
8.25
4.61
1.13
9.05
3.06
-0.1
0.22
-1.03
-6.81
0.28
-0.3
0.26
-0.31

>  <PUBCHEM_SHAPE_SELFOVERLAP>  (1) 
867.643

>  <PUBCHEM_SHAPE_VOLUME>  (1) 
237

>  <PUBCHEM_COORDINATE_TYPE>  (1) 
2
5
10

$$$$
