22675
     RDKit          3D

 20 21  0  0  1  0  0  0  0  0999 V2000
    0.6957    0.8019   -1.9991 O   0  0  0  0  0  0  0  0  0  0  0  0
   -1.2969    1.6760   -0.2843 N   0  0  0  0  0  0  0  0  0  0  0  0
   -0.5024    0.5062    0.0888 C   0  0  0  0  0  0  0  0  0  0  0  0
   -0.4813    2.8883   -0.2231 C   0  0  0  0  0  0  0  0  0  0  0  0
   -2.4641    1.8005    0.5879 C   0  0  0  0  0  0  0  0  0  0  0  0
   -1.3413   -0.7540    0.0275 C   0  0  0  0  0  0  0  0  0  0  0  0
    0.7283    0.4528   -0.8198 C   0  0  0  0  0  0  0  0  0  0  0  0
    0.0116    3.1476    1.1904 C   0  0  0  0  0  0  0  0  0  0  0  0
   -3.3343    2.9758    0.1761 C   0  0  0  0  0  0  0  0  0  0  0  0
    2.0249   -0.0328   -0.2650 C   0  0  0  0  0  0  0  0  0  0  0  0
   -2.0589   -1.1407    1.1450 C   0  0  0  0  0  0  0  0  0  0  0  0
   -1.3703   -1.4881   -1.1445 C   0  0  0  0  0  0  0  0  0  0  0  0
   -2.8314   -2.3006    1.0888 C   0  0  0  0  0  0  0  0  0  0  0  0
   -2.1430   -2.6480   -1.2008 C   0  0  0  0  0  0  0  0  0  0  0  0
    2.0016   -0.9617    0.7506 C   0  0  0  0  0  0  0  0  0  0  0  0
    3.1957    0.4659   -0.7901 C   0  0  0  0  0  0  0  0  0  0  0  0
   -2.8735   -3.0543   -0.0841 C   0  0  0  0  0  0  0  0  0  0  0  0
    3.2141   -1.4161    1.2692 C   0  0  0  0  0  0  0  0  0  0  0  0
    4.4082    0.0112   -0.2716 C   0  0  0  0  0  0  0  0  0  0  0  0
    4.4172   -0.9298    0.7582 C   0  0  0  0  0  0  0  0  0  0  0  0
  1  7  2  0
  2  3  1  0
  2  4  1  0
  2  5  1  0
  3  6  1  0
  3  7  1  0
  4  8  1  0
  5  9  1  0
  6 11  2  0
  6 12  1  0
  7 10  1  0
 10 15  2  0
 10 16  1  0
 11 13  1  0
 12 14  2  0
 13 17  2  0
 14 17  1  0
 15 18  1  0
 16 19  2  0
 18 20  2  0
 19 20  1  0
M  END
>  <PUBCHEM_COMPOUND_CID>  (1) 
22675

>  <PUBCHEM_CONFORMER_RMSD>  (1) 
0.8

>  <PUBCHEM_CONFORMER_DIVERSEORDER>  (1) 
3
14
19
4
8
10
13
9
7
17
15
18
5
11
21
20
16
6
1
12
2

>  <PUBCHEM_MMFF94_PARTIAL_CHARGES>  (1) 
28
1 -0.57
10 0.09
11 -0.15
12 -0.15
13 -0.15
14 -0.15
15 -0.15
16 -0.15
17 -0.15
18 -0.15
19 -0.15
2 -0.81
20 -0.15
3 0.47
32 0.15
33 0.15
34 0.15
35 0.15
36 0.15
37 0.15
38 0.15
39 0.15
4 0.27
40 0.15
41 0.15
5 0.27
6 -0.14
7 0.42

>  <PUBCHEM_EFFECTIVE_ROTOR_COUNT>  (1) 
6

>  <PUBCHEM_PHARMACOPHORE_FEATURES>  (1) 
4
1 1 acceptor
1 2 cation
6 10 15 16 18 19 20 rings
6 6 11 12 13 14 17 rings

>  <PUBCHEM_HEAVY_ATOM_COUNT>  (1) 
20

>  <PUBCHEM_ATOM_DEF_STEREO_COUNT>  (1) 
0

>  <PUBCHEM_ATOM_UDEF_STEREO_COUNT>  (1) 
1

>  <PUBCHEM_BOND_DEF_STEREO_COUNT>  (1) 
0

>  <PUBCHEM_BOND_UDEF_STEREO_COUNT>  (1) 
0

>  <PUBCHEM_ISOTOPIC_ATOM_COUNT>  (1) 
0

>  <PUBCHEM_COMPONENT_COUNT>  (1) 
1

>  <PUBCHEM_CACTVS_TAUTO_COUNT>  (1) 
2

>  <PUBCHEM_CONFORMER_ID>  (1) 
0000589300000003

>  <PUBCHEM_MMFF94_ENERGY>  (1) 
66.894

>  <PUBCHEM_FEATURE_SELFOVERLAP>  (1) 
20.297

>  <PUBCHEM_SHAPE_FINGERPRINT>  (1) 
10090160 65 17905880380293068533
10382601 240 17478633646467047617
104564 63 18409450301448175030
11578080 2 18043510910375092933
11680986 33 18196922478212281865
12553582 1 18267588094492161766
12788726 201 18336557087453066531
13004483 165 18268413789064446159
13052359 8 18337107870127920669
13083527 12 17768228464597537537
13140716 1 18412261748781135080
13538477 17 18335984164817607868
13583140 156 17416946406085469698
14178342 30 18263627495269804738
15042514 8 18338240370951071859
15375462 189 18119819250635699290
15906896 17 18337391543927537151
16752209 62 18413101753962955607
16945 1 18044665199899106052
17780758 139 18193255431304038746
1813 80 18056211390509200278
200 152 18041553762650612954
20197701 30 17974840680029130453
20291156 8 18263645224377973870
20361792 2 18197212770350598039
20600515 1 17916607430212445073
20905425 154 17984148324772783188
21524375 3 17980473460659771449
21731228 192 17907020577597056177
21731516 1 18267867370281768174
22112679 90 18126024868593030295
23184049 29 18340207521744112461
23402539 116 18129367216601665125
23419403 2 17830977533207739876
23557571 272 18201721747772414304
23559900 14 18127982919067425710
23598288 3 18410019835602116679
23598294 1 18412266133799929578
23728640 28 18337950082701781891
352729 6 18268718220535586317
5104073 3 18335408055643347370
6438718 38 18341906181431078059
7097593 13 18044369431893915266
7471813 234 18124305262487940215
81228 2 18340758278337913593
90316 7 18342747342001156251

>  <PUBCHEM_SHAPE_MULTIPOLES>  (1) 
400.74
6.58
3.85
1.34
6.57
1.57
-0.16
-2.44
1.14
-4.83
0.47
0.1
-0.26
-0.77

>  <PUBCHEM_SHAPE_SELFOVERLAP>  (1) 
848.208

>  <PUBCHEM_SHAPE_VOLUME>  (1) 
225

>  <PUBCHEM_COORDINATE_TYPE>  (1) 
2
5
10

$$$$
