22684
     RDKit          3D

 21 23  0  0  1  0  0  0  0  0999 V2000
    0.6133   -0.3641    2.0303 O   0  0  0  0  0  0  0  0  0  0  0  0
   -0.9043    1.3151    0.0894 N   0  0  0  0  0  0  0  0  0  0  0  0
   -1.9379    1.6448   -0.9019 C   0  0  0  0  0  0  0  0  0  0  0  0
    0.1696    2.3185    0.0910 C   0  0  0  0  0  0  0  0  0  0  0  0
   -2.5543    3.0162   -0.6213 C   0  0  0  0  0  0  0  0  0  0  0  0
   -0.3778    3.7118    0.4039 C   0  0  0  0  0  0  0  0  0  0  0  0
   -1.4868    4.1030   -0.5663 C   0  0  0  0  0  0  0  0  0  0  0  0
   -0.3584   -0.0179   -0.1647 C   0  0  0  0  0  0  0  0  0  0  0  0
   -1.4490   -1.0663   -0.0835 C   0  0  0  0  0  0  0  0  0  0  0  0
    0.7890   -0.2717    0.8161 C   0  0  0  0  0  0  0  0  0  0  0  0
    2.1777   -0.4212    0.2925 C   0  0  0  0  0  0  0  0  0  0  0  0
   -1.3642   -2.1905   -0.8849 C   0  0  0  0  0  0  0  0  0  0  0  0
   -2.5043   -0.8746    0.7899 C   0  0  0  0  0  0  0  0  0  0  0  0
   -2.3685   -3.1555   -0.8103 C   0  0  0  0  0  0  0  0  0  0  0  0
   -3.5086   -1.8396    0.8646 C   0  0  0  0  0  0  0  0  0  0  0  0
    2.3546   -0.9427   -0.9690 C   0  0  0  0  0  0  0  0  0  0  0  0
    3.2293   -0.0323    1.0907 C   0  0  0  0  0  0  0  0  0  0  0  0
   -3.4407   -2.9802    0.0645 C   0  0  0  0  0  0  0  0  0  0  0  0
    3.6532   -1.0828   -1.4586 C   0  0  0  0  0  0  0  0  0  0  0  0
    4.5280   -0.1724    0.6012 C   0  0  0  0  0  0  0  0  0  0  0  0
    4.7399   -0.6976   -0.6735 C   0  0  0  0  0  0  0  0  0  0  0  0
  1 10  2  0
  2  3  1  0
  2  4  1  0
  2  8  1  0
  3  5  1  0
  4  6  1  0
  5  7  1  0
  6  7  1  0
  8  9  1  0
  8 10  1  0
  9 12  2  0
  9 13  1  0
 10 11  1  0
 11 16  2  0
 11 17  1  0
 12 14  1  0
 13 15  2  0
 14 18  2  0
 15 18  1  0
 16 19  1  0
 17 20  2  0
 19 21  2  0
 20 21  1  0
M  END
>  <PUBCHEM_COMPOUND_CID>  (1) 
22684

>  <PUBCHEM_CONFORMER_RMSD>  (1) 
0.8

>  <PUBCHEM_CONFORMER_DIVERSEORDER>  (1) 
1
22
2
9
5
18
19
6
15
14
8
20
7
16
21
17
12
13
11
10
4
3

>  <PUBCHEM_MMFF94_PARTIAL_CHARGES>  (1) 
28
1 -0.57
10 0.42
11 0.09
12 -0.15
13 -0.15
14 -0.15
15 -0.15
16 -0.15
17 -0.15
18 -0.15
19 -0.15
2 -0.81
20 -0.15
21 -0.15
3 0.27
33 0.15
34 0.15
35 0.15
36 0.15
37 0.15
38 0.15
39 0.15
4 0.27
40 0.15
41 0.15
42 0.15
8 0.47
9 -0.14

>  <PUBCHEM_EFFECTIVE_ROTOR_COUNT>  (1) 
5.2

>  <PUBCHEM_PHARMACOPHORE_FEATURES>  (1) 
5
1 1 acceptor
1 2 cation
6 11 16 17 19 20 21 rings
6 2 3 4 5 6 7 rings
6 9 12 13 14 15 18 rings

>  <PUBCHEM_HEAVY_ATOM_COUNT>  (1) 
21

>  <PUBCHEM_ATOM_DEF_STEREO_COUNT>  (1) 
0

>  <PUBCHEM_ATOM_UDEF_STEREO_COUNT>  (1) 
1

>  <PUBCHEM_BOND_DEF_STEREO_COUNT>  (1) 
0

>  <PUBCHEM_BOND_UDEF_STEREO_COUNT>  (1) 
0

>  <PUBCHEM_ISOTOPIC_ATOM_COUNT>  (1) 
0

>  <PUBCHEM_COMPONENT_COUNT>  (1) 
1

>  <PUBCHEM_CACTVS_TAUTO_COUNT>  (1) 
2

>  <PUBCHEM_CONFORMER_ID>  (1) 
0000589C00000001

>  <PUBCHEM_MMFF94_ENERGY>  (1) 
58.8893

>  <PUBCHEM_FEATURE_SELFOVERLAP>  (1) 
25.373

>  <PUBCHEM_SHAPE_FINGERPRINT>  (1) 
10764073 3 16122514335551326939
11069576 57 16762803249544469151
11578080 2 17917138506923698953
11640471 11 17532655616346263604
11833330 49 18408323302092767877
12035758 1 18412269424288191097
12173636 292 18049718520986265172
12553582 1 18336260257720781651
12643181 29 17762626088932974862
12714826 92 18272090487365240258
12788726 201 18260555519394356370
13140716 1 18410008866440473433
13149001 5 18046873152798238885
13583140 156 17915150504977208330
13681431 1 17977672231349213081
14178342 30 18262505993356647450
14790565 3 18195252122487027845
15042514 8 18409450245866496027
17357779 13 18128798880801095543
1741750 31 18121214277736040560
1813 80 18267592483774431091
19141452 34 18059862813212676719
20600515 1 17987540223913056723
20693207 138 17773619164725878566
21041028 32 18189907576867820241
21285901 2 18201449047187452511
21304303 282 17614233885589758732
21330990 113 17912114701242148835
21524375 3 17683525031120767288
2255824 54 17402335270271707773
22849341 161 18194144003986591835
22907989 373 18337964397632438652
23352939 185 18126861601316038584
23366157 5 17614281491107429031
23402539 116 18260263079772385618
23419403 2 17702931651674029945
23557571 272 18413385428358274712
23566358 27 17473273544446119411
23598288 3 18188224108110922118
2748010 2 18269252711967314312
3091708 16 9277114503332140089
352729 6 17833259827494766387
4175511 71 18193848252301179411
4409770 3 18337669707378844399
458136 41 17404029123853657385
46194498 28 17259576824121988719
474 4 17039788942275152521
6049 1 18131349696485737440
6287921 2 17626101211009328792
6442390 28 17909278983466263489
6992083 37 18198926844975505467
7164475 11 18335708239065127606
7364860 26 17692252254437134459
7399639 24 18129649941919838920
81228 2 18410012126330784881
90316 7 18411425024532010327
9709674 26 18200026223501226886
9981440 41 17760924043935469921

>  <PUBCHEM_SHAPE_MULTIPOLES>  (1) 
421.32
7.02
4.56
1.26
7.66
4.49
0.16
-4.6
-0.38
-6.05
-1.03
0.49
-0.29
0.9

>  <PUBCHEM_SHAPE_SELFOVERLAP>  (1) 
904.451

>  <PUBCHEM_SHAPE_VOLUME>  (1) 
231.9

>  <PUBCHEM_COORDINATE_TYPE>  (1) 
2
5
10

$$$$
