22686
     RDKit          3D

  6  5  0  0  0  0  0  0  0  0999 V2000
    1.9679   -1.0552    0.1511 O   0  0  0  0  0  0  0  0  0  0  0  0
    0.7841    0.9450   -0.0837 N   0  0  0  0  0  0  0  0  0  0  0  0
   -1.4112   -0.0561   -0.5083 C   0  0  0  0  0  0  0  0  0  0  0  0
   -0.4683    0.5320    0.5384 C   0  0  0  0  0  0  0  0  0  0  0  0
   -2.7349   -0.4756    0.1121 C   0  0  0  0  0  0  0  0  0  0  0  0
    1.8624    0.1100   -0.2096 C   0  0  0  0  0  0  0  0  0  0  0  0
  1  6  2  0
  2  4  1  0
  2  6  1  0
  3  4  1  0
  3  5  1  0
M  END
>  <PUBCHEM_COMPOUND_CID>  (1) 
22686

>  <PUBCHEM_CONFORMER_RMSD>  (1) 
0.4

>  <PUBCHEM_CONFORMER_DIVERSEORDER>  (1) 
1
8
16
6
5
9
11
13
3
4
15
10
2
12
14
7

>  <PUBCHEM_MMFF94_PARTIAL_CHARGES>  (1) 
6
1 -0.57
14 0.37
15 0.06
2 -0.73
4 0.3
6 0.57

>  <PUBCHEM_EFFECTIVE_ROTOR_COUNT>  (1) 
3

>  <PUBCHEM_PHARMACOPHORE_FEATURES>  (1) 
3
1 1 acceptor
1 2 donor
1 5 hydrophobe

>  <PUBCHEM_HEAVY_ATOM_COUNT>  (1) 
6

>  <PUBCHEM_ATOM_DEF_STEREO_COUNT>  (1) 
0

>  <PUBCHEM_ATOM_UDEF_STEREO_COUNT>  (1) 
0

>  <PUBCHEM_BOND_DEF_STEREO_COUNT>  (1) 
0

>  <PUBCHEM_BOND_UDEF_STEREO_COUNT>  (1) 
0

>  <PUBCHEM_ISOTOPIC_ATOM_COUNT>  (1) 
0

>  <PUBCHEM_COMPONENT_COUNT>  (1) 
1

>  <PUBCHEM_CACTVS_TAUTO_COUNT>  (1) 
2

>  <PUBCHEM_CONFORMER_ID>  (1) 
0000589E00000001

>  <PUBCHEM_MMFF94_ENERGY>  (1) 
-2.8215

>  <PUBCHEM_FEATURE_SELFOVERLAP>  (1) 
15.223

>  <PUBCHEM_SHAPE_FINGERPRINT>  (1) 
139733 1 8142082069893775564
23552449 11 17703497891588035473
29004967 10 18408040740436525368
5460574 1 9295296036082732717

>  <PUBCHEM_SHAPE_MULTIPOLES>  (1) 
112.63
3.56
0.95
0.7
1.03
0.05
0
1
-0.02
-0.3
0.05
0.1
-0.02
-0.08

>  <PUBCHEM_SHAPE_SELFOVERLAP>  (1) 
194.804

>  <PUBCHEM_SHAPE_VOLUME>  (1) 
74.6

>  <PUBCHEM_COORDINATE_TYPE>  (1) 
2
5
10

$$$$
