22681
     RDKit          3D

 15 15  0  0  0  0  0  0  0  0999 V2000
   -1.7331   -0.6157   -0.0004 O   0  0  0  0  0  0  0  0  0  0  0  0
    5.2703   -0.2095    0.0008 O   0  0  0  0  0  0  0  0  0  0  0  0
   -5.0835    0.3778    0.0010 O   0  0  0  0  0  0  0  0  0  0  0  0
   -4.1465   -1.6122   -0.0017 O   0  0  0  0  0  0  0  0  0  0  0  0
    2.9585   -0.5301   -0.0005 N   0  0  0  0  0  0  0  0  0  0  0  0
    1.7592    0.1410   -0.0002 N   0  0  0  0  0  0  0  0  0  0  0  0
   -4.0480   -0.3501   -0.0001 N   0  0  0  0  0  0  0  0  0  0  0  0
    3.9008    1.6155   -0.0015 N   0  0  0  0  0  0  0  0  0  0  0  0
   -0.6366    0.1615    0.0002 C   0  0  0  0  0  0  0  0  0  0  0  0
   -0.9296    1.4834    0.0009 C   0  0  0  0  0  0  0  0  0  0  0  0
   -2.7849    0.2446   -0.0002 C   0  0  0  0  0  0  0  0  0  0  0  0
   -2.3434    1.5474    0.0006 C   0  0  0  0  0  0  0  0  0  0  0  0
    0.6493   -0.5209    0.0000 C   0  0  0  0  0  0  0  0  0  0  0  0
    3.0411   -1.9828    0.0016 C   0  0  0  0  0  0  0  0  0  0  0  0
    4.1264    0.2499   -0.0007 C   0  0  0  0  0  0  0  0  0  0  0  0
  1  9  1  0
  1 11  1  0
  2 15  2  0
  3  7  1  0
  4  7  2  0
  5  6  1  0
  5 14  1  0
  5 15  1  0
  6 13  2  0
  7 11  1  0
  8 15  1  0
  9 10  2  0
  9 13  1  0
 10 12  1  0
 11 12  2  0
M  CHG  2   3  -1   7   1
M  END
>  <PUBCHEM_COMPOUND_CID>  (1) 
22681

>  <PUBCHEM_CONFORMER_RMSD>  (1) 
0.6

>  <PUBCHEM_CONFORMER_DIVERSEORDER>  (1) 
1
20
2
9
8
6
4
3
10
15
5
7
17
13
16
14
12
18
19
11

>  <PUBCHEM_MMFF94_PARTIAL_CHARGES>  (1) 
20
1 -0.28
10 -0.15
11 0.22
12 -0.15
13 0.47
14 0.3
15 0.69
16 0.15
17 0.15
18 0.06
2 -0.57
22 0.37
23 0.37
3 -0.52
4 -0.52
5 -0.3
6 -0.51
7 0.96
8 -0.8
9 0.05

>  <PUBCHEM_EFFECTIVE_ROTOR_COUNT>  (1) 
4

>  <PUBCHEM_PHARMACOPHORE_FEATURES>  (1) 
8
1 1 acceptor
1 2 acceptor
1 3 acceptor
1 3 anion
1 4 acceptor
1 6 acceptor
1 8 donor
5 1 9 10 11 12 rings

>  <PUBCHEM_HEAVY_ATOM_COUNT>  (1) 
15

>  <PUBCHEM_ATOM_DEF_STEREO_COUNT>  (1) 
0

>  <PUBCHEM_ATOM_UDEF_STEREO_COUNT>  (1) 
0

>  <PUBCHEM_BOND_DEF_STEREO_COUNT>  (1) 
0

>  <PUBCHEM_BOND_UDEF_STEREO_COUNT>  (1) 
1

>  <PUBCHEM_ISOTOPIC_ATOM_COUNT>  (1) 
0

>  <PUBCHEM_COMPONENT_COUNT>  (1) 
1

>  <PUBCHEM_CACTVS_TAUTO_COUNT>  (1) 
2

>  <PUBCHEM_CONFORMER_ID>  (1) 
0000589900000001

>  <PUBCHEM_MMFF94_ENERGY>  (1) 
28.9481

>  <PUBCHEM_FEATURE_SELFOVERLAP>  (1) 
40.689

>  <PUBCHEM_SHAPE_FINGERPRINT>  (1) 
11401426 45 18259702302982342573
11615757 297 17847065492961455784
12932764 1 17203311296169775794
13081056 2 18341894100062607440
13167823 11 18411416185457809566
13533116 47 17168413875114674978
14325111 11 18338797814835488896
17802600 8 18408881833020960532
17834072 33 18409730685719028718
187816 3 17167863067265939793
200 152 18342174466351927009
20279233 1 15285645365368407578
20645477 56 18042403535084015245
20645477 70 18269273469987562590
21267235 1 18411145723040658678
22485316 2 18411135831672979679
23402539 116 18408316700917918655
23557571 272 18270968946702679004
23559900 14 18409726249181433178
3545911 37 18409450271810223670
4214541 1 18338798905599147392
42788 4 18410573989720783493
4463277 17 18410294705805336209
5104073 3 18339360751666658434
5374978 207 18408317778949376808
58051976 378 18343301448865114422
77779 3 18412265004197046384
9709674 26 18409174281375582778

>  <PUBCHEM_SHAPE_MULTIPOLES>  (1) 
265.29
10.41
1.61
0.56
1.85
0.12
0
0.98
0
0.25
0
0.01
-0.01
0

>  <PUBCHEM_SHAPE_SELFOVERLAP>  (1) 
548.847

>  <PUBCHEM_SHAPE_VOLUME>  (1) 
152.9

>  <PUBCHEM_COORDINATE_TYPE>  (1) 
2
5
10

$$$$
