22688
     RDKit          3D

 11 10  0  0  0  0  0  0  0  0999 V2000
    4.3114    1.8118    0.6227 Br  0  0  0  0  0  0  0  0  0  0  0  0
    1.8830    0.0284   -0.3213 O   0  0  0  0  0  0  0  0  0  0  0  0
    0.6742   -1.7760    0.4552 O   0  0  0  0  0  0  0  0  0  0  0  0
   -2.9786    0.5257   -0.2124 C   0  0  0  0  0  0  0  0  0  0  0  0
   -1.7865   -0.3845    0.0989 C   0  0  0  0  0  0  0  0  0  0  0  0
   -4.2943   -0.1146    0.2304 C   0  0  0  0  0  0  0  0  0  0  0  0
   -0.4516    0.2430   -0.3023 C   0  0  0  0  0  0  0  0  0  0  0  0
   -5.4775    0.8026   -0.0347 C   0  0  0  0  0  0  0  0  0  0  0  0
    0.7366   -0.6464   -0.0102 C   0  0  0  0  0  0  0  0  0  0  0  0
    3.1020   -0.6775   -0.0681 C   0  0  0  0  0  0  0  0  0  0  0  0
    4.2815    0.1876   -0.4581 C   0  0  0  0  0  0  0  0  0  0  0  0
  1 11  1  0
  2  9  1  0
  2 10  1  0
  3  9  2  0
  4  5  1  0
  4  6  1  0
  5  7  1  0
  6  8  1  0
  7  9  1  0
 10 11  1  0
M  END
>  <PUBCHEM_COMPOUND_CID>  (1) 
22688

>  <PUBCHEM_CONFORMER_RMSD>  (1) 
0.8

>  <PUBCHEM_CONFORMER_DIVERSEORDER>  (1) 
1
144
64
120
186
143
129
4
184
7
116
88
17
190
20
95
170
83
31
99
52
47
172
39
8
175
179
74
76
168
185
2
94
3
126
63
122
86
9
27
59
183
72
180
15
111
192
101
49
189
109
56
173
10
146
26
112
161
14
28
67
162
157
58
149
124
108
132
119
40
135
84
80
182
12
166
13
113
81
45
191
147
187
156
145
11
125
136
148
69
102
30
106
57
60
6
188
16
22
77
92
93
55
43
18
174
41
5
87
154
176
142
163
134
114
103
62
96
66
91
139
110
159
171
35
155
158
68
164
24
138
79
133
78
21
121
33
127
107
51
181
137
73
23
19
178
38
167
152
34
89
98
90
71
46
97
130
44
160
29
70
151
131
54
65
140
25
150
115
50
37
100
141
105
117
177
165
104
85
169
48
53
61
153
36
75
123
118
128
32
42
82

>  <PUBCHEM_MMFF94_PARTIAL_CHARGES>  (1) 
7
1 -0.23
10 0.28
11 0.23
2 -0.43
3 -0.57
7 0.06
9 0.66

>  <PUBCHEM_EFFECTIVE_ROTOR_COUNT>  (1) 
7

>  <PUBCHEM_PHARMACOPHORE_FEATURES>  (1) 
4
1 1 hydrophobe
1 3 acceptor
1 8 hydrophobe
4 4 5 6 7 hydrophobe

>  <PUBCHEM_HEAVY_ATOM_COUNT>  (1) 
11

>  <PUBCHEM_ATOM_DEF_STEREO_COUNT>  (1) 
0

>  <PUBCHEM_ATOM_UDEF_STEREO_COUNT>  (1) 
0

>  <PUBCHEM_BOND_DEF_STEREO_COUNT>  (1) 
0

>  <PUBCHEM_BOND_UDEF_STEREO_COUNT>  (1) 
0

>  <PUBCHEM_ISOTOPIC_ATOM_COUNT>  (1) 
0

>  <PUBCHEM_COMPONENT_COUNT>  (1) 
1

>  <PUBCHEM_CACTVS_TAUTO_COUNT>  (1) 
1

>  <PUBCHEM_CONFORMER_ID>  (1) 
000058A000000001

>  <PUBCHEM_MMFF94_ENERGY>  (1) 
2.3442

>  <PUBCHEM_FEATURE_SELFOVERLAP>  (1) 
20.298

>  <PUBCHEM_SHAPE_FINGERPRINT>  (1) 
11062470 55 17822014190175125271
122479 349 18265614462930561842
13081056 2 18411419496909094028
14123238 8 17967534571317430933
14251718 22 18131629011289070575
14455015 7 9655577443810608429
177051 138 8070036570958415900
17834072 33 17775560974973943333
17834076 25 18408324372019451533
18186145 218 18412539921080495148
20605781 2 18341330080398611424
20645477 70 18059299742947274798
20871999 31 16987705956455658319
212847 35 18408041823528055996
22959321 54 18202285840229711600
23402539 116 15430033279936842175
23402655 69 17988924478650039101
23590187 198 12035447238170224593
4047638 21 18342458153801174032
42 15 12107782999738005841
42788 4 18412827975841608053
449060 50 18410013226042827095
449060 62 18342739645979145208

>  <PUBCHEM_SHAPE_MULTIPOLES>  (1) 
220.58
11.44
1.4
0.72
6.55
0.2
-0.02
5.3
-0.19
-1.37
-0.28
-0.22
0.04
0.46

>  <PUBCHEM_SHAPE_SELFOVERLAP>  (1) 
387.978

>  <PUBCHEM_SHAPE_VOLUME>  (1) 
146.4

>  <PUBCHEM_COORDINATE_TYPE>  (1) 
2
5
10

$$$$
