22682
     RDKit          3D

 12 12  0  0  0  0  0  0  0  0999 V2000
    0.7368    1.0627    0.5624 N   0  0  0  0  0  0  0  0  0  0  0  0
    1.7202   -2.1866    0.2362 N   0  0  0  0  0  0  0  0  0  0  0  0
   -0.5283    0.5880    0.0040 C   0  0  0  0  0  0  0  0  0  0  0  0
   -0.6675   -0.9311    0.1939 C   0  0  0  0  0  0  0  0  0  0  0  0
   -1.7070    1.3298    0.6342 C   0  0  0  0  0  0  0  0  0  0  0  0
   -2.1171   -1.4227    0.1238 C   0  0  0  0  0  0  0  0  0  0  0  0
   -3.0384    0.9267   -0.0087 C   0  0  0  0  0  0  0  0  0  0  0  0
   -3.0195   -0.4655   -0.6421 C   0  0  0  0  0  0  0  0  0  0  0  0
    1.8646    0.4247   -0.0994 C   0  0  0  0  0  0  0  0  0  0  0  0
    3.1718    0.9552    0.5014 C   0  0  0  0  0  0  0  0  0  0  0  0
    1.8018    0.7558   -1.5949 C   0  0  0  0  0  0  0  0  0  0  0  0
    1.7826   -1.0369    0.0892 C   0  0  0  0  0  0  0  0  0  0  0  0
  1  3  1  0
  1  9  1  0
  2 12  3  0
  3  4  1  0
  3  5  1  0
  4  6  1  0
  5  7  1  0
  6  8  1  0
  7  8  1  0
  9 10  1  0
  9 11  1  0
  9 12  1  0
M  END
>  <PUBCHEM_COMPOUND_CID>  (1) 
22682

>  <PUBCHEM_CONFORMER_RMSD>  (1) 
0.6

>  <PUBCHEM_CONFORMER_DIVERSEORDER>  (1) 
1
2

>  <PUBCHEM_MMFF94_PARTIAL_CHARGES>  (1) 
6
1 -0.9
12 0.36
2 -0.56
24 0.36
3 0.27
9 0.47

>  <PUBCHEM_EFFECTIVE_ROTOR_COUNT>  (1) 
3.2

>  <PUBCHEM_PHARMACOPHORE_FEATURES>  (1) 
5
1 1 cation
1 1 donor
1 2 acceptor
3 9 10 11 hydrophobe
6 3 4 5 6 7 8 rings

>  <PUBCHEM_HEAVY_ATOM_COUNT>  (1) 
12

>  <PUBCHEM_ATOM_DEF_STEREO_COUNT>  (1) 
0

>  <PUBCHEM_ATOM_UDEF_STEREO_COUNT>  (1) 
0

>  <PUBCHEM_BOND_DEF_STEREO_COUNT>  (1) 
0

>  <PUBCHEM_BOND_UDEF_STEREO_COUNT>  (1) 
0

>  <PUBCHEM_ISOTOPIC_ATOM_COUNT>  (1) 
0

>  <PUBCHEM_COMPONENT_COUNT>  (1) 
1

>  <PUBCHEM_CACTVS_TAUTO_COUNT>  (1) 
1

>  <PUBCHEM_CONFORMER_ID>  (1) 
0000589A00000001

>  <PUBCHEM_MMFF94_ENERGY>  (1) 
38.3504

>  <PUBCHEM_FEATURE_SELFOVERLAP>  (1) 
25.371

>  <PUBCHEM_SHAPE_FINGERPRINT>  (1) 
10922523 26 18042119865088476141
12423570 1 17057529424581086748
12897270 3 18339644545962637765
12932764 1 18272379654596599449
13380535 21 18337406979776222531
13380535 76 18408598184416135002
14128692 85 18267589000771997934
14144814 61 18411699868168627097
14325111 11 18411698751566963209
15775835 57 18412830157500527481
16945 1 18337960094291361737
18619055 16 18338510846637915173
20201158 50 18411412955673694227
20653085 51 17458624463482163941
20711985 344 17415305852277874248
21501502 16 18341890749518351931
23235687 12 17458343073819067789
23402655 69 18270385132467780573
23552423 10 18333734593775503099
23559900 14 18343029913276111604
2748010 2 18410580565131337759
3248919 1 17894353297617629225
3312278 4 18340487867302498099
369184 2 18272369759092052825
5084963 1 18187928318219204005
53812653 166 18272365412268800928
63268167 104 18336827489940557201
7364860 26 18272369716216486174
8030462 33 18412269432255574693

>  <PUBCHEM_SHAPE_MULTIPOLES>  (1) 
236.99
4.86
1.76
0.95
0.78
0.69
-0.32
-0.58
-0.2
-0.15
0.23
-0.32
-0.22
-0.25

>  <PUBCHEM_SHAPE_SELFOVERLAP>  (1) 
468.489

>  <PUBCHEM_SHAPE_VOLUME>  (1) 
138.7

>  <PUBCHEM_COORDINATE_TYPE>  (1) 
2
5
10

$$$$
