22680
     RDKit          3D

 13 13  0  0  0  0  0  0  0  0999 V2000
    0.7824    0.2603    0.0083 O   0  0  0  0  0  0  0  0  0  0  0  0
    4.2701    0.4799   -0.0063 O   0  0  0  0  0  0  0  0  0  0  0  0
    2.7060    2.0260    0.0126 O   0  0  0  0  0  0  0  0  0  0  0  0
   -4.1178    1.6304   -0.0251 O   0  0  0  0  0  0  0  0  0  0  0  0
   -4.3464   -0.6391    0.0181 O   0  0  0  0  0  0  0  0  0  0  0  0
    3.0475    0.8072    0.0022 N   0  0  0  0  0  0  0  0  0  0  0  0
   -0.0122   -0.8421    0.0030 C   0  0  0  0  0  0  0  0  0  0  0  0
    0.7499   -1.9870   -0.0092 C   0  0  0  0  0  0  0  0  0  0  0  0
    2.0659   -0.1856   -0.0010 C   0  0  0  0  0  0  0  0  0  0  0  0
    2.0995   -1.5607   -0.0119 C   0  0  0  0  0  0  0  0  0  0  0  0
   -1.4233   -0.7517    0.0105 C   0  0  0  0  0  0  0  0  0  0  0  0
   -2.1729    0.4014   -0.0001 C   0  0  0  0  0  0  0  0  0  0  0  0
   -3.6489    0.3609   -0.0010 C   0  0  0  0  0  0  0  0  0  0  0  0
  1  7  1  0
  1  9  1  0
  2  6  1  0
  3  6  2  0
  4 13  1  0
  5 13  2  0
  6  9  1  0
  7  8  2  0
  7 11  1  0
  8 10  1  0
  9 10  2  0
 11 12  2  0
 12 13  1  0
M  CHG  2   2  -1   6   1
M  END
>  <PUBCHEM_COMPOUND_CID>  (1) 
22680

>  <PUBCHEM_CONFORMER_RMSD>  (1) 
0.6

>  <PUBCHEM_CONFORMER_DIVERSEORDER>  (1) 
1
3
2

>  <PUBCHEM_MMFF94_PARTIAL_CHARGES>  (1) 
18
1 -0.28
10 -0.15
11 -0.11
12 -0.14
13 0.71
14 0.15
15 0.15
16 0.15
17 0.15
18 0.5
2 -0.52
3 -0.52
4 -0.65
5 -0.57
6 0.96
7 0.09
8 -0.15
9 0.22

>  <PUBCHEM_EFFECTIVE_ROTOR_COUNT>  (1) 
3

>  <PUBCHEM_PHARMACOPHORE_FEATURES>  (1) 
8
1 1 acceptor
1 2 acceptor
1 2 anion
1 3 acceptor
1 4 acceptor
1 5 acceptor
3 4 5 13 anion
5 1 7 8 9 10 rings

>  <PUBCHEM_HEAVY_ATOM_COUNT>  (1) 
13

>  <PUBCHEM_ATOM_DEF_STEREO_COUNT>  (1) 
0

>  <PUBCHEM_ATOM_UDEF_STEREO_COUNT>  (1) 
0

>  <PUBCHEM_BOND_DEF_STEREO_COUNT>  (1) 
0

>  <PUBCHEM_BOND_UDEF_STEREO_COUNT>  (1) 
1

>  <PUBCHEM_ISOTOPIC_ATOM_COUNT>  (1) 
0

>  <PUBCHEM_COMPONENT_COUNT>  (1) 
1

>  <PUBCHEM_CACTVS_TAUTO_COUNT>  (1) 
1

>  <PUBCHEM_CONFORMER_ID>  (1) 
0000589800000001

>  <PUBCHEM_MMFF94_ENERGY>  (1) 
22.5925

>  <PUBCHEM_FEATURE_SELFOVERLAP>  (1) 
40.745

>  <PUBCHEM_SHAPE_FINGERPRINT>  (1) 
10608611 8 18335700495065025805
10980938 120 18410856542465208131
11471102 20 18411134693248112046
122479 349 18262240026921130714
12932764 1 17203032033370403827
13380535 76 18409167735623715242
14325111 11 18410575055110160163
14415576 193 18411421691505214709
14897335 6 18412260653173980271
15442244 35 17980200781728382899
15775835 57 18342738528759887359
170605 34 18408322185380282339
18186145 218 18271252612265255847
20281407 28 9727639414140343671
20606313 2 18411699863921145356
20645477 70 18270115695984064407
21499 59 18411976987890439007
21524375 3 18410009978842069674
23402539 116 18130780179295276932
23402655 69 18272366434808516821
25 1 18410854360938430390
449060 62 18341614785079653529
4990 188 17988653981942124774
58051976 378 18343017817904621927
6333272 397 18335702801177529731
7364860 26 18268711619424410590

>  <PUBCHEM_SHAPE_MULTIPOLES>  (1) 
233.21
7.69
1.77
0.57
4.62
0.06
0
3.25
0.01
-0.85
0
0.02
-0.04
0.02

>  <PUBCHEM_SHAPE_SELFOVERLAP>  (1) 
487.252

>  <PUBCHEM_SHAPE_VOLUME>  (1) 
132.4

>  <PUBCHEM_COORDINATE_TYPE>  (1) 
2
5
10

$$$$
