22696
     RDKit          3D

 15 15  0  0  0  0  0  0  0  0999 V2000
   -0.0011    2.5007    0.0017 Cl  0  0  0  0  0  0  0  0  0  0  0  0
    2.6748   -2.2499   -0.0024 Cl  0  0  0  0  0  0  0  0  0  0  0  0
   -2.6745   -2.2499    0.0031 Cl  0  0  0  0  0  0  0  0  0  0  0  0
   -3.5133    0.1132   -0.0006 O   0  0  0  0  0  0  0  0  0  0  0  0
    3.5136    0.1139    0.0022 O   0  0  0  0  0  0  0  0  0  0  0  0
   -2.4263    2.0205   -0.0010 O   0  0  0  0  0  0  0  0  0  0  0  0
    2.4260    2.0208   -0.0002 O   0  0  0  0  0  0  0  0  0  0  0  0
   -2.4486    0.7699   -0.0008 N   0  0  0  0  0  0  0  0  0  0  0  0
    2.4487    0.7700    0.0006 N   0  0  0  0  0  0  0  0  0  0  0  0
   -1.2078    0.0626   -0.0005 C   0  0  0  0  0  0  0  0  0  0  0  0
    1.2083    0.0625   -0.0008 C   0  0  0  0  0  0  0  0  0  0  0  0
    0.0003    0.7601   -0.0009 C   0  0  0  0  0  0  0  0  0  0  0  0
    1.2080   -1.3324   -0.0004 C   0  0  0  0  0  0  0  0  0  0  0  0
   -1.2080   -1.3322    0.0000 C   0  0  0  0  0  0  0  0  0  0  0  0
   -0.0002   -2.0297    0.0000 C   0  0  0  0  0  0  0  0  0  0  0  0
  1 12  1  0
  2 13  1  0
  3 14  1  0
  4  8  1  0
  5  9  1  0
  6  8  2  0
  7  9  2  0
  8 10  1  0
  9 11  1  0
 10 12  2  0
 10 14  1  0
 11 12  1  0
 11 13  2  0
 13 15  1  0
 14 15  2  0
M  CHG  4   4  -1   5  -1   8   1   9   1
M  END
>  <PUBCHEM_COMPOUND_CID>  (1) 
22696

>  <PUBCHEM_CONFORMER_RMSD>  (1) 
0.6

>  <PUBCHEM_CONFORMER_DIVERSEORDER>  (1) 
1

>  <PUBCHEM_MMFF94_PARTIAL_CHARGES>  (1) 
16
1 -0.18
10 0.13
11 0.13
12 0.18
13 0.18
14 0.18
15 -0.15
16 0.15
2 -0.18
3 -0.18
4 -0.52
5 -0.52
6 -0.52
7 -0.52
8 0.91
9 0.91

>  <PUBCHEM_EFFECTIVE_ROTOR_COUNT>  (1) 
2

>  <PUBCHEM_PHARMACOPHORE_FEATURES>  (1) 
7
1 4 acceptor
1 4 anion
1 5 acceptor
1 5 anion
1 6 acceptor
1 7 acceptor
6 10 11 12 13 14 15 rings

>  <PUBCHEM_HEAVY_ATOM_COUNT>  (1) 
15

>  <PUBCHEM_ATOM_DEF_STEREO_COUNT>  (1) 
0

>  <PUBCHEM_ATOM_UDEF_STEREO_COUNT>  (1) 
0

>  <PUBCHEM_BOND_DEF_STEREO_COUNT>  (1) 
0

>  <PUBCHEM_BOND_UDEF_STEREO_COUNT>  (1) 
0

>  <PUBCHEM_ISOTOPIC_ATOM_COUNT>  (1) 
0

>  <PUBCHEM_COMPONENT_COUNT>  (1) 
1

>  <PUBCHEM_CACTVS_TAUTO_COUNT>  (1) 
1

>  <PUBCHEM_CONFORMER_ID>  (1) 
000058A800000001

>  <PUBCHEM_MMFF94_ENERGY>  (1) 
87.4307

>  <PUBCHEM_FEATURE_SELFOVERLAP>  (1) 
35.686

>  <PUBCHEM_SHAPE_FINGERPRINT>  (1) 
10608611 8 18410854360616637956
10967382 1 18410575063193536679
11132069 177 18339635741211193832
11206711 2 18265897045650281999
11680986 33 18411982421272163530
12382932 28 18411976966515569506
12423570 1 16021726343681172934
13140716 1 18410573942207514603
13380535 21 18410866459539673190
13380535 76 18410570686616951079
13897977 150 18411134744692657063
14325111 11 18338516343932244929
15442244 35 18338796685122329866
15536298 74 18343300328073854626
16945 1 18410575088958046212
193761 8 18410573989446710758
20510252 161 18127133197773003472
20588541 1 18410575084668477108
21501502 16 18410572889935225895
22802520 49 18200893789351497078
2334 1 18410575119028514274
23402539 116 18270387390792260142
23463225 33 18408601461549852794
23526114 1 18411419513994147534
23552423 10 18335140916386846094
23559900 14 18343311379789546772
2748010 2 18411420613415981134
335352 9 18050568434836771327
528886 8 18411412912586773906
53812653 166 18343017839046798176
7364860 26 18342174445309866994

>  <PUBCHEM_SHAPE_MULTIPOLES>  (1) 
280.86
4.73
2.98
0.59
0
0.21
0
-0.45
0
0
0
0
-0.05
0

>  <PUBCHEM_SHAPE_SELFOVERLAP>  (1) 
578.483

>  <PUBCHEM_SHAPE_VOLUME>  (1) 
163.6

>  <PUBCHEM_COORDINATE_TYPE>  (1) 
2
5
10

$$$$
