22709
     RDKit          3D

 27 29  0  0  0  0  0  0  0  0999 V2000
    5.5219    3.7598    1.0022 Cl  0  0  0  0  0  0  0  0  0  0  0  0
   -0.6149   -4.3738   -0.7013 O   0  0  0  0  0  0  0  0  0  0  0  0
   -4.8512    1.0250    0.6009 N   0  0  0  0  0  0  0  0  0  0  0  0
    0.0297    0.6117   -1.3295 N   0  0  0  0  0  0  0  0  0  0  0  0
    3.3731   -0.8296    0.7469 N   0  0  0  0  0  0  0  0  0  0  0  0
   -2.6265    1.4638   -0.3308 C   0  0  0  0  0  0  0  0  0  0  0  0
   -4.1325    1.6677   -0.4929 C   0  0  0  0  0  0  0  0  0  0  0  0
   -1.8525    2.1408   -1.4670 C   0  0  0  0  0  0  0  0  0  0  0  0
   -0.3409    1.9868   -1.3232 C   0  0  0  0  0  0  0  0  0  0  0  0
   -6.2904    1.2664    0.4844 C   0  0  0  0  0  0  0  0  0  0  0  0
   -4.5778   -0.4131    0.6225 C   0  0  0  0  0  0  0  0  0  0  0  0
    1.1638    0.1226   -0.6264 C   0  0  0  0  0  0  0  0  0  0  0  0
    1.2518   -1.2375   -0.3127 C   0  0  0  0  0  0  0  0  0  0  0  0
    2.1817    1.0061   -0.2529 C   0  0  0  0  0  0  0  0  0  0  0  0
    2.3901   -1.6763    0.3847 C   0  0  0  0  0  0  0  0  0  0  0  0
    3.2836    0.4794    0.4421 C   0  0  0  0  0  0  0  0  0  0  0  0
   -6.5973    2.7542    0.4601 C   0  0  0  0  0  0  0  0  0  0  0  0
   -5.2679   -1.0856    1.7972 C   0  0  0  0  0  0  0  0  0  0  0  0
    0.2438   -2.1477   -0.6755 C   0  0  0  0  0  0  0  0  0  0  0  0
    2.1193    2.3776   -0.5550 C   0  0  0  0  0  0  0  0  0  0  0  0
    2.4834   -3.0292    0.7001 C   0  0  0  0  0  0  0  0  0  0  0  0
    4.3000    1.3540    0.8168 C   0  0  0  0  0  0  0  0  0  0  0  0
    0.3613   -3.4952   -0.3482 C   0  0  0  0  0  0  0  0  0  0  0  0
    1.4835   -3.9365    0.3410 C   0  0  0  0  0  0  0  0  0  0  0  0
    3.1488    3.2307   -0.1691 C   0  0  0  0  0  0  0  0  0  0  0  0
    4.2413    2.7175    0.5182 C   0  0  0  0  0  0  0  0  0  0  0  0
   -0.4252   -5.7395   -0.3326 C   0  0  0  0  0  0  0  0  0  0  0  0
  1 26  1  0
  2 23  1  0
  2 27  1  0
  3  7  1  0
  3 10  1  0
  3 11  1  0
  4  9  1  0
  4 12  1  0
  5 15  2  0
  5 16  1  0
  6  7  1  0
  6  8  1  0
  8  9  1  0
 10 17  1  0
 11 18  1  0
 12 13  2  0
 12 14  1  0
 13 15  1  0
 13 19  1  0
 14 16  2  0
 14 20  1  0
 15 21  1  0
 16 22  1  0
 19 23  2  0
 20 25  2  0
 21 24  2  0
 22 26  2  0
 23 24  1  0
 25 26  1  0
M  END
>  <PUBCHEM_COMPOUND_CID>  (1) 
22709

>  <PUBCHEM_CONFORMER_RMSD>  (1) 
1

>  <PUBCHEM_CONFORMER_DIVERSEORDER>  (1) 
1
10
35
33
20
22
30
12
29
13
4
9
32
6
31
11
23
8
21
34
24
26
18
17
25
15
7
3
19
27
28
2
5
16
14

>  <PUBCHEM_MMFF94_PARTIAL_CHARGES>  (1) 
28
1 -0.18
10 0.27
11 0.27
12 0.1
15 0.31
16 0.31
19 -0.15
2 -0.36
20 -0.15
21 -0.15
22 -0.15
23 0.08
24 -0.15
25 -0.15
26 0.18
27 0.28
3 -0.81
4 -0.87
40 0.4
47 0.15
48 0.15
49 0.15
5 -0.62
50 0.15
51 0.15
52 0.15
7 0.27
9 0.37

>  <PUBCHEM_EFFECTIVE_ROTOR_COUNT>  (1) 
9

>  <PUBCHEM_PHARMACOPHORE_FEATURES>  (1) 
8
1 2 acceptor
1 3 cation
1 4 cation
1 4 donor
1 5 acceptor
6 13 15 19 21 23 24 rings
6 14 16 20 22 25 26 rings
6 5 12 13 14 15 16 rings

>  <PUBCHEM_HEAVY_ATOM_COUNT>  (1) 
27

>  <PUBCHEM_ATOM_DEF_STEREO_COUNT>  (1) 
0

>  <PUBCHEM_ATOM_UDEF_STEREO_COUNT>  (1) 
0

>  <PUBCHEM_BOND_DEF_STEREO_COUNT>  (1) 
0

>  <PUBCHEM_BOND_UDEF_STEREO_COUNT>  (1) 
0

>  <PUBCHEM_ISOTOPIC_ATOM_COUNT>  (1) 
0

>  <PUBCHEM_COMPONENT_COUNT>  (1) 
1

>  <PUBCHEM_CACTVS_TAUTO_COUNT>  (1) 
2

>  <PUBCHEM_CONFORMER_ID>  (1) 
000058B500000001

>  <PUBCHEM_MMFF94_ENERGY>  (1) 
114.7116

>  <PUBCHEM_FEATURE_SELFOVERLAP>  (1) 
40.656

>  <PUBCHEM_SHAPE_FINGERPRINT>  (1) 
1100329 8 18338780262016358754
11227688 84 17619612601810018246
114674 6 17972044643608807443
12035758 1 18266437847264518530
12788726 201 17327184754551792244
13533116 47 18266184916551142957
13785724 45 17335628510095292695
14150022 121 17259890240833983832
14790565 3 18192436496150493132
14863182 85 18261121724758655276
14866123 147 18193266623787981058
14955137 171 18123467186026185430
15338160 23 17619905497653511256
15420108 30 18337946908720930514
15927050 60 18339921627842270470
16126227 98 18122063376013597104
16708801 149 16194554277822926201
16992610 120 18190194558726887052
17913733 40 18412255147047298352
19319366 153 18201146689968900317
1979834 28 18261967279798357597
20642791 13 17906726265769946564
20739085 24 18260835881763580053
21133410 32 16163345820904831995
21197605 99 18262807379828389251
21304303 172 17618784004261048046
21796203 349 18050296872877182274
23559900 14 18193274092430290113
23572383 38 18040720264807690177
23845131 108 18339350980684916753
3178227 256 18337106753578861728
3421961 26 18120375363322809005
4403749 210 18191577760600528549
5104073 3 18335149657436714849
5309563 4 17834390120868712391
5969126 39 8574172543894175248
6442390 28 18410295851997101996
653340 110 17836074955113779360
7399639 24 18261667104022727469
9658208 31 18268719475336268132
9777508 108 18052811735152985144

>  <PUBCHEM_SHAPE_MULTIPOLES>  (1) 
536.7
12.23
6.74
1.19
18.36
9.61
0.02
-15.2
6.35
-3.3
-0.4
0.54
-0.28
0.85

>  <PUBCHEM_SHAPE_SELFOVERLAP>  (1) 
1132.379

>  <PUBCHEM_SHAPE_VOLUME>  (1) 
304.8

>  <PUBCHEM_COORDINATE_TYPE>  (1) 
2
5
10

$$$$
