22704
     RDKit          3D

 13 14  0  0  0  0  0  0  0  0999 V2000
   -2.0809    1.5907    0.0005 S   0  0  0  0  0  0  0  0  0  0  0  0
    3.8799   -0.6048    0.0002 O   0  0  0  0  0  0  0  0  0  0  0  0
    3.3359    1.5220   -0.0005 O   0  0  0  0  0  0  0  0  0  0  0  0
   -2.4426   -0.9629   -0.0007 N   0  0  0  0  0  0  0  0  0  0  0  0
    3.0196    0.3081    0.0001 N   0  0  0  0  0  0  0  0  0  0  0  0
   -4.4181    0.3312    0.0000 N   0  0  0  0  0  0  0  0  0  0  0  0
   -0.6768    0.5900   -0.0002 C   0  0  0  0  0  0  0  0  0  0  0  0
   -1.0715   -0.7513   -0.0003 C   0  0  0  0  0  0  0  0  0  0  0  0
    0.6765    0.9648   -0.0001 C   0  0  0  0  0  0  0  0  0  0  0  0
    1.6431   -0.0441    0.0001 C   0  0  0  0  0  0  0  0  0  0  0  0
   -0.0743   -1.7510    0.0001 C   0  0  0  0  0  0  0  0  0  0  0  0
    1.2749   -1.3849    0.0003 C   0  0  0  0  0  0  0  0  0  0  0  0
   -3.0657    0.1923    0.0003 C   0  0  0  0  0  0  0  0  0  0  0  0
  1  7  1  0
  1 13  1  0
  2  5  1  0
  3  5  2  0
  4  8  1  0
  4 13  2  0
  5 10  1  0
  6 13  1  0
  7  8  2  0
  7  9  1  0
  8 11  1  0
  9 10  2  0
 10 12  1  0
 11 12  2  0
M  CHG  2   2  -1   5   1
M  END
>  <PUBCHEM_COMPOUND_CID>  (1) 
22704

>  <PUBCHEM_CONFORMER_RMSD>  (1) 
0.4

>  <PUBCHEM_CONFORMER_DIVERSEORDER>  (1) 
1

>  <PUBCHEM_MMFF94_PARTIAL_CHARGES>  (1) 
18
1 -0.08
10 0.13
11 -0.15
12 -0.15
13 0.46
14 0.15
15 0.15
16 0.15
17 0.4
18 0.4
2 -0.52
3 -0.52
4 -0.57
5 0.91
6 -0.88
7 0.04
8 0.23
9 -0.15

>  <PUBCHEM_EFFECTIVE_ROTOR_COUNT>  (1) 
1

>  <PUBCHEM_PHARMACOPHORE_FEATURES>  (1) 
7
1 2 acceptor
1 2 anion
1 3 acceptor
1 6 donor
3 4 6 13 cation
5 1 4 7 8 13 rings
6 7 8 9 10 11 12 rings

>  <PUBCHEM_HEAVY_ATOM_COUNT>  (1) 
13

>  <PUBCHEM_ATOM_DEF_STEREO_COUNT>  (1) 
0

>  <PUBCHEM_ATOM_UDEF_STEREO_COUNT>  (1) 
0

>  <PUBCHEM_BOND_DEF_STEREO_COUNT>  (1) 
0

>  <PUBCHEM_BOND_UDEF_STEREO_COUNT>  (1) 
0

>  <PUBCHEM_ISOTOPIC_ATOM_COUNT>  (1) 
0

>  <PUBCHEM_COMPONENT_COUNT>  (1) 
1

>  <PUBCHEM_CACTVS_TAUTO_COUNT>  (1) 
2

>  <PUBCHEM_CONFORMER_ID>  (1) 
000058B000000001

>  <PUBCHEM_MMFF94_ENERGY>  (1) 
30.9012

>  <PUBCHEM_FEATURE_SELFOVERLAP>  (1) 
35.673

>  <PUBCHEM_SHAPE_FINGERPRINT>  (1) 
10219947 1 18260268546653557421
10608611 8 18410007702303830452
11132069 177 18412537734462145448
11471102 20 18411415103152061069
11543360 7 15697710523236461161
12032990 46 18410582776991963906
12932764 1 16987982921874878513
13380535 76 18410575071968542331
14325111 11 18410855468902868612
15536298 74 18271806753293812462
15775835 57 18342740723620011787
16945 1 18410855460286540775
17846911 113 18412257350343889480
18186145 218 18343871000177936180
193761 8 17762336911949760194
20201158 50 18410856538439389651
20645476 183 17823717436755515166
20645477 70 18267860580613765255
20871998 184 18128543858333158703
21501502 16 18194399983599349225
23235685 24 18409724067137515145
23402539 116 18271515455362535519
23402655 69 18269542868043426493
23463225 33 18335136449789429450
23559900 14 18272652390042843472
2748010 2 18193840336317529607
366044 4 18410292518786098970
528886 8 18411132545885796379
53655031 270 18412262805121023995
53812653 166 18343015609890206272
69090 78 18202558492736765783
7364860 26 18197216945159153286

>  <PUBCHEM_SHAPE_MULTIPOLES>  (1) 
244.7
6.12
1.65
0.59
0.04
0.06
0
-1.23
0
0.21
0
-0.05
-0.01
0

>  <PUBCHEM_SHAPE_SELFOVERLAP>  (1) 
523.113

>  <PUBCHEM_SHAPE_VOLUME>  (1) 
138.3

>  <PUBCHEM_COORDINATE_TYPE>  (1) 
2
5
10

$$$$
