22732
     RDKit          3D

 11 10  0  0  0  0  0  0  0  0999 V2000
   -4.1731    1.1130   -0.3025 Cl  0  0  0  0  0  0  0  0  0  0  0  0
    1.8437   -0.1042   -0.0507 O   0  0  0  0  0  0  0  0  0  0  0  0
    0.5949    1.7501    0.4416 O   0  0  0  0  0  0  0  0  0  0  0  0
   -1.2281   -2.4537    0.0633 O   0  0  0  0  0  0  0  0  0  0  0  0
   -0.4264   -0.3271    0.2743 N   0  0  0  0  0  0  0  0  0  0  0  0
   -0.1976   -1.7737    0.0079 N   0  0  0  0  0  0  0  0  0  0  0  0
   -1.7743    0.1392    0.5614 C   0  0  0  0  0  0  0  0  0  0  0  0
   -2.5315    0.5431   -0.6925 C   0  0  0  0  0  0  0  0  0  0  0  0
    3.0140    0.7199   -0.1067 C   0  0  0  0  0  0  0  0  0  0  0  0
    0.6668    0.5394    0.2386 C   0  0  0  0  0  0  0  0  0  0  0  0
    4.2116   -0.1460   -0.4345 C   0  0  0  0  0  0  0  0  0  0  0  0
  1  8  1  0
  2  9  1  0
  2 10  1  0
  3 10  2  0
  4  6  2  0
  5  6  1  0
  5  7  1  0
  5 10  1  0
  7  8  1  0
  9 11  1  0
M  END
>  <PUBCHEM_COMPOUND_CID>  (1) 
22732

>  <PUBCHEM_CONFORMER_RMSD>  (1) 
0.6

>  <PUBCHEM_CONFORMER_DIVERSEORDER>  (1) 
1
199
50
6
49
29
162
51
81
87
33
38
189
192
78
90
26
112
59
194
174
179
201
86
172
108
84
102
195
140
43
62
129
109
72
67
117
31
85
167
80
134
56
181
143
53
180
164
21
191
128
123
60
34
188
186
96
197
170
12
42
184
168
203
139
120
152
69
83
10
151
124
118
111
24
37
166
156
66
173
171
101
63
11
55
68
92
2
198
99
149
9
105
91
41
122
36
178
114
18
132
135
136
133
23
27
25
165
147
113
71
130
157
110
82
204
154
196
141
57
40
183
94
76
8
202
14
155
182
137
58
159
146
70
46
64
73
193
142
47
32
116
93
20
187
160
98
79
104
125
161
177
175
48
30
75
106
185
16
89
61
131
103
119
144
17
176
163
169
7
145
138
127
3
158
97
77
153
39
65
200
44
15
148
4
74
150
35
88
95
28
45
5
115
19
107
190
13
22
52
54
100
126
121

>  <PUBCHEM_MMFF94_PARTIAL_CHARGES>  (1) 
10
1 -0.29
10 0.78
2 -0.43
3 -0.57
4 -0.16
5 -0.18
6 -0.02
7 0.3
8 0.29
9 0.28

>  <PUBCHEM_EFFECTIVE_ROTOR_COUNT>  (1) 
6

>  <PUBCHEM_PHARMACOPHORE_FEATURES>  (1) 
1
1 3 acceptor

>  <PUBCHEM_HEAVY_ATOM_COUNT>  (1) 
11

>  <PUBCHEM_ATOM_DEF_STEREO_COUNT>  (1) 
0

>  <PUBCHEM_ATOM_UDEF_STEREO_COUNT>  (1) 
0

>  <PUBCHEM_BOND_DEF_STEREO_COUNT>  (1) 
0

>  <PUBCHEM_BOND_UDEF_STEREO_COUNT>  (1) 
0

>  <PUBCHEM_ISOTOPIC_ATOM_COUNT>  (1) 
0

>  <PUBCHEM_COMPONENT_COUNT>  (1) 
1

>  <PUBCHEM_CACTVS_TAUTO_COUNT>  (1) 
1

>  <PUBCHEM_CONFORMER_ID>  (1) 
000058CC00000001

>  <PUBCHEM_MMFF94_ENERGY>  (1) 
12.084

>  <PUBCHEM_FEATURE_SELFOVERLAP>  (1) 
5.074

>  <PUBCHEM_SHAPE_FINGERPRINT>  (1) 
10726558 24 18410013191567037679
11062470 55 17489586757732556772
12932764 1 17603855745980698272
14325111 11 18409165515304542409
14911166 2 18413672400613692428
14993402 34 18410573972303725892
15775835 57 18260544511445560229
18186145 218 18272076202330510769
18511873 20 18260266356584181316
187816 3 18130788936364503568
20201158 50 18131075918016613686
20645477 56 18335418014913376788
20653085 51 18187930637354123665
20711985 327 7997678831615466059
20871999 31 18263650726410084142
21119208 17 16988838363428117781
21293036 1 18412261726963134181
23235685 24 18410005520803134009
23402539 116 18343575226943939060
23402655 69 18268699525355629085
23552423 10 18045784747997522440
23559900 14 18343021112824772760
2748010 2 18126848437320234952
3250762 1 17838326737700142105
366044 4 18408322168384808571
81539 233 17895750682613168675

>  <PUBCHEM_SHAPE_MULTIPOLES>  (1) 
200.67
6.71
1.74
0.72
1.24
1.19
0.03
-2.34
1.58
-0.68
-0.09
-0.14
-0.08
0.23

>  <PUBCHEM_SHAPE_SELFOVERLAP>  (1) 
361.455

>  <PUBCHEM_SHAPE_VOLUME>  (1) 
129.9

>  <PUBCHEM_COORDINATE_TYPE>  (1) 
2
5
10

$$$$
