2273
     RDKit          3D

 23 25  0  0  0  0  0  0  0  0999 V2000
   -2.8598    3.1982    0.0068 Cl  0  0  0  0  0  0  0  0  0  0  0  0
   -4.5305    0.4294    0.0202 S   0  0  0  0  0  0  0  0  0  0  0  0
    4.2848    0.4211   -1.2468 S   0  0  0  0  0  0  0  0  0  0  0  0
   -4.9609   -0.8343    0.5964 O   0  0  0  0  0  0  0  0  0  0  0  0
   -5.0173    1.6843    0.5707 O   0  0  0  0  0  0  0  0  0  0  0  0
    1.4248    0.4404    0.0676 N   0  0  0  0  0  0  0  0  0  0  0  0
   -4.8368    0.4072   -1.6593 N   0  0  0  0  0  0  0  0  0  0  0  0
   -0.5403   -3.1343    0.6392 N   0  0  0  0  0  0  0  0  0  0  0  0
    1.1967   -2.2168   -0.4871 N   0  0  0  0  0  0  0  0  0  0  0  0
    0.4567   -3.9920    0.3801 N   0  0  0  0  0  0  0  0  0  0  0  0
    1.5066   -3.4918   -0.2860 N   0  0  0  0  0  0  0  0  0  0  0  0
    0.0109    0.4291    0.0567 C   0  0  0  0  0  0  0  0  0  0  0  0
   -0.7028   -0.7694    0.0612 C   0  0  0  0  0  0  0  0  0  0  0  0
   -2.7784    0.4666    0.0330 C   0  0  0  0  0  0  0  0  0  0  0  0
   -2.0974   -0.7507    0.0495 C   0  0  0  0  0  0  0  0  0  0  0  0
   -0.6702    1.6463    0.0404 C   0  0  0  0  0  0  0  0  0  0  0  0
    2.1883    1.6474    0.0628 C   0  0  0  0  0  0  0  0  0  0  0  0
   -2.0648    1.6650    0.0286 C   0  0  0  0  0  0  0  0  0  0  0  0
   -0.0281   -2.0408    0.0770 C   0  0  0  0  0  0  0  0  0  0  0  0
    3.6600    1.3401    0.0405 C   0  0  0  0  0  0  0  0  0  0  0  0
    4.6028    1.7131    0.9509 C   0  0  0  0  0  0  0  0  0  0  0  0
    5.8927    1.2303    0.5862 C   0  0  0  0  0  0  0  0  0  0  0  0
    5.8630    0.5117   -0.5886 C   0  0  0  0  0  0  0  0  0  0  0  0
  1 18  1  0
  2  4  2  0
  2  5  2  0
  2  7  1  0
  2 14  1  0
  3 20  1  0
  3 23  1  0
  6 12  1  0
  6 17  1  0
  8 10  1  0
  8 19  2  0
  9 11  2  0
  9 19  1  0
 10 11  1  0
 12 13  2  0
 12 16  1  0
 13 15  1  0
 13 19  1  0
 14 15  2  0
 14 18  1  0
 16 18  2  0
 17 20  1  0
 20 21  2  0
 21 22  1  0
 22 23  2  0
M  END
>  <PUBCHEM_COMPOUND_CID>  (1) 
2273

>  <PUBCHEM_CONFORMER_RMSD>  (1) 
0.8

>  <PUBCHEM_CONFORMER_DIVERSEORDER>  (1) 
1
5
9
25
20
22
23
3
7
21
19
26
6
24
15
10
13
17
2
14
11
4
16
18
12
8

>  <PUBCHEM_MMFF94_PARTIAL_CHARGES>  (1) 
32
1 -0.18
10 0.57
11 -0.42
12 0.1
13 0.05
14 -0.01
15 -0.15
16 -0.15
17 0.55
18 0.18
19 0.46
2 1.45
20 -0.14
21 -0.15
22 -0.15
23 -0.11
24 0.15
25 0.4
26 0.15
29 0.15
3 -0.08
30 0.42
31 0.42
32 0.15
33 0.15
34 0.27
4 -0.65
5 -0.65
6 -0.87
7 -0.98
8 -0.71
9 -0.23

>  <PUBCHEM_EFFECTIVE_ROTOR_COUNT>  (1) 
5

>  <PUBCHEM_PHARMACOPHORE_FEATURES>  (1) 
9
1 4 acceptor
1 5 acceptor
1 6 cation
1 6 donor
1 7 donor
3 8 9 19 cation
5 3 20 21 22 23 rings
5 8 9 10 11 19 rings
6 12 13 14 15 16 18 rings

>  <PUBCHEM_HEAVY_ATOM_COUNT>  (1) 
23

>  <PUBCHEM_ATOM_DEF_STEREO_COUNT>  (1) 
0

>  <PUBCHEM_ATOM_UDEF_STEREO_COUNT>  (1) 
0

>  <PUBCHEM_BOND_DEF_STEREO_COUNT>  (1) 
0

>  <PUBCHEM_BOND_UDEF_STEREO_COUNT>  (1) 
0

>  <PUBCHEM_ISOTOPIC_ATOM_COUNT>  (1) 
0

>  <PUBCHEM_COMPONENT_COUNT>  (1) 
1

>  <PUBCHEM_CACTVS_TAUTO_COUNT>  (1) 
4

>  <PUBCHEM_CONFORMER_ID>  (1) 
000008E100000001

>  <PUBCHEM_MMFF94_ENERGY>  (1) 
44.402

>  <PUBCHEM_FEATURE_SELFOVERLAP>  (1) 
45.687

>  <PUBCHEM_SHAPE_FINGERPRINT>  (1) 
11578080 2 17461152158951904325
12236239 1 17530681035286577324
12592029 89 18410014308327217178
12788726 201 17538860474147475114
13052359 8 18263361563025526251
13140716 1 18049446138402286608
13402501 40 18271812349957842124
13540713 4 17899140417285961485
13540713 5 17983847892601361337
13544592 145 18272100400703446084
138480 1 17689998938563712994
14790565 3 18410581711867072001
14866123 147 18266738172019923282
15042514 8 18119533377649401091
15664445 248 17482284711997461015
15927050 60 18411981377806750286
17913733 40 18269859578541443867
19591789 44 18410858720309123754
19784866 170 18408326571079987817
20028762 73 17984425406599453959
20197701 30 18411415120416280886
20554085 129 18057863845101097216
20567600 347 18333454218505696690
21033648 29 18342444968073247832
21279426 13 18269843021384365068
21781051 124 17970090987054605506
21859007 373 17897417611035078020
22182313 1 18266203736190706611
22224240 67 18341054107665001217
22956985 138 17751914718957079082
23366157 5 17898295995764339754
23402539 116 18342451590574629653
23559900 14 17907008483169610563
25147074 1 17986668165659493865
266924 87 18265326223170019757
283562 15 18413670206117928729
3298306 158 18341896273215605334
340366 18 18042126621373155172
350125 39 18337393721502122114
352729 6 18264784326802976053
38695281 34 18060140924965939343
43471831 8 18409166571665939864
474229 33 18409166644880908865
5104073 3 18263654965885651769
532947 4 18268717117283125998
5385378 56 18338806593506101225
59755656 215 18410858724361615205
59755656 520 18408317809351790486
6138700 20 18268436746376696166
7364860 26 18196091045045945651
9981440 41 18334579027327101915

>  <PUBCHEM_SHAPE_MULTIPOLES>  (1) 
441.27
11.72
3.71
0.91
6.57
3.94
0.21
-7.27
0.53
-0.56
-0.51
0.17
-0.09
0.56

>  <PUBCHEM_SHAPE_SELFOVERLAP>  (1) 
924.992

>  <PUBCHEM_SHAPE_VOLUME>  (1) 
251.6

>  <PUBCHEM_COORDINATE_TYPE>  (1) 
2
5
10

$$$$
