22745
     RDKit          3D

 13 13  0  0  0  0  0  0  0  0999 V2000
   -1.2744   -1.7253   -1.0832 S   0  0  0  0  0  0  0  0  0  0  0  0
    2.7235    0.4387    0.0001 N   0  0  0  0  0  0  0  0  0  0  0  0
   -2.0090    0.8613   -0.9556 N   0  0  0  0  0  0  0  0  0  0  0  0
   -2.8056   -0.4701    0.7126 N   0  0  0  0  0  0  0  0  0  0  0  0
    1.7624   -0.6396   -0.4791 C   0  0  0  0  0  0  0  0  0  0  0  0
    0.8280   -1.0700    0.6476 C   0  0  0  0  0  0  0  0  0  0  0  0
    3.4937   -0.0696    1.2104 C   0  0  0  0  0  0  0  0  0  0  0  0
    3.7002    0.7799   -1.1162 C   0  0  0  0  0  0  0  0  0  0  0  0
    1.9380    1.6840    0.3852 C   0  0  0  0  0  0  0  0  0  0  0  0
   -0.1931   -2.1588    0.3107 C   0  0  0  0  0  0  0  0  0  0  0  0
   -2.0936   -0.3644   -0.3773 C   0  0  0  0  0  0  0  0  0  0  0  0
   -2.7629    1.8110   -0.1936 C   0  0  0  0  0  0  0  0  0  0  0  0
   -3.3071    0.9227    0.9383 C   0  0  0  0  0  0  0  0  0  0  0  0
  1 10  1  0
  1 11  1  0
  2  5  1  0
  2  7  1  0
  2  8  1  0
  2  9  1  0
  3 11  1  0
  3 12  1  0
  4 11  2  0
  4 13  1  0
  5  6  1  0
  6 10  1  0
 12 13  1  0
M  CHG  1   2   1
M  END
>  <PUBCHEM_COMPOUND_CID>  (1) 
22745

>  <PUBCHEM_CONFORMER_RMSD>  (1) 
0.6

>  <PUBCHEM_CONFORMER_DIVERSEORDER>  (1) 
1
6
3
7
14
5
15
9
4
10
2
12
8
13
11

>  <PUBCHEM_MMFF94_PARTIAL_CHARGES>  (1) 
13
1 -0.37
10 0.23
11 0.64
12 0.37
13 0.25
2 -1.01
3 -0.82
33 0.4
4 -0.7
5 0.5
7 0.5
8 0.5
9 0.5

>  <PUBCHEM_EFFECTIVE_ROTOR_COUNT>  (1) 
5.6

>  <PUBCHEM_PHARMACOPHORE_FEATURES>  (1) 
4
1 2 cation
1 3 donor
3 3 4 11 cation
5 3 4 11 12 13 rings

>  <PUBCHEM_HEAVY_ATOM_COUNT>  (1) 
13

>  <PUBCHEM_ATOM_DEF_STEREO_COUNT>  (1) 
0

>  <PUBCHEM_ATOM_UDEF_STEREO_COUNT>  (1) 
0

>  <PUBCHEM_BOND_DEF_STEREO_COUNT>  (1) 
0

>  <PUBCHEM_BOND_UDEF_STEREO_COUNT>  (1) 
0

>  <PUBCHEM_ISOTOPIC_ATOM_COUNT>  (1) 
0

>  <PUBCHEM_COMPONENT_COUNT>  (1) 
1

>  <PUBCHEM_CACTVS_TAUTO_COUNT>  (1) 
1

>  <PUBCHEM_CONFORMER_ID>  (1) 
000058D900000001

>  <PUBCHEM_MMFF94_ENERGY>  (1) 
38.5289

>  <PUBCHEM_FEATURE_SELFOVERLAP>  (1) 
20.297

>  <PUBCHEM_SHAPE_FINGERPRINT>  (1) 
11127187 94 10375865277899398353
11715629 250 18130219458218826954
12932764 1 18410852209175554866
13618510 140 18339360764620404053
13764800 53 18114754844285728027
13897977 13 18114471114746423549
14251711 518 18339913853381466309
14386348 128 18410578366071126509
15775835 57 18409453574270932565
17802600 8 18339911710066133169
17834072 14 9295003497128031278
1798214 55 18272088245281568009
18186145 218 17704076187638933794
19107657 162 11530482216197978656
19107657 9 18411706465006382440
20233049 118 18409733967554512996
20539926 19 18341054016827369288
20653085 51 18202009870915634410
20671657 1 18271241608395941966
20828058 19 11891341962762680771
21524375 3 18411131420588949679
22926399 65 18411987987797549644
23557571 272 17059196210930912282
305870 269 18263073349403403346
81228 2 17908135825990604115
9882013 296 13623820474491965806

>  <PUBCHEM_SHAPE_MULTIPOLES>  (1) 
256.44
6.46
2.08
1.17
2.1
0.3
0.03
-3.01
-0.39
-0.85
0.11
0.29
0.05
-0.37

>  <PUBCHEM_SHAPE_SELFOVERLAP>  (1) 
476.715

>  <PUBCHEM_SHAPE_VOLUME>  (1) 
165.1

>  <PUBCHEM_COORDINATE_TYPE>  (1) 
2
5
10

$$$$
