22750
     RDKit          3D

 13 15  0  0  1  0  0  0  0  0999 V2000
    2.8856   -0.9381   -0.8365 O   0  0  0  0  0  0  0  0  0  0  0  0
    2.0533   -0.8604    0.3100 C   0  0  0  0  0  0  0  0  0  0  0  0
    1.0430   -2.0427    0.3308 C   0  0  0  0  0  0  0  0  0  0  0  0
   -0.1446   -0.0027    0.0826 C   0  0  0  0  0  0  0  0  0  0  0  0
    1.1735    0.3515    0.2024 C   0  0  0  0  0  0  0  0  0  0  0  0
   -0.2821   -1.3651    0.1252 C   0  0  0  0  0  0  0  0  0  0  0  0
   -1.2011    0.8988   -0.0645 C   0  0  0  0  0  0  0  0  0  0  0  0
    1.5139    1.6938    0.1866 C   0  0  0  0  0  0  0  0  0  0  0  0
   -1.5458   -1.9195    0.0159 C   0  0  0  0  0  0  0  0  0  0  0  0
   -0.8550    2.2628   -0.0802 C   0  0  0  0  0  0  0  0  0  0  0  0
   -2.4858    0.3356   -0.1792 C   0  0  0  0  0  0  0  0  0  0  0  0
    0.4935    2.6491    0.0466 C   0  0  0  0  0  0  0  0  0  0  0  0
   -2.6483   -1.0631   -0.1396 C   0  0  0  0  0  0  0  0  0  0  0  0
  1  2  1  0
  2  3  1  0
  2  5  1  0
  3  6  1  0
  4  5  1  0
  4  6  2  0
  4  7  1  0
  5  8  2  0
  6  9  1  0
  7 10  1  0
  7 11  2  0
  8 12  1  0
  9 13  2  0
 10 12  2  0
 11 13  1  0
M  END
>  <PUBCHEM_COMPOUND_CID>  (1) 
22750

>  <PUBCHEM_CONFORMER_RMSD>  (1) 
0.4

>  <PUBCHEM_CONFORMER_DIVERSEORDER>  (1) 
1
2

>  <PUBCHEM_MMFF94_PARTIAL_CHARGES>  (1) 
18
1 -0.68
10 -0.15
11 -0.15
12 -0.15
13 -0.15
17 0.15
18 0.15
19 0.15
2 0.42
20 0.15
21 0.15
22 0.15
23 0.4
3 0.14
5 -0.14
6 -0.14
8 -0.15
9 -0.15

>  <PUBCHEM_EFFECTIVE_ROTOR_COUNT>  (1) 
0.4

>  <PUBCHEM_PHARMACOPHORE_FEATURES>  (1) 
5
1 1 acceptor
1 1 donor
5 2 3 4 5 6 rings
6 4 5 7 8 10 12 rings
6 4 6 7 9 11 13 rings

>  <PUBCHEM_HEAVY_ATOM_COUNT>  (1) 
13

>  <PUBCHEM_ATOM_DEF_STEREO_COUNT>  (1) 
0

>  <PUBCHEM_ATOM_UDEF_STEREO_COUNT>  (1) 
1

>  <PUBCHEM_BOND_DEF_STEREO_COUNT>  (1) 
0

>  <PUBCHEM_BOND_UDEF_STEREO_COUNT>  (1) 
0

>  <PUBCHEM_ISOTOPIC_ATOM_COUNT>  (1) 
0

>  <PUBCHEM_COMPONENT_COUNT>  (1) 
1

>  <PUBCHEM_CACTVS_TAUTO_COUNT>  (1) 
1

>  <PUBCHEM_CONFORMER_ID>  (1) 
000058DE00000001

>  <PUBCHEM_MMFF94_ENERGY>  (1) 
43.8477

>  <PUBCHEM_FEATURE_SELFOVERLAP>  (1) 
25.577

>  <PUBCHEM_SHAPE_FINGERPRINT>  (1) 
10967382 1 17905887329169591595
11206711 2 18336825269336924933
12524768 44 18266737068154552099
13140716 1 18410008866302855899
13380535 76 17617650398718457643
161256 15 18338797917666894653
16945 1 18337947887857156507
17990270 104 18266454502250867067
193761 8 18410570712576671953
20645477 70 18051965111801510711
21040471 1 17546440077342751522
22802520 49 17698452022470258158
2334 1 18265893755536410899
23419403 2 16687306125620766321
23463225 33 17974836578272169792
23552423 10 18263360450792143607
23559900 14 17983013354965812190
241688 4 18410573972308851569
2748010 2 18337948021059080439
528886 8 18194958543969600049
63268167 104 18267869569610660769
66348 1 18338510820662318105
7364860 26 18127129907727730080

>  <PUBCHEM_SHAPE_MULTIPOLES>  (1) 
261.66
3.21
2.82
0.68
0.69
0.87
0.02
-0.89
0.37
-0.67
-0.05
-0.13
-0.07
0.18

>  <PUBCHEM_SHAPE_SELFOVERLAP>  (1) 
595.942

>  <PUBCHEM_SHAPE_VOLUME>  (1) 
140.4

>  <PUBCHEM_COORDINATE_TYPE>  (1) 
2
5
10

$$$$
