22756
     RDKit          3D

 18 19  0  0  0  0  0  0  0  0999 V2000
    0.4102   -1.9077   -0.2697 N   0  0  0  0  0  0  0  0  0  0  0  0
   -2.6136    0.4096   -0.1600 N   0  0  0  0  0  0  0  0  0  0  0  0
   -1.0575   -1.4975   -0.2731 C   0  0  0  0  0  0  0  0  0  0  0  0
   -1.1886    0.0027   -0.0959 C   0  0  0  0  0  0  0  0  0  0  0  0
    1.1841   -1.1419   -1.3849 C   0  0  0  0  0  0  0  0  0  0  0  0
    1.0916   -1.4533    1.0564 C   0  0  0  0  0  0  0  0  0  0  0  0
    1.9746   -0.0889   -0.6826 C   0  0  0  0  0  0  0  0  0  0  0  0
    1.9222   -0.2655    0.7015 C   0  0  0  0  0  0  0  0  0  0  0  0
    0.5168   -3.4084   -0.4571 C   0  0  0  0  0  0  0  0  0  0  0  0
   -3.4288   -0.2823    0.9415 C   0  0  0  0  0  0  0  0  0  0  0  0
   -2.7569    1.9270    0.0231 C   0  0  0  0  0  0  0  0  0  0  0  0
   -3.2284    0.0333   -1.5155 C   0  0  0  0  0  0  0  0  0  0  0  0
    2.7089    0.9417   -1.2443 C   0  0  0  0  0  0  0  0  0  0  0  0
    2.6027    0.5843    1.5567 C   0  0  0  0  0  0  0  0  0  0  0  0
   -2.8439    0.0718    2.2912 C   0  0  0  0  0  0  0  0  0  0  0  0
   -2.0282    2.6353   -1.0979 C   0  0  0  0  0  0  0  0  0  0  0  0
    3.3938    1.8087   -0.3904 C   0  0  0  0  0  0  0  0  0  0  0  0
    3.3411    1.6311    1.0010 C   0  0  0  0  0  0  0  0  0  0  0  0
  1  3  1  0
  1  5  1  0
  1  6  1  0
  1  9  1  0
  2  4  1  0
  2 10  1  0
  2 11  1  0
  2 12  1  0
  3  4  1  0
  5  7  1  0
  6  8  1  0
  7  8  2  0
  7 13  1  0
  8 14  1  0
 10 15  1  0
 11 16  1  0
 13 17  2  0
 14 18  2  0
 17 18  1  0
M  CHG  2   1   1   2   1
M  END
>  <PUBCHEM_COMPOUND_CID>  (1) 
22756

>  <PUBCHEM_CONFORMER_RMSD>  (1) 
0.8

>  <PUBCHEM_CONFORMER_DIVERSEORDER>  (1) 
3
13
11
1
12
4
8
10
2
9
5
7
6

>  <PUBCHEM_MMFF94_PARTIAL_CHARGES>  (1) 
20
1 -1.01
10 0.5
11 0.5
12 0.5
13 -0.15
14 -0.15
17 -0.15
18 -0.15
2 -1.01
3 0.5
37 0.15
38 0.15
4 0.5
45 0.15
46 0.15
5 0.65
6 0.65
7 -0.14
8 -0.14
9 0.5

>  <PUBCHEM_EFFECTIVE_ROTOR_COUNT>  (1) 
5.6

>  <PUBCHEM_PHARMACOPHORE_FEATURES>  (1) 
4
1 1 cation
1 2 cation
5 1 5 6 7 8 rings
6 7 8 13 14 17 18 rings

>  <PUBCHEM_HEAVY_ATOM_COUNT>  (1) 
18

>  <PUBCHEM_ATOM_DEF_STEREO_COUNT>  (1) 
0

>  <PUBCHEM_ATOM_UDEF_STEREO_COUNT>  (1) 
0

>  <PUBCHEM_BOND_DEF_STEREO_COUNT>  (1) 
0

>  <PUBCHEM_BOND_UDEF_STEREO_COUNT>  (1) 
0

>  <PUBCHEM_ISOTOPIC_ATOM_COUNT>  (1) 
0

>  <PUBCHEM_COMPONENT_COUNT>  (1) 
1

>  <PUBCHEM_CACTVS_TAUTO_COUNT>  (1) 
1

>  <PUBCHEM_CONFORMER_ID>  (1) 
000058E400000003

>  <PUBCHEM_MMFF94_ENERGY>  (1) 
74.728

>  <PUBCHEM_FEATURE_SELFOVERLAP>  (1) 
20.373

>  <PUBCHEM_SHAPE_FINGERPRINT>  (1) 
10165383 225 18054262961462453408
10498660 4 18339073899602110045
11221954 11 18117552934070118949
11640471 11 17969487376877433532
12173636 292 16271930398339547749
12363563 72 7925637678332760272
12596599 1 17203894080245766517
128993 33 17845104986425247809
13134695 92 17556288472007870526
13294875 104 16378867559074374901
13583140 156 17023735861428737772
13693222 15 15936415558731290953
13764800 53 18336272352464147051
14223421 5 18188778236475850037
14386348 128 18202013104973241425
14648413 74 18048038463124119527
14787075 74 16159937656631931057
15295992 7 17758125804534092089
15309172 13 18411706525272918849
15342168 16 18271821150156057777
15664445 248 13179872846652234345
15775835 57 18411975901253066104
16945 1 18336825398175432950
18186145 218 18060148643222200900
18219364 16 18343021103364673449
18981168 100 18266750094895901385
21524375 3 18201712990028467654
21731516 1 9655575244417698005
230 275 18335137570585976750
232386 152 8430327856530557242
23402539 116 17840008968968570718
23419403 2 16689430390428138287
23557571 272 17483953053599440830
23559900 14 17459202785076311387
238 59 18056447643944179957
25 1 17703246073671687842
2748010 2 18263086509214437821
305870 269 18338787940779794770
3082319 5 15123514717583451032
3797600 57 16808452605733441652
458136 41 18198366033435976675
568465 68 13696128744449326220
5845 1 8337836968409126658
6049 1 18045802099639167363
6442390 28 18056221256318344795
7364860 26 18125153840625138342
81228 2 17836929275575071706

>  <PUBCHEM_SHAPE_MULTIPOLES>  (1) 
360.47
6.15
2.78
1.7
1.01
1.02
0.52
-3.76
0.88
-0.28
-0.76
0.48
-0.16
0.52

>  <PUBCHEM_SHAPE_SELFOVERLAP>  (1) 
731.36

>  <PUBCHEM_SHAPE_VOLUME>  (1) 
212.5

>  <PUBCHEM_COORDINATE_TYPE>  (1) 
2
5
10

$$$$
