22764
     RDKit          3D

 18 19  0  0  0  0  0  0  0  0999 V2000
   -5.3280   -0.9401   -0.1534 O   0  0  0  0  0  0  0  0  0  0  0  0
   -3.6716   -2.3666   -0.3539 O   0  0  0  0  0  0  0  0  0  0  0  0
    5.4484    0.4572   -0.4678 O   0  0  0  0  0  0  0  0  0  0  0  0
    5.0818   -1.5459    0.3522 O   0  0  0  0  0  0  0  0  0  0  0  0
   -4.1009   -1.1995   -0.1866 N   0  0  0  0  0  0  0  0  0  0  0  0
    4.6679   -0.4297   -0.0447 N   0  0  0  0  0  0  0  0  0  0  0  0
   -0.8851    0.6389    0.0893 C   0  0  0  0  0  0  0  0  0  0  0  0
    0.5352    0.3651    0.0531 C   0  0  0  0  0  0  0  0  0  0  0  0
   -1.7996   -0.4030   -0.0640 C   0  0  0  0  0  0  0  0  0  0  0  0
    1.4208    1.3354   -0.4157 C   0  0  0  0  0  0  0  0  0  0  0  0
    1.0188   -0.8687    0.4886 C   0  0  0  0  0  0  0  0  0  0  0  0
   -1.3393    1.9443    0.2758 C   0  0  0  0  0  0  0  0  0  0  0  0
   -3.1690   -0.1393   -0.0307 C   0  0  0  0  0  0  0  0  0  0  0  0
    3.2739   -0.1619   -0.0136 C   0  0  0  0  0  0  0  0  0  0  0  0
    2.7901    1.0718   -0.4491 C   0  0  0  0  0  0  0  0  0  0  0  0
    2.3882   -1.1323    0.4552 C   0  0  0  0  0  0  0  0  0  0  0  0
   -2.7085    2.2081    0.3092 C   0  0  0  0  0  0  0  0  0  0  0  0
   -3.6233    1.1663    0.1561 C   0  0  0  0  0  0  0  0  0  0  0  0
  1  5  1  0
  2  5  2  0
  3  6  1  0
  4  6  2  0
  5 13  1  0
  6 14  1  0
  7  8  1  0
  7  9  2  0
  7 12  1  0
  8 10  2  0
  8 11  1  0
  9 13  1  0
 10 15  1  0
 11 16  2  0
 12 17  2  0
 13 18  2  0
 14 15  2  0
 14 16  1  0
 17 18  1  0
M  CHG  4   1  -1   3  -1   5   1   6   1
M  END
>  <PUBCHEM_COMPOUND_CID>  (1) 
22764

>  <PUBCHEM_CONFORMER_RMSD>  (1) 
0.6

>  <PUBCHEM_CONFORMER_DIVERSEORDER>  (1) 
1

>  <PUBCHEM_MMFF94_PARTIAL_CHARGES>  (1) 
24
1 -0.52
10 -0.15
11 -0.15
12 -0.15
13 0.13
14 0.13
15 -0.15
16 -0.15
17 -0.15
18 -0.15
19 0.15
2 -0.52
20 0.15
21 0.15
22 0.15
23 0.15
24 0.15
25 0.15
26 0.15
3 -0.52
4 -0.52
5 0.91
6 0.91
9 -0.15

>  <PUBCHEM_EFFECTIVE_ROTOR_COUNT>  (1) 
3

>  <PUBCHEM_PHARMACOPHORE_FEATURES>  (1) 
8
1 1 acceptor
1 1 anion
1 2 acceptor
1 3 acceptor
1 3 anion
1 4 acceptor
6 7 9 12 13 17 18 rings
6 8 10 11 14 15 16 rings

>  <PUBCHEM_HEAVY_ATOM_COUNT>  (1) 
18

>  <PUBCHEM_ATOM_DEF_STEREO_COUNT>  (1) 
0

>  <PUBCHEM_ATOM_UDEF_STEREO_COUNT>  (1) 
0

>  <PUBCHEM_BOND_DEF_STEREO_COUNT>  (1) 
0

>  <PUBCHEM_BOND_UDEF_STEREO_COUNT>  (1) 
0

>  <PUBCHEM_ISOTOPIC_ATOM_COUNT>  (1) 
0

>  <PUBCHEM_COMPONENT_COUNT>  (1) 
1

>  <PUBCHEM_CACTVS_TAUTO_COUNT>  (1) 
1

>  <PUBCHEM_CONFORMER_ID>  (1) 
000058EC00000001

>  <PUBCHEM_MMFF94_ENERGY>  (1) 
64.624

>  <PUBCHEM_FEATURE_SELFOVERLAP>  (1) 
40.761

>  <PUBCHEM_SHAPE_FINGERPRINT>  (1) 
10616163 171 18412826876203925431
10912923 1 18261114041653044992
11045515 52 18040712593532616773
11046707 91 18341893000260550049
11806522 49 18407759248691330596
12107183 9 17616531761822846256
12236239 1 18260831479490445461
12553582 1 18340474677853980083
13167823 11 18409165485398169866
13288520 33 18341896285630969701
13675066 3 17846774088273421062
13760787 5 17095815334710176780
14576447 43 18334572464659387906
15196674 1 18409167684447675704
17834072 33 18408044026608811268
17862501 102 18335699429828610504
19422 9 18409733962573548564
200 152 18408321094711549773
20281475 54 18261948536418282986
20300324 65 18411139129954655609
21267235 1 18409456898939733459
21426921 1 18339643348062920737
21709351 56 17967813829875038380
221490 88 18190185778551865723
22646028 1 18334574624985512416
22646028 28 18410292523159966655
2297311 6 18059867155160362300
23402539 116 18409726248817468869
23402655 69 18187363173363785045
23557571 272 17988649570747103633
23559900 14 18340758334262718145
2871803 45 18261385672263954611
3286 77 18410008858103720404
335352 9 18412543220143061701
34797466 226 17632304514470644468
4214541 1 18411137995993748393
465052 167 18127978714384763215
4990 188 18272658900938717518
5104073 3 18412825776602322408
559249 180 18263358105829748763
57096353 35 18262244416367249021
573450 72 18336540508916077992
633830 44 16733275555705895756
67856867 119 18335984285093055764
7062679 117 18410578400710264334
7495541 125 17703785955492938792
77779 3 18412264995834075552
7970288 3 18126840732397898135
9709674 26 18410302384447537474

>  <PUBCHEM_SHAPE_MULTIPOLES>  (1) 
336.99
10.53
2
0.67
4.75
0.02
0.01
-3.74
-0.73
-1.7
0.02
0.09
0.03
-0.85

>  <PUBCHEM_SHAPE_SELFOVERLAP>  (1) 
736.436

>  <PUBCHEM_SHAPE_VOLUME>  (1) 
184.5

>  <PUBCHEM_COORDINATE_TYPE>  (1) 
2
5
10

$$$$
