22760
     RDKit          3D

 20 22  0  0  1  0  0  0  0  0999 V2000
    5.6351    1.5459    0.1542 O   0  0  0  0  0  0  0  0  0  0  0  0
   -1.4936   -1.0193   -0.3073 N   0  0  0  0  0  0  0  0  0  0  0  0
    3.4442   -0.3354    0.1771 N   0  0  0  0  0  0  0  0  0  0  0  0
   -3.2561    0.5940   -0.7811 C   0  0  0  0  0  0  0  0  0  0  0  0
   -1.7378    0.4394   -0.7437 C   0  0  0  0  0  0  0  0  0  0  0  0
   -3.7106   -0.5432    0.0719 C   0  0  0  0  0  0  0  0  0  0  0  0
   -0.3567   -1.1266    0.6857 C   0  0  0  0  0  0  0  0  0  0  0  0
   -2.7241   -1.4043    0.3358 C   0  0  0  0  0  0  0  0  0  0  0  0
   -3.7392    1.9384   -0.2343 C   0  0  0  0  0  0  0  0  0  0  0  0
    0.9651   -0.7319    0.0355 C   0  0  0  0  0  0  0  0  0  0  0  0
   -5.1301   -0.5943    0.5241 C   0  0  0  0  0  0  0  0  0  0  0  0
    2.1865   -0.7474    0.9487 C   0  0  0  0  0  0  0  0  0  0  0  0
   -5.2379    1.9049    0.0803 C   0  0  0  0  0  0  0  0  0  0  0  0
   -1.2604   -1.9323   -1.4967 C   0  0  0  0  0  0  0  0  0  0  0  0
   -5.5777    0.7701    1.0533 C   0  0  0  0  0  0  0  0  0  0  0  0
    4.6509   -0.4498    1.1155 C   0  0  0  0  0  0  0  0  0  0  0  0
    3.2862    1.1226   -0.2694 C   0  0  0  0  0  0  0  0  0  0  0  0
    3.5748   -1.2757   -1.0195 C   0  0  0  0  0  0  0  0  0  0  0  0
    5.8832    0.1820    0.4870 C   0  0  0  0  0  0  0  0  0  0  0  0
    4.5982    1.6627   -0.8172 C   0  0  0  0  0  0  0  0  0  0  0  0
  1 19  1  0
  1 20  1  0
  2  5  1  0
  2  7  1  0
  2  8  1  0
  2 14  1  0
  3 12  1  0
  3 16  1  0
  3 17  1  0
  3 18  1  0
  4  5  1  0
  4  6  1  0
  4  9  1  0
  6  8  2  0
  6 11  1  0
  7 10  1  0
  9 13  1  0
 10 12  1  0
 11 15  1  0
 13 15  1  0
 16 19  1  0
 17 20  1  0
M  CHG  2   2   1   3   1
M  END
>  <PUBCHEM_COMPOUND_CID>  (1) 
22760

>  <PUBCHEM_CONFORMER_RMSD>  (1) 
0.8

>  <PUBCHEM_CONFORMER_DIVERSEORDER>  (1) 
2
21
4
7
23
18
13
1
3
17
15
28
20
9
8
5
27
22
11
12
16
6
19
25
26
24
14
10

>  <PUBCHEM_MMFF94_PARTIAL_CHARGES>  (1) 
17
1 -0.56
11 0.14
12 0.5
14 0.5
16 0.5
17 0.5
18 0.5
19 0.28
2 -0.87
20 0.28
26 0.15
3 -1.01
4 0.14
5 0.5
6 -0.28
7 0.5
8 0.21

>  <PUBCHEM_EFFECTIVE_ROTOR_COUNT>  (1) 
6.4

>  <PUBCHEM_PHARMACOPHORE_FEATURES>  (1) 
6
1 1 acceptor
1 2 cation
1 3 cation
5 2 4 5 6 8 rings
6 1 3 16 17 19 20 rings
6 4 6 9 11 13 15 rings

>  <PUBCHEM_HEAVY_ATOM_COUNT>  (1) 
20

>  <PUBCHEM_ATOM_DEF_STEREO_COUNT>  (1) 
0

>  <PUBCHEM_ATOM_UDEF_STEREO_COUNT>  (1) 
2

>  <PUBCHEM_BOND_DEF_STEREO_COUNT>  (1) 
0

>  <PUBCHEM_BOND_UDEF_STEREO_COUNT>  (1) 
0

>  <PUBCHEM_ISOTOPIC_ATOM_COUNT>  (1) 
0

>  <PUBCHEM_COMPONENT_COUNT>  (1) 
1

>  <PUBCHEM_CACTVS_TAUTO_COUNT>  (1) 
1

>  <PUBCHEM_CONFORMER_ID>  (1) 
000058E800000002

>  <PUBCHEM_MMFF94_ENERGY>  (1) 
56.8586

>  <PUBCHEM_FEATURE_SELFOVERLAP>  (1) 
30.534

>  <PUBCHEM_SHAPE_FINGERPRINT>  (1) 
10 15 18186527600820082241
10354089 29 17894349982287940192
105312 117 17418373601630735815
10730089 173 18413109454939557088
12107183 9 17683510745890470016
12236239 1 18409164420177572458
12390115 104 18271538502837807065
12516196 113 8286198344844537086
12555020 224 10807931544920571161
12596602 18 17530966890855493945
12616971 3 18334849533231683462
12633257 1 15791740714741365732
12788726 201 17131557132870769248
12895836 83 18059854008217794954
12916748 109 18334862705410973291
13167372 99 18408885110006998744
13288520 33 9079112268054490115
13533116 47 16486700160651117470
13785724 45 17832136122691850178
13897977 58 18335139808675277515
14341114 176 17967253087555632890
14341114 328 18040154028223209411
14848160 23 7997964661404100315
14849402 71 17604152640433808292
15183329 4 12967134874296441441
15196674 1 18334293162746211988
15880784 105 12179854895890494141
17349148 13 8862943896265516371
17834072 8 14261351345328646617
17844677 252 18336271136830029650
17870717 6 11167939165351335873
17959699 21 18411136965692195088
17980427 23 18334017186261298141
18222031 100 13479140098500182871
19489759 90 7997976769312871435
200 152 8646769993297162891
20028762 73 12612760133133412440
20281389 69 18411416215443232368
20645477 56 18201715163149810099
20645477 70 17203337671907436710
21150785 3 16056871451522096725
21652331 79 18259702302602807349
22079108 93 17530687623312319931
2215653 11 10663820754442411379
22224240 67 18334582318158306291
22646028 1 9367349245085638986
23198884 109 15841551860461570217
23272321 79 18334296483040625473
23402655 69 18341610443300175470
23559900 14 18198346160881118462
268830 7 17968363646266535988
26918003 58 11097850791895550347
2838139 119 18271798017003388756
2916195 48 18410852174536345792
29717793 49 11959732681305961274
300161 21 17275379911320904918
3004659 81 17846222107978320998
312425 54 16081370705187972129
351380 3 8286196154194905953
3545911 37 18342741819126913558
3680242 22 18187082819784976088
465052 167 11530482220957072384
5104073 3 17967812725809681857
542803 24 18410853278785993922
54446538 1 18334010601068909385
5718773 13 11242557552341776025
59755656 520 17676205784236693266
633830 44 18409444756656114615
76465 3 7781501604421573089
7808743 9 18411979203987997066
90127 26 18334869289580189354
960060 61 13758356691639206272
9996256 80 18408885169973042907

>  <PUBCHEM_SHAPE_MULTIPOLES>  (1) 
395.76
14.92
1.94
1.11
6.01
0.42
-0.1
6.76
2.84
-0.63
-0.4
0.14
-0.26
-0.35

>  <PUBCHEM_SHAPE_SELFOVERLAP>  (1) 
802.853

>  <PUBCHEM_SHAPE_VOLUME>  (1) 
231.2

>  <PUBCHEM_COORDINATE_TYPE>  (1) 
2
5
10

$$$$
