22762
     RDKit          3D

 11 10  0  0  0  0  0  0  0  0999 V2000
    1.2170   -3.8699    0.4050 Cl  0  0  0  0  0  0  0  0  0  0  0  0
   -3.9600    0.8810    0.4051 Cl  0  0  0  0  0  0  0  0  0  0  0  0
    2.7433    2.9886    0.4051 Cl  0  0  0  0  0  0  0  0  0  0  0  0
   -0.0001    0.0001   -0.1587 N   0  0  0  0  0  0  0  0  0  0  0  0
    0.8355   -1.1664    0.3485 C   0  0  0  0  0  0  0  0  0  0  0  0
   -1.4280   -0.1403    0.3486 C   0  0  0  0  0  0  0  0  0  0  0  0
    0.5926    1.3068    0.3486 C   0  0  0  0  0  0  0  0  0  0  0  0
   -0.0003    0.0001   -1.6807 C   0  0  0  0  0  0  0  0  0  0  0  0
    0.2502   -2.4779   -0.1406 C   0  0  0  0  0  0  0  0  0  0  0  0
   -2.2712    1.0224   -0.1405 C   0  0  0  0  0  0  0  0  0  0  0  0
    2.0210    1.4555   -0.1406 C   0  0  0  0  0  0  0  0  0  0  0  0
  1  9  1  0
  2 10  1  0
  3 11  1  0
  4  5  1  0
  4  6  1  0
  4  7  1  0
  4  8  1  0
  5  9  1  0
  6 10  1  0
  7 11  1  0
M  CHG  1   4   1
M  END
>  <PUBCHEM_COMPOUND_CID>  (1) 
22762

>  <PUBCHEM_CONFORMER_RMSD>  (1) 
0.6

>  <PUBCHEM_CONFORMER_DIVERSEORDER>  (1) 
5
3
1
2
6
4

>  <PUBCHEM_MMFF94_PARTIAL_CHARGES>  (1) 
11
1 -0.29
10 0.29
11 0.29
2 -0.29
3 -0.29
4 -1.01
5 0.5
6 0.5
7 0.5
8 0.5
9 0.29

>  <PUBCHEM_EFFECTIVE_ROTOR_COUNT>  (1) 
6

>  <PUBCHEM_PHARMACOPHORE_FEATURES>  (1) 
1
1 4 cation

>  <PUBCHEM_HEAVY_ATOM_COUNT>  (1) 
11

>  <PUBCHEM_ATOM_DEF_STEREO_COUNT>  (1) 
0

>  <PUBCHEM_ATOM_UDEF_STEREO_COUNT>  (1) 
0

>  <PUBCHEM_BOND_DEF_STEREO_COUNT>  (1) 
0

>  <PUBCHEM_BOND_UDEF_STEREO_COUNT>  (1) 
0

>  <PUBCHEM_ISOTOPIC_ATOM_COUNT>  (1) 
0

>  <PUBCHEM_COMPONENT_COUNT>  (1) 
1

>  <PUBCHEM_CACTVS_TAUTO_COUNT>  (1) 
1

>  <PUBCHEM_CONFORMER_ID>  (1) 
000058EA00000005

>  <PUBCHEM_MMFF94_ENERGY>  (1) 
34.4687

>  <PUBCHEM_FEATURE_SELFOVERLAP>  (1) 
5.074

>  <PUBCHEM_SHAPE_FINGERPRINT>  (1) 
1 1 18410012126135677340
12532896 13 18196936784262600036
136203 1 17618222153365327120
14817 1 15214955507602162399
15906896 17 17839459234597259886
16945 1 18338227146662364925
17041 49 17766290769281595977
170605 34 18131078151320901845
17841504 4 18121503445188959065
18410436 195 17833269722967488935
19021347 4 18194402414218451432
20645477 70 18263075536390563199
20711985 344 17181683069211929620
20871998 184 17191799684479078052
21524375 3 18130505339827234729
23211744 41 18056777617691135469
23402539 116 17408527698459046815
305870 269 18410290332763854761
7364860 26 18338802191423000843
76951 1 17979673114804665654
81228 2 17545883088624549946
81539 233 18409165524042508029

>  <PUBCHEM_SHAPE_MULTIPOLES>  (1) 
227
4.19
4.18
0.96
4.48
3.9
-0.4
-3.9
0.93
-4.48
0.93
0
0
0

>  <PUBCHEM_SHAPE_SELFOVERLAP>  (1) 
387.189

>  <PUBCHEM_SHAPE_VOLUME>  (1) 
154.6

>  <PUBCHEM_COORDINATE_TYPE>  (1) 
2
5
10

$$$$
