22772
     RDKit          3D

  7  6  0  0  0  0  0  0  0  0999 V2000
   -1.4924    1.0913    0.0015 S   0  0  0  0  0  0  0  0  0  0  0  0
    1.4924    1.0913    0.0016 S   0  0  0  0  0  0  0  0  0  0  0  0
   -3.4507   -0.9818    0.0011 N   0  0  0  0  0  0  0  0  0  0  0  0
    3.4510   -0.9815    0.0013 N   0  0  0  0  0  0  0  0  0  0  0  0
    0.0001    0.0590   -0.0091 C   0  0  0  0  0  0  0  0  0  0  0  0
   -2.6535   -0.1390    0.0019 C   0  0  0  0  0  0  0  0  0  0  0  0
    2.6531   -0.1393    0.0016 C   0  0  0  0  0  0  0  0  0  0  0  0
  1  5  1  0
  1  6  1  0
  2  5  1  0
  2  7  1  0
  3  6  3  0
  4  7  3  0
M  END
>  <PUBCHEM_COMPOUND_CID>  (1) 
22772

>  <PUBCHEM_CONFORMER_RMSD>  (1) 
0.4

>  <PUBCHEM_CONFORMER_DIVERSEORDER>  (1) 
1
4
5
2
3

>  <PUBCHEM_MMFF94_PARTIAL_CHARGES>  (1) 
7
1 -0.27
2 -0.27
3 -0.56
4 -0.56
5 0.46
6 0.59
7 0.59

>  <PUBCHEM_EFFECTIVE_ROTOR_COUNT>  (1) 
2

>  <PUBCHEM_PHARMACOPHORE_FEATURES>  (1) 
2
1 3 acceptor
1 4 acceptor

>  <PUBCHEM_HEAVY_ATOM_COUNT>  (1) 
7

>  <PUBCHEM_ATOM_DEF_STEREO_COUNT>  (1) 
0

>  <PUBCHEM_ATOM_UDEF_STEREO_COUNT>  (1) 
0

>  <PUBCHEM_BOND_DEF_STEREO_COUNT>  (1) 
0

>  <PUBCHEM_BOND_UDEF_STEREO_COUNT>  (1) 
0

>  <PUBCHEM_ISOTOPIC_ATOM_COUNT>  (1) 
0

>  <PUBCHEM_COMPONENT_COUNT>  (1) 
1

>  <PUBCHEM_CACTVS_TAUTO_COUNT>  (1) 
1

>  <PUBCHEM_CONFORMER_ID>  (1) 
000058F400000001

>  <PUBCHEM_MMFF94_ENERGY>  (1) 
1.0543

>  <PUBCHEM_FEATURE_SELFOVERLAP>  (1) 
10.149

>  <PUBCHEM_SHAPE_FINGERPRINT>  (1) 
14325111 11 18410856563971946464
14390081 3 9007057963286316509
177051 138 18342739632503302287
18342897 69 18342455932854715195
20211469 26 18272646857655292557
21293036 1 14779553399939191105
5460574 1 9223229650310196256

>  <PUBCHEM_SHAPE_MULTIPOLES>  (1) 
141.79
6.05
1.23
0.62
0
0.15
0
-2.67
0.01
0
0
0
0.05
0

>  <PUBCHEM_SHAPE_SELFOVERLAP>  (1) 
234.731

>  <PUBCHEM_SHAPE_VOLUME>  (1) 
93.8

>  <PUBCHEM_COORDINATE_TYPE>  (1) 
2
5
10

$$$$
