22778
     RDKit          3D

 17 18  0  0  0  0  0  0  0  0999 V2000
    0.2287    0.1449   -0.5191 N   0  0  0  0  0  0  0  0  0  0  0  0
   -0.4119    0.1440    0.5576 N   0  0  0  0  0  0  0  0  0  0  0  0
    1.6076    0.0824   -0.2554 C   0  0  0  0  0  0  0  0  0  0  0  0
    2.2403   -1.1551   -0.1553 C   0  0  0  0  0  0  0  0  0  0  0  0
    2.3380    1.2582   -0.0942 C   0  0  0  0  0  0  0  0  0  0  0  0
    3.6088   -1.2172    0.1074 C   0  0  0  0  0  0  0  0  0  0  0  0
    3.7065    1.1960    0.1683 C   0  0  0  0  0  0  0  0  0  0  0  0
    4.3419   -0.0417    0.2692 C   0  0  0  0  0  0  0  0  0  0  0  0
   -2.5354   -0.9588    0.1323 C   0  0  0  0  0  0  0  0  0  0  0  0
   -1.7860    0.2065    0.2953 C   0  0  0  0  0  0  0  0  0  0  0  0
    1.4784   -2.4290   -0.3256 C   0  0  0  0  0  0  0  0  0  0  0  0
    1.6818    2.5964   -0.1985 C   0  0  0  0  0  0  0  0  0  0  0  0
   -3.9034   -0.8775   -0.1275 C   0  0  0  0  0  0  0  0  0  0  0  0
   -2.4049    1.4529    0.1983 C   0  0  0  0  0  0  0  0  0  0  0  0
   -1.8953   -2.3048    0.2329 C   0  0  0  0  0  0  0  0  0  0  0  0
   -4.5222    0.3689   -0.2244 C   0  0  0  0  0  0  0  0  0  0  0  0
   -3.7730    1.5340   -0.0614 C   0  0  0  0  0  0  0  0  0  0  0  0
  1  2  2  0
  1  3  1  0
  2 10  1  0
  3  4  2  0
  3  5  1  0
  4  6  1  0
  4 11  1  0
  5  7  2  0
  5 12  1  0
  6  8  2  0
  7  8  1  0
  9 10  2  0
  9 13  1  0
  9 15  1  0
 10 14  1  0
 13 16  2  0
 14 17  2  0
 16 17  1  0
M  END
>  <PUBCHEM_COMPOUND_CID>  (1) 
22778

>  <PUBCHEM_CONFORMER_RMSD>  (1) 
0.6

>  <PUBCHEM_CONFORMER_DIVERSEORDER>  (1) 
2
4
1
3

>  <PUBCHEM_MMFF94_PARTIAL_CHARGES>  (1) 
24
1 -0.18
10 0.18
11 0.14
12 0.14
13 -0.15
14 -0.15
15 0.14
16 -0.15
17 -0.15
18 0.15
19 0.15
2 -0.18
20 0.15
27 0.15
28 0.15
3 0.18
32 0.15
33 0.15
4 -0.14
5 -0.14
6 -0.15
7 -0.15
8 -0.15
9 -0.14

>  <PUBCHEM_EFFECTIVE_ROTOR_COUNT>  (1) 
2

>  <PUBCHEM_PHARMACOPHORE_FEATURES>  (1) 
2
6 3 4 5 6 7 8 rings
6 9 10 13 14 16 17 rings

>  <PUBCHEM_HEAVY_ATOM_COUNT>  (1) 
17

>  <PUBCHEM_ATOM_DEF_STEREO_COUNT>  (1) 
0

>  <PUBCHEM_ATOM_UDEF_STEREO_COUNT>  (1) 
0

>  <PUBCHEM_BOND_DEF_STEREO_COUNT>  (1) 
0

>  <PUBCHEM_BOND_UDEF_STEREO_COUNT>  (1) 
0

>  <PUBCHEM_ISOTOPIC_ATOM_COUNT>  (1) 
0

>  <PUBCHEM_COMPONENT_COUNT>  (1) 
1

>  <PUBCHEM_CACTVS_TAUTO_COUNT>  (1) 
1

>  <PUBCHEM_CONFORMER_ID>  (1) 
000058FA00000002

>  <PUBCHEM_MMFF94_ENERGY>  (1) 
49.0415

>  <PUBCHEM_FEATURE_SELFOVERLAP>  (1) 
10.149

>  <PUBCHEM_SHAPE_FINGERPRINT>  (1) 
10608611 8 18410011052546937929
10616163 171 18339927137736866719
10967382 1 18410857620665562222
11370993 70 18411132541459213467
11471102 20 18410853252836861564
12251169 10 18409166623284675140
12500047 106 18410288116644794727
13380535 76 18410856564040635187
138480 1 17762619482244358527
14144814 61 18410858733040973513
14251717 144 18410855456165659870
14415576 193 18409171034332308188
15196674 1 18410856559676946706
15375358 24 18411418401550034571
15442244 35 18195530294226634248
15536298 74 18342176639711081670
17492 89 18337673121630814674
17802600 8 18408600366285940453
17834074 16 18410294717935662683
18186145 218 18341620252704922589
19050596 39 18413390951364431537
200 152 18059851775151273205
20645477 56 18333732390958498709
20645477 70 18342176626715592166
21267235 1 18411428301396832874
21421861 104 17607522432533280450
221490 88 18336556035217701514
23402539 116 18341604911366695133
23402655 69 18412825772138464812
23559900 14 18341609308975206712
335352 9 18338235942861005934
351380 180 18411415111979333517
3545911 37 18411702088466408281
4214541 1 18410292501922539433
474 4 17676773196465754492
5104073 3 18410575084710559163
57005193 9 18411974750165050239
58051976 100 18409450314665146159
58051976 378 18342455954424692263
69090 78 18409727353056677835
7364860 26 18341897368147409510
77779 3 18410576184301417681
8809292 202 18261678159215234491
93112 12 18410013247306712317
9709674 26 18411987965974969255
9981440 41 17396703554508652560

>  <PUBCHEM_SHAPE_MULTIPOLES>  (1) 
339.89
8.65
2.43
0.67
2.03
0.19
0
-0.87
0.13
-0.44
-0.1
-0.01
0.01
0.08

>  <PUBCHEM_SHAPE_SELFOVERLAP>  (1) 
727.594

>  <PUBCHEM_SHAPE_VOLUME>  (1) 
190.4

>  <PUBCHEM_COORDINATE_TYPE>  (1) 
2
5
10

$$$$
