22770
     RDKit          3D

 11 11  0  0  0  0  0  0  0  0999 V2000
   -0.5815    2.0796   -0.0002 O   0  0  0  0  0  0  0  0  0  0  0  0
   -2.3157   -0.0917    0.0002 O   0  0  0  0  0  0  0  0  0  0  0  0
    3.1857   -0.9130   -0.0001 N   0  0  0  0  0  0  0  0  0  0  0  0
   -0.0964    0.8066    0.0001 C   0  0  0  0  0  0  0  0  0  0  0  0
   -0.9669   -0.2834   -0.0001 C   0  0  0  0  0  0  0  0  0  0  0  0
    1.7912   -0.7015    0.0001 C   0  0  0  0  0  0  0  0  0  0  0  0
    1.2828    0.5975    0.0002 C   0  0  0  0  0  0  0  0  0  0  0  0
   -0.4585   -1.5822   -0.0001 C   0  0  0  0  0  0  0  0  0  0  0  0
    0.9205   -1.7913    0.0000 C   0  0  0  0  0  0  0  0  0  0  0  0
    0.3750    3.1376    0.0000 C   0  0  0  0  0  0  0  0  0  0  0  0
   -3.1362   -1.2583   -0.0001 C   0  0  0  0  0  0  0  0  0  0  0  0
  1  4  1  0
  1 10  1  0
  2  5  1  0
  2 11  1  0
  3  6  1  0
  4  5  2  0
  4  7  1  0
  5  8  1  0
  6  7  2  0
  6  9  1  0
  8  9  2  0
M  END
>  <PUBCHEM_COMPOUND_CID>  (1) 
22770

>  <PUBCHEM_CONFORMER_RMSD>  (1) 
0.4

>  <PUBCHEM_CONFORMER_DIVERSEORDER>  (1) 
8
7
9
3
6
4
5
1
2

>  <PUBCHEM_MMFF94_PARTIAL_CHARGES>  (1) 
16
1 -0.36
10 0.28
11 0.28
12 0.15
13 0.15
14 0.15
15 0.4
16 0.4
2 -0.36
3 -0.9
4 0.08
5 0.08
6 0.1
7 -0.15
8 -0.15
9 -0.15

>  <PUBCHEM_EFFECTIVE_ROTOR_COUNT>  (1) 
2

>  <PUBCHEM_PHARMACOPHORE_FEATURES>  (1) 
5
1 1 acceptor
1 2 acceptor
1 3 cation
1 3 donor
6 4 5 6 7 8 9 rings

>  <PUBCHEM_HEAVY_ATOM_COUNT>  (1) 
11

>  <PUBCHEM_ATOM_DEF_STEREO_COUNT>  (1) 
0

>  <PUBCHEM_ATOM_UDEF_STEREO_COUNT>  (1) 
0

>  <PUBCHEM_BOND_DEF_STEREO_COUNT>  (1) 
0

>  <PUBCHEM_BOND_UDEF_STEREO_COUNT>  (1) 
0

>  <PUBCHEM_ISOTOPIC_ATOM_COUNT>  (1) 
0

>  <PUBCHEM_COMPONENT_COUNT>  (1) 
1

>  <PUBCHEM_CACTVS_TAUTO_COUNT>  (1) 
1

>  <PUBCHEM_CONFORMER_ID>  (1) 
000058F200000008

>  <PUBCHEM_MMFF94_ENERGY>  (1) 
56.0117

>  <PUBCHEM_FEATURE_SELFOVERLAP>  (1) 
25.376

>  <PUBCHEM_SHAPE_FINGERPRINT>  (1) 
1 1 17833833055094216197
12032990 46 18410863165363424462
13380535 76 17547279008994017566
16945 1 18050568434921024006
193761 8 17690279305006221123
20871998 184 18129094533317202502
21040471 1 17257653850818798977
23552423 10 17900832552221291350
23559900 14 16975339402067673254
241688 4 18411420566160505824
2748010 2 18411691084718010988
7364860 26 18053105313120454965
81228 2 18194408783728979929

>  <PUBCHEM_SHAPE_MULTIPOLES>  (1) 
209.66
3.41
2.78
0.59
1.69
2.36
0
-1.68
0
-1.18
0
0
-0.01
0

>  <PUBCHEM_SHAPE_SELFOVERLAP>  (1) 
431.836

>  <PUBCHEM_SHAPE_VOLUME>  (1) 
121.6

>  <PUBCHEM_COORDINATE_TYPE>  (1) 
2
5
10

$$$$
