22792
     RDKit          3D

 20 21  0  0  1  0  0  0  0  0999 V2000
    3.9098   -3.1826    1.1005 I   0  0  0  0  0  0  0  0  0  0  0  0
    4.3339    2.5908   -0.8334 I   0  0  0  0  0  0  0  0  0  0  0  0
   -0.4939    1.5661    1.8975 O   0  0  0  0  0  0  0  0  0  0  0  0
   -0.8516    2.4934   -0.1425 O   0  0  0  0  0  0  0  0  0  0  0  0
    5.1634   -0.2843    0.3962 O   0  0  0  0  0  0  0  0  0  0  0  0
   -2.7134    0.0762   -0.2470 C   0  0  0  0  0  0  0  0  0  0  0  0
   -3.1177   -1.3255   -0.7234 C   0  0  0  0  0  0  0  0  0  0  0  0
   -3.6026    0.5355    0.9163 C   0  0  0  0  0  0  0  0  0  0  0  0
   -1.2403    0.1049    0.1561 C   0  0  0  0  0  0  0  0  0  0  0  0
   -4.6005   -1.3931   -1.0818 C   0  0  0  0  0  0  0  0  0  0  0  0
   -5.0846    0.4647    0.5553 C   0  0  0  0  0  0  0  0  0  0  0  0
   -5.4808   -0.9275    0.0738 C   0  0  0  0  0  0  0  0  0  0  0  0
   -0.3118   -0.3452   -0.9852 C   0  0  0  0  0  0  0  0  0  0  0  0
   -0.8464    1.5102    0.5864 C   0  0  0  0  0  0  0  0  0  0  0  0
    1.1506   -0.3286   -0.6155 C   0  0  0  0  0  0  0  0  0  0  0  0
    1.8944    0.8212   -0.8323 C   0  0  0  0  0  0  0  0  0  0  0  0
    1.7265   -1.4639   -0.0661 C   0  0  0  0  0  0  0  0  0  0  0  0
    3.0789   -1.4490    0.2747 C   0  0  0  0  0  0  0  0  0  0  0  0
    3.2469    0.8360   -0.4915 C   0  0  0  0  0  0  0  0  0  0  0  0
    3.8391   -0.2992    0.0620 C   0  0  0  0  0  0  0  0  0  0  0  0
  1 18  1  0
  2 19  1  0
  3 14  1  0
  4 14  2  0
  5 20  1  0
  6  7  1  0
  6  8  1  0
  6  9  1  0
  7 10  1  0
  8 11  1  0
  9 13  1  0
  9 14  1  0
 10 12  1  0
 11 12  1  0
 13 15  1  0
 15 16  2  0
 15 17  1  0
 16 19  1  0
 17 18  2  0
 18 20  1  0
 19 20  2  0
M  END
>  <PUBCHEM_COMPOUND_CID>  (1) 
22792

>  <PUBCHEM_CONFORMER_RMSD>  (1) 
0.8

>  <PUBCHEM_CONFORMER_DIVERSEORDER>  (1) 
1
4
17
6
20
11
18
19
3
2
14
10
9
12
8
13
5
15
16
7

>  <PUBCHEM_MMFF94_PARTIAL_CHARGES>  (1) 
18
1 -0.08
13 0.14
14 0.66
15 -0.14
16 -0.15
17 -0.15
18 0.08
19 0.08
2 -0.08
20 0.08
3 -0.65
35 0.15
36 0.15
37 0.5
38 0.45
4 -0.57
5 -0.53
9 0.06

>  <PUBCHEM_EFFECTIVE_ROTOR_COUNT>  (1) 
5.2

>  <PUBCHEM_PHARMACOPHORE_FEATURES>  (1) 
8
1 1 hydrophobe
1 2 hydrophobe
1 3 acceptor
1 4 acceptor
1 5 donor
3 3 4 14 anion
6 15 16 17 18 19 20 rings
6 6 7 8 10 11 12 rings

>  <PUBCHEM_HEAVY_ATOM_COUNT>  (1) 
20

>  <PUBCHEM_ATOM_DEF_STEREO_COUNT>  (1) 
0

>  <PUBCHEM_ATOM_UDEF_STEREO_COUNT>  (1) 
1

>  <PUBCHEM_BOND_DEF_STEREO_COUNT>  (1) 
0

>  <PUBCHEM_BOND_UDEF_STEREO_COUNT>  (1) 
0

>  <PUBCHEM_ISOTOPIC_ATOM_COUNT>  (1) 
0

>  <PUBCHEM_COMPONENT_COUNT>  (1) 
1

>  <PUBCHEM_CACTVS_TAUTO_COUNT>  (1) 
2

>  <PUBCHEM_CONFORMER_ID>  (1) 
0000590800000001

>  <PUBCHEM_MMFF94_ENERGY>  (1) 
40.2553

>  <PUBCHEM_FEATURE_SELFOVERLAP>  (1) 
40.653

>  <PUBCHEM_SHAPE_FINGERPRINT>  (1) 
10090160 65 18261390113312931844
10366900 7 17749686112287823720
10912923 1 18343867727602669779
12107183 9 17833833772300747617
12236239 1 18343022198591545358
12788726 201 17845950558148591025
12839892 36 17988353763501911135
13009979 54 18057041299277787042
13167823 11 18410856547019067135
13533116 47 18260832575102835962
13544653 18 18260269624938359519
13955234 65 18260828211669167066
14178342 30 17769094545080135354
14251764 18 18202008755252402467
14341114 176 18341333280370838434
14341114 328 18271812349287721300
14528608 73 18270123542519919172
14787075 74 18341332300532368746
15375462 189 18342739632793407115
15788980 27 18259702298639883101
1601671 61 17417821655436345245
17492 89 18266457611792034122
1813 80 18187658959419212559
18186145 218 15140967261846769797
18222031 100 17132109178260752677
18681886 176 18060138756650675302
19050596 39 18412265038451361254
200 152 18334010579641396343
20028762 73 18340478976468280398
20281475 54 18342170064369229167
20511986 3 18342163488684660797
20645477 70 17822008701070128274
20715895 44 17979916012992577093
21065198 48 18411983520419495587
21267235 1 18412554205677816294
21421861 104 18267311932284377939
22224240 67 18334287704881801362
23366157 5 18054498373379690657
23402539 116 18342172258997258375
23557571 272 16988287456446677096
23559900 14 18337946779987930106
23598288 3 17915163633736956118
26918003 58 18040157318358107739
3004659 81 18341897355041280054
312423 11 18339372846669252390
314194 84 18340767139309697519
34797466 226 15769222776792571385
4340502 62 17895195562031609442
474 4 18189340246074501156
5104073 3 18340206284814377707
5283173 99 18042674032156057053
5312544 6 18409168848452306862
537710 114 18272938257790078461
67856867 119 18410570699965816872
7164475 11 18335701585702246412
9709674 26 18261399905622400738

>  <PUBCHEM_SHAPE_MULTIPOLES>  (1) 
417.85
11.72
2.93
1.17
7.63
0.65
0.22
2.39
0.02
-4.96
0.42
0.43
-0.08
-2.1

>  <PUBCHEM_SHAPE_SELFOVERLAP>  (1) 
828.117

>  <PUBCHEM_SHAPE_VOLUME>  (1) 
254.8

>  <PUBCHEM_COORDINATE_TYPE>  (1) 
2
5
10

$$$$
