22799
     RDKit          3D

 22 23  0  0  0  0  0  0  0  0999 V2000
    2.1540   -0.9223    2.9549 Cl  0  0  0  0  0  0  0  0  0  0  0  0
    1.9078    1.2072   -2.9502 Cl  0  0  0  0  0  0  0  0  0  0  0  0
    4.2471   -1.9970    0.8149 Cl  0  0  0  0  0  0  0  0  0  0  0  0
    4.1222   -0.9307   -2.1479 Cl  0  0  0  0  0  0  0  0  0  0  0  0
   -0.7894    1.9818    0.7832 N   0  0  0  0  0  0  0  0  0  0  0  0
   -3.1165   -0.9087   -0.0856 N   0  0  0  0  0  0  0  0  0  0  0  0
   -2.1031    1.2392    0.5707 C   0  0  0  0  0  0  0  0  0  0  0  0
    0.1213    1.1902    1.7698 C   0  0  0  0  0  0  0  0  0  0  0  0
    0.0242    2.0244   -0.5455 C   0  0  0  0  0  0  0  0  0  0  0  0
   -1.8415   -0.1655    0.0634 C   0  0  0  0  0  0  0  0  0  0  0  0
    1.1748    0.5512    0.9281 C   0  0  0  0  0  0  0  0  0  0  0  0
    1.1198    1.0241   -0.3845 C   0  0  0  0  0  0  0  0  0  0  0  0
   -1.0752    3.3787    1.2985 C   0  0  0  0  0  0  0  0  0  0  0  0
   -4.0485   -0.1998   -1.0783 C   0  0  0  0  0  0  0  0  0  0  0  0
   -2.8620   -2.3313   -0.6035 C   0  0  0  0  0  0  0  0  0  0  0  0
   -3.8467   -1.0154    1.2606 C   0  0  0  0  0  0  0  0  0  0  0  0
    2.1310   -0.3721    1.3157 C   0  0  0  0  0  0  0  0  0  0  0  0
    2.0197    0.5851   -1.3406 C   0  0  0  0  0  0  0  0  0  0  0  0
   -3.3530   -0.0807   -2.4167 C   0  0  0  0  0  0  0  0  0  0  0  0
   -2.0100   -3.0810    0.3973 C   0  0  0  0  0  0  0  0  0  0  0  0
    3.0396   -0.8263    0.3575 C   0  0  0  0  0  0  0  0  0  0  0  0
    2.9843   -0.3510   -0.9620 C   0  0  0  0  0  0  0  0  0  0  0  0
  1 17  1  0
  2 18  1  0
  3 21  1  0
  4 22  1  0
  5  7  1  0
  5  8  1  0
  5  9  1  0
  5 13  1  0
  6 10  1  0
  6 14  1  0
  6 15  1  0
  6 16  1  0
  7 10  1  0
  8 11  1  0
  9 12  1  0
 11 12  2  0
 11 17  1  0
 12 18  1  0
 14 19  1  0
 15 20  1  0
 17 21  2  0
 18 22  2  0
 21 22  1  0
M  CHG  2   5   1   6   1
M  END
>  <PUBCHEM_COMPOUND_CID>  (1) 
22799

>  <PUBCHEM_CONFORMER_RMSD>  (1) 
0.8

>  <PUBCHEM_CONFORMER_DIVERSEORDER>  (1) 
3
11
2
10
4
13
8
1
12
9
5
7
6

>  <PUBCHEM_MMFF94_PARTIAL_CHARGES>  (1) 
20
1 -0.18
10 0.5
11 -0.14
12 -0.14
13 0.5
14 0.5
15 0.5
16 0.5
17 0.18
18 0.18
2 -0.18
21 0.18
22 0.18
3 -0.18
4 -0.18
5 -1.01
6 -1.01
7 0.5
8 0.65
9 0.65

>  <PUBCHEM_EFFECTIVE_ROTOR_COUNT>  (1) 
5.6

>  <PUBCHEM_PHARMACOPHORE_FEATURES>  (1) 
4
1 5 cation
1 6 cation
5 5 8 9 11 12 rings
6 11 12 17 18 21 22 rings

>  <PUBCHEM_HEAVY_ATOM_COUNT>  (1) 
22

>  <PUBCHEM_ATOM_DEF_STEREO_COUNT>  (1) 
0

>  <PUBCHEM_ATOM_UDEF_STEREO_COUNT>  (1) 
0

>  <PUBCHEM_BOND_DEF_STEREO_COUNT>  (1) 
0

>  <PUBCHEM_BOND_UDEF_STEREO_COUNT>  (1) 
0

>  <PUBCHEM_ISOTOPIC_ATOM_COUNT>  (1) 
0

>  <PUBCHEM_COMPONENT_COUNT>  (1) 
1

>  <PUBCHEM_CACTVS_TAUTO_COUNT>  (1) 
1

>  <PUBCHEM_CONFORMER_ID>  (1) 
0000590F00000003

>  <PUBCHEM_MMFF94_ENERGY>  (1) 
83.8057

>  <PUBCHEM_FEATURE_SELFOVERLAP>  (1) 
20.373

>  <PUBCHEM_SHAPE_FINGERPRINT>  (1) 
10366900 7 17418084442941876714
11471102 22 16128363862059936448
11578080 2 17897417581001773220
11582403 64 14710586726624805596
11725454 13 14202530913564455172
12035759 4 17677329403510301762
12156800 1 14971158552819225517
12202030 40 17203332156762888784
12363563 72 18060413651241596959
12553582 1 18343028791319008235
12633257 1 14979691978331670159
12707595 3 18270399520175425741
12714826 92 17273442519929257052
12788726 201 18269851851351984753
12892183 10 14117794725907306631
128993 33 12974978773048222239
13911987 19 15720546182330721038
14022347 108 18413108364165180459
14115302 16 18334004000083723783
16752209 62 18338226056115211673
1813 80 18059580217169938881
18186145 218 12613023942766416409
18981168 100 11026890467797235271
20600515 1 18271798042889114057
21452121 199 18200030775723773368
21634736 98 18115605845174527070
21731516 1 18339644550574116473
22112679 90 18116160961123788528
23114952 82 15357693059322212138
23419403 2 17180742767753924576
23557571 272 18201997707863833536
23559900 14 17917155988115585732
23598288 3 17972620800254523689
23598291 2 17750528264737138000
238 59 16298959782589302230
25 1 14057273139169665713
3286 77 15841549682359185207
568465 68 16343426103117296780
81228 2 17988646246822484961

>  <PUBCHEM_SHAPE_MULTIPOLES>  (1) 
450.27
7.38
2.85
2.68
0.61
0.31
-0.18
4.17
-3.42
0.78
0.56
-0.92
-0.81
-1.64

>  <PUBCHEM_SHAPE_SELFOVERLAP>  (1) 
889.846

>  <PUBCHEM_SHAPE_VOLUME>  (1) 
273.9

>  <PUBCHEM_COORDINATE_TYPE>  (1) 
2
5
10

$$$$
