22795
     RDKit          3D

 12 12  0  0  0  0  0  0  0  0999 V2000
    1.7450    0.0033    0.4521 S   0  0  0  0  0  0  0  0  0  0  0  0
    2.1093    1.2662    1.0785 O   0  0  0  0  0  0  0  0  0  0  0  0
    2.1366   -1.2527    1.0772 O   0  0  0  0  0  0  0  0  0  0  0  0
   -4.1448   -0.0042   -0.3653 N   0  0  0  0  0  0  0  0  0  0  0  0
    2.4191   -0.0049   -1.1938 C   0  0  0  0  0  0  0  0  0  0  0  0
    0.0156    0.0010    0.2123 C   0  0  0  0  0  0  0  0  0  0  0  0
   -0.6759    1.2081    0.1102 C   0  0  0  0  0  0  0  0  0  0  0  0
   -0.6746   -1.2079    0.1229 C   0  0  0  0  0  0  0  0  0  0  0  0
    3.9313   -0.0038   -1.1737 C   0  0  0  0  0  0  0  0  0  0  0  0
   -2.0576    1.2065   -0.0812 C   0  0  0  0  0  0  0  0  0  0  0  0
   -2.0564   -1.2095   -0.0686 C   0  0  0  0  0  0  0  0  0  0  0  0
   -2.7477   -0.0022   -0.1706 C   0  0  0  0  0  0  0  0  0  0  0  0
  1  2  2  0
  1  3  2  0
  1  5  1  0
  1  6  1  0
  4 12  1  0
  5  9  1  0
  6  7  2  0
  6  8  1  0
  7 10  1  0
  8 11  2  0
 10 12  2  0
 11 12  1  0
M  END
>  <PUBCHEM_COMPOUND_CID>  (1) 
22795

>  <PUBCHEM_CONFORMER_RMSD>  (1) 
0.6

>  <PUBCHEM_CONFORMER_DIVERSEORDER>  (1) 
1
2

>  <PUBCHEM_MMFF94_PARTIAL_CHARGES>  (1) 
17
1 1.2
10 -0.15
11 -0.15
12 0.1
15 0.15
16 0.15
2 -0.65
20 0.15
21 0.15
22 0.4
23 0.4
3 -0.65
4 -0.9
5 0.11
6 -0.01
7 -0.15
8 -0.15

>  <PUBCHEM_EFFECTIVE_ROTOR_COUNT>  (1) 
2

>  <PUBCHEM_PHARMACOPHORE_FEATURES>  (1) 
5
1 2 acceptor
1 3 acceptor
1 4 cation
1 4 donor
6 6 7 8 10 11 12 rings

>  <PUBCHEM_HEAVY_ATOM_COUNT>  (1) 
12

>  <PUBCHEM_ATOM_DEF_STEREO_COUNT>  (1) 
0

>  <PUBCHEM_ATOM_UDEF_STEREO_COUNT>  (1) 
0

>  <PUBCHEM_BOND_DEF_STEREO_COUNT>  (1) 
0

>  <PUBCHEM_BOND_UDEF_STEREO_COUNT>  (1) 
0

>  <PUBCHEM_ISOTOPIC_ATOM_COUNT>  (1) 
0

>  <PUBCHEM_COMPONENT_COUNT>  (1) 
1

>  <PUBCHEM_CACTVS_TAUTO_COUNT>  (1) 
1

>  <PUBCHEM_CONFORMER_ID>  (1) 
0000590B00000001

>  <PUBCHEM_MMFF94_ENERGY>  (1) 
25.36

>  <PUBCHEM_FEATURE_SELFOVERLAP>  (1) 
25.389

>  <PUBCHEM_SHAPE_FINGERPRINT>  (1) 
11031198 65 16225776215703973110
12032990 46 18271248326178174767
12897270 3 18411419531083878142
12932764 1 18410569591573974243
14325111 11 18410565172332363969
14911166 2 18411699894175749373
14993402 34 18041001743335660685
15219456 202 17917712469499937136
15310529 11 16732978717620176141
15775835 57 18187369796192520068
16945 1 18271520918888035339
18186145 218 18273208686569787849
20201158 50 17775294845699194574
20279233 1 17917992793467629966
20523700 14 18186522119893108175
20645464 45 18058997479990623954
20645476 183 17894916260472211983
20671657 53 17060075713560330428
20711985 344 17987247624781470512
21119208 17 18040725761764552958
21293036 1 18409736165896916372
23552423 10 18189332549097058285
23559900 14 18341338860049872676
2748010 2 18122617525277114315
3248919 1 17167854275146027627
369184 2 18339629101529208411
5084963 1 17822845360429935057
7364860 26 18340197514929307450
8030462 33 18333447633924887570

>  <PUBCHEM_SHAPE_MULTIPOLES>  (1) 
234.08
6
1.31
1.03
0.2
0
-0.03
-0.01
-1.88
-0.28
0.23
0.98
0
0

>  <PUBCHEM_SHAPE_SELFOVERLAP>  (1) 
466.498

>  <PUBCHEM_SHAPE_VOLUME>  (1) 
139.3

>  <PUBCHEM_COORDINATE_TYPE>  (1) 
2
5
10

$$$$
