2280
     RDKit          3D

 26 29  0  0  0  0  0  0  0  0999 V2000
    0.0634   -2.9719    0.0003 O   0  0  0  0  0  0  0  0  0  0  0  0
   -2.4842   -1.6509    0.0006 N   0  0  0  0  0  0  0  0  0  0  0  0
    2.4746   -1.6488   -0.0007 N   0  0  0  0  0  0  0  0  0  0  0  0
   -1.3613    0.2672    0.0008 N   0  0  0  0  0  0  0  0  0  0  0  0
    1.3502    0.2684   -0.0007 N   0  0  0  0  0  0  0  0  0  0  0  0
   -7.6450   -0.6193   -0.0019 N   0  0  0  0  0  0  0  0  0  0  0  0
    7.6347   -0.6127    0.0019 N   0  0  0  0  0  0  0  0  0  0  0  0
   -7.6182    1.6970   -0.0002 N   0  0  0  0  0  0  0  0  0  0  0  0
    7.6058    1.7036    0.0003 N   0  0  0  0  0  0  0  0  0  0  0  0
   -3.4398   -0.6674    0.0005 C   0  0  0  0  0  0  0  0  0  0  0  0
    3.4294   -0.6645   -0.0007 C   0  0  0  0  0  0  0  0  0  0  0  0
   -2.7138    0.5205    0.0007 C   0  0  0  0  0  0  0  0  0  0  0  0
    2.7025    0.5228   -0.0007 C   0  0  0  0  0  0  0  0  0  0  0  0
   -1.2596   -1.0431    0.0007 C   0  0  0  0  0  0  0  0  0  0  0  0
    1.3240   -1.0018   -0.0008 C   0  0  0  0  0  0  0  0  0  0  0  0
   -0.0047   -1.7189   -0.0001 C   0  0  0  0  0  0  0  0  0  0  0  0
   -4.8343   -0.7135    0.0005 C   0  0  0  0  0  0  0  0  0  0  0  0
    4.8240   -0.7093   -0.0005 C   0  0  0  0  0  0  0  0  0  0  0  0
   -5.5046    0.5142    0.0004 C   0  0  0  0  0  0  0  0  0  0  0  0
    5.4933    0.5190   -0.0004 C   0  0  0  0  0  0  0  0  0  0  0  0
   -3.4036    1.7447    0.0006 C   0  0  0  0  0  0  0  0  0  0  0  0
    3.3911    1.7475   -0.0006 C   0  0  0  0  0  0  0  0  0  0  0  0
   -4.8040    1.7226    0.0005 C   0  0  0  0  0  0  0  0  0  0  0  0
    4.7915    1.7267   -0.0004 C   0  0  0  0  0  0  0  0  0  0  0  0
   -6.9516    0.5309    0.0000 C   0  0  0  0  0  0  0  0  0  0  0  0
    6.9403    0.5369    0.0000 C   0  0  0  0  0  0  0  0  0  0  0  0
  1 16  2  0
  2 10  1  0
  2 14  1  0
  3 11  1  0
  3 15  1  0
  4 12  1  0
  4 14  2  0
  5 13  1  0
  5 15  2  0
  6 25  2  0
  7 26  2  0
  8 25  1  0
  9 26  1  0
 10 12  2  0
 10 17  1  0
 11 13  2  0
 11 18  1  0
 12 21  1  0
 13 22  1  0
 14 16  1  0
 15 16  1  0
 17 19  2  0
 18 20  2  0
 19 23  1  0
 19 25  1  0
 20 24  1  0
 20 26  1  0
 21 23  2  0
 22 24  2  0
M  CHG  2   6   1   7   1
M  END
>  <PUBCHEM_COMPOUND_CID>  (1) 
2280

>  <PUBCHEM_CONFORMER_RMSD>  (1) 
0.8

>  <PUBCHEM_CONFORMER_DIVERSEORDER>  (1) 
1
7
3
4
8
9
2
5
6

>  <PUBCHEM_MMFF94_PARTIAL_CHARGES>  (1) 
42
1 -0.57
10 -0.15
11 -0.15
12 0.23
13 0.23
14 0.1
15 0.1
16 0.74
17 -0.15
18 -0.15
19 -0.02
2 0.03
20 -0.02
21 -0.15
22 -0.15
23 -0.15
24 -0.15
25 0.73
26 0.73
27 0.27
28 0.27
29 0.15
3 0.03
30 0.15
31 0.15
32 0.15
33 0.15
34 0.15
35 0.45
36 0.45
37 0.45
38 0.45
39 0.45
4 -0.57
40 0.45
41 0.45
42 0.45
5 -0.57
6 -0.75
7 -0.75
8 -0.75
9 -0.75

>  <PUBCHEM_EFFECTIVE_ROTOR_COUNT>  (1) 
4

>  <PUBCHEM_PHARMACOPHORE_FEATURES>  (1) 
15
1 1 acceptor
1 2 donor
1 3 donor
1 6 donor
1 7 donor
1 8 donor
1 9 donor
3 2 4 14 cation
3 3 5 15 cation
3 6 8 25 cation
3 7 9 26 cation
5 2 4 10 12 14 rings
5 3 5 11 13 15 rings
6 10 12 17 19 21 23 rings
6 11 13 18 20 22 24 rings

>  <PUBCHEM_HEAVY_ATOM_COUNT>  (1) 
26

>  <PUBCHEM_ATOM_DEF_STEREO_COUNT>  (1) 
0

>  <PUBCHEM_ATOM_UDEF_STEREO_COUNT>  (1) 
0

>  <PUBCHEM_BOND_DEF_STEREO_COUNT>  (1) 
0

>  <PUBCHEM_BOND_UDEF_STEREO_COUNT>  (1) 
0

>  <PUBCHEM_ISOTOPIC_ATOM_COUNT>  (1) 
0

>  <PUBCHEM_COMPONENT_COUNT>  (1) 
1

>  <PUBCHEM_CACTVS_TAUTO_COUNT>  (1) 
63

>  <PUBCHEM_CONFORMER_ID>  (1) 
000008E800000001

>  <PUBCHEM_MMFF94_ENERGY>  (1) 
72.4127

>  <PUBCHEM_FEATURE_SELFOVERLAP>  (1) 
76.442

>  <PUBCHEM_SHAPE_FINGERPRINT>  (1) 
10 15 18113901567311707608
10595046 47 18341891854005545859
106641 1 17386010593785401537
10730089 173 18343301466208299217
11315181 36 18201721748284286513
11408170 108 16056330402451158734
11719270 70 18202280278447718062
11724838 91 18261392273728967511
12838862 33 18338781373421650633
13402501 40 18410572885645643805
13785724 45 17833264221674721626
14251764 18 18260828202414444450
14257110 125 18410292510512415607
14394314 77 18271251513171568545
14933364 13 18410576188469829893
15131766 46 15721666756340513342
15183329 4 18343866606347258488
15419008 145 18188196595384536776
15716309 27 11386367049776326760
1577012 14 18411130342377981198
15840311 113 18041001761270177020
15961568 22 18335985290073055909
16989713 51 17416396778994345143
18335252 114 18342450430970330940
18335252 98 18412549825687055899
18608769 82 18339644542301030739
19611394 137 17896897632518473467
20157964 124 18343867693274807406
20281389 69 18259701194944382548
20554085 129 17774708819535877786
20567600 254 18259698991530954243
20721686 124 17988927734779407630
21033648 29 18200018677465383568
21150785 3 15913608375929885309
21585482 111 18191870029378966301
22224240 67 17385442132946087898
23198884 109 16272212981343889851
23559900 14 18200587111443565456
2838139 119 18341888610471963252
335352 9 18411140243263600638
34797466 226 17846787307718716781
350125 39 18410009935718336404
3545911 37 18411418410081609092
4073 2 18041002886098090218
4325135 7 18343299276059704781
4340502 62 16587742027747630722
465052 167 10881399824849939520
5104073 3 18188497857137800323
5385378 56 18260825960969595682
5758199 1 18411984646186178539
59682541 35 18260277361018290641
59755656 215 18412268307464883630
59755656 520 17967528003891170002
6328613 192 18262243330653451364
6669772 16 17846787273354438470

>  <PUBCHEM_SHAPE_MULTIPOLES>  (1) 
489.35
21.73
2.1
0.59
0.32
0.37
0
-9.14
0
-0.02
0
0
-0.01
0

>  <PUBCHEM_SHAPE_SELFOVERLAP>  (1) 
1111.005

>  <PUBCHEM_SHAPE_VOLUME>  (1) 
258.8

>  <PUBCHEM_COORDINATE_TYPE>  (1) 
2
5
10

$$$$
