22806
     RDKit          3D

 17 19  0  0  0  0  0  0  0  0999 V2000
    2.9601    2.5933    0.0018 S   0  0  0  0  0  0  0  0  0  0  0  0
    0.1396    2.4882   -0.0031 O   0  0  0  0  0  0  0  0  0  0  0  0
   -0.5684   -2.8066   -0.0003 O   0  0  0  0  0  0  0  0  0  0  0  0
    1.1801    0.3437   -0.0001 C   0  0  0  0  0  0  0  0  0  0  0  0
    0.9775   -1.0380   -0.0005 C   0  0  0  0  0  0  0  0  0  0  0  0
   -1.3391    0.7129   -0.0002 C   0  0  0  0  0  0  0  0  0  0  0  0
   -1.5416   -0.6687    0.0000 C   0  0  0  0  0  0  0  0  0  0  0  0
    0.0291    1.2696   -0.0006 C   0  0  0  0  0  0  0  0  0  0  0  0
   -0.3907   -1.5947   -0.0008 C   0  0  0  0  0  0  0  0  0  0  0  0
    2.4819    0.8586    0.0006 C   0  0  0  0  0  0  0  0  0  0  0  0
    2.0770   -1.9048   -0.0003 C   0  0  0  0  0  0  0  0  0  0  0  0
   -2.4385    1.5798    0.0001 C   0  0  0  0  0  0  0  0  0  0  0  0
   -2.8436   -1.1836    0.0005 C   0  0  0  0  0  0  0  0  0  0  0  0
    3.5747   -0.0088    0.0008 C   0  0  0  0  0  0  0  0  0  0  0  0
    3.3727   -1.3875    0.0001 C   0  0  0  0  0  0  0  0  0  0  0  0
   -3.7343    1.0626    0.0009 C   0  0  0  0  0  0  0  0  0  0  0  0
   -3.9364   -0.3161    0.0011 C   0  0  0  0  0  0  0  0  0  0  0  0
  1 10  1  0
  2  8  2  0
  3  9  2  0
  4  5  2  0
  4  8  1  0
  4 10  1  0
  5  9  1  0
  5 11  1  0
  6  7  2  0
  6  8  1  0
  6 12  1  0
  7  9  1  0
  7 13  1  0
 10 14  2  0
 11 15  2  0
 12 16  2  0
 13 17  2  0
 14 15  1  0
 16 17  1  0
M  END
>  <PUBCHEM_COMPOUND_CID>  (1) 
22806

>  <PUBCHEM_CONFORMER_RMSD>  (1) 
0.4

>  <PUBCHEM_CONFORMER_DIVERSEORDER>  (1) 
1

>  <PUBCHEM_MMFF94_PARTIAL_CHARGES>  (1) 
25
1 -0.28
10 0.1
11 -0.15
12 -0.15
13 -0.15
14 -0.15
15 -0.15
16 -0.15
17 -0.15
18 0.15
19 0.15
2 -0.57
20 0.15
21 0.15
22 0.15
23 0.15
24 0.15
25 0.18
3 -0.57
4 0.09
5 0.09
6 0.09
7 0.09
8 0.4
9 0.4

>  <PUBCHEM_EFFECTIVE_ROTOR_COUNT>  (1) 
0

>  <PUBCHEM_PHARMACOPHORE_FEATURES>  (1) 
5
1 2 acceptor
1 3 acceptor
6 4 5 10 11 14 15 rings
6 4 5 6 7 8 9 rings
6 6 7 12 13 16 17 rings

>  <PUBCHEM_HEAVY_ATOM_COUNT>  (1) 
17

>  <PUBCHEM_ATOM_DEF_STEREO_COUNT>  (1) 
0

>  <PUBCHEM_ATOM_UDEF_STEREO_COUNT>  (1) 
0

>  <PUBCHEM_BOND_DEF_STEREO_COUNT>  (1) 
0

>  <PUBCHEM_BOND_UDEF_STEREO_COUNT>  (1) 
0

>  <PUBCHEM_ISOTOPIC_ATOM_COUNT>  (1) 
0

>  <PUBCHEM_COMPONENT_COUNT>  (1) 
1

>  <PUBCHEM_CACTVS_TAUTO_COUNT>  (1) 
5

>  <PUBCHEM_CONFORMER_ID>  (1) 
0000591600000001

>  <PUBCHEM_MMFF94_ENERGY>  (1) 
56.5869

>  <PUBCHEM_FEATURE_SELFOVERLAP>  (1) 
25.414

>  <PUBCHEM_SHAPE_FINGERPRINT>  (1) 
10411042 1 16969704387641807815
10608611 8 18409445886321878605
10616163 171 18194686097061754686
10967382 1 18338797926251469988
10980938 120 18410293652831291560
11132069 177 18340198609560132539
11471102 20 18410288077789603190
11680986 33 18264213671646434426
13140716 1 18338238167611769801
13221675 6 18410573955123798222
13380535 76 18338514256625676850
13897977 150 18410571773333165925
14178342 30 17978777227966834856
15196674 1 18410855451554064455
15309172 13 18411708681578746555
15442244 35 18339643321970856984
15536298 74 18343019999642149096
16945 1 18194683897800946790
18186145 218 18342179925223841669
193761 8 18050567644615529447
19591789 44 18410294722173055947
200 152 18131058326083750901
20510252 161 18272369737258767472
20645477 70 18412822473946317167
21267235 1 18411146817898863343
21501502 16 18340203102095924038
221490 88 18336554888340140130
2334 1 18411136948042534853
23402539 116 18270951371717459838
23463225 33 18409167675425062028
23559900 14 18342736300362859618
238 59 17684888515870660757
2748010 2 18410012117593098575
335352 9 17978510836508981958
350125 39 18410016507092386161
474 4 17532096171091450476
5104073 3 18410293618376556609
528886 8 18339074900150031355
53812653 166 18342453768085917488
69090 78 18341608226643675423
7364860 26 18413671327167267372
8809292 202 18261398818921698467
9709674 26 18411986879179347342

>  <PUBCHEM_SHAPE_MULTIPOLES>  (1) 
341.96
6.35
2.76
0.61
1.52
0.22
0
0.84
0
-1.18
0
-0.02
0.02
0

>  <PUBCHEM_SHAPE_SELFOVERLAP>  (1) 
763.439

>  <PUBCHEM_SHAPE_VOLUME>  (1) 
183.4

>  <PUBCHEM_COORDINATE_TYPE>  (1) 
2
5
10

$$$$
