22802
     RDKit          3D

 15 17  0  0  1  0  0  0  0  0999 V2000
    2.3416   -1.1958    1.8657 O   0  0  0  0  0  0  0  0  0  0  0  0
   -1.6697    0.1089   -0.1294 N   0  0  0  0  0  0  0  0  0  0  0  0
   -0.3686    0.3119    0.4902 C   0  0  0  0  0  0  0  0  0  0  0  0
    0.5465   -0.9114    0.2803 C   0  0  0  0  0  0  0  0  0  0  0  0
    2.5814    0.5906    0.2652 C   0  0  0  0  0  0  0  0  0  0  0  0
    0.2339    1.6440    0.0127 C   0  0  0  0  0  0  0  0  0  0  0  0
    1.6941    1.8284    0.4419 C   0  0  0  0  0  0  0  0  0  0  0  0
    0.8350   -1.3340   -1.1687 C   0  0  0  0  0  0  0  0  0  0  0  0
    1.8771   -0.5769    0.9139 C   0  0  0  0  0  0  0  0  0  0  0  0
    2.8834    0.2029   -1.1870 C   0  0  0  0  0  0  0  0  0  0  0  0
    1.6903   -0.3502   -1.9722 C   0  0  0  0  0  0  0  0  0  0  0  0
   -2.6178    1.1721    0.2015 C   0  0  0  0  0  0  0  0  0  0  0  0
   -2.3138   -1.1264    0.3162 C   0  0  0  0  0  0  0  0  0  0  0  0
   -3.9562    0.5732   -0.2047 C   0  0  0  0  0  0  0  0  0  0  0  0
   -3.7574   -0.9374   -0.1258 C   0  0  0  0  0  0  0  0  0  0  0  0
  1  9  2  0
  2  3  1  0
  2 12  1  0
  2 13  1  0
  3  4  1  0
  3  6  1  0
  4  8  1  0
  4  9  1  0
  5  7  1  0
  5  9  1  0
  5 10  1  0
  6  7  1  0
  8 11  1  0
 10 11  1  0
 12 14  1  0
 13 15  1  0
 14 15  1  0
M  END
>  <PUBCHEM_COMPOUND_CID>  (1) 
22802

>  <PUBCHEM_CONFORMER_RMSD>  (1) 
0.6

>  <PUBCHEM_CONFORMER_DIVERSEORDER>  (1) 
1
12
13
14
11
3
10
8
9
5
4
6
2
7

>  <PUBCHEM_MMFF94_PARTIAL_CHARGES>  (1) 
8
1 -0.57
12 0.27
13 0.27
2 -0.81
3 0.27
4 0.06
5 0.06
9 0.45

>  <PUBCHEM_EFFECTIVE_ROTOR_COUNT>  (1) 
3.2

>  <PUBCHEM_PHARMACOPHORE_FEATURES>  (1) 
5
1 1 acceptor
1 2 cation
5 2 12 13 14 15 rings
6 3 4 5 6 7 9 rings
6 4 5 8 9 10 11 rings

>  <PUBCHEM_HEAVY_ATOM_COUNT>  (1) 
15

>  <PUBCHEM_ATOM_DEF_STEREO_COUNT>  (1) 
0

>  <PUBCHEM_ATOM_UDEF_STEREO_COUNT>  (1) 
3

>  <PUBCHEM_BOND_DEF_STEREO_COUNT>  (1) 
0

>  <PUBCHEM_BOND_UDEF_STEREO_COUNT>  (1) 
0

>  <PUBCHEM_ISOTOPIC_ATOM_COUNT>  (1) 
0

>  <PUBCHEM_COMPONENT_COUNT>  (1) 
1

>  <PUBCHEM_CACTVS_TAUTO_COUNT>  (1) 
1

>  <PUBCHEM_CONFORMER_ID>  (1) 
0000591200000001

>  <PUBCHEM_MMFF94_ENERGY>  (1) 
26.9595

>  <PUBCHEM_FEATURE_SELFOVERLAP>  (1) 
26.809

>  <PUBCHEM_SHAPE_FINGERPRINT>  (1) 
107287 299 17060341841975242759
11680611 10 17983268685584886158
12423570 1 13305435296242994314
12932764 1 18260552225402113073
13296908 3 17703794704320111031
13705890 14 17632307778044000052
14115302 16 17749396957244982139
14144814 61 18410573977083834209
14344429 50 18408041827210963692
15775835 57 18113621192036444053
16945 1 18273497857663383417
17990270 104 18272375269255505757
18186145 218 18411983555338474577
20201158 50 18273219685848904303
20233049 118 18335706026640180756
20559304 39 18334850589292452739
20645476 183 17749400299035785727
20645477 70 18200308948419097493
21501502 16 18260824865472996225
21524375 3 17765148762767696072
21730867 7 17530678818518502115
232386 152 18334850576402379858
23402539 116 18272649052383574500
23419403 2 12300481307720734020
23559900 14 18129666292074481142
2748010 2 18197219367583582993
3060560 45 18273779354120244815
3248919 1 17917710189067403905
4175511 335 17749105595343226802
528886 8 17989494047453940820
5337951 7 15339117983202969958
581208 293 17346593093028454573
5939293 188 18343014523359042969
7364860 26 18336544906852202402
8030462 33 18040721376529025417
81228 2 17843689863515937337

>  <PUBCHEM_SHAPE_MULTIPOLES>  (1) 
297.84
5.68
1.61
1.34
5.35
0.38
-0.01
-0.07
0.33
-0.12
0.05
-1.29
-0.49
0.15

>  <PUBCHEM_SHAPE_SELFOVERLAP>  (1) 
625.847

>  <PUBCHEM_SHAPE_VOLUME>  (1) 
167.8

>  <PUBCHEM_COORDINATE_TYPE>  (1) 
2
5
10

$$$$
