22823
     RDKit          3D

 11 11  0  0  0  0  0  0  0  0999 V2000
   -2.7700    1.1490    0.0001 Cl  0  0  0  0  0  0  0  0  0  0  0  0
    2.8365   -1.6185    0.0005 Cl  0  0  0  0  0  0  0  0  0  0  0  0
   -2.4999   -2.0470    0.0006 Cl  0  0  0  0  0  0  0  0  0  0  0  0
    2.3227    1.3246    0.0001 O   0  0  0  0  0  0  0  0  0  0  0  0
   -0.1406    2.5743    0.0000 N   0  0  0  0  0  0  0  0  0  0  0  0
   -0.0598    1.1609    0.0001 C   0  0  0  0  0  0  0  0  0  0  0  0
    1.1958    0.5532    0.0000 C   0  0  0  0  0  0  0  0  0  0  0  0
   -1.2138    0.3772   -0.0001 C   0  0  0  0  0  0  0  0  0  0  0  0
    1.2974   -0.8380   -0.0003 C   0  0  0  0  0  0  0  0  0  0  0  0
   -1.1120   -1.0141   -0.0005 C   0  0  0  0  0  0  0  0  0  0  0  0
    0.1436   -1.6216   -0.0006 C   0  0  0  0  0  0  0  0  0  0  0  0
  1  8  1  0
  2  9  1  0
  3 10  1  0
  4  7  1  0
  5  6  1  0
  6  7  2  0
  6  8  1  0
  7  9  1  0
  8 10  2  0
  9 11  2  0
 10 11  1  0
M  END
>  <PUBCHEM_COMPOUND_CID>  (1) 
22823

>  <PUBCHEM_CONFORMER_RMSD>  (1) 
0.4

>  <PUBCHEM_CONFORMER_DIVERSEORDER>  (1) 
1

>  <PUBCHEM_MMFF94_PARTIAL_CHARGES>  (1) 
15
1 -0.18
10 0.18
11 -0.15
12 0.15
13 0.4
14 0.4
15 0.45
2 -0.18
3 -0.18
4 -0.53
5 -0.9
6 0.1
7 0.08
8 0.18
9 0.18

>  <PUBCHEM_EFFECTIVE_ROTOR_COUNT>  (1) 
0

>  <PUBCHEM_PHARMACOPHORE_FEATURES>  (1) 
4
1 4 donor
1 5 cation
1 5 donor
6 6 7 8 9 10 11 rings

>  <PUBCHEM_HEAVY_ATOM_COUNT>  (1) 
11

>  <PUBCHEM_ATOM_DEF_STEREO_COUNT>  (1) 
0

>  <PUBCHEM_ATOM_UDEF_STEREO_COUNT>  (1) 
0

>  <PUBCHEM_BOND_DEF_STEREO_COUNT>  (1) 
0

>  <PUBCHEM_BOND_UDEF_STEREO_COUNT>  (1) 
0

>  <PUBCHEM_ISOTOPIC_ATOM_COUNT>  (1) 
0

>  <PUBCHEM_COMPONENT_COUNT>  (1) 
1

>  <PUBCHEM_CACTVS_TAUTO_COUNT>  (1) 
5

>  <PUBCHEM_CONFORMER_ID>  (1) 
0000592700000001

>  <PUBCHEM_MMFF94_ENERGY>  (1) 
36.6293

>  <PUBCHEM_FEATURE_SELFOVERLAP>  (1) 
20.302

>  <PUBCHEM_SHAPE_FINGERPRINT>  (1) 
11206711 2 18193278717930577349
12423570 1 9042856378238768669
16945 1 18194402190917244070
193761 8 18338799021489190501
20588541 1 18125725590871577535
20871998 184 18201435826945838174
21040471 1 18410855464486627493
21501502 16 18410293635488028455
2334 1 18338797917635356515
23402539 116 17981308011280755055
23402655 69 17545863951074225821
23552423 10 18261114097070953182
23559900 14 18197781008384784790
241688 4 18410012126130389794
2748010 2 18411698807026933262
5084963 1 17842831127416566777
528886 8 18339636729122269595
68250623 7 18410298033524106947

>  <PUBCHEM_SHAPE_MULTIPOLES>  (1) 
221.13
3.75
2.57
0.61
0.41
0.26
0
-0.96
0
-0.56
0
-0.02
-0.04
0

>  <PUBCHEM_SHAPE_SELFOVERLAP>  (1) 
438.493

>  <PUBCHEM_SHAPE_VOLUME>  (1) 
134.6

>  <PUBCHEM_COORDINATE_TYPE>  (1) 
2
5
10

$$$$
