22825
     RDKit          3D

 14 14  0  0  0  0  0  0  0  0999 V2000
   -2.2072   -0.7910    1.9461 O   0  0  0  0  0  0  0  0  0  0  0  0
   -4.0228    0.8878   -0.2351 O   0  0  0  0  0  0  0  0  0  0  0  0
    2.0937    0.0636   -0.0114 N   0  0  0  0  0  0  0  0  0  0  0  0
   -3.4545   -0.1816   -0.4977 N   0  0  0  0  0  0  0  0  0  0  0  0
    2.7936    1.3098   -0.2519 C   0  0  0  0  0  0  0  0  0  0  0  0
    2.8537   -1.1117    0.3658 C   0  0  0  0  0  0  0  0  0  0  0  0
    0.6899   -0.0014   -0.1297 C   0  0  0  0  0  0  0  0  0  0  0  0
   -0.0868   -0.3684    0.9694 C   0  0  0  0  0  0  0  0  0  0  0  0
    2.8947    2.1084    1.0335 C   0  0  0  0  0  0  0  0  0  0  0  0
    3.2407   -1.9020   -0.8694 C   0  0  0  0  0  0  0  0  0  0  0  0
    0.0780    0.3029   -1.3457 C   0  0  0  0  0  0  0  0  0  0  0  0
   -1.4754   -0.4308    0.8524 C   0  0  0  0  0  0  0  0  0  0  0  0
   -1.3105    0.2405   -1.4627 C   0  0  0  0  0  0  0  0  0  0  0  0
   -2.0871   -0.1263   -0.3636 C   0  0  0  0  0  0  0  0  0  0  0  0
  1 12  1  0
  2  4  2  0
  3  5  1  0
  3  6  1  0
  3  7  1  0
  4 14  1  0
  5  9  1  0
  6 10  1  0
  7  8  2  0
  7 11  1  0
  8 12  1  0
 11 13  2  0
 12 14  2  0
 13 14  1  0
M  END
>  <PUBCHEM_COMPOUND_CID>  (1) 
22825

>  <PUBCHEM_CONFORMER_RMSD>  (1) 
0.6

>  <PUBCHEM_CONFORMER_DIVERSEORDER>  (1) 
1
7
14
19
10
23
22
18
15
20
17
9
5
8
16
6
12
13
3
11
21
2
4

>  <PUBCHEM_MMFF94_PARTIAL_CHARGES>  (1) 
16
1 -0.53
11 -0.15
12 0.08
13 -0.15
14 0.3
19 0.15
2 -0.16
20 0.15
27 0.15
28 0.45
3 -0.84
4 -0.14
5 0.37
6 0.37
7 0.1
8 -0.15

>  <PUBCHEM_EFFECTIVE_ROTOR_COUNT>  (1) 
4

>  <PUBCHEM_PHARMACOPHORE_FEATURES>  (1) 
3
1 1 donor
1 3 cation
6 7 8 11 12 13 14 rings

>  <PUBCHEM_HEAVY_ATOM_COUNT>  (1) 
14

>  <PUBCHEM_ATOM_DEF_STEREO_COUNT>  (1) 
0

>  <PUBCHEM_ATOM_UDEF_STEREO_COUNT>  (1) 
0

>  <PUBCHEM_BOND_DEF_STEREO_COUNT>  (1) 
0

>  <PUBCHEM_BOND_UDEF_STEREO_COUNT>  (1) 
0

>  <PUBCHEM_ISOTOPIC_ATOM_COUNT>  (1) 
0

>  <PUBCHEM_COMPONENT_COUNT>  (1) 
1

>  <PUBCHEM_CACTVS_TAUTO_COUNT>  (1) 
4

>  <PUBCHEM_CONFORMER_ID>  (1) 
0000592900000001

>  <PUBCHEM_MMFF94_ENERGY>  (1) 
48.2316

>  <PUBCHEM_FEATURE_SELFOVERLAP>  (1) 
15.223

>  <PUBCHEM_SHAPE_FINGERPRINT>  (1) 
107287 299 18262805180699125148
11132069 177 17240756307325997901
11543360 7 18129082563570188445
12382932 28 17168421670338099377
12932764 1 18270412692534225958
13296908 3 17894920653980857427
13538477 17 16701728458296756638
14115302 16 16916775284342211791
14289901 80 18268991049985580275
14993402 34 16630249207043086457
15219456 202 18114186371315255874
15775835 57 17774435113516435052
16945 1 17560817497371985343
1813 80 17487915406349766318
18175812 5 18113340820787486630
18186145 218 18113892724311661701
19026448 4 18410291424038638095
19026448 5 18131626794769369741
19765921 60 16984882496779952144
20279233 1 17894349994835361906
20559304 39 16415759717555286766
20645464 45 17821998852456605632
20645476 183 17346309466120258700
20645477 70 18341611495003213110
20715346 28 18041852808090176714
22096605 113 18200304554076891728
23557571 272 17822866405775090290
23559900 14 17312827057244762678
23598291 2 17273998881771760360
2748010 2 16589446382429055799
3248919 1 17677048056965657644
474 4 17630313371805821888
7364860 26 18131347519058624444
7615 1 17203337688559200464
77492 1 17203612596683921770
8030462 33 15554456201204187708
88987 49 16443345416118464210

>  <PUBCHEM_SHAPE_MULTIPOLES>  (1) 
266.41
6.05
1.57
1.41
1.68
0.3
-0.25
0.33
0.1
-2.47
-0.05
0.77
-0.09
0.31

>  <PUBCHEM_SHAPE_SELFOVERLAP>  (1) 
542.875

>  <PUBCHEM_SHAPE_VOLUME>  (1) 
156.1

>  <PUBCHEM_COORDINATE_TYPE>  (1) 
2
5
10

$$$$
