22839
     RDKit          3D

 36 39  0  0  1  0  0  0  0  0999 V2000
   -5.9079   -0.1364    0.4441 S   0  0  0  0  0  0  0  0  0  0  0  0
    7.8575   -1.0363   -0.8855 S   0  0  0  0  0  0  0  0  0  0  0  0
    1.9914    2.5670   -0.8046 O   0  0  0  0  0  0  0  0  0  0  0  0
   -7.1948    0.3177   -0.0661 O   0  0  0  0  0  0  0  0  0  0  0  0
   -5.6364   -0.0275    1.8709 O   0  0  0  0  0  0  0  0  0  0  0  0
    7.5138   -2.3449   -1.8035 O   0  0  0  0  0  0  0  0  0  0  0  0
    8.4555   -0.0445   -1.7675 O   0  0  0  0  0  0  0  0  0  0  0  0
    8.5609   -1.4914    0.3037 O   0  0  0  0  0  0  0  0  0  0  0  0
    2.5963    1.0371    0.9030 N   0  0  0  0  0  0  0  0  0  0  0  0
    2.0435    0.5647    2.0739 N   0  0  0  0  0  0  0  0  0  0  0  0
   -0.5653    1.6199    0.3952 N   0  0  0  0  0  0  0  0  0  0  0  0
   -5.6701   -1.7631   -0.0685 N   0  0  0  0  0  0  0  0  0  0  0  0
   -1.4884    2.4649    0.3304 N   0  0  0  0  0  0  0  0  0  0  0  0
    0.5836    2.1210    1.1284 C   0  0  0  0  0  0  0  0  0  0  0  0
    0.9050    1.1638    2.2254 C   0  0  0  0  0  0  0  0  0  0  0  0
    1.7920    1.9854    0.2486 C   0  0  0  0  0  0  0  0  0  0  0  0
   -4.6594    0.7271   -0.4266 C   0  0  0  0  0  0  0  0  0  0  0  0
    3.8255    0.5528    0.4855 C   0  0  0  0  0  0  0  0  0  0  0  0
   -4.7307    0.8993   -1.8091 C   0  0  0  0  0  0  0  0  0  0  0  0
   -3.5795    1.2484    0.2862 C   0  0  0  0  0  0  0  0  0  0  0  0
   -2.5762    1.9391   -0.3867 C   0  0  0  0  0  0  0  0  0  0  0  0
   -0.0045    0.9386    3.3835 C   0  0  0  0  0  0  0  0  0  0  0  0
    4.3966    1.0085   -0.7084 C   0  0  0  0  0  0  0  0  0  0  0  0
    4.5093   -0.3976    1.2530 C   0  0  0  0  0  0  0  0  0  0  0  0
   -3.7222    1.5922   -2.4787 C   0  0  0  0  0  0  0  0  0  0  0  0
   -2.6426    2.1134   -1.7659 C   0  0  0  0  0  0  0  0  0  0  0  0
    6.3089   -0.4260   -0.3587 C   0  0  0  0  0  0  0  0  0  0  0  0
    5.6337    0.5209   -1.1291 C   0  0  0  0  0  0  0  0  0  0  0  0
    5.7466   -0.8853    0.8323 C   0  0  0  0  0  0  0  0  0  0  0  0
   -5.8733    0.3543   -2.6024 C   0  0  0  0  0  0  0  0  0  0  0  0
   -4.3501   -2.3233    0.0425 C   0  0  0  0  0  0  0  0  0  0  0  0
   -3.7416   -2.4066    1.2892 C   0  0  0  0  0  0  0  0  0  0  0  0
   -3.6978   -2.7759   -1.0981 C   0  0  0  0  0  0  0  0  0  0  0  0
   -2.4616   -2.9505    1.3968 C   0  0  0  0  0  0  0  0  0  0  0  0
   -2.4179   -3.3199   -0.9903 C   0  0  0  0  0  0  0  0  0  0  0  0
   -1.7998   -3.4070    0.2571 C   0  0  0  0  0  0  0  0  0  0  0  0
  1  4  2  0
  1  5  2  0
  1 12  1  0
  1 17  1  0
  2  6  1  0
  2  7  2  0
  2  8  2  0
  2 27  1  0
  3 16  2  0
  9 10  1  0
  9 16  1  0
  9 18  1  0
 10 15  2  0
 11 13  2  0
 11 14  1  0
 12 31  1  0
 13 21  1  0
 14 15  1  0
 14 16  1  0
 15 22  1  0
 17 19  2  0
 17 20  1  0
 18 23  2  0
 18 24  1  0
 19 25  1  0
 19 30  1  0
 20 21  2  0
 21 26  1  0
 23 28  1  0
 24 29  2  0
 25 26  2  0
 27 28  2  0
 27 29  1  0
 31 32  2  0
 31 33  1  0
 32 34  1  0
 33 35  2  0
 34 36  2  0
 35 36  1  0
M  END
>  <PUBCHEM_COMPOUND_CID>  (1) 
22839

>  <PUBCHEM_CONFORMER_RMSD>  (1) 
1

>  <PUBCHEM_CONFORMER_DIVERSEORDER>  (1) 
1
50
122
73
119
51
42
134
130
118
27
154
138
81
71
131
60
103
84
74
92
85
153
41
148
12
62
140
116
143
99
151
127
95
91
106
88
110
102
167
78
44
39
19
37
121
72
35
24
129
125
166
25
46
93
76
133
100
70
160
80
87
147
45
161
132
49
57
54
164
150
56
104
64
47
111
157
18
15
63
139
89
77
117
94
75
13
109
32
96
16
21
146
152
31
105
52
5
33
82
126
142
114
8
48
29
113
123
128
79
17
165
136
69
144
9
120
28
2
124
53
83
156
22
163
155
11
58
55
36
158
34
162
149
10
30
135
86
97
14
4
98
65
115
38
7
20
159
112
43
61
137
59
26
67
23
90
108
40
141
3
101
107
6
66
145
68

>  <PUBCHEM_MMFF94_PARTIAL_CHARGES>  (1) 
50
1 1.45
10 -0.51
11 -0.25
12 -0.76
13 -0.18
14 0.37
15 0.33
16 0.57
17 -0.01
18 0.12
19 -0.14
2 1.49
20 -0.15
21 0.18
22 0.06
23 -0.15
24 -0.15
25 -0.15
26 -0.15
27 -0.01
28 -0.15
29 -0.15
3 -0.57
30 0.14
31 0.2
32 -0.15
33 -0.15
34 -0.15
35 -0.15
36 -0.15
38 0.15
4 -0.65
42 0.15
43 0.15
44 0.15
45 0.15
46 0.42
47 0.15
48 0.15
5 -0.65
52 0.15
53 0.15
54 0.15
55 0.15
56 0.15
57 0.5
6 -0.68
7 -0.65
8 -0.65
9 -0.11

>  <PUBCHEM_EFFECTIVE_ROTOR_COUNT>  (1) 
7.4

>  <PUBCHEM_PHARMACOPHORE_FEATURES>  (1) 
13
1 10 acceptor
1 12 donor
1 3 acceptor
1 4 acceptor
1 5 acceptor
1 6 acceptor
1 7 acceptor
1 8 acceptor
4 2 6 7 8 anion
5 9 10 14 15 16 rings
6 17 19 20 21 25 26 rings
6 18 23 24 27 28 29 rings
6 31 32 33 34 35 36 rings

>  <PUBCHEM_HEAVY_ATOM_COUNT>  (1) 
36

>  <PUBCHEM_ATOM_DEF_STEREO_COUNT>  (1) 
0

>  <PUBCHEM_ATOM_UDEF_STEREO_COUNT>  (1) 
1

>  <PUBCHEM_BOND_DEF_STEREO_COUNT>  (1) 
0

>  <PUBCHEM_BOND_UDEF_STEREO_COUNT>  (1) 
0

>  <PUBCHEM_ISOTOPIC_ATOM_COUNT>  (1) 
0

>  <PUBCHEM_COMPONENT_COUNT>  (1) 
1

>  <PUBCHEM_CACTVS_TAUTO_COUNT>  (1) 
3

>  <PUBCHEM_CONFORMER_ID>  (1) 
0000593700000001

>  <PUBCHEM_MMFF94_ENERGY>  (1) 
88.7511

>  <PUBCHEM_FEATURE_SELFOVERLAP>  (1) 
66.052

>  <PUBCHEM_SHAPE_FINGERPRINT>  (1) 
10369192 42 14129062491257107449
10391435 84 18341044203676086312
10674148 151 18202281373257976353
11135609 99 18413107261133947878
11434127 23 15430043123574851217
11477941 20 16950562186090625220
11524674 6 18131066044166479311
11621639 254 16588602984307513772
117089 54 17826525645388332715
11763389 116 18059861628160692382
12522641 33 17824242823938037165
12633046 712 17986389108554348329
13402501 40 18342457058463571119
13690498 29 17894627041601044741
14040222 275 16845300471224555960
14251757 5 18186797028271044459
14279260 333 17632021827579686370
14840074 17 17676479567554184393
14930077 153 17313678147373054508
15001296 14 17679292225123630897
15082195 135 18042697285467966364
15183329 4 18040150730195033794
15347590 135 12607398949254791405
15351334 14 15792001226231235170
15352257 5 18272092690873282702
15510800 12 17845946152087002422
15975801 100 17313372379871355166
16067689 68 14261079714702160110
17627616 140 18116984503670116363
17852330 162 18188779465854946644
18603816 31 17704067417358251679
19958102 18 18335974346184817587
208703 8 17604152656996050423
21133410 230 17676215706518768251
21792965 78 17987241028624723782
23559900 14 18268701887223885289
3383291 50 17988635307187451791
445580 160 18409169909161639822
44880168 125 18198340848349431779
4616759 239 12535331386544449974
5265222 85 18187646941810437479
58902169 19 17531251639250989838
70634741 139 18338240461884006220
999808 66 18059856147322654692

>  <PUBCHEM_SHAPE_MULTIPOLES>  (1) 
688.44
21.5
3.55
2.4
37.56
2.53
-0.53
8.99
10.2
-3.35
0.39
-0.71
-0.62
2.09

>  <PUBCHEM_SHAPE_SELFOVERLAP>  (1) 
1472.303

>  <PUBCHEM_SHAPE_VOLUME>  (1) 
382.5

>  <PUBCHEM_COORDINATE_TYPE>  (1) 
2
5
10

$$$$
