22845
     RDKit          3D

 16 16  0  0  1  0  0  0  0  0999 V2000
    2.3961   -0.2608   -0.3595 O   0  0  0  0  0  0  0  0  0  0  0  0
    1.0535    2.2118    1.1865 O   0  0  0  0  0  0  0  0  0  0  0  0
    1.7845   -0.4963    1.8673 O   0  0  0  0  0  0  0  0  0  0  0  0
   -1.5279    3.3406   -0.9146 N   0  0  0  0  0  0  0  0  0  0  0  0
   -0.2358    1.0708   -0.5531 C   0  0  0  0  0  0  0  0  0  0  0  0
   -1.1957   -0.0642   -0.2550 C   0  0  0  0  0  0  0  0  0  0  0  0
    0.8324    1.2107    0.5192 C   0  0  0  0  0  0  0  0  0  0  0  0
   -1.5339   -0.3319    1.0586 C   0  0  0  0  0  0  0  0  0  0  0  0
   -1.7092   -0.8039   -1.3042 C   0  0  0  0  0  0  0  0  0  0  0  0
   -2.4170   -1.3764    1.3327 C   0  0  0  0  0  0  0  0  0  0  0  0
   -2.5923   -1.8483   -1.0301 C   0  0  0  0  0  0  0  0  0  0  0  0
   -2.9461   -2.1345    0.2884 C   0  0  0  0  0  0  0  0  0  0  0  0
    1.7234    0.0242    0.7704 C   0  0  0  0  0  0  0  0  0  0  0  0
   -0.9596    2.3416   -0.7534 C   0  0  0  0  0  0  0  0  0  0  0  0
    3.3267   -1.3418   -0.2563 C   0  0  0  0  0  0  0  0  0  0  0  0
    4.0010   -1.5416   -1.5968 C   0  0  0  0  0  0  0  0  0  0  0  0
  1 13  1  0
  1 15  1  0
  2  7  2  0
  3 13  2  0
  4 14  3  0
  5  6  1  0
  5  7  1  0
  5 14  1  0
  6  8  2  0
  6  9  1  0
  7 13  1  0
  8 10  1  0
  9 11  2  0
 10 12  2  0
 11 12  1  0
 15 16  1  0
M  END
>  <PUBCHEM_COMPOUND_CID>  (1) 
22845

>  <PUBCHEM_CONFORMER_RMSD>  (1) 
0.6

>  <PUBCHEM_CONFORMER_DIVERSEORDER>  (1) 
1
224
21
182
302
6
284
255
164
144
257
95
205
176
45
47
289
128
76
293
53
291
297
57
25
261
49
152
264
145
249
210
207
102
286
52
7
226
219
28
231
79
271
234
112
304
285
312
3
35
69
20
189
109
277
58
250
208
50
10
65
260
19
92
18
296
23
237
305
266
30
107
169
41
300
39
105
259
274
258
62
166
113
306
183
198
262
123
175
64
70
211
280
88
191
22
104
125
121
2
60
16
116
292
303
174
248
83
143
269
117
42
29
310
281
108
15
311
118
165
59
63
106
9
184
200
267
215
263
220
240
86
94
141
158
134
122
308
78
162
33
91
228
170
93
24
246
172
309
299
56
307
135
195
283
194
287
85
243
44
282
256
73
67
8
17
167
221
13
140
188
233
111
54
120
245
38
5
202
229
235
201
241
288
186
251
26
168
217
126
290
124
138
48
114
160
177
179
230
223
178
87
148
133
66
46
279
137
173
14
90
36
155
147
278
180
136
97
212
32
101
89
301
77
72
103
197
68
110
154
149
199
11
295
254
40
242
225
275
276
37
27
218
239
119
196
132
146
187
98
139
127
51
81
213
206
84
115
34
150
131
31
214
130
265
12
247
43
272
55
298
153
151
244
181
74
190
204
71
171
253
163
203
4
157
96
236
82
193
61
129
99
252
80
161
294
268
273
156
159
209
222
142
185
270
75
232
238
100
192
227
216

>  <PUBCHEM_MMFF94_PARTIAL_CHARGES>  (1) 
20
1 -0.43
10 -0.15
11 -0.15
12 -0.15
13 0.72
14 0.36
15 0.28
18 0.15
19 0.15
2 -0.57
20 0.15
21 0.15
22 0.15
3 -0.57
4 -0.56
5 0.4
6 -0.14
7 0.51
8 -0.15
9 -0.15

>  <PUBCHEM_EFFECTIVE_ROTOR_COUNT>  (1) 
5

>  <PUBCHEM_PHARMACOPHORE_FEATURES>  (1) 
4
1 2 acceptor
1 3 acceptor
1 4 acceptor
6 6 8 9 10 11 12 rings

>  <PUBCHEM_HEAVY_ATOM_COUNT>  (1) 
16

>  <PUBCHEM_ATOM_DEF_STEREO_COUNT>  (1) 
0

>  <PUBCHEM_ATOM_UDEF_STEREO_COUNT>  (1) 
1

>  <PUBCHEM_BOND_DEF_STEREO_COUNT>  (1) 
0

>  <PUBCHEM_BOND_UDEF_STEREO_COUNT>  (1) 
0

>  <PUBCHEM_ISOTOPIC_ATOM_COUNT>  (1) 
0

>  <PUBCHEM_COMPONENT_COUNT>  (1) 
1

>  <PUBCHEM_CACTVS_TAUTO_COUNT>  (1) 
2

>  <PUBCHEM_CONFORMER_ID>  (1) 
0000593D00000001

>  <PUBCHEM_MMFF94_ENERGY>  (1) 
29.9367

>  <PUBCHEM_FEATURE_SELFOVERLAP>  (1) 
20.3

>  <PUBCHEM_SHAPE_FINGERPRINT>  (1) 
107951 10 17466251650510278190
12202030 40 17917702483774943802
12326174 3 17684641417595986305
12423570 1 13134803559411875456
12714826 92 18270131106194554718
12759256 9 17542772557698500389
14115302 16 17097184213116339786
14817 1 8273641930449935425
15276787 5 16056614122445524250
15502708 8 18263371295658367252
15906896 17 18043809780200894929
16752209 62 18045486544033769965
16945 1 18193811796460457021
19765921 60 8141537738924438511
19766037 51 17967819400284246347
20361792 2 18337670931233760895
20645476 183 17755866312048662764
20645477 70 18051957401939315607
20711985 344 18262228928767751317
21731516 1 18412263947661874586
22445834 79 17630333158118682707
23557571 272 18261098708340405156
2748010 2 18192128585823629053
53812653 217 18189613843648251865
576247 118 18261684764927566147
7364860 26 17686623854462164877
81228 2 18262499434583130445

>  <PUBCHEM_SHAPE_MULTIPOLES>  (1) 
306.68
5.2
2.94
1.55
4.06
2.36
0.19
-4.81
-1.17
-1.21
-0.85
0.19
-0.23
1.11

>  <PUBCHEM_SHAPE_SELFOVERLAP>  (1) 
634.273

>  <PUBCHEM_SHAPE_VOLUME>  (1) 
173

>  <PUBCHEM_COORDINATE_TYPE>  (1) 
2
5
10

$$$$
