22853
     RDKit          3D

 27 28  0  0  1  0  0  0  0  0999 V2000
    2.9415   -0.5282    0.7317 O   0  0  0  0  0  0  0  0  0  0  0  0
   -0.5938    0.8595   -1.3985 O   0  0  0  0  0  0  0  0  0  0  0  0
    5.0996   -0.5217    1.5390 O   0  0  0  0  0  0  0  0  0  0  0  0
   -2.5242    2.1365   -1.2901 O   0  0  0  0  0  0  0  0  0  0  0  0
    4.5800    2.0623    2.4810 N   0  0  0  0  0  0  0  0  0  0  0  0
   -0.1292    1.8983   -2.3057 N   0  0  0  0  0  0  0  0  0  0  0  0
    3.5659    1.8161   -1.2406 C   0  0  0  0  0  0  0  0  0  0  0  0
    4.2789    2.2953    0.0323 C   0  0  0  0  0  0  0  0  0  0  0  0
    2.0558    2.0648   -1.1514 C   0  0  0  0  0  0  0  0  0  0  0  0
    3.8524    1.5646    1.3143 C   0  0  0  0  0  0  0  0  0  0  0  0
    1.3054    1.6684   -2.4241 C   0  0  0  0  0  0  0  0  0  0  0  0
    4.0735    0.0645    1.2190 C   0  0  0  0  0  0  0  0  0  0  0  0
    2.9980   -1.9519    0.5985 C   0  0  0  0  0  0  0  0  0  0  0  0
    1.6890   -2.4453    0.0557 C   0  0  0  0  0  0  0  0  0  0  0  0
   -2.3184    0.0650   -0.0340 C   0  0  0  0  0  0  0  0  0  0  0  0
   -1.8613    1.1576   -0.9728 C   0  0  0  0  0  0  0  0  0  0  0  0
   -3.7244    0.2708    0.4678 C   0  0  0  0  0  0  0  0  0  0  0  0
    0.6596   -2.7962    0.9293 C   0  0  0  0  0  0  0  0  0  0  0  0
    1.5010   -2.5526   -1.3224 C   0  0  0  0  0  0  0  0  0  0  0  0
   -3.9478    0.9947    1.6391 C   0  0  0  0  0  0  0  0  0  0  0  0
   -4.8024   -0.2621   -0.2391 C   0  0  0  0  0  0  0  0  0  0  0  0
   -0.5575   -3.2547    0.4249 C   0  0  0  0  0  0  0  0  0  0  0  0
    0.2839   -3.0109   -1.8266 C   0  0  0  0  0  0  0  0  0  0  0  0
   -0.7453   -3.3619   -0.9529 C   0  0  0  0  0  0  0  0  0  0  0  0
   -5.2492    1.1855    2.1036 C   0  0  0  0  0  0  0  0  0  0  0  0
   -6.1038   -0.0712    0.2255 C   0  0  0  0  0  0  0  0  0  0  0  0
   -6.3271    0.6527    1.3968 C   0  0  0  0  0  0  0  0  0  0  0  0
  1 12  1  0
  1 13  1  0
  2  6  1  0
  2 16  1  0
  3 12  2  0
  4 16  2  0
  5 10  1  0
  6 11  1  0
  7  8  1  0
  7  9  1  0
  8 10  1  0
  9 11  1  0
 10 12  1  0
 13 14  1  0
 14 18  2  0
 14 19  1  0
 15 16  1  0
 15 17  1  0
 17 20  2  0
 17 21  1  0
 18 22  1  0
 19 23  2  0
 20 25  1  0
 21 26  2  0
 22 24  2  0
 23 24  1  0
 25 27  2  0
 26 27  1  0
M  END
>  <PUBCHEM_COMPOUND_CID>  (1) 
22853

>  <PUBCHEM_CONFORMER_RMSD>  (1) 
1.4

>  <PUBCHEM_CONFORMER_DIVERSEORDER>  (1) 
1
90
53
36
29
73
19
33
72
6
79
15
37
88
95
67
57
13
51
56
42
71
44
5
25
93
20
55
27
91
35
12
60
30
65
80
96
78
9
75
74
45
46
94
10
58
63
64
39
49
68
2
70
14
47
21
7
4
22
3
61
17
43
87
54
89
38
69
18
41
31
83
28
92
48
84
77
52
81
8
85
40
82
59
11
26
16
24
50
66
86
34
76
23
32
62

>  <PUBCHEM_MMFF94_PARTIAL_CHARGES>  (1) 
37
1 -0.43
10 0.33
11 0.27
12 0.66
13 0.42
14 -0.14
15 0.2
16 0.66
17 -0.14
18 -0.15
19 -0.15
2 -0.05
20 -0.15
21 -0.15
22 -0.15
23 -0.15
24 -0.15
25 -0.15
26 -0.15
27 -0.15
3 -0.57
37 0.36
38 0.36
39 0.36
4 -0.57
44 0.15
45 0.15
46 0.15
47 0.15
48 0.15
49 0.15
5 -0.99
50 0.15
51 0.15
52 0.15
53 0.15
6 -0.73

>  <PUBCHEM_EFFECTIVE_ROTOR_COUNT>  (1) 
13

>  <PUBCHEM_PHARMACOPHORE_FEATURES>  (1) 
6
1 3 acceptor
1 4 acceptor
1 5 cation
1 5 donor
6 14 18 19 22 23 24 rings
6 17 20 21 25 26 27 rings

>  <PUBCHEM_HEAVY_ATOM_COUNT>  (1) 
27

>  <PUBCHEM_ATOM_DEF_STEREO_COUNT>  (1) 
1

>  <PUBCHEM_ATOM_UDEF_STEREO_COUNT>  (1) 
0

>  <PUBCHEM_BOND_DEF_STEREO_COUNT>  (1) 
0

>  <PUBCHEM_BOND_UDEF_STEREO_COUNT>  (1) 
0

>  <PUBCHEM_ISOTOPIC_ATOM_COUNT>  (1) 
0

>  <PUBCHEM_COMPONENT_COUNT>  (1) 
1

>  <PUBCHEM_CACTVS_TAUTO_COUNT>  (1) 
1

>  <PUBCHEM_CONFORMER_ID>  (1) 
0000594500000001

>  <PUBCHEM_MMFF94_ENERGY>  (1) 
40.3507

>  <PUBCHEM_FEATURE_SELFOVERLAP>  (1) 
30.446

>  <PUBCHEM_SHAPE_FINGERPRINT>  (1) 
10076449 9 18266184921104923898
10816530 23 17913218843066605692
11578080 2 17913758686533636728
12035758 1 18268129995739124794
12422481 6 18259980479144562543
12633257 1 17603586369415281347
12717326 69 16808733003464496923
12788726 201 17257672525426201959
13111901 51 18340475734726665453
14464042 87 17979339078003096390
14840074 17 18187366570798727165
15324884 4 17827326940614788012
19301679 30 17822871814231497633
19438510 23 16987419005944570552
1979834 28 18334303054256315761
21315764 371 18059864995118567865
23559900 14 16340634357712233229
392239 28 18259976063834422931
513532 50 17703802392359251886
6287921 2 18270408165797341495
6438718 38 18125434465715217974
6438754 60 8935003655151551717
7064713 232 18340766039206686946

>  <PUBCHEM_SHAPE_MULTIPOLES>  (1) 
522.21
12.24
4.05
2.28
13.1
3.56
-0.23
-7.69
8.35
-3.08
-1.04
-1.05
-1.18
-0.48

>  <PUBCHEM_SHAPE_SELFOVERLAP>  (1) 
1072.17

>  <PUBCHEM_SHAPE_VOLUME>  (1) 
298.7

>  <PUBCHEM_COORDINATE_TYPE>  (1) 
2
5
10

$$$$
