22864
     RDKit          3D

 18 20  0  0  0  0  0  0  0  0999 V2000
    2.6994    2.5272    0.0013 S   0  0  0  0  0  0  0  0  0  0  0  0
   -0.0787    2.4654   -0.0018 O   0  0  0  0  0  0  0  0  0  0  0  0
   -0.9104   -2.8107   -0.0008 O   0  0  0  0  0  0  0  0  0  0  0  0
    4.6557    0.3023    0.0007 N   0  0  0  0  0  0  0  0  0  0  0  0
    0.9187    0.2939   -0.0004 C   0  0  0  0  0  0  0  0  0  0  0  0
    0.6809   -1.0822   -0.0004 C   0  0  0  0  0  0  0  0  0  0  0  0
   -1.5903    0.7272   -0.0004 C   0  0  0  0  0  0  0  0  0  0  0  0
   -1.8280   -0.6488    0.0001 C   0  0  0  0  0  0  0  0  0  0  0  0
   -0.2084    1.2488   -0.0011 C   0  0  0  0  0  0  0  0  0  0  0  0
   -0.7010   -1.6038   -0.0005 C   0  0  0  0  0  0  0  0  0  0  0  0
    2.2332    0.7754    0.0001 C   0  0  0  0  0  0  0  0  0  0  0  0
    1.7579   -1.9767   -0.0001 C   0  0  0  0  0  0  0  0  0  0  0  0
    3.3035   -0.1195    0.0004 C   0  0  0  0  0  0  0  0  0  0  0  0
   -2.6673    1.6219   -0.0003 C   0  0  0  0  0  0  0  0  0  0  0  0
   -3.1427   -1.1303    0.0008 C   0  0  0  0  0  0  0  0  0  0  0  0
    3.0664   -1.4926    0.0002 C   0  0  0  0  0  0  0  0  0  0  0  0
   -3.9758    1.1378    0.0007 C   0  0  0  0  0  0  0  0  0  0  0  0
   -4.2130   -0.2353    0.0013 C   0  0  0  0  0  0  0  0  0  0  0  0
  1 11  1  0
  2  9  2  0
  3 10  2  0
  4 13  1  0
  5  6  2  0
  5  9  1  0
  5 11  1  0
  6 10  1  0
  6 12  1  0
  7  8  2  0
  7  9  1  0
  7 14  1  0
  8 10  1  0
  8 15  1  0
 11 13  2  0
 12 16  2  0
 13 16  1  0
 14 17  2  0
 15 18  2  0
 17 18  1  0
M  END
>  <PUBCHEM_COMPOUND_CID>  (1) 
22864

>  <PUBCHEM_CONFORMER_RMSD>  (1) 
0.4

>  <PUBCHEM_CONFORMER_DIVERSEORDER>  (1) 
1

>  <PUBCHEM_MMFF94_PARTIAL_CHARGES>  (1) 
27
1 -0.28
10 0.4
11 0.1
12 -0.15
13 0.1
14 -0.15
15 -0.15
16 -0.15
17 -0.15
18 -0.15
19 0.15
2 -0.57
20 0.15
21 0.15
22 0.15
23 0.15
24 0.15
25 0.4
26 0.4
27 0.18
3 -0.57
4 -0.9
5 0.09
6 0.09
7 0.09
8 0.09
9 0.4

>  <PUBCHEM_EFFECTIVE_ROTOR_COUNT>  (1) 
0

>  <PUBCHEM_PHARMACOPHORE_FEATURES>  (1) 
7
1 2 acceptor
1 3 acceptor
1 4 cation
1 4 donor
6 5 6 11 12 13 16 rings
6 5 6 7 8 9 10 rings
6 7 8 14 15 17 18 rings

>  <PUBCHEM_HEAVY_ATOM_COUNT>  (1) 
18

>  <PUBCHEM_ATOM_DEF_STEREO_COUNT>  (1) 
0

>  <PUBCHEM_ATOM_UDEF_STEREO_COUNT>  (1) 
0

>  <PUBCHEM_BOND_DEF_STEREO_COUNT>  (1) 
0

>  <PUBCHEM_BOND_UDEF_STEREO_COUNT>  (1) 
0

>  <PUBCHEM_ISOTOPIC_ATOM_COUNT>  (1) 
0

>  <PUBCHEM_COMPONENT_COUNT>  (1) 
1

>  <PUBCHEM_CACTVS_TAUTO_COUNT>  (1) 
15

>  <PUBCHEM_CONFORMER_ID>  (1) 
0000595000000001

>  <PUBCHEM_MMFF94_ENERGY>  (1) 
72.6422

>  <PUBCHEM_FEATURE_SELFOVERLAP>  (1) 
35.562

>  <PUBCHEM_SHAPE_FINGERPRINT>  (1) 
10411042 1 16825589186728529319
10608611 8 18410008844870457261
10616163 171 18339926033814136166
10967382 1 18410573985278097152
11132069 177 18412538790987105513
11471102 20 18410570652283248846
11680986 33 18193559101811579673
12011746 2 18411421683221189958
13132413 78 18411982485395882349
13140716 1 18266170811450710208
13221675 6 18410573976640819742
13380535 76 18411700988933876414
13583140 156 16950828293594799793
138480 1 17906170651046244578
13897977 150 18410571769117319901
14790565 3 18338529589675501340
15196674 1 18410855421505273543
15230672 131 13289675073208978787
15309172 13 18411709776853422819
15442244 35 18267304222812274098
15536298 74 18343021056135577646
16945 1 18266459999872263911
18186145 218 18342462486943264285
193761 8 18050286173896713415
19591789 44 18410294739405529739
200 152 18131342008615635861
20510252 161 18272089340313547329
21267235 1 18410865368702479991
21501502 16 18267581488668293622
221490 88 18336554892540122922
2334 1 18410855460413017891
23402539 116 18343292669661707142
23463225 33 18409166580224238813
23559900 14 18343018866293061366
238 59 17757509072746879397
2748010 2 18410013204446690759
335352 9 18050568447774297303
34934 24 18410567375244443754
350125 39 18337959003185045705
474 4 17387137657644563228
5104073 3 18410010996543364123
537710 114 18410579474183199381
53812653 166 18341890788035940128
58051976 378 18412823555935437637
69090 78 18412822499526372447
7364860 26 18413389852079786924
8809292 202 18261395601906745787
9709674 26 18411986870536658766
9981440 41 17614279292464365328

>  <PUBCHEM_SHAPE_MULTIPOLES>  (1) 
357.56
7.07
2.68
0.61
0.55
0.11
0
1.01
0
-0.67
0
0
0.01
0

>  <PUBCHEM_SHAPE_SELFOVERLAP>  (1) 
798.229

>  <PUBCHEM_SHAPE_VOLUME>  (1) 
191.8

>  <PUBCHEM_COORDINATE_TYPE>  (1) 
2
5
10

$$$$
