22889
     RDKit          3D

 19 20  0  0  1  0  0  0  0  0999 V2000
   -0.7428   -2.3882   -2.0114 O   0  0  0  0  0  0  0  0  0  0  0  0
   -2.5805   -2.7213   -0.7276 O   0  0  0  0  0  0  0  0  0  0  0  0
   -2.1761    2.0393    0.3322 N   0  0  0  0  0  0  0  0  0  0  0  0
   -1.2315   -0.7288   -0.3237 C   0  0  0  0  0  0  0  0  0  0  0  0
   -2.3338   -0.3789    0.7137 C   0  0  0  0  0  0  0  0  0  0  0  0
    0.1488   -0.8035    0.2522 C   0  0  0  0  0  0  0  0  0  0  0  0
   -2.1547    0.9999    1.3562 C   0  0  0  0  0  0  0  0  0  0  0  0
    1.1818    0.0460   -0.1764 C   0  0  0  0  0  0  0  0  0  0  0  0
    2.4652   -0.0758    0.4074 C   0  0  0  0  0  0  0  0  0  0  0  0
    0.3780   -1.7594    1.2423 C   0  0  0  0  0  0  0  0  0  0  0  0
   -1.6066   -2.0399   -1.0230 C   0  0  0  0  0  0  0  0  0  0  0  0
    0.9690    1.0137   -1.1716 C   0  0  0  0  0  0  0  0  0  0  0  0
    2.6779   -1.0436    1.4026 C   0  0  0  0  0  0  0  0  0  0  0  0
    1.6401   -1.8792    1.8163 C   0  0  0  0  0  0  0  0  0  0  0  0
    3.4983    0.7736   -0.0212 C   0  0  0  0  0  0  0  0  0  0  0  0
   -1.9688    3.3576    0.9332 C   0  0  0  0  0  0  0  0  0  0  0  0
   -3.4402    2.0096   -0.4048 C   0  0  0  0  0  0  0  0  0  0  0  0
    2.0069    1.8494   -1.5852 C   0  0  0  0  0  0  0  0  0  0  0  0
    3.2691    1.7297   -1.0112 C   0  0  0  0  0  0  0  0  0  0  0  0
  1 11  1  0
  2 11  2  0
  3  7  1  0
  3 16  1  0
  3 17  1  0
  4  5  1  0
  4  6  1  0
  4 11  1  0
  5  7  1  0
  6  8  2  0
  6 10  1  0
  8  9  1  0
  8 12  1  0
  9 13  2  0
  9 15  1  0
 10 14  2  0
 12 18  2  0
 13 14  1  0
 15 19  2  0
 18 19  1  0
M  END
>  <PUBCHEM_COMPOUND_CID>  (1) 
22889

>  <PUBCHEM_CONFORMER_RMSD>  (1) 
0.6

>  <PUBCHEM_CONFORMER_DIVERSEORDER>  (1) 
3
6
36
30
5
19
32
34
37
29
24
22
4
26
28
33
17
27
16
18
8
38
14
39
20
31
1
35
23
9
7
13
25
10
15
12
11
2
21

>  <PUBCHEM_MMFF94_PARTIAL_CHARGES>  (1) 
24
1 -0.65
10 -0.15
11 0.66
12 -0.15
13 -0.15
14 -0.15
15 -0.15
16 0.27
17 0.27
18 -0.15
19 -0.15
2 -0.57
25 0.15
26 0.15
27 0.15
28 0.15
29 0.15
3 -0.81
36 0.15
37 0.15
38 0.5
4 0.2
6 -0.14
7 0.27

>  <PUBCHEM_EFFECTIVE_ROTOR_COUNT>  (1) 
5

>  <PUBCHEM_PHARMACOPHORE_FEATURES>  (1) 
6
1 1 acceptor
1 2 acceptor
1 3 cation
3 1 2 11 anion
6 6 8 9 10 13 14 rings
6 8 9 12 15 18 19 rings

>  <PUBCHEM_HEAVY_ATOM_COUNT>  (1) 
19

>  <PUBCHEM_ATOM_DEF_STEREO_COUNT>  (1) 
0

>  <PUBCHEM_ATOM_UDEF_STEREO_COUNT>  (1) 
1

>  <PUBCHEM_BOND_DEF_STEREO_COUNT>  (1) 
0

>  <PUBCHEM_BOND_UDEF_STEREO_COUNT>  (1) 
0

>  <PUBCHEM_ISOTOPIC_ATOM_COUNT>  (1) 
0

>  <PUBCHEM_COMPONENT_COUNT>  (1) 
1

>  <PUBCHEM_CACTVS_TAUTO_COUNT>  (1) 
1

>  <PUBCHEM_CONFORMER_ID>  (1) 
0000596900000003

>  <PUBCHEM_MMFF94_ENERGY>  (1) 
56.5423

>  <PUBCHEM_FEATURE_SELFOVERLAP>  (1) 
30.532

>  <PUBCHEM_SHAPE_FINGERPRINT>  (1) 
11578080 2 17762291011750916749
11582403 64 14686883119634408490
11640471 11 18408325462466819952
12788726 201 18339072804633680947
13009979 54 18264466503819175050
13538477 17 18412255147025549585
13544592 271 16467834031076636704
13583140 156 17531533053792358761
14004458 79 17557671893790261991
14251751 93 18337973228375141222
14251757 17 17625863441693675918
14617773 55 18336813295094762310
14787075 74 17610922453194057739
15209294 21 18409156724039653704
15279308 10 18407757040703620138
15534591 1 18263659496632964996
15852999 172 17702654433104783319
16752209 62 18129647703857139119
16945 1 18273210932515644394
17859628 37 17610063373434623829
18219364 16 16806441595008765166
20510252 161 17031928482008367112
20715895 44 17541368052444626949
21197605 99 17394999960506015173
21524375 3 18337409161556578129
21756936 100 17754487808283920364
22094290 62 18189621535998086520
22112679 90 18199186381032524795
228727 97 18121216742757280503
23419403 2 15097225424759947323
23557571 272 17702663422523964416
23598288 3 18340759433842995439
23598291 2 18335412431545562746
2748010 2 16676375588703390418
484985 159 13992511676612817464
5845 1 16621856737972936888
5939293 188 17612881391582308148
6992083 37 18119792634776029258
7164475 11 18341043111821190703
77492 1 18337386161996100010
7832392 63 18335700507891768952
81228 2 17845371227358797987
90525 40 18341335513336886679

>  <PUBCHEM_SHAPE_MULTIPOLES>  (1) 
374.29
5.22
3.36
1.68
0.24
0.48
-0.16
2.76
0.31
-1.85
-0.34
0.14
-0.57
-2.29

>  <PUBCHEM_SHAPE_SELFOVERLAP>  (1) 
793.082

>  <PUBCHEM_SHAPE_VOLUME>  (1) 
210.9

>  <PUBCHEM_COORDINATE_TYPE>  (1) 
2
5
10

$$$$
