22883
     RDKit          3D

 14 14  0  0  0  0  0  0  0  0999 V2000
    4.5023    1.1026   -0.4036 Cl  0  0  0  0  0  0  0  0  0  0  0  0
   -1.1681   -0.1623    0.4581 O   0  0  0  0  0  0  0  0  0  0  0  0
    0.6582   -3.0346    0.7081 O   0  0  0  0  0  0  0  0  0  0  0  0
   -4.3171    1.3674   -0.3218 O   0  0  0  0  0  0  0  0  0  0  0  0
   -3.6773   -0.8178   -0.3757 O   0  0  0  0  0  0  0  0  0  0  0  0
    1.0267   -0.8675   -0.1997 C   0  0  0  0  0  0  0  0  0  0  0  0
    0.1499    0.1176    0.2548 C   0  0  0  0  0  0  0  0  0  0  0  0
    2.3727   -0.5631   -0.4030 C   0  0  0  0  0  0  0  0  0  0  0  0
    0.5415   -2.2528   -0.4736 C   0  0  0  0  0  0  0  0  0  0  0  0
    0.6190    1.4069    0.5059 C   0  0  0  0  0  0  0  0  0  0  0  0
    2.8418    0.7262   -0.1521 C   0  0  0  0  0  0  0  0  0  0  0  0
    1.9650    1.7112    0.3023 C   0  0  0  0  0  0  0  0  0  0  0  0
   -2.0935    0.9068    0.2729 C   0  0  0  0  0  0  0  0  0  0  0  0
   -3.4211    0.3594   -0.1727 C   0  0  0  0  0  0  0  0  0  0  0  0
  1 11  1  0
  2  7  1  0
  2 13  1  0
  3  9  1  0
  4 14  1  0
  5 14  2  0
  6  7  2  0
  6  8  1  0
  6  9  1  0
  7 10  1  0
  8 11  2  0
 10 12  2  0
 11 12  1  0
 13 14  1  0
M  END
>  <PUBCHEM_COMPOUND_CID>  (1) 
22883

>  <PUBCHEM_CONFORMER_RMSD>  (1) 
0.6

>  <PUBCHEM_CONFORMER_DIVERSEORDER>  (1) 
2
38
47
31
34
40
44
28
13
35
9
12
24
43
25
6
46
45
15
4
42
8
19
32
18
48
20
10
37
5
27
41
1
33
30
23
16
11
39
21
29
3
14
26
22
36
7
17

>  <PUBCHEM_MMFF94_PARTIAL_CHARGES>  (1) 
19
1 -0.18
10 -0.15
11 0.18
12 -0.15
13 0.34
14 0.66
17 0.15
18 0.15
19 0.15
2 -0.36
22 0.4
23 0.5
3 -0.68
4 -0.65
5 -0.57
6 -0.14
7 0.08
8 -0.15
9 0.42

>  <PUBCHEM_EFFECTIVE_ROTOR_COUNT>  (1) 
4

>  <PUBCHEM_PHARMACOPHORE_FEATURES>  (1) 
7
1 2 acceptor
1 3 acceptor
1 3 donor
1 4 acceptor
1 5 acceptor
3 4 5 14 anion
6 6 7 8 10 11 12 rings

>  <PUBCHEM_HEAVY_ATOM_COUNT>  (1) 
14

>  <PUBCHEM_ATOM_DEF_STEREO_COUNT>  (1) 
0

>  <PUBCHEM_ATOM_UDEF_STEREO_COUNT>  (1) 
0

>  <PUBCHEM_BOND_DEF_STEREO_COUNT>  (1) 
0

>  <PUBCHEM_BOND_UDEF_STEREO_COUNT>  (1) 
0

>  <PUBCHEM_ISOTOPIC_ATOM_COUNT>  (1) 
0

>  <PUBCHEM_COMPONENT_COUNT>  (1) 
1

>  <PUBCHEM_CACTVS_TAUTO_COUNT>  (1) 
1

>  <PUBCHEM_CONFORMER_ID>  (1) 
0000596300000002

>  <PUBCHEM_MMFF94_ENERGY>  (1) 
33.7844

>  <PUBCHEM_FEATURE_SELFOVERLAP>  (1) 
35.584

>  <PUBCHEM_SHAPE_FINGERPRINT>  (1) 
11401426 45 18201717371106080008
11471102 20 18340484474130887997
12119455 92 18040709286248932228
12251169 10 8070021169116392025
12730499 353 18335426734181881761
13380535 76 18342181111209808862
14251717 144 18341330002735473390
14325111 11 18412825819536150697
14415576 193 18335704918565148093
14911166 2 18271535281654650004
14993402 34 18411706517068411380
15442244 35 17765436448498790065
15757776 16 18342735182874888189
15775835 57 18413108372401797485
16945 1 18339372859253344128
18186145 218 18059582420176957929
19021347 11 18411699859315071650
193761 8 17763189033989047704
20602899 9 15841005463328010678
20645476 183 17969515977275595886
20645477 70 18199466580678073647
21499 59 18409730676960328108
21501502 16 18124034529245730425
21524375 3 18412263969241926886
23402539 116 18343577469433864676
23402655 69 18343581807298222413
23559900 14 18129110077859277724
25 1 18411418405807753909
257057 1 17398666801228518794
2748010 2 17697046099670603512
2871803 45 18198328749558129407
3060560 45 18412260636078267196
3071541 37 18335707096324238742
366044 4 18410012169533606728
3759504 43 17968666041950110074
4072396 5 18265317452893741512
4990 188 17846226565758456172
58051976 378 18341892995828614853
7364860 26 18268709407183729295
81228 2 17473812300542313819
81539 233 18333730187038694326

>  <PUBCHEM_SHAPE_MULTIPOLES>  (1) 
266.51
6.86
2.31
0.73
3.43
1.87
0.02
-3.5
-1.55
-0.48
0.3
-0.08
0.07
0.03

>  <PUBCHEM_SHAPE_SELFOVERLAP>  (1) 
541.746

>  <PUBCHEM_SHAPE_VOLUME>  (1) 
155.8

>  <PUBCHEM_COORDINATE_TYPE>  (1) 
2
5
10

$$$$
