22898
     RDKit          3D

 30 31  0  0  0  0  0  0  0  0999 V2000
    0.7515    0.9749   -2.6605 O   0  0  0  0  0  0  0  0  0  0  0  0
   -0.2039    2.8348   -1.7933 O   0  0  0  0  0  0  0  0  0  0  0  0
    5.2207    0.4261   -0.2512 N   0  0  0  0  0  0  0  0  0  0  0  0
   -1.4265   -3.2430    0.0110 N   0  0  0  0  0  0  0  0  0  0  0  0
    0.1290    0.9001   -0.3186 C   0  0  0  0  0  0  0  0  0  0  0  0
    1.4935    1.1924    0.3933 C   0  0  0  0  0  0  0  0  0  0  0  0
   -0.0603   -0.6366   -0.5520 C   0  0  0  0  0  0  0  0  0  0  0  0
   -1.0938    1.4449    0.4610 C   0  0  0  0  0  0  0  0  0  0  0  0
    2.7447    0.6380   -0.3128 C   0  0  0  0  0  0  0  0  0  0  0  0
    0.2301   -1.5219    0.6731 C   0  0  0  0  0  0  0  0  0  0  0  0
    0.1879    1.6819   -1.6514 C   0  0  0  0  0  0  0  0  0  0  0  0
    4.0410    0.9036    0.4600 C   0  0  0  0  0  0  0  0  0  0  0  0
   -0.0452   -3.0060    0.4122 C   0  0  0  0  0  0  0  0  0  0  0  0
   -2.3981    1.3720   -0.0545 C   0  0  0  0  0  0  0  0  0  0  0  0
   -0.8527    2.0186    1.7097 C   0  0  0  0  0  0  0  0  0  0  0  0
   -3.4731    1.8882    0.7077 C   0  0  0  0  0  0  0  0  0  0  0  0
   -1.9099    2.5259    2.4593 C   0  0  0  0  0  0  0  0  0  0  0  0
   -2.6594    0.7981   -1.3094 C   0  0  0  0  0  0  0  0  0  0  0  0
    6.4194    1.1313    0.2060 C   0  0  0  0  0  0  0  0  0  0  0  0
    5.3818   -1.0179   -0.0711 C   0  0  0  0  0  0  0  0  0  0  0  0
   -1.5409   -4.5031   -0.7255 C   0  0  0  0  0  0  0  0  0  0  0  0
   -2.3078   -3.2568    1.1801 C   0  0  0  0  0  0  0  0  0  0  0  0
   -3.2122    2.4617    1.9628 C   0  0  0  0  0  0  0  0  0  0  0  0
   -4.7776    1.8153    0.1925 C   0  0  0  0  0  0  0  0  0  0  0  0
   -3.9616    0.7344   -1.8059 C   0  0  0  0  0  0  0  0  0  0  0  0
   -5.0188    1.2420   -1.0564 C   0  0  0  0  0  0  0  0  0  0  0  0
    6.6859    0.8640    1.6777 C   0  0  0  0  0  0  0  0  0  0  0  0
    6.5698   -1.5405   -0.8610 C   0  0  0  0  0  0  0  0  0  0  0  0
   -1.1536   -5.6855    0.1464 C   0  0  0  0  0  0  0  0  0  0  0  0
   -3.7598   -3.4368    0.7709 C   0  0  0  0  0  0  0  0  0  0  0  0
  1 11  1  0
  2 11  2  0
  3 12  1  0
  3 19  1  0
  3 20  1  0
  4 13  1  0
  4 21  1  0
  4 22  1  0
  5  6  1  0
  5  7  1  0
  5  8  1  0
  5 11  1  0
  6  9  1  0
  7 10  1  0
  8 14  2  0
  8 15  1  0
  9 12  1  0
 10 13  1  0
 14 16  1  0
 14 18  1  0
 15 17  2  0
 16 23  2  0
 16 24  1  0
 17 23  1  0
 18 25  2  0
 19 27  1  0
 20 28  1  0
 21 29  1  0
 22 30  1  0
 24 26  2  0
 25 26  1  0
M  END
>  <PUBCHEM_COMPOUND_CID>  (1) 
22898

>  <PUBCHEM_CONFORMER_RMSD>  (1) 
1.2

>  <PUBCHEM_CONFORMER_DIVERSEORDER>  (1) 
1
9
3
7
4
12
2
25
15
24
16
32
28
22
10
17
6
29
21
30
11
31
18
13
27
8
26
20
23
14
19
5

>  <PUBCHEM_MMFF94_PARTIAL_CHARGES>  (1) 
28
1 -0.65
11 0.66
12 0.27
13 0.27
15 -0.15
17 -0.15
18 -0.15
19 0.27
2 -0.57
20 0.27
21 0.27
22 0.27
23 -0.15
24 -0.15
25 -0.15
26 -0.15
3 -0.81
4 -0.81
43 0.15
44 0.15
45 0.15
5 0.2
54 0.15
55 0.5
56 0.15
57 0.15
58 0.15
8 -0.14

>  <PUBCHEM_EFFECTIVE_ROTOR_COUNT>  (1) 
14

>  <PUBCHEM_PHARMACOPHORE_FEATURES>  (1) 
8
1 1 acceptor
1 2 acceptor
1 3 cation
1 4 cation
3 1 2 11 anion
5 5 6 7 9 10 hydrophobe
6 14 16 18 24 25 26 rings
6 8 14 15 16 17 23 rings

>  <PUBCHEM_HEAVY_ATOM_COUNT>  (1) 
30

>  <PUBCHEM_ATOM_DEF_STEREO_COUNT>  (1) 
0

>  <PUBCHEM_ATOM_UDEF_STEREO_COUNT>  (1) 
0

>  <PUBCHEM_BOND_DEF_STEREO_COUNT>  (1) 
0

>  <PUBCHEM_BOND_UDEF_STEREO_COUNT>  (1) 
0

>  <PUBCHEM_ISOTOPIC_ATOM_COUNT>  (1) 
0

>  <PUBCHEM_COMPONENT_COUNT>  (1) 
1

>  <PUBCHEM_CACTVS_TAUTO_COUNT>  (1) 
1

>  <PUBCHEM_CONFORMER_ID>  (1) 
0000597200000001

>  <PUBCHEM_MMFF94_ENERGY>  (1) 
84.5607

>  <PUBCHEM_FEATURE_SELFOVERLAP>  (1) 
40.681

>  <PUBCHEM_SHAPE_FINGERPRINT>  (1) 
10032420 55 17915440732443497937
11135609 149 16903250467067557743
12058002 1 17986418670276345636
12236239 1 18060134293694975040
12643181 29 18337676318162331078
12712778 12 18339358694351221847
12788726 201 17977408322963128102
14840074 17 17968665904231464924
19958102 18 18338511937944847494
21033648 29 18264192644226070632
21033650 10 17273162136528841432
21796203 349 16899371961248813379
23419403 2 17057521728126254667
23559900 14 18270954748121177080
244849 19 17344659013768768054
3383291 50 18341609338893057963
4073 2 18343017818684856362
4258327 124 18041571355184830668
4409770 3 18338513166173969395
469060 322 16950557818198490038
5080951 261 18119214438479854858
563151 97 18195808458111438761
59554788 281 18270695185545085453
59755656 520 18411136905056003772
9981440 41 17561089081060164724

>  <PUBCHEM_SHAPE_MULTIPOLES>  (1) 
595.69
12.16
5.55
1.89
25.83
11.09
0.13
-3.62
-0.67
-6.17
-1.33
-0.99
-1.48
0.54

>  <PUBCHEM_SHAPE_SELFOVERLAP>  (1) 
1218.639

>  <PUBCHEM_SHAPE_VOLUME>  (1) 
346

>  <PUBCHEM_COORDINATE_TYPE>  (1) 
2
5
10

$$$$
