2289
     RDKit          3D

 35 40  0  0  1  0  0  0  0  0999 V2000
   -1.7692    1.8661   -1.2631 O   0  0  0  0  0  0  0  0  0  0  0  0
    0.5197    0.2624    3.0253 O   0  0  0  0  0  0  0  0  0  0  0  0
    2.5867   -3.3781    0.8727 O   0  0  0  0  0  0  0  0  0  0  0  0
    1.6895    4.9863   -0.1186 O   0  0  0  0  0  0  0  0  0  0  0  0
   -1.6224   -4.5967   -0.8814 O   0  0  0  0  0  0  0  0  0  0  0  0
   -7.5350    0.0694    0.2718 O   0  0  0  0  0  0  0  0  0  0  0  0
    6.3783    0.3412   -2.0791 O   0  0  0  0  0  0  0  0  0  0  0  0
   -1.0450    0.1021    0.3333 C   0  0  0  0  0  0  0  0  0  0  0  0
   -0.1648    1.3044    0.2971 C   0  0  0  0  0  0  0  0  0  0  0  0
   -2.0005    0.4912   -0.8571 C   0  0  0  0  0  0  0  0  0  0  0  0
    1.9528   -0.7213    1.3008 C   0  0  0  0  0  0  0  0  0  0  0  0
   -0.3997   -1.2784    0.2234 C   0  0  0  0  0  0  0  0  0  0  0  0
    1.4884    0.5631    2.0218 C   0  0  0  0  0  0  0  0  0  0  0  0
    0.9411    1.5887    1.0794 C   0  0  0  0  0  0  0  0  0  0  0  0
    0.9018   -1.6321    0.6539 C   0  0  0  0  0  0  0  0  0  0  0  0
   -0.6448    2.2493   -0.5935 C   0  0  0  0  0  0  0  0  0  0  0  0
   -3.4824    0.3781   -0.5553 C   0  0  0  0  0  0  0  0  0  0  0  0
    3.1489   -0.4340    0.3878 C   0  0  0  0  0  0  0  0  0  0  0  0
    1.5624    2.8397    0.9262 C   0  0  0  0  0  0  0  0  0  0  0  0
   -1.2255   -2.3259   -0.2589 C   0  0  0  0  0  0  0  0  0  0  0  0
    1.3285   -2.9810    0.4994 C   0  0  0  0  0  0  0  0  0  0  0  0
   -0.0497    3.4868   -0.7597 C   0  0  0  0  0  0  0  0  0  0  0  0
    1.0706    3.7806    0.0117 C   0  0  0  0  0  0  0  0  0  0  0  0
   -0.7842   -3.6426   -0.3939 C   0  0  0  0  0  0  0  0  0  0  0  0
    0.5041   -3.9704   -0.0238 C   0  0  0  0  0  0  0  0  0  0  0  0
   -4.2996   -0.4037   -1.3688 C   0  0  0  0  0  0  0  0  0  0  0  0
   -4.0217    1.0564    0.5357 C   0  0  0  0  0  0  0  0  0  0  0  0
    4.4234   -0.3597    0.9326 C   0  0  0  0  0  0  0  0  0  0  0  0
    2.9417   -0.2527   -0.9727 C   0  0  0  0  0  0  0  0  0  0  0  0
   -5.6624   -0.5076   -1.0904 C   0  0  0  0  0  0  0  0  0  0  0  0
   -5.3845    0.9525    0.8143 C   0  0  0  0  0  0  0  0  0  0  0  0
    5.5122   -0.0984    0.1007 C   0  0  0  0  0  0  0  0  0  0  0  0
    4.0305    0.0083   -1.8046 C   0  0  0  0  0  0  0  0  0  0  0  0
   -6.2050    0.1705    0.0011 C   0  0  0  0  0  0  0  0  0  0  0  0
    5.3157    0.0856   -1.2679 C   0  0  0  0  0  0  0  0  0  0  0  0
  1 10  1  0
  1 16  1  0
  2 13  1  0
  3 21  1  0
  4 23  1  0
  5 24  1  0
  6 34  1  0
  7 35  1  0
  8  9  1  0
  8 10  1  0
  8 12  1  0
  9 14  2  0
  9 16  1  0
 10 17  1  0
 11 13  1  0
 11 15  1  0
 11 18  1  0
 12 15  2  0
 12 20  1  0
 13 14  1  0
 14 19  1  0
 15 21  1  0
 16 22  2  0
 17 26  2  0
 17 27  1  0
 18 28  2  0
 18 29  1  0
 19 23  2  0
 20 24  2  0
 21 25  2  0
 22 23  1  0
 24 25  1  0
 26 30  1  0
 27 31  2  0
 28 32  1  0
 29 33  2  0
 30 34  2  0
 31 34  1  0
 32 35  2  0
 33 35  1  0
M  END
>  <PUBCHEM_COMPOUND_CID>  (1) 
2289

>  <PUBCHEM_CONFORMER_RMSD>  (1) 
0.8

>  <PUBCHEM_CONFORMER_DIVERSEORDER>  (1) 
5
16
12
19
3
6
13
2
8
21
10
9
15
17
1
11
22
18
14
4
20
7

>  <PUBCHEM_MMFF94_PARTIAL_CHARGES>  (1) 
53
1 -0.36
10 0.42
11 0.29
12 -0.14
13 0.42
14 -0.14
15 -0.14
16 0.08
17 -0.14
18 -0.14
19 -0.15
2 -0.68
20 -0.15
21 0.08
22 -0.15
23 0.08
24 0.08
25 -0.15
26 -0.15
27 -0.15
28 -0.15
29 -0.15
3 -0.53
30 -0.15
31 -0.15
32 -0.15
33 -0.15
34 0.08
35 0.08
4 -0.53
40 0.15
41 0.15
42 0.15
43 0.4
44 0.15
45 0.15
46 0.15
47 0.15
48 0.15
49 0.45
5 -0.53
50 0.15
51 0.15
52 0.15
53 0.15
54 0.45
55 0.45
56 0.45
57 0.45
6 -0.53
7 -0.53
8 0.29
9 -0.14

>  <PUBCHEM_EFFECTIVE_ROTOR_COUNT>  (1) 
2.8

>  <PUBCHEM_PHARMACOPHORE_FEATURES>  (1) 
14
1 1 acceptor
1 2 acceptor
1 2 donor
1 3 donor
1 4 donor
1 5 donor
1 6 donor
1 7 donor
5 1 8 9 10 16 rings
6 12 15 20 21 24 25 rings
6 17 26 27 30 31 34 rings
6 18 28 29 32 33 35 rings
6 9 14 16 19 22 23 rings
7 8 9 11 12 13 14 15 rings

>  <PUBCHEM_HEAVY_ATOM_COUNT>  (1) 
35

>  <PUBCHEM_ATOM_DEF_STEREO_COUNT>  (1) 
0

>  <PUBCHEM_ATOM_UDEF_STEREO_COUNT>  (1) 
4

>  <PUBCHEM_BOND_DEF_STEREO_COUNT>  (1) 
0

>  <PUBCHEM_BOND_UDEF_STEREO_COUNT>  (1) 
0

>  <PUBCHEM_ISOTOPIC_ATOM_COUNT>  (1) 
0

>  <PUBCHEM_COMPONENT_COUNT>  (1) 
1

>  <PUBCHEM_CACTVS_TAUTO_COUNT>  (1) 
204

>  <PUBCHEM_CONFORMER_ID>  (1) 
000008F100000005

>  <PUBCHEM_MMFF94_ENERGY>  (1) 
121.0339

>  <PUBCHEM_FEATURE_SELFOVERLAP>  (1) 
71.198

>  <PUBCHEM_SHAPE_FINGERPRINT>  (1) 
10165383 225 18410857650635602114
10190108 129 18197798634439834233
10674148 151 17418099776307452206
10930396 42 18269249375927609288
1100329 8 18339076111272643485
11421498 54 18188771630589594400
11513181 2 17623564663348956494
11578080 2 17914610811838996416
12035758 1 18339065077586290648
12058002 1 17415034380290227140
12553582 1 18337372873525431309
12788726 201 18335147449601984540
13140716 1 18264483069528452203
13149001 5 18268148832842809008
13911987 19 18261694626736986996
14114211 80 18342469135685033479
14790565 3 18410862040066402592
14840074 17 18113059333099753119
14955137 171 18408610257695583673
15439362 3 18194684993045150564
15475509 8 18130238076749295461
15664445 248 18341902861563919516
15927050 60 17978231887084291725
1601671 61 18409445869426703283
17492 54 18187370930306596292
17492 89 17903068937444941282
1813 80 18343017770264647861
18681886 176 18411694426793456817
19319366 153 17748816415469812826
20028762 73 18201712999088063551
20691752 17 18195215958407662598
20739085 24 18268425746643372955
20764821 26 18192701461277608078
20775438 99 17912057741365024374
21344244 181 17917161511175153374
21521721 280 18336836371928053328
22899556 105 18053118224384141166
23559900 14 18059287790174316345
244849 19 16987145252796954754
24771293 8 18200859781953798560
3178227 256 18337401508436053345
3737641 26 18198342845202749687
469060 322 18267311936764176504
6669772 16 18115863182646686832
70251023 43 17840319821437514535

>  <PUBCHEM_SHAPE_MULTIPOLES>  (1) 
679.2
11.55
4.81
1.62
10.33
0.67
0.34
-0.48
-3.63
-1.33
-0.36
-1.27
-0.21
-0.68

>  <PUBCHEM_SHAPE_SELFOVERLAP>  (1) 
1542.892

>  <PUBCHEM_SHAPE_VOLUME>  (1) 
350.9

>  <PUBCHEM_COORDINATE_TYPE>  (1) 
2
5
10

$$$$
