22896
     RDKit          3D

 24 25  0  0  0  0  0  0  0  0999 V2000
    1.2001   -0.5922    2.6806 O   0  0  0  0  0  0  0  0  0  0  0  0
    0.0327   -2.3090    1.7866 O   0  0  0  0  0  0  0  0  0  0  0  0
    4.4440   -1.0096   -0.3287 N   0  0  0  0  0  0  0  0  0  0  0  0
    0.5909    3.4249   -0.1493 N   0  0  0  0  0  0  0  0  0  0  0  0
    0.6539   -0.4399    0.3128 C   0  0  0  0  0  0  0  0  0  0  0  0
    1.9952   -0.8477   -0.3865 C   0  0  0  0  0  0  0  0  0  0  0  0
    0.6459    1.0919    0.6476 C   0  0  0  0  0  0  0  0  0  0  0  0
   -0.6086   -0.7668   -0.5195 C   0  0  0  0  0  0  0  0  0  0  0  0
    3.2693   -0.5890    0.4310 C   0  0  0  0  0  0  0  0  0  0  0  0
    0.5842    2.0253   -0.5691 C   0  0  0  0  0  0  0  0  0  0  0  0
    0.5864   -1.2248    1.6452 C   0  0  0  0  0  0  0  0  0  0  0  0
   -1.8627   -0.4849   -0.0202 C   0  0  0  0  0  0  0  0  0  0  0  0
   -0.3755   -1.3382   -1.7463 C   0  0  0  0  0  0  0  0  0  0  0  0
   -2.9771   -0.8080   -0.8305 C   0  0  0  0  0  0  0  0  0  0  0  0
   -1.4714   -1.6555   -2.5432 C   0  0  0  0  0  0  0  0  0  0  0  0
   -2.0754    0.1001    1.2388 C   0  0  0  0  0  0  0  0  0  0  0  0
   -2.7644   -1.3927   -2.0896 C   0  0  0  0  0  0  0  0  0  0  0  0
    4.5216   -0.2837   -1.5965 C   0  0  0  0  0  0  0  0  0  0  0  0
    5.6624   -0.8006    0.4539 C   0  0  0  0  0  0  0  0  0  0  0  0
    0.6394    4.3090   -1.3138 C   0  0  0  0  0  0  0  0  0  0  0  0
   -0.5865    3.7206    0.6670 C   0  0  0  0  0  0  0  0  0  0  0  0
   -4.2714   -0.5365   -0.3580 C   0  0  0  0  0  0  0  0  0  0  0  0
   -3.3684    0.3625    1.6923 C   0  0  0  0  0  0  0  0  0  0  0  0
   -4.4644    0.0448    0.8955 C   0  0  0  0  0  0  0  0  0  0  0  0
  1 11  1  0
  2 11  2  0
  3  9  1  0
  3 18  1  0
  3 19  1  0
  4 10  1  0
  4 20  1  0
  4 21  1  0
  5  6  1  0
  5  7  1  0
  5  8  1  0
  5 11  1  0
  6  9  1  0
  7 10  1  0
  8 12  2  0
  8 13  1  0
 12 14  1  0
 12 16  1  0
 13 15  2  0
 14 17  2  0
 14 22  1  0
 15 17  1  0
 16 23  2  0
 22 24  2  0
 23 24  1  0
M  END
>  <PUBCHEM_COMPOUND_CID>  (1) 
22896

>  <PUBCHEM_CONFORMER_RMSD>  (1) 
0.8

>  <PUBCHEM_CONFORMER_DIVERSEORDER>  (1) 
8
11
49
50
38
26
28
33
39
43
21
36
46
35
40
19
24
44
13
18
37
42
27
22
48
3
16
25
30
12
32
47
10
7
41
5
34
15
45
31
6
14
29
4
1
23
9
20
2
17

>  <PUBCHEM_MMFF94_PARTIAL_CHARGES>  (1) 
28
1 -0.65
10 0.27
11 0.66
13 -0.15
15 -0.15
16 -0.15
17 -0.15
18 0.27
19 0.27
2 -0.57
20 0.27
21 0.27
22 -0.15
23 -0.15
24 -0.15
3 -0.81
33 0.15
34 0.15
35 0.15
36 0.15
4 -0.81
49 0.15
5 0.2
50 0.5
51 0.15
52 0.15
8 -0.14
9 0.27

>  <PUBCHEM_EFFECTIVE_ROTOR_COUNT>  (1) 
8

>  <PUBCHEM_PHARMACOPHORE_FEATURES>  (1) 
7
1 1 acceptor
1 2 acceptor
1 3 cation
1 4 cation
3 1 2 11 anion
6 12 14 16 22 23 24 rings
6 8 12 13 14 15 17 rings

>  <PUBCHEM_HEAVY_ATOM_COUNT>  (1) 
24

>  <PUBCHEM_ATOM_DEF_STEREO_COUNT>  (1) 
0

>  <PUBCHEM_ATOM_UDEF_STEREO_COUNT>  (1) 
0

>  <PUBCHEM_BOND_DEF_STEREO_COUNT>  (1) 
0

>  <PUBCHEM_BOND_UDEF_STEREO_COUNT>  (1) 
0

>  <PUBCHEM_ISOTOPIC_ATOM_COUNT>  (1) 
0

>  <PUBCHEM_COMPONENT_COUNT>  (1) 
1

>  <PUBCHEM_CACTVS_TAUTO_COUNT>  (1) 
1

>  <PUBCHEM_CONFORMER_ID>  (1) 
0000597000000008

>  <PUBCHEM_MMFF94_ENERGY>  (1) 
95.7012

>  <PUBCHEM_FEATURE_SELFOVERLAP>  (1) 
35.608

>  <PUBCHEM_SHAPE_FINGERPRINT>  (1) 
10165383 225 17095531720459996535
10366900 7 17385992993252184575
11578080 2 17555413337818817368
11582403 64 15014929943217529655
12166972 35 17916002712292693349
12293681 4 18335437758735254907
12403814 3 18200873972388152262
12422481 6 17767715795905612593
12788726 201 18262535697408586460
13009979 54 17774161339458030975
13149001 5 17970065758637916962
133893 2 17756679173000665101
13583140 156 18187363221689593443
13911987 19 17895492387701724126
13965767 371 17411089169725026689
14787075 74 17968392215814190562
14910302 57 17489038042039006206
14955137 171 18271823340420242123
15238133 3 18043269971832211165
15849732 13 18131354098732276709
16945 1 18268452212047338163
17804303 29 16845568746822520431
17980427 23 17203324558992330525
1813 80 18413395332415696644
20691752 17 18268968995518835282
21041028 32 18335990808768446717
21330990 113 17560249007185006846
23175994 123 18113905952515443188
23402539 116 18409448055707585666
23419403 2 17534647063431285344
23598288 3 17905029371082509274
2818148 4 17412187942840466895
3286 77 17969519271368091755
34934 24 18191871119830316625
350125 39 16917348152161446927
474 4 18121207950932923408
513202 73 18050859822988826278
57527306 92 18411702045917876985
5845 1 17982975008468898369
6992083 37 18059858380621024997
7164475 11 18190741921715417326
9925002 15 17773874371081122325

>  <PUBCHEM_SHAPE_MULTIPOLES>  (1) 
472.21
7.67
3.36
2.19
6.27
6.13
0.02
-3.59
0.13
0.52
-1.37
-0.58
-0.88
-1.31

>  <PUBCHEM_SHAPE_SELFOVERLAP>  (1) 
989.142

>  <PUBCHEM_SHAPE_VOLUME>  (1) 
268.9

>  <PUBCHEM_COORDINATE_TYPE>  (1) 
2
5
10

$$$$
