22906
     RDKit          3D

 46 51  0  0  0  0  0  0  0  0999 V2000
    8.4694    1.9797   -0.3788 S   0  0  0  0  0  0  0  0  0  0  0  0
   -6.9175    2.6359    0.0629 S   0  0  0  0  0  0  0  0  0  0  0  0
    5.2475   -2.9644   -0.0453 O   0  0  0  0  0  0  0  0  0  0  0  0
    9.3172    1.8645   -1.7686 O   0  0  0  0  0  0  0  0  0  0  0  0
    9.4064    1.9936    0.7296 O   0  0  0  0  0  0  0  0  0  0  0  0
    7.4975    3.0443   -0.5536 O   0  0  0  0  0  0  0  0  0  0  0  0
   -7.7653    2.9506    1.4234 O   0  0  0  0  0  0  0  0  0  0  0  0
   -5.9106    3.6775   -0.0639 O   0  0  0  0  0  0  0  0  0  0  0  0
   -7.8612    2.3765   -1.0110 O   0  0  0  0  0  0  0  0  0  0  0  0
    4.0421   -0.5247   -0.5481 N   0  0  0  0  0  0  0  0  0  0  0  0
    3.4826   -0.3275    0.5543 N   0  0  0  0  0  0  0  0  0  0  0  0
   -8.1874   -0.1244    0.3115 N   0  0  0  0  0  0  0  0  0  0  0  0
   -2.0653   -0.1836   -0.1387 N   0  0  0  0  0  0  0  0  0  0  0  0
   -2.6265   -0.0205    0.9684 N   0  0  0  0  0  0  0  0  0  0  0  0
    8.2097   -0.7649   -0.0101 C   0  0  0  0  0  0  0  0  0  0  0  0
    7.4232   -1.9390    0.0663 C   0  0  0  0  0  0  0  0  0  0  0  0
    7.5835    0.4661   -0.2652 C   0  0  0  0  0  0  0  0  0  0  0  0
    6.0334   -1.8473   -0.1147 C   0  0  0  0  0  0  0  0  0  0  0  0
    5.4326   -0.6163   -0.3662 C   0  0  0  0  0  0  0  0  0  0  0  0
    6.2014    0.5386   -0.4422 C   0  0  0  0  0  0  0  0  0  0  0  0
    1.4659    0.9939    0.1173 C   0  0  0  0  0  0  0  0  0  0  0  0
    9.5994   -0.8562    0.1706 C   0  0  0  0  0  0  0  0  0  0  0  0
    0.0620    1.0303   -0.0578 C   0  0  0  0  0  0  0  0  0  0  0  0
    8.0496   -3.1698    0.3210 C   0  0  0  0  0  0  0  0  0  0  0  0
    2.0942   -0.2358    0.3731 C   0  0  0  0  0  0  0  0  0  0  0  0
   -0.6721   -0.1640    0.0278 C   0  0  0  0  0  0  0  0  0  0  0  0
   10.2051   -2.0873    0.4233 C   0  0  0  0  0  0  0  0  0  0  0  0
    9.4316   -3.2420    0.4983 C   0  0  0  0  0  0  0  0  0  0  0  0
   -6.0888    1.1266    0.3824 C   0  0  0  0  0  0  0  0  0  0  0  0
   -6.7852   -0.0786    0.4740 C   0  0  0  0  0  0  0  0  0  0  0  0
    1.3493   -1.4127    0.4554 C   0  0  0  0  0  0  0  0  0  0  0  0
    2.1998    2.1882    0.0313 C   0  0  0  0  0  0  0  0  0  0  0  0
   -0.5666    2.2597   -0.3139 C   0  0  0  0  0  0  0  0  0  0  0  0
   -0.0313   -1.3769    0.2828 C   0  0  0  0  0  0  0  0  0  0  0  0
   -4.7037    1.1460    0.5470 C   0  0  0  0  0  0  0  0  0  0  0  0
   -4.0220   -0.0398    0.8021 C   0  0  0  0  0  0  0  0  0  0  0  0
   -6.0964   -1.2642    0.7302 C   0  0  0  0  0  0  0  0  0  0  0  0
    1.5588    3.4009   -0.2235 C   0  0  0  0  0  0  0  0  0  0  0  0
    0.1782    3.4367   -0.3957 C   0  0  0  0  0  0  0  0  0  0  0  0
   -4.7114   -1.2449    0.8945 C   0  0  0  0  0  0  0  0  0  0  0  0
   -9.0573   -1.1175   -0.1751 C   0  0  0  0  0  0  0  0  0  0  0  0
  -10.3640   -1.2037    0.3104 C   0  0  0  0  0  0  0  0  0  0  0  0
   -8.6175   -2.0209   -1.1452 C   0  0  0  0  0  0  0  0  0  0  0  0
  -11.2264   -2.1883   -0.1717 C   0  0  0  0  0  0  0  0  0  0  0  0
   -9.4798   -3.0054   -1.6275 C   0  0  0  0  0  0  0  0  0  0  0  0
  -10.7843   -3.0891   -1.1408 C   0  0  0  0  0  0  0  0  0  0  0  0
  1  4  1  0
  1  5  2  0
  1  6  2  0
  1 17  1  0
  2  7  1  0
  2  8  2  0
  2  9  2  0
  2 29  1  0
  3 18  1  0
 10 11  2  0
 10 19  1  0
 11 25  1  0
 12 30  1  0
 12 41  1  0
 13 14  2  0
 13 26  1  0
 14 36  1  0
 15 16  1  0
 15 17  2  0
 15 22  1  0
 16 18  2  0
 16 24  1  0
 17 20  1  0
 18 19  1  0
 19 20  2  0
 21 23  2  0
 21 25  1  0
 21 32  1  0
 22 27  2  0
 23 26  1  0
 23 33  1  0
 24 28  2  0
 25 31  2  0
 26 34  2  0
 27 28  1  0
 29 30  2  0
 29 35  1  0
 30 37  1  0
 31 34  1  0
 32 38  2  0
 33 39  2  0
 35 36  2  0
 36 40  1  0
 37 40  2  0
 38 39  1  0
 41 42  2  0
 41 43  1  0
 42 44  1  0
 43 45  2  0
 44 46  2  0
 45 46  1  0
M  END
>  <PUBCHEM_COMPOUND_CID>  (1) 
22906

>  <PUBCHEM_CONFORMER_RMSD>  (1) 
1

>  <PUBCHEM_CONFORMER_DIVERSEORDER>  (1) 
1
73
50
7
67
72
57
48
13
15
53
25
56
9
43
63
59
27
70
68
52
22
19
45
75
74
17
69
64
28
30
54
39
66
49
4
12
32
20
37
61
58
71
55
65
10
46
21
47
35
62
60
44
2
11
16
29
38
51
42
40
8
18
41
31
24
33
14
26
36
3
34
6
5
23

>  <PUBCHEM_MMFF94_PARTIAL_CHARGES>  (1) 
65
1 1.49
10 -0.18
11 -0.18
12 -0.6
13 -0.18
14 -0.18
17 -0.01
18 0.08
19 0.18
2 1.49
20 -0.15
22 -0.15
24 -0.15
25 0.18
26 0.18
27 -0.15
28 -0.15
29 -0.01
3 -0.53
30 0.1
31 -0.15
32 -0.15
33 -0.15
34 -0.15
35 -0.15
36 0.18
37 -0.15
38 -0.15
39 -0.15
4 -0.68
40 -0.15
41 0.1
42 -0.15
43 -0.15
44 -0.15
45 -0.15
46 -0.15
47 0.15
48 0.15
49 0.15
5 -0.65
50 0.15
51 0.15
52 0.15
53 0.15
54 0.15
55 0.15
56 0.15
57 0.15
58 0.15
59 0.15
6 -0.65
60 0.4
61 0.15
62 0.45
63 0.5
64 0.15
65 0.15
66 0.15
67 0.15
68 0.15
69 0.5
7 -0.68
8 -0.65
9 -0.65

>  <PUBCHEM_EFFECTIVE_ROTOR_COUNT>  (1) 
8

>  <PUBCHEM_PHARMACOPHORE_FEATURES>  (1) 
17
1 12 cation
1 12 donor
1 3 donor
1 4 acceptor
1 5 acceptor
1 6 acceptor
1 7 acceptor
1 8 acceptor
1 9 acceptor
4 1 4 5 6 anion
4 2 7 8 9 anion
6 15 16 17 18 19 20 rings
6 15 16 22 24 27 28 rings
6 21 23 25 26 31 34 rings
6 21 23 32 33 38 39 rings
6 29 30 35 36 37 40 rings
6 41 42 43 44 45 46 rings

>  <PUBCHEM_HEAVY_ATOM_COUNT>  (1) 
46

>  <PUBCHEM_ATOM_DEF_STEREO_COUNT>  (1) 
0

>  <PUBCHEM_ATOM_UDEF_STEREO_COUNT>  (1) 
0

>  <PUBCHEM_BOND_DEF_STEREO_COUNT>  (1) 
0

>  <PUBCHEM_BOND_UDEF_STEREO_COUNT>  (1) 
0

>  <PUBCHEM_ISOTOPIC_ATOM_COUNT>  (1) 
0

>  <PUBCHEM_COMPONENT_COUNT>  (1) 
1

>  <PUBCHEM_CACTVS_TAUTO_COUNT>  (1) 
9

>  <PUBCHEM_CONFORMER_ID>  (1) 
0000597A00000001

>  <PUBCHEM_MMFF94_ENERGY>  (1) 
146.7121

>  <PUBCHEM_FEATURE_SELFOVERLAP>  (1) 
86.441

>  <PUBCHEM_SHAPE_FINGERPRINT>  (1) 
10100884 174 18342455976601713755
10580692 12 18411419544243697416
12013929 94 18343022215819224907
12089408 11 18411984650048668123
12522641 33 11746935378388642736
12664476 115 18272653463710749937
13811026 1 18334018280871160138
13947947 19 18341893013203935679
14937079 2 18335429014625646572
15065858 18 18342733001142232736
15145343 6 17632856421255598427
15198563 99 16370720383775457295
15247644 1 17917714561941341182
15392192 104 17203615895741305174
15461852 350 18343021095491740867
15554971 5 18334581226413543448
16067689 302 18410857668843983356
21102433 48 18411413995478955498
212700 22 18187366532387374898
21792934 111 18410288074571231168
21895431 317 18341892970165202487
232437 2 18412545405290112459
335352 9 18335986458008124261
4353968 344 18412540995534482253
44280117 145 18272933835318546093
4625314 4 18409452454097085586
54039377 194 18343299289282548079
6691757 9 15769764755100740573
9962374 69 18272085046037256487

>  <PUBCHEM_SHAPE_MULTIPOLES>  (1) 
888.37
45.72
4.32
0.97
19.14
1.43
0.15
-28.02
5.89
0.51
0.62
1.04
-0.09
-3.95

>  <PUBCHEM_SHAPE_SELFOVERLAP>  (1) 
1964.038

>  <PUBCHEM_SHAPE_VOLUME>  (1) 
475.3

>  <PUBCHEM_COORDINATE_TYPE>  (1) 
2
5
10

$$$$
