22914
     RDKit          3D

 31 33  0  0  0  0  0  0  0  0999 V2000
   -6.6657    2.6191    0.0455 Cl  0  0  0  0  0  0  0  0  0  0  0  0
    5.6953   -2.4651   -0.0176 S   0  0  0  0  0  0  0  0  0  0  0  0
   -5.2894   -2.6029   -0.2384 S   0  0  0  0  0  0  0  0  0  0  0  0
    1.0550   -0.4927   -0.4230 O   0  0  0  0  0  0  0  0  0  0  0  0
    5.6451   -2.9425    1.5454 O   0  0  0  0  0  0  0  0  0  0  0  0
   -2.5338   -1.5499    0.2973 O   0  0  0  0  0  0  0  0  0  0  0  0
    4.6122   -3.1523   -0.7059 O   0  0  0  0  0  0  0  0  0  0  0  0
    7.0676   -2.5902   -0.4839 O   0  0  0  0  0  0  0  0  0  0  0  0
   -5.1189   -3.3012    1.2290 O   0  0  0  0  0  0  0  0  0  0  0  0
   -6.7072   -2.6304   -0.5619 O   0  0  0  0  0  0  0  0  0  0  0  0
   -4.3092   -3.1900   -1.1368 O   0  0  0  0  0  0  0  0  0  0  0  0
    2.3728    1.4524   -0.1758 N   0  0  0  0  0  0  0  0  0  0  0  0
    2.0202    2.7752   -0.0518 N   0  0  0  0  0  0  0  0  0  0  0  0
   -1.2267    1.3407   -0.4131 N   0  0  0  0  0  0  0  0  0  0  0  0
   -1.8177    1.1175    0.6674 N   0  0  0  0  0  0  0  0  0  0  0  0
    3.6833    1.0318   -0.0718 C   0  0  0  0  0  0  0  0  0  0  0  0
    0.6566    2.9005   -0.1445 C   0  0  0  0  0  0  0  0  0  0  0  0
    0.0717    1.7020   -0.2811 C   0  0  0  0  0  0  0  0  0  0  0  0
    1.1955    0.7138   -0.3100 C   0  0  0  0  0  0  0  0  0  0  0  0
    3.9963   -0.3350   -0.0935 C   0  0  0  0  0  0  0  0  0  0  0  0
    5.3207   -0.7603    0.0112 C   0  0  0  0  0  0  0  0  0  0  0  0
    4.7229    1.9643    0.0569 C   0  0  0  0  0  0  0  0  0  0  0  0
    0.0229    4.2455   -0.1165 C   0  0  0  0  0  0  0  0  0  0  0  0
    6.3460    0.1769    0.1387 C   0  0  0  0  0  0  0  0  0  0  0  0
    6.0471    1.5391    0.1616 C   0  0  0  0  0  0  0  0  0  0  0  0
   -4.8248   -0.9322   -0.0048 C   0  0  0  0  0  0  0  0  0  0  0  0
   -3.1526    0.7518    0.4214 C   0  0  0  0  0  0  0  0  0  0  0  0
   -3.4959   -0.5846    0.2385 C   0  0  0  0  0  0  0  0  0  0  0  0
   -5.8051    0.0584   -0.0645 C   0  0  0  0  0  0  0  0  0  0  0  0
   -4.1276    1.7438    0.3629 C   0  0  0  0  0  0  0  0  0  0  0  0
   -5.4565    1.3965    0.1193 C   0  0  0  0  0  0  0  0  0  0  0  0
  1 31  1  0
  2  5  1  0
  2  7  2  0
  2  8  2  0
  2 21  1  0
  3  9  1  0
  3 10  2  0
  3 11  2  0
  3 26  1  0
  4 19  2  0
  6 28  1  0
 12 13  1  0
 12 16  1  0
 12 19  1  0
 13 17  1  0
 14 15  2  0
 14 18  1  0
 15 27  1  0
 16 20  2  0
 16 22  1  0
 17 18  2  0
 17 23  1  0
 18 19  1  0
 20 21  1  0
 21 24  2  0
 22 25  2  0
 24 25  1  0
 26 28  2  0
 26 29  1  0
 27 28  1  0
 27 30  2  0
 29 31  2  0
 30 31  1  0
M  END
>  <PUBCHEM_COMPOUND_CID>  (1) 
22914

>  <PUBCHEM_CONFORMER_RMSD>  (1) 
0.8

>  <PUBCHEM_CONFORMER_DIVERSEORDER>  (1) 
2
16
35
46
24
5
38
15
23
39
33
22
41
14
36
8
43
42
25
28
19
40
3
17
45
37
18
26
10
20
7
44
29
34
27
31
6
9
21
30
1
4
12
11
32
13

>  <PUBCHEM_MMFF94_PARTIAL_CHARGES>  (1) 
41
1 -0.18
10 -0.65
11 -0.65
12 -0.16
13 -0.52
14 -0.17
15 -0.18
16 0.12
17 -0.04
18 0.19
19 0.62
2 1.49
20 -0.15
21 -0.01
22 -0.15
23 0.14
24 -0.15
25 -0.15
26 -0.01
27 0.18
28 0.08
29 -0.15
3 1.49
30 -0.15
31 0.18
32 0.4
33 0.15
34 0.15
38 0.15
39 0.15
4 -0.57
40 0.15
41 0.15
42 0.5
43 0.45
44 0.5
5 -0.68
6 -0.53
7 -0.65
8 -0.65
9 -0.68

>  <PUBCHEM_EFFECTIVE_ROTOR_COUNT>  (1) 
5

>  <PUBCHEM_PHARMACOPHORE_FEATURES>  (1) 
14
1 10 acceptor
1 11 acceptor
1 13 donor
1 4 acceptor
1 5 acceptor
1 6 donor
1 7 acceptor
1 8 acceptor
1 9 acceptor
4 2 5 7 8 anion
4 3 9 10 11 anion
5 12 13 17 18 19 rings
6 16 20 21 22 24 25 rings
6 26 27 28 29 30 31 rings

>  <PUBCHEM_HEAVY_ATOM_COUNT>  (1) 
31

>  <PUBCHEM_ATOM_DEF_STEREO_COUNT>  (1) 
0

>  <PUBCHEM_ATOM_UDEF_STEREO_COUNT>  (1) 
0

>  <PUBCHEM_BOND_DEF_STEREO_COUNT>  (1) 
0

>  <PUBCHEM_BOND_UDEF_STEREO_COUNT>  (1) 
0

>  <PUBCHEM_ISOTOPIC_ATOM_COUNT>  (1) 
0

>  <PUBCHEM_COMPONENT_COUNT>  (1) 
1

>  <PUBCHEM_CACTVS_TAUTO_COUNT>  (1) 
9

>  <PUBCHEM_CONFORMER_ID>  (1) 
0000598200000002

>  <PUBCHEM_MMFF94_ENERGY>  (1) 
76.1148

>  <PUBCHEM_FEATURE_SELFOVERLAP>  (1) 
71.163

>  <PUBCHEM_SHAPE_FINGERPRINT>  (1) 
10595046 47 18339082695537227144
10622 236 17842823688998129687
11331351 85 17968382251469901245
11497681 19 18410860950214938836
11719270 70 17917428679456830638
11963148 33 18409724093530467350
12107183 9 18341059536499103073
12422481 6 17489585637078331478
13911852 28 18410854369454434028
14211702 104 18410864286344484055
14394314 77 18408886217628792480
14420673 8 18410015403665183459
15001296 14 18187361022017530858
15183329 4 18408886226249836339
15320467 1 18122907800394953470
15361156 5 18041858245756364700
15439362 3 17981046315815475829
17492 89 18266179629277102859
20028762 73 18201158874722872638
21130935 74 18342739628250416312
21197605 99 18341895238450948406
21279426 13 18334292037380131205
21781055 127 17702665420686149057
23522609 53 18120406265423606684
23559900 14 18341324583194264457
249057 3 18409166619945159101
3004659 81 18114184103883954784
4046055 25 18260548917903730396
4073 2 18188214303038169936
4756088 132 18123743158860711814
50009960 94 18042665240748652242
5104073 3 18131075960840017873
559249 180 18411136931685689377
6201320 221 16953059134190361826
7970288 3 18410572894504421838

>  <PUBCHEM_SHAPE_MULTIPOLES>  (1) 
580.66
20.41
4.72
0.8
3.17
1.03
-0.1
12.57
-0.62
-1.11
0.13
-0.02
0.44
-0.54

>  <PUBCHEM_SHAPE_SELFOVERLAP>  (1) 
1229.806

>  <PUBCHEM_SHAPE_VOLUME>  (1) 
327.1

>  <PUBCHEM_COORDINATE_TYPE>  (1) 
2
5
10

$$$$
