22918
     RDKit          3D

 22 24  0  0  0  0  0  0  0  0999 V2000
   -0.7436   -2.9023    0.5788 O   0  0  0  0  0  0  0  0  0  0  0  0
    2.5890   -2.1893    0.0007 O   0  0  0  0  0  0  0  0  0  0  0  0
    0.0364   -0.2510    0.6233 N   0  0  0  0  0  0  0  0  0  0  0  0
    0.6662   -0.1998   -0.4567 N   0  0  0  0  0  0  0  0  0  0  0  0
   -2.2645    0.4233    0.1443 C   0  0  0  0  0  0  0  0  0  0  0  0
   -3.6076    0.0528   -0.1045 C   0  0  0  0  0  0  0  0  0  0  0  0
   -1.3071   -0.5785    0.3729 C   0  0  0  0  0  0  0  0  0  0  0  0
   -3.9536   -1.3084   -0.1174 C   0  0  0  0  0  0  0  0  0  0  0  0
   -1.9185    1.7844    0.1568 C   0  0  0  0  0  0  0  0  0  0  0  0
   -1.6686   -1.9260    0.3570 C   0  0  0  0  0  0  0  0  0  0  0  0
   -4.5651    1.0543   -0.3333 C   0  0  0  0  0  0  0  0  0  0  0  0
   -2.9893   -2.2903    0.1120 C   0  0  0  0  0  0  0  0  0  0  0  0
    2.0098    0.1279   -0.2067 C   0  0  0  0  0  0  0  0  0  0  0  0
    3.7220    1.8049    0.0590 C   0  0  0  0  0  0  0  0  0  0  0  0
   -2.8830    2.7660   -0.0723 C   0  0  0  0  0  0  0  0  0  0  0  0
   -4.2039    2.4017   -0.3169 C   0  0  0  0  0  0  0  0  0  0  0  0
    2.3912    1.4667   -0.1866 C   0  0  0  0  0  0  0  0  0  0  0  0
    2.9489   -0.8753    0.0168 C   0  0  0  0  0  0  0  0  0  0  0  0
    4.6662    0.8033    0.2833 C   0  0  0  0  0  0  0  0  0  0  0  0
    4.2798   -0.5369    0.2622 C   0  0  0  0  0  0  0  0  0  0  0  0
    4.1355    3.2375    0.0806 C   0  0  0  0  0  0  0  0  0  0  0  0
    2.6598   -2.8651   -1.2532 C   0  0  0  0  0  0  0  0  0  0  0  0
  1 10  1  0
  2 18  1  0
  2 22  1  0
  3  4  2  0
  3  7  1  0
  4 13  1  0
  5  6  1  0
  5  7  2  0
  5  9  1  0
  6  8  2  0
  6 11  1  0
  7 10  1  0
  8 12  1  0
  9 15  2  0
 10 12  2  0
 11 16  2  0
 13 17  1  0
 13 18  2  0
 14 17  2  0
 14 19  1  0
 14 21  1  0
 15 16  1  0
 18 20  1  0
 19 20  2  0
M  END
>  <PUBCHEM_COMPOUND_CID>  (1) 
22918

>  <PUBCHEM_CONFORMER_RMSD>  (1) 
0.6

>  <PUBCHEM_CONFORMER_DIVERSEORDER>  (1) 
2
20
14
19
10
22
21
17
9
3
16
6
5
13
15
1
11
4
12
18
7
8

>  <PUBCHEM_MMFF94_PARTIAL_CHARGES>  (1) 
30
1 -0.53
10 0.08
11 -0.15
12 -0.15
13 0.18
14 -0.14
15 -0.15
16 -0.15
17 -0.15
18 0.08
19 -0.15
2 -0.36
20 -0.15
21 0.14
22 0.28
23 0.15
24 0.15
25 0.15
26 0.15
27 0.15
28 0.15
29 0.15
3 -0.18
30 0.15
31 0.15
35 0.45
4 -0.18
7 0.18
8 -0.15
9 -0.15

>  <PUBCHEM_EFFECTIVE_ROTOR_COUNT>  (1) 
3

>  <PUBCHEM_PHARMACOPHORE_FEATURES>  (1) 
5
1 1 donor
1 2 acceptor
6 13 14 17 18 19 20 rings
6 5 6 7 8 10 12 rings
6 5 6 9 11 15 16 rings

>  <PUBCHEM_HEAVY_ATOM_COUNT>  (1) 
22

>  <PUBCHEM_ATOM_DEF_STEREO_COUNT>  (1) 
0

>  <PUBCHEM_ATOM_UDEF_STEREO_COUNT>  (1) 
0

>  <PUBCHEM_BOND_DEF_STEREO_COUNT>  (1) 
0

>  <PUBCHEM_BOND_UDEF_STEREO_COUNT>  (1) 
0

>  <PUBCHEM_ISOTOPIC_ATOM_COUNT>  (1) 
0

>  <PUBCHEM_COMPONENT_COUNT>  (1) 
1

>  <PUBCHEM_CACTVS_TAUTO_COUNT>  (1) 
3

>  <PUBCHEM_CONFORMER_ID>  (1) 
0000598600000002

>  <PUBCHEM_MMFF94_ENERGY>  (1) 
75.4213

>  <PUBCHEM_FEATURE_SELFOVERLAP>  (1) 
25.398

>  <PUBCHEM_SHAPE_FINGERPRINT>  (1) 
10411042 1 17400362746253904202
10608611 8 18410856564050872912
10616163 171 18339363075376015406
10646746 165 18408885139913351532
10670039 82 18117009986259716596
11370993 70 18410852157451499850
11405975 8 18335417954762216352
12107183 9 18046335345646327528
12173636 292 18408601466029319823
12403260 363 18410281515143092690
12633257 1 18188760661728228776
12788726 201 17171549862523923731
13140716 1 18262802861126635115
13583140 156 17774992514287298216
138480 1 17689152310015041690
14251764 38 18341050722635159837
14790565 3 18196659502034619057
14866123 147 16469814694042265434
15196674 1 18409447020130064640
15420108 30 15538704232858625344
15442244 35 18337107839783613746
17492 89 18410856551240662015
18186145 218 18200042728596503315
20510252 161 18411704313739269067
20645477 56 18334861593404924597
20645477 70 17489314040447331966
20715895 44 18192703463028344949
21065198 57 18409729560590681770
21709351 56 18413102871139372742
21756936 100 17911513513833792316
21859007 373 17388797704911178892
22393880 68 18341058497026651638
23227448 37 18411416198584895621
23402539 116 18411129260399221949
23557571 272 18340496667447849029
23558518 356 18115031912641661323
23559900 14 18270961246211133578
245318 6 16448704616503645292
335352 9 18193275191636067014
3545911 37 18411421691516010876
4214541 1 18409446977264631816
495365 180 17988349417389912210
5104073 3 18335138717305426224
633830 44 18268142059668769167
7808743 9 17548692337473260272
9709674 26 18412268324075469174
9981440 41 18263639739836223234

>  <PUBCHEM_SHAPE_MULTIPOLES>  (1) 
431.05
10.14
3.66
0.75
2.29
0.06
-0.08
4.41
-0.4
0.33
-0.29
0.14
-0.23
0.85

>  <PUBCHEM_SHAPE_SELFOVERLAP>  (1) 
948.558

>  <PUBCHEM_SHAPE_VOLUME>  (1) 
234.3

>  <PUBCHEM_COORDINATE_TYPE>  (1) 
2
5
10

$$$$
