22931
     RDKit          3D

 13 12  0  0  0  0  0  0  0  0999 V2000
   -0.0134    2.5370    0.0001 S   0  0  0  0  0  0  0  0  0  0  0  0
    2.7799   -0.5216    0.0506 N   0  0  0  0  0  0  0  0  0  0  0  0
   -2.7535   -0.5064   -0.0609 N   0  0  0  0  0  0  0  0  0  0  0  0
    1.7222    0.4455    0.5623 C   0  0  0  0  0  0  0  0  0  0  0  0
   -1.7284    0.4415   -0.5615 C   0  0  0  0  0  0  0  0  0  0  0  0
    1.2448    1.3505   -0.5616 C   0  0  0  0  0  0  0  0  0  0  0  0
   -1.2565    1.3515    0.5607 C   0  0  0  0  0  0  0  0  0  0  0  0
    3.9290    0.2629   -0.5661 C   0  0  0  0  0  0  0  0  0  0  0  0
    3.3020   -1.3608    1.2079 C   0  0  0  0  0  0  0  0  0  0  0  0
    2.1665   -1.4342   -1.0015 C   0  0  0  0  0  0  0  0  0  0  0  0
   -2.1613   -1.4380    1.0061 C   0  0  0  0  0  0  0  0  0  0  0  0
   -3.9338    0.2479    0.5673 C   0  0  0  0  0  0  0  0  0  0  0  0
   -3.2975   -1.3759   -1.2033 C   0  0  0  0  0  0  0  0  0  0  0  0
  1  6  1  0
  1  7  1  0
  2  4  1  0
  2  8  1  0
  2  9  1  0
  2 10  1  0
  3  5  1  0
  3 11  1  0
  3 12  1  0
  3 13  1  0
  4  6  1  0
  5  7  1  0
M  CHG  2   2   1   3   1
M  END
>  <PUBCHEM_COMPOUND_CID>  (1) 
22931

>  <PUBCHEM_CONFORMER_RMSD>  (1) 
0.6

>  <PUBCHEM_CONFORMER_DIVERSEORDER>  (1) 
2
1
4
3

>  <PUBCHEM_MMFF94_PARTIAL_CHARGES>  (1) 
13
1 -0.46
10 0.5
11 0.5
12 0.5
13 0.5
2 -1.01
3 -1.01
4 0.5
5 0.5
6 0.23
7 0.23
8 0.5
9 0.5

>  <PUBCHEM_EFFECTIVE_ROTOR_COUNT>  (1) 
6

>  <PUBCHEM_PHARMACOPHORE_FEATURES>  (1) 
2
1 2 cation
1 3 cation

>  <PUBCHEM_HEAVY_ATOM_COUNT>  (1) 
13

>  <PUBCHEM_ATOM_DEF_STEREO_COUNT>  (1) 
0

>  <PUBCHEM_ATOM_UDEF_STEREO_COUNT>  (1) 
0

>  <PUBCHEM_BOND_DEF_STEREO_COUNT>  (1) 
0

>  <PUBCHEM_BOND_UDEF_STEREO_COUNT>  (1) 
0

>  <PUBCHEM_ISOTOPIC_ATOM_COUNT>  (1) 
0

>  <PUBCHEM_COMPONENT_COUNT>  (1) 
1

>  <PUBCHEM_CACTVS_TAUTO_COUNT>  (1) 
1

>  <PUBCHEM_CONFORMER_ID>  (1) 
0000599300000002

>  <PUBCHEM_MMFF94_ENERGY>  (1) 
49.1358

>  <PUBCHEM_FEATURE_SELFOVERLAP>  (1) 
10.149

>  <PUBCHEM_SHAPE_FINGERPRINT>  (1) 
10618630 7 18341899558464666524
12553582 1 18410856559639815557
15375358 24 18411415111552130449
15375462 189 18408045129961706112
15757776 16 18334292085147069188
15775835 57 17418376891312141399
17834072 14 18338779174398180717
18186145 218 13045946763594400612
18511873 20 18341899589125764001
19107657 46 18410015471968104270
19107657 9 8935002606847403886
19766037 51 18335154114646974669
20201158 50 18408041831411069907
20281407 28 18131633369937187672
20361792 2 18335420175118253525
20442098 301 18202003200783632806
20645477 70 18194956581559871095
20671657 53 18113615694288739172
20711985 344 18189038816431910569
20871999 31 18260825964932123677
21028194 46 9583519806437814036
22485316 2 18410570690911781957
22721475 48 18410577287981314752
22959321 94 18337668611856228856
232386 152 18412273843076549373
23402539 116 18408598150377974378
23557571 272 18339648824341304732
305870 269 10375602468560918916
449060 23 18342177752033556988
7364860 26 18197499738474610976
81228 2 18266465291087895744

>  <PUBCHEM_SHAPE_MULTIPOLES>  (1) 
261.42
7.12
2.19
1.15
0.04
0.85
0
-3.06
0
-0.01
0
0
-0.45
-0.55

>  <PUBCHEM_SHAPE_SELFOVERLAP>  (1) 
458.399

>  <PUBCHEM_SHAPE_VOLUME>  (1) 
178.6

>  <PUBCHEM_COORDINATE_TYPE>  (1) 
2
5
10

$$$$
