22952
     RDKit          3D

 20 22  0  0  0  0  0  0  0  0999 V2000
   -3.5391   -1.2096    0.3887 O   0  0  0  0  0  0  0  0  0  0  0  0
    3.5397    1.2094   -0.3874 O   0  0  0  0  0  0  0  0  0  0  0  0
   -1.2240   -2.3547    0.3105 O   0  0  0  0  0  0  0  0  0  0  0  0
    1.2239    2.3545   -0.3136 O   0  0  0  0  0  0  0  0  0  0  0  0
   -1.4475   -0.0103    0.1143 C   0  0  0  0  0  0  0  0  0  0  0  0
    1.4473    0.0104   -0.1144 C   0  0  0  0  0  0  0  0  0  0  0  0
   -0.7954    1.2138   -0.0491 C   0  0  0  0  0  0  0  0  0  0  0  0
    0.7953   -1.2137    0.0486 C   0  0  0  0  0  0  0  0  0  0  0  0
   -0.6759   -1.2687    0.1693 C   0  0  0  0  0  0  0  0  0  0  0  0
    0.6758    1.2689   -0.1695 C   0  0  0  0  0  0  0  0  0  0  0  0
   -2.8423   -0.0488    0.2275 C   0  0  0  0  0  0  0  0  0  0  0  0
    2.8423    0.0489   -0.2268 C   0  0  0  0  0  0  0  0  0  0  0  0
   -1.5384    2.3995   -0.0993 C   0  0  0  0  0  0  0  0  0  0  0  0
    1.5382   -2.3993    0.0987 C   0  0  0  0  0  0  0  0  0  0  0  0
   -3.5788    1.1351    0.1770 C   0  0  0  0  0  0  0  0  0  0  0  0
    3.5788   -1.1350   -0.1762 C   0  0  0  0  0  0  0  0  0  0  0  0
   -2.9283    2.3566    0.0141 C   0  0  0  0  0  0  0  0  0  0  0  0
    2.9282   -2.3565   -0.0139 C   0  0  0  0  0  0  0  0  0  0  0  0
   -3.9688   -1.8760   -0.7962 C   0  0  0  0  0  0  0  0  0  0  0  0
    3.9691    1.8756    0.7976 C   0  0  0  0  0  0  0  0  0  0  0  0
  1 11  1  0
  1 19  1  0
  2 12  1  0
  2 20  1  0
  3  9  2  0
  4 10  2  0
  5  7  2  0
  5  9  1  0
  5 11  1  0
  6  8  2  0
  6 10  1  0
  6 12  1  0
  7 10  1  0
  7 13  1  0
  8  9  1  0
  8 14  1  0
 11 15  2  0
 12 16  2  0
 13 17  2  0
 14 18  2  0
 15 17  1  0
 16 18  1  0
M  END
>  <PUBCHEM_COMPOUND_CID>  (1) 
22952

>  <PUBCHEM_CONFORMER_RMSD>  (1) 
0.6

>  <PUBCHEM_CONFORMER_DIVERSEORDER>  (1) 
1

>  <PUBCHEM_MMFF94_PARTIAL_CHARGES>  (1) 
26
1 -0.36
10 0.4
11 0.08
12 0.08
13 -0.15
14 -0.15
15 -0.15
16 -0.15
17 -0.15
18 -0.15
19 0.28
2 -0.36
20 0.28
21 0.15
22 0.15
23 0.15
24 0.15
25 0.15
26 0.15
3 -0.57
4 -0.57
5 0.09
6 0.09
7 0.09
8 0.09
9 0.4

>  <PUBCHEM_EFFECTIVE_ROTOR_COUNT>  (1) 
2

>  <PUBCHEM_PHARMACOPHORE_FEATURES>  (1) 
7
1 1 acceptor
1 2 acceptor
1 3 acceptor
1 4 acceptor
6 5 6 7 8 9 10 rings
6 5 7 11 13 15 17 rings
6 6 8 12 14 16 18 rings

>  <PUBCHEM_HEAVY_ATOM_COUNT>  (1) 
20

>  <PUBCHEM_ATOM_DEF_STEREO_COUNT>  (1) 
0

>  <PUBCHEM_ATOM_UDEF_STEREO_COUNT>  (1) 
0

>  <PUBCHEM_BOND_DEF_STEREO_COUNT>  (1) 
0

>  <PUBCHEM_BOND_UDEF_STEREO_COUNT>  (1) 
0

>  <PUBCHEM_ISOTOPIC_ATOM_COUNT>  (1) 
0

>  <PUBCHEM_COMPONENT_COUNT>  (1) 
1

>  <PUBCHEM_CACTVS_TAUTO_COUNT>  (1) 
1

>  <PUBCHEM_CONFORMER_ID>  (1) 
000059A800000001

>  <PUBCHEM_MMFF94_ENERGY>  (1) 
84.9977

>  <PUBCHEM_FEATURE_SELFOVERLAP>  (1) 
35.59

>  <PUBCHEM_SHAPE_FINGERPRINT>  (1) 
10062212 137 18263640680323530955
10608611 8 18338517443554733488
10616163 171 18340491075511498287
10863032 1 18341332197479683249
10967382 1 18265617756653565070
1100329 8 18050285868948754488
11132069 177 18265610992016777000
11578080 2 17560216108025774561
12553582 1 18264783214691120527
13140716 1 18265052422929997841
14178342 30 18409720760208441480
14223421 5 18410856538196621128
14787075 74 17772184477580917048
14790565 3 17762911960832297049
14866123 147 15965690773186321658
15196674 1 18410294700608061444
15442244 35 18337672988586379610
15536298 74 18341333310134526340
16945 1 18336275646545657862
17492 89 18411419479798491599
18186145 218 18200322008960983216
19591789 44 18410577253927908310
20510252 161 18342460356692454217
20691752 17 17676206840397129752
20905425 154 18341617026846847406
21267235 1 18337965480106874627
21501502 16 18410013195571958402
221490 88 18337681823476649234
2334 1 18336830792543502342
23366157 5 18041002796067040354
23402539 116 18339072688490190006
23463225 33 18191590752717472910
23558518 356 18260272949274506899
23559900 14 18270394972037213304
238 59 16670740643034849349
2748010 2 18264211313719918884
2871803 45 18410006663280226751
335352 9 18049443634441400575
34934 24 18410851049740301661
350125 39 18337678494676281416
4409770 3 13947188343528607173
5104073 3 18410295787287542323
7097593 13 17682387049276268906
7364860 26 18269554953754063482
7832392 63 18266741272879958155
9709674 26 18410580573885036478

>  <PUBCHEM_SHAPE_MULTIPOLES>  (1) 
388.11
7.06
3.15
0.7
0
0
0
0
0
0
0
0
0
0

>  <PUBCHEM_SHAPE_SELFOVERLAP>  (1) 
868.974

>  <PUBCHEM_SHAPE_VOLUME>  (1) 
203.9

>  <PUBCHEM_COORDINATE_TYPE>  (1) 
2
5
10

$$$$
