22966
     RDKit          3D

 17 18  0  0  0  0  0  0  0  0999 V2000
   -1.0721   -1.8307    0.0709 O   0  0  0  0  0  0  0  0  0  0  0  0
   -3.3550   -1.7350    0.0882 O   0  0  0  0  0  0  0  0  0  0  0  0
    4.9626   -0.1306   -0.0235 O   0  0  0  0  0  0  0  0  0  0  0  0
   -4.4189    0.4927   -0.6165 O   0  0  0  0  0  0  0  0  0  0  0  0
    4.1101    1.9757   -0.0795 O   0  0  0  0  0  0  0  0  0  0  0  0
   -3.5888    2.3305    0.4515 O   0  0  0  0  0  0  0  0  0  0  0  0
    0.2152    0.2305    0.0010 C   0  0  0  0  0  0  0  0  0  0  0  0
    0.1657   -1.1592    0.0413 C   0  0  0  0  0  0  0  0  0  0  0  0
    1.4619    0.8602   -0.0274 C   0  0  0  0  0  0  0  0  0  0  0  0
   -1.0321    0.9791   -0.0103 C   0  0  0  0  0  0  0  0  0  0  0  0
    2.6321    0.0955   -0.0151 C   0  0  0  0  0  0  0  0  0  0  0  0
    1.3235   -1.9347    0.0539 C   0  0  0  0  0  0  0  0  0  0  0  0
   -2.2053    0.3357    0.0180 C   0  0  0  0  0  0  0  0  0  0  0  0
    2.5625   -1.2989    0.0255 C   0  0  0  0  0  0  0  0  0  0  0  0
   -2.2819   -1.1419    0.0611 C   0  0  0  0  0  0  0  0  0  0  0  0
    3.9285    0.7544   -0.0431 C   0  0  0  0  0  0  0  0  0  0  0  0
   -3.4079    1.1770    0.0042 C   0  0  0  0  0  0  0  0  0  0  0  0
  1  8  1  0
  1 15  1  0
  2 15  2  0
  3 16  1  0
  4 17  1  0
  5 16  2  0
  6 17  2  0
  7  8  2  0
  7  9  1  0
  7 10  1  0
  8 12  1  0
  9 11  2  0
 10 13  2  0
 11 14  1  0
 11 16  1  0
 12 14  2  0
 13 15  1  0
 13 17  1  0
M  END
>  <PUBCHEM_COMPOUND_CID>  (1) 
22966

>  <PUBCHEM_CONFORMER_RMSD>  (1) 
0.6

>  <PUBCHEM_CONFORMER_DIVERSEORDER>  (1) 
1
2

>  <PUBCHEM_MMFF94_PARTIAL_CHARGES>  (1) 
23
1 -0.23
10 -0.18
11 0.09
12 -0.15
13 0.03
14 -0.15
15 0.71
16 0.63
17 0.71
18 0.15
19 0.15
2 -0.57
20 0.15
21 0.15
22 0.5
23 0.5
3 -0.65
4 -0.65
5 -0.57
6 -0.57
7 0.03
8 0.08
9 -0.15

>  <PUBCHEM_EFFECTIVE_ROTOR_COUNT>  (1) 
2

>  <PUBCHEM_PHARMACOPHORE_FEATURES>  (1) 
10
1 13 anion
1 2 acceptor
1 3 acceptor
1 4 acceptor
1 5 acceptor
1 6 acceptor
3 3 5 16 anion
3 4 6 17 anion
6 1 7 8 10 13 15 rings
6 7 8 9 11 12 14 rings

>  <PUBCHEM_HEAVY_ATOM_COUNT>  (1) 
17

>  <PUBCHEM_ATOM_DEF_STEREO_COUNT>  (1) 
0

>  <PUBCHEM_ATOM_UDEF_STEREO_COUNT>  (1) 
0

>  <PUBCHEM_BOND_DEF_STEREO_COUNT>  (1) 
0

>  <PUBCHEM_BOND_UDEF_STEREO_COUNT>  (1) 
0

>  <PUBCHEM_ISOTOPIC_ATOM_COUNT>  (1) 
0

>  <PUBCHEM_COMPONENT_COUNT>  (1) 
1

>  <PUBCHEM_CACTVS_TAUTO_COUNT>  (1) 
1

>  <PUBCHEM_CONFORMER_ID>  (1) 
000059B600000001

>  <PUBCHEM_MMFF94_ENERGY>  (1) 
57.693

>  <PUBCHEM_FEATURE_SELFOVERLAP>  (1) 
51.19

>  <PUBCHEM_SHAPE_FINGERPRINT>  (1) 
10014705 185 18114176441377579349
10411042 1 17329429961633720114
10608611 8 18411418414482253344
10646746 165 18411700997898039044
10967382 1 18338234860307538432
11132069 177 18407757049525767144
11471102 20 18338513045650569334
11543360 7 16271917246627597412
12346645 44 18409729560226606987
12390115 104 18269574860717010184
12500047 106 18412539899178455537
12644460 14 18041842779726578386
13140716 1 18263366897538386555
13380535 76 18410011022360964486
14325111 11 18410293605417781232
14415576 193 18410296912996409924
14897335 6 18410572864175646863
15196674 1 18410012165238652334
15219456 202 18412832360602667438
15442244 35 18194681454070271418
15536298 74 18341613672783591022
15775835 57 18408605837894550666
16945 1 18120652427083321835
18186145 218 18338799987825294292
200 152 17846493742419558591
20510252 161 18342745151784126379
20645477 56 18334297531102556901
20645477 70 18200594687829231118
21267235 1 18410302414454149842
21501502 16 18410005511928505803
23402539 116 18342731936517883564
23402655 69 18270952441638959869
23559900 14 18271244907563841086
2748010 2 18410303488317312751
3312278 4 18341897389527229177
335352 9 18266459811247254606
3545911 37 18408887325935543805
4214541 1 18410575071841714412
474 4 17821736065215078276
4990 188 18060426789815483444
5104073 3 18408322202966009448
53812653 166 18413385440947771176
58051976 378 18413106134897974492
69090 78 18411133619448265759
7364860 26 18268148652533849574
77779 3 18410857668078975062
9709674 26 18341618083446180231

>  <PUBCHEM_SHAPE_MULTIPOLES>  (1) 
314.64
8.25
2.1
0.61
1.9
0.1
0
-3.28
0.33
-0.57
-0.13
-0.09
-0.02
-0.14

>  <PUBCHEM_SHAPE_SELFOVERLAP>  (1) 
692.299

>  <PUBCHEM_SHAPE_VOLUME>  (1) 
168.7

>  <PUBCHEM_COORDINATE_TYPE>  (1) 
2
5
10

$$$$
