22969
     RDKit          3D

 17 18  0  0  0  0  0  0  0  0999 V2000
   -1.0493   -1.8651    0.0108 O   0  0  0  0  0  0  0  0  0  0  0  0
   -3.3334   -1.8052   -0.0077 O   0  0  0  0  0  0  0  0  0  0  0  0
   -3.9443    1.4306   -1.1368 O   0  0  0  0  0  0  0  0  0  0  0  0
    4.9586   -0.0702    0.0297 O   0  0  0  0  0  0  0  0  0  0  0  0
    4.0741    2.0230   -0.0203 O   0  0  0  0  0  0  0  0  0  0  0  0
    0.2063    0.2166   -0.0190 C   0  0  0  0  0  0  0  0  0  0  0  0
    0.1781   -1.1741    0.0076 C   0  0  0  0  0  0  0  0  0  0  0  0
   -1.0522    0.9456   -0.0433 C   0  0  0  0  0  0  0  0  0  0  0  0
   -2.2154    0.2838   -0.0400 C   0  0  0  0  0  0  0  0  0  0  0  0
    1.4433    0.8658   -0.0214 C   0  0  0  0  0  0  0  0  0  0  0  0
    2.6250    0.1195    0.0026 C   0  0  0  0  0  0  0  0  0  0  0  0
    1.3476   -1.9314    0.0315 C   0  0  0  0  0  0  0  0  0  0  0  0
    2.5768   -1.2762    0.0290 C   0  0  0  0  0  0  0  0  0  0  0  0
   -2.2694   -1.1952   -0.0120 C   0  0  0  0  0  0  0  0  0  0  0  0
   -3.4308    1.1063   -0.0653 C   0  0  0  0  0  0  0  0  0  0  0  0
    3.9111    0.7987    0.0017 C   0  0  0  0  0  0  0  0  0  0  0  0
   -4.0264    1.5274    1.2529 C   0  0  0  0  0  0  0  0  0  0  0  0
  1  7  1  0
  1 14  1  0
  2 14  2  0
  3 15  2  0
  4 16  1  0
  5 16  2  0
  6  7  2  0
  6  8  1  0
  6 10  1  0
  7 12  1  0
  8  9  2  0
  9 14  1  0
  9 15  1  0
 10 11  2  0
 11 13  1  0
 11 16  1  0
 12 13  2  0
 15 17  1  0
M  END
>  <PUBCHEM_COMPOUND_CID>  (1) 
22969

>  <PUBCHEM_CONFORMER_RMSD>  (1) 
0.6

>  <PUBCHEM_CONFORMER_DIVERSEORDER>  (1) 
2
3
1
4

>  <PUBCHEM_MMFF94_PARTIAL_CHARGES>  (1) 
22
1 -0.23
10 -0.15
11 0.09
12 -0.15
13 -0.15
14 0.71
15 0.49
16 0.63
17 0.06
18 0.15
19 0.15
2 -0.57
20 0.15
21 0.15
25 0.5
3 -0.57
4 -0.65
5 -0.57
6 0.03
7 0.08
8 -0.18
9 0.03

>  <PUBCHEM_EFFECTIVE_ROTOR_COUNT>  (1) 
2

>  <PUBCHEM_PHARMACOPHORE_FEATURES>  (1) 
8
1 2 acceptor
1 3 acceptor
1 4 acceptor
1 5 acceptor
1 9 anion
3 4 5 16 anion
6 1 6 7 8 9 14 rings
6 6 7 10 11 12 13 rings

>  <PUBCHEM_HEAVY_ATOM_COUNT>  (1) 
17

>  <PUBCHEM_ATOM_DEF_STEREO_COUNT>  (1) 
0

>  <PUBCHEM_ATOM_UDEF_STEREO_COUNT>  (1) 
0

>  <PUBCHEM_BOND_DEF_STEREO_COUNT>  (1) 
0

>  <PUBCHEM_BOND_UDEF_STEREO_COUNT>  (1) 
0

>  <PUBCHEM_ISOTOPIC_ATOM_COUNT>  (1) 
0

>  <PUBCHEM_COMPONENT_COUNT>  (1) 
1

>  <PUBCHEM_CACTVS_TAUTO_COUNT>  (1) 
2

>  <PUBCHEM_CONFORMER_ID>  (1) 
000059B900000002

>  <PUBCHEM_MMFF94_ENERGY>  (1) 
56.6457

>  <PUBCHEM_FEATURE_SELFOVERLAP>  (1) 
40.682

>  <PUBCHEM_SHAPE_FINGERPRINT>  (1) 
10014705 185 18260543429230223141
10062212 137 18410845577714771682
10608611 8 18410290324178974060
10967382 1 18338516322409896724
11132069 177 18334572443137072196
11471102 20 18339357457722114718
11543360 7 15913034447961129044
12390115 104 18269573782701304880
12500047 106 18411975862561287561
12644460 14 18115872906188342762
13140716 1 18336834074247176699
13380535 21 18411424981624444427
13380535 76 18411417289169303238
13583140 156 16877939413079696657
13675066 3 17603872160854982785
14325111 11 18410292531913314580
14445660 50 18412550898684724185
14897335 6 18410852140166025271
15196674 1 18410574015733167406
15219456 202 18413113839869064190
15536298 74 18342177730907172470
15775835 57 18410014316563600034
16945 1 18194402178122175375
1741750 31 18343023289360348627
18186145 218 18341056224503746012
200 152 17275382101379432716
204376 136 18409733937172879953
20510252 161 18343025540123639563
20645477 56 18260267417441311525
20645477 70 18269552741234457407
21267235 1 18337962271681960422
21501502 16 18411131429031100307
23402539 116 18343294882213325772
23402655 69 18272646814183510156
23557571 272 18130235946424365646
23559900 14 18272090453559526174
25 1 18340768152325250400
2748010 2 18410301289367903759
3312278 4 18341896294294718417
335352 9 18338234839376274678
350125 39 18266745856069219913
3545911 37 18410577266522335061
4990 188 18060429006066067958
5104073 3 18409165537053556512
53812653 166 18413668011120043304
58051976 378 18341610374227543876
633830 44 18131076978372544909
7364860 26 18268711598202840142
9709674 26 18411425033259400422

>  <PUBCHEM_SHAPE_MULTIPOLES>  (1) 
320.51
8.38
2.08
0.75
2.21
0.47
-0.03
-3.9
-0.27
-0.33
-0.06
-0.63
-0.21
-0.16

>  <PUBCHEM_SHAPE_SELFOVERLAP>  (1) 
699.317

>  <PUBCHEM_SHAPE_VOLUME>  (1) 
174.1

>  <PUBCHEM_COORDINATE_TYPE>  (1) 
2
5
10

$$$$
