22964
     RDKit          3D

 19 20  0  0  0  0  0  0  0  0999 V2000
   -1.0768   -1.9376    0.1375 O   0  0  0  0  0  0  0  0  0  0  0  0
    4.8437   -0.0291   -0.5425 O   0  0  0  0  0  0  0  0  0  0  0  0
   -4.4408    0.3370   -0.5647 O   0  0  0  0  0  0  0  0  0  0  0  0
   -3.3610   -1.8781    0.1366 O   0  0  0  0  0  0  0  0  0  0  0  0
    4.0878    1.8484    0.5541 O   0  0  0  0  0  0  0  0  0  0  0  0
   -3.5236    2.1521    0.5414 O   0  0  0  0  0  0  0  0  0  0  0  0
    0.1781    0.1440    0.0843 C   0  0  0  0  0  0  0  0  0  0  0  0
    0.1504   -1.2465    0.1200 C   0  0  0  0  0  0  0  0  0  0  0  0
    1.4150    0.7934    0.0680 C   0  0  0  0  0  0  0  0  0  0  0  0
   -1.0807    0.8727    0.0653 C   0  0  0  0  0  0  0  0  0  0  0  0
    2.5969    0.0473    0.0874 C   0  0  0  0  0  0  0  0  0  0  0  0
    1.3202   -2.0035    0.1395 C   0  0  0  0  0  0  0  0  0  0  0  0
   -2.2437    0.2108    0.0821 C   0  0  0  0  0  0  0  0  0  0  0  0
    2.5492   -1.3482    0.1231 C   0  0  0  0  0  0  0  0  0  0  0  0
   -2.2972   -1.2680    0.1200 C   0  0  0  0  0  0  0  0  0  0  0  0
    3.8829    0.7267    0.0719 C   0  0  0  0  0  0  0  0  0  0  0  0
   -3.4594    1.0330    0.0612 C   0  0  0  0  0  0  0  0  0  0  0  0
    6.1580    0.5336   -0.6197 C   0  0  0  0  0  0  0  0  0  0  0  0
   -5.6989    1.0121   -0.6658 C   0  0  0  0  0  0  0  0  0  0  0  0
  1  8  1  0
  1 15  1  0
  2 16  1  0
  2 18  1  0
  3 17  1  0
  3 19  1  0
  4 15  2  0
  5 16  2  0
  6 17  2  0
  7  8  2  0
  7  9  1  0
  7 10  1  0
  8 12  1  0
  9 11  2  0
 10 13  2  0
 11 14  1  0
 11 16  1  0
 12 14  2  0
 13 15  1  0
 13 17  1  0
M  END
>  <PUBCHEM_COMPOUND_CID>  (1) 
22964

>  <PUBCHEM_CONFORMER_RMSD>  (1) 
0.6

>  <PUBCHEM_CONFORMER_DIVERSEORDER>  (1) 
1
12
6
4
8
10
7
5
2
11
3
9

>  <PUBCHEM_MMFF94_PARTIAL_CHARGES>  (1) 
23
1 -0.23
10 -0.18
11 0.09
12 -0.15
13 0.03
14 -0.15
15 0.71
16 0.63
17 0.71
18 0.28
19 0.28
2 -0.43
20 0.15
21 0.15
22 0.15
23 0.15
3 -0.43
4 -0.57
5 -0.57
6 -0.57
7 0.03
8 0.08
9 -0.15

>  <PUBCHEM_EFFECTIVE_ROTOR_COUNT>  (1) 
4

>  <PUBCHEM_PHARMACOPHORE_FEATURES>  (1) 
6
1 13 anion
1 4 acceptor
1 5 acceptor
1 6 acceptor
6 1 7 8 10 13 15 rings
6 7 8 9 11 12 14 rings

>  <PUBCHEM_HEAVY_ATOM_COUNT>  (1) 
19

>  <PUBCHEM_ATOM_DEF_STEREO_COUNT>  (1) 
0

>  <PUBCHEM_ATOM_UDEF_STEREO_COUNT>  (1) 
0

>  <PUBCHEM_BOND_DEF_STEREO_COUNT>  (1) 
0

>  <PUBCHEM_BOND_UDEF_STEREO_COUNT>  (1) 
0

>  <PUBCHEM_ISOTOPIC_ATOM_COUNT>  (1) 
0

>  <PUBCHEM_COMPONENT_COUNT>  (1) 
1

>  <PUBCHEM_CACTVS_TAUTO_COUNT>  (1) 
1

>  <PUBCHEM_CONFORMER_ID>  (1) 
000059B400000001

>  <PUBCHEM_MMFF94_ENERGY>  (1) 
62.694

>  <PUBCHEM_FEATURE_SELFOVERLAP>  (1) 
30.473

>  <PUBCHEM_SHAPE_FINGERPRINT>  (1) 
10014705 185 18187643617906852365
10411042 1 17545323437407660898
10498660 4 18410573998062947696
10608611 8 18412261748474764080
11471102 20 18410853218218686254
12236239 1 17676205805964080558
12403259 415 18270964669278924328
12644460 14 18041278747536383018
12670543 26 18271535213040350230
13760787 19 18187362138492886146
14528608 73 18341889692803643813
14897335 6 18410008819232437875
15196674 1 18409448094045923010
15242439 84 18343866628085793188
15536298 74 18341050726972182086
17834072 33 18272363166248590943
17834072 8 18343305864439413988
19784866 170 18113339699689992639
200 152 16988846072756906520
20510252 161 18271249416735806603
20602899 9 16200432489716250799
20645477 56 18333449833407169949
20645477 70 18200594679292037518
21267235 1 18337681922012990179
23402539 116 18413103992062513870
23402655 69 18270955753026940533
23557571 272 18341339992813963022
23559900 14 18272087236591922880
25147074 1 18262783121468180666
293599 30 18408323276270041165
3004659 81 18335146363560593870
335352 9 18410292489512365614
34934 24 18333726901515358787
3545911 37 18408605859638457981
4214541 1 18411139151461153408
4340502 62 16660649510351596737
474 4 17894636958759125748
4990 188 18060708277740373428
5104073 3 18335420157864493226
58051976 378 18413109437675097036
59755656 215 18338803317147654902
59755656 520 17095521807391096075
633830 44 18341324587377844852
7364860 26 18267867181889048930
9709674 26 18271248209897800207

>  <PUBCHEM_SHAPE_MULTIPOLES>  (1) 
355.8
11.37
2
0.69
3.12
0.53
0.03
-5.41
2.45
-0.67
-0.24
0.02
-0.09
0.12

>  <PUBCHEM_SHAPE_SELFOVERLAP>  (1) 
769.667

>  <PUBCHEM_SHAPE_VOLUME>  (1) 
195.5

>  <PUBCHEM_COORDINATE_TYPE>  (1) 
2
5
10

$$$$
