22970
     RDKit          3D

 18 19  0  0  0  0  0  0  0  0999 V2000
   -1.5554   -1.8735    0.1920 O   0  0  0  0  0  0  0  0  0  0  0  0
    3.7674    1.4376    0.3367 O   0  0  0  0  0  0  0  0  0  0  0  0
   -3.8162   -1.5423    0.2088 O   0  0  0  0  0  0  0  0  0  0  0  0
   -4.6603    0.9991   -0.5852 O   0  0  0  0  0  0  0  0  0  0  0  0
    4.6418   -0.4639   -0.6218 O   0  0  0  0  0  0  0  0  0  0  0  0
   -0.0651    0.0312   -0.0567 C   0  0  0  0  0  0  0  0  0  0  0  0
   -0.2559   -1.3378    0.1015 C   0  0  0  0  0  0  0  0  0  0  0  0
   -1.2293    0.9005   -0.1271 C   0  0  0  0  0  0  0  0  0  0  0  0
    1.2391    0.5246   -0.1425 C   0  0  0  0  0  0  0  0  0  0  0  0
   -2.4617    0.3858   -0.0405 C   0  0  0  0  0  0  0  0  0  0  0  0
    2.3250   -0.3526   -0.0693 C   0  0  0  0  0  0  0  0  0  0  0  0
    0.8167   -2.2244    0.1759 C   0  0  0  0  0  0  0  0  0  0  0  0
    2.1138   -1.7241    0.0896 C   0  0  0  0  0  0  0  0  0  0  0  0
   -2.6884   -1.0672    0.1280 C   0  0  0  0  0  0  0  0  0  0  0  0
   -3.5721    1.3423   -0.1215 C   0  0  0  0  0  0  0  0  0  0  0  0
    3.6815    0.1647   -0.1575 C   0  0  0  0  0  0  0  0  0  0  0  0
   -3.3381    2.7413    0.3860 C   0  0  0  0  0  0  0  0  0  0  0  0
    5.0570    2.0587    0.3036 C   0  0  0  0  0  0  0  0  0  0  0  0
  1  7  1  0
  1 14  1  0
  2 16  1  0
  2 18  1  0
  3 14  2  0
  4 15  2  0
  5 16  2  0
  6  7  2  0
  6  8  1  0
  6  9  1  0
  7 12  1  0
  8 10  2  0
  9 11  2  0
 10 14  1  0
 10 15  1  0
 11 13  1  0
 11 16  1  0
 12 13  2  0
 15 17  1  0
M  END
>  <PUBCHEM_COMPOUND_CID>  (1) 
22970

>  <PUBCHEM_CONFORMER_RMSD>  (1) 
0.6

>  <PUBCHEM_CONFORMER_DIVERSEORDER>  (1) 
7
6
1
10
4
5
8
9
3
2

>  <PUBCHEM_MMFF94_PARTIAL_CHARGES>  (1) 
22
1 -0.23
10 0.03
11 0.09
12 -0.15
13 -0.15
14 0.71
15 0.49
16 0.63
17 0.06
18 0.28
19 0.15
2 -0.43
20 0.15
21 0.15
22 0.15
3 -0.57
4 -0.57
5 -0.57
6 0.03
7 0.08
8 -0.18
9 -0.15

>  <PUBCHEM_EFFECTIVE_ROTOR_COUNT>  (1) 
3

>  <PUBCHEM_PHARMACOPHORE_FEATURES>  (1) 
6
1 10 anion
1 3 acceptor
1 4 acceptor
1 5 acceptor
6 1 6 7 8 10 14 rings
6 6 7 9 11 12 13 rings

>  <PUBCHEM_HEAVY_ATOM_COUNT>  (1) 
18

>  <PUBCHEM_ATOM_DEF_STEREO_COUNT>  (1) 
0

>  <PUBCHEM_ATOM_UDEF_STEREO_COUNT>  (1) 
0

>  <PUBCHEM_BOND_DEF_STEREO_COUNT>  (1) 
0

>  <PUBCHEM_BOND_UDEF_STEREO_COUNT>  (1) 
0

>  <PUBCHEM_ISOTOPIC_ATOM_COUNT>  (1) 
0

>  <PUBCHEM_COMPONENT_COUNT>  (1) 
1

>  <PUBCHEM_CACTVS_TAUTO_COUNT>  (1) 
2

>  <PUBCHEM_CONFORMER_ID>  (1) 
000059BA00000007

>  <PUBCHEM_MMFF94_ENERGY>  (1) 
58.5833

>  <PUBCHEM_FEATURE_SELFOVERLAP>  (1) 
30.477

>  <PUBCHEM_SHAPE_FINGERPRINT>  (1) 
10014705 185 18260263045233240925
10411042 1 17401206072020613322
10498660 4 18409729556005836996
10608611 8 18411418397223080984
10646746 165 18410576180312347116
10967382 1 18337390418345321325
11132069 177 18186238433082138764
11543360 7 16558457664806842500
12173636 292 18410291380957148653
12346645 44 18408884035816671154
12390115 104 18269291169436876552
12403259 415 18340775922401247200
12788726 201 16956210579565872074
13140716 1 18190180096437097611
14123255 52 18410854347963864152
14897335 6 18337107874006208487
15196674 1 18410011052736686094
15442244 35 18049721815268190483
15536298 74 18339924814117186134
16945 1 18263374735880068619
18186145 218 18130238098672258296
20510252 161 18342179994196337955
20645477 56 18334862667204822917
20645477 70 18129380401850603206
21267235 1 18409459080477463503
21501502 16 18336259038108071627
23402539 116 18340480153340800630
23402655 69 18273214188343493508
23557571 272 18340780315657100983
23559900 14 18270963415344035694
2748010 2 18336558118366712175
2916195 48 18201148979740422416
335352 9 18265896844056071774
34934 24 18335976502453338645
3545911 37 18335424534704926013
4214541 1 18410576158452583596
474 4 17821738216724525284
4990 188 18131358462392766934
5104073 3 18334014964829464586
633830 44 18342453721226184980
7364860 26 18194964041781589462
9709674 26 18411706477839030655
9981440 41 18334571386564776578

>  <PUBCHEM_SHAPE_MULTIPOLES>  (1) 
341.08
9.23
2.54
0.65
3.8
0.35
-0.01
5.44
-0.34
-0.52
0.37
0.02
0.04
0.32

>  <PUBCHEM_SHAPE_SELFOVERLAP>  (1) 
738.285

>  <PUBCHEM_SHAPE_VOLUME>  (1) 
187.1

>  <PUBCHEM_COORDINATE_TYPE>  (1) 
2
5
10

$$$$
