22993
     RDKit          3D

 21 24  0  0  0  0  0  0  0  0999 V2000
    6.7428    0.9196    0.0037 Br  0  0  0  0  0  0  0  0  0  0  0  0
    0.9465    2.3620   -0.0024 O   0  0  0  0  0  0  0  0  0  0  0  0
   -1.6174   -2.3160   -0.0437 O   0  0  0  0  0  0  0  0  0  0  0  0
    1.0988   -1.1492    0.0022 N   0  0  0  0  0  0  0  0  0  0  0  0
   -1.7738    1.1620   -0.0206 N   0  0  0  0  0  0  0  0  0  0  0  0
    0.3860    0.0197    0.0003 C   0  0  0  0  0  0  0  0  0  0  0  0
    2.5931    0.5074    0.0016 C   0  0  0  0  0  0  0  0  0  0  0  0
    2.4493   -0.8817    0.0031 C   0  0  0  0  0  0  0  0  0  0  0  0
   -1.0580    0.0702   -0.0015 C   0  0  0  0  0  0  0  0  0  0  0  0
    1.2830    1.0628    0.0000 C   0  0  0  0  0  0  0  0  0  0  0  0
   -3.3003   -0.6163    0.0108 C   0  0  0  0  0  0  0  0  0  0  0  0
   -1.9537   -1.1603   -0.0008 C   0  0  0  0  0  0  0  0  0  0  0  0
   -3.1262    0.7645   -0.0074 C   0  0  0  0  0  0  0  0  0  0  0  0
    3.8915    1.0548    0.0021 C   0  0  0  0  0  0  0  0  0  0  0  0
    3.5433   -1.7543    0.0049 C   0  0  0  0  0  0  0  0  0  0  0  0
   -4.5311   -1.2359    0.0228 C   0  0  0  0  0  0  0  0  0  0  0  0
    4.9952    0.1942    0.0038 C   0  0  0  0  0  0  0  0  0  0  0  0
    4.8215   -1.1885    0.0053 C   0  0  0  0  0  0  0  0  0  0  0  0
   -4.2361    1.5908   -0.0098 C   0  0  0  0  0  0  0  0  0  0  0  0
   -5.6499   -0.4032    0.0209 C   0  0  0  0  0  0  0  0  0  0  0  0
   -5.5045    0.9975    0.0048 C   0  0  0  0  0  0  0  0  0  0  0  0
  1 17  1  0
  2 10  1  0
  3 12  2  0
  4  6  1  0
  4  8  1  0
  5  9  2  0
  5 13  1  0
  6  9  1  0
  6 10  2  0
  7  8  2  0
  7 10  1  0
  7 14  1  0
  8 15  1  0
  9 12  1  0
 11 12  1  0
 11 13  2  0
 11 16  1  0
 13 19  1  0
 14 17  2  0
 15 18  2  0
 16 20  2  0
 17 18  1  0
 19 21  2  0
 20 21  1  0
M  END
>  <PUBCHEM_COMPOUND_CID>  (1) 
22993

>  <PUBCHEM_CONFORMER_RMSD>  (1) 
0.6

>  <PUBCHEM_CONFORMER_DIVERSEORDER>  (1) 
1
5
3
2
4

>  <PUBCHEM_MMFF94_PARTIAL_CHARGES>  (1) 
29
1 -0.11
10 0.06
11 0.09
12 0.48
13 0.18
14 -0.15
15 -0.15
16 -0.15
17 0.11
18 -0.15
19 -0.15
2 -0.51
20 -0.15
21 -0.15
22 0.27
23 0.15
24 0.15
25 0.15
26 0.15
27 0.15
28 0.15
29 0.15
3 -0.57
30 0.45
4 0.03
5 -0.63
6 -0.24
8 -0.15
9 0.53

>  <PUBCHEM_EFFECTIVE_ROTOR_COUNT>  (1) 
1

>  <PUBCHEM_PHARMACOPHORE_FEATURES>  (1) 
10
1 1 hydrophobe
1 2 donor
1 3 acceptor
1 4 cation
1 4 donor
1 5 acceptor
5 4 6 7 8 10 rings
5 5 9 11 12 13 rings
6 11 13 16 19 20 21 rings
6 7 8 14 15 17 18 rings

>  <PUBCHEM_HEAVY_ATOM_COUNT>  (1) 
21

>  <PUBCHEM_ATOM_DEF_STEREO_COUNT>  (1) 
0

>  <PUBCHEM_ATOM_UDEF_STEREO_COUNT>  (1) 
0

>  <PUBCHEM_BOND_DEF_STEREO_COUNT>  (1) 
0

>  <PUBCHEM_BOND_UDEF_STEREO_COUNT>  (1) 
1

>  <PUBCHEM_ISOTOPIC_ATOM_COUNT>  (1) 
0

>  <PUBCHEM_COMPONENT_COUNT>  (1) 
1

>  <PUBCHEM_CACTVS_TAUTO_COUNT>  (1) 
24

>  <PUBCHEM_CONFORMER_ID>  (1) 
000059D100000001

>  <PUBCHEM_MMFF94_ENERGY>  (1) 
51.3691

>  <PUBCHEM_FEATURE_SELFOVERLAP>  (1) 
50.935

>  <PUBCHEM_SHAPE_FINGERPRINT>  (1) 
10 15 18335133246229435616
10366900 7 16558750105030446706
10595046 47 18410855464428403851
10906281 52 18269011858896381384
10968037 39 18410294726393696103
11315181 36 17917997195476851289
11578080 2 16986579016987726394
12107183 9 17618222806226743185
12236239 1 18411136922225251826
12516196 113 18202281411923146456
12788726 201 17703796864298641736
12838862 33 18338216233097945548
13073987 5 18409168775063388083
13167823 11 18410853256979088295
13533116 47 17560802078956779598
14251764 18 18410292523128292195
14341114 176 18411425002951354027
15042514 8 18265337399265871339
15099037 51 18410573976978397439
15196674 1 18410573968050846151
15788980 27 18260270741371205208
17834072 33 18413669123316047838
17844677 252 18411707573139950633
1813 80 17095244700727934692
18681886 176 18271239529995410544
19141452 34 18412261761439053671
200 152 18059853965674200003
20645477 70 18341896238829934942
21033648 29 18115009854069950437
21267235 1 18410864260548020683
21279426 13 18267022752077751029
21421861 104 17823969053446618986
221490 88 18263370363455324219
23402539 116 18272082799589765997
23536379 177 18408603643319256416
23559900 14 18343014536174963984
23622692 118 17842829186461062847
239999 70 18272093765005685414
300161 21 18411695491776235370
3004659 81 18261676974585099270
335352 9 18410855464438979773
34797466 226 17346323734671820764
34934 24 18410852166442465026
350125 39 18410575084916845173
3545911 37 18411982472795563456
4073 2 18041003976993396634
4214541 1 18410575072189770081
4325135 7 18259706709993399972
4340502 62 16515402967749980234
4463277 17 18410856564430778468
5104073 3 18410012121951428651
542803 24 18410854356321566724
59755656 215 18411987936500645870
59755656 520 17095239245792960362
67856867 119 18263083373862451068
77779 3 18410293609696930759
9709674 26 18410862091932797903

>  <PUBCHEM_SHAPE_MULTIPOLES>  (1) 
416.41
14.49
1.91
0.61
3.97
0.12
0
-1.83
-0.07
-0.07
0.01
0.06
-0.01
0.01

>  <PUBCHEM_SHAPE_SELFOVERLAP>  (1) 
935.906

>  <PUBCHEM_SHAPE_VOLUME>  (1) 
227.3

>  <PUBCHEM_COORDINATE_TYPE>  (1) 
2
5
10

$$$$
