22997
     RDKit          3D

 22 23  0  0  0  0  0  0  0  0999 V2000
    0.0512    1.9294   -0.0022 O   0  0  0  0  0  0  0  0  0  0  0  0
   -5.7206   -0.2778    1.0955 O   0  0  0  0  0  0  0  0  0  0  0  0
   -5.7177   -0.2823   -1.0998 O   0  0  0  0  0  0  0  0  0  0  0  0
    4.6215    1.0309    0.0047 N   0  0  0  0  0  0  0  0  0  0  0  0
    1.5233   -2.4896    0.0117 N   0  0  0  0  0  0  0  0  0  0  0  0
    3.0962   -0.7503    0.0086 N   0  0  0  0  0  0  0  0  0  0  0  0
    0.7435   -0.2782    0.0050 N   0  0  0  0  0  0  0  0  0  0  0  0
    2.3288    1.5232    0.0018 N   0  0  0  0  0  0  0  0  0  0  0  0
   -5.1514   -0.0625   -0.0019 N   0  0  0  0  0  0  0  0  0  0  0  0
    5.7401    0.1410    0.0077 C   0  0  0  0  0  0  0  0  0  0  0  0
    0.1933   -3.0133    0.0118 C   0  0  0  0  0  0  0  0  0  0  0  0
    3.2838    0.5794    0.0052 C   0  0  0  0  0  0  0  0  0  0  0  0
    1.8012   -1.1054    0.0082 C   0  0  0  0  0  0  0  0  0  0  0  0
   -1.2199    1.4428   -0.0023 C   0  0  0  0  0  0  0  0  0  0  0  0
    1.0907    1.0146    0.0018 C   0  0  0  0  0  0  0  0  0  0  0  0
    7.0514    0.9075   -0.0285 C   0  0  0  0  0  0  0  0  0  0  0  0
    0.2014   -4.5323   -0.0189 C   0  0  0  0  0  0  0  0  0  0  0  0
   -1.8724    1.1972    1.2059 C   0  0  0  0  0  0  0  0  0  0  0  0
   -1.8705    1.1900   -1.2101 C   0  0  0  0  0  0  0  0  0  0  0  0
   -3.8256    0.4458   -0.0011 C   0  0  0  0  0  0  0  0  0  0  0  0
   -3.1751    0.6986    1.2065 C   0  0  0  0  0  0  0  0  0  0  0  0
   -3.1733    0.6915   -1.2095 C   0  0  0  0  0  0  0  0  0  0  0  0
  1 14  1  0
  1 15  1  0
  2  9  1  0
  3  9  2  0
  4 10  1  0
  4 12  1  0
  5 11  1  0
  5 13  1  0
  6 12  2  0
  6 13  1  0
  7 13  2  0
  7 15  1  0
  8 12  1  0
  8 15  2  0
  9 20  1  0
 10 16  1  0
 11 17  1  0
 14 18  2  0
 14 19  1  0
 18 21  1  0
 19 22  2  0
 20 21  2  0
 20 22  1  0
M  CHG  2   2  -1   9   1
M  END
>  <PUBCHEM_COMPOUND_CID>  (1) 
22997

>  <PUBCHEM_CONFORMER_RMSD>  (1) 
0.8

>  <PUBCHEM_CONFORMER_DIVERSEORDER>  (1) 
1
7
15
24
20
22
19
30
17
23
18
13
32
11
33
10
27
21
37
5
16
8
28
25
2
14
31
9
6
26
3
36
38
4
12
34
35
29

>  <PUBCHEM_MMFF94_PARTIAL_CHARGES>  (1) 
26
1 -0.17
10 0.37
11 0.37
12 0.72
13 0.72
14 0.08
15 0.7
18 -0.15
19 -0.15
2 -0.52
20 0.13
21 -0.15
22 -0.15
27 0.4
28 0.4
3 -0.52
35 0.15
36 0.15
37 0.15
38 0.15
4 -0.87
5 -0.87
6 -0.62
7 -0.62
8 -0.62
9 0.91

>  <PUBCHEM_EFFECTIVE_ROTOR_COUNT>  (1) 
7

>  <PUBCHEM_PHARMACOPHORE_FEATURES>  (1) 
9
1 2 acceptor
1 2 anion
1 3 acceptor
1 4 donor
1 5 donor
4 4 6 8 12 cation
4 5 6 7 13 cation
6 14 18 19 20 21 22 rings
6 6 7 8 12 13 15 rings

>  <PUBCHEM_HEAVY_ATOM_COUNT>  (1) 
22

>  <PUBCHEM_ATOM_DEF_STEREO_COUNT>  (1) 
0

>  <PUBCHEM_ATOM_UDEF_STEREO_COUNT>  (1) 
0

>  <PUBCHEM_BOND_DEF_STEREO_COUNT>  (1) 
0

>  <PUBCHEM_BOND_UDEF_STEREO_COUNT>  (1) 
0

>  <PUBCHEM_ISOTOPIC_ATOM_COUNT>  (1) 
0

>  <PUBCHEM_COMPONENT_COUNT>  (1) 
1

>  <PUBCHEM_CACTVS_TAUTO_COUNT>  (1) 
5

>  <PUBCHEM_CONFORMER_ID>  (1) 
000059D500000001

>  <PUBCHEM_MMFF94_ENERGY>  (1) 
68.4352

>  <PUBCHEM_FEATURE_SELFOVERLAP>  (1) 
45.795

>  <PUBCHEM_SHAPE_FINGERPRINT>  (1) 
10 15 17968652831248412528
1100329 8 18268429212481734848
12236239 1 17703792513370351448
12596602 18 17131829911081835539
12838862 33 18339343232827502925
13052359 8 18336829809597878538
13583140 156 17095242536376049680
13836976 161 18333454261444599468
14787075 74 17989487445852181072
14863182 85 18335714814159144758
15238133 3 10519711141186905915
15849732 13 17676490566912741028
17138139 8 17771034350206767431
17980427 23 16950573150994282820
18681886 176 18334291015605877656
19427546 20 17974297814044061292
19489759 90 16008746900968304436
200 152 18413105048445633545
20028762 73 18201715193104377150
20344682 1 17894628149596813085
20645477 70 18189608354695904191
21054139 6 18342733048529577295
21236236 1 18268709579473090158
21344244 181 17916883352118806726
21521721 280 18342178912171028248
22079108 93 18201994461121680800
22224240 67 18342174487821501937
23536379 177 15769780139647505892
23557571 272 17095518457422158733
23559900 14 15936412290240729444
283562 15 18270966735222088456
33824 294 18408886204796358667
474229 33 18408041818789808202
5486654 2 18411984680524928180
59755656 520 18412259566969345350
6669772 16 18342742884654077654
9971528 1 8069735266028262838

>  <PUBCHEM_SHAPE_MULTIPOLES>  (1) 
405.26
12.65
3.1
0.96
6.65
5.83
0
-4.35
0.05
0.98
0.01
-1.25
-0.25
-0.01

>  <PUBCHEM_SHAPE_SELFOVERLAP>  (1) 
849.058

>  <PUBCHEM_SHAPE_VOLUME>  (1) 
225.4

>  <PUBCHEM_COORDINATE_TYPE>  (1) 
2
5
10

$$$$
