23006
     RDKit          3D

 29 31  0  0  0  0  0  0  0  0999 V2000
   -3.7577    4.2024   -0.4123 O   0  0  0  0  0  0  0  0  0  0  0  0
   -4.8014   -3.2359    1.4039 O   0  0  0  0  0  0  0  0  0  0  0  0
   -3.7332    0.2226   -1.1686 O   0  0  0  0  0  0  0  0  0  0  0  0
   -2.1376    1.9485    0.1705 N   0  0  0  0  0  0  0  0  0  0  0  0
   -0.6225   -1.2263   -0.7704 N   0  0  0  0  0  0  0  0  0  0  0  0
    0.1378    1.2659    0.1611 N   0  0  0  0  0  0  0  0  0  0  0  0
   -3.2561   -1.9814   -0.6285 N   0  0  0  0  0  0  0  0  0  0  0  0
    2.3575    0.6072    0.1553 N   0  0  0  0  0  0  0  0  0  0  0  0
    2.9872   -1.5995   -0.5407 N   0  0  0  0  0  0  0  0  0  0  0  0
    1.3213   -3.1261   -1.2307 N   0  0  0  0  0  0  0  0  0  0  0  0
   -1.1543    0.9639   -0.0705 C   0  0  0  0  0  0  0  0  0  0  0  0
   -1.5307   -0.2678   -0.5310 C   0  0  0  0  0  0  0  0  0  0  0  0
    0.6688   -0.9226   -0.5381 C   0  0  0  0  0  0  0  0  0  0  0  0
    1.0671    0.3304   -0.0681 C   0  0  0  0  0  0  0  0  0  0  0  0
   -1.8226    3.2570    0.6513 C   0  0  0  0  0  0  0  0  0  0  0  0
   -2.9129   -0.6343   -0.7939 C   0  0  0  0  0  0  0  0  0  0  0  0
    1.6806   -1.8391   -0.7527 C   0  0  0  0  0  0  0  0  0  0  0  0
   -3.0970    4.0624    0.8392 C   0  0  0  0  0  0  0  0  0  0  0  0
    3.2525   -0.3680   -0.0909 C   0  0  0  0  0  0  0  0  0  0  0  0
   -4.5810   -2.5045   -0.8733 C   0  0  0  0  0  0  0  0  0  0  0  0
    4.6348   -0.0516    0.1552 C   0  0  0  0  0  0  0  0  0  0  0  0
   -5.4099   -2.4359    0.3980 C   0  0  0  0  0  0  0  0  0  0  0  0
    5.5227   -1.0563    0.5401 C   0  0  0  0  0  0  0  0  0  0  0  0
    5.0866    1.2601    0.0093 C   0  0  0  0  0  0  0  0  0  0  0  0
    6.8622   -0.7492    0.7789 C   0  0  0  0  0  0  0  0  0  0  0  0
    6.4262    1.5670    0.2479 C   0  0  0  0  0  0  0  0  0  0  0  0
    7.3139    0.5625    0.6329 C   0  0  0  0  0  0  0  0  0  0  0  0
   -4.9555    4.9564   -0.2875 C   0  0  0  0  0  0  0  0  0  0  0  0
   -5.5468   -3.2080    2.6134 C   0  0  0  0  0  0  0  0  0  0  0  0
  1 18  1  0
  1 28  1  0
  2 22  1  0
  2 29  1  0
  3 16  2  0
  4 11  1  0
  4 15  1  0
  5 12  2  0
  5 13  1  0
  6 11  2  0
  6 14  1  0
  7 16  1  0
  7 20  1  0
  8 14  1  0
  8 19  2  0
  9 17  2  0
  9 19  1  0
 10 17  1  0
 11 12  1  0
 12 16  1  0
 13 14  2  0
 13 17  1  0
 15 18  1  0
 19 21  1  0
 20 22  1  0
 21 23  2  0
 21 24  1  0
 23 25  1  0
 24 26  2  0
 25 27  2  0
 26 27  1  0
M  END
>  <PUBCHEM_COMPOUND_CID>  (1) 
23006

>  <PUBCHEM_CONFORMER_RMSD>  (1) 
1

>  <PUBCHEM_CONFORMER_DIVERSEORDER>  (1) 
1
8
12
7
10
4
13
20
5
11
15
14
6
18
17
19
9
16
3
2

>  <PUBCHEM_MMFF94_PARTIAL_CHARGES>  (1) 
37
1 -0.56
10 -0.9
11 0.41
12 0.4
13 0.31
14 0.62
15 0.37
16 0.54
17 0.41
18 0.28
19 0.62
2 -0.56
20 0.3
22 0.28
23 -0.15
24 -0.15
25 -0.15
26 -0.15
27 -0.15
28 0.28
29 0.28
3 -0.57
32 0.4
37 0.37
4 -0.87
40 0.15
41 0.15
42 0.4
43 0.4
44 0.15
45 0.15
46 0.15
5 -0.62
6 -0.62
7 -0.73
8 -0.62
9 -0.62

>  <PUBCHEM_EFFECTIVE_ROTOR_COUNT>  (1) 
10

>  <PUBCHEM_PHARMACOPHORE_FEATURES>  (1) 
14
1 1 acceptor
1 10 cation
1 10 donor
1 2 acceptor
1 3 acceptor
1 4 donor
1 5 acceptor
1 7 donor
3 4 6 11 cation
3 6 8 14 cation
3 8 9 19 cation
6 21 23 24 25 26 27 rings
6 5 6 11 12 13 14 rings
6 8 9 13 14 17 19 rings

>  <PUBCHEM_HEAVY_ATOM_COUNT>  (1) 
29

>  <PUBCHEM_ATOM_DEF_STEREO_COUNT>  (1) 
0

>  <PUBCHEM_ATOM_UDEF_STEREO_COUNT>  (1) 
0

>  <PUBCHEM_BOND_DEF_STEREO_COUNT>  (1) 
0

>  <PUBCHEM_BOND_UDEF_STEREO_COUNT>  (1) 
0

>  <PUBCHEM_ISOTOPIC_ATOM_COUNT>  (1) 
0

>  <PUBCHEM_COMPONENT_COUNT>  (1) 
1

>  <PUBCHEM_CACTVS_TAUTO_COUNT>  (1) 
33

>  <PUBCHEM_CONFORMER_ID>  (1) 
000059DE00000001

>  <PUBCHEM_MMFF94_ENERGY>  (1) 
95.8993

>  <PUBCHEM_FEATURE_SELFOVERLAP>  (1) 
71.273

>  <PUBCHEM_SHAPE_FINGERPRINT>  (1) 
10050765 1 18269552728645019558
10411042 1 18197207273409501423
10595046 47 18409725184620458800
12107183 9 17906160760411399466
12166972 35 17895190069343535692
12236239 1 18187635921831775654
12596602 18 17895464908680072282
12788726 201 18336817671629819507
13073987 5 18411692189542444970
13540713 4 18058180426977234238
13947935 32 18336550516301615184
14790565 3 18342172281057981900
16087824 20 18342734089114676781
19427546 20 18411978048731952669
20642791 105 18413385432521938448
21236236 1 18271518719828350276
21267235 1 18412826915681258590
21796203 349 17976847572339197267
249057 25 17967534588930265564
2747138 104 18337678632574203698
283562 15 18411131446485185127
3418910 222 18042413594003294660
350125 39 18272366507881320864
4073 2 18336547119118822058
469060 322 18200609071616358712
5104073 3 18341887447385016058
5969126 39 18201143439021263413
6009941 240 18040995164263765259
9862886 166 17458904971506268355

>  <PUBCHEM_SHAPE_MULTIPOLES>  (1) 
544.33
16.68
5.28
1.22
18.7
5.93
0.61
-1.98
5.79
-13.86
0.97
-1.84
-1.16
2.11

>  <PUBCHEM_SHAPE_SELFOVERLAP>  (1) 
1161.994

>  <PUBCHEM_SHAPE_VOLUME>  (1) 
300.3

>  <PUBCHEM_COORDINATE_TYPE>  (1) 
2
5
10

$$$$
