23007
     RDKit          3D

 17 17  0  0  0  0  0  0  0  0999 V2000
   -0.0074    4.5068    0.0020 Cl  0  0  0  0  0  0  0  0  0  0  0  0
    4.0561   -3.0268    0.0606 O   0  0  0  0  0  0  0  0  0  0  0  0
   -4.0188   -3.0450   -0.0596 O   0  0  0  0  0  0  0  0  0  0  0  0
    4.8110   -0.8851   -0.0265 O   0  0  0  0  0  0  0  0  0  0  0  0
   -4.8109   -0.9166    0.0265 O   0  0  0  0  0  0  0  0  0  0  0  0
    2.3359    0.1491   -0.0181 N   0  0  0  0  0  0  0  0  0  0  0  0
   -2.3546    0.1517    0.0177 N   0  0  0  0  0  0  0  0  0  0  0  0
   -0.0094    0.1178   -0.0002 N   0  0  0  0  0  0  0  0  0  0  0  0
   -1.2080    2.1965    0.0086 N   0  0  0  0  0  0  0  0  0  0  0  0
    1.1915    2.1952   -0.0098 N   0  0  0  0  0  0  0  0  0  0  0  0
    1.1330    0.8433   -0.0090 C   0  0  0  0  0  0  0  0  0  0  0  0
   -1.1310    0.8559    0.0081 C   0  0  0  0  0  0  0  0  0  0  0  0
    2.4342   -1.2857   -0.0185 C   0  0  0  0  0  0  0  0  0  0  0  0
   -2.4274   -1.2759    0.0188 C   0  0  0  0  0  0  0  0  0  0  0  0
   -0.0080    2.7989   -0.0008 C   0  0  0  0  0  0  0  0  0  0  0  0
    3.8825   -1.6825   -0.0017 C   0  0  0  0  0  0  0  0  0  0  0  0
   -3.8688   -1.6978    0.0021 C   0  0  0  0  0  0  0  0  0  0  0  0
  1 15  1  0
  2 16  1  0
  3 17  1  0
  4 16  2  0
  5 17  2  0
  6 11  1  0
  6 13  1  0
  7 12  1  0
  7 14  1  0
  8 11  2  0
  8 12  1  0
  9 12  2  0
  9 15  1  0
 10 11  1  0
 10 15  2  0
 13 16  1  0
 14 17  1  0
M  END
>  <PUBCHEM_COMPOUND_CID>  (1) 
23007

>  <PUBCHEM_CONFORMER_RMSD>  (1) 
0.8

>  <PUBCHEM_CONFORMER_DIVERSEORDER>  (1) 
1
28
18
20
5
30
31
22
10
11
26
19
15
12
3
33
7
9
29
27
21
23
13
25
16
32
8
14
2
17
24
6
4

>  <PUBCHEM_MMFF94_PARTIAL_CHARGES>  (1) 
21
1 -0.18
10 -0.62
11 0.72
12 0.72
13 0.43
14 0.43
15 0.8
16 0.66
17 0.66
2 -0.65
22 0.4
23 0.4
24 0.5
25 0.5
3 -0.65
4 -0.57
5 -0.57
6 -0.87
7 -0.87
8 -0.62
9 -0.62

>  <PUBCHEM_EFFECTIVE_ROTOR_COUNT>  (1) 
6

>  <PUBCHEM_PHARMACOPHORE_FEATURES>  (1) 
11
1 2 acceptor
1 3 acceptor
1 4 acceptor
1 5 acceptor
1 6 donor
1 7 donor
3 2 4 16 anion
3 3 5 17 anion
4 6 8 10 11 cation
4 7 8 9 12 cation
6 8 9 10 11 12 15 rings

>  <PUBCHEM_HEAVY_ATOM_COUNT>  (1) 
17

>  <PUBCHEM_ATOM_DEF_STEREO_COUNT>  (1) 
0

>  <PUBCHEM_ATOM_UDEF_STEREO_COUNT>  (1) 
0

>  <PUBCHEM_BOND_DEF_STEREO_COUNT>  (1) 
0

>  <PUBCHEM_BOND_UDEF_STEREO_COUNT>  (1) 
0

>  <PUBCHEM_ISOTOPIC_ATOM_COUNT>  (1) 
0

>  <PUBCHEM_COMPONENT_COUNT>  (1) 
1

>  <PUBCHEM_CACTVS_TAUTO_COUNT>  (1) 
5

>  <PUBCHEM_CONFORMER_ID>  (1) 
000059DF00000001

>  <PUBCHEM_MMFF94_ENERGY>  (1) 
36.4091

>  <PUBCHEM_FEATURE_SELFOVERLAP>  (1) 
55.978

>  <PUBCHEM_SHAPE_FINGERPRINT>  (1) 
10616163 171 18123470471518067166
11056379 131 18195539086583969054
11265709 11 18410299102960108865
12107183 9 18341628005827917227
12553582 1 18338819856328499375
12841375 25 18410291423584950863
12969540 37 18119244214586362935
13533116 47 18052539065645669315
138480 1 14880032922772989313
13955234 65 17980204411381917305
14866123 147 17979918207620008675
15042514 8 18194688064209614713
15352361 1 18410573989478736063
15422964 175 18339349851182292944
15442244 35 18340493356724571449
17134986 127 9151183060020626904
17492 89 18122906697152620483
17539 30 18194672683747274085
17859628 70 18049729821425080731
20291156 8 18410572889935251883
204376 136 9367345942298070887
20645477 70 18047178933253255231
20671657 53 18411985792784203723
20871998 22 18411415145912044344
21426921 1 18194403286745704380
21452121 199 18335413595481557256
21478907 32 18337671893411624883
21665056 4 17545598955290124860
221490 88 18190747633616083379
2255824 54 17979076307745706541
23526113 38 18042123331121705569
23530152 11 17184472564334510701
23559900 14 18267014145485581017
257057 1 18410575084668860365
3091708 16 9137772312154100169
314173 41 18338524130808666719
3421961 26 18340205318420413699
4416823 128 18410855468723397127
54173680 148 18266740173431952212
7364860 26 18122906692176677481
77188 2 18410856581120563509
9709674 26 18046907358086653707

>  <PUBCHEM_SHAPE_MULTIPOLES>  (1) 
303.34
8.12
4.77
0.57
0.14
4.55
0
-11.46
0
-0.06
0
0
0.04
-0.06

>  <PUBCHEM_SHAPE_SELFOVERLAP>  (1) 
610.793

>  <PUBCHEM_SHAPE_VOLUME>  (1) 
175.7

>  <PUBCHEM_COORDINATE_TYPE>  (1) 
2
5
10

$$$$
