23013
     RDKit          3D

 18 19  0  0  0  0  0  0  0  0999 V2000
    4.5227   -1.9213    0.7674 Br  0  0  0  0  0  0  0  0  0  0  0  0
   -1.1127   -0.3860   -0.9732 N   0  0  0  0  0  0  0  0  0  0  0  0
   -1.8490   -0.2741    0.0305 N   0  0  0  0  0  0  0  0  0  0  0  0
   -4.7034   -1.9671    0.5465 N   0  0  0  0  0  0  0  0  0  0  0  0
   -3.8343    2.3501    0.7028 N   0  0  0  0  0  0  0  0  0  0  0  0
    1.1261    0.3629   -0.3154 C   0  0  0  0  0  0  0  0  0  0  0  0
    2.4400    0.0275    0.0897 C   0  0  0  0  0  0  0  0  0  0  0  0
    0.2021   -0.6640   -0.5690 C   0  0  0  0  0  0  0  0  0  0  0  0
    2.7910   -1.3252    0.2295 C   0  0  0  0  0  0  0  0  0  0  0  0
    0.7749    1.7154   -0.4555 C   0  0  0  0  0  0  0  0  0  0  0  0
    3.3638    1.0544    0.3428 C   0  0  0  0  0  0  0  0  0  0  0  0
    0.5682   -2.0026   -0.4249 C   0  0  0  0  0  0  0  0  0  0  0  0
    1.8601   -2.3326   -0.0261 C   0  0  0  0  0  0  0  0  0  0  0  0
    1.7055    2.7229   -0.1995 C   0  0  0  0  0  0  0  0  0  0  0  0
    2.9976    2.3929    0.1989 C   0  0  0  0  0  0  0  0  0  0  0  0
   -3.2326    0.0179   -0.3426 C   0  0  0  0  0  0  0  0  0  0  0  0
   -4.0523   -1.0895    0.1554 C   0  0  0  0  0  0  0  0  0  0  0  0
   -3.5676    1.3186    0.2426 C   0  0  0  0  0  0  0  0  0  0  0  0
  1  9  1  0
  2  3  2  0
  2  8  1  0
  3 16  1  0
  4 17  3  0
  5 18  3  0
  6  7  1  0
  6  8  2  0
  6 10  1  0
  7  9  2  0
  7 11  1  0
  8 12  1  0
  9 13  1  0
 10 14  2  0
 11 15  2  0
 12 13  2  0
 14 15  1  0
 16 17  1  0
 16 18  1  0
M  END
>  <PUBCHEM_COMPOUND_CID>  (1) 
23013

>  <PUBCHEM_CONFORMER_RMSD>  (1) 
0.6

>  <PUBCHEM_CONFORMER_DIVERSEORDER>  (1) 
1
2
11
5
6
7
4
3
8
9
10

>  <PUBCHEM_MMFF94_PARTIAL_CHARGES>  (1) 
22
1 -0.11
10 -0.15
11 -0.15
12 -0.15
13 -0.15
14 -0.15
15 -0.15
16 0.65
17 0.36
18 0.36
19 0.15
2 -0.18
20 0.15
21 0.15
22 0.15
23 0.15
24 0.15
3 -0.25
4 -0.56
5 -0.56
8 0.18
9 0.11

>  <PUBCHEM_EFFECTIVE_ROTOR_COUNT>  (1) 
2

>  <PUBCHEM_PHARMACOPHORE_FEATURES>  (1) 
5
1 1 hydrophobe
1 4 acceptor
1 5 acceptor
6 6 7 10 11 14 15 rings
6 6 7 8 9 12 13 rings

>  <PUBCHEM_HEAVY_ATOM_COUNT>  (1) 
18

>  <PUBCHEM_ATOM_DEF_STEREO_COUNT>  (1) 
0

>  <PUBCHEM_ATOM_UDEF_STEREO_COUNT>  (1) 
0

>  <PUBCHEM_BOND_DEF_STEREO_COUNT>  (1) 
0

>  <PUBCHEM_BOND_UDEF_STEREO_COUNT>  (1) 
0

>  <PUBCHEM_ISOTOPIC_ATOM_COUNT>  (1) 
0

>  <PUBCHEM_COMPONENT_COUNT>  (1) 
1

>  <PUBCHEM_CACTVS_TAUTO_COUNT>  (1) 
1

>  <PUBCHEM_CONFORMER_ID>  (1) 
000059E500000001

>  <PUBCHEM_MMFF94_ENERGY>  (1) 
42.6142

>  <PUBCHEM_FEATURE_SELFOVERLAP>  (1) 
25.398

>  <PUBCHEM_SHAPE_FINGERPRINT>  (1) 
10366900 7 18117852207448780969
10465860 228 18413110541418537804
10493431 412 18050280664055611488
10967382 1 18338512057892597748
10980938 120 18410575114960062644
12507557 5 18411412878443358843
12633257 1 18263081016114796329
13140716 1 18339920420344582304
13675066 3 17917985049515228530
14289901 80 18340486763696506147
14341114 176 18408610275075899963
14790565 3 18336551642004962012
15042514 8 17545314178121964530
15196674 1 18410855451622831120
15442244 35 18411417284837146292
1601671 61 18270685238754008678
16945 1 18192692635752843412
17492 89 18411702093194528899
19050596 39 18412549812516914619
20028762 73 18271518801391362807
20681677 274 18334577992525092579
20681677 76 18334849524699602533
20739085 24 18335422331719408780
21041028 32 18341045229640779620
21524375 3 17984992745312495701
221490 88 18408328791087527811
23184049 59 18340476807925293150
23557571 272 13110090142193254589
23559900 14 18409160009409728643
2748010 2 18122034561187771380
2838139 119 14835830855310139496
3286 77 18260829310511044031
5104073 3 18411139130228819945
6333272 397 18266459995492796671
7364860 26 18412545439876152078
84936 182 18130219484142222688
9709674 26 18261678181133384035

>  <PUBCHEM_SHAPE_MULTIPOLES>  (1) 
356.45
8.64
3.14
0.8
7.41
1
0
-2.11
-2.59
-1.32
-0.28
0
-0.05
-0.42

>  <PUBCHEM_SHAPE_SELFOVERLAP>  (1) 
754.195

>  <PUBCHEM_SHAPE_VOLUME>  (1) 
202.8

>  <PUBCHEM_COORDINATE_TYPE>  (1) 
2
5
10

$$$$
