23027
     RDKit          3D

 20 20  0  0  0  0  0  0  0  0999 V2000
   -1.2836   -1.3044   -0.7432 O   0  0  0  0  0  0  0  0  0  0  0  0
   -1.0427    2.3536    0.8696 O   0  0  0  0  0  0  0  0  0  0  0  0
    5.1990   -1.0600   -0.1472 O   0  0  0  0  0  0  0  0  0  0  0  0
    3.7643    0.7655    0.2624 N   0  0  0  0  0  0  0  0  0  0  0  0
   -2.1665    1.1476   -0.7612 N   0  0  0  0  0  0  0  0  0  0  0  0
    0.0975    0.5483   -0.0997 C   0  0  0  0  0  0  0  0  0  0  0  0
   -0.0499   -0.7815   -0.4938 C   0  0  0  0  0  0  0  0  0  0  0  0
    2.4926    0.2503    0.0099 C   0  0  0  0  0  0  0  0  0  0  0  0
    1.3687    1.0643    0.1522 C   0  0  0  0  0  0  0  0  0  0  0  0
    1.0739   -1.5954   -0.6361 C   0  0  0  0  0  0  0  0  0  0  0  0
    2.3452   -1.0795   -0.3841 C   0  0  0  0  0  0  0  0  0  0  0  0
   -1.0630    1.4142    0.0561 C   0  0  0  0  0  0  0  0  0  0  0  0
   -3.3813    1.9303   -0.7412 C   0  0  0  0  0  0  0  0  0  0  0  0
   -1.6894   -2.4149    0.0540 C   0  0  0  0  0  0  0  0  0  0  0  0
    4.9978    0.1066    0.1747 C   0  0  0  0  0  0  0  0  0  0  0  0
   -4.3219    1.3454    0.2591 C   0  0  0  0  0  0  0  0  0  0  0  0
    6.1453    1.0181    0.5308 C   0  0  0  0  0  0  0  0  0  0  0  0
   -3.1689   -2.3553    0.2423 C   0  0  0  0  0  0  0  0  0  0  0  0
   -5.5502    0.9074   -0.0395 C   0  0  0  0  0  0  0  0  0  0  0  0
   -3.7669   -2.2606    1.4349 C   0  0  0  0  0  0  0  0  0  0  0  0
  1  7  1  0
  1 14  1  0
  2 12  2  0
  3 15  2  0
  4  8  1  0
  4 15  1  0
  5 12  1  0
  5 13  1  0
  6  7  2  0
  6  9  1  0
  6 12  1  0
  7 10  1  0
  8  9  2  0
  8 11  1  0
 10 11  2  0
 13 16  1  0
 14 18  1  0
 15 17  1  0
 16 19  2  0
 18 20  2  0
M  END
>  <PUBCHEM_COMPOUND_CID>  (1) 
23027

>  <PUBCHEM_CONFORMER_RMSD>  (1) 
0.8

>  <PUBCHEM_CONFORMER_DIVERSEORDER>  (1) 
1
2
46
32
34
40
18
35
10
48
45
64
51
31
26
56
52
33
21
17
28
13
66
39
61
53
23
4
30
15
59
7
27
54
20
8
44
6
67
19
43
11
49
62
3
58
42
22
57
38
14
36
5
24
37
47
12
55
41
29
50
16
9
60
25
63
65

>  <PUBCHEM_MMFF94_PARTIAL_CHARGES>  (1) 
31
1 -0.36
10 -0.15
11 -0.15
12 0.54
13 0.44
14 0.42
15 0.57
16 -0.29
17 0.06
18 -0.29
19 -0.3
2 -0.57
20 -0.3
21 0.15
22 0.15
23 0.15
24 0.37
25 0.37
3 -0.57
30 0.15
34 0.15
35 0.15
36 0.15
37 0.15
38 0.15
4 -0.55
5 -0.73
6 0.09
7 0.08
8 0.12
9 -0.15

>  <PUBCHEM_EFFECTIVE_ROTOR_COUNT>  (1) 
9

>  <PUBCHEM_PHARMACOPHORE_FEATURES>  (1) 
8
1 1 acceptor
1 19 hydrophobe
1 2 acceptor
1 20 hydrophobe
1 3 acceptor
1 4 donor
1 5 donor
6 6 7 8 9 10 11 rings

>  <PUBCHEM_HEAVY_ATOM_COUNT>  (1) 
20

>  <PUBCHEM_ATOM_DEF_STEREO_COUNT>  (1) 
0

>  <PUBCHEM_ATOM_UDEF_STEREO_COUNT>  (1) 
0

>  <PUBCHEM_BOND_DEF_STEREO_COUNT>  (1) 
0

>  <PUBCHEM_BOND_UDEF_STEREO_COUNT>  (1) 
0

>  <PUBCHEM_ISOTOPIC_ATOM_COUNT>  (1) 
0

>  <PUBCHEM_COMPONENT_COUNT>  (1) 
1

>  <PUBCHEM_CACTVS_TAUTO_COUNT>  (1) 
4

>  <PUBCHEM_CONFORMER_ID>  (1) 
000059F300000001

>  <PUBCHEM_MMFF94_ENERGY>  (1) 
54.1469

>  <PUBCHEM_FEATURE_SELFOVERLAP>  (1) 
40.596

>  <PUBCHEM_SHAPE_FINGERPRINT>  (1) 
11680986 33 18269564853063311638
12035758 1 18336844039130063689
12403259 415 18059572564097315384
13140716 1 18340766056350185136
13402501 40 18412546505486899307
14787075 74 18272079466785068349
15196674 1 18412543224010669854
15295992 7 17774991423318412080
18915476 22 17417825997511580390
21236236 1 18340764927248169743
22182313 1 18129961013047006470
22224240 67 18411421670980236417
23402539 116 18272641325294719653
23419403 2 17488171785283609011
23557571 272 18341345469419251798
23558518 356 17769671801400918545
23559900 14 18343018844950262782
2748010 2 18271804661322615893
350125 39 18338801250946988972
3545911 37 18411699855684664804
474229 33 18412824651616133317
5104073 3 18410283723610637546
59755656 215 18341057307273731598

>  <PUBCHEM_SHAPE_MULTIPOLES>  (1) 
384.02
11.43
2.69
0.88
9.51
0.89
-0.1
-2.37
-2.02
-3.33
-0.31
-0.43
0.14
1.19

>  <PUBCHEM_SHAPE_SELFOVERLAP>  (1) 
783.812

>  <PUBCHEM_SHAPE_VOLUME>  (1) 
221

>  <PUBCHEM_COORDINATE_TYPE>  (1) 
2
5
10

$$$$
