23028
     RDKit          3D

 17 17  0  0  1  0  0  0  0  0999 V2000
   -1.1054   -0.1758    0.0959 O   0  0  0  0  0  0  0  0  0  0  0  0
   -3.8003   -2.1273   -0.0169 O   0  0  0  0  0  0  0  0  0  0  0  0
   -4.0049   -0.5489   -1.5404 O   0  0  0  0  0  0  0  0  0  0  0  0
    0.2524    1.2861   -1.0218 O   0  0  0  0  0  0  0  0  0  0  0  0
   -3.7736   -0.9469   -0.3905 N   0  0  0  0  0  0  0  0  0  0  0  0
    1.1091   -0.4614    0.2794 N   0  0  0  0  0  0  0  0  0  0  0  0
   -3.4591    0.0830    0.6300 C   0  0  0  0  0  0  0  0  0  0  0  0
   -2.1632    0.7763    0.1963 C   0  0  0  0  0  0  0  0  0  0  0  0
   -1.7438    1.8635    1.1803 C   0  0  0  0  0  0  0  0  0  0  0  0
   -4.6821    0.9812    0.7369 C   0  0  0  0  0  0  0  0  0  0  0  0
    0.1170    0.3135   -0.2893 C   0  0  0  0  0  0  0  0  0  0  0  0
    2.5091   -0.3156    0.1500 C   0  0  0  0  0  0  0  0  0  0  0  0
    3.3478   -1.2031    0.8055 C   0  0  0  0  0  0  0  0  0  0  0  0
    3.0160    0.7114   -0.6304 C   0  0  0  0  0  0  0  0  0  0  0  0
    4.7293   -1.0596    0.6776 C   0  0  0  0  0  0  0  0  0  0  0  0
    4.3976    0.8546   -0.7584 C   0  0  0  0  0  0  0  0  0  0  0  0
    5.2542   -0.0310   -0.1043 C   0  0  0  0  0  0  0  0  0  0  0  0
  1  8  1  0
  1 11  1  0
  2  5  1  0
  3  5  2  0
  4 11  2  0
  5  7  1  0
  6 11  1  0
  6 12  1  0
  7  8  1  0
  7 10  1  0
  8  9  1  0
 12 13  2  0
 12 14  1  0
 13 15  1  0
 14 16  2  0
 15 17  2  0
 16 17  1  0
M  CHG  2   2  -1   5   1
M  END
>  <PUBCHEM_COMPOUND_CID>  (1) 
23028

>  <PUBCHEM_CONFORMER_RMSD>  (1) 
0.8

>  <PUBCHEM_CONFORMER_DIVERSEORDER>  (1) 
2
51
21
12
28
7
45
48
30
42
41
1
38
55
8
23
50
32
6
17
20
29
47
14
37
15
49
36
13
16
40
34
43
35
44
31
5
56
18
24
19
25
27
10
53
33
3
4
26
9
54
46
39
11
52
22

>  <PUBCHEM_MMFF94_PARTIAL_CHARGES>  (1) 
21
1 -0.43
11 0.78
12 0.12
13 -0.15
14 -0.15
15 -0.15
16 -0.15
17 -0.15
2 -0.52
26 0.37
27 0.15
28 0.15
29 0.15
3 -0.52
30 0.15
31 0.15
4 -0.57
5 0.8
6 -0.55
7 0.24
8 0.28

>  <PUBCHEM_EFFECTIVE_ROTOR_COUNT>  (1) 
6

>  <PUBCHEM_PHARMACOPHORE_FEATURES>  (1) 
6
1 2 acceptor
1 2 anion
1 3 acceptor
1 4 acceptor
1 6 donor
6 12 13 14 15 16 17 rings

>  <PUBCHEM_HEAVY_ATOM_COUNT>  (1) 
17

>  <PUBCHEM_ATOM_DEF_STEREO_COUNT>  (1) 
0

>  <PUBCHEM_ATOM_UDEF_STEREO_COUNT>  (1) 
2

>  <PUBCHEM_BOND_DEF_STEREO_COUNT>  (1) 
0

>  <PUBCHEM_BOND_UDEF_STEREO_COUNT>  (1) 
0

>  <PUBCHEM_ISOTOPIC_ATOM_COUNT>  (1) 
0

>  <PUBCHEM_COMPONENT_COUNT>  (1) 
1

>  <PUBCHEM_CACTVS_TAUTO_COUNT>  (1) 
4

>  <PUBCHEM_CONFORMER_ID>  (1) 
000059F400000002

>  <PUBCHEM_MMFF94_ENERGY>  (1) 
44.1804

>  <PUBCHEM_FEATURE_SELFOVERLAP>  (1) 
30.525

>  <PUBCHEM_SHAPE_FINGERPRINT>  (1) 
10366900 7 17418087694342694843
10680689 15 15574437626384961139
10912923 1 18410576188844246616
11045515 52 17894909637643432013
11046707 91 18272930544376656139
11471102 20 17749109998338612092
11615757 297 18334859407361555400
12107183 9 17617943526252633968
12236239 1 18408326575110990073
12616971 3 18186807962999238856
13167823 11 18408324380256237682
13675066 3 13973965402480743104
13760787 5 18114183033761767572
14123238 8 9079111154977556360
15375358 24 15574715807148207464
15788980 27 17095522893980456382
17834072 33 18408608071757715876
17844677 252 16343988013630636752
17862501 102 18410573972656972000
18186145 218 14996285820497115733
19050596 39 18341896272709131640
200 152 18333729113244077169
20281475 54 18335416867866620682
20645477 56 14979661192422512248
20645477 70 16878224169648603898
22485316 2 18187081745689320984
22646028 1 18408322185569900514
23402539 116 18413669101809601780
23402655 69 18040150695581717372
23557571 272 17202781296952950136
23559900 14 18342730853695826592
23596394 208 15864344697776827970
300161 21 18411133619479946705
5104073 3 18342740753452811640
573450 72 18341611482012400337
602551 16 17203321260605082198
7495541 125 17561359613140537704
90127 26 14548743884682074450

>  <PUBCHEM_SHAPE_MULTIPOLES>  (1) 
316.41
11.74
1.52
1.05
2.12
0.18
0.09
1.89
-0.19
-0.96
-0.15
-0.36
-0.12
-1.48

>  <PUBCHEM_SHAPE_SELFOVERLAP>  (1) 
647.379

>  <PUBCHEM_SHAPE_VOLUME>  (1) 
182.2

>  <PUBCHEM_COORDINATE_TYPE>  (1) 
2
5
10

$$$$
