23037
     RDKit          3D

 27 30  0  0  0  0  0  0  0  0999 V2000
    2.4963    1.5289    0.0256 N   0  0  0  0  0  0  0  0  0  0  0  0
    4.5110   -2.8316   -0.0354 N   0  0  0  0  0  0  0  0  0  0  0  0
   -5.2182   -1.8369   -0.0302 N   0  0  0  0  0  0  0  0  0  0  0  0
    0.6654    5.9697    0.0902 N   0  0  0  0  0  0  0  0  0  0  0  0
   -0.0422    0.4202    0.0054 C   0  0  0  0  0  0  0  0  0  0  0  0
    1.0794   -0.4154   -0.0053 C   0  0  0  0  0  0  0  0  0  0  0  0
    0.1069    1.8105    0.0263 C   0  0  0  0  0  0  0  0  0  0  0  0
    2.3472    0.1902    0.0057 C   0  0  0  0  0  0  0  0  0  0  0  0
   -1.3811   -0.1647   -0.0040 C   0  0  0  0  0  0  0  0  0  0  0  0
    1.4128    2.3291    0.0359 C   0  0  0  0  0  0  0  0  0  0  0  0
    0.9590   -1.8159   -0.0261 C   0  0  0  0  0  0  0  0  0  0  0  0
    3.3518   -2.0283   -0.0254 C   0  0  0  0  0  0  0  0  0  0  0  0
    3.4677   -0.6362   -0.0048 C   0  0  0  0  0  0  0  0  0  0  0  0
   -1.0025    2.6739    0.0375 C   0  0  0  0  0  0  0  0  0  0  0  0
    2.0950   -2.6197   -0.0361 C   0  0  0  0  0  0  0  0  0  0  0  0
   -2.0062   -0.4199   -1.2161 C   0  0  0  0  0  0  0  0  0  0  0  0
   -2.0078   -0.4550    1.1996 C   0  0  0  0  0  0  0  0  0  0  0  0
    1.5676    3.7126    0.0567 C   0  0  0  0  0  0  0  0  0  0  0  0
   -3.9252   -1.2734   -0.0216 C   0  0  0  0  0  0  0  0  0  0  0  0
    0.4673    4.5735    0.0680 C   0  0  0  0  0  0  0  0  0  0  0  0
   -0.8205    4.0535    0.0584 C   0  0  0  0  0  0  0  0  0  0  0  0
   -3.2849   -0.9771   -1.2250 C   0  0  0  0  0  0  0  0  0  0  0  0
   -3.2865   -1.0122    1.1908 C   0  0  0  0  0  0  0  0  0  0  0  0
    4.4968   -4.1483    0.5702 C   0  0  0  0  0  0  0  0  0  0  0  0
    5.7277   -2.3564   -0.6638 C   0  0  0  0  0  0  0  0  0  0  0  0
   -6.1402   -1.5415   -1.1088 C   0  0  0  0  0  0  0  0  0  0  0  0
   -5.6367   -2.7297    1.0321 C   0  0  0  0  0  0  0  0  0  0  0  0
  1  8  2  0
  1 10  1  0
  2 12  1  0
  2 24  1  0
  2 25  1  0
  3 19  1  0
  3 26  1  0
  3 27  1  0
  4 20  1  0
  5  6  2  0
  5  7  1  0
  5  9  1  0
  6  8  1  0
  6 11  1  0
  7 10  2  0
  7 14  1  0
  8 13  1  0
  9 16  2  0
  9 17  1  0
 10 18  1  0
 11 15  2  0
 12 13  2  0
 12 15  1  0
 14 21  2  0
 16 22  1  0
 17 23  2  0
 18 20  2  0
 19 22  2  0
 19 23  1  0
 20 21  1  0
M  END
>  <PUBCHEM_COMPOUND_CID>  (1) 
23037

>  <PUBCHEM_CONFORMER_RMSD>  (1) 
0.6

>  <PUBCHEM_CONFORMER_DIVERSEORDER>  (1) 
1
2

>  <PUBCHEM_MMFF94_PARTIAL_CHARGES>  (1) 
35
1 -0.62
10 0.31
11 -0.15
12 0.1
13 -0.15
14 -0.15
15 -0.15
16 -0.15
17 -0.15
18 -0.15
19 0.1
2 -0.84
20 0.1
21 -0.15
22 -0.15
23 -0.15
24 0.37
25 0.37
26 0.37
27 0.37
28 0.15
29 0.15
3 -0.84
30 0.15
31 0.15
32 0.15
33 0.15
34 0.15
35 0.15
36 0.15
37 0.15
4 -0.9
50 0.4
51 0.4
8 0.31

>  <PUBCHEM_EFFECTIVE_ROTOR_COUNT>  (1) 
3

>  <PUBCHEM_PHARMACOPHORE_FEATURES>  (1) 
9
1 1 acceptor
1 2 cation
1 3 cation
1 4 cation
1 4 donor
6 1 5 6 7 8 10 rings
6 6 8 11 12 13 15 rings
6 7 10 14 18 20 21 rings
6 9 16 17 19 22 23 rings

>  <PUBCHEM_HEAVY_ATOM_COUNT>  (1) 
27

>  <PUBCHEM_ATOM_DEF_STEREO_COUNT>  (1) 
0

>  <PUBCHEM_ATOM_UDEF_STEREO_COUNT>  (1) 
0

>  <PUBCHEM_BOND_DEF_STEREO_COUNT>  (1) 
0

>  <PUBCHEM_BOND_UDEF_STEREO_COUNT>  (1) 
0

>  <PUBCHEM_ISOTOPIC_ATOM_COUNT>  (1) 
0

>  <PUBCHEM_COMPONENT_COUNT>  (1) 
1

>  <PUBCHEM_CACTVS_TAUTO_COUNT>  (1) 
3

>  <PUBCHEM_CONFORMER_ID>  (1) 
000059FD00000001

>  <PUBCHEM_MMFF94_ENERGY>  (1) 
136.3076

>  <PUBCHEM_FEATURE_SELFOVERLAP>  (1) 
45.733

>  <PUBCHEM_SHAPE_FINGERPRINT>  (1) 
10050765 1 17978229354135489102
10254770 206 15669006230312068947
10411042 1 18411138004710458958
10622 236 17557680733192524575
10693767 8 18058460961746042814
1100329 8 18193558861420667593
11049842 53 14854371795330213131
11578080 2 17416094270945191473
11582403 64 16311266710881397045
11763715 3 18265073369870693958
11991303 11 17612602115744645052
12107183 9 18270132227792832203
12236239 1 17487910105953615521
12293681 4 18050278181390162253
12342043 65 17460901694119580099
12553582 1 18413105061230308878
12730499 353 17903362850983836513
12788726 201 17974564689493171817
13009979 54 17917163735782790619
13134695 92 18410012164858896511
13140716 1 18268711610971476816
13540713 5 17755028502233959806
13617811 41 18336269054953208940
13690498 29 18127701435469690878
13757389 114 17545340583586305684
13785724 45 18270415918413790239
138480 1 18410856611380013112
13911987 19 17900284162697543180
13955234 65 18194968680271760459
14114211 80 17181392811534501357
14790565 3 18049738595933211076
14866123 147 17977665303867957011
15042514 8 18123191195094684873
15230672 131 17398110943090010740
15927050 60 17692818502973198110
16087824 20 17978793412016594373
16992752 21 18339090276982680198
17492 89 18339364192790530347
17539 30 18123463878246908476
1813 80 18201732729587345182
18393751 57 17983267599754453896
19301676 85 15894763476796741871
19427546 20 18120101576806751630
20101258 96 18339089168295119808
20505436 4 17268367419659084965
20832881 197 18333732399574891707
21033650 10 16443338737934975183
21049683 271 18188784966578762244
21120745 212 18267037063426239716
21133410 171 17250563805039432699
21133410 58 18339344350068822119
21478907 32 18338796697901333881
21703447 108 18339345372185655002
22033318 11 17983613817099612409
22311459 1 18195245740175629808
23559900 14 18337387266404101595
23845131 108 17329426662987170867
283562 15 18190181183512352690
3091708 16 9138613438654811352
3178227 256 18049451627518359480
3380486 145 18264788579005891585
3383291 50 16538482484910236675
3421961 26 18339642342723724715
4015057 19 18337102484487435963
4409770 3 17903074435182343581
463206 1 18334858337672937283
474 4 17908986857039080929
5104073 3 18052529973226258778
5309563 4 18411139117028172647
6058803 2 17914903260900226735
613672 6 18266154215323181386
6442390 28 17184476954070168269
6443956 14 18408885161388220685
6669772 16 17979646950687279508
6697151 62 18266434617211968655
6700243 42 17699598873754890918
70251023 43 18408884014352605339
77188 2 18410855455875860348
7970288 3 18338515240184945474
8272917 22 18124320660409744285

>  <PUBCHEM_SHAPE_MULTIPOLES>  (1) 
535.72
10.29
6.6
0.95
6.41
10.14
0.02
-17.08
0.84
-4.49
-0.66
0.95
-0.44
0.18

>  <PUBCHEM_SHAPE_SELFOVERLAP>  (1) 
1191.894

>  <PUBCHEM_SHAPE_VOLUME>  (1) 
286.9

>  <PUBCHEM_COORDINATE_TYPE>  (1) 
2
5
10

$$$$
