23049
     RDKit          3D

 11 12  0  0  0  0  0  0  0  0999 V2000
   -2.3826   -0.5006    0.0034 O   0  0  0  0  0  0  0  0  0  0  0  0
    1.5957    0.1272   -0.0006 C   0  0  0  0  0  0  0  0  0  0  0  0
   -0.9835   -0.2696    0.0021 C   0  0  0  0  0  0  0  0  0  0  0  0
    0.9440    0.7548   -1.2556 C   0  0  0  0  0  0  0  0  0  0  0  0
    0.9451    0.7636    1.2507 C   0  0  0  0  0  0  0  0  0  0  0  0
    1.2747   -1.3864    0.0043 C   0  0  0  0  0  0  0  0  0  0  0  0
   -0.5716    0.5194   -1.2494 C   0  0  0  0  0  0  0  0  0  0  0  0
   -0.5706    0.5291    1.2481 C   0  0  0  0  0  0  0  0  0  0  0  0
   -0.2419   -1.6155    0.0039 C   0  0  0  0  0  0  0  0  0  0  0  0
    3.1068    0.3598   -0.0022 C   0  0  0  0  0  0  0  0  0  0  0  0
   -3.1160    0.7181   -0.0047 C   0  0  0  0  0  0  0  0  0  0  0  0
  1  3  1  0
  1 11  1  0
  2  4  1  0
  2  5  1  0
  2  6  1  0
  2 10  1  0
  3  7  1  0
  3  8  1  0
  3  9  1  0
  4  7  1  0
  5  8  1  0
  6  9  1  0
M  END
>  <PUBCHEM_COMPOUND_CID>  (1) 
23049

>  <PUBCHEM_CONFORMER_RMSD>  (1) 
0.6

>  <PUBCHEM_CONFORMER_DIVERSEORDER>  (1) 
1

>  <PUBCHEM_MMFF94_PARTIAL_CHARGES>  (1) 
3
1 -0.56
11 0.28
3 0.28

>  <PUBCHEM_EFFECTIVE_ROTOR_COUNT>  (1) 
2.2

>  <PUBCHEM_PHARMACOPHORE_FEATURES>  (1) 
2
1 1 acceptor
8 2 3 4 5 6 7 8 9 rings

>  <PUBCHEM_HEAVY_ATOM_COUNT>  (1) 
11

>  <PUBCHEM_ATOM_DEF_STEREO_COUNT>  (1) 
0

>  <PUBCHEM_ATOM_UDEF_STEREO_COUNT>  (1) 
0

>  <PUBCHEM_BOND_DEF_STEREO_COUNT>  (1) 
0

>  <PUBCHEM_BOND_UDEF_STEREO_COUNT>  (1) 
0

>  <PUBCHEM_ISOTOPIC_ATOM_COUNT>  (1) 
0

>  <PUBCHEM_COMPONENT_COUNT>  (1) 
1

>  <PUBCHEM_CACTVS_TAUTO_COUNT>  (1) 
1

>  <PUBCHEM_CONFORMER_ID>  (1) 
00005A0900000001

>  <PUBCHEM_MMFF94_ENERGY>  (1) 
46.0131

>  <PUBCHEM_FEATURE_SELFOVERLAP>  (1) 
10.148

>  <PUBCHEM_SHAPE_FINGERPRINT>  (1) 
10219947 1 18040154006801048895
12423570 1 11329539207695555406
13024252 1 14562521903908262180
137420 1 9364535800856935966
14993402 34 18040715913072285710
15557651 10 18114727313561061320
15775835 57 18273498944722788361
16945 1 18410855473092288898
20653085 51 17897183500851335260
21040471 1 18338517546539067971
23235685 24 18335134301983950124
2748010 2 17679570152056461070
29004967 10 17748833998675070530
369184 2 18060699520064705738
5084963 1 18334011717781388427
528886 8 18187362133918045007
68250623 7 16808682154766299968

>  <PUBCHEM_SHAPE_MULTIPOLES>  (1) 
220.51
3.5
1.27
1.19
0.84
0.52
0
-0.69
0
-0.09
0
-0.09
-0.37
0

>  <PUBCHEM_SHAPE_SELFOVERLAP>  (1) 
457.154

>  <PUBCHEM_SHAPE_VOLUME>  (1) 
125.8

>  <PUBCHEM_COORDINATE_TYPE>  (1) 
2
5
10

$$$$
