23046
     RDKit          3D

 16 16  0  0  0  0  0  0  0  0999 V2000
   -4.4169    0.6407    0.2817 S   0  0  0  0  0  0  0  0  0  0  0  0
    2.5421    0.1075    0.4533 P   0  0  0  0  0  0  0  0  0  0  0  0
    1.3164   -0.9025    0.1580 O   0  0  0  0  0  0  0  0  0  0  0  0
    2.5059    1.1478   -0.7891 O   0  0  0  0  0  0  0  0  0  0  0  0
    3.8554   -0.8003    0.1679 O   0  0  0  0  0  0  0  0  0  0  0  0
    2.5320    0.7371    1.8179 O   0  0  0  0  0  0  0  0  0  0  0  0
   -2.3260   -1.1691   -0.0626 C   0  0  0  0  0  0  0  0  0  0  0  0
   -0.0081   -0.5585    0.1832 C   0  0  0  0  0  0  0  0  0  0  0  0
   -2.7004    0.1412    0.2354 C   0  0  0  0  0  0  0  0  0  0  0  0
   -0.9762   -1.5198   -0.0889 C   0  0  0  0  0  0  0  0  0  0  0  0
   -0.3752    0.7497    0.4812 C   0  0  0  0  0  0  0  0  0  0  0  0
   -1.7249    1.1005    0.5076 C   0  0  0  0  0  0  0  0  0  0  0  0
   -3.3337   -2.2330   -0.3608 C   0  0  0  0  0  0  0  0  0  0  0  0
   -4.4547    1.9287   -0.9950 C   0  0  0  0  0  0  0  0  0  0  0  0
    3.5584    2.0884   -0.9119 C   0  0  0  0  0  0  0  0  0  0  0  0
    4.0058   -1.4586   -1.0781 C   0  0  0  0  0  0  0  0  0  0  0  0
  1  9  1  0
  1 14  1  0
  2  3  1  0
  2  4  1  0
  2  5  1  0
  2  6  2  0
  3  8  1  0
  4 15  1  0
  5 16  1  0
  7  9  2  0
  7 10  1  0
  7 13  1  0
  8 10  2  0
  8 11  1  0
  9 12  1  0
 11 12  2  0
M  END
>  <PUBCHEM_COMPOUND_CID>  (1) 
23046

>  <PUBCHEM_CONFORMER_RMSD>  (1) 
0.6

>  <PUBCHEM_CONFORMER_DIVERSEORDER>  (1) 
2
65
11
78
22
36
89
91
50
70
31
81
43
90
92
66
77
99
20
76
67
59
16
62
88
74
48
57
69
27
73
14
96
80
93
95
42
1
30
98
35
39
52
94
56
51
49
87
63
47
9
83
61
86
41
85
72
8
54
64
38
37
79
75
53
6
15
26
32
84
46
68
44
24
25
60
28
97
7
58
33
23
45
34
4
29
13
3
55
40
17
19
82
18
12
10
5
71
21

>  <PUBCHEM_MMFF94_PARTIAL_CHARGES>  (1) 
19
1 -0.33
10 -0.15
11 -0.15
12 -0.15
13 0.14
14 0.23
15 0.28
16 0.28
17 0.15
18 0.15
19 0.15
2 1.51
3 -0.35
4 -0.55
5 -0.55
6 -0.7
7 -0.14
8 0.08
9 0.1

>  <PUBCHEM_EFFECTIVE_ROTOR_COUNT>  (1) 
5

>  <PUBCHEM_PHARMACOPHORE_FEATURES>  (1) 
3
1 14 hydrophobe
1 6 acceptor
6 7 8 9 10 11 12 rings

>  <PUBCHEM_HEAVY_ATOM_COUNT>  (1) 
16

>  <PUBCHEM_ATOM_DEF_STEREO_COUNT>  (1) 
0

>  <PUBCHEM_ATOM_UDEF_STEREO_COUNT>  (1) 
0

>  <PUBCHEM_BOND_DEF_STEREO_COUNT>  (1) 
0

>  <PUBCHEM_BOND_UDEF_STEREO_COUNT>  (1) 
0

>  <PUBCHEM_ISOTOPIC_ATOM_COUNT>  (1) 
0

>  <PUBCHEM_COMPONENT_COUNT>  (1) 
1

>  <PUBCHEM_CACTVS_TAUTO_COUNT>  (1) 
1

>  <PUBCHEM_CONFORMER_ID>  (1) 
00005A0600000002

>  <PUBCHEM_MMFF94_ENERGY>  (1) 
38.4749

>  <PUBCHEM_FEATURE_SELFOVERLAP>  (1) 
15.223

>  <PUBCHEM_SHAPE_FINGERPRINT>  (1) 
10498660 4 18341053011689321640
11132069 177 18412537717440492961
12932764 1 16732974345195977130
13296908 3 17774719869795139699
14115302 16 18343587317450723016
15536298 74 18410860988215418964
17834072 32 18261108531242075077
17834072 8 18341334383607455294
18186145 218 17385720330846842658
19422 9 18339646732069609266
200 152 16200144366230073675
20279233 1 16630808807090516662
20645477 56 18412260670591103089
20645477 70 17203889656397465702
21503847 285 17748830704715008828
2255824 54 18259987089584943666
23402539 116 17346313731444912737
23402655 69 18335426755261261300
23557571 272 18271231832896986675
23559900 14 18272932704945776554
2748010 2 17986095526053819393
474 4 17096655494363718500
5104073 3 18411702118494257058
58051976 100 18408326566310344879
633830 44 17821729446332689531
90127 26 17967542263514564177
9709674 26 18339931518804040094

>  <PUBCHEM_SHAPE_MULTIPOLES>  (1) 
313.49
8.98
2.17
1.06
0.48
0.07
-0.11
-1.76
2.07
-0.58
0.69
0.61
-0.3
0.23

>  <PUBCHEM_SHAPE_SELFOVERLAP>  (1) 
603.384

>  <PUBCHEM_SHAPE_VOLUME>  (1) 
193.7

>  <PUBCHEM_COORDINATE_TYPE>  (1) 
2
5
10

$$$$
