23045
     RDKit          3D

 23 25  0  0  0  0  0  0  0  0999 V2000
   -1.8433    4.8502   -1.2729 Cl  0  0  0  0  0  0  0  0  0  0  0  0
   -1.5924   -0.5062    2.0524 S   0  0  0  0  0  0  0  0  0  0  0  0
    2.2536   -0.3326   -0.2337 N   0  0  0  0  0  0  0  0  0  0  0  0
    5.9689   -0.5791    0.0133 N   0  0  0  0  0  0  0  0  0  0  0  0
   -0.3521   -1.2143   -0.7626 N   0  0  0  0  0  0  0  0  0  0  0  0
    3.6492   -0.0458   -0.5571 C   0  0  0  0  0  0  0  0  0  0  0  0
    1.3525    0.4377   -1.0589 C   0  0  0  0  0  0  0  0  0  0  0  0
    4.5755   -0.8522    0.3482 C   0  0  0  0  0  0  0  0  0  0  0  0
   -0.0464    0.0406   -0.6323 C   0  0  0  0  0  0  0  0  0  0  0  0
   -0.9177    1.1282   -0.1163 C   0  0  0  0  0  0  0  0  0  0  0  0
   -1.6135    1.0013    1.0953 C   0  0  0  0  0  0  0  0  0  0  0  0
   -1.6122   -1.7530   -0.4475 C   0  0  0  0  0  0  0  0  0  0  0  0
   -2.2563   -1.5856    0.7918 C   0  0  0  0  0  0  0  0  0  0  0  0
   -0.9904    2.3210   -0.8469 C   0  0  0  0  0  0  0  0  0  0  0  0
   -2.3694    2.0827    1.5666 C   0  0  0  0  0  0  0  0  0  0  0  0
    6.8655   -1.3760    0.8520 C   0  0  0  0  0  0  0  0  0  0  0  0
    6.2649    0.8464    0.1644 C   0  0  0  0  0  0  0  0  0  0  0  0
   -1.7525    3.3868   -0.3710 C   0  0  0  0  0  0  0  0  0  0  0  0
   -2.4381    3.2694    0.8353 C   0  0  0  0  0  0  0  0  0  0  0  0
   -2.2076   -2.5896   -1.4040 C   0  0  0  0  0  0  0  0  0  0  0  0
   -3.4702   -2.2395    1.0490 C   0  0  0  0  0  0  0  0  0  0  0  0
   -3.4190   -3.2320   -1.1463 C   0  0  0  0  0  0  0  0  0  0  0  0
   -4.0488   -3.0584    0.0812 C   0  0  0  0  0  0  0  0  0  0  0  0
  1 18  1  0
  2 11  1  0
  2 13  1  0
  3  6  1  0
  3  7  1  0
  4  8  1  0
  4 16  1  0
  4 17  1  0
  5  9  2  0
  5 12  1  0
  6  8  1  0
  7  9  1  0
  9 10  1  0
 10 11  2  0
 10 14  1  0
 11 15  1  0
 12 13  2  0
 12 20  1  0
 13 21  1  0
 14 18  2  0
 15 19  2  0
 18 19  1  0
 20 22  2  0
 21 23  2  0
 22 23  1  0
M  END
>  <PUBCHEM_COMPOUND_CID>  (1) 
23045

>  <PUBCHEM_CONFORMER_RMSD>  (1) 
0.8

>  <PUBCHEM_CONFORMER_DIVERSEORDER>  (1) 
1
24
27
33
18
34
32
17
11
13
5
35
4
26
22
28
25
19
12
30
23
6
31
16
8
3
29
10
7
15
14
20
9
2
21

>  <PUBCHEM_MMFF94_PARTIAL_CHARGES>  (1) 
31
1 -0.18
10 0.09
11 0.1
12 0.18
13 0.1
14 -0.15
15 -0.15
16 0.27
17 0.27
18 0.18
19 -0.15
2 -0.2
20 -0.15
21 -0.15
22 -0.15
23 -0.15
3 -0.9
30 0.36
31 0.15
32 0.15
39 0.15
4 -0.81
40 0.15
41 0.15
42 0.15
43 0.15
5 -0.63
6 0.27
7 0.33
8 0.27
9 0.3

>  <PUBCHEM_EFFECTIVE_ROTOR_COUNT>  (1) 
5.2

>  <PUBCHEM_PHARMACOPHORE_FEATURES>  (1) 
7
1 3 cation
1 3 donor
1 4 cation
1 5 acceptor
6 10 11 14 15 18 19 rings
6 12 13 20 21 22 23 rings
7 2 5 9 10 11 12 13 rings

>  <PUBCHEM_HEAVY_ATOM_COUNT>  (1) 
23

>  <PUBCHEM_ATOM_DEF_STEREO_COUNT>  (1) 
0

>  <PUBCHEM_ATOM_UDEF_STEREO_COUNT>  (1) 
0

>  <PUBCHEM_BOND_DEF_STEREO_COUNT>  (1) 
0

>  <PUBCHEM_BOND_UDEF_STEREO_COUNT>  (1) 
0

>  <PUBCHEM_ISOTOPIC_ATOM_COUNT>  (1) 
0

>  <PUBCHEM_COMPONENT_COUNT>  (1) 
1

>  <PUBCHEM_CACTVS_TAUTO_COUNT>  (1) 
2

>  <PUBCHEM_CONFORMER_ID>  (1) 
00005A0500000001

>  <PUBCHEM_MMFF94_ENERGY>  (1) 
71.1614

>  <PUBCHEM_FEATURE_SELFOVERLAP>  (1) 
35.539

>  <PUBCHEM_SHAPE_FINGERPRINT>  (1) 
11045515 52 18264200499261234701
11101153 10 18264494069536504316
11265709 11 18267589189697882983
12633257 1 17059512857526763762
12643181 29 17909838639929342654
12788726 201 18261376820331245611
13004483 165 18269555103619164959
13583140 156 17775275042174795482
14178342 30 18337679620422190406
14844126 61 18410853256963290466
15042514 8 18410300202862107341
15131766 46 14927089203333790414
15230672 131 17976834082470049534
17539 30 18410567388451196837
17844677 252 18412830192735686292
17980427 23 16987169434021752855
1813 80 18126299763653678007
18470217 77 18266995363742036376
20600515 1 17701836594185984303
20602899 9 16226042340172377098
21304303 282 18120071915393652429
2132832 1 18114183098724750556
23081809 10 17895196576989141174
23366157 5 17403176392656786831
23419403 2 17702366546206090953
255183 313 18269572554599056737
2748010 2 17328919380558456249
283562 15 18408316709539982346
312423 11 18187940512201050492
3380486 77 17982750845889434511
376196 1 17104247282619415109
4409770 3 18410284788540954519
484985 159 18261383425785614726
4938544 92 18338230458899769180
5104073 3 18340195325112892594
5924683 9 18409448077177075978
7399639 24 17687483269182341201
77188 2 18192992849213145109
81228 2 18268734808105374159
9862522 239 18193288402897226041
9981440 41 17831581968198272592

>  <PUBCHEM_SHAPE_MULTIPOLES>  (1) 
464.11
10.88
5.14
1.51
32.37
4.88
0.37
-6.86
2.24
-8.64
-1.73
-1.19
0.04
-0.86

>  <PUBCHEM_SHAPE_SELFOVERLAP>  (1) 
963.549

>  <PUBCHEM_SHAPE_VOLUME>  (1) 
266

>  <PUBCHEM_COORDINATE_TYPE>  (1) 
2
5
10

$$$$
