2304
     RDKit          3D

 23 22  0  0  1  0  0  0  0  0999 V2000
   -0.5251   -0.5745   -1.9523 O   0  0  0  0  0  0  0  0  0  0  0  0
    2.2969    1.0454    1.5934 O   0  0  0  0  0  0  0  0  0  0  0  0
   -0.1989   -4.1000   -0.8802 O   0  0  0  0  0  0  0  0  0  0  0  0
    2.1103   -2.4129    1.2813 O   0  0  0  0  0  0  0  0  0  0  0  0
   -0.0772    0.2721    0.1584 N   0  0  0  0  0  0  0  0  0  0  0  0
    3.2033    0.5831   -0.4827 N   0  0  0  0  0  0  0  0  0  0  0  0
    0.2846   -3.2587    0.1326 N   0  0  0  0  0  0  0  0  0  0  0  0
    0.2720    2.7473    0.1216 C   0  0  0  0  0  0  0  0  0  0  0  0
    0.8105    1.3347   -0.2668 C   0  0  0  0  0  0  0  0  0  0  0  0
   -1.5771   -1.6468   -0.0738 C   0  0  0  0  0  0  0  0  0  0  0  0
   -1.1524    2.9260   -0.4497 C   0  0  0  0  0  0  0  0  0  0  0  0
    0.2051    2.9590    1.6478 C   0  0  0  0  0  0  0  0  0  0  0  0
    1.1569    3.8576   -0.4775 C   0  0  0  0  0  0  0  0  0  0  0  0
   -2.7596   -1.0062    0.6779 C   0  0  0  0  0  0  0  0  0  0  0  0
   -0.6752   -0.6008   -0.7307 C   0  0  0  0  0  0  0  0  0  0  0  0
    2.1640    0.9796    0.3653 C   0  0  0  0  0  0  0  0  0  0  0  0
   -0.7437   -2.5497    0.8462 C   0  0  0  0  0  0  0  0  0  0  0  0
   -3.6242   -0.1244   -0.2305 C   0  0  0  0  0  0  0  0  0  0  0  0
   -4.7394    0.5602    0.5607 C   0  0  0  0  0  0  0  0  0  0  0  0
    4.5261    0.2160    0.0140 C   0  0  0  0  0  0  0  0  0  0  0  0
    3.0482    0.5048   -1.9311 C   0  0  0  0  0  0  0  0  0  0  0  0
   -5.6185    1.4131   -0.3399 C   0  0  0  0  0  0  0  0  0  0  0  0
    1.6134   -3.1247    0.4159 C   0  0  0  0  0  0  0  0  0  0  0  0
  1 15  2  0
  2 16  2  0
  3  7  1  0
  4 23  2  0
  5  9  1  0
  5 15  1  0
  6 16  1  0
  6 20  1  0
  6 21  1  0
  7 17  1  0
  7 23  1  0
  8  9  1  0
  8 11  1  0
  8 12  1  0
  8 13  1  0
  9 16  1  0
 10 14  1  0
 10 15  1  0
 10 17  1  0
 14 18  1  0
 18 19  1  0
 19 22  1  0
M  END
>  <PUBCHEM_COMPOUND_CID>  (1) 
2304

>  <PUBCHEM_CONFORMER_RMSD>  (1) 
1

>  <PUBCHEM_CONFORMER_DIVERSEORDER>  (1) 
3
25
188
89
97
210
17
136
178
139
220
214
174
217
181
94
199
93
77
96
218
60
75
48
211
216
128
22
208
38
198
223
130
71
173
205
195
137
171
32
98
232
24
44
202
54
228
187
184
179
170
57
183
233
194
87
43
92
108
100
72
221
103
168
27
109
209
196
182
138
15
101
193
150
118
229
114
133
73
177
148
185
86
120
28
53
140
219
132
52
74
201
84
51
67
41
189
33
207
225
134
85
144
175
127
111
227
125
234
20
113
56
107
31
95
204
66
7
161
50
88
147
69
186
206
197
230
165
119
180
145
34
129
162
61
167
11
172
153
176
16
159
190
203
192
155
13
9
121
226
70
135
1
91
116
123
37
222
19
142
21
35
63
68
49
12
14
4
23
163
215
45
29
164
149
10
112
131
99
152
160
122
90
55
126
46
76
224
18
191
110
5
47
166
62
156
83
64
124
2
212
42
104
157
143
26
141
81
231
106
58
80
151
30
40
78
158
154
59
102
169
82
36
117
213
146
8
6
65
115
79
105
200
39

>  <PUBCHEM_MMFF94_PARTIAL_CHARGES>  (1) 
18
1 -0.57
10 0.06
15 0.57
16 0.57
17 0.3
2 -0.57
20 0.3
21 0.3
23 0.57
26 0.37
3 -0.44
4 -0.57
5 -0.73
53 0.06
54 0.4
6 -0.66
7 -0.32
9 0.36

>  <PUBCHEM_EFFECTIVE_ROTOR_COUNT>  (1) 
12

>  <PUBCHEM_PHARMACOPHORE_FEATURES>  (1) 
7
1 1 acceptor
1 2 acceptor
1 22 hydrophobe
1 4 acceptor
1 5 donor
4 10 14 18 19 hydrophobe
4 8 11 12 13 hydrophobe

>  <PUBCHEM_HEAVY_ATOM_COUNT>  (1) 
23

>  <PUBCHEM_ATOM_DEF_STEREO_COUNT>  (1) 
0

>  <PUBCHEM_ATOM_UDEF_STEREO_COUNT>  (1) 
2

>  <PUBCHEM_BOND_DEF_STEREO_COUNT>  (1) 
0

>  <PUBCHEM_BOND_UDEF_STEREO_COUNT>  (1) 
0

>  <PUBCHEM_ISOTOPIC_ATOM_COUNT>  (1) 
0

>  <PUBCHEM_COMPONENT_COUNT>  (1) 
1

>  <PUBCHEM_CACTVS_TAUTO_COUNT>  (1) 
2

>  <PUBCHEM_CONFORMER_ID>  (1) 
0000090000000003

>  <PUBCHEM_MMFF94_ENERGY>  (1) 
50.5728

>  <PUBCHEM_FEATURE_SELFOVERLAP>  (1) 
35.522

>  <PUBCHEM_SHAPE_FINGERPRINT>  (1) 
12788726 201 18340785766640694204
13140716 1 18266176330294229553
14178342 30 17474656734062698792
14466204 15 18410291402458735457
14790565 3 18336554905362435868
15420108 30 18201995483360735935
1601671 61 18334014990768163513
17093844 170 18411420600926607672
19591789 44 18411418367205769708
20600515 1 18340206418296590476
20905425 154 18053951649363898445
21041028 32 18122055400020697925
21524375 3 18128822026828025309
23419403 2 17679848320125131991
23566358 2 18121781616924291367
3084891 72 18412269440850868365
59755656 215 18265056842836759622
81228 2 18128000579736115180

>  <PUBCHEM_SHAPE_MULTIPOLES>  (1) 
434.91
6.91
4.88
1.34
6.88
1.44
-0.14
-2.21
-0.43
-1.12
0.46
-0.68
-0.15
-0.12

>  <PUBCHEM_SHAPE_SELFOVERLAP>  (1) 
836.27

>  <PUBCHEM_SHAPE_VOLUME>  (1) 
264.7

>  <PUBCHEM_COORDINATE_TYPE>  (1) 
2
5
10

$$$$
