23055
     RDKit          3D

 21 22  0  0  0  0  0  0  0  0999 V2000
    5.5055   -1.1948    1.0858 O   0  0  0  0  0  0  0  0  0  0  0  0
   -5.5309    1.1848    1.0470 O   0  0  0  0  0  0  0  0  0  0  0  0
    6.4170    0.8093   -0.5467 N   0  0  0  0  0  0  0  0  0  0  0  0
   -6.3734   -0.8899   -0.5335 N   0  0  0  0  0  0  0  0  0  0  0  0
    3.7370   -1.5809   -0.3710 N   0  0  0  0  0  0  0  0  0  0  0  0
   -3.7723    1.5902   -0.4167 N   0  0  0  0  0  0  0  0  0  0  0  0
    6.6495    1.8803   -1.5070 C   0  0  0  0  0  0  0  0  0  0  0  0
    5.6537    2.0416   -0.3958 C   0  0  0  0  0  0  0  0  0  0  0  0
   -5.5709   -2.0923   -0.3493 C   0  0  0  0  0  0  0  0  0  0  0  0
   -6.5689   -1.9927   -1.4658 C   0  0  0  0  0  0  0  0  0  0  0  0
    5.5934   -0.2393   -1.1312 C   0  0  0  0  0  0  0  0  0  0  0  0
   -5.5829    0.1693   -1.1442 C   0  0  0  0  0  0  0  0  0  0  0  0
   -0.0196    0.0545    1.3092 C   0  0  0  0  0  0  0  0  0  0  0  0
    0.9720   -0.7406    0.4572 C   0  0  0  0  0  0  0  0  0  0  0  0
   -0.9871    0.8557    0.4355 C   0  0  0  0  0  0  0  0  0  0  0  0
    1.9581   -1.5182    1.3339 C   0  0  0  0  0  0  0  0  0  0  0  0
   -1.9979    1.6265    1.2897 C   0  0  0  0  0  0  0  0  0  0  0  0
    4.9735   -1.0519   -0.0129 C   0  0  0  0  0  0  0  0  0  0  0  0
   -4.9922    1.0305   -0.0469 C   0  0  0  0  0  0  0  0  0  0  0  0
    2.9235   -2.3685    0.5142 C   0  0  0  0  0  0  0  0  0  0  0  0
   -2.9870    2.4263    0.4484 C   0  0  0  0  0  0  0  0  0  0  0  0
  1 18  2  0
  2 19  2  0
  3  7  1  0
  3  8  1  0
  3 11  1  0
  4  9  1  0
  4 10  1  0
  4 12  1  0
  5 18  1  0
  5 20  1  0
  6 19  1  0
  6 21  1  0
  7  8  1  0
  9 10  1  0
 11 18  1  0
 12 19  1  0
 13 14  1  0
 13 15  1  0
 14 16  1  0
 15 17  1  0
 16 20  1  0
 17 21  1  0
M  END
>  <PUBCHEM_COMPOUND_CID>  (1) 
23055

>  <PUBCHEM_CONFORMER_RMSD>  (1) 
1.2

>  <PUBCHEM_CONFORMER_DIVERSEORDER>  (1) 
1
24
6
11
23
22
28
21
20
7
8
13
15
10
9
17
25
12
27
14
26
18
4
29
30
16
19
5
3
2
31

>  <PUBCHEM_MMFF94_PARTIAL_CHARGES>  (1) 
26
1 -0.57
10 -0.04
11 0.33
12 0.33
18 0.57
19 0.57
2 -0.57
20 0.3
21 0.3
22 0.1
23 0.1
24 0.1
25 0.1
26 0.1
27 0.1
28 0.1
29 0.1
3 -0.59
4 -0.59
48 0.37
49 0.37
5 -0.73
6 -0.73
7 -0.04
8 -0.04
9 -0.04

>  <PUBCHEM_EFFECTIVE_ROTOR_COUNT>  (1) 
15.2

>  <PUBCHEM_PHARMACOPHORE_FEATURES>  (1) 
7
1 1 acceptor
1 2 acceptor
1 3 cation
1 4 cation
1 5 donor
1 6 donor
5 13 14 15 16 17 hydrophobe

>  <PUBCHEM_HEAVY_ATOM_COUNT>  (1) 
21

>  <PUBCHEM_ATOM_DEF_STEREO_COUNT>  (1) 
0

>  <PUBCHEM_ATOM_UDEF_STEREO_COUNT>  (1) 
0

>  <PUBCHEM_BOND_DEF_STEREO_COUNT>  (1) 
0

>  <PUBCHEM_BOND_UDEF_STEREO_COUNT>  (1) 
0

>  <PUBCHEM_ISOTOPIC_ATOM_COUNT>  (1) 
0

>  <PUBCHEM_COMPONENT_COUNT>  (1) 
1

>  <PUBCHEM_CACTVS_TAUTO_COUNT>  (1) 
3

>  <PUBCHEM_CONFORMER_ID>  (1) 
00005A0F00000001

>  <PUBCHEM_MMFF94_ENERGY>  (1) 
27.2275

>  <PUBCHEM_FEATURE_SELFOVERLAP>  (1) 
35.52

>  <PUBCHEM_SHAPE_FINGERPRINT>  (1) 
10595046 47 18410012100439629056
10692045 39 9727640530969380565
10811444 77 16878229769901076964
11476731 38 18335703871273239519
11476731 47 17532947210398118245
11761917 116 18057596771477479287
12422481 6 9295290542677078352
12596602 18 18410573963687177831
12821665 9 18335988657152809441
13422730 153 18187924014424811645
13785724 45 8790343152849219264
14251732 14 17918274250910913675
14251758 9 9367345933407339360
14528608 73 18335988580117730824
14767858 380 18410574006715984452
14784336 7 18271813470428349072
15003188 100 18335427868232829964
16120349 21 9439138549870573762
21054139 6 18335977571589641474
21150785 3 18410293635466721582
21196832 93 18265052608184154435
21591340 7 8142089750355435035
22849341 161 13973958826902014699
2303208 19 15769771338452076640
513202 73 13038918702365324739
5312625 73 18411138034891151464
6898599 12 18194116322854459637
7062679 117 18341328912452187739
8217 86 18273492390681828987
9981440 41 8358251593051100213

>  <PUBCHEM_SHAPE_MULTIPOLES>  (1) 
400.51
22
2.8
1.39
0.86
0
0.04
0.28
10.28
-0.31
0
0.09
0.01
-3.5

>  <PUBCHEM_SHAPE_SELFOVERLAP>  (1) 
772.874

>  <PUBCHEM_SHAPE_VOLUME>  (1) 
245.1

>  <PUBCHEM_COORDINATE_TYPE>  (1) 
2
5
10

$$$$
