23077
     RDKit          3D

 32 36  0  0  1  0  0  0  0  0999 V2000
    1.7562    0.3680    0.7861 O   0  0  0  0  0  0  0  0  0  0  0  0
   -2.2642   -0.2629    0.5344 N   0  0  0  0  0  0  0  0  0  0  0  0
   -1.6824    0.0622   -0.7770 C   0  0  0  0  0  0  0  0  0  0  0  0
   -1.5623   -1.4098    1.1304 C   0  0  0  0  0  0  0  0  0  0  0  0
   -0.2524    0.5853   -0.5412 C   0  0  0  0  0  0  0  0  0  0  0  0
   -0.1265   -0.9610    1.4642 C   0  0  0  0  0  0  0  0  0  0  0  0
    0.6317   -0.3522    0.2839 C   0  0  0  0  0  0  0  0  0  0  0  0
   -1.7504   -1.1160   -1.7667 C   0  0  0  0  0  0  0  0  0  0  0  0
   -1.6227   -2.6697    0.2462 C   0  0  0  0  0  0  0  0  0  0  0  0
   -1.2340   -2.4417   -1.2125 C   0  0  0  0  0  0  0  0  0  0  0  0
   -3.7135   -0.4281    0.4981 C   0  0  0  0  0  0  0  0  0  0  0  0
   -4.4019    0.8666    0.0644 C   0  0  0  0  0  0  0  0  0  0  0  0
    2.8387    0.3391   -0.1309 C   0  0  0  0  0  0  0  0  0  0  0  0
   -5.9021    0.7159    0.0443 C   0  0  0  0  0  0  0  0  0  0  0  0
    3.7134   -0.8832    0.0700 C   0  0  0  0  0  0  0  0  0  0  0  0
    3.6153    1.6376   -0.0602 C   0  0  0  0  0  0  0  0  0  0  0  0
   -6.5281    0.2887   -1.1170 C   0  0  0  0  0  0  0  0  0  0  0  0
   -6.6312    1.0065    1.1876 C   0  0  0  0  0  0  0  0  0  0  0  0
    4.3013   -1.5031   -1.0180 C   0  0  0  0  0  0  0  0  0  0  0  0
    3.8999   -1.3495    1.3595 C   0  0  0  0  0  0  0  0  0  0  0  0
    3.2492    2.6879   -0.8831 C   0  0  0  0  0  0  0  0  0  0  0  0
    4.6724    1.7439    0.8259 C   0  0  0  0  0  0  0  0  0  0  0  0
   -7.9159    0.1491   -1.1357 C   0  0  0  0  0  0  0  0  0  0  0  0
   -8.0190    0.8668    1.1690 C   0  0  0  0  0  0  0  0  0  0  0  0
    5.1020   -2.6261   -0.8101 C   0  0  0  0  0  0  0  0  0  0  0  0
    4.1013   -1.0032   -2.4111 C   0  0  0  0  0  0  0  0  0  0  0  0
    4.7008   -2.4724    1.5673 C   0  0  0  0  0  0  0  0  0  0  0  0
   -8.6613    0.4381    0.0073 C   0  0  0  0  0  0  0  0  0  0  0  0
    3.9640    3.8838   -0.8180 C   0  0  0  0  0  0  0  0  0  0  0  0
    5.3871    2.9401    0.8911 C   0  0  0  0  0  0  0  0  0  0  0  0
    5.3017   -3.1108    0.4826 C   0  0  0  0  0  0  0  0  0  0  0  0
    5.0329    4.0100    0.0691 C   0  0  0  0  0  0  0  0  0  0  0  0
  1  7  1  0
  1 13  1  0
  2  3  1  0
  2  4  1  0
  2 11  1  0
  3  5  1  0
  3  8  1  0
  4  6  1  0
  4  9  1  0
  5  7  1  0
  6  7  1  0
  8 10  1  0
  9 10  1  0
 11 12  1  0
 12 14  1  0
 13 15  1  0
 13 16  1  0
 14 17  2  0
 14 18  1  0
 15 19  2  0
 15 20  1  0
 16 21  2  0
 16 22  1  0
 17 23  1  0
 18 24  2  0
 19 25  1  0
 19 26  1  0
 20 27  2  0
 21 29  1  0
 22 30  2  0
 23 28  2  0
 24 28  1  0
 25 31  2  0
 27 31  1  0
 29 32  2  0
 30 32  1  0
M  END
>  <PUBCHEM_COMPOUND_CID>  (1) 
23077

>  <PUBCHEM_CONFORMER_RMSD>  (1) 
1

>  <PUBCHEM_CONFORMER_DIVERSEORDER>  (1) 
1
190
188
243
6
49
257
13
210
70
119
268
271
3
266
258
189
219
40
44
27
264
92
84
48
259
18
267
29
104
228
143
200
156
249
133
195
158
251
7
187
231
222
241
4
95
212
90
116
28
262
217
86
247
168
93
38
112
80
76
16
254
263
2
61
99
238
173
9
183
98
91
8
224
58
164
11
33
21
232
55
205
203
43
226
272
145
30
12
17
53
62
234
181
68
274
199
83
170
69
154
36
19
130
209
107
82
129
57
175
52
149
26
223
25
180
141
216
169
214
109
255
196
79
174
63
59
111
96
22
97
74
46
193
162
23
66
197
77
208
256
131
270
34
126
35
117
178
235
124
81
65
165
56
73
184
88
273
87
269
252
229
102
10
239
45
218
150
167
71
185
179
191
41
24
100
142
115
5
213
220
265
144
14
60
72
121
128
159
118
15
245
37
50
103
146
230
202
186
171
227
20
67
225
155
140
39
31
108
123
85
127
163
110
78
153
215
113
246
152
211
51
32
139
106
261
157
240
237
201
54
206
134
160
207
166
120
192
137
198
248
233
64
114
176
101
125
94
242
147
122
250
138
204
148
236
136
42
182
135
221
194
47
172
105
151
244
161
89
177
260
132
75
253

>  <PUBCHEM_MMFF94_PARTIAL_CHARGES>  (1) 
41
1 -0.56
11 0.27
12 0.14
13 0.57
14 -0.14
15 -0.14
16 -0.14
17 -0.15
18 -0.15
19 -0.14
2 -0.81
20 -0.15
21 -0.15
22 -0.15
23 -0.15
24 -0.15
25 -0.15
26 0.14
27 -0.15
28 -0.15
29 -0.15
3 0.27
30 -0.15
31 -0.15
32 -0.15
4 0.27
51 0.15
52 0.15
53 0.15
54 0.15
55 0.15
56 0.15
57 0.15
58 0.15
62 0.15
63 0.15
64 0.15
65 0.15
66 0.15
67 0.15
7 0.28

>  <PUBCHEM_EFFECTIVE_ROTOR_COUNT>  (1) 
8.4

>  <PUBCHEM_PHARMACOPHORE_FEATURES>  (1) 
7
1 1 acceptor
1 2 cation
6 14 17 18 23 24 28 rings
6 15 19 20 25 27 31 rings
6 16 21 22 29 30 32 rings
6 2 3 4 5 6 7 rings
6 2 3 4 8 9 10 rings

>  <PUBCHEM_HEAVY_ATOM_COUNT>  (1) 
32

>  <PUBCHEM_ATOM_DEF_STEREO_COUNT>  (1) 
0

>  <PUBCHEM_ATOM_UDEF_STEREO_COUNT>  (1) 
3

>  <PUBCHEM_BOND_DEF_STEREO_COUNT>  (1) 
0

>  <PUBCHEM_BOND_UDEF_STEREO_COUNT>  (1) 
0

>  <PUBCHEM_ISOTOPIC_ATOM_COUNT>  (1) 
0

>  <PUBCHEM_COMPONENT_COUNT>  (1) 
1

>  <PUBCHEM_CACTVS_TAUTO_COUNT>  (1) 
1

>  <PUBCHEM_CONFORMER_ID>  (1) 
00005A2500000001

>  <PUBCHEM_MMFF94_ENERGY>  (1) 
88.8396

>  <PUBCHEM_FEATURE_SELFOVERLAP>  (1) 
37

>  <PUBCHEM_SHAPE_FINGERPRINT>  (1) 
10 15 17095520742861789109
10050765 1 18337110184794170123
10554248 39 17989218031528538151
10675989 125 18411419501319989130
11991303 11 18343578573736865159
12107698 1 18339642235312618996
13533116 47 18407761417417907892
14118638 360 18197776807379118743
14347424 109 18411416193889151121
15183329 4 18060140921124275271
15439362 3 18266463303752076060
1577012 14 17988924488152856549
15840311 113 18334858316882831421
19309040 13 18195249038578333412
20157964 124 18410855473029173912
20771845 65 17916584233885136610
22311459 1 18337391513594429539
23081809 10 17846779611970862777
23559900 14 18411421713681904986
249057 25 17774449291525019041
249057 3 18411983551143916006
27425 322 18335698402952190190
2838139 119 18336262350218381613
3004659 81 17989209226819129822
3411729 13 18339361972244750916
3610482 184 17917146221491759205
3633792 109 17917721179482519376
394071 54 18187081797087257469
397830 11 17968949707549806083
4073 2 18189336938469453579
4093350 32 18202567280440293980
9658208 31 17168152264261663587
9962374 69 18412254026282334670

>  <PUBCHEM_SHAPE_MULTIPOLES>  (1) 
647.69
20.94
3.88
1.57
44.61
2.29
0.34
7.08
-1.1
-10.41
0.06
-0.46
-0.57
-0.62

>  <PUBCHEM_SHAPE_SELFOVERLAP>  (1) 
1399.769

>  <PUBCHEM_SHAPE_VOLUME>  (1) 
354.3

>  <PUBCHEM_COORDINATE_TYPE>  (1) 
2
5
10

$$$$
