23076
     RDKit          3D

 27 30  0  0  1  0  0  0  0  0999 V2000
    0.4648    0.5771   -0.6474 O   0  0  0  0  0  0  0  0  0  0  0  0
   -3.5470    0.9901   -0.0470 N   0  0  0  0  0  0  0  0  0  0  0  0
   -2.7906    1.0627    1.2124 C   0  0  0  0  0  0  0  0  0  0  0  0
   -3.2299   -0.2579   -0.7578 C   0  0  0  0  0  0  0  0  0  0  0  0
   -1.2981    1.2081    0.8575 C   0  0  0  0  0  0  0  0  0  0  0  0
   -1.7598   -0.1800   -1.2131 C   0  0  0  0  0  0  0  0  0  0  0  0
   -0.7694    0.1296   -0.0888 C   0  0  0  0  0  0  0  0  0  0  0  0
   -3.0861   -0.1204    2.1534 C   0  0  0  0  0  0  0  0  0  0  0  0
   -3.5499   -1.5145    0.0737 C   0  0  0  0  0  0  0  0  0  0  0  0
   -2.9922   -1.4948    1.4949 C   0  0  0  0  0  0  0  0  0  0  0  0
   -4.9795    1.2075    0.1266 C   0  0  0  0  0  0  0  0  0  0  0  0
    1.5645    0.2110    0.1714 C   0  0  0  0  0  0  0  0  0  0  0  0
   -5.7119    1.1256   -1.1774 C   0  0  0  0  0  0  0  0  0  0  0  0
    2.0706   -1.1765   -0.1730 C   0  0  0  0  0  0  0  0  0  0  0  0
    2.6462    1.2688    0.1008 C   0  0  0  0  0  0  0  0  0  0  0  0
   -6.6725    0.2325   -1.4407 C   0  0  0  0  0  0  0  0  0  0  0  0
    1.9686   -2.2019    0.7498 C   0  0  0  0  0  0  0  0  0  0  0  0
    2.6293   -1.3774   -1.4230 C   0  0  0  0  0  0  0  0  0  0  0  0
    3.4647    1.4704    1.1978 C   0  0  0  0  0  0  0  0  0  0  0  0
    2.7913    2.0088   -1.0591 C   0  0  0  0  0  0  0  0  0  0  0  0
    2.4406   -3.4702    0.4119 C   0  0  0  0  0  0  0  0  0  0  0  0
    1.3671   -1.9884    2.1002 C   0  0  0  0  0  0  0  0  0  0  0  0
    3.1011   -2.6458   -1.7608 C   0  0  0  0  0  0  0  0  0  0  0  0
    4.4611    2.4445    1.1330 C   0  0  0  0  0  0  0  0  0  0  0  0
    3.7878    2.9828   -1.1239 C   0  0  0  0  0  0  0  0  0  0  0  0
    3.0069   -3.6921   -0.8435 C   0  0  0  0  0  0  0  0  0  0  0  0
    4.6226    3.2005   -0.0279 C   0  0  0  0  0  0  0  0  0  0  0  0
  1  7  1  0
  1 12  1  0
  2  3  1  0
  2  4  1  0
  2 11  1  0
  3  5  1  0
  3  8  1  0
  4  6  1  0
  4  9  1  0
  5  7  1  0
  6  7  1  0
  8 10  1  0
  9 10  1  0
 11 13  1  0
 12 14  1  0
 12 15  1  0
 13 16  2  0
 14 17  2  0
 14 18  1  0
 15 19  2  0
 15 20  1  0
 17 21  1  0
 17 22  1  0
 18 23  2  0
 19 24  1  0
 20 25  2  0
 21 26  2  0
 23 26  1  0
 24 27  2  0
 25 27  1  0
M  END
>  <PUBCHEM_COMPOUND_CID>  (1) 
23076

>  <PUBCHEM_CONFORMER_RMSD>  (1) 
0.8

>  <PUBCHEM_CONFORMER_DIVERSEORDER>  (1) 
2
274
158
271
263
180
186
67
77
148
60
203
257
171
246
240
264
166
106
167
48
251
216
109
207
46
96
201
187
241
225
206
72
234
65
215
182
70
18
205
118
244
210
226
21
58
236
40
213
85
224
71
78
57
152
6
13
269
175
24
130
204
87
195
80
88
103
258
35
260
266
110
44
267
62
132
177
196
27
145
20
253
198
47
193
124
33
223
98
173
276
159
136
275
45
147
52
39
230
82
149
38
101
197
200
242
64
192
243
75
107
202
102
76
81
235
34
231
73
32
183
3
245
23
11
181
160
8
212
100
36
51
268
176
26
30
134
184
31
95
278
154
84
43
238
22
172
140
280
37
104
220
89
25
117
114
254
125
93
189
108
16
168
247
165
66
53
63
94
105
250
139
144
249
115
55
127
69
156
10
178
7
112
170
255
261
122
155
4
151
233
92
5
143
42
126
169
41
199
133
157
219
228
237
121
68
265
113
14
83
188
211
248
123
97
164
262
138
12
146
217
54
229
270
239
99
59
111
135
90
49
179
74
141
61
120
162
79
116
163
17
28
252
86
279
142
15
194
218
222
29
1
19
150
209
174
119
277
214
191
221
208
56
161
50
137
128
256
185
129
227
9
131
153
91
190
273
232
259
272

>  <PUBCHEM_MMFF94_PARTIAL_CHARGES>  (1) 
34
1 -0.56
11 0.41
12 0.57
13 -0.29
14 -0.14
15 -0.14
16 -0.3
17 -0.14
18 -0.15
19 -0.15
2 -0.81
20 -0.15
21 -0.15
22 0.14
23 -0.15
24 -0.15
25 -0.15
26 -0.15
27 -0.15
3 0.27
4 0.27
44 0.15
45 0.15
46 0.15
47 0.15
48 0.15
49 0.15
50 0.15
54 0.15
55 0.15
56 0.15
57 0.15
58 0.15
7 0.28

>  <PUBCHEM_EFFECTIVE_ROTOR_COUNT>  (1) 
7.4

>  <PUBCHEM_PHARMACOPHORE_FEATURES>  (1) 
7
1 1 acceptor
1 16 hydrophobe
1 2 cation
6 14 17 18 21 23 26 rings
6 15 19 20 24 25 27 rings
6 2 3 4 5 6 7 rings
6 2 3 4 8 9 10 rings

>  <PUBCHEM_HEAVY_ATOM_COUNT>  (1) 
27

>  <PUBCHEM_ATOM_DEF_STEREO_COUNT>  (1) 
0

>  <PUBCHEM_ATOM_UDEF_STEREO_COUNT>  (1) 
3

>  <PUBCHEM_BOND_DEF_STEREO_COUNT>  (1) 
0

>  <PUBCHEM_BOND_UDEF_STEREO_COUNT>  (1) 
0

>  <PUBCHEM_ISOTOPIC_ATOM_COUNT>  (1) 
0

>  <PUBCHEM_COMPONENT_COUNT>  (1) 
1

>  <PUBCHEM_CACTVS_TAUTO_COUNT>  (1) 
1

>  <PUBCHEM_CONFORMER_ID>  (1) 
00005A2400000002

>  <PUBCHEM_MMFF94_ENERGY>  (1) 
73.4509

>  <PUBCHEM_FEATURE_SELFOVERLAP>  (1) 
36.998

>  <PUBCHEM_SHAPE_FINGERPRINT>  (1) 
10554248 39 17986659395547545725
10764073 3 15506544905363374784
11475781 23 17458330937317675511
12166972 35 17844241831216714159
12553582 1 17976552615053962226
12788726 201 16820805215550858738
13224815 77 18201164329214747985
13533116 47 18272368642706394069
13540713 4 18114761390185314963
13583140 156 18200875192538698433
1361 4 18342169021494796703
13631057 29 17913202350450211503
14955137 171 18272368625906593034
1813 80 17913214152888485118
18335252 98 18338234981764368423
20157964 124 18335412457689770365
20197701 30 18268427013853975416
20554085 129 17915722349470276744
20567600 347 18268430303651256886
20600515 1 17406533824474189560
20645477 70 18340765957808108439
21033648 29 17313384471059303389
21859007 373 16662306431267071189
22182313 1 17896056441429897563
2255824 54 18340494374410287574
23559900 14 18334583399440291215
3004659 81 18129938975732950895
312423 11 17917439670436149361
3411729 13 18408877451948194048
3633792 109 18269828732265697309
376196 1 18190454051184535912
4340502 62 18259981600447492547
469060 322 17835533982608426995
474 4 18409730698841690552
495365 180 18261388919190678323
59755656 215 18410573964304732732
70251023 43 18197219152755992951
9841814 1 18190175681516607418
9981440 41 18266176330410066746

>  <PUBCHEM_SHAPE_MULTIPOLES>  (1) 
544.8
11.67
3.96
1.78
14.74
1.69
0.36
-6.18
-3.06
-7.73
-0.42
0.36
0.46
1.04

>  <PUBCHEM_SHAPE_SELFOVERLAP>  (1) 
1163.748

>  <PUBCHEM_SHAPE_VOLUME>  (1) 
301.6

>  <PUBCHEM_COORDINATE_TYPE>  (1) 
2
5
10

$$$$
