23072
     RDKit          3D

 25 28  0  0  1  0  0  0  0  0999 V2000
   -0.2907    0.5775   -0.7058 O   0  0  0  0  0  0  0  0  0  0  0  0
    3.7659    1.4973   -0.5534 N   0  0  0  0  0  0  0  0  0  0  0  0
    3.0704    1.5489    0.7409 C   0  0  0  0  0  0  0  0  0  0  0  0
    3.4311    0.2507   -1.2577 C   0  0  0  0  0  0  0  0  0  0  0  0
    3.6670   -0.9558    1.0225 C   0  0  0  0  0  0  0  0  0  0  0  0
    3.6685    0.4500    1.6428 C   0  0  0  0  0  0  0  0  0  0  0  0
    4.0479   -0.9204   -0.4657 C   0  0  0  0  0  0  0  0  0  0  0  0
    1.5394    1.4690    0.5951 C   0  0  0  0  0  0  0  0  0  0  0  0
    1.9198    0.1009   -1.5125 C   0  0  0  0  0  0  0  0  0  0  0  0
    1.0455    0.3151   -0.2778 C   0  0  0  0  0  0  0  0  0  0  0  0
    3.5610    2.6918   -1.3663 C   0  0  0  0  0  0  0  0  0  0  0  0
    4.5952   -1.8929    1.7986 C   0  0  0  0  0  0  0  0  0  0  0  0
   -1.2376    0.0852    0.2293 C   0  0  0  0  0  0  0  0  0  0  0  0
   -2.4522    0.9894    0.2647 C   0  0  0  0  0  0  0  0  0  0  0  0
   -1.5898   -1.3656   -0.0371 C   0  0  0  0  0  0  0  0  0  0  0  0
   -3.1713    1.1068    1.4407 C   0  0  0  0  0  0  0  0  0  0  0  0
   -1.9507   -2.1755    1.0235 C   0  0  0  0  0  0  0  0  0  0  0  0
   -2.8144    1.6770   -0.8797 C   0  0  0  0  0  0  0  0  0  0  0  0
   -1.5409   -1.8421   -1.3339 C   0  0  0  0  0  0  0  0  0  0  0  0
   -4.2900    1.9394    1.4731 C   0  0  0  0  0  0  0  0  0  0  0  0
   -2.2743   -3.5101    0.7785 C   0  0  0  0  0  0  0  0  0  0  0  0
   -3.9330    2.5096   -0.8472 C   0  0  0  0  0  0  0  0  0  0  0  0
   -1.8646   -3.1765   -1.5790 C   0  0  0  0  0  0  0  0  0  0  0  0
   -4.6708    2.6408    0.3292 C   0  0  0  0  0  0  0  0  0  0  0  0
   -2.2314   -4.0106   -0.5228 C   0  0  0  0  0  0  0  0  0  0  0  0
  1 10  1  0
  1 13  1  0
  2  3  1  0
  2  4  1  0
  2 11  1  0
  3  6  1  0
  3  8  1  0
  4  7  1  0
  4  9  1  0
  5  6  1  0
  5  7  1  0
  5 12  1  0
  8 10  1  0
  9 10  1  0
 13 14  1  0
 13 15  1  0
 14 16  2  0
 14 18  1  0
 15 17  2  0
 15 19  1  0
 16 20  1  0
 17 21  1  0
 18 22  2  0
 19 23  2  0
 20 24  2  0
 21 25  2  0
 22 24  1  0
 23 25  1  0
M  END
>  <PUBCHEM_COMPOUND_CID>  (1) 
23072

>  <PUBCHEM_CONFORMER_RMSD>  (1) 
0.8

>  <PUBCHEM_CONFORMER_DIVERSEORDER>  (1) 
3
40
44
56
63
54
62
50
37
21
19
69
17
23
61
35
67
26
13
25
55
18
31
33
57
51
14
28
34
41
27
29
48
30
16
20
53
7
66
38
39
68
9
64
36
65
46
10
59
42
15
32
11
47
24
12
22
8
58
6
49
4
52
60
43
45
5
2
1

>  <PUBCHEM_MMFF94_PARTIAL_CHARGES>  (1) 
29
1 -0.56
10 0.28
11 0.27
13 0.57
14 -0.14
15 -0.14
16 -0.15
17 -0.15
18 -0.15
19 -0.15
2 -0.81
20 -0.15
21 -0.15
22 -0.15
23 -0.15
24 -0.15
25 -0.15
3 0.27
4 0.27
45 0.15
46 0.15
47 0.15
48 0.15
49 0.15
50 0.15
51 0.15
52 0.15
53 0.15
54 0.15

>  <PUBCHEM_EFFECTIVE_ROTOR_COUNT>  (1) 
5.4

>  <PUBCHEM_PHARMACOPHORE_FEATURES>  (1) 
6
1 1 acceptor
1 2 cation
6 14 16 18 20 22 24 rings
6 15 17 19 21 23 25 rings
6 2 3 4 5 6 7 rings
6 2 3 4 8 9 10 rings

>  <PUBCHEM_HEAVY_ATOM_COUNT>  (1) 
25

>  <PUBCHEM_ATOM_DEF_STEREO_COUNT>  (1) 
0

>  <PUBCHEM_ATOM_UDEF_STEREO_COUNT>  (1) 
2

>  <PUBCHEM_BOND_DEF_STEREO_COUNT>  (1) 
0

>  <PUBCHEM_BOND_UDEF_STEREO_COUNT>  (1) 
0

>  <PUBCHEM_ISOTOPIC_ATOM_COUNT>  (1) 
0

>  <PUBCHEM_COMPONENT_COUNT>  (1) 
1

>  <PUBCHEM_CACTVS_TAUTO_COUNT>  (1) 
1

>  <PUBCHEM_CONFORMER_ID>  (1) 
00005A2000000003

>  <PUBCHEM_MMFF94_ENERGY>  (1) 
67.6708

>  <PUBCHEM_FEATURE_SELFOVERLAP>  (1) 
31.906

>  <PUBCHEM_SHAPE_FINGERPRINT>  (1) 
10764073 3 15867998224586712703
11405975 8 18410576201961399872
11552529 35 18268998754924988985
11578080 2 17487615458075020633
12160290 23 18271533095347302903
12553582 1 17764591314572227454
12633257 1 18338792317425075568
12643181 29 18270410374233776654
12714826 92 17986119723308760171
12788726 201 18268427030722978287
13004483 165 18054783155534038023
13140716 1 18411696591345853234
13224815 77 18041838553499941946
13583140 156 17603871104435913961
13681431 1 17114380897709057735
13692114 37 18271529711483091115
14178342 30 18337379556689489162
14466204 15 17906446632575349600
15842332 3 18115305704227789004
17349148 13 17846775174436378040
17809404 112 16773789312420915082
17913733 40 18055931905104297761
1813 80 17621322763746111007
18222031 100 11819580133195093481
20197701 30 18340477856145135631
21033648 29 18051385428175521352
21524375 3 18339643326729950445
22907989 373 18198062684591585749
22956985 138 17610068867426186011
23558518 356 18261386818999487802
23559900 14 18201450134182995140
23598288 3 18341334512456604238
3027735 51 18131063866354998295
312423 11 18189617314419728862
3298306 158 18121503457942076711
340366 18 18335425621431982716
532947 4 17908701726813261679
5385378 56 17836652925021658457
5486654 36 18259979379902597274
7097593 13 18334287665646710338
7399639 24 17554321806266897408
7615 1 18188202225621859796
79837 15 18341618062598597691
81228 2 18193836166389490667
9981440 41 16987693810272307546

>  <PUBCHEM_SHAPE_MULTIPOLES>  (1) 
503.64
9.59
4.29
1.7
3.69
3.6
-0.11
-4.72
-2.25
-4.71
0.59
0.69
0.18
-1.73

>  <PUBCHEM_SHAPE_SELFOVERLAP>  (1) 
1078.943

>  <PUBCHEM_SHAPE_VOLUME>  (1) 
278.4

>  <PUBCHEM_COORDINATE_TYPE>  (1) 
2
5
10

$$$$
