23073
     RDKit          3D

 25 28  0  0  1  0  0  0  0  0999 V2000
    0.0930    0.6727   -0.7184 O   0  0  0  0  0  0  0  0  0  0  0  0
    4.1630    0.8732   -0.5719 N   0  0  0  0  0  0  0  0  0  0  0  0
    3.6928   -0.4215   -1.0880 C   0  0  0  0  0  0  0  0  0  0  0  0
    3.5582    1.1457    0.7408 C   0  0  0  0  0  0  0  0  0  0  0  0
    2.1885   -0.2881   -1.3942 C   0  0  0  0  0  0  0  0  0  0  0  0
    2.0470    1.3590    0.5280 C   0  0  0  0  0  0  0  0  0  0  0  0
    1.3509    0.2202   -0.2201 C   0  0  0  0  0  0  0  0  0  0  0  0
    4.0268   -1.5942   -0.1469 C   0  0  0  0  0  0  0  0  0  0  0  0
    3.8847    0.0600    1.7837 C   0  0  0  0  0  0  0  0  0  0  0  0
    3.6340   -1.3702    1.3115 C   0  0  0  0  0  0  0  0  0  0  0  0
    5.6164    1.0030   -0.5761 C   0  0  0  0  0  0  0  0  0  0  0  0
   -0.9400    0.4772    0.2348 C   0  0  0  0  0  0  0  0  0  0  0  0
   -1.5549   -0.9044    0.1228 C   0  0  0  0  0  0  0  0  0  0  0  0
   -1.9637    1.5883    0.1276 C   0  0  0  0  0  0  0  0  0  0  0  0
   -1.9727   -1.5495    1.2719 C   0  0  0  0  0  0  0  0  0  0  0  0
   -1.6823   -1.4844   -1.1256 C   0  0  0  0  0  0  0  0  0  0  0  0
   -2.6615    1.9737    1.2582 C   0  0  0  0  0  0  0  0  0  0  0  0
   -2.1778    2.1918   -1.0987 C   0  0  0  0  0  0  0  0  0  0  0  0
   -2.5384   -2.8204    1.1689 C   0  0  0  0  0  0  0  0  0  0  0  0
   -2.2480   -2.7553   -1.2286 C   0  0  0  0  0  0  0  0  0  0  0  0
   -3.6046    2.9967    1.1594 C   0  0  0  0  0  0  0  0  0  0  0  0
   -3.1207    3.2148   -1.1976 C   0  0  0  0  0  0  0  0  0  0  0  0
   -2.6761   -3.4233   -0.0814 C   0  0  0  0  0  0  0  0  0  0  0  0
   -3.8341    3.6173   -0.0685 C   0  0  0  0  0  0  0  0  0  0  0  0
   -3.2806   -4.7822   -0.1915 C   0  0  0  0  0  0  0  0  0  0  0  0
  1  7  1  0
  1 12  1  0
  2  3  1  0
  2  4  1  0
  2 11  1  0
  3  5  1  0
  3  8  1  0
  4  6  1  0
  4  9  1  0
  5  7  1  0
  6  7  1  0
  8 10  1  0
  9 10  1  0
 12 13  1  0
 12 14  1  0
 13 15  2  0
 13 16  1  0
 14 17  2  0
 14 18  1  0
 15 19  1  0
 16 20  2  0
 17 21  1  0
 18 22  2  0
 19 23  2  0
 20 23  1  0
 21 24  2  0
 22 24  1  0
 23 25  1  0
M  END
>  <PUBCHEM_COMPOUND_CID>  (1) 
23073

>  <PUBCHEM_CONFORMER_RMSD>  (1) 
0.8

>  <PUBCHEM_CONFORMER_DIVERSEORDER>  (1) 
3
65
67
119
148
130
54
144
131
116
145
138
152
63
122
56
153
133
120
107
68
111
136
55
24
162
118
27
139
41
35
157
59
11
38
140
57
125
39
32
155
127
46
37
158
112
141
52
18
42
147
29
31
88
98
12
69
124
60
146
49
135
17
47
14
91
30
45
58
76
50
161
21
164
48
72
25
44
97
20
129
156
159
94
101
26
64
9
22
66
113
160
19
6
137
61
13
71
109
126
108
93
33
105
16
62
89
86
134
7
53
104
51
123
106
82
70
10
75
149
128
79
163
132
73
85
114
43
8
81
83
34
110
36
102
100
80
92
74
150
121
78
143
117
40
77
28
5
151
1
142
84
99
103
15
96
90
4
154
23
87
95
2
115

>  <PUBCHEM_MMFF94_PARTIAL_CHARGES>  (1) 
29
1 -0.56
11 0.27
12 0.57
13 -0.14
14 -0.14
15 -0.15
16 -0.15
17 -0.15
18 -0.15
19 -0.15
2 -0.81
20 -0.15
21 -0.15
22 -0.15
23 -0.14
24 -0.15
25 0.14
3 0.27
4 0.27
43 0.15
44 0.15
45 0.15
46 0.15
47 0.15
48 0.15
49 0.15
50 0.15
51 0.15
7 0.28

>  <PUBCHEM_EFFECTIVE_ROTOR_COUNT>  (1) 
5.4

>  <PUBCHEM_PHARMACOPHORE_FEATURES>  (1) 
6
1 1 acceptor
1 2 cation
6 13 15 16 19 20 23 rings
6 14 17 18 21 22 24 rings
6 2 3 4 5 6 7 rings
6 2 3 4 8 9 10 rings

>  <PUBCHEM_HEAVY_ATOM_COUNT>  (1) 
25

>  <PUBCHEM_ATOM_DEF_STEREO_COUNT>  (1) 
0

>  <PUBCHEM_ATOM_UDEF_STEREO_COUNT>  (1) 
3

>  <PUBCHEM_BOND_DEF_STEREO_COUNT>  (1) 
0

>  <PUBCHEM_BOND_UDEF_STEREO_COUNT>  (1) 
0

>  <PUBCHEM_ISOTOPIC_ATOM_COUNT>  (1) 
0

>  <PUBCHEM_COMPONENT_COUNT>  (1) 
1

>  <PUBCHEM_CACTVS_TAUTO_COUNT>  (1) 
1

>  <PUBCHEM_CONFORMER_ID>  (1) 
00005A2100000003

>  <PUBCHEM_MMFF94_ENERGY>  (1) 
65.3456

>  <PUBCHEM_FEATURE_SELFOVERLAP>  (1) 
31.924

>  <PUBCHEM_SHAPE_FINGERPRINT>  (1) 
11101153 10 17903084661716169372
11265709 11 18121505919074602563
11552529 35 18412548738316200304
121448 382 18270100324475349613
12160290 23 18337409183489863323
12363563 72 18047472519420782967
12422481 6 18121813602358063587
12549972 3 17774709905766425698
12553582 1 18120661489448823530
12633257 1 18191575360029385970
12643181 29 18196662783595283830
12714826 92 18200879581557217434
12788726 201 18335977670705938739
13004483 165 18196366138165919843
13583140 156 17988348348111815090
13631057 29 18266461095489779662
13681431 1 17543914959048743465
13692114 37 18267590118370616353
14178342 30 18336817659082280522
14955137 171 17401487044501656467
15842332 3 17894634772905563484
17913733 40 17981057314921039361
1813 80 17908145721995985723
20197701 30 18194110829543080965
21033648 29 18194111924412458856
21120745 212 18121236521408940885
21304303 282 17977061796691119709
21796203 349 17035884524582115226
22907989 373 18339080496645620261
23558518 356 18261393398873216520
23598288 3 18341325652218861670
283562 15 18191301778754523258
3027735 51 18271799112700357319
3298306 158 17903640679090233711
3380486 145 17481961833857029455
3729539 64 17547309803888983630
5104073 3 18410287013682277664
5309563 4 17906732857785629427
532947 4 17619910556734193023
5385378 56 17547295502106953497
59025328 239 16981491633084967391
59755656 520 18340770317353206421
633830 44 17699574632495773677
70251023 43 18123192574016434010
7399639 24 17840858891804786800
79837 15 18269275660605032217
81228 2 18335700606787059393
9981440 41 16624562562979868945

>  <PUBCHEM_SHAPE_MULTIPOLES>  (1) 
503.64
9.55
5.07
1.48
11.3
2.99
-0.17
-2.34
-0.39
-10.38
0.22
0.19
-0.03
-0.22

>  <PUBCHEM_SHAPE_SELFOVERLAP>  (1) 
1080.508

>  <PUBCHEM_SHAPE_VOLUME>  (1) 
278.4

>  <PUBCHEM_COORDINATE_TYPE>  (1) 
2
5
10

$$$$
