23075
     RDKit          3D

 27 30  0  0  1  0  0  0  0  0999 V2000
    0.4134    0.4028    0.8005 O   0  0  0  0  0  0  0  0  0  0  0  0
   -3.6544    0.2600    0.5621 N   0  0  0  0  0  0  0  0  0  0  0  0
   -3.0437    0.5478   -0.7448 C   0  0  0  0  0  0  0  0  0  0  0  0
   -3.0912   -0.9773    1.1237 C   0  0  0  0  0  0  0  0  0  0  0  0
   -1.5607    0.8913   -0.5062 C   0  0  0  0  0  0  0  0  0  0  0  0
   -1.6108   -0.7108    1.4584 C   0  0  0  0  0  0  0  0  0  0  0  0
   -0.7907   -0.1656    0.2884 C   0  0  0  0  0  0  0  0  0  0  0  0
   -3.2552   -0.5879   -1.7636 C   0  0  0  0  0  0  0  0  0  0  0  0
   -3.3045   -2.1977    0.2083 C   0  0  0  0  0  0  0  0  0  0  0  0
   -2.8975   -1.9794   -1.2470 C   0  0  0  0  0  0  0  0  0  0  0  0
   -5.1133    0.2687    0.5322 C   0  0  0  0  0  0  0  0  0  0  0  0
   -5.6266    1.6472    0.1237 C   0  0  0  0  0  0  0  0  0  0  0  0
    1.4811    0.2697   -0.1247 C   0  0  0  0  0  0  0  0  0  0  0  0
   -7.1469    1.6891    0.1056 C   0  0  0  0  0  0  0  0  0  0  0  0
    2.2054   -1.0526    0.0381 C   0  0  0  0  0  0  0  0  0  0  0  0
    2.4067    1.4646   -0.0265 C   0  0  0  0  0  0  0  0  0  0  0  0
    2.7107   -1.7088   -1.0697 C   0  0  0  0  0  0  0  0  0  0  0  0
    2.3408   -1.5715    1.3139 C   0  0  0  0  0  0  0  0  0  0  0  0
    2.1645    2.5720   -0.8195 C   0  0  0  0  0  0  0  0  0  0  0  0
    3.4726    1.4214    0.8544 C   0  0  0  0  0  0  0  0  0  0  0  0
    3.3734   -2.9240   -0.8967 C   0  0  0  0  0  0  0  0  0  0  0  0
    2.5655   -1.1523   -2.4481 C   0  0  0  0  0  0  0  0  0  0  0  0
    3.0036   -2.7866    1.4868 C   0  0  0  0  0  0  0  0  0  0  0  0
    3.0167    3.6727   -0.7290 C   0  0  0  0  0  0  0  0  0  0  0  0
    4.3247    2.5221    0.9450 C   0  0  0  0  0  0  0  0  0  0  0  0
    3.5198   -3.4628    0.3816 C   0  0  0  0  0  0  0  0  0  0  0  0
    4.0966    3.6477    0.1532 C   0  0  0  0  0  0  0  0  0  0  0  0
  1  7  1  0
  1 13  1  0
  2  3  1  0
  2  4  1  0
  2 11  1  0
  3  5  1  0
  3  8  1  0
  4  6  1  0
  4  9  1  0
  5  7  1  0
  6  7  1  0
  8 10  1  0
  9 10  1  0
 11 12  1  0
 12 14  1  0
 13 15  1  0
 13 16  1  0
 15 17  2  0
 15 18  1  0
 16 19  2  0
 16 20  1  0
 17 21  1  0
 17 22  1  0
 18 23  2  0
 19 24  1  0
 20 25  2  0
 21 26  2  0
 23 26  1  0
 24 27  2  0
 25 27  1  0
M  END
>  <PUBCHEM_COMPOUND_CID>  (1) 
23075

>  <PUBCHEM_CONFORMER_RMSD>  (1) 
0.8

>  <PUBCHEM_CONFORMER_DIVERSEORDER>  (1) 
1
226
109
204
149
107
189
71
259
178
106
123
168
96
74
154
112
188
202
66
34
265
240
94
232
196
257
5
194
244
103
118
247
68
234
53
191
179
192
141
100
83
39
85
224
222
44
36
57
159
215
61
252
219
262
13
38
231
167
113
93
43
186
246
229
200
26
201
102
214
142
255
52
251
55
225
111
101
99
114
238
185
86
155
242
64
148
193
197
69
171
127
203
208
73
78
237
72
264
82
50
89
21
241
176
221
260
228
51
14
45
163
75
110
29
105
164
133
98
205
6
177
235
95
59
220
18
88
261
236
135
3
40
210
158
19
120
267
27
9
58
212
32
216
15
23
245
151
4
207
62
147
129
165
77
190
84
17
174
137
166
173
76
48
28
87
104
181
12
91
223
233
143
54
116
20
132
126
41
42
198
195
22
248
187
31
130
90
153
122
250
175
56
33
79
172
217
92
67
160
144
117
60
7
263
65
138
46
199
139
119
35
47
157
115
206
180
146
37
97
70
249
209
49
8
161
121
81
256
156
24
134
131
182
2
10
243
230
11
253
63
136
254
211
30
145
108
213
150
183
152
128
140
239
125
25
227
184
162
124
266
258
16
169
80
218
170

>  <PUBCHEM_MMFF94_PARTIAL_CHARGES>  (1) 
29
1 -0.56
11 0.27
13 0.57
15 -0.14
16 -0.14
17 -0.14
18 -0.15
19 -0.15
2 -0.81
20 -0.15
21 -0.15
22 0.14
23 -0.15
24 -0.15
25 -0.15
26 -0.15
27 -0.15
3 0.27
4 0.27
49 0.15
50 0.15
51 0.15
52 0.15
56 0.15
57 0.15
58 0.15
59 0.15
60 0.15
7 0.28

>  <PUBCHEM_EFFECTIVE_ROTOR_COUNT>  (1) 
7.4

>  <PUBCHEM_PHARMACOPHORE_FEATURES>  (1) 
7
1 1 acceptor
1 14 hydrophobe
1 2 cation
6 15 17 18 21 23 26 rings
6 16 19 20 24 25 27 rings
6 2 3 4 5 6 7 rings
6 2 3 4 8 9 10 rings

>  <PUBCHEM_HEAVY_ATOM_COUNT>  (1) 
27

>  <PUBCHEM_ATOM_DEF_STEREO_COUNT>  (1) 
0

>  <PUBCHEM_ATOM_UDEF_STEREO_COUNT>  (1) 
3

>  <PUBCHEM_BOND_DEF_STEREO_COUNT>  (1) 
0

>  <PUBCHEM_BOND_UDEF_STEREO_COUNT>  (1) 
0

>  <PUBCHEM_ISOTOPIC_ATOM_COUNT>  (1) 
0

>  <PUBCHEM_COMPONENT_COUNT>  (1) 
1

>  <PUBCHEM_CACTVS_TAUTO_COUNT>  (1) 
1

>  <PUBCHEM_CONFORMER_ID>  (1) 
00005A2300000001

>  <PUBCHEM_MMFF94_ENERGY>  (1) 
69.0059

>  <PUBCHEM_FEATURE_SELFOVERLAP>  (1) 
36.998

>  <PUBCHEM_SHAPE_FINGERPRINT>  (1) 
10369192 42 17972328583553991372
10764073 3 16519855955509153480
11405975 8 18410575063689526051
11475781 23 13613678429509838273
12553582 1 18193270793632123910
12788726 201 17418101983941982649
13224815 77 18261951954927413799
133893 2 18269012963309599544
14950920 106 8717713907058489111
15163728 17 17898586512122183548
15439362 3 18411703231698024168
17138139 8 17051867004138920630
17809404 112 16734081575065107607
17818456 19 17845095056619180345
17844677 252 18338241466785216345
17980427 23 17986080038259461570
1813 80 17984712121282875430
20197701 30 18124867122168404088
20369508 70 18262801748609091274
20567600 347 18122907796510786894
21033648 144 17607229150222831940
21304303 172 17769943372515062056
21421861 104 18408880711839168504
21524375 3 18052536874874108120
21859007 373 17460295678265187949
22393880 68 18200040658590929230
23419403 2 17171761880127792734
23559900 14 18411420583366969434
3004659 81 17989207006226066263
3411729 13 18412261757497475192
376196 1 18194117654103891520
5081480 168 18335139726485629613
5104073 3 18334583434606892209
57724786 102 18412825759770754793
59755656 215 18411425003405645500
633830 44 18267307719264235228
9841814 1 18335699374105097986
9981440 41 18120090847403635024

>  <PUBCHEM_SHAPE_MULTIPOLES>  (1) 
544.8
11.94
4.3
1.55
18.28
1.1
0.48
5.47
-0.93
-7.17
0.06
-0.56
-0.77
-0.09

>  <PUBCHEM_SHAPE_SELFOVERLAP>  (1) 
1159.294

>  <PUBCHEM_SHAPE_VOLUME>  (1) 
303.6

>  <PUBCHEM_COORDINATE_TYPE>  (1) 
2
5
10

$$$$
