23071
     RDKit          3D

 25 28  0  0  1  0  0  0  0  0999 V2000
   -0.0374    0.3124   -0.8544 O   0  0  0  0  0  0  0  0  0  0  0  0
    3.9505    1.1547   -0.7403 N   0  0  0  0  0  0  0  0  0  0  0  0
    3.6929   -0.2456   -1.1099 C   0  0  0  0  0  0  0  0  0  0  0  0
    3.2918    1.4717    0.5360 C   0  0  0  0  0  0  0  0  0  0  0  0
    2.1907   -0.3805   -1.4255 C   0  0  0  0  0  0  0  0  0  0  0  0
    1.7690    1.4241    0.3045 C   0  0  0  0  0  0  0  0  0  0  0  0
    1.2677    0.1169   -0.3124 C   0  0  0  0  0  0  0  0  0  0  0  0
    4.1896   -1.2430   -0.0465 C   0  0  0  0  0  0  0  0  0  0  0  0
    3.7661    0.5695    1.6910 C   0  0  0  0  0  0  0  0  0  0  0  0
    3.7456   -0.9250    1.3794 C   0  0  0  0  0  0  0  0  0  0  0  0
    5.3666    1.5063   -0.7619 C   0  0  0  0  0  0  0  0  0  0  0  0
   -1.0420    0.0645    0.1168 C   0  0  0  0  0  0  0  0  0  0  0  0
   -2.2484    0.9582   -0.0971 C   0  0  0  0  0  0  0  0  0  0  0  0
   -1.3948   -1.4083    0.1425 C   0  0  0  0  0  0  0  0  0  0  0  0
   -2.5826    1.9110    0.8481 C   0  0  0  0  0  0  0  0  0  0  0  0
   -2.9906    0.7902   -1.2529 C   0  0  0  0  0  0  0  0  0  0  0  0
   -1.8244   -1.9782    1.3275 C   0  0  0  0  0  0  0  0  0  0  0  0
   -1.2789   -2.1496   -1.0197 C   0  0  0  0  0  0  0  0  0  0  0  0
   -3.6958    2.7229    0.6312 C   0  0  0  0  0  0  0  0  0  0  0  0
   -1.7839    2.0960    2.0964 C   0  0  0  0  0  0  0  0  0  0  0  0
   -4.1039    1.6022   -1.4698 C   0  0  0  0  0  0  0  0  0  0  0  0
   -2.1491   -3.3345    1.3512 C   0  0  0  0  0  0  0  0  0  0  0  0
   -1.6035   -3.5059   -0.9961 C   0  0  0  0  0  0  0  0  0  0  0  0
   -4.4565    2.5685   -0.5277 C   0  0  0  0  0  0  0  0  0  0  0  0
   -2.0388   -4.0984    0.1893 C   0  0  0  0  0  0  0  0  0  0  0  0
  1  7  1  0
  1 12  1  0
  2  3  1  0
  2  4  1  0
  2 11  1  0
  3  5  1  0
  3  8  1  0
  4  6  1  0
  4  9  1  0
  5  7  1  0
  6  7  1  0
  8 10  1  0
  9 10  1  0
 12 13  1  0
 12 14  1  0
 13 15  2  0
 13 16  1  0
 14 17  2  0
 14 18  1  0
 15 19  1  0
 15 20  1  0
 16 21  2  0
 17 22  1  0
 18 23  2  0
 19 24  2  0
 21 24  1  0
 22 25  2  0
 23 25  1  0
M  END
>  <PUBCHEM_COMPOUND_CID>  (1) 
23071

>  <PUBCHEM_CONFORMER_RMSD>  (1) 
0.8

>  <PUBCHEM_CONFORMER_DIVERSEORDER>  (1) 
2
22
68
77
92
69
82
40
32
55
35
67
70
26
20
50
102
83
29
30
100
90
93
27
98
101
21
3
63
78
99
23
91
66
39
10
18
9
75
62
11
36
105
73
81
58
33
4
95
25
34
65
14
8
71
45
106
15
104
41
12
72
107
13
79
76
46
37
43
80
38
6
42
59
96
19
28
97
61
17
31
74
89
103
24
60
7
57
5
56
48
51
64
1
88
16
54
47
44
94
86
84
53
52
87
49
85

>  <PUBCHEM_MMFF94_PARTIAL_CHARGES>  (1) 
29
1 -0.56
11 0.27
12 0.57
13 -0.14
14 -0.14
15 -0.14
16 -0.15
17 -0.15
18 -0.15
19 -0.15
2 -0.81
20 0.14
21 -0.15
22 -0.15
23 -0.15
24 -0.15
25 -0.15
3 0.27
4 0.27
43 0.15
44 0.15
45 0.15
46 0.15
50 0.15
51 0.15
52 0.15
53 0.15
54 0.15
7 0.28

>  <PUBCHEM_EFFECTIVE_ROTOR_COUNT>  (1) 
5.4

>  <PUBCHEM_PHARMACOPHORE_FEATURES>  (1) 
6
1 1 acceptor
1 2 cation
6 13 15 16 19 21 24 rings
6 14 17 18 22 23 25 rings
6 2 3 4 5 6 7 rings
6 2 3 4 8 9 10 rings

>  <PUBCHEM_HEAVY_ATOM_COUNT>  (1) 
25

>  <PUBCHEM_ATOM_DEF_STEREO_COUNT>  (1) 
0

>  <PUBCHEM_ATOM_UDEF_STEREO_COUNT>  (1) 
3

>  <PUBCHEM_BOND_DEF_STEREO_COUNT>  (1) 
0

>  <PUBCHEM_BOND_UDEF_STEREO_COUNT>  (1) 
0

>  <PUBCHEM_ISOTOPIC_ATOM_COUNT>  (1) 
0

>  <PUBCHEM_COMPONENT_COUNT>  (1) 
1

>  <PUBCHEM_CACTVS_TAUTO_COUNT>  (1) 
1

>  <PUBCHEM_CONFORMER_ID>  (1) 
00005A1F00000002

>  <PUBCHEM_MMFF94_ENERGY>  (1) 
69.3036

>  <PUBCHEM_FEATURE_SELFOVERLAP>  (1) 
31.924

>  <PUBCHEM_SHAPE_FINGERPRINT>  (1) 
10366900 7 17561081402144150120
11552529 35 18338801242256476894
11578080 2 17342931861342549283
121448 382 18271232855821960625
12160290 23 18338816596991621439
12553582 1 17906736156547372578
12643181 29 18338807694147279686
12714826 92 18268997672519384066
12788726 201 18263637545050470763
13004483 165 18123185977084317387
133893 2 17542787508706128187
13583140 156 17530973504873261265
13631057 29 18119814870248793550
13681431 1 17182505529922201371
14178342 30 18336253644040208418
14468879 13 17774990315174410910
15420108 30 15541238628630269000
16752209 62 18336255825651914811
17349148 13 18130500855802146052
18222031 100 7853268957286117433
18603816 31 17702084891157779014
20197701 30 18264757793090925471
21033648 144 18337098060381218228
21033648 29 18189605073341786868
21033650 10 17273158811997294248
21524375 3 18265892458836076247
22907989 373 18266469882729227717
23419403 2 15910769570568386303
23557571 272 18271250541985479036
23558518 356 17898291851432219816
23559900 14 18342179930373189230
23598288 3 18191600837327103695
283562 15 18045782544363392818
3380486 145 17695064792533746215
404807 14 14901166795054398830
4258327 124 17823430446703524629
4340502 62 18192445069880947721
4409770 3 18339361984902942655
474 4 18125161537470166245
5104073 3 18334287713382227792
59025328 239 16765042916486759351
59755656 520 18409167675862944813
633830 44 18056483846476498117
81228 2 18190182484839554611
9709674 26 18201433722627738076
9981440 41 17702644640705923010

>  <PUBCHEM_SHAPE_MULTIPOLES>  (1) 
503.64
9.35
4.18
1.64
8.21
4.19
-0.36
-5.93
1.12
-5.61
-0.65
-0.1
-0.11
0.17

>  <PUBCHEM_SHAPE_SELFOVERLAP>  (1) 
1081.964

>  <PUBCHEM_SHAPE_VOLUME>  (1) 
278

>  <PUBCHEM_COORDINATE_TYPE>  (1) 
2
5
10

$$$$
