23087
     RDKit          3D

 11 10  0  0  0  0  0  0  0  0999 V2000
    0.0367    0.0792   -0.0077 O   0  0  0  0  0  0  0  0  0  0  0  0
   -1.0163    2.1273    0.0032 O   0  0  0  0  0  0  0  0  0  0  0  0
   -2.2671   -2.4879   -0.0033 N   0  0  0  0  0  0  0  0  0  0  0  0
    2.3931   -0.3459   -0.0191 C   0  0  0  0  0  0  0  0  0  0  0  0
    3.7878    0.2732   -0.0072 C   0  0  0  0  0  0  0  0  0  0  0  0
    1.3055    0.7189   -0.0111 C   0  0  0  0  0  0  0  0  0  0  0  0
    4.8705   -0.7935    0.0285 C   0  0  0  0  0  0  0  0  0  0  0  0
   -1.0520    0.9050   -0.0004 C   0  0  0  0  0  0  0  0  0  0  0  0
   -2.3031    0.0969    0.0039 C   0  0  0  0  0  0  0  0  0  0  0  0
   -3.4710    0.7544    0.0140 C   0  0  0  0  0  0  0  0  0  0  0  0
   -2.2842   -1.3275   -0.0007 C   0  0  0  0  0  0  0  0  0  0  0  0
  1  6  1  0
  1  8  1  0
  2  8  2  0
  3 11  3  0
  4  5  1  0
  4  6  1  0
  5  7  1  0
  8  9  1  0
  9 10  2  0
  9 11  1  0
M  END
>  <PUBCHEM_COMPOUND_CID>  (1) 
23087

>  <PUBCHEM_CONFORMER_RMSD>  (1) 
0.6

>  <PUBCHEM_CONFORMER_DIVERSEORDER>  (1) 
1
158
32
168
122
109
39
82
142
18
170
136
85
8
161
121
5
33
116
163
153
133
89
2
69
99
77
7
169
15
141
102
67
165
80
144
40
9
106
61
137
157
88
172
53
100
27
46
31
59
24
19
148
22
107
84
117
66
154
125
98
44
111
64
81
50
30
90
68
131
20
97
105
41
128
16
129
79
6
124
113
60
126
127
3
26
94
55
114
45
63
145
35
73
23
25
115
72
83
104
37
36
139
34
29
140
75
4
132
156
57
54
159
48
12
118
164
91
56
101
52
108
95
86
162
103
150
14
10
21
110
119
160
76
78
17
123
171
58
70
74
51
138
143
49
151
167
43
11
71
96
65
152
42
93
13
47
146
112
28
87
62
147
149
38
134
166
155
92
130
135
120

>  <PUBCHEM_MMFF94_PARTIAL_CHARGES>  (1) 
10
1 -0.43
10 -0.3
11 0.49
2 -0.57
21 0.15
22 0.15
3 -0.56
6 0.28
8 0.71
9 0.08

>  <PUBCHEM_EFFECTIVE_ROTOR_COUNT>  (1) 
5

>  <PUBCHEM_PHARMACOPHORE_FEATURES>  (1) 
4
1 10 hydrophobe
1 2 acceptor
1 3 acceptor
1 7 hydrophobe

>  <PUBCHEM_HEAVY_ATOM_COUNT>  (1) 
11

>  <PUBCHEM_ATOM_DEF_STEREO_COUNT>  (1) 
0

>  <PUBCHEM_ATOM_UDEF_STEREO_COUNT>  (1) 
0

>  <PUBCHEM_BOND_DEF_STEREO_COUNT>  (1) 
0

>  <PUBCHEM_BOND_UDEF_STEREO_COUNT>  (1) 
0

>  <PUBCHEM_ISOTOPIC_ATOM_COUNT>  (1) 
0

>  <PUBCHEM_COMPONENT_COUNT>  (1) 
1

>  <PUBCHEM_CACTVS_TAUTO_COUNT>  (1) 
1

>  <PUBCHEM_CONFORMER_ID>  (1) 
00005A2F00000001

>  <PUBCHEM_MMFF94_ENERGY>  (1) 
9.4557

>  <PUBCHEM_FEATURE_SELFOVERLAP>  (1) 
20.297

>  <PUBCHEM_SHAPE_FINGERPRINT>  (1) 
12757275 245 18409731781083791342
12932764 1 17530951497555418056
14325111 11 18410575106644402020
17834074 16 18341616967287426638
18342897 69 18409162199737457168
20201158 50 18201721730086260030
20279233 1 17988649579484556158
20281407 28 18341897406949717400
20645477 70 16558191480562351380
20828058 44 18412260632352992250
20871998 184 18202004364873036879
21061003 4 17132116865988507464
21119208 17 17967813825548233668
22485316 2 18408037408174782914
23402539 116 18272363153780751829
23552423 10 18115869783588881909
23559900 14 18413384337742608272
75552 356 18411419526910314647
8809292 202 18409450310248924458

>  <PUBCHEM_SHAPE_MULTIPOLES>  (1) 
209.66
7.83
1.81
0.59
9.1
0.65
0
1.79
-0.06
-1.73
0
0.03
0
-0.02

>  <PUBCHEM_SHAPE_SELFOVERLAP>  (1) 
397.312

>  <PUBCHEM_SHAPE_VOLUME>  (1) 
127.6

>  <PUBCHEM_COORDINATE_TYPE>  (1) 
2
5
10

$$$$
