23088
     RDKit          3D

 10 10  0  0  0  0  0  0  0  0999 V2000
   -1.9302    0.0130   -1.7866 Cl  0  0  0  0  0  0  0  0  0  0  0  0
   -3.8649   -0.0052    0.7296 Cl  0  0  0  0  0  0  0  0  0  0  0  0
    0.1510    0.0000   -0.0523 C   0  0  0  0  0  0  0  0  0  0  0  0
    0.8465   -1.2082   -0.0030 C   0  0  0  0  0  0  0  0  0  0  0  0
    0.8461    1.2079    0.0104 C   0  0  0  0  0  0  0  0  0  0  0  0
    2.2368   -1.2086    0.1092 C   0  0  0  0  0  0  0  0  0  0  0  0
    2.2365    1.2074    0.1226 C   0  0  0  0  0  0  0  0  0  0  0  0
    2.9318   -0.0010    0.1719 C   0  0  0  0  0  0  0  0  0  0  0  0
   -1.2988    0.0003   -0.1691 C   0  0  0  0  0  0  0  0  0  0  0  0
   -2.1547   -0.0056    0.8673 C   0  0  0  0  0  0  0  0  0  0  0  0
  1  9  1  0
  2 10  1  0
  3  4  2  0
  3  5  1  0
  3  9  1  0
  4  6  1  0
  5  7  2  0
  6  8  2  0
  7  8  1  0
  9 10  2  0
M  END
>  <PUBCHEM_COMPOUND_CID>  (1) 
23088

>  <PUBCHEM_CONFORMER_RMSD>  (1) 
0.4

>  <PUBCHEM_CONFORMER_DIVERSEORDER>  (1) 
1
2

>  <PUBCHEM_MMFF94_PARTIAL_CHARGES>  (1) 
16
1 -0.14
10 -0.01
11 0.15
12 0.15
13 0.15
14 0.15
15 0.15
16 0.15
2 -0.14
3 0.03
4 -0.15
5 -0.15
6 -0.15
7 -0.15
8 -0.15
9 0.11

>  <PUBCHEM_EFFECTIVE_ROTOR_COUNT>  (1) 
1

>  <PUBCHEM_PHARMACOPHORE_FEATURES>  (1) 
1
6 3 4 5 6 7 8 rings

>  <PUBCHEM_HEAVY_ATOM_COUNT>  (1) 
10

>  <PUBCHEM_ATOM_DEF_STEREO_COUNT>  (1) 
0

>  <PUBCHEM_ATOM_UDEF_STEREO_COUNT>  (1) 
0

>  <PUBCHEM_BOND_DEF_STEREO_COUNT>  (1) 
0

>  <PUBCHEM_BOND_UDEF_STEREO_COUNT>  (1) 
1

>  <PUBCHEM_ISOTOPIC_ATOM_COUNT>  (1) 
0

>  <PUBCHEM_COMPONENT_COUNT>  (1) 
1

>  <PUBCHEM_CACTVS_TAUTO_COUNT>  (1) 
1

>  <PUBCHEM_CONFORMER_ID>  (1) 
00005A3000000001

>  <PUBCHEM_MMFF94_ENERGY>  (1) 
26.8677

>  <PUBCHEM_FEATURE_SELFOVERLAP>  (1) 
5.074

>  <PUBCHEM_SHAPE_FINGERPRINT>  (1) 
10219947 1 18410016537077535881
10857977 72 16950565510352534981
12932764 1 18410285917405222583
14325111 11 18412268371504128193
15219456 202 17967525761928186693
15775835 57 17703792552066969521
16945 1 18410846664467669310
17844478 74 17894352163793846413
20201158 50 18113622270025983859
20281407 28 17095251310677406067
20871998 22 17983585100347493902
21040471 1 18194962070533362800
23235685 24 18410293652862992152
23402539 116 15936683852516842547
2748010 2 18051682249264656086
276578 36 15984840198460586039
29004967 10 18333450919870209696
5084963 1 17385729084011108980
77492 1 17703783734730965933

>  <PUBCHEM_SHAPE_MULTIPOLES>  (1) 
209.53
5.21
1.2
1.11
2.71
0
-0.5
0.01
1.12
-0.89
0.03
1.03
-0.01
0.02

>  <PUBCHEM_SHAPE_SELFOVERLAP>  (1) 
414.665

>  <PUBCHEM_SHAPE_VOLUME>  (1) 
121.5

>  <PUBCHEM_COORDINATE_TYPE>  (1) 
2
5
10

$$$$
