23086
     RDKit          3D

 25 28  0  0  1  0  0  0  0  0999 V2000
    3.4198   -4.9491   -0.1895 Cl  0  0  0  0  0  0  0  0  0  0  0  0
   -0.1017    0.6667   -0.7310 O   0  0  0  0  0  0  0  0  0  0  0  0
   -4.1725    0.8360   -0.5690 N   0  0  0  0  0  0  0  0  0  0  0  0
   -3.5561    1.1282    0.7342 C   0  0  0  0  0  0  0  0  0  0  0  0
   -3.7026   -0.4638   -1.0722 C   0  0  0  0  0  0  0  0  0  0  0  0
   -2.0478    1.3441    0.5038 C   0  0  0  0  0  0  0  0  0  0  0  0
   -2.2017   -0.3292   -1.3946 C   0  0  0  0  0  0  0  0  0  0  0  0
   -1.3548    0.1985   -0.2349 C   0  0  0  0  0  0  0  0  0  0  0  0
   -3.8685    0.0555    1.7944 C   0  0  0  0  0  0  0  0  0  0  0  0
   -4.0231   -1.6251   -0.1123 C   0  0  0  0  0  0  0  0  0  0  0  0
   -3.6172   -1.3801    1.3391 C   0  0  0  0  0  0  0  0  0  0  0  0
   -5.6264    0.9603   -0.5609 C   0  0  0  0  0  0  0  0  0  0  0  0
    0.9296    0.4959    0.2288 C   0  0  0  0  0  0  0  0  0  0  0  0
    1.5585   -0.8800    0.1235 C   0  0  0  0  0  0  0  0  0  0  0  0
    1.9409    1.6179    0.1174 C   0  0  0  0  0  0  0  0  0  0  0  0
    2.0807   -1.4697    1.2597 C   0  0  0  0  0  0  0  0  0  0  0  0
    1.5937   -1.5106   -1.1063 C   0  0  0  0  0  0  0  0  0  0  0  0
    2.6265    2.0225    1.2488 C   0  0  0  0  0  0  0  0  0  0  0  0
    2.1553    2.2125   -1.1131 C   0  0  0  0  0  0  0  0  0  0  0  0
    2.6590   -2.7353    1.1624 C   0  0  0  0  0  0  0  0  0  0  0  0
    2.1720   -2.7762   -1.2035 C   0  0  0  0  0  0  0  0  0  0  0  0
    3.5577    3.0560    1.1462 C   0  0  0  0  0  0  0  0  0  0  0  0
    3.0865    3.2459   -1.2157 C   0  0  0  0  0  0  0  0  0  0  0  0
    2.7047   -3.3885   -0.0692 C   0  0  0  0  0  0  0  0  0  0  0  0
    3.7878    3.6676   -0.0861 C   0  0  0  0  0  0  0  0  0  0  0  0
  1 24  1  0
  2  8  1  0
  2 13  1  0
  3  4  1  0
  3  5  1  0
  3 12  1  0
  4  6  1  0
  4  9  1  0
  5  7  1  0
  5 10  1  0
  6  8  1  0
  7  8  1  0
  9 11  1  0
 10 11  1  0
 13 14  1  0
 13 15  1  0
 14 16  2  0
 14 17  1  0
 15 18  2  0
 15 19  1  0
 16 20  1  0
 17 21  2  0
 18 22  1  0
 19 23  2  0
 20 24  2  0
 21 24  1  0
 22 25  2  0
 23 25  1  0
M  END
>  <PUBCHEM_COMPOUND_CID>  (1) 
23086

>  <PUBCHEM_CONFORMER_RMSD>  (1) 
0.8

>  <PUBCHEM_CONFORMER_DIVERSEORDER>  (1) 
1
4
41
40
33
45
52
57
49
42
51
29
11
31
24
48
15
44
13
54
30
6
27
14
9
7
12
5
32
16
26
43
28
56
55
46
34
22
10
38
35
53
39
2
8
17
50
37
18
19
3
23
20
47
21
36
25

>  <PUBCHEM_MMFF94_PARTIAL_CHARGES>  (1) 
29
1 -0.18
12 0.27
13 0.57
14 -0.14
15 -0.14
16 -0.15
17 -0.15
18 -0.15
19 -0.15
2 -0.56
20 -0.15
21 -0.15
22 -0.15
23 -0.15
24 0.18
25 -0.15
3 -0.81
4 0.27
43 0.15
44 0.15
45 0.15
46 0.15
47 0.15
48 0.15
49 0.15
5 0.27
50 0.15
51 0.15
8 0.28

>  <PUBCHEM_EFFECTIVE_ROTOR_COUNT>  (1) 
5.4

>  <PUBCHEM_PHARMACOPHORE_FEATURES>  (1) 
6
1 2 acceptor
1 3 cation
6 14 16 17 20 21 24 rings
6 15 18 19 22 23 25 rings
6 3 4 5 6 7 8 rings
6 3 4 5 9 10 11 rings

>  <PUBCHEM_HEAVY_ATOM_COUNT>  (1) 
25

>  <PUBCHEM_ATOM_DEF_STEREO_COUNT>  (1) 
0

>  <PUBCHEM_ATOM_UDEF_STEREO_COUNT>  (1) 
3

>  <PUBCHEM_BOND_DEF_STEREO_COUNT>  (1) 
0

>  <PUBCHEM_BOND_UDEF_STEREO_COUNT>  (1) 
0

>  <PUBCHEM_ISOTOPIC_ATOM_COUNT>  (1) 
0

>  <PUBCHEM_COMPONENT_COUNT>  (1) 
1

>  <PUBCHEM_CACTVS_TAUTO_COUNT>  (1) 
1

>  <PUBCHEM_CONFORMER_ID>  (1) 
00005A2E00000001

>  <PUBCHEM_MMFF94_ENERGY>  (1) 
63.9722

>  <PUBCHEM_FEATURE_SELFOVERLAP>  (1) 
31.924

>  <PUBCHEM_SHAPE_FINGERPRINT>  (1) 
10074138 170 17405683253535378568
10554248 39 18200016354263097285
11056379 131 17187293366481073702
11069576 57 18055604391577115111
11488393 25 18334018272608507138
121448 382 17767960192492810588
12160290 23 16896781477714754822
12549972 3 17895772694441952177
12553582 1 17974287616742550867
12707595 3 18190185581105163483
12788726 201 17036971421769045050
12839892 36 18192700370397996042
13224815 77 18201441427989172441
133893 2 18267843082457825230
13533116 47 18411139113555404139
13681431 1 18338235938882373984
13911987 19 17974283532487252165
13955234 65 18411985758092065344
14347424 109 18268449987955711491
14466204 15 17547014027140649329
14856354 85 14905892689800148254
14955137 171 18342734088554942274
15842332 3 17917990573132892943
17492 89 18412260623863947023
1813 80 18055075359117248302
20197701 30 18267582605940396600
20567600 347 18267587003770344118
20600515 1 17553767257453934516
20681651 13 18130514128010551419
20739085 24 18261384590180661676
21033648 29 12903201700362094197
21120745 212 17621338848830807286
21304303 172 17624977127726420432
21796203 349 17836125249154974802
2255824 54 18411700967669841806
23366157 5 18408325462582507220
23559900 14 18338229363240075075
4409770 3 16966604868193533012
458136 41 18338528550382352472
469060 322 17761219117216340011
474 4 18335980986151815044
5104073 3 18410580570401914009
59755656 215 18408884023253951612
59755656 520 18053107517082743364
6442390 28 18051426359207823472
6669772 16 18268999859665027388
7097593 13 18198909115002204715
7364860 26 18342454824948500476
81228 2 17260745149556842096
9709674 26 18335980896484665123
9841814 1 18188766124552135122
9981440 41 18193831776305264842

>  <PUBCHEM_SHAPE_MULTIPOLES>  (1) 
505.51
9.57
5.23
1.48
11.49
2.89
0.17
-1.34
0.46
-11.1
-0.28
0.21
-0.06
0.19

>  <PUBCHEM_SHAPE_SELFOVERLAP>  (1) 
1077.605

>  <PUBCHEM_SHAPE_VOLUME>  (1) 
281.5

>  <PUBCHEM_COORDINATE_TYPE>  (1) 
2
5
10

$$$$
