23089
     RDKit          3D

 10  9  0  0  0  0  0  0  0  0999 V2000
    0.3961   -0.1160   -0.0402 S   0  0  0  0  0  0  0  0  0  0  0  0
   -2.6658   -0.0692    0.3110 O   0  0  0  0  0  0  0  0  0  0  0  0
    3.0828   -0.2137    0.7214 C   0  0  0  0  0  0  0  0  0  0  0  0
    3.5653    0.5302   -0.5268 C   0  0  0  0  0  0  0  0  0  0  0  0
    1.8461   -1.0791    0.4808 C   0  0  0  0  0  0  0  0  0  0  0  0
   -0.7785   -1.4798   -0.2031 C   0  0  0  0  0  0  0  0  0  0  0  0
    4.8533    1.2921   -0.2530 C   0  0  0  0  0  0  0  0  0  0  0  0
   -2.1466   -0.9844   -0.6448 C   0  0  0  0  0  0  0  0  0  0  0  0
   -3.8526    0.4524   -0.0846 C   0  0  0  0  0  0  0  0  0  0  0  0
   -4.3002    1.6675    0.2393 C   0  0  0  0  0  0  0  0  0  0  0  0
  1  5  1  0
  1  6  1  0
  2  8  1  0
  2  9  1  0
  3  4  1  0
  3  5  1  0
  4  7  1  0
  6  8  1  0
  9 10  2  0
M  END
>  <PUBCHEM_COMPOUND_CID>  (1) 
23089

>  <PUBCHEM_CONFORMER_RMSD>  (1) 
0.6

>  <PUBCHEM_CONFORMER_DIVERSEORDER>  (1) 
2
252
151
187
264
6
234
41
81
272
103
263
153
253
157
239
13
175
218
259
37
242
222
254
216
249
16
14
74
185
168
277
160
186
140
31
251
133
127
104
256
278
137
193
134
46
65
105
273
39
202
182
260
116
271
212
155
267
43
60
72
148
199
261
70
276
166
257
107
45
170
255
35
99
207
192
223
8
150
71
110
3
22
85
268
198
119
205
269
156
258
231
106
227
79
52
90
145
28
118
9
93
69
266
221
102
217
113
7
194
109
54
141
95
262
159
25
250
275
204
248
87
50
197
115
12
44
135
66
143
125
17
84
29
114
89
265
123
97
128
5
206
146
214
23
124
144
100
122
58
164
59
30
24
56
33
82
77
241
189
247
80
209
73
220
149
274
235
178
152
108
11
111
18
171
236
136
237
76
57
142
183
172
211
64
176
10
91
78
225
15
53
201
130
238
232
21
32
190
215
94
68
246
270
188
203
181
40
191
196
101
61
55
117
26
67
243
138
112
245
224
62
158
48
161
208
219
27
63
213
177
92
244
163
49
129
184
96
20
169
226
88
179
154
139
4
131
34
36
126
174
240
38
195
147
228
200
42
180
165
75
233
132
210
1
229
167
230
51
162
98
83
47
121
86
19
173
120

>  <PUBCHEM_MMFF94_PARTIAL_CHARGES>  (1) 
10
1 -0.46
10 -0.3
2 -0.36
24 0.15
25 0.15
26 0.15
5 0.23
6 0.23
8 0.28
9 -0.07

>  <PUBCHEM_EFFECTIVE_ROTOR_COUNT>  (1) 
7

>  <PUBCHEM_PHARMACOPHORE_FEATURES>  (1) 
3
1 2 acceptor
1 7 hydrophobe
5 1 3 4 5 6 hydrophobe

>  <PUBCHEM_HEAVY_ATOM_COUNT>  (1) 
10

>  <PUBCHEM_ATOM_DEF_STEREO_COUNT>  (1) 
0

>  <PUBCHEM_ATOM_UDEF_STEREO_COUNT>  (1) 
0

>  <PUBCHEM_BOND_DEF_STEREO_COUNT>  (1) 
0

>  <PUBCHEM_BOND_UDEF_STEREO_COUNT>  (1) 
0

>  <PUBCHEM_ISOTOPIC_ATOM_COUNT>  (1) 
0

>  <PUBCHEM_COMPONENT_COUNT>  (1) 
1

>  <PUBCHEM_CACTVS_TAUTO_COUNT>  (1) 
1

>  <PUBCHEM_CONFORMER_ID>  (1) 
00005A3100000002

>  <PUBCHEM_MMFF94_ENERGY>  (1) 
13.0533

>  <PUBCHEM_FEATURE_SELFOVERLAP>  (1) 
15.223

>  <PUBCHEM_SHAPE_FINGERPRINT>  (1) 
100836 57 18412550898526520465
11987891 27 10447929473054081784
14123255 352 18262514776533418189
14123255 52 18410012139031024642
14123260 362 18201446869496393913
1420 369 8574713511434588848
14252887 29 14996280284690219442
14445660 50 18113617901928237874
15501527 16 18412548734063495936
17041 50 16845568751196102704
177051 138 9151175354938825606
17834072 32 18412827958614818185
20112054 13 18040437680959329063
20211469 26 10807937071904865723
20645477 70 16486707904540189654
20671657 53 10087630520728479659
20711983 171 18343015601537719918
20767249 142 9727636102926663564
20767249 213 18335137588314530533
20828058 44 11819270053398113375
212847 35 18271522000924447088
21354914 55 18334292046223435709
22485316 2 8934992668609566099
23402539 116 18201433723287114604
23402655 69 18342177791326631140
23403322 49 9799689294744217997
449060 50 18187367618823507423

>  <PUBCHEM_SHAPE_MULTIPOLES>  (1) 
203.78
10
1.56
0.79
1.2
0.16
0
6.38
-0.18
-0.56
-0.03
0.21
-0.05
-0.74

>  <PUBCHEM_SHAPE_SELFOVERLAP>  (1) 
350.35

>  <PUBCHEM_SHAPE_VOLUME>  (1) 
136.2

>  <PUBCHEM_COORDINATE_TYPE>  (1) 
2
5
10

$$$$
