23096
     RDKit          3D

 18 19  0  0  0  0  0  0  0  0999 V2000
   -1.1591   -2.6406    0.0003 Cl  0  0  0  0  0  0  0  0  0  0  0  0
   -3.4249    2.3723   -0.0011 Cl  0  0  0  0  0  0  0  0  0  0  0  0
    4.1939   -1.3735   -0.0001 F   0  0  0  0  0  0  0  0  0  0  0  0
    4.3352    0.5043   -1.0868 F   0  0  0  0  0  0  0  0  0  0  0  0
    4.3097    0.5095    1.0934 F   0  0  0  0  0  0  0  0  0  0  0  0
   -4.5136    0.1110   -0.0016 O   0  0  0  0  0  0  0  0  0  0  0  0
   -3.6342   -1.9004    0.0004 O   0  0  0  0  0  0  0  0  0  0  0  0
    1.6572    1.2453   -0.0012 N   0  0  0  0  0  0  0  0  0  0  0  0
    1.4163   -0.9642    0.0000 N   0  0  0  0  0  0  0  0  0  0  0  0
   -3.5237   -0.6541   -0.0001 N   0  0  0  0  0  0  0  0  0  0  0  0
    0.3038    1.0247   -0.0008 C   0  0  0  0  0  0  0  0  0  0  0  0
    0.1791   -0.3618   -0.0001 C   0  0  0  0  0  0  0  0  0  0  0  0
    2.2786    0.0276   -0.0011 C   0  0  0  0  0  0  0  0  0  0  0  0
   -1.1042   -0.9341    0.0007 C   0  0  0  0  0  0  0  0  0  0  0  0
   -0.7888    1.8925   -0.0009 C   0  0  0  0  0  0  0  0  0  0  0  0
   -2.2158   -0.0822    0.0006 C   0  0  0  0  0  0  0  0  0  0  0  0
   -2.0586    1.3059   -0.0004 C   0  0  0  0  0  0  0  0  0  0  0  0
    3.7492   -0.0820   -0.0013 C   0  0  0  0  0  0  0  0  0  0  0  0
  1 14  1  0
  2 17  1  0
  3 18  1  0
  4 18  1  0
  5 18  1  0
  6 10  1  0
  7 10  2  0
  8 11  1  0
  8 13  1  0
  9 12  1  0
  9 13  2  0
 10 16  1  0
 11 12  2  0
 11 15  1  0
 12 14  1  0
 13 18  1  0
 14 16  2  0
 15 17  2  0
 16 17  1  0
M  CHG  2   6  -1  10   1
M  END
>  <PUBCHEM_COMPOUND_CID>  (1) 
23096

>  <PUBCHEM_CONFORMER_RMSD>  (1) 
0.6

>  <PUBCHEM_CONFORMER_DIVERSEORDER>  (1) 
1

>  <PUBCHEM_MMFF94_PARTIAL_CHARGES>  (1) 
20
1 -0.18
10 0.91
11 -0.15
12 0.23
13 0.01
14 0.18
15 -0.15
16 0.13
17 0.18
18 1.2
19 0.27
2 -0.18
20 0.15
3 -0.34
4 -0.34
5 -0.34
6 -0.52
7 -0.52
8 0.03
9 -0.57

>  <PUBCHEM_EFFECTIVE_ROTOR_COUNT>  (1) 
2

>  <PUBCHEM_PHARMACOPHORE_FEATURES>  (1) 
7
1 6 acceptor
1 6 anion
1 7 acceptor
1 8 donor
3 8 9 13 cation
5 8 9 11 12 13 rings
6 11 12 14 15 16 17 rings

>  <PUBCHEM_HEAVY_ATOM_COUNT>  (1) 
18

>  <PUBCHEM_ATOM_DEF_STEREO_COUNT>  (1) 
0

>  <PUBCHEM_ATOM_UDEF_STEREO_COUNT>  (1) 
0

>  <PUBCHEM_BOND_DEF_STEREO_COUNT>  (1) 
0

>  <PUBCHEM_BOND_UDEF_STEREO_COUNT>  (1) 
0

>  <PUBCHEM_ISOTOPIC_ATOM_COUNT>  (1) 
0

>  <PUBCHEM_COMPONENT_COUNT>  (1) 
1

>  <PUBCHEM_CACTVS_TAUTO_COUNT>  (1) 
2

>  <PUBCHEM_CONFORMER_ID>  (1) 
00005A3800000001

>  <PUBCHEM_MMFF94_ENERGY>  (1) 
48.6459

>  <PUBCHEM_FEATURE_SELFOVERLAP>  (1) 
35.709

>  <PUBCHEM_SHAPE_FINGERPRINT>  (1) 
10062212 137 18336256851848151835
10319926 262 18197754705977989576
10608611 8 18342171176607841200
10616163 171 18410860983773258814
10967382 1 18122343476225128773
11132069 177 18411418393060144937
12032990 46 18411703213679105651
12173636 292 18266734692948330773
12236239 1 17821445773007826496
12390115 104 18057060029345691985
12403814 3 17530682100111120781
13140716 1 18122063375590616891
13221675 6 18409727378399278714
13380535 76 18341049605827306543
13862211 1 18411132584915496479
14115302 16 18041568043105246374
14614273 12 18188204283175003837
15042514 8 18337676442178370827
15196674 1 18410573946528406980
15209294 21 17845669053433987985
15219456 202 18059580118058422846
16752209 62 18409718561147794747
16945 1 18410575132050241413
17804303 29 18342180011323595633
18186145 218 17989492892176511384
18522853 276 18412260644657781857
19422 9 18259706679390454314
200 152 17918266563536697349
20028762 73 17913494807817352759
20281475 54 18335138687456724190
20510252 161 18272932695844353889
20645477 70 16773807965774813278
21029758 11 18272081725763955049
21029758 27 18187374271928465037
21267235 1 18409457985202553411
23175994 123 17132120142858832176
2334 1 17690280834230602979
23366157 5 17753337469422520730
23402539 116 18341885316601130495
23463225 33 18408041797204085006
23557571 272 18272102573197405140
23559900 14 18271242708540117782
2748010 2 18267311928294917503
335352 9 18194683653051088876
4214541 1 18410856525686388996
43471831 8 18262796255272313667
474 4 16807305828718885892
5104073 3 18411698751614254960
54173680 148 18265053728938165859
559249 180 18189893115813538162
573450 72 18260818272624116880
633830 44 16950857898973240968
69090 78 18273209815740004823
7364860 26 18196936797575341296
8809292 202 18262801886121891347
9709674 26 18341619204691198262

>  <PUBCHEM_SHAPE_MULTIPOLES>  (1) 
325.67
7.96
2.3
0.67
4.76
0.49
0
-0.26
0.01
-2.14
0
0.38
-0.07
0

>  <PUBCHEM_SHAPE_SELFOVERLAP>  (1) 
703.037

>  <PUBCHEM_SHAPE_VOLUME>  (1) 
183.3

>  <PUBCHEM_COORDINATE_TYPE>  (1) 
2
5
10

$$$$
