23105
     RDKit          3D

 20 19  0  0  0  0  0  0  0  0999 V2000
   -0.7400    2.1316    0.3628 O   0  0  0  0  0  0  0  0  0  0  0  0
   -1.1017   -2.0075   -0.3612 O   0  0  0  0  0  0  0  0  0  0  0  0
   -1.8270    3.1473   -1.4025 O   0  0  0  0  0  0  0  0  0  0  0  0
   -2.3175   -2.8546    1.4066 O   0  0  0  0  0  0  0  0  0  0  0  0
    3.0480    2.2083    0.1502 C   0  0  0  0  0  0  0  0  0  0  0  0
    2.6361   -2.6303   -0.1529 C   0  0  0  0  0  0  0  0  0  0  0  0
    1.6319    1.9153    0.6717 C   0  0  0  0  0  0  0  0  0  0  0  0
    1.2764   -2.1363   -0.6731 C   0  0  0  0  0  0  0  0  0  0  0  0
   -3.1884    0.6572    0.6506 C   0  0  0  0  0  0  0  0  0  0  0  0
   -3.2545   -0.1512   -0.6511 C   0  0  0  0  0  0  0  0  0  0  0  0
    0.5239    2.4443   -0.2310 C   0  0  0  0  0  0  0  0  0  0  0  0
    0.1047   -2.4990    0.2314 C   0  0  0  0  0  0  0  0  0  0  0  0
   -3.0957    2.1597    0.3975 C   0  0  0  0  0  0  0  0  0  0  0  0
   -3.4187   -1.6500   -0.3971 C   0  0  0  0  0  0  0  0  0  0  0  0
    4.1340    1.6119    1.0467 C   0  0  0  0  0  0  0  0  0  0  0  0
    3.2534    3.7197    0.0250 C   0  0  0  0  0  0  0  0  0  0  0  0
    3.7955   -2.1978   -1.0514 C   0  0  0  0  0  0  0  0  0  0  0  0
    2.6211   -4.1555   -0.0263 C   0  0  0  0  0  0  0  0  0  0  0  0
   -1.8351    2.5456   -0.3362 C   0  0  0  0  0  0  0  0  0  0  0  0
   -2.2464   -2.2586    0.3405 C   0  0  0  0  0  0  0  0  0  0  0  0
  1 11  1  0
  1 19  1  0
  2 12  1  0
  2 20  1  0
  3 19  2  0
  4 20  2  0
  5  7  1  0
  5 15  1  0
  5 16  1  0
  6  8  1  0
  6 17  1  0
  6 18  1  0
  7 11  1  0
  8 12  1  0
  9 10  1  0
  9 13  1  0
 10 14  1  0
 13 19  1  0
 14 20  1  0
M  END
>  <PUBCHEM_COMPOUND_CID>  (1) 
23105

>  <PUBCHEM_CONFORMER_RMSD>  (1) 
1.4

>  <PUBCHEM_CONFORMER_DIVERSEORDER>  (1) 
1
3
22
35
20
13
12
7
16
21
2
6
28
30
8
4
9
10
11
29
27
26
33
34
31
32
17
5
23
14
19
25
24
15
18

>  <PUBCHEM_MMFF94_PARTIAL_CHARGES>  (1) 
10
1 -0.43
11 0.28
12 0.28
13 0.06
14 0.06
19 0.66
2 -0.43
20 0.66
3 -0.57
4 -0.57

>  <PUBCHEM_EFFECTIVE_ROTOR_COUNT>  (1) 
13

>  <PUBCHEM_PHARMACOPHORE_FEATURES>  (1) 
5
1 3 acceptor
1 4 acceptor
3 5 15 16 hydrophobe
3 6 17 18 hydrophobe
4 9 10 13 14 hydrophobe

>  <PUBCHEM_HEAVY_ATOM_COUNT>  (1) 
20

>  <PUBCHEM_ATOM_DEF_STEREO_COUNT>  (1) 
0

>  <PUBCHEM_ATOM_UDEF_STEREO_COUNT>  (1) 
0

>  <PUBCHEM_BOND_DEF_STEREO_COUNT>  (1) 
0

>  <PUBCHEM_BOND_UDEF_STEREO_COUNT>  (1) 
0

>  <PUBCHEM_ISOTOPIC_ATOM_COUNT>  (1) 
0

>  <PUBCHEM_COMPONENT_COUNT>  (1) 
1

>  <PUBCHEM_CACTVS_TAUTO_COUNT>  (1) 
1

>  <PUBCHEM_CONFORMER_ID>  (1) 
00005A4100000001

>  <PUBCHEM_MMFF94_ENERGY>  (1) 
16.2105

>  <PUBCHEM_FEATURE_SELFOVERLAP>  (1) 
25.373

>  <PUBCHEM_SHAPE_FINGERPRINT>  (1) 
10616163 171 18265611155452744968
1100329 8 18051978017613134673
12038231 1 18411138004794393750
12553582 1 17258210770685850144
12839892 36 18267567156906188000
13122387 1 18051409570090843082
14647877 51 18341891849758077410
15006816 218 18340486784875702878
15403338 16 17172323849884808994
16719943 64 18050846921397218120
18336668 15 17970923154733293166
19930381 70 18051128391478068535
21141583 151 17764874589298308734
238918 7 18128246990794552066
539174 4 17840627904031419443
6433294 58 18339366258315826094

>  <PUBCHEM_SHAPE_MULTIPOLES>  (1) 
388.11
7.36
6.39
1
1.53
0.7
0
-0.46
-0.19
4.25
0.15
-0.07
0
1.51

>  <PUBCHEM_SHAPE_SELFOVERLAP>  (1) 
728.185

>  <PUBCHEM_SHAPE_VOLUME>  (1) 
241.8

>  <PUBCHEM_COORDINATE_TYPE>  (1) 
2
5
10

$$$$
