23100
     RDKit          3D

 16 17  0  0  0  0  0  0  0  0999 V2000
   -2.7550    0.2496    1.5248 O   0  0  0  0  0  0  0  0  0  0  0  0
    2.7546    0.2507   -1.5248 O   0  0  0  0  0  0  0  0  0  0  0  0
   -3.1081    1.0393   -0.6409 N   0  0  0  0  0  0  0  0  0  0  0  0
    3.1065    1.0411    0.6406 N   0  0  0  0  0  0  0  0  0  0  0  0
   -2.3441   -1.1021   -0.3186 N   0  0  0  0  0  0  0  0  0  0  0  0
    2.3457   -1.1014    0.3188 N   0  0  0  0  0  0  0  0  0  0  0  0
   -4.2924    1.8344   -0.4994 C   0  0  0  0  0  0  0  0  0  0  0  0
   -2.9509    2.4446   -0.4058 C   0  0  0  0  0  0  0  0  0  0  0  0
    2.9474    2.4462    0.4054 C   0  0  0  0  0  0  0  0  0  0  0  0
    4.2898    1.8379    0.4992 C   0  0  0  0  0  0  0  0  0  0  0  0
   -2.7377    0.0799    0.3061 C   0  0  0  0  0  0  0  0  0  0  0  0
    2.7376    0.0811   -0.3061 C   0  0  0  0  0  0  0  0  0  0  0  0
   -0.4022   -2.2770    0.6519 C   0  0  0  0  0  0  0  0  0  0  0  0
    0.4055   -2.2792   -0.6515 C   0  0  0  0  0  0  0  0  0  0  0  0
   -1.9078   -2.2726    0.4060 C   0  0  0  0  0  0  0  0  0  0  0  0
    1.9112   -2.2727   -0.4057 C   0  0  0  0  0  0  0  0  0  0  0  0
  1 11  2  0
  2 12  2  0
  3  7  1  0
  3  8  1  0
  3 11  1  0
  4  9  1  0
  4 10  1  0
  4 12  1  0
  5 11  1  0
  5 15  1  0
  6 12  1  0
  6 16  1  0
  7  8  1  0
  9 10  1  0
 13 14  1  0
 13 15  1  0
 14 16  1  0
M  END
>  <PUBCHEM_COMPOUND_CID>  (1) 
23100

>  <PUBCHEM_CONFORMER_RMSD>  (1) 
0.8

>  <PUBCHEM_CONFORMER_DIVERSEORDER>  (1) 
2
61
78
4
27
12
35
24
79
85
93
17
19
48
53
34
38
1
59
57
9
84
7
31
47
76
56
43
65
44
39
26
16
70
23
89
20
71
36
50
64
11
62
83
95
30
14
72
58
74
51
52
80
68
60
10
46
5
28
49
81
6
18
66
63
67
13
91
40
22
94
33
42
73
29
75
54
41
92
55
96
25
82
8
87
90
88
21
45
69
77
37
86
15
3
32

>  <PUBCHEM_MMFF94_PARTIAL_CHARGES>  (1) 
24
1 -0.57
10 -0.05
11 0.69
12 0.69
15 0.3
16 0.3
17 0.1
18 0.1
19 0.1
2 -0.57
20 0.1
21 0.1
22 0.1
23 0.1
24 0.1
3 -0.36
33 0.37
34 0.37
4 -0.36
5 -0.73
6 -0.73
7 -0.05
8 -0.05
9 -0.05

>  <PUBCHEM_EFFECTIVE_ROTOR_COUNT>  (1) 
10.2

>  <PUBCHEM_PHARMACOPHORE_FEATURES>  (1) 
4
1 1 acceptor
1 2 acceptor
1 5 donor
1 6 donor

>  <PUBCHEM_HEAVY_ATOM_COUNT>  (1) 
16

>  <PUBCHEM_ATOM_DEF_STEREO_COUNT>  (1) 
0

>  <PUBCHEM_ATOM_UDEF_STEREO_COUNT>  (1) 
0

>  <PUBCHEM_BOND_DEF_STEREO_COUNT>  (1) 
0

>  <PUBCHEM_BOND_UDEF_STEREO_COUNT>  (1) 
0

>  <PUBCHEM_ISOTOPIC_ATOM_COUNT>  (1) 
0

>  <PUBCHEM_COMPONENT_COUNT>  (1) 
1

>  <PUBCHEM_CACTVS_TAUTO_COUNT>  (1) 
3

>  <PUBCHEM_CONFORMER_ID>  (1) 
00005A3C00000002

>  <PUBCHEM_MMFF94_ENERGY>  (1) 
34.3136

>  <PUBCHEM_FEATURE_SELFOVERLAP>  (1) 
20.298

>  <PUBCHEM_SHAPE_FINGERPRINT>  (1) 
10498660 4 18411981390242460237
10615611 76 16952549124130171444
10670039 82 18046641272067390492
11221954 11 18410577287981594082
11370993 70 18410847767847464137
11715629 250 18341619260251310366
14123250 116 17917161519706337889
14123255 52 18410853261104971204
14250199 8 18056762022828433391
14251732 17 18412538817558762522
14251764 75 18341342119166244281
14468879 13 18259707783302928257
14957384 54 18336250336820406112
17834072 32 18410572877160976993
1798214 55 18408604734225411045
18186145 218 18202013122300530762
20304884 271 18410293592691628623
20449540 30 18273496767406510523
20605781 55 18410857663531332839
20621476 13 18265606589749879277
21279426 13 18342469140870836654
22182937 141 18412553127973009737
22749437 52 18410571790423448705
23503958 25 18262536869216927856
23590187 32 18336827593078073836
3187 122 17822860917434516385
3524813 1 17984982854166272144
43658 37 18337102359637329245
526903 126 18412822499774123425
8050 44 18341897415170672619

>  <PUBCHEM_SHAPE_MULTIPOLES>  (1) 
297.61
8.23
3.56
1.02
0.02
0.34
0
-7.19
0
-0.01
0
0
0
1.22

>  <PUBCHEM_SHAPE_SELFOVERLAP>  (1) 
583.774

>  <PUBCHEM_SHAPE_VOLUME>  (1) 
179.5

>  <PUBCHEM_COORDINATE_TYPE>  (1) 
2
5
10

$$$$
