23119
     RDKit          3D

 17 19  0  0  0  0  0  0  0  0999 V2000
   -5.4046    0.4512   -0.0007 O   0  0  0  0  0  0  0  0  0  0  0  0
    4.9761   -0.8008    0.0005 O   0  0  0  0  0  0  0  0  0  0  0  0
    4.6134    1.3642   -0.0002 O   0  0  0  0  0  0  0  0  0  0  0  0
    4.1958    0.1813    0.0002 N   0  0  0  0  0  0  0  0  0  0  0  0
   -0.5905    1.7504    0.0001 C   0  0  0  0  0  0  0  0  0  0  0  0
    0.5558    0.7608   -0.0002 C   0  0  0  0  0  0  0  0  0  0  0  0
   -1.7930    0.8298    0.0001 C   0  0  0  0  0  0  0  0  0  0  0  0
    0.0653   -0.5644   -0.0003 C   0  0  0  0  0  0  0  0  0  0  0  0
   -1.3812   -0.5219   -0.0001 C   0  0  0  0  0  0  0  0  0  0  0  0
    1.9133    1.0293   -0.0002 C   0  0  0  0  0  0  0  0  0  0  0  0
    0.9398   -1.6383   -0.0002 C   0  0  0  0  0  0  0  0  0  0  0  0
   -3.1325    1.1775    0.0005 C   0  0  0  0  0  0  0  0  0  0  0  0
   -2.3172   -1.5425    0.0001 C   0  0  0  0  0  0  0  0  0  0  0  0
    2.7946   -0.0533   -0.0002 C   0  0  0  0  0  0  0  0  0  0  0  0
    2.3128   -1.3738   -0.0001 C   0  0  0  0  0  0  0  0  0  0  0  0
   -4.0758    0.1485    0.0005 C   0  0  0  0  0  0  0  0  0  0  0  0
   -3.6723   -1.1980    0.0002 C   0  0  0  0  0  0  0  0  0  0  0  0
  1 16  1  0
  2  4  1  0
  3  4  2  0
  4 14  1  0
  5  6  1  0
  5  7  1  0
  6  8  2  0
  6 10  1  0
  7  9  2  0
  7 12  1  0
  8  9  1  0
  8 11  1  0
  9 13  1  0
 10 14  2  0
 11 15  2  0
 12 16  2  0
 13 17  2  0
 14 15  1  0
 16 17  1  0
M  CHG  2   2  -1   4   1
M  END
>  <PUBCHEM_COMPOUND_CID>  (1) 
23119

>  <PUBCHEM_CONFORMER_RMSD>  (1) 
0.6

>  <PUBCHEM_CONFORMER_DIVERSEORDER>  (1) 
1

>  <PUBCHEM_MMFF94_PARTIAL_CHARGES>  (1) 
22
1 -0.53
10 -0.15
11 -0.15
12 -0.15
13 -0.15
14 0.13
15 -0.15
16 0.08
17 -0.15
2 -0.52
20 0.15
21 0.15
22 0.15
23 0.15
24 0.15
25 0.15
26 0.45
3 -0.52
4 0.91
5 0.29
6 -0.14
7 -0.14

>  <PUBCHEM_EFFECTIVE_ROTOR_COUNT>  (1) 
1.2

>  <PUBCHEM_PHARMACOPHORE_FEATURES>  (1) 
7
1 1 donor
1 2 acceptor
1 2 anion
1 3 acceptor
5 5 6 7 8 9 rings
6 6 8 10 11 14 15 rings
6 7 9 12 13 16 17 rings

>  <PUBCHEM_HEAVY_ATOM_COUNT>  (1) 
17

>  <PUBCHEM_ATOM_DEF_STEREO_COUNT>  (1) 
0

>  <PUBCHEM_ATOM_UDEF_STEREO_COUNT>  (1) 
0

>  <PUBCHEM_BOND_DEF_STEREO_COUNT>  (1) 
0

>  <PUBCHEM_BOND_UDEF_STEREO_COUNT>  (1) 
0

>  <PUBCHEM_ISOTOPIC_ATOM_COUNT>  (1) 
0

>  <PUBCHEM_COMPONENT_COUNT>  (1) 
1

>  <PUBCHEM_CACTVS_TAUTO_COUNT>  (1) 
9

>  <PUBCHEM_CONFORMER_ID>  (1) 
00005A4F00000001

>  <PUBCHEM_MMFF94_ENERGY>  (1) 
58.6681

>  <PUBCHEM_FEATURE_SELFOVERLAP>  (1) 
35.767

>  <PUBCHEM_SHAPE_FINGERPRINT>  (1) 
10062212 137 18409724097049662711
10608611 8 18410570660931530365
10967382 1 18410573959524312519
11132069 177 18410571803366119648
11401426 45 18411134753456658421
11471102 20 18411416206763360366
11806522 49 18338233868317961607
12236239 1 17821729437985308980
12251169 10 18411420609479404541
12403814 3 17748825203030590973
13140716 1 18266465484730383897
13214271 11 18411980295199892679
13221675 6 18411700984654480015
13288520 33 18412829066663113494
13380535 76 18409732850219476691
13862211 1 18410849958333448166
14115302 16 18114191855598252454
15196674 1 18410575119038687014
15375358 24 18410013234348178283
15536298 74 18342459210073251430
16945 1 18338798896998507397
17804303 29 18341614853815051937
18186145 218 17458337584824509015
18522853 276 18412826884677393225
200 152 18060415833306464159
20510252 161 18200595774661607289
20645477 70 18200876162616102670
21029758 11 18343298176232085425
21267235 1 18410302401637722283
221490 88 18191593157804388707
23402539 116 18341887511197569407
23402655 69 18342168922198170005
23463225 33 18408322185343040709
23557571 272 18341056207350530156
23559900 14 18413107273649616800
2748010 2 18122340443925535233
2871803 45 18335699412448463054
296302 2 18411139143008251927
3312278 4 18411983563648678539
335352 9 18410573967982144893
34934 24 18410288108266051607
3545911 37 18409450271472788935
4214541 1 18410575050393342625
4340502 62 16660650626958691163
474 4 17168995654685165716
4990 188 18060146414355688270
5104073 3 18410292527396873626
537710 114 18410579495821696124
69090 78 18341890788526673863
7364860 26 18268993081595438046
77779 3 18411420604973505606
8809292 202 18260833747470756299
9709674 26 18411143536512447646

>  <PUBCHEM_SHAPE_MULTIPOLES>  (1) 
327.26
9.12
1.71
0.59
1.82
0.08
0
-0.49
0
0.01
0
-0.05
0.01
0

>  <PUBCHEM_SHAPE_SELFOVERLAP>  (1) 
736.831

>  <PUBCHEM_SHAPE_VOLUME>  (1) 
175

>  <PUBCHEM_COORDINATE_TYPE>  (1) 
2
5
10

$$$$
