23117
     RDKit          3D

 31 33  0  0  0  0  0  0  0  0999 V2000
    0.2086   -0.2825   -1.2339 O   0  0  0  0  0  0  0  0  0  0  0  0
   -1.2951   -4.0506   -0.9678 O   0  0  0  0  0  0  0  0  0  0  0  0
    0.3204   -2.7063   -1.6015 O   0  0  0  0  0  0  0  0  0  0  0  0
   -5.4013   -0.1599    1.5814 O   0  0  0  0  0  0  0  0  0  0  0  0
   -5.2096   -2.3146    1.2083 O   0  0  0  0  0  0  0  0  0  0  0  0
    3.9420    0.3395   -2.7531 O   0  0  0  0  0  0  0  0  0  0  0  0
    1.7761    0.1927   -3.0805 O   0  0  0  0  0  0  0  0  0  0  0  0
    4.4768   -0.6883    3.3451 O   0  0  0  0  0  0  0  0  0  0  0  0
    5.7943   -0.2635    1.6413 O   0  0  0  0  0  0  0  0  0  0  0  0
   -0.7970   -2.9047   -1.0690 N   0  0  0  0  0  0  0  0  0  0  0  0
   -4.7631   -1.1442    1.1365 N   0  0  0  0  0  0  0  0  0  0  0  0
    2.7774    0.1543   -2.3269 N   0  0  0  0  0  0  0  0  0  0  0  0
    4.6526   -0.4561    2.1246 N   0  0  0  0  0  0  0  0  0  0  0  0
   -1.1927    1.9920   -0.2423 C   0  0  0  0  0  0  0  0  0  0  0  0
   -0.9648    2.6070    1.1497 C   0  0  0  0  0  0  0  0  0  0  0  0
   -2.0896    2.8975   -1.1045 C   0  0  0  0  0  0  0  0  0  0  0  0
   -0.4079    4.0261    1.0487 C   0  0  0  0  0  0  0  0  0  0  0  0
   -1.5281    4.3154   -1.1960 C   0  0  0  0  0  0  0  0  0  0  0  0
   -1.2948    4.9190    0.1859 C   0  0  0  0  0  0  0  0  0  0  0  0
   -1.7366    0.5778   -0.1523 C   0  0  0  0  0  0  0  0  0  0  0  0
   -1.0080   -0.4995   -0.6543 C   0  0  0  0  0  0  0  0  0  0  0  0
   -2.9802    0.3656    0.4410 C   0  0  0  0  0  0  0  0  0  0  0  0
   -1.5244   -1.7921   -0.5630 C   0  0  0  0  0  0  0  0  0  0  0  0
   -3.4964   -0.9268    0.5323 C   0  0  0  0  0  0  0  0  0  0  0  0
   -2.7686   -2.0057    0.0304 C   0  0  0  0  0  0  0  0  0  0  0  0
    1.3229   -0.3207   -0.4157 C   0  0  0  0  0  0  0  0  0  0  0  0
    2.5860   -0.1087   -0.9425 C   0  0  0  0  0  0  0  0  0  0  0  0
    1.1368   -0.5769    0.9332 C   0  0  0  0  0  0  0  0  0  0  0  0
    3.6946   -0.1538   -0.0970 C   0  0  0  0  0  0  0  0  0  0  0  0
    2.2454   -0.6217    1.7785 C   0  0  0  0  0  0  0  0  0  0  0  0
    3.5242   -0.4103    1.2635 C   0  0  0  0  0  0  0  0  0  0  0  0
  1 21  1  0
  1 26  1  0
  2 10  1  0
  3 10  2  0
  4 11  1  0
  5 11  2  0
  6 12  1  0
  7 12  2  0
  8 13  1  0
  9 13  2  0
 10 23  1  0
 11 24  1  0
 12 27  1  0
 13 31  1  0
 14 15  1  0
 14 16  1  0
 14 20  1  0
 15 17  1  0
 16 18  1  0
 17 19  1  0
 18 19  1  0
 20 21  1  0
 20 22  2  0
 21 23  2  0
 22 24  1  0
 23 25  1  0
 24 25  2  0
 26 27  2  0
 26 28  1  0
 27 29  1  0
 28 30  2  0
 29 31  2  0
 30 31  1  0
M  CHG  8   2  -1   4  -1   6  -1   8  -1  10   1  11   1  12   1  13   1
M  END
>  <PUBCHEM_COMPOUND_CID>  (1) 
23117

>  <PUBCHEM_CONFORMER_RMSD>  (1) 
1

>  <PUBCHEM_CONFORMER_DIVERSEORDER>  (1) 
1
2

>  <PUBCHEM_MMFF94_PARTIAL_CHARGES>  (1) 
31
1 -0.17
10 0.91
11 0.91
12 0.91
13 0.91
14 0.14
2 -0.52
20 -0.14
21 0.08
22 -0.15
23 0.13
24 0.13
25 -0.15
26 0.08
27 0.13
28 -0.15
29 -0.15
3 -0.52
30 -0.15
31 0.13
4 -0.52
43 0.15
44 0.15
45 0.15
46 0.15
47 0.15
5 -0.52
6 -0.52
7 -0.52
8 -0.52
9 -0.52

>  <PUBCHEM_EFFECTIVE_ROTOR_COUNT>  (1) 
8.2

>  <PUBCHEM_PHARMACOPHORE_FEATURES>  (1) 
16
1 1 acceptor
1 2 acceptor
1 2 anion
1 3 acceptor
1 4 acceptor
1 4 anion
1 5 acceptor
1 6 acceptor
1 6 anion
1 7 acceptor
1 8 acceptor
1 8 anion
1 9 acceptor
6 14 15 16 17 18 19 rings
6 20 21 22 23 24 25 rings
6 26 27 28 29 30 31 rings

>  <PUBCHEM_HEAVY_ATOM_COUNT>  (1) 
31

>  <PUBCHEM_ATOM_DEF_STEREO_COUNT>  (1) 
0

>  <PUBCHEM_ATOM_UDEF_STEREO_COUNT>  (1) 
0

>  <PUBCHEM_BOND_DEF_STEREO_COUNT>  (1) 
0

>  <PUBCHEM_BOND_UDEF_STEREO_COUNT>  (1) 
0

>  <PUBCHEM_ISOTOPIC_ATOM_COUNT>  (1) 
0

>  <PUBCHEM_COMPONENT_COUNT>  (1) 
1

>  <PUBCHEM_CACTVS_TAUTO_COUNT>  (1) 
1

>  <PUBCHEM_CONFORMER_ID>  (1) 
00005A4D00000001

>  <PUBCHEM_MMFF94_ENERGY>  (1) 
113.5718

>  <PUBCHEM_FEATURE_SELFOVERLAP>  (1) 
81.581

>  <PUBCHEM_SHAPE_FINGERPRINT>  (1) 
10165383 225 17264734267441341824
10369192 42 17059771260693631728
10930396 42 17908096106169448832
11421498 54 18114192937898297771
11595378 159 18335135406402702216
11725454 13 17128983163671307868
11763715 3 18191566752910000598
12160290 23 18268710498569880453
12236239 1 17895484712199436550
12553582 1 18339648939978198879
12633257 1 17987788743421199842
12788726 201 18187940472744627744
13009979 54 17967529035178465544
133893 2 17691391332738059477
13583140 156 17771592769180330586
13726171 33 18265640760436164388
14022347 108 18267889309022124255
14178342 30 17898002439303159922
14856354 85 18197760293773197498
14955137 171 17907900432424465131
15475509 35 17243874655758191875
15513586 35 16690704883998529560
1601671 61 18268454407250133283
1813 80 18340774852943802017
19319366 153 17389117925008886166
20600515 1 18130227180686095907
20642791 105 17968646113222995373
21033648 29 17632030701573126595
21304303 282 17610872640348280669
22149856 69 17401782826701161369
23366157 5 17686340180636226525
23558518 356 17901120620162309267
23559900 14 18049736117883988807
23598288 3 18261096465992897642
238 59 16053466139488848144
3411729 13 17981898745815925353
350125 39 17547038246429063229
392239 28 18046880922715584152
4409770 3 18266436755483098673
469060 322 18129077036021125135
484985 159 15577775601863765754
550186 7 18129930214432527820
57527293 21 17988068019749084106
57527358 35 16153430545656838927
90316 7 18339910619250032475
9981440 41 17766526111571195889

>  <PUBCHEM_SHAPE_MULTIPOLES>  (1) 
565.22
8.59
4.8
2.43
4.34
5.11
-0.3
-3.82
5.83
-6.02
-0.79
3.4
-0.21
0.3

>  <PUBCHEM_SHAPE_SELFOVERLAP>  (1) 
1230.2

>  <PUBCHEM_SHAPE_VOLUME>  (1) 
306.1

>  <PUBCHEM_COORDINATE_TYPE>  (1) 
2
5
10

$$$$
