2311
     RDKit          3D

 31 33  0  0  1  0  0  0  0  0999 V2000
   -0.7095    1.9626    1.5907 O   0  0  0  0  0  0  0  0  0  0  0  0
    0.9589   -1.8286   -1.4404 O   0  0  0  0  0  0  0  0  0  0  0  0
    0.8227   -2.9805    0.5517 O   0  0  0  0  0  0  0  0  0  0  0  0
   -1.5932    1.6425   -1.9673 O   0  0  0  0  0  0  0  0  0  0  0  0
   -2.1448    3.8314   -2.1970 O   0  0  0  0  0  0  0  0  0  0  0  0
    0.2246   -0.5476    1.7508 N   0  0  0  0  0  0  0  0  0  0  0  0
   -2.6319    1.3654    0.4219 N   0  0  0  0  0  0  0  0  0  0  0  0
   -1.1977   -0.3903    1.4402 C   0  0  0  0  0  0  0  0  0  0  0  0
   -2.0431   -0.9557    2.5771 C   0  0  0  0  0  0  0  0  0  0  0  0
   -3.5056   -0.5324    2.5162 C   0  0  0  0  0  0  0  0  0  0  0  0
    1.0189   -0.5465    0.5330 C   0  0  0  0  0  0  0  0  0  0  0  0
   -1.4852    1.0894    1.1921 C   0  0  0  0  0  0  0  0  0  0  0  0
   -4.0700   -0.5448    1.1185 C   0  0  0  0  0  0  0  0  0  0  0  0
   -3.6750    0.4111    0.1546 C   0  0  0  0  0  0  0  0  0  0  0  0
    2.4914   -0.2069    0.8151 C   0  0  0  0  0  0  0  0  0  0  0  0
    3.4007   -0.1565   -0.4208 C   0  0  0  0  0  0  0  0  0  0  0  0
   -2.7680    2.6973   -0.1671 C   0  0  0  0  0  0  0  0  0  0  0  0
    0.9232   -1.9349   -0.0773 C   0  0  0  0  0  0  0  0  0  0  0  0
   -5.0764   -1.4743    0.8056 C   0  0  0  0  0  0  0  0  0  0  0  0
   -4.3523    0.4404   -1.0778 C   0  0  0  0  0  0  0  0  0  0  0  0
    4.8230    0.2392   -0.1137 C   0  0  0  0  0  0  0  0  0  0  0  0
   -5.7093   -1.4493   -0.4346 C   0  0  0  0  0  0  0  0  0  0  0  0
   -5.3538   -0.4871   -1.3716 C   0  0  0  0  0  0  0  0  0  0  0  0
   -2.1470    2.7998   -1.5364 C   0  0  0  0  0  0  0  0  0  0  0  0
    5.1929    1.5841   -0.1354 C   0  0  0  0  0  0  0  0  0  0  0  0
    5.7688   -0.7393    0.1928 C   0  0  0  0  0  0  0  0  0  0  0  0
    0.8687   -3.0632   -2.1587 C   0  0  0  0  0  0  0  0  0  0  0  0
    6.5084    1.9503    0.1489 C   0  0  0  0  0  0  0  0  0  0  0  0
    7.0842   -0.3729    0.4773 C   0  0  0  0  0  0  0  0  0  0  0  0
    7.4540    0.9719    0.4554 C   0  0  0  0  0  0  0  0  0  0  0  0
    0.9221   -2.7746   -3.6438 C   0  0  0  0  0  0  0  0  0  0  0  0
  1 12  2  0
  2 18  1  0
  2 27  1  0
  3 18  2  0
  4 24  1  0
  5 24  2  0
  6  8  1  0
  6 11  1  0
  7 12  1  0
  7 14  1  0
  7 17  1  0
  8  9  1  0
  8 12  1  0
  9 10  1  0
 10 13  1  0
 11 15  1  0
 11 18  1  0
 13 14  2  0
 13 19  1  0
 14 20  1  0
 15 16  1  0
 16 21  1  0
 17 24  1  0
 19 22  2  0
 20 23  2  0
 21 25  2  0
 21 26  1  0
 22 23  1  0
 25 28  1  0
 26 29  2  0
 27 31  1  0
 28 30  2  0
 29 30  1  0
M  END
>  <PUBCHEM_COMPOUND_CID>  (1) 
2311

>  <PUBCHEM_CONFORMER_RMSD>  (1) 
1

>  <PUBCHEM_CONFORMER_DIVERSEORDER>  (1) 
1
87
132
123
112
130
136
195
53
62
166
186
204
200
101
4
218
26
159
117
214
167
157
134
46
116
177
194
100
171
111
212
202
94
188
174
196
73
68
98
115
197
183
192
181
96
107
106
19
10
65
82
104
70
205
14
191
176
155
152
142
37
185
164
119
97
64
190
79
105
13
145
206
15
207
85
217
221
161
175
45
172
124
81
220
108
61
20
8
156
118
168
63
210
9
213
126
27
38
215
144
165
109
127
48
57
120
83
170
114
140
80
154
137
133
121
129
208
173
77
153
12
158
69
16
89
146
163
103
138
125
56
135
78
40
91
51
180
182
122
150
110
199
193
187
139
178
143
36
128
32
93
113
50
148
43
147
34
198
49
24
58
141
44
169
99
95
47
131
60
189
35
6
162
209
23
211
75
59
84
22
219
41
92
203
33
21
18
5
11
86
184
2
17
67
25
54
72
76
88
7
29
160
3
71
52
201
102
74
216
28
66
179
55
30
42
31
151
39
90
149

>  <PUBCHEM_MMFF94_PARTIAL_CHARGES>  (1) 
39
1 -0.57
10 0.14
11 0.33
12 0.57
13 -0.14
14 0.12
16 0.14
17 0.36
18 0.66
19 -0.15
2 -0.43
20 -0.15
21 -0.14
22 -0.15
23 -0.15
24 0.66
25 -0.15
26 -0.15
27 0.28
28 -0.15
29 -0.15
3 -0.57
30 -0.15
38 0.36
4 -0.65
45 0.15
46 0.15
47 0.15
48 0.15
49 0.15
5 -0.57
50 0.15
53 0.15
54 0.15
55 0.15
59 0.5
6 -0.9
7 -0.48
8 0.33

>  <PUBCHEM_EFFECTIVE_ROTOR_COUNT>  (1) 
10.8

>  <PUBCHEM_PHARMACOPHORE_FEATURES>  (1) 
10
1 1 acceptor
1 3 acceptor
1 4 acceptor
1 5 acceptor
1 6 cation
1 6 donor
3 4 5 24 anion
6 13 14 19 20 22 23 rings
6 21 25 26 28 29 30 rings
7 7 8 9 10 12 13 14 rings

>  <PUBCHEM_HEAVY_ATOM_COUNT>  (1) 
31

>  <PUBCHEM_ATOM_DEF_STEREO_COUNT>  (1) 
0

>  <PUBCHEM_ATOM_UDEF_STEREO_COUNT>  (1) 
2

>  <PUBCHEM_BOND_DEF_STEREO_COUNT>  (1) 
0

>  <PUBCHEM_BOND_UDEF_STEREO_COUNT>  (1) 
0

>  <PUBCHEM_ISOTOPIC_ATOM_COUNT>  (1) 
0

>  <PUBCHEM_COMPONENT_COUNT>  (1) 
1

>  <PUBCHEM_CACTVS_TAUTO_COUNT>  (1) 
1

>  <PUBCHEM_CONFORMER_ID>  (1) 
0000090700000001

>  <PUBCHEM_MMFF94_ENERGY>  (1) 
83.1833

>  <PUBCHEM_FEATURE_SELFOVERLAP>  (1) 
50.817

>  <PUBCHEM_SHAPE_FINGERPRINT>  (1) 
10369192 42 18060145349014245252
11488393 25 17915186719645926670
11578080 2 17915190018370330325
11991303 11 18200874101633479854
12128747 34 17894910681974138266
12156800 1 13265168629149314007
12166972 35 14996579446199946855
12516196 113 12540697054885716754
12596602 18 15936697081343363464
13911987 19 17988928881550985736
14068700 675 14923943487365465526
14466204 15 12613025081207504647
14856354 85 16343705482091970983
14904385 45 10809338950206135558
15238133 3 10953737747035073867
15295992 7 11747234462921092191
15537594 2 14908179729260542212
17974551 9 8502070981885128431
17980427 23 18260559912993068693
19489759 90 17312824896169065176
21315764 268 18334011727252823872
21639891 77 16444210766715111513
23559900 14 17830730959541978410
25019877 29 18059583537037397286
27425 322 17542487354949212469
4258327 124 18056482983815864392
469060 322 18342167903910937895
5171179 24 13771258219050490096
6009941 240 9943805599516741796
77296 10 18113616742762146930
9981440 41 17458632185416475683
999808 66 14548742849531607013

>  <PUBCHEM_SHAPE_MULTIPOLES>  (1) 
598.66
15.49
3.27
2.51
24.48
0.04
0.94
-3.03
-1.3
-0.64
2.99
-2.46
0.76
1.62

>  <PUBCHEM_SHAPE_SELFOVERLAP>  (1) 
1260.285

>  <PUBCHEM_SHAPE_VOLUME>  (1) 
332.7

>  <PUBCHEM_COORDINATE_TYPE>  (1) 
2
5
10

$$$$
