2313
     RDKit          3D

 21 23  0  0  0  0  0  0  0  0999 V2000
   -2.6985   -0.0533   -0.1487 O   0  0  0  0  0  0  0  0  0  0  0  0
   -4.7501   -2.9975    0.0854 O   0  0  0  0  0  0  0  0  0  0  0  0
   -5.1959   -0.9444   -0.7938 O   0  0  0  0  0  0  0  0  0  0  0  0
    0.4752    0.3093    0.9444 N   0  0  0  0  0  0  0  0  0  0  0  0
   -0.6332   -0.4340    0.7897 N   0  0  0  0  0  0  0  0  0  0  0  0
    0.3748    1.5780    0.4402 C   0  0  0  0  0  0  0  0  0  0  0  0
    1.6242   -0.2699    1.6012 C   0  0  0  0  0  0  0  0  0  0  0  0
   -0.9092    1.6621   -0.0866 C   0  0  0  0  0  0  0  0  0  0  0  0
   -1.4731    0.3921    0.1619 C   0  0  0  0  0  0  0  0  0  0  0  0
    2.5390   -0.9439    0.6144 C   0  0  0  0  0  0  0  0  0  0  0  0
    1.2843    2.6371    0.4026 C   0  0  0  0  0  0  0  0  0  0  0  0
   -1.3289    2.8599   -0.6888 C   0  0  0  0  0  0  0  0  0  0  0  0
    0.8516    3.8231   -0.1996 C   0  0  0  0  0  0  0  0  0  0  0  0
   -0.4321    3.9345   -0.7370 C   0  0  0  0  0  0  0  0  0  0  0  0
    3.5603   -0.2150    0.0200 C   0  0  0  0  0  0  0  0  0  0  0  0
    2.3495   -2.2852    0.3114 C   0  0  0  0  0  0  0  0  0  0  0  0
    4.4079   -0.8395   -0.8950 C   0  0  0  0  0  0  0  0  0  0  0  0
    3.1972   -2.9099   -0.6034 C   0  0  0  0  0  0  0  0  0  0  0  0
   -3.0341   -1.4011    0.2169 C   0  0  0  0  0  0  0  0  0  0  0  0
    4.2263   -2.1868   -1.2066 C   0  0  0  0  0  0  0  0  0  0  0  0
   -4.4352   -1.7156   -0.2286 C   0  0  0  0  0  0  0  0  0  0  0  0
  1  9  1  0
  1 19  1  0
  2 21  1  0
  3 21  2  0
  4  5  1  0
  4  6  1  0
  4  7  1  0
  5  9  2  0
  6  8  2  0
  6 11  1  0
  7 10  1  0
  8  9  1  0
  8 12  1  0
 10 15  2  0
 10 16  1  0
 11 13  2  0
 12 14  2  0
 13 14  1  0
 15 17  1  0
 16 18  2  0
 17 20  2  0
 18 20  1  0
 19 21  1  0
M  END
>  <PUBCHEM_COMPOUND_CID>  (1) 
2313

>  <PUBCHEM_CONFORMER_RMSD>  (1) 
0.8

>  <PUBCHEM_CONFORMER_DIVERSEORDER>  (1) 
1
3
30
41
42
31
38
50
56
32
44
52
46
29
23
6
16
37
21
40
51
43
28
13
26
5
20
12
18
14
15
17
33
24
8
22
25
34
49
39
47
55
54
10
53
35
4
36
9
45
2
19
27
11
48
7

>  <PUBCHEM_MMFF94_PARTIAL_CHARGES>  (1) 
30
1 -0.34
10 -0.14
11 -0.15
12 -0.15
13 -0.15
14 -0.15
15 -0.15
16 -0.15
17 -0.15
18 -0.15
19 0.34
2 -0.65
20 -0.15
21 0.66
24 0.15
25 0.15
26 0.15
27 0.15
28 0.15
29 0.15
3 -0.57
30 0.15
31 0.15
34 0.15
35 0.5
4 0.31
5 -0.71
6 -0.15
7 0.4
9 0.35

>  <PUBCHEM_EFFECTIVE_ROTOR_COUNT>  (1) 
5

>  <PUBCHEM_PHARMACOPHORE_FEATURES>  (1) 
6
1 2 acceptor
1 3 acceptor
3 2 3 21 anion
5 4 5 6 8 9 rings
6 10 15 16 17 18 20 rings
6 6 8 11 12 13 14 rings

>  <PUBCHEM_HEAVY_ATOM_COUNT>  (1) 
21

>  <PUBCHEM_ATOM_DEF_STEREO_COUNT>  (1) 
0

>  <PUBCHEM_ATOM_UDEF_STEREO_COUNT>  (1) 
0

>  <PUBCHEM_BOND_DEF_STEREO_COUNT>  (1) 
0

>  <PUBCHEM_BOND_UDEF_STEREO_COUNT>  (1) 
0

>  <PUBCHEM_ISOTOPIC_ATOM_COUNT>  (1) 
0

>  <PUBCHEM_COMPONENT_COUNT>  (1) 
1

>  <PUBCHEM_CACTVS_TAUTO_COUNT>  (1) 
1

>  <PUBCHEM_CONFORMER_ID>  (1) 
0000090900000001

>  <PUBCHEM_MMFF94_ENERGY>  (1) 
45.5994

>  <PUBCHEM_FEATURE_SELFOVERLAP>  (1) 
30.594

>  <PUBCHEM_SHAPE_FINGERPRINT>  (1) 
11315621 136 17908974758042855719
116883 192 18410001122899125649
12173636 292 17471566634322131652
12403259 327 15625938815349568291
12553582 1 18334858294780461971
12788726 201 18043814186594611611
12841375 25 18410853278448370731
13009979 54 18059029357892068489
13533116 47 18057041540012623035
13690498 29 17836393474511089710
14178000 29 18341332279395350295
14251757 5 18190175686001375029
14863182 85 18048596220341150444
15475509 8 18340771417339230421
15664445 248 18335978761590533192
17357779 13 18270101453613541319
17492 54 18044954591212823540
1813 80 18411420622253653675
20388580 30 18342461490442175839
20645476 183 17324644384269675176
20645477 70 18119801663271961051
20775438 99 17834069188032923837
20871999 31 18335139735223198031
21524375 3 8070026670779302043
21713013 43 18057050112334510926
22182313 1 18267560516322401369
22849339 104 17621619219405025686
22849341 161 18338818749076101305
22907989 373 18193274087771391580
22950370 63 18411146813894046523
23379529 103 18057053402185034094
23557571 272 18125138469380129128
23559900 14 18266731562591885331
23598288 3 17755308868058582002
26353 1 18040716965429171797
3060560 45 17904479949965204028
314173 41 18336263539402713395
3421961 26 18340767164746561899
38695281 34 17762616596004716988
4280585 95 18336819875106401514
4463277 69 18060133254296584647
46194498 28 18117833533263787511
57262259 84 18268714900457236181
58779409 8 17831008031881687573
6443956 14 18335982094290177317
6669772 16 17692544716046275156
7164475 11 18191022292669644770
7364860 26 18121214543997749721
7399639 24 18200577169184716128
9709674 26 17838332978720081422

>  <PUBCHEM_SHAPE_MULTIPOLES>  (1) 
404.6
8.33
4.79
1.04
3.18
3.68
-0.1
-11
2.79
2.11
1.12
-0.6
-0.07
0.73

>  <PUBCHEM_SHAPE_SELFOVERLAP>  (1) 
883.01

>  <PUBCHEM_SHAPE_VOLUME>  (1) 
219.8

>  <PUBCHEM_COORDINATE_TYPE>  (1) 
2
5
10

$$$$
