23134
     RDKit          3D

 28 30  0  0  1  0  0  0  0  0999 V2000
    4.5320    2.2458   -0.4926 S   0  0  0  0  0  0  0  0  0  0  0  0
   -2.4049   -1.8803    0.6229 O   0  0  0  0  0  0  0  0  0  0  0  0
   -1.7026    2.8138    0.6008 O   0  0  0  0  0  0  0  0  0  0  0  0
    1.1465   -2.4251    0.7503 O   0  0  0  0  0  0  0  0  0  0  0  0
    5.4070    2.5147    0.8619 O   0  0  0  0  0  0  0  0  0  0  0  0
    5.4712    1.8576   -1.5348 O   0  0  0  0  0  0  0  0  0  0  0  0
    3.6372    3.3765   -0.6842 O   0  0  0  0  0  0  0  0  0  0  0  0
    4.8313   -2.9522   -0.8829 O   0  0  0  0  0  0  0  0  0  0  0  0
    2.9640   -3.8211   -0.1108 O   0  0  0  0  0  0  0  0  0  0  0  0
   -3.6928    1.9253   -0.0745 N   0  0  0  0  0  0  0  0  0  0  0  0
   -0.6473    0.2521    0.3809 N   0  0  0  0  0  0  0  0  0  0  0  0
    0.2015    0.1390    1.2896 N   0  0  0  0  0  0  0  0  0  0  0  0
    3.6900   -2.8356   -0.3789 N   0  0  0  0  0  0  0  0  0  0  0  0
   -1.9914    0.4617    0.9222 C   0  0  0  0  0  0  0  0  0  0  0  0
   -4.1632   -0.4694   -0.0236 C   0  0  0  0  0  0  0  0  0  0  0  0
   -4.5540    0.8409   -0.2933 C   0  0  0  0  0  0  0  0  0  0  0  0
   -2.8123   -0.7281    0.5047 C   0  0  0  0  0  0  0  0  0  0  0  0
   -2.4321    1.8291    0.4648 C   0  0  0  0  0  0  0  0  0  0  0  0
   -5.0394   -1.5319   -0.2703 C   0  0  0  0  0  0  0  0  0  0  0  0
    3.5320    0.8621   -0.1253 C   0  0  0  0  0  0  0  0  0  0  0  0
    1.4728   -0.0613    0.7259 C   0  0  0  0  0  0  0  0  0  0  0  0
   -5.8278    1.0906   -0.8147 C   0  0  0  0  0  0  0  0  0  0  0  0
    2.2675    1.0445    0.4344 C   0  0  0  0  0  0  0  0  0  0  0  0
    1.9339   -1.3481    0.4611 C   0  0  0  0  0  0  0  0  0  0  0  0
    3.1983   -1.5307   -0.0988 C   0  0  0  0  0  0  0  0  0  0  0  0
    3.9975   -0.4256   -0.3921 C   0  0  0  0  0  0  0  0  0  0  0  0
   -6.3106   -1.2767   -0.7852 C   0  0  0  0  0  0  0  0  0  0  0  0
   -6.7043    0.0324   -1.0574 C   0  0  0  0  0  0  0  0  0  0  0  0
  1  5  1  0
  1  6  2  0
  1  7  2  0
  1 20  1  0
  2 17  2  0
  3 18  2  0
  4 24  1  0
  8 13  1  0
  9 13  2  0
 10 16  1  0
 10 18  1  0
 11 12  2  0
 11 14  1  0
 12 21  1  0
 13 25  1  0
 14 17  1  0
 14 18  1  0
 15 16  2  0
 15 17  1  0
 15 19  1  0
 16 22  1  0
 19 27  2  0
 20 23  2  0
 20 26  1  0
 21 23  1  0
 21 24  2  0
 22 28  2  0
 24 25  1  0
 25 26  2  0
 27 28  1  0
M  CHG  2   8  -1  13   1
M  END
>  <PUBCHEM_COMPOUND_CID>  (1) 
23134

>  <PUBCHEM_CONFORMER_RMSD>  (1) 
0.8

>  <PUBCHEM_CONFORMER_DIVERSEORDER>  (1) 
1
7
15
10
9
12
8
3
14
5
4
6
11
2
13

>  <PUBCHEM_MMFF94_PARTIAL_CHARGES>  (1) 
37
1 1.49
10 -0.55
11 -0.25
12 -0.18
13 0.91
14 0.37
15 0.09
16 0.12
17 0.42
18 0.57
19 -0.15
2 -0.57
20 -0.01
21 0.18
22 -0.15
23 -0.15
24 0.08
25 0.13
26 -0.15
27 -0.15
28 -0.15
3 -0.57
30 0.37
31 0.15
32 0.15
33 0.15
34 0.15
35 0.15
36 0.15
37 0.45
38 0.5
4 -0.53
5 -0.68
6 -0.65
7 -0.65
8 -0.52
9 -0.52

>  <PUBCHEM_EFFECTIVE_ROTOR_COUNT>  (1) 
4.4

>  <PUBCHEM_PHARMACOPHORE_FEATURES>  (1) 
15
1 10 donor
1 14 anion
1 2 acceptor
1 3 acceptor
1 4 donor
1 5 acceptor
1 6 acceptor
1 7 acceptor
1 8 acceptor
1 8 anion
1 9 acceptor
4 1 5 6 7 anion
6 10 14 15 16 17 18 rings
6 15 16 19 22 27 28 rings
6 20 21 23 24 25 26 rings

>  <PUBCHEM_HEAVY_ATOM_COUNT>  (1) 
28

>  <PUBCHEM_ATOM_DEF_STEREO_COUNT>  (1) 
0

>  <PUBCHEM_ATOM_UDEF_STEREO_COUNT>  (1) 
1

>  <PUBCHEM_BOND_DEF_STEREO_COUNT>  (1) 
0

>  <PUBCHEM_BOND_UDEF_STEREO_COUNT>  (1) 
0

>  <PUBCHEM_ISOTOPIC_ATOM_COUNT>  (1) 
0

>  <PUBCHEM_COMPONENT_COUNT>  (1) 
1

>  <PUBCHEM_CACTVS_TAUTO_COUNT>  (1) 
48

>  <PUBCHEM_CONFORMER_ID>  (1) 
00005A5E00000001

>  <PUBCHEM_MMFF94_ENERGY>  (1) 
73.2409

>  <PUBCHEM_FEATURE_SELFOVERLAP>  (1) 
76.286

>  <PUBCHEM_SHAPE_FINGERPRINT>  (1) 
10595046 47 18413669110916721829
10692045 39 11170178840230037161
10693767 8 18058463019605628942
10835480 77 18335976528582254525
11719270 70 18412537739569574138
12107183 9 17765440846397569497
12788726 201 17632583730051639849
131258 43 17345487986124318310
13150687 139 17917158312114919068
13533116 47 18342174449335542741
14347332 77 18268143159275465531
14528608 73 18335701675864722549
15082195 135 18261962941496442612
15183329 4 18338233757118414155
15537594 2 17917708054542731951
15961568 22 17749389299408523636
16989378 47 17416147005139123654
17844677 252 18339647733150254749
18335252 98 18335706100477661531
18608769 82 18117842325346952187
18681886 176 18270113514394080490
20554085 129 17987505083234654712
20645477 70 18410572860044489298
21521239 73 18059869367906958934
221357 26 18340765945070996715
22149856 69 18343031008244885259
22393880 68 18189330174106958475
23522609 53 17845114955640733665
23559900 14 18341602664655635811
24771750 20 17610632186720498981
3004659 81 18338511941559598970
3103668 31 17762623193423247758
4073 2 18187086191450451931
4280585 95 17479467737801577790
46194498 28 18336827494130263718
59755656 215 18410295839365537628
6025842 7 18411981369147483966
6327066 14 18045786956017862828
67856867 119 18336257968903379698
9709674 26 18409170995751754563

>  <PUBCHEM_SHAPE_MULTIPOLES>  (1) 
513.2
15.67
3.6
1.01
10.66
1.04
-0.06
-1.81
-6.16
-5.66
-0.4
-0.16
-0.16
-0.17

>  <PUBCHEM_SHAPE_SELFOVERLAP>  (1) 
1116.974

>  <PUBCHEM_SHAPE_VOLUME>  (1) 
279.7

>  <PUBCHEM_COORDINATE_TYPE>  (1) 
2
5
10

$$$$
