23146
     RDKit          3D

 23 24  0  0  1  0  0  0  0  0999 V2000
    0.5173    0.5419    2.3163 O   0  0  0  0  0  0  0  0  0  0  0  0
    0.9673   -1.6605    2.3587 O   0  0  0  0  0  0  0  0  0  0  0  0
    4.0350    1.1774   -0.3049 N   0  0  0  0  0  0  0  0  0  0  0  0
    0.5994   -0.6101    0.1521 C   0  0  0  0  0  0  0  0  0  0  0  0
    0.1792   -2.0307   -0.4450 C   0  0  0  0  0  0  0  0  0  0  0  0
    2.0743   -0.3034   -0.3190 C   0  0  0  0  0  0  0  0  0  0  0  0
   -0.4309    0.4601   -0.3036 C   0  0  0  0  0  0  0  0  0  0  0  0
    0.0442   -2.0437   -1.9921 C   0  0  0  0  0  0  0  0  0  0  0  0
    2.6768    1.0114    0.2064 C   0  0  0  0  0  0  0  0  0  0  0  0
    1.0862   -3.1888    0.0125 C   0  0  0  0  0  0  0  0  0  0  0  0
    0.6919   -0.6592    1.7060 C   0  0  0  0  0  0  0  0  0  0  0  0
   -1.7463    0.3588    0.0855 C   0  0  0  0  0  0  0  0  0  0  0  0
    0.0763    1.4610   -1.0902 C   0  0  0  0  0  0  0  0  0  0  0  0
   -0.4149   -3.3853   -2.5540 C   0  0  0  0  0  0  0  0  0  0  0  0
   -2.6347    1.3652   -0.3627 C   0  0  0  0  0  0  0  0  0  0  0  0
   -0.7973    2.4509   -1.5306 C   0  0  0  0  0  0  0  0  0  0  0  0
   -2.2368   -0.6803    0.8931 C   0  0  0  0  0  0  0  0  0  0  0  0
   -2.1443    2.4046   -1.1700 C   0  0  0  0  0  0  0  0  0  0  0  0
    4.8770    0.0522    0.1021 C   0  0  0  0  0  0  0  0  0  0  0  0
    4.6088    2.4391    0.1634 C   0  0  0  0  0  0  0  0  0  0  0  0
   -3.9873    1.3029    0.0100 C   0  0  0  0  0  0  0  0  0  0  0  0
   -3.5838   -0.7265    1.2534 C   0  0  0  0  0  0  0  0  0  0  0  0
   -4.4574    0.2631    0.8126 C   0  0  0  0  0  0  0  0  0  0  0  0
  1 11  1  0
  2 11  2  0
  3  9  1  0
  3 19  1  0
  3 20  1  0
  4  5  1  0
  4  6  1  0
  4  7  1  0
  4 11  1  0
  5  8  1  0
  5 10  1  0
  6  9  1  0
  7 12  2  0
  7 13  1  0
  8 14  1  0
 12 15  1  0
 12 17  1  0
 13 16  2  0
 15 18  2  0
 15 21  1  0
 16 18  1  0
 17 22  2  0
 21 23  2  0
 22 23  1  0
M  END
>  <PUBCHEM_COMPOUND_CID>  (1) 
23146

>  <PUBCHEM_CONFORMER_RMSD>  (1) 
0.8

>  <PUBCHEM_CONFORMER_DIVERSEORDER>  (1) 
1
25
24
3
2
9
22
5
16
21
11
8
12
4
14
23
10
6
19
17
20
13
7
18
15

>  <PUBCHEM_MMFF94_PARTIAL_CHARGES>  (1) 
24
1 -0.65
11 0.66
13 -0.15
16 -0.15
17 -0.15
18 -0.15
19 0.27
2 -0.57
20 0.27
21 -0.15
22 -0.15
23 -0.15
3 -0.81
34 0.15
38 0.15
39 0.15
4 0.2
40 0.15
41 0.5
48 0.15
49 0.15
50 0.15
7 -0.14
9 0.27

>  <PUBCHEM_EFFECTIVE_ROTOR_COUNT>  (1) 
7

>  <PUBCHEM_PHARMACOPHORE_FEATURES>  (1) 
9
1 1 acceptor
1 10 hydrophobe
1 14 hydrophobe
1 2 acceptor
1 3 cation
3 1 2 11 anion
4 4 5 6 8 hydrophobe
6 12 15 17 21 22 23 rings
6 7 12 13 15 16 18 rings

>  <PUBCHEM_HEAVY_ATOM_COUNT>  (1) 
23

>  <PUBCHEM_ATOM_DEF_STEREO_COUNT>  (1) 
0

>  <PUBCHEM_ATOM_UDEF_STEREO_COUNT>  (1) 
2

>  <PUBCHEM_BOND_DEF_STEREO_COUNT>  (1) 
0

>  <PUBCHEM_BOND_UDEF_STEREO_COUNT>  (1) 
0

>  <PUBCHEM_ISOTOPIC_ATOM_COUNT>  (1) 
0

>  <PUBCHEM_COMPONENT_COUNT>  (1) 
1

>  <PUBCHEM_CACTVS_TAUTO_COUNT>  (1) 
1

>  <PUBCHEM_CONFORMER_ID>  (1) 
00005A6A00000001

>  <PUBCHEM_MMFF94_ENERGY>  (1) 
101.3797

>  <PUBCHEM_FEATURE_SELFOVERLAP>  (1) 
45.894

>  <PUBCHEM_SHAPE_FINGERPRINT>  (1) 
10165383 225 18131638901860385393
10863032 1 18040996181115596459
10906281 52 18115046155391836597
10922049 32 18334861614921705880
10948715 1 18408323280670503600
11488393 25 18054804887773280294
12035759 4 18122312891415030502
12403814 3 18337667637088588880
12592029 89 18338520738185293250
13140716 1 17824560766653927377
13149001 5 16987990747326430386
13544653 18 9511461139064270024
13681431 1 17409929133223117918
14223421 5 17969500403334030545
14251751 93 18410847776790657734
14787075 74 17168996753547706328
14863182 85 16950864526023578307
16945 1 18188225298001505551
17349148 13 15140976057591651913
17980427 23 14418141677431859191
1813 80 13768212653308752274
20600515 1 17677068922328550189
20905425 154 18043252344605673788
21524375 3 18407758127768312776
21756936 100 17969215798022662376
22182313 1 17823707356799717229
23227448 37 18124035895372430252
23402539 116 18041278863004471467
23419403 2 17553255090883195766
23526113 38 17331114997488445167
23557571 272 17677627375545950181
23559900 14 17901659371827029171
2748010 2 17825113606296135877
298252 57 18412263964894166794
34934 24 17968090907253662665
3729539 64 17913799157841720590
4340502 62 17632027402705653991
5845 1 8989162428028893959
69090 78 18340768242899449692
7364860 26 18118398436999644642
81228 2 17693069157095663730
84936 31 17773035250335380807
9925002 15 17765158662713974495

>  <PUBCHEM_SHAPE_MULTIPOLES>  (1) 
456.61
6.95
3.31
1.95
3.27
1.93
-0.05
-4.74
-1.71
0.84
2.14
-0.35
1.11
0.45

>  <PUBCHEM_SHAPE_SELFOVERLAP>  (1) 
959.403

>  <PUBCHEM_SHAPE_VOLUME>  (1) 
257.1

>  <PUBCHEM_COORDINATE_TYPE>  (1) 
2
5
10

$$$$
