23148
     RDKit          3D

 20 21  0  0  1  0  0  0  0  0999 V2000
   -1.2661    2.6734    1.5827 O   0  0  0  0  0  0  0  0  0  0  0  0
    0.7523    2.9200    0.6142 O   0  0  0  0  0  0  0  0  0  0  0  0
   -3.2554   -1.7004    0.2586 N   0  0  0  0  0  0  0  0  0  0  0  0
   -0.7747    1.2365   -0.3322 C   0  0  0  0  0  0  0  0  0  0  0  0
   -1.7660    0.2626    0.3875 C   0  0  0  0  0  0  0  0  0  0  0  0
    0.4863    0.4741   -0.8046 C   0  0  0  0  0  0  0  0  0  0  0  0
   -2.3474   -0.8457   -0.5032 C   0  0  0  0  0  0  0  0  0  0  0  0
   -1.5145    1.9479   -1.4909 C   0  0  0  0  0  0  0  0  0  0  0  0
    1.2897   -0.1737    0.1093 C   0  0  0  0  0  0  0  0  0  0  0  0
   -0.3309    2.3461    0.6540 C   0  0  0  0  0  0  0  0  0  0  0  0
    0.7203    0.5025   -2.1571 C   0  0  0  0  0  0  0  0  0  0  0  0
    2.4287   -0.8519   -0.3864 C   0  0  0  0  0  0  0  0  0  0  0  0
    1.0286   -0.1879    1.4890 C   0  0  0  0  0  0  0  0  0  0  0  0
    1.8403   -0.1644   -2.6446 C   0  0  0  0  0  0  0  0  0  0  0  0
    2.6899   -0.8376   -1.7663 C   0  0  0  0  0  0  0  0  0  0  0  0
   -3.7759   -2.7757   -0.5856 C   0  0  0  0  0  0  0  0  0  0  0  0
   -4.3543   -0.9121    0.8161 C   0  0  0  0  0  0  0  0  0  0  0  0
    3.2730   -1.5243    0.5122 C   0  0  0  0  0  0  0  0  0  0  0  0
    1.8780   -0.8612    2.3673 C   0  0  0  0  0  0  0  0  0  0  0  0
    2.9981   -1.5281    1.8800 C   0  0  0  0  0  0  0  0  0  0  0  0
  1 10  1  0
  2 10  2  0
  3  7  1  0
  3 16  1  0
  3 17  1  0
  4  5  1  0
  4  6  1  0
  4  8  1  0
  4 10  1  0
  5  7  1  0
  6  9  2  0
  6 11  1  0
  9 12  1  0
  9 13  1  0
 11 14  2  0
 12 15  2  0
 12 18  1  0
 13 19  2  0
 14 15  1  0
 18 20  2  0
 19 20  1  0
M  END
>  <PUBCHEM_COMPOUND_CID>  (1) 
23148

>  <PUBCHEM_CONFORMER_RMSD>  (1) 
0.8

>  <PUBCHEM_CONFORMER_DIVERSEORDER>  (1) 
1
5
4
11
12
9
10
8
7
13
6
2
3

>  <PUBCHEM_MMFF94_PARTIAL_CHARGES>  (1) 
24
1 -0.65
10 0.66
11 -0.15
13 -0.15
14 -0.15
15 -0.15
16 0.27
17 0.27
18 -0.15
19 -0.15
2 -0.57
20 -0.15
28 0.15
29 0.15
3 -0.81
30 0.15
31 0.15
38 0.15
39 0.15
4 0.2
40 0.5
41 0.15
6 -0.14
7 0.27

>  <PUBCHEM_EFFECTIVE_ROTOR_COUNT>  (1) 
5

>  <PUBCHEM_PHARMACOPHORE_FEATURES>  (1) 
7
1 1 acceptor
1 2 acceptor
1 3 cation
1 8 hydrophobe
3 1 2 10 anion
6 6 9 11 12 14 15 rings
6 9 12 13 18 19 20 rings

>  <PUBCHEM_HEAVY_ATOM_COUNT>  (1) 
20

>  <PUBCHEM_ATOM_DEF_STEREO_COUNT>  (1) 
0

>  <PUBCHEM_ATOM_UDEF_STEREO_COUNT>  (1) 
1

>  <PUBCHEM_BOND_DEF_STEREO_COUNT>  (1) 
0

>  <PUBCHEM_BOND_UDEF_STEREO_COUNT>  (1) 
0

>  <PUBCHEM_ISOTOPIC_ATOM_COUNT>  (1) 
0

>  <PUBCHEM_COMPONENT_COUNT>  (1) 
1

>  <PUBCHEM_CACTVS_TAUTO_COUNT>  (1) 
1

>  <PUBCHEM_CONFORMER_ID>  (1) 
00005A6C00000001

>  <PUBCHEM_MMFF94_ENERGY>  (1) 
79.2385

>  <PUBCHEM_FEATURE_SELFOVERLAP>  (1) 
35.61

>  <PUBCHEM_SHAPE_FINGERPRINT>  (1) 
11578080 2 17895736448707039244
12363563 72 18341600551748347903
12423570 1 12925541882283409792
12553582 1 18411707603626805831
12633257 1 16702015361812280438
12716301 132 17842291267434266641
13083527 12 17837740650915905631
13583140 156 17554851479362543922
14787075 74 18190745426308692324
14817 1 13968869397940577068
15852999 172 17689414010929913503
16752209 62 18336267821880161605
16945 1 17978793398539958868
18186145 218 13117999976960819935
18219364 16 15768344116951994362
19049666 15 16985754086977083398
19784866 135 17984446064911761759
20600515 1 18272082756519228641
20602899 9 16817943263813464334
20671657 53 16660916695265777050
21421861 104 18267593583902978089
21452121 199 17750215058436387205
21731516 1 18335421292025989251
22112679 90 18115886108511660637
232386 152 18408035208835211091
23419403 2 17031569864823372496
23493267 7 17557703552310627066
23557571 272 18201160953686821308
238 59 16590563537814678027
25222932 49 16684562049884479207
2748010 2 15696007195663681404
3323516 105 15430046486776661283
568465 68 16557919909179085150
5902787 121 18341048605411104327
6992083 37 17319013832584460514
81228 2 17915462688352899793

>  <PUBCHEM_SHAPE_MULTIPOLES>  (1) 
394.87
5.69
2.75
2.33
4.23
0.76
0.39
-5.52
0.17
1.57
-0.75
-1.53
0.36
-1.32

>  <PUBCHEM_SHAPE_SELFOVERLAP>  (1) 
840.779

>  <PUBCHEM_SHAPE_VOLUME>  (1) 
221.2

>  <PUBCHEM_COORDINATE_TYPE>  (1) 
2
5
10

$$$$
