23154
     RDKit          3D

 12 12  0  0  0  0  0  0  0  0999 V2000
    1.5672    2.9240    0.2481 Cl  0  0  0  0  0  0  0  0  0  0  0  0
    3.2444   -1.9957    0.0141 Cl  0  0  0  0  0  0  0  0  0  0  0  0
   -1.5261   -0.8532   -0.3311 O   0  0  0  0  0  0  0  0  0  0  0  0
    0.7251   -1.3633   -0.1660 N   0  0  0  0  0  0  0  0  0  0  0  0
   -0.0483    0.9057   -0.0582 N   0  0  0  0  0  0  0  0  0  0  0  0
    2.2966    0.4278    0.1174 N   0  0  0  0  0  0  0  0  0  0  0  0
   -2.5415   -0.0624    0.2790 C   0  0  0  0  0  0  0  0  0  0  0  0
   -2.9935    1.0125   -0.6977 C   0  0  0  0  0  0  0  0  0  0  0  0
   -3.6915   -0.9636    0.7022 C   0  0  0  0  0  0  0  0  0  0  0  0
   -0.2357   -0.4213   -0.1794 C   0  0  0  0  0  0  0  0  0  0  0  0
    1.2400    1.2558    0.0863 C   0  0  0  0  0  0  0  0  0  0  0  0
    1.9633   -0.8663   -0.0146 C   0  0  0  0  0  0  0  0  0  0  0  0
  1 11  1  0
  2 12  1  0
  3  7  1  0
  3 10  1  0
  4 10  2  0
  4 12  1  0
  5 10  1  0
  5 11  2  0
  6 11  1  0
  6 12  2  0
  7  8  1  0
  7  9  1  0
M  END
>  <PUBCHEM_COMPOUND_CID>  (1) 
23154

>  <PUBCHEM_CONFORMER_RMSD>  (1) 
0.6

>  <PUBCHEM_CONFORMER_DIVERSEORDER>  (1) 
2
4
5
3
1

>  <PUBCHEM_MMFF94_PARTIAL_CHARGES>  (1) 
10
1 -0.18
10 0.7
11 0.8
12 0.8
2 -0.18
3 -0.36
4 -0.62
5 -0.62
6 -0.62
7 0.28

>  <PUBCHEM_EFFECTIVE_ROTOR_COUNT>  (1) 
2

>  <PUBCHEM_PHARMACOPHORE_FEATURES>  (1) 
5
3 4 5 10 cation
3 4 6 12 cation
3 5 6 11 cation
3 7 8 9 hydrophobe
6 4 5 6 10 11 12 rings

>  <PUBCHEM_HEAVY_ATOM_COUNT>  (1) 
12

>  <PUBCHEM_ATOM_DEF_STEREO_COUNT>  (1) 
0

>  <PUBCHEM_ATOM_UDEF_STEREO_COUNT>  (1) 
0

>  <PUBCHEM_BOND_DEF_STEREO_COUNT>  (1) 
0

>  <PUBCHEM_BOND_UDEF_STEREO_COUNT>  (1) 
0

>  <PUBCHEM_ISOTOPIC_ATOM_COUNT>  (1) 
0

>  <PUBCHEM_COMPONENT_COUNT>  (1) 
1

>  <PUBCHEM_CACTVS_TAUTO_COUNT>  (1) 
1

>  <PUBCHEM_CONFORMER_ID>  (1) 
00005A7200000002

>  <PUBCHEM_MMFF94_ENERGY>  (1) 
24.303

>  <PUBCHEM_FEATURE_SELFOVERLAP>  (1) 
28.133

>  <PUBCHEM_SHAPE_FINGERPRINT>  (1) 
1 1 18195809793708513724
10130415 120 18262797337556099162
10219947 1 18201997681798506958
10608611 8 18335415790347021461
12032990 46 18339366245167654198
124424 183 18189329074516177071
12932764 1 18341055215355152135
14325111 11 18409449206610861437
14648413 74 18408599283948874625
15219456 202 18335135410407402269
15501101 241 18261115192113358629
15775835 57 17984429799997017305
16945 1 18339917229194041108
17841504 4 18409171008514927747
19973954 147 18409448094293823325
20339313 130 18271253733251850046
20645477 70 18410567414458617727
20671657 1 18269844275230030468
20715346 28 18114456855518219901
20871998 22 18127982905766350750
21130352 189 18339354158849848573
21524375 3 17696189583980375812
23552423 10 18268707388580430542
2748010 2 18268697325878354836
3071541 158 18334295344916730732
54173680 148 17834397822003088578
5493415 88 18336544928136719019
63268167 104 18412266137862820840
7364860 26 18341614875390154116
81228 2 17764877892259787848
8809292 202 18187932716376634467

>  <PUBCHEM_SHAPE_MULTIPOLES>  (1) 
229.88
5.49
2.46
0.71
3.28
1.61
-0.01
-2.16
-0.43
-2.23
-0.19
0.29
0.02
0.53

>  <PUBCHEM_SHAPE_SELFOVERLAP>  (1) 
447.471

>  <PUBCHEM_SHAPE_VOLUME>  (1) 
140.3

>  <PUBCHEM_COORDINATE_TYPE>  (1) 
2
5
10

$$$$
