23169
     RDKit          3D

  8  7  0  0  0  0  0  0  0  0999 V2000
    3.4679    0.3660    0.0060 O   0  0  0  0  0  0  0  0  0  0  0  0
   -1.3911    0.0086    0.0012 N   0  0  0  0  0  0  0  0  0  0  0  0
   -0.0961   -0.7901   -0.0341 C   0  0  0  0  0  0  0  0  0  0  0  0
    1.0813    0.1696   -0.0122 C   0  0  0  0  0  0  0  0  0  0  0  0
   -1.4403    0.9486   -1.1948 C   0  0  0  0  0  0  0  0  0  0  0  0
   -2.5763   -0.9445   -0.0535 C   0  0  0  0  0  0  0  0  0  0  0  0
   -1.4518    0.8204    1.2871 C   0  0  0  0  0  0  0  0  0  0  0  0
    2.4065   -0.5786    0.0003 C   0  0  0  0  0  0  0  0  0  0  0  0
  1  8  1  0
  2  3  1  0
  2  5  1  0
  2  6  1  0
  2  7  1  0
  3  4  1  0
  4  8  1  0
M  CHG  1   2   1
M  END
>  <PUBCHEM_COMPOUND_CID>  (1) 
23169

>  <PUBCHEM_CONFORMER_RMSD>  (1) 
0.6

>  <PUBCHEM_CONFORMER_DIVERSEORDER>  (1) 
1
3
2

>  <PUBCHEM_MMFF94_PARTIAL_CHARGES>  (1) 
8
1 -0.68
2 -1.01
24 0.4
3 0.5
5 0.5
6 0.5
7 0.5
8 0.28

>  <PUBCHEM_EFFECTIVE_ROTOR_COUNT>  (1) 
3

>  <PUBCHEM_PHARMACOPHORE_FEATURES>  (1) 
3
1 1 acceptor
1 1 donor
1 2 cation

>  <PUBCHEM_HEAVY_ATOM_COUNT>  (1) 
8

>  <PUBCHEM_ATOM_DEF_STEREO_COUNT>  (1) 
0

>  <PUBCHEM_ATOM_UDEF_STEREO_COUNT>  (1) 
0

>  <PUBCHEM_BOND_DEF_STEREO_COUNT>  (1) 
0

>  <PUBCHEM_BOND_UDEF_STEREO_COUNT>  (1) 
0

>  <PUBCHEM_ISOTOPIC_ATOM_COUNT>  (1) 
0

>  <PUBCHEM_COMPONENT_COUNT>  (1) 
1

>  <PUBCHEM_CACTVS_TAUTO_COUNT>  (1) 
1

>  <PUBCHEM_CONFORMER_ID>  (1) 
00005A8100000001

>  <PUBCHEM_MMFF94_ENERGY>  (1) 
22.9687

>  <PUBCHEM_FEATURE_SELFOVERLAP>  (1) 
15.223

>  <PUBCHEM_SHAPE_FINGERPRINT>  (1) 
11062470 55 16226042310197146335
12932764 1 18114467760429706258
14390081 3 17822285756530428404
20653085 51 17971187019758540277
24536 1 17988074466009704903
29004967 10 17132117952399149934
3248919 1 17988074496470134398
369184 2 18186799153889296594
5084963 1 18407759252711952322
5460574 1 9151176454429484270

>  <PUBCHEM_SHAPE_MULTIPOLES>  (1) 
153.79
4.31
1.07
1.01
3.55
0.03
-0.06
0.24
0.01
-0.46
0.04
-0.6
-0.35
0

>  <PUBCHEM_SHAPE_SELFOVERLAP>  (1) 
269.361

>  <PUBCHEM_SHAPE_VOLUME>  (1) 
103.7

>  <PUBCHEM_COORDINATE_TYPE>  (1) 
2
5
10

$$$$
