23163
     RDKit          3D

 25 26  0  0  1  0  0  0  0  0999 V2000
    2.6970   -1.0462   -0.9274 O   0  0  0  0  0  0  0  0  0  0  0  0
    2.7525    1.0788   -0.0663 O   0  0  0  0  0  0  0  0  0  0  0  0
   -3.4020   -2.9880   -0.0669 N   0  0  0  0  0  0  0  0  0  0  0  0
    0.9422   -0.4379    0.6246 C   0  0  0  0  0  0  0  0  0  0  0  0
    1.4384   -1.1582    1.9480 C   0  0  0  0  0  0  0  0  0  0  0  0
    0.0584   -1.3958   -0.2551 C   0  0  0  0  0  0  0  0  0  0  0  0
    0.0876    0.8392    0.8683 C   0  0  0  0  0  0  0  0  0  0  0  0
   -1.3083   -1.7757    0.3397 C   0  0  0  0  0  0  0  0  0  0  0  0
    2.2205   -0.0231   -0.1615 C   0  0  0  0  0  0  0  0  0  0  0  0
    2.2252   -2.4592    1.7077 C   0  0  0  0  0  0  0  0  0  0  0  0
    2.2943   -0.2604    2.8629 C   0  0  0  0  0  0  0  0  0  0  0  0
   -0.3772    1.5683   -0.2003 C   0  0  0  0  0  0  0  0  0  0  0  0
   -2.1127   -2.6269   -0.6448 C   0  0  0  0  0  0  0  0  0  0  0  0
   -0.1406    1.1443    2.1837 C   0  0  0  0  0  0  0  0  0  0  0  0
   -1.1488    2.7191    0.0881 C   0  0  0  0  0  0  0  0  0  0  0  0
   -0.8997    2.2758    2.4672 C   0  0  0  0  0  0  0  0  0  0  0  0
   -0.1251    1.2282   -1.5394 C   0  0  0  0  0  0  0  0  0  0  0  0
   -1.4012    3.0591    1.4272 C   0  0  0  0  0  0  0  0  0  0  0  0
   -1.6456    3.4959   -0.9711 C   0  0  0  0  0  0  0  0  0  0  0  0
    3.9006   -0.7751   -1.6529 C   0  0  0  0  0  0  0  0  0  0  0  0
   -0.6264    2.0118   -2.5793 C   0  0  0  0  0  0  0  0  0  0  0  0
   -4.1645   -1.7881    0.2821 C   0  0  0  0  0  0  0  0  0  0  0  0
   -4.1666   -3.8234   -0.9946 C   0  0  0  0  0  0  0  0  0  0  0  0
   -1.3852    3.1436   -2.2957 C   0  0  0  0  0  0  0  0  0  0  0  0
    4.2873   -2.0062   -2.4443 C   0  0  0  0  0  0  0  0  0  0  0  0
  1  9  1  0
  1 20  1  0
  2  9  2  0
  3 13  1  0
  3 22  1  0
  3 23  1  0
  4  5  1  0
  4  6  1  0
  4  7  1  0
  4  9  1  0
  5 10  1  0
  5 11  1  0
  6  8  1  0
  7 12  2  0
  7 14  1  0
  8 13  1  0
 12 15  1  0
 12 17  1  0
 14 16  2  0
 15 18  2  0
 15 19  1  0
 16 18  1  0
 17 21  2  0
 19 24  2  0
 20 25  1  0
 21 24  1  0
M  END
>  <PUBCHEM_COMPOUND_CID>  (1) 
23163

>  <PUBCHEM_CONFORMER_RMSD>  (1) 
1

>  <PUBCHEM_CONFORMER_DIVERSEORDER>  (1) 
6
27
20
33
12
37
22
36
25
1
31
30
14
26
5
21
4
8
15
35
9
16
29
23
3
24
7
10
32
2
34
19
28
17
13
18
11

>  <PUBCHEM_MMFF94_PARTIAL_CHARGES>  (1) 
24
1 -0.43
13 0.27
14 -0.15
16 -0.15
17 -0.15
18 -0.15
19 -0.15
2 -0.57
20 0.28
21 -0.15
22 0.27
23 0.27
24 -0.15
3 -0.81
39 0.15
4 0.2
40 0.15
41 0.15
42 0.15
43 0.15
46 0.15
53 0.15
7 -0.14
9 0.66

>  <PUBCHEM_EFFECTIVE_ROTOR_COUNT>  (1) 
9

>  <PUBCHEM_PHARMACOPHORE_FEATURES>  (1) 
6
1 2 acceptor
1 3 cation
3 5 10 11 hydrophobe
4 4 5 6 8 hydrophobe
6 12 15 17 19 21 24 rings
6 7 12 14 15 16 18 rings

>  <PUBCHEM_HEAVY_ATOM_COUNT>  (1) 
25

>  <PUBCHEM_ATOM_DEF_STEREO_COUNT>  (1) 
0

>  <PUBCHEM_ATOM_UDEF_STEREO_COUNT>  (1) 
1

>  <PUBCHEM_BOND_DEF_STEREO_COUNT>  (1) 
0

>  <PUBCHEM_BOND_UDEF_STEREO_COUNT>  (1) 
0

>  <PUBCHEM_ISOTOPIC_ATOM_COUNT>  (1) 
0

>  <PUBCHEM_COMPONENT_COUNT>  (1) 
1

>  <PUBCHEM_CACTVS_TAUTO_COUNT>  (1) 
1

>  <PUBCHEM_CONFORMER_ID>  (1) 
00005A7B00000006

>  <PUBCHEM_MMFF94_ENERGY>  (1) 
99.0172

>  <PUBCHEM_FEATURE_SELFOVERLAP>  (1) 
30.529

>  <PUBCHEM_SHAPE_FINGERPRINT>  (1) 
10764073 3 15982888522065824867
12035759 4 18041006115454229342
12293681 25 17273393016421286654
13583140 156 16761394225741789273
13681431 1 17977677724565126139
15210252 30 17968375774863894271
15420108 30 16833723935610167457
15664445 248 18116992393503108460
16945 1 18336533937357704089
20600515 1 18191584374828662778
20602899 9 17980765930694685709
21452121 99 18048848867454750041
22149856 69 16973651119201425611
2255824 54 17611733905607666395
23419403 2 17346595262224569362
3380486 77 17605830550663475320
35225 105 18195244417225001895
484985 159 16910076909842095206
57527585 103 17844798209896157346
5845 1 12326252592785528743
59554788 248 17395870768844031073
59554788 281 17407644373766853042
81228 2 18263099828134752176
9925002 15 17909312166161766669

>  <PUBCHEM_SHAPE_MULTIPOLES>  (1) 
497.77
5.63
4.91
2.89
3.35
2.49
-0.32
5.16
2.84
-7.36
1.37
1.66
-1.35
-0.01

>  <PUBCHEM_SHAPE_SELFOVERLAP>  (1) 
1036.459

>  <PUBCHEM_SHAPE_VOLUME>  (1) 
284.8

>  <PUBCHEM_COORDINATE_TYPE>  (1) 
2
5
10

$$$$
