23164
     RDKit          3D

 24 25  0  0  1  0  0  0  0  0999 V2000
   -3.2541    0.0365    0.2277 N   0  0  0  0  0  0  0  0  0  0  0  0
    1.5931    3.6867    1.2125 N   0  0  0  0  0  0  0  0  0  0  0  0
    0.9270    1.5246   -0.1725 C   0  0  0  0  0  0  0  0  0  0  0  0
    1.5122    1.6786   -1.6406 C   0  0  0  0  0  0  0  0  0  0  0  0
   -0.6427    1.4846   -0.2240 C   0  0  0  0  0  0  0  0  0  0  0  0
    1.4591    0.2106    0.4466 C   0  0  0  0  0  0  0  0  0  0  0  0
   -1.3398    1.3172    1.1424 C   0  0  0  0  0  0  0  0  0  0  0  0
   -2.8617    1.1953    1.0205 C   0  0  0  0  0  0  0  0  0  0  0  0
    0.9341    2.8873   -2.4010 C   0  0  0  0  0  0  0  0  0  0  0  0
    3.0476    1.7537   -1.7046 C   0  0  0  0  0  0  0  0  0  0  0  0
    1.1964   -0.9998   -0.1596 C   0  0  0  0  0  0  0  0  0  0  0  0
    1.3045    2.7348    0.6135 C   0  0  0  0  0  0  0  0  0  0  0  0
    2.1844    0.3542    1.6038 C   0  0  0  0  0  0  0  0  0  0  0  0
    1.7112   -2.1653    0.4565 C   0  0  0  0  0  0  0  0  0  0  0  0
   -2.7090   -1.1929    0.8064 C   0  0  0  0  0  0  0  0  0  0  0  0
   -4.7122   -0.0518    0.1300 C   0  0  0  0  0  0  0  0  0  0  0  0
    2.6910   -0.7919    2.2094 C   0  0  0  0  0  0  0  0  0  0  0  0
    0.4512   -1.1210   -1.3438 C   0  0  0  0  0  0  0  0  0  0  0  0
    2.4567   -2.0443    1.6406 C   0  0  0  0  0  0  0  0  0  0  0  0
    1.4657   -3.4176   -0.1298 C   0  0  0  0  0  0  0  0  0  0  0  0
    0.2169   -2.3734   -1.9123 C   0  0  0  0  0  0  0  0  0  0  0  0
   -3.0548   -2.4015   -0.0467 C   0  0  0  0  0  0  0  0  0  0  0  0
   -5.3000    1.2149   -0.4687 C   0  0  0  0  0  0  0  0  0  0  0  0
    0.7231   -3.5195   -1.3064 C   0  0  0  0  0  0  0  0  0  0  0  0
  1  8  1  0
  1 15  1  0
  1 16  1  0
  2 12  3  0
  3  4  1  0
  3  5  1  0
  3  6  1  0
  3 12  1  0
  4  9  1  0
  4 10  1  0
  5  7  1  0
  6 11  2  0
  6 13  1  0
  7  8  1  0
 11 14  1  0
 11 18  1  0
 13 17  2  0
 14 19  2  0
 14 20  1  0
 15 22  1  0
 16 23  1  0
 17 19  1  0
 18 21  2  0
 20 24  2  0
 21 24  1  0
M  END
>  <PUBCHEM_COMPOUND_CID>  (1) 
23164

>  <PUBCHEM_CONFORMER_RMSD>  (1) 
0.8

>  <PUBCHEM_CONFORMER_DIVERSEORDER>  (1) 
2
55
71
59
29
76
54
14
63
25
75
51
27
64
11
48
40
43
72
68
67
73
65
60
37
70
50
52
1
66
57
46
61
69
13
53
15
5
4
19
74
22
49
10
56
12
44
36
47
7
32
28
20
26
8
24
39
58
18
41
35
9
3
34
42
6
45
33
16
62
30
38
31
17
23
21

>  <PUBCHEM_MMFF94_PARTIAL_CHARGES>  (1) 
22
1 -0.81
12 0.36
13 -0.15
15 0.27
16 0.27
17 -0.15
18 -0.15
19 -0.15
2 -0.56
20 -0.15
21 -0.15
24 -0.15
3 0.34
38 0.15
43 0.15
44 0.15
45 0.15
46 0.15
47 0.15
54 0.15
6 -0.14
8 0.27

>  <PUBCHEM_EFFECTIVE_ROTOR_COUNT>  (1) 
8

>  <PUBCHEM_PHARMACOPHORE_FEATURES>  (1) 
6
1 1 cation
1 2 acceptor
3 4 9 10 hydrophobe
4 3 4 5 7 hydrophobe
6 11 14 18 20 21 24 rings
6 6 11 13 14 17 19 rings

>  <PUBCHEM_HEAVY_ATOM_COUNT>  (1) 
24

>  <PUBCHEM_ATOM_DEF_STEREO_COUNT>  (1) 
0

>  <PUBCHEM_ATOM_UDEF_STEREO_COUNT>  (1) 
1

>  <PUBCHEM_BOND_DEF_STEREO_COUNT>  (1) 
0

>  <PUBCHEM_BOND_UDEF_STEREO_COUNT>  (1) 
0

>  <PUBCHEM_ISOTOPIC_ATOM_COUNT>  (1) 
0

>  <PUBCHEM_COMPONENT_COUNT>  (1) 
1

>  <PUBCHEM_CACTVS_TAUTO_COUNT>  (1) 
1

>  <PUBCHEM_CONFORMER_ID>  (1) 
00005A7C00000002

>  <PUBCHEM_MMFF94_ENERGY>  (1) 
83.07

>  <PUBCHEM_FEATURE_SELFOVERLAP>  (1) 
30.493

>  <PUBCHEM_SHAPE_FINGERPRINT>  (1) 
12293681 25 17400332578587571143
12553582 1 18198075698337055113
12633257 1 18041545984591310795
13004483 165 17535166883270502890
13681431 1 18189915122608569832
14004458 79 16883007985357957076
14251757 17 17342413930925231004
14863182 85 18272371940571656651
14955137 171 18411978070765445170
15163728 17 16083940379351117021
16945 1 18268131107233197376
17492 54 17972631877275425550
17980427 23 18264186149664754937
20600515 1 17971751069139147905
20691752 17 17829063013107805883
21304303 282 17108185136274845316
21452121 199 18051984623130203292
22393880 68 18268434705881946349
23419403 2 17827322593301158644
23559900 14 18342743962405550983
2803657 2 17550639541588202374
3060560 45 18341057409809588524
3380486 77 17679300771923972995
3797600 57 17757281744259727971
394222 165 17970071251626911816
404807 78 17684089463540155803
6438718 38 16620685878327431751
6443956 14 18124874547876896865
81228 2 17471022375696552225

>  <PUBCHEM_SHAPE_MULTIPOLES>  (1) 
483.95
6.13
4.43
2.05
11.28
0.47
-0.37
-0.35
1.09
-2.67
-1.29
-1.71
-0.41
-0.75

>  <PUBCHEM_SHAPE_SELFOVERLAP>  (1) 
1006.111

>  <PUBCHEM_SHAPE_VOLUME>  (1) 
275.1

>  <PUBCHEM_COORDINATE_TYPE>  (1) 
2
5
10

$$$$
