2316
     RDKit          3D

 30 32  0  0  0  0  0  0  0  0999 V2000
   -1.6670    0.9454    0.7005 O   0  0  0  0  0  0  0  0  0  0  0  0
   -1.4491    2.5575   -0.9841 O   0  0  0  0  0  0  0  0  0  0  0  0
   -2.7160   -1.5631   -0.3341 O   0  0  0  0  0  0  0  0  0  0  0  0
   -3.4561   -0.5628   -2.2708 O   0  0  0  0  0  0  0  0  0  0  0  0
    5.0012    0.5878    0.0987 N   0  0  0  0  0  0  0  0  0  0  0  0
    7.3820    0.9028    0.0458 N   0  0  0  0  0  0  0  0  0  0  0  0
    6.4924   -1.1321    0.5586 N   0  0  0  0  0  0  0  0  0  0  0  0
    3.3094    2.2652   -0.3535 C   0  0  0  0  0  0  0  0  0  0  0  0
    0.4833    1.4073   -0.1206 C   0  0  0  0  0  0  0  0  0  0  0  0
    2.6546    1.3671   -1.4118 C   0  0  0  0  0  0  0  0  0  0  0  0
    2.6400    2.0752    1.0142 C   0  0  0  0  0  0  0  0  0  0  0  0
    1.1459    1.5917   -1.4858 C   0  0  0  0  0  0  0  0  0  0  0  0
    1.1309    2.2980    0.9398 C   0  0  0  0  0  0  0  0  0  0  0  0
    4.8088    1.9872   -0.2633 C   0  0  0  0  0  0  0  0  0  0  0  0
   -0.9760    1.7316   -0.2148 C   0  0  0  0  0  0  0  0  0  0  0  0
    6.2266    0.1737    0.2197 C   0  0  0  0  0  0  0  0  0  0  0  0
   -3.0438    1.1804    0.6842 C   0  0  0  0  0  0  0  0  0  0  0  0
   -3.8850    0.4500   -0.1553 C   0  0  0  0  0  0  0  0  0  0  0  0
   -3.5753    2.1597    1.5234 C   0  0  0  0  0  0  0  0  0  0  0  0
   -5.2574    0.6989   -0.1554 C   0  0  0  0  0  0  0  0  0  0  0  0
   -4.9477    2.4085    1.5234 C   0  0  0  0  0  0  0  0  0  0  0  0
   -3.3509   -0.5776   -1.0383 C   0  0  0  0  0  0  0  0  0  0  0  0
   -5.7888    1.6782    0.6839 C   0  0  0  0  0  0  0  0  0  0  0  0
   -2.1454   -2.6338   -1.0940 C   0  0  0  0  0  0  0  0  0  0  0  0
   -0.9486   -3.1690   -0.3639 C   0  0  0  0  0  0  0  0  0  0  0  0
    0.3146   -2.6285   -0.6049 C   0  0  0  0  0  0  0  0  0  0  0  0
   -1.0992   -4.2066    0.5561 C   0  0  0  0  0  0  0  0  0  0  0  0
    1.4270   -3.1257    0.0737 C   0  0  0  0  0  0  0  0  0  0  0  0
    0.0133   -4.7037    1.2349 C   0  0  0  0  0  0  0  0  0  0  0  0
    1.2765   -4.1632    0.9936 C   0  0  0  0  0  0  0  0  0  0  0  0
  1 15  1  0
  1 17  1  0
  2 15  2  0
  3 22  1  0
  3 24  1  0
  4 22  2  0
  5 14  1  0
  5 16  2  3
  6 16  1  0
  7 16  1  0
  8 10  1  0
  8 11  1  0
  8 14  1  0
  9 12  1  0
  9 13  1  0
  9 15  1  0
 10 12  1  0
 11 13  1  0
 17 18  1  0
 17 19  2  0
 18 20  2  0
 18 22  1  0
 19 21  1  0
 20 23  1  0
 21 23  2  0
 24 25  1  0
 25 26  2  0
 25 27  1  0
 26 28  1  0
 27 29  2  0
 28 30  2  0
 29 30  1  0
M  END
>  <PUBCHEM_COMPOUND_CID>  (1) 
2316

>  <PUBCHEM_CONFORMER_RMSD>  (1) 
1

>  <PUBCHEM_CONFORMER_DIVERSEORDER>  (1) 
3
27
91
36
100
78
76
40
19
53
8
122
24
95
129
22
16
52
10
97
57
75
39
125
110
111
59
50
93
80
7
58
51
94
49
61
108
112
104
64
34
82
101
21
63
60
124
43
55
128
69
23
2
121
116
109
35
33
66
86
106
17
117
44
127
102
96
74
92
31
98
26
84
89
41
77
81
46
107
15
72
29
83
68
47
119
32
103
13
62
99
28
73
45
105
30
79
42
37
1
85
65
126
4
115
88
90
12
11
54
67
20
71
113
38
114
5
87
123
18
70
56
6
48
9
25
120
14
118

>  <PUBCHEM_MMFF94_PARTIAL_CHARGES>  (1) 
38
1 -0.23
14 0.25
15 0.66
16 0.55
17 0.08
18 0.09
19 -0.15
2 -0.57
20 -0.15
21 -0.15
22 0.63
23 -0.15
24 0.42
25 -0.14
26 -0.15
27 -0.15
28 -0.15
29 -0.15
3 -0.43
30 -0.15
4 -0.57
43 0.15
44 0.4
45 0.4
46 0.4
47 0.4
48 0.15
49 0.15
5 -0.7
50 0.15
53 0.15
54 0.15
55 0.15
56 0.15
57 0.15
6 -0.85
7 -0.85
9 0.06

>  <PUBCHEM_EFFECTIVE_ROTOR_COUNT>  (1) 
10.2

>  <PUBCHEM_PHARMACOPHORE_FEATURES>  (1) 
8
1 2 acceptor
1 4 acceptor
1 6 donor
1 7 donor
4 5 6 7 16 cation
6 17 18 19 20 21 23 rings
6 25 26 27 28 29 30 rings
6 8 9 10 11 12 13 rings

>  <PUBCHEM_HEAVY_ATOM_COUNT>  (1) 
30

>  <PUBCHEM_ATOM_DEF_STEREO_COUNT>  (1) 
0

>  <PUBCHEM_ATOM_UDEF_STEREO_COUNT>  (1) 
0

>  <PUBCHEM_BOND_DEF_STEREO_COUNT>  (1) 
0

>  <PUBCHEM_BOND_UDEF_STEREO_COUNT>  (1) 
0

>  <PUBCHEM_ISOTOPIC_ATOM_COUNT>  (1) 
0

>  <PUBCHEM_COMPONENT_COUNT>  (1) 
1

>  <PUBCHEM_CACTVS_TAUTO_COUNT>  (1) 
2

>  <PUBCHEM_CONFORMER_ID>  (1) 
0000090C00000003

>  <PUBCHEM_MMFF94_ENERGY>  (1) 
82.8157

>  <PUBCHEM_FEATURE_SELFOVERLAP>  (1) 
40.652

>  <PUBCHEM_SHAPE_FINGERPRINT>  (1) 
10305334 12 18343021081810572863
1100329 8 18339365167099363774
12788726 201 17690012545025024583
1361 2 18337113346232439570
14028597 1 17845101675068903361
14394314 77 18413389813146039360
14725015 67 18052819436256589731
14747281 78 16591657247315638373
14790565 3 18410577266686203256
14840074 17 18114179714063296960
14866123 147 18338517546855975610
15297060 5 18201720652587955330
15322534 239 18338792420578793294
15439362 3 18190740818109801921
15927050 60 18413671323110086327
16067690 210 16199871644433669402
16112460 7 18340488868372912554
16120349 306 18410569583084370834
16719943 64 18410575123719068594
17627616 140 18263359184352427970
17859628 97 18410012130478033011
23516275 137 18118144489027634394
23559900 14 17915732274549379977
3383291 50 18266737059570639747
338550 245 18335988644505180748
38695281 34 18337112271857554120
4073 2 18197494250456031360
463206 1 18409449211196109200
5265222 85 18336554901615822060

>  <PUBCHEM_SHAPE_MULTIPOLES>  (1) 
578.97
12.84
5.7
1.4
14.63
8.79
0.24
-9.32
-2.03
-0.21
-1.75
-0.97
-0.12
-2.02

>  <PUBCHEM_SHAPE_SELFOVERLAP>  (1) 
1225.976

>  <PUBCHEM_SHAPE_VOLUME>  (1) 
318.1

>  <PUBCHEM_COORDINATE_TYPE>  (1) 
2
5
10

$$$$
