23172
     RDKit          3D

 10 11  0  0  0  0  0  0  0  0999 V2000
   -1.3955    1.1725   -0.1723 O   0  0  0  0  0  0  0  0  0  0  0  0
   -1.3981   -1.1754   -0.1902 O   0  0  0  0  0  0  0  0  0  0  0  0
    1.3955    1.1726    0.1723 O   0  0  0  0  0  0  0  0  0  0  0  0
    1.3981   -1.1754    0.1902 O   0  0  0  0  0  0  0  0  0  0  0  0
   -0.6162   -0.0001   -0.4419 C   0  0  0  0  0  0  0  0  0  0  0  0
    0.6162    0.0000    0.4419 C   0  0  0  0  0  0  0  0  0  0  0  0
   -2.7388    0.6956   -0.1253 C   0  0  0  0  0  0  0  0  0  0  0  0
   -2.5877   -0.6927    0.4335 C   0  0  0  0  0  0  0  0  0  0  0  0
    2.7387    0.6957    0.1252 C   0  0  0  0  0  0  0  0  0  0  0  0
    2.5877   -0.6928   -0.4334 C   0  0  0  0  0  0  0  0  0  0  0  0
  1  5  1  0
  1  7  1  0
  2  5  1  0
  2  8  1  0
  3  6  1  0
  3  9  1  0
  4  6  1  0
  4 10  1  0
  5  6  1  0
  7  8  1  0
  9 10  1  0
M  END
>  <PUBCHEM_COMPOUND_CID>  (1) 
23172

>  <PUBCHEM_CONFORMER_RMSD>  (1) 
0.6

>  <PUBCHEM_CONFORMER_DIVERSEORDER>  (1) 
1
2
3

>  <PUBCHEM_MMFF94_PARTIAL_CHARGES>  (1) 
10
1 -0.56
10 0.28
2 -0.56
3 -0.56
4 -0.56
5 0.56
6 0.56
7 0.28
8 0.28
9 0.28

>  <PUBCHEM_EFFECTIVE_ROTOR_COUNT>  (1) 
3

>  <PUBCHEM_PHARMACOPHORE_FEATURES>  (1) 
6
1 1 acceptor
1 2 acceptor
1 3 acceptor
1 4 acceptor
5 1 2 5 7 8 rings
5 3 4 6 9 10 rings

>  <PUBCHEM_HEAVY_ATOM_COUNT>  (1) 
10

>  <PUBCHEM_ATOM_DEF_STEREO_COUNT>  (1) 
0

>  <PUBCHEM_ATOM_UDEF_STEREO_COUNT>  (1) 
0

>  <PUBCHEM_BOND_DEF_STEREO_COUNT>  (1) 
0

>  <PUBCHEM_BOND_UDEF_STEREO_COUNT>  (1) 
0

>  <PUBCHEM_ISOTOPIC_ATOM_COUNT>  (1) 
0

>  <PUBCHEM_COMPONENT_COUNT>  (1) 
1

>  <PUBCHEM_CACTVS_TAUTO_COUNT>  (1) 
1

>  <PUBCHEM_CONFORMER_ID>  (1) 
00005A8400000001

>  <PUBCHEM_MMFF94_ENERGY>  (1) 
24.4551

>  <PUBCHEM_FEATURE_SELFOVERLAP>  (1) 
30.535

>  <PUBCHEM_SHAPE_FINGERPRINT>  (1) 
10857977 72 18114742749821060401
12897270 3 18408603673257413788
12932764 1 18410857663446488582
14325111 11 18410856563950685061
14390081 3 18411978070132448625
17844478 74 18261405459136070049
19973954 147 18410576184175076960
20201158 50 18341895156086446710
20871998 184 18200318860977237591
21040471 1 18338513148782544842
23552423 10 18261111897810184375
29004967 10 18344146990481169602
3248919 1 18410847767841780129
369184 2 18412542115581916843
5084963 1 18131630084371569859

>  <PUBCHEM_SHAPE_MULTIPOLES>  (1) 
182.32
4.5
1.24
0.68
0
0
0
-0.12
0
0
0
0
0.02
0.23

>  <PUBCHEM_SHAPE_SELFOVERLAP>  (1) 
373.303

>  <PUBCHEM_SHAPE_VOLUME>  (1) 
105.7

>  <PUBCHEM_COORDINATE_TYPE>  (1) 
2
5
10

$$$$
