23179
     RDKit          3D

 15 15  0  0  0  0  0  0  0  0999 V2000
   -0.7017   -2.4682   -0.5814 Cl  0  0  0  0  0  0  0  0  0  0  0  0
    0.2211    2.9095   -0.4594 Cl  0  0  0  0  0  0  0  0  0  0  0  0
   -3.7433   -1.8732    0.2049 Cl  0  0  0  0  0  0  0  0  0  0  0  0
    4.4239   -0.5759   -0.9492 N   0  0  0  0  0  0  0  0  0  0  0  0
    1.7285   -0.0908    2.5772 N   0  0  0  0  0  0  0  0  0  0  0  0
   -0.3751    0.2319   -0.4868 C   0  0  0  0  0  0  0  0  0  0  0  0
   -1.2586   -0.8373   -0.3387 C   0  0  0  0  0  0  0  0  0  0  0  0
   -0.8226    1.5386   -0.2919 C   0  0  0  0  0  0  0  0  0  0  0  0
   -2.5896   -0.5998    0.0039 C   0  0  0  0  0  0  0  0  0  0  0  0
   -2.1536    1.7762    0.0509 C   0  0  0  0  0  0  0  0  0  0  0  0
   -3.0371    0.7070    0.1988 C   0  0  0  0  0  0  0  0  0  0  0  0
    1.0237   -0.0061   -0.8459 C   0  0  0  0  0  0  0  0  0  0  0  0
    2.0528   -0.1815    0.0112 C   0  0  0  0  0  0  0  0  0  0  0  0
    3.3602   -0.3987   -0.5198 C   0  0  0  0  0  0  0  0  0  0  0  0
    1.8716   -0.1316    1.4261 C   0  0  0  0  0  0  0  0  0  0  0  0
  1  7  1  0
  2  8  1  0
  3  9  1  0
  4 14  3  0
  5 15  3  0
  6  7  2  0
  6  8  1  0
  6 12  1  0
  7  9  1  0
  8 10  2  0
  9 11  2  0
 10 11  1  0
 12 13  2  3
 13 14  1  0
 13 15  1  0
M  END
>  <PUBCHEM_COMPOUND_CID>  (1) 
23179

>  <PUBCHEM_CONFORMER_RMSD>  (1) 
0.4

>  <PUBCHEM_CONFORMER_DIVERSEORDER>  (1) 
1
2

>  <PUBCHEM_MMFF94_PARTIAL_CHARGES>  (1) 
18
1 -0.18
10 -0.15
11 -0.15
12 -0.18
13 0.13
14 0.49
15 0.49
16 0.15
17 0.15
18 0.15
2 -0.18
3 -0.18
4 -0.56
5 -0.56
6 0.03
7 0.18
8 0.18
9 0.18

>  <PUBCHEM_EFFECTIVE_ROTOR_COUNT>  (1) 
1

>  <PUBCHEM_PHARMACOPHORE_FEATURES>  (1) 
3
1 4 acceptor
1 5 acceptor
6 6 7 8 9 10 11 rings

>  <PUBCHEM_HEAVY_ATOM_COUNT>  (1) 
15

>  <PUBCHEM_ATOM_DEF_STEREO_COUNT>  (1) 
0

>  <PUBCHEM_ATOM_UDEF_STEREO_COUNT>  (1) 
0

>  <PUBCHEM_BOND_DEF_STEREO_COUNT>  (1) 
0

>  <PUBCHEM_BOND_UDEF_STEREO_COUNT>  (1) 
0

>  <PUBCHEM_ISOTOPIC_ATOM_COUNT>  (1) 
0

>  <PUBCHEM_COMPONENT_COUNT>  (1) 
1

>  <PUBCHEM_CACTVS_TAUTO_COUNT>  (1) 
1

>  <PUBCHEM_CONFORMER_ID>  (1) 
00005A8B00000001

>  <PUBCHEM_MMFF94_ENERGY>  (1) 
32.9834

>  <PUBCHEM_FEATURE_SELFOVERLAP>  (1) 
15.223

>  <PUBCHEM_SHAPE_FINGERPRINT>  (1) 
11680986 33 17903363941652497327
13140716 1 18340221781721402649
13538477 17 18042114380230641972
14993402 34 18407758136157573261
15076042 46 17899683566606321824
15375462 175 18339638915413474040
15375462 189 17749390355853900641
16752209 62 18335688452034951647
16945 1 18336537219155855693
17804303 29 18130795567809741975
19422 9 17968096378751880034
200 152 16153420645287774574
20510252 161 18272374165427902753
20645477 70 17974563912690218479
20871998 184 18343588434216170847
228727 97 17748832890979845932
23175994 123 16773524270046782760
23236772 104 17749398035450604344
23402539 116 18342173353971378062
23419403 2 16255242173861493565
23493267 7 18114748105560934289
23526113 38 17415560917901309782
23557571 272 18200326502114116196
23559900 14 18199469866649886430
23598294 1 18335415734000393011
2748010 2 18124042234912555151
3286 77 16845573157848664411
43471831 8 18335422309675269239
7364860 26 18053105304520386788
77492 1 17603868866862921660
81228 2 17912619565773464215

>  <PUBCHEM_SHAPE_MULTIPOLES>  (1) 
304.34
5.74
2.46
1.28
2.15
0.95
0.98
-2.44
-0.25
-1.48
-0.52
1.14
-0.15
0.07

>  <PUBCHEM_SHAPE_SELFOVERLAP>  (1) 
614.286

>  <PUBCHEM_SHAPE_VOLUME>  (1) 
174

>  <PUBCHEM_COORDINATE_TYPE>  (1) 
2
5
10

$$$$
