23184
     RDKit          3D

 23 24  0  0  1  0  0  0  0  0999 V2000
    0.9710   -3.3960    0.6588 O   0  0  0  0  0  0  0  0  0  0  0  0
   -1.2444   -3.1177    0.9904 O   0  0  0  0  0  0  0  0  0  0  0  0
   -3.4855    1.4256    0.0226 N   0  0  0  0  0  0  0  0  0  0  0  0
   -0.0399   -1.3813   -0.2824 C   0  0  0  0  0  0  0  0  0  0  0  0
    0.4912   -1.7274   -1.7379 C   0  0  0  0  0  0  0  0  0  0  0  0
   -1.4998   -0.7885   -0.3545 C   0  0  0  0  0  0  0  0  0  0  0  0
    0.9384   -0.4080    0.4262 C   0  0  0  0  0  0  0  0  0  0  0  0
   -2.1375   -0.4135    0.9979 C   0  0  0  0  0  0  0  0  0  0  0  0
   -0.1895   -2.6975    0.5289 C   0  0  0  0  0  0  0  0  0  0  0  0
   -0.4343   -2.6459   -2.5524 C   0  0  0  0  0  0  0  0  0  0  0  0
    1.9078   -2.3302   -1.7767 C   0  0  0  0  0  0  0  0  0  0  0  0
    1.2128    0.8216   -0.1291 C   0  0  0  0  0  0  0  0  0  0  0  0
   -3.5234    0.2217    0.8438 C   0  0  0  0  0  0  0  0  0  0  0  0
    1.4762   -0.8691    1.6005 C   0  0  0  0  0  0  0  0  0  0  0  0
    2.1134    1.6632    0.5663 C   0  0  0  0  0  0  0  0  0  0  0  0
    2.3615   -0.0412    2.2844 C   0  0  0  0  0  0  0  0  0  0  0  0
    0.6470    1.2680   -1.3345 C   0  0  0  0  0  0  0  0  0  0  0  0
    2.6790    1.2170    1.7718 C   0  0  0  0  0  0  0  0  0  0  0  0
    2.4216    2.9265    0.0358 C   0  0  0  0  0  0  0  0  0  0  0  0
    0.9648    2.5261   -1.8470 C   0  0  0  0  0  0  0  0  0  0  0  0
   -2.6437    2.4487    0.6456 C   0  0  0  0  0  0  0  0  0  0  0  0
   -4.8371    1.9443   -0.1951 C   0  0  0  0  0  0  0  0  0  0  0  0
    1.8505    3.3538   -1.1633 C   0  0  0  0  0  0  0  0  0  0  0  0
  1  9  1  0
  2  9  2  0
  3 13  1  0
  3 21  1  0
  3 22  1  0
  4  5  1  0
  4  6  1  0
  4  7  1  0
  4  9  1  0
  5 10  1  0
  5 11  1  0
  6  8  1  0
  7 12  2  0
  7 14  1  0
  8 13  1  0
 12 15  1  0
 12 17  1  0
 14 16  2  0
 15 18  2  0
 15 19  1  0
 16 18  1  0
 17 20  2  0
 19 23  2  0
 20 23  1  0
M  END
>  <PUBCHEM_COMPOUND_CID>  (1) 
23184

>  <PUBCHEM_CONFORMER_RMSD>  (1) 
0.8

>  <PUBCHEM_CONFORMER_DIVERSEORDER>  (1) 
1
3
20
7
21
10
15
13
23
19
22
11
9
5
24
4
12
2
18
6
17
8
14
16

>  <PUBCHEM_MMFF94_PARTIAL_CHARGES>  (1) 
24
1 -0.65
13 0.27
14 -0.15
16 -0.15
17 -0.15
18 -0.15
19 -0.15
2 -0.57
20 -0.15
21 0.27
22 0.27
23 -0.15
3 -0.81
37 0.15
38 0.15
39 0.15
4 0.2
40 0.15
41 0.5
42 0.15
43 0.15
50 0.15
7 -0.14
9 0.66

>  <PUBCHEM_EFFECTIVE_ROTOR_COUNT>  (1) 
7

>  <PUBCHEM_PHARMACOPHORE_FEATURES>  (1) 
8
1 1 acceptor
1 2 acceptor
1 3 cation
3 1 2 9 anion
3 5 10 11 hydrophobe
4 4 5 6 8 hydrophobe
6 12 15 17 19 20 23 rings
6 7 12 14 15 16 18 rings

>  <PUBCHEM_HEAVY_ATOM_COUNT>  (1) 
23

>  <PUBCHEM_ATOM_DEF_STEREO_COUNT>  (1) 
0

>  <PUBCHEM_ATOM_UDEF_STEREO_COUNT>  (1) 
1

>  <PUBCHEM_BOND_DEF_STEREO_COUNT>  (1) 
0

>  <PUBCHEM_BOND_UDEF_STEREO_COUNT>  (1) 
0

>  <PUBCHEM_ISOTOPIC_ATOM_COUNT>  (1) 
0

>  <PUBCHEM_COMPONENT_COUNT>  (1) 
1

>  <PUBCHEM_CACTVS_TAUTO_COUNT>  (1) 
1

>  <PUBCHEM_CONFORMER_ID>  (1) 
00005A9000000001

>  <PUBCHEM_MMFF94_ENERGY>  (1) 
98.1026

>  <PUBCHEM_FEATURE_SELFOVERLAP>  (1) 
40.702

>  <PUBCHEM_SHAPE_FINGERPRINT>  (1) 
10165383 225 16981012198395744875
11578080 2 13925085551979028717
11582403 64 14906454621270366058
11640471 11 18192982949171232569
12788726 201 17834665377080749695
13009979 54 17618748764154741258
13681431 1 17840889381481903239
14004458 79 16982343762806457271
14181834 199 17914889838483757715
14713325 29 17472465330358295644
14787075 74 15021850183245176562
15210252 30 17321296431424542453
15420108 30 17913180114950462323
16945 1 17030734304943012406
17859628 37 18113892732791079585
17980427 23 18266434612547742609
18981168 100 18267044884376607755
20511035 2 18271250511958098630
20600515 1 17553516607109822367
20691752 17 17611481735086970849
21330990 113 18121214278047017498
21524375 3 18200034070116488523
229495 10 16669335922029796455
23419403 2 17554877781514916550
23558518 356 18339355379027216807
23559900 14 18190754046587357547
23598288 3 17907851061295278330
238 59 18270978855613743237
2748010 2 17114902667394615410
35225 105 17842834688224361317
484985 159 15077015030957583169
5939293 188 18261674770665658701
6992083 37 17971727073431061560
81228 2 16908628160894493750

>  <PUBCHEM_SHAPE_MULTIPOLES>  (1) 
456.61
4.98
4.46
2.15
5.79
0.89
-0.45
-5.18
1.48
-0.13
-1.51
-1.24
0.83
-0.36

>  <PUBCHEM_SHAPE_SELFOVERLAP>  (1) 
960.299

>  <PUBCHEM_SHAPE_VOLUME>  (1) 
258.4

>  <PUBCHEM_COORDINATE_TYPE>  (1) 
2
5
10

$$$$
