23180
     RDKit          3D

 13 13  0  0  1  0  0  0  0  0999 V2000
   -0.7574    2.1862    0.3859 O   0  0  0  0  0  0  0  0  0  0  0  0
   -1.7321   -1.3613   -0.1411 N   0  0  0  0  0  0  0  0  0  0  0  0
   -0.7263    0.8904   -0.2109 C   0  0  0  0  0  0  0  0  0  0  0  0
   -1.7495   -0.0304    0.4651 C   0  0  0  0  0  0  0  0  0  0  0  0
    0.6791    0.3449   -0.0840 C   0  0  0  0  0  0  0  0  0  0  0  0
    1.6044    0.6230   -1.0755 C   0  0  0  0  0  0  0  0  0  0  0  0
    1.0101   -0.4203    1.0212 C   0  0  0  0  0  0  0  0  0  0  0  0
   -2.0870   -1.2822   -1.5576 C   0  0  0  0  0  0  0  0  0  0  0  0
   -2.6467   -2.2569    0.5658 C   0  0  0  0  0  0  0  0  0  0  0  0
    2.9002    0.1203   -0.9583 C   0  0  0  0  0  0  0  0  0  0  0  0
    2.3061   -0.9229    1.1382 C   0  0  0  0  0  0  0  0  0  0  0  0
   -2.0520    2.7616    0.3030 C   0  0  0  0  0  0  0  0  0  0  0  0
    3.2511   -0.6524    0.1484 C   0  0  0  0  0  0  0  0  0  0  0  0
  1  3  1  0
  1 12  1  0
  2  4  1  0
  2  8  1  0
  2  9  1  0
  3  4  1  0
  3  5  1  0
  5  6  2  0
  5  7  1  0
  6 10  1  0
  7 11  2  0
 10 13  2  0
 11 13  1  0
M  END
>  <PUBCHEM_COMPOUND_CID>  (1) 
23180

>  <PUBCHEM_CONFORMER_RMSD>  (1) 
0.6

>  <PUBCHEM_CONFORMER_DIVERSEORDER>  (1) 
1
4
9
8
10
7
6
5
3
2

>  <PUBCHEM_MMFF94_PARTIAL_CHARGES>  (1) 
18
1 -0.56
10 -0.15
11 -0.15
12 0.28
13 -0.15
17 0.15
18 0.15
2 -0.81
25 0.15
26 0.15
3 0.42
30 0.15
4 0.27
5 -0.14
6 -0.15
7 -0.15
8 0.27
9 0.27

>  <PUBCHEM_EFFECTIVE_ROTOR_COUNT>  (1) 
4

>  <PUBCHEM_PHARMACOPHORE_FEATURES>  (1) 
3
1 1 acceptor
1 2 cation
6 5 6 7 10 11 13 rings

>  <PUBCHEM_HEAVY_ATOM_COUNT>  (1) 
13

>  <PUBCHEM_ATOM_DEF_STEREO_COUNT>  (1) 
0

>  <PUBCHEM_ATOM_UDEF_STEREO_COUNT>  (1) 
1

>  <PUBCHEM_BOND_DEF_STEREO_COUNT>  (1) 
0

>  <PUBCHEM_BOND_UDEF_STEREO_COUNT>  (1) 
0

>  <PUBCHEM_ISOTOPIC_ATOM_COUNT>  (1) 
0

>  <PUBCHEM_COMPONENT_COUNT>  (1) 
1

>  <PUBCHEM_CACTVS_TAUTO_COUNT>  (1) 
1

>  <PUBCHEM_CONFORMER_ID>  (1) 
00005A8C00000001

>  <PUBCHEM_MMFF94_ENERGY>  (1) 
44.2014

>  <PUBCHEM_FEATURE_SELFOVERLAP>  (1) 
15.223

>  <PUBCHEM_SHAPE_FINGERPRINT>  (1) 
1 1 17330834621833399229
12138202 97 17987512598430337972
12202030 40 17060349495828465270
12500047 106 18055345847735965800
12716758 59 18056764230372882840
12932764 1 18202568363030352842
13299463 15 17240758557482977911
13538477 17 18261397719436301289
14128692 85 18041275564670249354
14817 1 13467874691530254301
15279307 12 18043536014505858122
15669948 3 18411704248929871364
15852999 172 17771341968031755564
15906896 17 18340485543936194029
16945 1 18338803320735720560
20361792 2 18128250288870785415
20645476 183 17972333823144377949
20645477 70 17404295691384304463
20711985 344 18343016679648188589
20871998 184 18273219672863743183
21524375 3 17837205974706248913
228727 97 18116452507582244748
23419403 2 14656433390785787163
23500284 5 18261111885089098979
23532345 11 18265876004832345882
23557571 272 18202845444392981680
23559900 14 17985822624354558002
23598294 1 18341061747694525632
2748010 2 18197484332764004065
276578 36 17767128600962135873
53812653 217 18263945283535353377
81228 2 18341886377447652393
81539 233 17615969907498178109
88987 49 18270397183734608004

>  <PUBCHEM_SHAPE_MULTIPOLES>  (1) 
256.68
4.63
2.36
1.22
1.87
1.09
-0.26
-1.57
-0.22
-2.78
0.39
0.12
-0.3
-0.67

>  <PUBCHEM_SHAPE_SELFOVERLAP>  (1) 
515.854

>  <PUBCHEM_SHAPE_VOLUME>  (1) 
153.1

>  <PUBCHEM_COORDINATE_TYPE>  (1) 
2
5
10

$$$$
