2318
     RDKit          3D

 25 26  0  0  1  0  0  0  0  0999 V2000
    0.0702   -3.8384    0.6074 F   0  0  0  0  0  0  0  0  0  0  0  0
    0.6210   -1.8800    1.3592 F   0  0  0  0  0  0  0  0  0  0  0  0
   -0.9478   -3.0182    2.3451 F   0  0  0  0  0  0  0  0  0  0  0  0
    1.1638    2.1956   -0.0896 O   0  0  0  0  0  0  0  0  0  0  0  0
    3.0927    2.8376    0.9903 O   0  0  0  0  0  0  0  0  0  0  0  0
   -1.6393    2.2472    0.2729 N   0  0  0  0  0  0  0  0  0  0  0  0
   -3.0096    2.2475   -0.2479 C   0  0  0  0  0  0  0  0  0  0  0  0
   -3.7402    0.9777    0.2255 C   0  0  0  0  0  0  0  0  0  0  0  0
   -3.0629   -0.3034   -0.1988 C   0  0  0  0  0  0  0  0  0  0  0  0
   -3.7008    3.5291    0.2179 C   0  0  0  0  0  0  0  0  0  0  0  0
   -0.9013    3.3948   -0.2275 C   0  0  0  0  0  0  0  0  0  0  0  0
   -2.1088   -0.8737    0.6288 C   0  0  0  0  0  0  0  0  0  0  0  0
   -3.4084   -0.8859   -1.4078 C   0  0  0  0  0  0  0  0  0  0  0  0
    0.5195    3.3968    0.3138 C   0  0  0  0  0  0  0  0  0  0  0  0
   -1.4838   -2.0576    0.2371 C   0  0  0  0  0  0  0  0  0  0  0  0
   -2.7836   -2.0697   -1.7996 C   0  0  0  0  0  0  0  0  0  0  0  0
   -1.8213   -2.6556   -0.9772 C   0  0  0  0  0  0  0  0  0  0  0  0
   -0.4554   -2.6850    1.1165 C   0  0  0  0  0  0  0  0  0  0  0  0
    2.4539    2.0427    0.3184 C   0  0  0  0  0  0  0  0  0  0  0  0
    3.0104    0.7546   -0.1669 C   0  0  0  0  0  0  0  0  0  0  0  0
    4.3131    0.4290    0.1511 C   0  0  0  0  0  0  0  0  0  0  0  0
    2.2075   -0.0771   -0.9202 C   0  0  0  0  0  0  0  0  0  0  0  0
    4.8360   -0.7812   -0.3046 C   0  0  0  0  0  0  0  0  0  0  0  0
    2.7304   -1.2875   -1.3758 C   0  0  0  0  0  0  0  0  0  0  0  0
    4.0447   -1.6394   -1.0679 C   0  0  0  0  0  0  0  0  0  0  0  0
  1 18  1  0
  2 18  1  0
  3 18  1  0
  4 14  1  0
  4 19  1  0
  5 19  2  0
  6  7  1  0
  6 11  1  0
  7  8  1  0
  7 10  1  0
  8  9  1  0
  9 12  2  0
  9 13  1  0
 11 14  1  0
 12 15  1  0
 13 16  2  0
 15 17  2  0
 15 18  1  0
 16 17  1  0
 19 20  1  0
 20 21  2  0
 20 22  1  0
 21 23  1  0
 22 24  2  0
 23 25  2  0
 24 25  1  0
M  END
>  <PUBCHEM_COMPOUND_CID>  (1) 
2318

>  <PUBCHEM_CONFORMER_RMSD>  (1) 
1

>  <PUBCHEM_CONFORMER_DIVERSEORDER>  (1) 
5
29
217
294
7
196
176
236
170
189
38
163
165
232
264
72
332
82
156
126
135
75
207
408
40
39
446
372
218
21
325
448
416
376
119
387
105
55
227
91
74
330
66
214
100
386
151
160
120
179
331
289
194
133
253
247
371
182
255
382
336
276
430
63
230
175
429
373
244
377
257
19
324
8
292
410
209
210
246
438
447
313
414
25
370
254
273
124
310
110
159
157
164
106
441
356
389
152
251
26
318
93
277
335
321
193
353
50
153
13
354
198
327
283
178
242
375
391
260
85
203
223
215
183
107
269
31
328
282
149
219
121
12
123
439
369
142
240
118
404
388
306
92
167
1
280
155
158
425
437
16
392
427
140
281
293
132
122
444
101
139
384
350
278
71
211
322
53
405
367
166
130
366
36
88
252
186
275
383
221
195
34
357
287
67
148
141
109
202
226
412
398
329
187
326
421
95
81
103
443
397
298
344
83
307
337
343
190
341
345
270
154
206
44
316
258
45
65
200
434
229
365
359
317
312
302
285
15
440
185
295
423
79
402
6
432
314
265
323
433
346
288
399
311
420
197
243
415
268
69
409
267
417
56
125
33
168
49
422
137
4
250
169
231
171
300
47
20
406
145
445
201
338
27
411
266
192
14
220
436
419
245
134
52
43
249
431
234
368
238
272
68
274
24
308
41
319
225
177
358
89
347
291
333
355
199
3
213
339
97
248
42
237
271
297
403
262
380
235
290
233
396
320
364
174
239
94
48
115
379
299
181
146
360
114
32
144
9
351
138
428
241
418
61
315
98
363
87
147
401
11
30
80
390
256
393
188
78
23
259
150
349
77
51
305
57
161
304
58
86
191
413
18
128
162
116
340
303
301
442
449
117
111
60
54
35
127
309
381
17
172
96
10
76
395
216
84
136
104
143
46
131
342
28
407
108
205
374
129
334
173
113
64
70
348
2
222
228
184
435
424
73
204
352
112
362
22
59
385
284
62
296
37
378
361
279
180
224
261
99
400
263
102
208
212
286
394
426
90

>  <PUBCHEM_MMFF94_PARTIAL_CHARGES>  (1) 
34
1 -0.34
11 0.27
12 -0.15
13 -0.15
14 0.28
15 -0.14
16 -0.15
17 -0.15
18 1.16
19 0.63
2 -0.34
20 0.09
21 -0.15
22 -0.15
23 -0.15
24 -0.15
25 -0.15
29 0.36
3 -0.34
35 0.15
36 0.15
39 0.15
4 -0.43
40 0.15
41 0.15
42 0.15
43 0.15
44 0.15
45 0.15
5 -0.57
6 -0.9
7 0.27
8 0.14
9 -0.14

>  <PUBCHEM_EFFECTIVE_ROTOR_COUNT>  (1) 
9

>  <PUBCHEM_PHARMACOPHORE_FEATURES>  (1) 
5
1 5 acceptor
1 6 cation
1 6 donor
6 20 21 22 23 24 25 rings
6 9 12 13 15 16 17 rings

>  <PUBCHEM_HEAVY_ATOM_COUNT>  (1) 
25

>  <PUBCHEM_ATOM_DEF_STEREO_COUNT>  (1) 
0

>  <PUBCHEM_ATOM_UDEF_STEREO_COUNT>  (1) 
1

>  <PUBCHEM_BOND_DEF_STEREO_COUNT>  (1) 
0

>  <PUBCHEM_BOND_UDEF_STEREO_COUNT>  (1) 
0

>  <PUBCHEM_ISOTOPIC_ATOM_COUNT>  (1) 
0

>  <PUBCHEM_COMPONENT_COUNT>  (1) 
1

>  <PUBCHEM_CACTVS_TAUTO_COUNT>  (1) 
1

>  <PUBCHEM_CONFORMER_ID>  (1) 
0000090E00000005

>  <PUBCHEM_MMFF94_ENERGY>  (1) 
50.7319

>  <PUBCHEM_FEATURE_SELFOVERLAP>  (1) 
25.372

>  <PUBCHEM_SHAPE_FINGERPRINT>  (1) 
10693767 8 17770476932498381575
10764073 3 17977709456496062803
1100329 8 16392404659909244305
11578080 2 16485822852944549338
12156800 1 16409228566909884541
12539773 59 16266316527832856615
12553582 1 17977675534374885509
13122387 1 17690282607946679276
13402501 40 18270967812873394004
1361 2 15747247143031682231
14114211 68 17540575359534680135
14251751 93 18340205194124792349
14251757 17 17771636654549609910
14251757 5 18263950807448696518
14765038 42 18056780744659890696
14931854 50 18337670806552869165
15322534 239 18192159196198479046
17859628 97 18265337214081013761
19930381 70 17404294595697684351
20600515 1 17317017441517458268
21141583 151 18270122305774955424
23558518 356 18337672026413731997
23559900 14 18271798086034439744
3298306 158 18046908169619279221
445580 42 18113903792516256354
5309563 4 17257940819043038855
57091435 65 17759808035343058139
57527585 103 17753332268464753243
58250162 1 18122329195311092552
7226269 152 18334289847769931210
9709674 26 18268710683047375156

>  <PUBCHEM_SHAPE_MULTIPOLES>  (1) 
475.95
8.08
5.2
1.36
5.34
1.49
0.19
1.54
-1.88
-2.6
1.11
-0.29
-1.39
0.23

>  <PUBCHEM_SHAPE_SELFOVERLAP>  (1) 
1001.846

>  <PUBCHEM_SHAPE_VOLUME>  (1) 
268.7

>  <PUBCHEM_COORDINATE_TYPE>  (1) 
2
5
10

$$$$
