23193
     RDKit          3D

 29 30  0  0  1  0  0  0  0  0999 V2000
   -1.0648   -0.6769    1.3324 O   0  0  0  0  0  0  0  0  0  0  0  0
   -2.9875    1.7896    1.1502 O   0  0  0  0  0  0  0  0  0  0  0  0
   -0.7925    0.5128   -1.4083 O   0  0  0  0  0  0  0  0  0  0  0  0
   -2.6186   -2.9013    0.7010 O   0  0  0  0  0  0  0  0  0  0  0  0
    1.8544    2.1491    1.5020 O   0  0  0  0  0  0  0  0  0  0  0  0
   -3.9174    3.0542   -0.5449 O   0  0  0  0  0  0  0  0  0  0  0  0
   -1.3026    2.4556   -2.5496 O   0  0  0  0  0  0  0  0  0  0  0  0
   -3.2033   -4.1287   -1.1668 O   0  0  0  0  0  0  0  0  0  0  0  0
    5.9924    1.0538    0.5343 O   0  0  0  0  0  0  0  0  0  0  0  0
    1.0221    0.1588    0.6690 N   0  0  0  0  0  0  0  0  0  0  0  0
    3.3821    0.6942    0.6567 N   0  0  0  0  0  0  0  0  0  0  0  0
    4.8645   -0.8423   -0.2217 N   0  0  0  0  0  0  0  0  0  0  0  0
   -2.5268    0.8348    0.1969 C   0  0  0  0  0  0  0  0  0  0  0  0
   -1.0917    1.1485   -0.1710 C   0  0  0  0  0  0  0  0  0  0  0  0
   -2.4287   -0.5268    0.8873 C   0  0  0  0  0  0  0  0  0  0  0  0
   -0.3331    0.5041    0.9788 C   0  0  0  0  0  0  0  0  0  0  0  0
   -2.7498   -1.6960   -0.0329 C   0  0  0  0  0  0  0  0  0  0  0  0
    1.3180   -1.0625    0.0690 C   0  0  0  0  0  0  0  0  0  0  0  0
    2.0824    1.0608    0.9710 C   0  0  0  0  0  0  0  0  0  0  0  0
   -3.6717    2.8544    0.6370 C   0  0  0  0  0  0  0  0  0  0  0  0
   -0.9413    1.2867   -2.5254 C   0  0  0  0  0  0  0  0  0  0  0  0
    2.5581   -1.4402   -0.2431 C   0  0  0  0  0  0  0  0  0  0  0  0
    3.5917   -0.4526    0.1010 C   0  0  0  0  0  0  0  0  0  0  0  0
   -2.8759   -4.0553    0.0098 C   0  0  0  0  0  0  0  0  0  0  0  0
   -4.0920    3.7686    1.7477 C   0  0  0  0  0  0  0  0  0  0  0  0
   -0.5930    0.4906   -3.7464 C   0  0  0  0  0  0  0  0  0  0  0  0
   -2.6982   -5.2424    0.9072 C   0  0  0  0  0  0  0  0  0  0  0  0
    5.9814   -0.0604    0.0176 C   0  0  0  0  0  0  0  0  0  0  0  0
    7.2419   -0.7311   -0.4588 C   0  0  0  0  0  0  0  0  0  0  0  0
  1 15  1  0
  1 16  1  0
  2 13  1  0
  2 20  1  0
  3 14  1  0
  3 21  1  0
  4 17  1  0
  4 24  1  0
  5 19  2  0
  6 20  2  0
  7 21  2  0
  8 24  2  0
  9 28  2  0
 10 16  1  0
 10 18  1  0
 10 19  1  0
 11 19  1  0
 11 23  2  0
 12 23  1  0
 12 28  1  0
 13 14  1  0
 13 15  1  0
 14 16  1  0
 15 17  1  0
 18 22  2  0
 20 25  1  0
 21 26  1  0
 22 23  1  0
 24 27  1  0
 28 29  1  0
M  END
>  <PUBCHEM_COMPOUND_CID>  (1) 
23193

>  <PUBCHEM_CONFORMER_RMSD>  (1) 
1

>  <PUBCHEM_CONFORMER_DIVERSEORDER>  (1) 
1
10
5
19
16
21
20
12
4
13
3
17
22
18
11
14
7
9
6
15
8
2

>  <PUBCHEM_MMFF94_PARTIAL_CHARGES>  (1) 
32
1 -0.56
10 -0.47
11 -0.66
12 -0.49
13 0.28
14 0.28
15 0.28
16 0.58
17 0.28
18 -0.04
19 0.84
2 -0.43
20 0.66
21 0.66
22 -0.14
23 0.5
24 0.66
25 0.06
26 0.06
27 0.06
28 0.57
29 0.06
3 -0.43
36 0.15
37 0.15
4 -0.43
44 0.37
5 -0.57
6 -0.57
7 -0.57
8 -0.57
9 -0.57

>  <PUBCHEM_EFFECTIVE_ROTOR_COUNT>  (1) 
11

>  <PUBCHEM_PHARMACOPHORE_FEATURES>  (1) 
10
1 1 acceptor
1 11 donor
1 12 donor
1 5 acceptor
1 6 acceptor
1 7 acceptor
1 8 acceptor
1 9 acceptor
5 1 13 14 15 16 rings
6 10 11 18 19 22 23 rings

>  <PUBCHEM_HEAVY_ATOM_COUNT>  (1) 
29

>  <PUBCHEM_ATOM_DEF_STEREO_COUNT>  (1) 
4

>  <PUBCHEM_ATOM_UDEF_STEREO_COUNT>  (1) 
0

>  <PUBCHEM_BOND_DEF_STEREO_COUNT>  (1) 
0

>  <PUBCHEM_BOND_UDEF_STEREO_COUNT>  (1) 
0

>  <PUBCHEM_ISOTOPIC_ATOM_COUNT>  (1) 
0

>  <PUBCHEM_COMPONENT_COUNT>  (1) 
1

>  <PUBCHEM_CACTVS_TAUTO_COUNT>  (1) 
4

>  <PUBCHEM_CONFORMER_ID>  (1) 
00005A9900000001

>  <PUBCHEM_MMFF94_ENERGY>  (1) 
65.0425

>  <PUBCHEM_FEATURE_SELFOVERLAP>  (1) 
50.799

>  <PUBCHEM_SHAPE_FINGERPRINT>  (1) 
10165383 225 18190183386297864457
10675989 125 17479465538382027072
107951 10 18129666270937033773
11477941 20 17386008403811212478
11763715 3 17833292065524882961
12788726 201 18340755014717300083
13009979 54 18045231684858882627
13583140 156 17775282789794572856
14790565 3 17909276775600035056
14863182 85 17183911804893395347
15849732 13 18040156223848264015
17980427 26 17622160170799655205
21716022 299 17320154425617056703
23402539 116 16950565489125735298
23419403 2 16605701695905551445
23559900 14 18198614621932232001
4058900 60 17982462485589200104
497634 4 18408886274074842348
5080951 261 18115846599582434026
59755656 520 18339359639365196784
77188 2 17836928168037388539

>  <PUBCHEM_SHAPE_MULTIPOLES>  (1) 
529.04
11.06
5.07
2.13
24.25
6.48
2.73
-1.03
-2.03
-11.12
-1.21
-1.48
-1.45
-0.09

>  <PUBCHEM_SHAPE_SELFOVERLAP>  (1) 
1099.955

>  <PUBCHEM_SHAPE_VOLUME>  (1) 
298

>  <PUBCHEM_COORDINATE_TYPE>  (1) 
2
5
10

$$$$
