23197
     RDKit          3D

 12 12  0  0  1  0  0  0  0  0999 V2000
   -0.6401    0.7871   -0.8281 O   0  0  0  0  0  0  0  0  0  0  0  0
   -2.6098   -1.8827    0.5258 O   0  0  0  0  0  0  0  0  0  0  0  0
    0.3259    0.1999    0.0701 C   0  0  0  0  0  0  0  0  0  0  0  0
   -0.3251   -1.0636    0.6323 C   0  0  0  0  0  0  0  0  0  0  0  0
   -1.7978   -0.7274    0.5690 C   0  0  0  0  0  0  0  0  0  0  0  0
   -1.8708    0.0514   -0.7327 C   0  0  0  0  0  0  0  0  0  0  0  0
    1.5943   -0.1151   -0.7168 C   0  0  0  0  0  0  0  0  0  0  0  0
    0.6221    1.2273    1.1651 C   0  0  0  0  0  0  0  0  0  0  0  0
    2.6180   -0.8416    0.1497 C   0  0  0  0  0  0  0  0  0  0  0  0
   -3.0456    1.0107   -0.7941 C   0  0  0  0  0  0  0  0  0  0  0  0
    1.2367    2.4857    0.5866 C   0  0  0  0  0  0  0  0  0  0  0  0
    3.8923   -1.1316   -0.6270 C   0  0  0  0  0  0  0  0  0  0  0  0
  1  3  1  0
  1  6  1  0
  2  5  1  0
  3  4  1  0
  3  7  1  0
  3  8  1  0
  4  5  1  0
  5  6  1  0
  6 10  1  0
  7  9  1  0
  8 11  1  0
  9 12  1  0
M  END
>  <PUBCHEM_COMPOUND_CID>  (1) 
23197

>  <PUBCHEM_CONFORMER_RMSD>  (1) 
0.6

>  <PUBCHEM_CONFORMER_DIVERSEORDER>  (1) 
6
37
30
43
39
17
12
25
32
14
35
4
42
16
29
33
41
27
36
5
23
38
10
1
9
22
11
34
31
40
7
24
2
19
26
20
15
3
18
21
28
13
8

>  <PUBCHEM_MMFF94_PARTIAL_CHARGES>  (1) 
6
1 -0.56
2 -0.68
29 0.4
3 0.28
5 0.28
6 0.28

>  <PUBCHEM_EFFECTIVE_ROTOR_COUNT>  (1) 
4

>  <PUBCHEM_PHARMACOPHORE_FEATURES>  (1) 
6
1 1 acceptor
1 11 hydrophobe
1 12 hydrophobe
1 2 acceptor
1 2 donor
5 1 3 4 5 6 rings

>  <PUBCHEM_HEAVY_ATOM_COUNT>  (1) 
12

>  <PUBCHEM_ATOM_DEF_STEREO_COUNT>  (1) 
0

>  <PUBCHEM_ATOM_UDEF_STEREO_COUNT>  (1) 
3

>  <PUBCHEM_BOND_DEF_STEREO_COUNT>  (1) 
0

>  <PUBCHEM_BOND_UDEF_STEREO_COUNT>  (1) 
0

>  <PUBCHEM_ISOTOPIC_ATOM_COUNT>  (1) 
0

>  <PUBCHEM_COMPONENT_COUNT>  (1) 
1

>  <PUBCHEM_CACTVS_TAUTO_COUNT>  (1) 
1

>  <PUBCHEM_CONFORMER_ID>  (1) 
00005A9D00000006

>  <PUBCHEM_MMFF94_ENERGY>  (1) 
27.1405

>  <PUBCHEM_FEATURE_SELFOVERLAP>  (1) 
30.446

>  <PUBCHEM_SHAPE_FINGERPRINT>  (1) 
1 1 17767684219654354472
10130415 120 18339359660913827936
10219947 1 17418369182220131582
10465860 250 18337943507491668170
12423570 1 9284517785483122288
12716758 59 18187078460039378603
12932764 1 18127980908368713551
13024252 1 13046531742440169236
13839132 238 18117261752372237237
14128692 85 18187094974384018526
14648413 74 18338788026405087537
15219456 202 18338510970960020640
161256 15 18191588772642720931
16945 1 18115017494304423669
17841504 4 18272094958104097752
18380122 1 17831292066663609697
187816 3 18266739082668202998
19973954 147 18338509867406763033
20201158 50 18340205185461394662
20653085 51 16660946399501734748
20711985 327 16845854581491339904
20711985 344 17913208650971685592
21040471 1 17895737522943955237
21061003 4 18131079220593412458
21501502 16 18338238292134250421
22802520 49 18409163350614846445
23552423 10 17676489492184563766
23559900 14 18336823092701388394
2748010 2 18189323735987671301
29004967 10 17989209239461399374
3250762 1 18194115445999707121
3312278 4 18336271132983799490
369184 2 13758072956992947422
4663303 62 18128811018405190440
5084963 1 18187369886603111091
528886 8 17240483567880296078
5493415 88 18411981386174242346
81228 2 17913782608952842224

>  <PUBCHEM_SHAPE_MULTIPOLES>  (1) 
235.22
4.78
1.94
1.06
1.85
0.91
0.02
-1.9
-1.31
0.19
0.54
-0.15
0.11
0.87

>  <PUBCHEM_SHAPE_SELFOVERLAP>  (1) 
459.175

>  <PUBCHEM_SHAPE_VOLUME>  (1) 
144.7

>  <PUBCHEM_COORDINATE_TYPE>  (1) 
2
5
10

$$$$
