23195
     RDKit          3D

 11 11  0  0  1  0  0  0  0  0999 V2000
   -0.1870    0.8531   -0.7533 O   0  0  0  0  0  0  0  0  0  0  0  0
   -2.6154   -1.4806    0.4705 O   0  0  0  0  0  0  0  0  0  0  0  0
    0.6823   -0.0600   -0.0498 C   0  0  0  0  0  0  0  0  0  0  0  0
   -0.2011   -1.2151    0.4215 C   0  0  0  0  0  0  0  0  0  0  0  0
   -1.5533   -0.5540    0.5646 C   0  0  0  0  0  0  0  0  0  0  0  0
   -1.5442    0.4022   -0.6155 C   0  0  0  0  0  0  0  0  0  0  0  0
    1.3010    0.7032    1.1237 C   0  0  0  0  0  0  0  0  0  0  0  0
    1.7720   -0.5311   -1.0082 C   0  0  0  0  0  0  0  0  0  0  0  0
   -2.4631    1.5960   -0.4289 C   0  0  0  0  0  0  0  0  0  0  0  0
    2.1466    1.8637    0.6400 C   0  0  0  0  0  0  0  0  0  0  0  0
    2.6622   -1.5773   -0.3646 C   0  0  0  0  0  0  0  0  0  0  0  0
  1  3  1  0
  1  6  1  0
  2  5  1  0
  3  4  1  0
  3  7  1  0
  3  8  1  0
  4  5  1  0
  5  6  1  0
  6  9  1  0
  7 10  1  0
  8 11  1  0
M  END
>  <PUBCHEM_COMPOUND_CID>  (1) 
23195

>  <PUBCHEM_CONFORMER_RMSD>  (1) 
0.6

>  <PUBCHEM_CONFORMER_DIVERSEORDER>  (1) 
3
11
16
7
8
13
1
2
14
15
10
9
12
4
5
6

>  <PUBCHEM_MMFF94_PARTIAL_CHARGES>  (1) 
6
1 -0.56
2 -0.68
29 0.4
3 0.28
5 0.28
6 0.28

>  <PUBCHEM_EFFECTIVE_ROTOR_COUNT>  (1) 
3

>  <PUBCHEM_PHARMACOPHORE_FEATURES>  (1) 
6
1 1 acceptor
1 10 hydrophobe
1 11 hydrophobe
1 2 acceptor
1 2 donor
5 1 3 4 5 6 rings

>  <PUBCHEM_HEAVY_ATOM_COUNT>  (1) 
11

>  <PUBCHEM_ATOM_DEF_STEREO_COUNT>  (1) 
0

>  <PUBCHEM_ATOM_UDEF_STEREO_COUNT>  (1) 
2

>  <PUBCHEM_BOND_DEF_STEREO_COUNT>  (1) 
0

>  <PUBCHEM_BOND_UDEF_STEREO_COUNT>  (1) 
0

>  <PUBCHEM_ISOTOPIC_ATOM_COUNT>  (1) 
0

>  <PUBCHEM_COMPONENT_COUNT>  (1) 
1

>  <PUBCHEM_CACTVS_TAUTO_COUNT>  (1) 
1

>  <PUBCHEM_CONFORMER_ID>  (1) 
00005A9B00000003

>  <PUBCHEM_MMFF94_ENERGY>  (1) 
27.2442

>  <PUBCHEM_FEATURE_SELFOVERLAP>  (1) 
30.446

>  <PUBCHEM_SHAPE_FINGERPRINT>  (1) 
12423570 1 18049440640865019235
12716758 59 18260830345587352883
12932741 1 18410569574373103565
12932764 1 18200885057556273167
13839132 238 18335975441306629948
14648413 74 18412539894947084112
15219456 202 18412823611996670736
161256 15 18338525247336327914
16945 1 18194408779391632526
18380122 1 18194680599329334721
19973954 147 18412542119634622417
20645464 45 18335688447286206192
20653085 51 18059287648435198793
21040471 1 17969776380905433837
21061003 4 17916876703371865702
21501502 16 18411982476774013140
21922407 69 15068621586760946977
21930827 45 18260546676035341225
22802520 49 18411421674341293125
23211744 41 18195514016337473408
23552423 10 17822019695975331478
23559900 14 18194119613168426462
2748010 2 18335136509760664189
29004967 10 17703231702616377870
5084963 1 18334588944311635659
528886 8 17459483147218376326
5337951 7 18271243794375780237
81228 2 18113902714753602369

>  <PUBCHEM_SHAPE_MULTIPOLES>  (1) 
214.64
3.75
1.87
1.02
0.47
0.32
-0.01
-0.18
0.24
-0.34
-0.23
-0.16
0.07
0.94

>  <PUBCHEM_SHAPE_SELFOVERLAP>  (1) 
421.205

>  <PUBCHEM_SHAPE_VOLUME>  (1) 
131.8

>  <PUBCHEM_COORDINATE_TYPE>  (1) 
2
5
10

$$$$
