23206
     RDKit          3D

 15 15  0  0  0  0  0  0  0  0999 V2000
    2.0245    1.8688    0.0611 O   0  0  0  0  0  0  0  0  0  0  0  0
   -0.4241    1.4455    0.9877 O   0  0  0  0  0  0  0  0  0  0  0  0
   -3.1669    1.0890    0.5758 O   0  0  0  0  0  0  0  0  0  0  0  0
   -1.4534   -0.3617   -0.0596 N   0  0  0  0  0  0  0  0  0  0  0  0
   -3.6454   -0.8982   -0.5266 N   0  0  0  0  0  0  0  0  0  0  0  0
    0.9665   -0.2776    0.2206 C   0  0  0  0  0  0  0  0  0  0  0  0
    2.0897    0.5074    0.0541 C   0  0  0  0  0  0  0  0  0  0  0  0
    1.0286   -1.6573    0.2126 C   0  0  0  0  0  0  0  0  0  0  0  0
   -0.3600    0.3613    0.4145 C   0  0  0  0  0  0  0  0  0  0  0  0
    3.3262   -0.1122   -0.1277 C   0  0  0  0  0  0  0  0  0  0  0  0
    2.2651   -2.2768    0.0306 C   0  0  0  0  0  0  0  0  0  0  0  0
    3.4138   -1.5042   -0.1395 C   0  0  0  0  0  0  0  0  0  0  0  0
   -2.7928    0.0429    0.0480 C   0  0  0  0  0  0  0  0  0  0  0  0
    1.8090    2.5130   -1.1926 C   0  0  0  0  0  0  0  0  0  0  0  0
   -5.0807   -0.7400   -0.5590 C   0  0  0  0  0  0  0  0  0  0  0  0
  1  7  1  0
  1 14  1  0
  2  9  2  0
  3 13  2  0
  4  9  1  0
  4 13  1  0
  5 13  1  0
  5 15  1  0
  6  7  2  0
  6  8  1  0
  6  9  1  0
  7 10  1  0
  8 11  2  0
 10 12  2  0
 11 12  1  0
M  END
>  <PUBCHEM_COMPOUND_CID>  (1) 
23206

>  <PUBCHEM_CONFORMER_RMSD>  (1) 
0.6

>  <PUBCHEM_CONFORMER_DIVERSEORDER>  (1) 
1
8
12
13
3
7
18
14
2
17
11
6
4
16
9
10
5
15

>  <PUBCHEM_MMFF94_PARTIAL_CHARGES>  (1) 
21
1 -0.36
10 -0.15
11 -0.15
12 -0.15
13 0.69
14 0.28
15 0.3
16 0.15
17 0.15
18 0.15
19 0.15
2 -0.57
20 0.37
21 0.37
3 -0.57
4 -0.49
5 -0.73
6 0.09
7 0.08
8 -0.15
9 0.54

>  <PUBCHEM_EFFECTIVE_ROTOR_COUNT>  (1) 
5

>  <PUBCHEM_PHARMACOPHORE_FEATURES>  (1) 
6
1 1 acceptor
1 2 acceptor
1 3 acceptor
1 4 donor
1 5 donor
6 6 7 8 10 11 12 rings

>  <PUBCHEM_HEAVY_ATOM_COUNT>  (1) 
15

>  <PUBCHEM_ATOM_DEF_STEREO_COUNT>  (1) 
0

>  <PUBCHEM_ATOM_UDEF_STEREO_COUNT>  (1) 
0

>  <PUBCHEM_BOND_DEF_STEREO_COUNT>  (1) 
0

>  <PUBCHEM_BOND_UDEF_STEREO_COUNT>  (1) 
0

>  <PUBCHEM_ISOTOPIC_ATOM_COUNT>  (1) 
0

>  <PUBCHEM_COMPONENT_COUNT>  (1) 
1

>  <PUBCHEM_CACTVS_TAUTO_COUNT>  (1) 
5

>  <PUBCHEM_CONFORMER_ID>  (1) 
00005AA600000001

>  <PUBCHEM_MMFF94_ENERGY>  (1) 
47.3965

>  <PUBCHEM_FEATURE_SELFOVERLAP>  (1) 
30.509

>  <PUBCHEM_SHAPE_FINGERPRINT>  (1) 
11471102 20 18408321094553391718
11769659 78 18270114608850585282
11806522 49 18342455920275924314
13836976 161 18411699932308573087
14251717 144 18409165523704702966
14576447 43 18413106139246053014
15442244 35 18268432321874351577
15477762 27 18410292493264156550
15757776 16 18335138631743897498
16945 1 18336561464224954378
17134986 127 17754750643007607972
18186145 218 17894629245219271971
18915474 69 18130498743052705239
19422 9 18272937115776839387
200 152 18272364274666800567
20559304 39 18272930539738927576
20606313 2 18333731321168419358
20645477 70 18411133654288376951
20671657 53 18336545997620680846
20708731 107 18408606989209692636
21267235 1 18343027670206307199
21501925 9 18342448231825619674
21634736 98 18412825819367599198
221490 88 18335709402458452387
2255824 54 18408044026366140046
23402539 116 18266734689096435746
23402655 69 18410852136240186837
23463225 33 18272370841307883799
23598291 2 18341627970592575917
2748010 2 17976838784809209306
3060560 45 18408321107707546694
312423 11 18270697419302274649
5281201 14 18186795877446474253
58051976 378 18338801237644907622
6992083 37 17909564864683625144
7364860 26 18342455976015618624
84936 182 18200036282083448056

>  <PUBCHEM_SHAPE_MULTIPOLES>  (1) 
281.12
7.39
2.27
0.82
9.9
0.61
0.05
-2.33
1.45
-2.09
0.4
0.09
0.28
-0.68

>  <PUBCHEM_SHAPE_SELFOVERLAP>  (1) 
581.25

>  <PUBCHEM_SHAPE_VOLUME>  (1) 
160.6

>  <PUBCHEM_COORDINATE_TYPE>  (1) 
2
5
10

$$$$
