23207
     RDKit          3D

 22 22  0  0  0  0  0  0  0  0999 V2000
    1.0759   -0.7889    0.6875 O   0  0  0  0  0  0  0  0  0  0  0  0
    0.7332    2.8080   -0.9781 O   0  0  0  0  0  0  0  0  0  0  0  0
   -1.9465    0.3875   -0.7442 O   0  0  0  0  0  0  0  0  0  0  0  0
   -1.1372   -1.9703    1.3716 O   0  0  0  0  0  0  0  0  0  0  0  0
   -0.0855    1.5244    0.7725 N   0  0  0  0  0  0  0  0  0  0  0  0
   -3.6542    1.8358   -0.1373 N   0  0  0  0  0  0  0  0  0  0  0  0
   -1.0709   -3.6440   -0.2364 N   0  0  0  0  0  0  0  0  0  0  0  0
    2.1805    1.1969   -0.0795 C   0  0  0  0  0  0  0  0  0  0  0  0
    2.2088   -0.1209    0.3297 C   0  0  0  0  0  0  0  0  0  0  0  0
   -1.3925    2.1147    0.8230 C   0  0  0  0  0  0  0  0  0  0  0  0
    0.8870    1.9251   -0.1383 C   0  0  0  0  0  0  0  0  0  0  0  0
    0.7462   -1.9541   -0.0655 C   0  0  0  0  0  0  0  0  0  0  0  0
    3.3262    1.8776   -0.4413 C   0  0  0  0  0  0  0  0  0  0  0  0
   -2.3396    1.3583   -0.0918 C   0  0  0  0  0  0  0  0  0  0  0  0
    3.4336   -0.7866    0.3790 C   0  0  0  0  0  0  0  0  0  0  0  0
   -0.5690   -2.5223    0.4244 C   0  0  0  0  0  0  0  0  0  0  0  0
    4.5510    1.2119   -0.3918 C   0  0  0  0  0  0  0  0  0  0  0  0
    4.6048   -0.1200    0.0184 C   0  0  0  0  0  0  0  0  0  0  0  0
   -4.0946    2.9852    0.6434 C   0  0  0  0  0  0  0  0  0  0  0  0
   -4.6827    1.2177   -0.9706 C   0  0  0  0  0  0  0  0  0  0  0  0
   -2.3384   -4.2214    0.1937 C   0  0  0  0  0  0  0  0  0  0  0  0
   -0.4362   -4.3147   -1.3682 C   0  0  0  0  0  0  0  0  0  0  0  0
  1  9  1  0
  1 12  1  0
  2 11  2  0
  3 14  2  0
  4 16  2  0
  5 10  1  0
  5 11  1  0
  6 14  1  0
  6 19  1  0
  6 20  1  0
  7 16  1  0
  7 21  1  0
  7 22  1  0
  8  9  2  0
  8 11  1  0
  8 13  1  0
  9 15  1  0
 10 14  1  0
 12 16  1  0
 13 17  2  0
 15 18  2  0
 17 18  1  0
M  END
>  <PUBCHEM_COMPOUND_CID>  (1) 
23207

>  <PUBCHEM_CONFORMER_RMSD>  (1) 
0.8

>  <PUBCHEM_CONFORMER_DIVERSEORDER>  (1) 
1
154
114
147
61
163
129
100
32
80
183
39
27
115
175
158
26
118
157
148
190
155
199
93
143
103
142
63
51
67
55
22
62
83
152
16
135
37
205
121
87
20
29
88
166
126
125
58
207
8
46
156
112
10
56
76
85
71
185
84
164
41
109
13
77
179
178
18
73
92
184
12
168
6
197
122
113
89
153
176
186
17
69
106
53
57
180
150
66
48
194
132
127
202
161
99
104
111
44
42
70
167
162
81
68
177
7
128
117
45
65
64
24
59
123
201
40
25
189
134
195
160
196
54
95
90
2
203
107
141
172
144
133
75
119
146
131
36
14
49
30
4
173
191
159
200
28
105
169
11
34
174
165
15
192
140
137
52
170
23
97
72
108
110
82
31
138
101
181
171
33
60
130
149
124
21
193
206
145
139
74
151
78
198
136
86
116
96
204
94
43
50
98
102
187
91
188
120
47
9
3
19
5
79
38
182
35

>  <PUBCHEM_MMFF94_PARTIAL_CHARGES>  (1) 
27
1 -0.36
10 0.36
11 0.54
12 0.34
13 -0.15
14 0.57
15 -0.15
16 0.57
17 -0.15
18 -0.15
19 0.3
2 -0.57
20 0.3
21 0.3
22 0.3
25 0.37
28 0.15
29 0.15
3 -0.57
30 0.15
31 0.15
4 -0.57
5 -0.73
6 -0.66
7 -0.66
8 0.09
9 0.08

>  <PUBCHEM_EFFECTIVE_ROTOR_COUNT>  (1) 
9

>  <PUBCHEM_PHARMACOPHORE_FEATURES>  (1) 
6
1 1 acceptor
1 2 acceptor
1 3 acceptor
1 4 acceptor
1 5 donor
6 8 9 13 15 17 18 rings

>  <PUBCHEM_HEAVY_ATOM_COUNT>  (1) 
22

>  <PUBCHEM_ATOM_DEF_STEREO_COUNT>  (1) 
0

>  <PUBCHEM_ATOM_UDEF_STEREO_COUNT>  (1) 
0

>  <PUBCHEM_BOND_DEF_STEREO_COUNT>  (1) 
0

>  <PUBCHEM_BOND_UDEF_STEREO_COUNT>  (1) 
0

>  <PUBCHEM_ISOTOPIC_ATOM_COUNT>  (1) 
0

>  <PUBCHEM_COMPONENT_COUNT>  (1) 
1

>  <PUBCHEM_CACTVS_TAUTO_COUNT>  (1) 
2

>  <PUBCHEM_CONFORMER_ID>  (1) 
00005AA700000001

>  <PUBCHEM_MMFF94_ENERGY>  (1) 
66.7494

>  <PUBCHEM_FEATURE_SELFOVERLAP>  (1) 
30.46

>  <PUBCHEM_SHAPE_FINGERPRINT>  (1) 
10064457 181 18410575089006025781
104564 63 18120377815559146350
10688039 33 17754460384769951083
108634 29 18341334495271616214
11578080 2 17414433102138295544
116883 192 18050851314616025054
12293681 25 17702130056648215518
12788726 201 18047182231366191370
13052359 8 18410007762586145618
13140716 1 18335691776640085432
13836976 161 18261394403626856877
138480 1 17257935892768044571
14178342 30 18192977443492716352
14790565 3 18338522928117986676
15210252 30 16816291196316984797
17138139 8 17913455130860668223
20028762 73 18055904403606157974
20645477 70 18045497517759957985
20775438 99 16618658336300573095
21307412 95 17913516579216923734
21344244 181 18059587849005305071
21421861 104 17690849960468757569
21641784 216 17537168312709275196
23419403 2 17057522831774685096
23558518 356 17972316489078851760
25147074 1 17968651744447054400
3060560 45 18263642862177252420
38695281 34 18265893562579698921
6287921 2 17623563155984006187
7164475 11 18048883188944626924
8272917 22 18050008792504468465

>  <PUBCHEM_SHAPE_MULTIPOLES>  (1) 
414.33
7.72
5.43
0.98
0.85
7.03
0.05
-5.89
0.9
-5.13
0.71
-0.36
0.21
-0.44

>  <PUBCHEM_SHAPE_SELFOVERLAP>  (1) 
843.46

>  <PUBCHEM_SHAPE_VOLUME>  (1) 
241.7

>  <PUBCHEM_COORDINATE_TYPE>  (1) 
2
5
10

$$$$
