23205
     RDKit          3D

 19 21  0  0  1  0  0  0  0  0999 V2000
    2.8272    1.0166   -0.6414 O   0  0  0  0  0  0  0  0  0  0  0  0
   -0.7975   -1.2518   -1.9998 O   0  0  0  0  0  0  0  0  0  0  0  0
   -2.9287   -2.2910    0.0281 O   0  0  0  0  0  0  0  0  0  0  0  0
    4.4797   -0.1555    0.4599 O   0  0  0  0  0  0  0  0  0  0  0  0
   -1.2555   -0.5141    0.2705 C   0  0  0  0  0  0  0  0  0  0  0  0
   -1.5391    0.9532   -0.1455 C   0  0  0  0  0  0  0  0  0  0  0  0
   -0.2489   -1.2054   -0.6680 C   0  0  0  0  0  0  0  0  0  0  0  0
   -0.6632    2.0231    0.5248 C   0  0  0  0  0  0  0  0  0  0  0  0
    1.1669   -0.6065   -0.7809 C   0  0  0  0  0  0  0  0  0  0  0  0
    1.3761    0.9118   -0.7218 C   0  0  0  0  0  0  0  0  0  0  0  0
    0.8445    1.7092    0.4823 C   0  0  0  0  0  0  0  0  0  0  0  0
   -2.6567   -1.1029    0.1214 C   0  0  0  0  0  0  0  0  0  0  0  0
   -0.9165   -0.7372    1.7572 C   0  0  0  0  0  0  0  0  0  0  0  0
   -3.0239    1.0978    0.0817 C   0  0  0  0  0  0  0  0  0  0  0  0
    2.2480   -1.0469    0.1518 C   0  0  0  0  0  0  0  0  0  0  0  0
   -0.9047    3.4018   -0.1176 C   0  0  0  0  0  0  0  0  0  0  0  0
   -3.6868   -0.0555    0.1795 C   0  0  0  0  0  0  0  0  0  0  0  0
    3.3392   -0.0493    0.0481 C   0  0  0  0  0  0  0  0  0  0  0  0
    2.3400   -2.0975    0.9696 C   0  0  0  0  0  0  0  0  0  0  0  0
  1 10  1  0
  1 18  1  0
  2  7  1  0
  3 12  2  0
  4 18  2  0
  5  6  1  0
  5  7  1  0
  5 12  1  0
  5 13  1  0
  6  8  1  0
  6 14  1  0
  7  9  1  0
  8 11  1  0
  8 16  1  0
  9 10  1  0
  9 15  1  0
 10 11  1  0
 12 17  1  0
 14 17  2  0
 15 18  1  0
 15 19  2  0
M  END
>  <PUBCHEM_COMPOUND_CID>  (1) 
23205

>  <PUBCHEM_CONFORMER_RMSD>  (1) 
0.6

>  <PUBCHEM_CONFORMER_DIVERSEORDER>  (1) 
1
2
3

>  <PUBCHEM_MMFF94_PARTIAL_CHARGES>  (1) 
20
1 -0.43
10 0.28
12 0.49
14 -0.29
15 -0.12
17 -0.14
18 0.71
19 -0.3
2 -0.68
3 -0.57
30 0.15
34 0.15
35 0.4
36 0.15
37 0.15
4 -0.57
5 0.06
6 0.14
7 0.28
9 0.14

>  <PUBCHEM_EFFECTIVE_ROTOR_COUNT>  (1) 
0.8

>  <PUBCHEM_PHARMACOPHORE_FEATURES>  (1) 
7
1 2 acceptor
1 2 donor
1 3 acceptor
1 4 acceptor
5 1 9 10 15 18 rings
5 5 6 12 14 17 rings
7 5 6 7 8 9 10 11 rings

>  <PUBCHEM_HEAVY_ATOM_COUNT>  (1) 
19

>  <PUBCHEM_ATOM_DEF_STEREO_COUNT>  (1) 
6

>  <PUBCHEM_ATOM_UDEF_STEREO_COUNT>  (1) 
0

>  <PUBCHEM_BOND_DEF_STEREO_COUNT>  (1) 
0

>  <PUBCHEM_BOND_UDEF_STEREO_COUNT>  (1) 
0

>  <PUBCHEM_ISOTOPIC_ATOM_COUNT>  (1) 
0

>  <PUBCHEM_COMPONENT_COUNT>  (1) 
1

>  <PUBCHEM_CACTVS_TAUTO_COUNT>  (1) 
3

>  <PUBCHEM_CONFORMER_ID>  (1) 
00005AA500000001

>  <PUBCHEM_MMFF94_ENERGY>  (1) 
66.5951

>  <PUBCHEM_FEATURE_SELFOVERLAP>  (1) 
35.603

>  <PUBCHEM_SHAPE_FINGERPRINT>  (1) 
10062212 137 18408316705197152587
10863032 1 18335700516138857723
10967382 1 18410858750315775115
11132069 177 18272094867983786753
11578080 2 17416096551725773833
12382932 28 18343306954696371233
13132413 78 18269837691040196460
13140716 1 18341335599167907897
13172582 1 17989490752987177919
13221675 6 18413389834783691414
14115302 16 17894643568618816374
14223421 5 18339642235618418094
14787075 74 18191870239546383720
15309172 13 17632864113531670071
15375462 189 18335143115336106019
15375462 478 18410008827843439222
15442244 35 18046907074396928218
15775835 57 18202002118568035610
15881359 60 17773862113191465213
16945 1 18266184924370450661
19010151 120 18270127936207983883
19868273 325 18413390955622469085
200 152 18334849554284754303
20510252 161 18127692634321980729
20525323 117 18058731273944624505
20905425 154 18268433434070297686
21267235 1 18409459088956491947
21501502 16 18265061408418448493
22112679 90 17773024474346629774
2334 1 18124880307021826373
23402539 116 18342450414338782637
23419403 2 18047160185188382277
23463225 33 18410296903995031541
23557571 272 18201442458348553499
23559900 14 18340764820158641970
2748010 2 18270961366185498213
296302 2 17561080293567483328
3286 77 18044370762732429071
34934 24 18411412912613245001
7097593 13 17901379005300209754
81228 2 18195268644845725609
9709674 26 18339928095640790982

>  <PUBCHEM_SHAPE_MULTIPOLES>  (1) 
367.53
5.54
2.63
1.13
2.34
1.43
-0.07
-1.15
0.56
-0.96
0.13
0.01
-0.4
-0.36

>  <PUBCHEM_SHAPE_SELFOVERLAP>  (1) 
795.209

>  <PUBCHEM_SHAPE_VOLUME>  (1) 
202.3

>  <PUBCHEM_COORDINATE_TYPE>  (1) 
2
5
10

$$$$
