23229
     RDKit          3D

 12 12  0  0  0  0  0  0  0  0999 V2000
   -2.5001   -1.8771   -0.0004 O   0  0  0  0  0  0  0  0  0  0  0  0
    2.5003   -1.8771    0.0005 O   0  0  0  0  0  0  0  0  0  0  0  0
   -1.2081    0.0963    0.0005 C   0  0  0  0  0  0  0  0  0  0  0  0
    1.2079    0.0961   -0.0004 C   0  0  0  0  0  0  0  0  0  0  0  0
   -0.0002   -0.6014    0.0001 C   0  0  0  0  0  0  0  0  0  0  0  0
   -1.2079    1.4912    0.0005 C   0  0  0  0  0  0  0  0  0  0  0  0
    1.2079    1.4910   -0.0004 C   0  0  0  0  0  0  0  0  0  0  0  0
    0.0000    2.1886    0.0001 C   0  0  0  0  0  0  0  0  0  0  0  0
   -2.4679   -0.6303    0.0001 C   0  0  0  0  0  0  0  0  0  0  0  0
    2.4680   -0.6304   -0.0002 C   0  0  0  0  0  0  0  0  0  0  0  0
   -3.7917    0.1264   -0.0003 C   0  0  0  0  0  0  0  0  0  0  0  0
    3.7916    0.1267   -0.0001 C   0  0  0  0  0  0  0  0  0  0  0  0
  1  9  2  0
  2 10  2  0
  3  5  2  0
  3  6  1  0
  3  9  1  0
  4  5  1  0
  4  7  2  0
  4 10  1  0
  6  8  2  0
  7  8  1  0
  9 11  1  0
 10 12  1  0
M  END
>  <PUBCHEM_COMPOUND_CID>  (1) 
23229

>  <PUBCHEM_CONFORMER_RMSD>  (1) 
0.6

>  <PUBCHEM_CONFORMER_DIVERSEORDER>  (1) 
3
8
1
10
9
2
4
7
5
6

>  <PUBCHEM_MMFF94_PARTIAL_CHARGES>  (1) 
16
1 -0.57
10 0.42
11 0.06
12 0.06
13 0.15
14 0.15
15 0.15
16 0.15
2 -0.57
3 0.09
4 0.09
5 -0.15
6 -0.15
7 -0.15
8 -0.15
9 0.42

>  <PUBCHEM_EFFECTIVE_ROTOR_COUNT>  (1) 
2

>  <PUBCHEM_PHARMACOPHORE_FEATURES>  (1) 
3
1 1 acceptor
1 2 acceptor
6 3 4 5 6 7 8 rings

>  <PUBCHEM_HEAVY_ATOM_COUNT>  (1) 
12

>  <PUBCHEM_ATOM_DEF_STEREO_COUNT>  (1) 
0

>  <PUBCHEM_ATOM_UDEF_STEREO_COUNT>  (1) 
0

>  <PUBCHEM_BOND_DEF_STEREO_COUNT>  (1) 
0

>  <PUBCHEM_BOND_UDEF_STEREO_COUNT>  (1) 
0

>  <PUBCHEM_ISOTOPIC_ATOM_COUNT>  (1) 
0

>  <PUBCHEM_COMPONENT_COUNT>  (1) 
1

>  <PUBCHEM_CACTVS_TAUTO_COUNT>  (1) 
3

>  <PUBCHEM_CONFORMER_ID>  (1) 
00005ABD00000003

>  <PUBCHEM_MMFF94_ENERGY>  (1) 
33.25

>  <PUBCHEM_FEATURE_SELFOVERLAP>  (1) 
15.223

>  <PUBCHEM_SHAPE_FINGERPRINT>  (1) 
10130415 120 18408885135613057705
12032990 46 18410862061493058147
14128692 85 18410296951218598780
14252887 29 18202295705263148942
16945 1 18410856559640042917
17990270 104 18192428791099814115
20201158 50 18408321103006260707
20281407 28 18412266133662688578
20645477 70 18048024466279902279
20711985 365 18192991504687648222
20871998 184 18129941161401903628
20871998 22 18342749489506065694
21501502 16 18195812873363296328
21501925 9 18268420407624470931
22213442 358 18339078293121298092
23463225 33 18411140216465187439
23552423 10 18263084490643118365
23559900 14 18267578023484318946
2748010 2 18121497113985171517
3071541 158 18187643643323579365
3312278 4 18408888446716390186
7364860 26 18197779014448976720
81228 2 18264216802746567784
8809292 202 18188212099435441627

>  <PUBCHEM_SHAPE_MULTIPOLES>  (1) 
235.22
5.47
1.95
0.6
0
0.32
0
-1.84
0
0
0
0
0.03
0

>  <PUBCHEM_SHAPE_SELFOVERLAP>  (1) 
489.505

>  <PUBCHEM_SHAPE_VOLUME>  (1) 
135

>  <PUBCHEM_COORDINATE_TYPE>  (1) 
2
5
10

$$$$
