23228
     RDKit          3D

 10  9  0  0  0  0  0  0  0  0999 V2000
    1.9021    0.3499    0.2390 O   0  0  0  0  0  0  0  0  0  0  0  0
    0.9685   -1.5785   -0.5914 O   0  0  0  0  0  0  0  0  0  0  0  0
   -2.6813    0.3951    0.2786 N   0  0  0  0  0  0  0  0  0  0  0  0
   -0.3173    0.0608    0.4235 N   0  0  0  0  0  0  0  0  0  0  0  0
   -1.6032   -0.5969    0.2834 C   0  0  0  0  0  0  0  0  0  0  0  0
   -2.5702    1.3026   -0.8672 C   0  0  0  0  0  0  0  0  0  0  0  0
   -3.9815   -0.2785    0.2500 C   0  0  0  0  0  0  0  0  0  0  0  0
    0.8614   -0.4927   -0.0307 C   0  0  0  0  0  0  0  0  0  0  0  0
    3.1949   -0.1026   -0.1785 C   0  0  0  0  0  0  0  0  0  0  0  0
    4.2266    0.9408    0.1934 C   0  0  0  0  0  0  0  0  0  0  0  0
  1  8  1  0
  1  9  1  0
  2  8  2  0
  3  5  1  0
  3  6  1  0
  3  7  1  0
  4  5  1  0
  4  8  1  0
  9 10  1  0
M  END
>  <PUBCHEM_COMPOUND_CID>  (1) 
23228

>  <PUBCHEM_CONFORMER_RMSD>  (1) 
0.6

>  <PUBCHEM_CONFORMER_DIVERSEORDER>  (1) 
1
38
18
31
45
39
4
40
34
12
44
21
49
26
29
10
35
43
7
19
24
14
28
5
46
2
20
42
30
8
17
16
3
36
22
25
13
27
15
37
23
11
32
33
41
50
48
6
9
47

>  <PUBCHEM_MMFF94_PARTIAL_CHARGES>  (1) 
10
1 -0.43
13 0.37
2 -0.57
3 -0.81
4 -0.73
5 0.57
6 0.27
7 0.27
8 0.78
9 0.28

>  <PUBCHEM_EFFECTIVE_ROTOR_COUNT>  (1) 
5

>  <PUBCHEM_PHARMACOPHORE_FEATURES>  (1) 
3
1 2 acceptor
1 3 cation
1 4 donor

>  <PUBCHEM_HEAVY_ATOM_COUNT>  (1) 
10

>  <PUBCHEM_ATOM_DEF_STEREO_COUNT>  (1) 
0

>  <PUBCHEM_ATOM_UDEF_STEREO_COUNT>  (1) 
0

>  <PUBCHEM_BOND_DEF_STEREO_COUNT>  (1) 
0

>  <PUBCHEM_BOND_UDEF_STEREO_COUNT>  (1) 
0

>  <PUBCHEM_ISOTOPIC_ATOM_COUNT>  (1) 
0

>  <PUBCHEM_COMPONENT_COUNT>  (1) 
1

>  <PUBCHEM_CACTVS_TAUTO_COUNT>  (1) 
2

>  <PUBCHEM_CONFORMER_ID>  (1) 
00005ABC00000001

>  <PUBCHEM_MMFF94_ENERGY>  (1) 
11.1217

>  <PUBCHEM_FEATURE_SELFOVERLAP>  (1) 
15.223

>  <PUBCHEM_SHAPE_FINGERPRINT>  (1) 
11062470 55 18114183046614942944
12932764 1 15841259351423660899
14325111 11 18412545414138016138
14390081 3 18334294228024545973
170605 34 18410012122109910730
18186145 218 17489300915053512248
18342897 55 17775560944650605454
20211469 26 11891325452618069284
20645477 70 17845945043848497694
21119208 17 14476966691894896144
21293036 1 17847062202947817952
23402539 116 17895467120387873271
23402655 69 18131063797655970453

>  <PUBCHEM_SHAPE_MULTIPOLES>  (1) 
184.09
7.58
1.17
0.74
2
0.04
-0.07
2.02
0.49
-0.09
-0.26
-0.13
0.03
0.54

>  <PUBCHEM_SHAPE_SELFOVERLAP>  (1) 
335.156

>  <PUBCHEM_SHAPE_VOLUME>  (1) 
118.5

>  <PUBCHEM_COORDINATE_TYPE>  (1) 
2
5
10

$$$$
