23233
     RDKit          3D

 30 33  0  0  1  0  0  0  0  0999 V2000
   -0.1794   -1.9548   -0.5144 O   0  0  0  0  0  0  0  0  0  0  0  0
   -0.0491   -4.0849    0.5169 O   0  0  0  0  0  0  0  0  0  0  0  0
    2.3523   -1.3758   -1.4231 O   0  0  0  0  0  0  0  0  0  0  0  0
   -2.8416   -3.6533    0.8138 O   0  0  0  0  0  0  0  0  0  0  0  0
    4.3855    0.1661   -0.2920 O   0  0  0  0  0  0  0  0  0  0  0  0
    3.8715    2.5612    0.8213 O   0  0  0  0  0  0  0  0  0  0  0  0
   -3.6086    3.7231    0.6472 O   0  0  0  0  0  0  0  0  0  0  0  0
   -3.4534    1.4017    0.4593 N   0  0  0  0  0  0  0  0  0  0  0  0
   -0.3195   -0.5879    0.0052 C   0  0  0  0  0  0  0  0  0  0  0  0
    0.6153    0.3180   -0.8648 C   0  0  0  0  0  0  0  0  0  0  0  0
   -1.8371   -0.3517   -0.0270 C   0  0  0  0  0  0  0  0  0  0  0  0
   -0.5818   -2.7916    0.5846 C   0  0  0  0  0  0  0  0  0  0  0  0
    0.1215   -0.7729    1.4389 C   0  0  0  0  0  0  0  0  0  0  0  0
    0.4838    1.8066   -0.5128 C   0  0  0  0  0  0  0  0  0  0  0  0
   -0.0535   -2.0564    1.7743 C   0  0  0  0  0  0  0  0  0  0  0  0
    2.0763   -0.1530   -0.8380 C   0  0  0  0  0  0  0  0  0  0  0  0
   -2.6974   -1.3644    0.2075 C   0  0  0  0  0  0  0  0  0  0  0  0
   -2.1113   -2.7008    0.5566 C   0  0  0  0  0  0  0  0  0  0  0  0
   -2.4542    0.9841   -0.2545 C   0  0  0  0  0  0  0  0  0  0  0  0
   -1.8753    1.8679   -1.3335 C   0  0  0  0  0  0  0  0  0  0  0  0
   -0.6498    2.4910   -0.7517 C   0  0  0  0  0  0  0  0  0  0  0  0
    1.6159    2.4754    0.1119 C   0  0  0  0  0  0  0  0  0  0  0  0
    3.0730    0.5829   -0.3189 C   0  0  0  0  0  0  0  0  0  0  0  0
    2.8197    1.8975    0.2236 C   0  0  0  0  0  0  0  0  0  0  0  0
   -0.5372   -4.8110   -0.6114 C   0  0  0  0  0  0  0  0  0  0  0  0
    2.6194   -1.2196   -2.8019 C   0  0  0  0  0  0  0  0  0  0  0  0
   -3.9603    2.6463    0.1687 C   0  0  0  0  0  0  0  0  0  0  0  0
    4.6731   -0.5170    0.9136 C   0  0  0  0  0  0  0  0  0  0  0  0
    3.5608    2.8905    2.1611 C   0  0  0  0  0  0  0  0  0  0  0  0
   -5.0585    2.5825   -0.8604 C   0  0  0  0  0  0  0  0  0  0  0  0
  1  9  1  0
  1 12  1  0
  2 12  1  0
  2 25  1  0
  3 16  1  0
  3 26  1  0
  4 18  2  0
  5 23  1  0
  5 28  1  0
  6 24  1  0
  6 29  1  0
  7 27  2  0
  8 19  2  0
  8 27  1  0
  9 10  1  0
  9 11  1  0
  9 13  1  0
 10 14  1  0
 10 16  1  0
 11 17  2  0
 11 19  1  0
 12 15  1  0
 12 18  1  0
 13 15  2  0
 14 21  2  0
 14 22  1  0
 16 23  2  0
 17 18  1  0
 19 20  1  0
 20 21  1  0
 22 24  2  0
 23 24  1  0
 27 30  1  0
M  END
>  <PUBCHEM_COMPOUND_CID>  (1) 
23233

>  <PUBCHEM_CONFORMER_RMSD>  (1) 
0.8

>  <PUBCHEM_CONFORMER_DIVERSEORDER>  (1) 
3
16
6
11
20
10
9
1
15
18
21
19
5
2
8
4
17
14
7
13
12

>  <PUBCHEM_MMFF94_PARTIAL_CHARGES>  (1) 
35
1 -0.56
10 0.28
11 -0.12
12 0.76
13 -0.29
14 -0.14
15 -0.29
16 -0.06
17 -0.14
18 0.49
19 0.37
2 -0.56
20 0.2
21 -0.29
22 -0.15
23 0.08
24 0.08
25 0.28
26 0.28
27 0.72
28 0.28
29 0.28
3 -0.36
30 0.06
32 0.15
33 0.15
34 0.15
37 0.15
38 0.15
4 -0.57
5 -0.36
6 -0.36
7 -0.57
8 -0.66
9 0.56

>  <PUBCHEM_EFFECTIVE_ROTOR_COUNT>  (1) 
5.4

>  <PUBCHEM_PHARMACOPHORE_FEATURES>  (1) 
12
1 1 acceptor
1 2 acceptor
1 3 acceptor
1 4 acceptor
1 5 acceptor
1 6 acceptor
1 7 acceptor
1 8 acceptor
1 8 donor
6 10 14 16 22 23 24 rings
7 9 10 11 14 19 20 21 rings
8 1 9 11 12 13 15 17 18 rings

>  <PUBCHEM_HEAVY_ATOM_COUNT>  (1) 
30

>  <PUBCHEM_ATOM_DEF_STEREO_COUNT>  (1) 
0

>  <PUBCHEM_ATOM_UDEF_STEREO_COUNT>  (1) 
3

>  <PUBCHEM_BOND_DEF_STEREO_COUNT>  (1) 
0

>  <PUBCHEM_BOND_UDEF_STEREO_COUNT>  (1) 
0

>  <PUBCHEM_ISOTOPIC_ATOM_COUNT>  (1) 
0

>  <PUBCHEM_COMPONENT_COUNT>  (1) 
1

>  <PUBCHEM_CACTVS_TAUTO_COUNT>  (1) 
1

>  <PUBCHEM_CONFORMER_ID>  (1) 
00005AC100000003

>  <PUBCHEM_MMFF94_ENERGY>  (1) 
115.7613

>  <PUBCHEM_FEATURE_SELFOVERLAP>  (1) 
61.017

>  <PUBCHEM_SHAPE_FINGERPRINT>  (1) 
10165383 225 17972621899718347565
10319926 262 18267849749064993360
1100329 8 18119805811688493530
11578080 2 17700724957522594977
12156800 1 13991492704406817626
12160290 23 17969512678614072927
12422481 6 18191892178339741307
12553582 1 17543083727752015590
12633257 1 18336250259632638896
12788726 201 17755584085300006465
13004483 165 17907287003272534190
13134695 92 16823046629853917407
13140716 1 18409445856294095809
13692114 37 18339344328413571443
138480 1 17328301347222227913
140371 6 17903918103976516645
14081887 123 17979346783442937328
14178342 30 18192139619832281752
14223421 5 18051979409309243104
14790565 3 18191877725311273892
14866123 147 18334571317776760138
14955137 171 16321485060584925619
16945 1 18193283991902477279
17980427 23 16974777013947039943
17980427 26 18197200465211273277
19591789 44 18263367992976326437
20028762 73 18341898519837273455
20600515 1 17103676004670853866
20642791 13 18266738180883443333
20905425 154 18050293866563033252
22393880 68 18266455396337885909
23558518 356 18189619517337174413
23559900 14 18267319655442302078
2748010 2 18336280010506750479
3383291 50 17832141628892722826
376196 1 18058994164471874984
484985 159 16669583102319987568
5265222 85 18115606872157105446
6669772 16 18195805176676881638
7364860 26 17831297203497281983
81228 2 17970637517363345505
9981440 41 17558240358555849800

>  <PUBCHEM_SHAPE_MULTIPOLES>  (1) 
571.32
7.29
5.45
1.6
0.54
3.99
0.34
-6.7
-0.67
-3.58
-0.96
1.36
0.16
1.89

>  <PUBCHEM_SHAPE_SELFOVERLAP>  (1) 
1252.71

>  <PUBCHEM_SHAPE_VOLUME>  (1) 
305.9

>  <PUBCHEM_COORDINATE_TYPE>  (1) 
2
5
10

$$$$
