23238
     RDKit          3D

  6  5  0  0  1  0  0  0  0  0999 V2000
   -0.6637   -0.7634   -0.3220 O   0  0  0  0  0  0  0  0  0  0  0  0
   -0.0601    0.3653    0.3038 C   0  0  0  0  0  0  0  0  0  0  0  0
    1.3861    0.4928   -0.1796 C   0  0  0  0  0  0  0  0  0  0  0  0
   -0.8682    1.6093   -0.0404 C   0  0  0  0  0  0  0  0  0  0  0  0
    2.2060   -0.7558    0.1177 C   0  0  0  0  0  0  0  0  0  0  0  0
   -2.0001   -0.9483    0.1206 C   0  0  0  0  0  0  0  0  0  0  0  0
  1  2  1  0
  1  6  1  0
  2  3  1  0
  2  4  1  0
  3  5  1  0
M  END
>  <PUBCHEM_COMPOUND_CID>  (1) 
23238

>  <PUBCHEM_CONFORMER_RMSD>  (1) 
0.4

>  <PUBCHEM_CONFORMER_DIVERSEORDER>  (1) 
4
5
9
10
2
7
11
6
3
12
13
14
1
8

>  <PUBCHEM_MMFF94_PARTIAL_CHARGES>  (1) 
3
1 -0.56
2 0.28
6 0.28

>  <PUBCHEM_EFFECTIVE_ROTOR_COUNT>  (1) 
2

>  <PUBCHEM_PHARMACOPHORE_FEATURES>  (1) 
2
1 1 acceptor
1 5 hydrophobe

>  <PUBCHEM_HEAVY_ATOM_COUNT>  (1) 
6

>  <PUBCHEM_ATOM_DEF_STEREO_COUNT>  (1) 
0

>  <PUBCHEM_ATOM_UDEF_STEREO_COUNT>  (1) 
1

>  <PUBCHEM_BOND_DEF_STEREO_COUNT>  (1) 
0

>  <PUBCHEM_BOND_UDEF_STEREO_COUNT>  (1) 
0

>  <PUBCHEM_ISOTOPIC_ATOM_COUNT>  (1) 
0

>  <PUBCHEM_COMPONENT_COUNT>  (1) 
1

>  <PUBCHEM_CACTVS_TAUTO_COUNT>  (1) 
1

>  <PUBCHEM_CONFORMER_ID>  (1) 
00005AC600000004

>  <PUBCHEM_MMFF94_ENERGY>  (1) 
9.5497

>  <PUBCHEM_FEATURE_SELFOVERLAP>  (1) 
10.148

>  <PUBCHEM_SHAPE_FINGERPRINT>  (1) 
139733 1 9006791885704032498
16714656 1 18411141294665586901
20096714 4 18120093871029104936
21040471 1 17907017279204447904
23552423 10 18260271819703557982
24536 1 18337657642815696700
29004967 10 18191025814020139947
5943 1 16195905967732149149

>  <PUBCHEM_SHAPE_MULTIPOLES>  (1) 
117.61
2.68
1.45
0.64
0.68
0.39
0.01
-1
0.06
-0.55
-0.02
0.01
0.01
-0.04

>  <PUBCHEM_SHAPE_SELFOVERLAP>  (1) 
202.187

>  <PUBCHEM_SHAPE_VOLUME>  (1) 
80.1

>  <PUBCHEM_COORDINATE_TYPE>  (1) 
2
5
10

$$$$
