23232
     RDKit          3D

 30 34  0  0  1  0  0  0  0  0999 V2000
    0.7830   -3.0229   -0.4326 O   0  0  0  0  0  0  0  0  0  0  0  0
   -5.1352   -0.4960    0.4840 O   0  0  0  0  0  0  0  0  0  0  0  0
   -0.4336    2.2011    1.1895 O   0  0  0  0  0  0  0  0  0  0  0  0
   -5.6625    1.8695   -0.9156 O   0  0  0  0  0  0  0  0  0  0  0  0
    1.8102   -0.9460    2.6939 O   0  0  0  0  0  0  0  0  0  0  0  0
    5.9030    0.7261    0.4534 O   0  0  0  0  0  0  0  0  0  0  0  0
    5.8448    2.7458   -0.6483 O   0  0  0  0  0  0  0  0  0  0  0  0
   -1.3253    0.1059    0.2840 C   0  0  0  0  0  0  0  0  0  0  0  0
   -0.9554   -1.3977    0.0635 C   0  0  0  0  0  0  0  0  0  0  0  0
    0.4794   -1.6173   -0.4873 C   0  0  0  0  0  0  0  0  0  0  0  0
   -2.8117    0.2713    0.8523 C   0  0  0  0  0  0  0  0  0  0  0  0
    1.5753   -0.8565    0.2912 C   0  0  0  0  0  0  0  0  0  0  0  0
   -3.8189   -0.4869   -0.0933 C   0  0  0  0  0  0  0  0  0  0  0  0
   -0.2161    0.7943    1.1239 C   0  0  0  0  0  0  0  0  0  0  0  0
    1.1844    0.6088    0.5291 C   0  0  0  0  0  0  0  0  0  0  0  0
   -1.9964   -2.1242   -0.8099 C   0  0  0  0  0  0  0  0  0  0  0  0
    2.7988   -1.0095   -0.6539 C   0  0  0  0  0  0  0  0  0  0  0  0
    0.7056   -1.1547   -1.9403 C   0  0  0  0  0  0  0  0  0  0  0  0
   -3.4166   -1.9549   -0.2978 C   0  0  0  0  0  0  0  0  0  0  0  0
   -3.2948    1.7528    0.9405 C   0  0  0  0  0  0  0  0  0  0  0  0
    2.2132   -0.8982   -2.0708 C   0  0  0  0  0  0  0  0  0  0  0  0
   -3.9640    0.2226   -1.4683 C   0  0  0  0  0  0  0  0  0  0  0  0
   -2.8934   -0.2751    2.3053 C   0  0  0  0  0  0  0  0  0  0  0  0
   -3.3907    2.4534   -0.4137 C   0  0  0  0  0  0  0  0  0  0  0  0
   -4.3193    1.7097   -1.3669 C   0  0  0  0  0  0  0  0  0  0  0  0
    1.8783   -1.5238    1.6141 C   0  0  0  0  0  0  0  0  0  0  0  0
    3.9372   -0.0713   -0.4071 C   0  0  0  0  0  0  0  0  0  0  0  0
    5.0481   -0.4211    0.5012 C   0  0  0  0  0  0  0  0  0  0  0  0
    4.1084    1.1386   -0.9330 C   0  0  0  0  0  0  0  0  0  0  0  0
    5.3641    1.6564   -0.3872 C   0  0  0  0  0  0  0  0  0  0  0  0
  1 10  1  0
  2 13  1  0
  3 14  1  0
  4 25  1  0
  5 26  2  0
  6 28  1  0
  6 30  1  0
  7 30  2  0
  8  9  1  0
  8 11  1  0
  8 14  1  0
  9 10  1  0
  9 16  1  0
 10 12  1  0
 10 18  1  0
 11 13  1  0
 11 20  1  0
 11 23  1  0
 12 15  1  0
 12 17  1  0
 12 26  1  0
 13 19  1  0
 13 22  1  0
 14 15  1  0
 16 19  1  0
 17 21  1  0
 17 27  1  0
 18 21  1  0
 20 24  1  0
 22 25  1  0
 24 25  1  0
 27 28  1  0
 27 29  2  0
 29 30  1  0
M  END
>  <PUBCHEM_COMPOUND_CID>  (1) 
23232

>  <PUBCHEM_CONFORMER_RMSD>  (1) 
0.8

>  <PUBCHEM_CONFORMER_DIVERSEORDER>  (1) 
2
32
34
27
33
29
23
22
7
30
19
24
6
31
4
21
15
28
11
25
26
20
18
3
1
17
16
13
14
9
8
5
10
12

>  <PUBCHEM_MMFF94_PARTIAL_CHARGES>  (1) 
24
1 -0.68
10 0.28
12 0.06
13 0.28
14 0.28
17 0.14
2 -0.68
25 0.28
26 0.45
27 -0.28
28 0.42
29 -0.14
3 -0.68
30 0.71
4 -0.68
5 -0.57
55 0.06
56 0.4
57 0.4
58 0.4
6 -0.43
61 0.15
62 0.4
7 -0.57

>  <PUBCHEM_EFFECTIVE_ROTOR_COUNT>  (1) 
4.6

>  <PUBCHEM_PHARMACOPHORE_FEATURES>  (1) 
15
1 1 acceptor
1 1 donor
1 2 acceptor
1 2 donor
1 3 acceptor
1 3 donor
1 4 acceptor
1 4 donor
1 5 acceptor
1 7 acceptor
5 10 12 17 18 21 rings
5 6 27 28 29 30 rings
6 11 13 20 22 24 25 rings
6 8 9 10 12 14 15 rings
6 8 9 11 13 16 19 rings

>  <PUBCHEM_HEAVY_ATOM_COUNT>  (1) 
30

>  <PUBCHEM_ATOM_DEF_STEREO_COUNT>  (1) 
6

>  <PUBCHEM_ATOM_UDEF_STEREO_COUNT>  (1) 
3

>  <PUBCHEM_BOND_DEF_STEREO_COUNT>  (1) 
0

>  <PUBCHEM_BOND_UDEF_STEREO_COUNT>  (1) 
0

>  <PUBCHEM_ISOTOPIC_ATOM_COUNT>  (1) 
0

>  <PUBCHEM_COMPONENT_COUNT>  (1) 
1

>  <PUBCHEM_CACTVS_TAUTO_COUNT>  (1) 
1

>  <PUBCHEM_CONFORMER_ID>  (1) 
00005AC000000002

>  <PUBCHEM_MMFF94_ENERGY>  (1) 
104.8541

>  <PUBCHEM_FEATURE_SELFOVERLAP>  (1) 
76.357

>  <PUBCHEM_SHAPE_FINGERPRINT>  (1) 
10366900 7 16774071860896713723
10498660 4 18343587308681362308
10675989 125 17474949823011311761
10759866 29 18335412431139238202
10906281 52 18060147496761475057
11578080 2 17604972767831574581
11961588 58 18409439285173227853
12236239 1 18259699012979638026
12422481 6 14056989504177521688
12596602 18 17895191138220595442
12788726 201 17844522211224801801
12969540 114 16343705465244534598
13103583 49 11891338608124399101
13224815 77 17775001237450460787
13383661 66 13757211077405832157
13583140 156 17822015310750224201
13726171 33 18341341036781407153
13911987 19 18272937136840550733
13965767 371 17534346634848365165
14178342 30 16153721911521440467
14251764 38 18113908194684415164
14739800 52 18114449111566026632
14790565 3 17483136859690371465
15463212 79 18334571382190927603
15788980 27 17894633638775812154
17349148 13 17775562026871646178
173720 79 18342444947014265386
17492 54 18130792291266893560
17980427 23 17312828198830085076
18608769 82 18413388757511875543
20511986 3 18041827463451194092
20715895 44 18337389323102839620
21033648 144 18057602260302861592
21033648 29 18261104210093459984
22393880 68 18201423814190998565
22950370 63 9799691510915428086
23227448 37 18338801220618162452
23559900 14 17987806185885178222
2838139 119 18334005073715363100
350125 39 18270122439082166721
3633792 109 16371269075229212859
4340502 62 17386013866255368419
469060 322 18263382424446561331
474 4 18041285482287689164
5104073 3 17385723539567221585
6036956 94 18335991946851203069
7237137 82 18059010717222495519
7808743 9 18412259558162963831
7970288 3 9942648921975256213
9981440 41 18260270746020185539

>  <PUBCHEM_SHAPE_MULTIPOLES>  (1) 
576.3
11.57
2.59
1.8
6.42
0.37
0.46
7.25
-2.13
-0.25
-0.48
-0.25
-0.26
-0.05

>  <PUBCHEM_SHAPE_SELFOVERLAP>  (1) 
1256.494

>  <PUBCHEM_SHAPE_VOLUME>  (1) 
310

>  <PUBCHEM_COORDINATE_TYPE>  (1) 
2
5
10

$$$$
