23242
     RDKit          3D

 17 17  0  0  0  0  0  0  0  0999 V2000
   -2.9496   -1.1188   -0.0615 O   0  0  0  0  0  0  0  0  0  0  0  0
   -4.1388    0.8564    0.2452 O   0  0  0  0  0  0  0  0  0  0  0  0
    0.4348    1.0437    0.4562 N   0  0  0  0  0  0  0  0  0  0  0  0
   -0.6839    0.2957    0.5240 N   0  0  0  0  0  0  0  0  0  0  0  0
   -1.3771    3.2790   -0.7109 N   0  0  0  0  0  0  0  0  0  0  0  0
    4.1816   -0.7608   -0.1326 C   0  0  0  0  0  0  0  0  0  0  0  0
    1.6873    0.4404    0.2596 C   0  0  0  0  0  0  0  0  0  0  0  0
    4.0879    0.6243    0.0013 C   0  0  0  0  0  0  0  0  0  0  0  0
    3.0309   -1.5468   -0.0710 C   0  0  0  0  0  0  0  0  0  0  0  0
    2.8437    1.2237    0.1971 C   0  0  0  0  0  0  0  0  0  0  0  0
    1.7865   -0.9476    0.1247 C   0  0  0  0  0  0  0  0  0  0  0  0
    5.5119   -1.4020   -0.3412 C   0  0  0  0  0  0  0  0  0  0  0  0
   -4.1555   -1.8873   -0.0883 C   0  0  0  0  0  0  0  0  0  0  0  0
   -3.8058   -3.3469   -0.2856 C   0  0  0  0  0  0  0  0  0  0  0  0
   -1.7778    0.8488    0.1147 C   0  0  0  0  0  0  0  0  0  0  0  0
   -3.1224    0.2051    0.1095 C   0  0  0  0  0  0  0  0  0  0  0  0
   -1.5536    2.1932   -0.3413 C   0  0  0  0  0  0  0  0  0  0  0  0
  1 13  1  0
  1 16  1  0
  2 16  2  0
  3  4  1  0
  3  7  1  0
  4 15  2  0
  5 17  3  0
  6  8  2  0
  6  9  1  0
  6 12  1  0
  7 10  2  0
  7 11  1  0
  8 10  1  0
  9 11  2  0
 13 14  1  0
 15 16  1  0
 15 17  1  0
M  END
>  <PUBCHEM_COMPOUND_CID>  (1) 
23242

>  <PUBCHEM_CONFORMER_RMSD>  (1) 
0.6

>  <PUBCHEM_CONFORMER_DIVERSEORDER>  (1) 
1
49
38
42
18
12
21
27
34
25
41
50
8
44
17
5
10
30
36
48
33
43
7
51
26
19
45
39
22
20
11
29
23
2
47
24
3
6
46
28
4
35
32
14
15
16
9
31
37
13
40

>  <PUBCHEM_MMFF94_PARTIAL_CHARGES>  (1) 
21
1 -0.43
10 -0.15
11 -0.15
12 0.14
13 0.28
15 0.56
16 0.72
17 0.45
18 0.15
19 0.15
2 -0.57
20 0.15
21 0.15
25 0.4
3 -0.46
4 -0.49
5 -0.56
6 -0.14
7 0.1
8 -0.15
9 -0.15

>  <PUBCHEM_EFFECTIVE_ROTOR_COUNT>  (1) 
5

>  <PUBCHEM_PHARMACOPHORE_FEATURES>  (1) 
5
1 2 acceptor
1 3 donor
1 4 acceptor
1 5 acceptor
6 6 7 8 9 10 11 rings

>  <PUBCHEM_HEAVY_ATOM_COUNT>  (1) 
17

>  <PUBCHEM_ATOM_DEF_STEREO_COUNT>  (1) 
0

>  <PUBCHEM_ATOM_UDEF_STEREO_COUNT>  (1) 
0

>  <PUBCHEM_BOND_DEF_STEREO_COUNT>  (1) 
0

>  <PUBCHEM_BOND_UDEF_STEREO_COUNT>  (1) 
1

>  <PUBCHEM_ISOTOPIC_ATOM_COUNT>  (1) 
0

>  <PUBCHEM_COMPONENT_COUNT>  (1) 
1

>  <PUBCHEM_CACTVS_TAUTO_COUNT>  (1) 
1

>  <PUBCHEM_CONFORMER_ID>  (1) 
00005ACA00000001

>  <PUBCHEM_MMFF94_ENERGY>  (1) 
51.1017

>  <PUBCHEM_FEATURE_SELFOVERLAP>  (1) 
25.373

>  <PUBCHEM_SHAPE_FINGERPRINT>  (1) 
10616163 171 18413389817377560063
11046707 91 18342739628303332467
11806522 49 18409167731839879122
12403259 226 18411695496161354376
12757275 245 18411420596563088003
12916754 54 18412829092412058656
14123255 352 8790615796734956435
15196674 1 18412826914768648434
15352361 1 18339359794264010079
18915474 69 18336266837689209118
19141452 34 18413112745300990361
200 152 18059853939477284376
20261772 1 17703507817236896982
20281475 54 18341054098484547393
20871999 31 18187634826414577295
221490 88 18412547643410685202
23379529 103 18271817834383757334
23402539 116 17967249793273538256
23402655 69 18188491259646234620
23557571 272 18200316498644958884
23559900 14 18412536613745115896
26918003 58 17988923332131037656
2871803 45 18335413590854286875
3268164 11 17168139014181929885
4214541 1 18340207388468303081
46194498 28 17243844964585724079
5104073 3 18272650160263773250
58051976 100 18341613676830417700
603831 33 17894906283146794906
77779 3 18413109459176242176
9709674 26 18335707194982094106

>  <PUBCHEM_SHAPE_MULTIPOLES>  (1) 
323.17
10.46
3.05
0.67
3.81
0.22
0.02
6.79
0.75
-3.59
0.67
0.01
-0.08
0.19

>  <PUBCHEM_SHAPE_SELFOVERLAP>  (1) 
662.88

>  <PUBCHEM_SHAPE_VOLUME>  (1) 
183.9

>  <PUBCHEM_COORDINATE_TYPE>  (1) 
2
5
10

$$$$
