23249
     RDKit          3D

 11 10  0  0  0  0  0  0  0  0999 V2000
   -1.2591   -1.7232   -0.1887 O   0  0  0  0  0  0  0  0  0  0  0  0
   -3.1589   -0.6911    0.1719 O   0  0  0  0  0  0  0  0  0  0  0  0
    2.9355    0.2526    1.0117 O   0  0  0  0  0  0  0  0  0  0  0  0
    2.7435   -0.8177   -0.8764 O   0  0  0  0  0  0  0  0  0  0  0  0
   -1.2436    0.5195    0.0581 N   0  0  0  0  0  0  0  0  0  0  0  0
   -1.9337   -0.7031    0.0018 N   0  0  0  0  0  0  0  0  0  0  0  0
    0.6301    1.6600   -0.7540 N   0  0  0  0  0  0  0  0  0  0  0  0
    0.9229   -0.4423    0.3533 N   0  0  0  0  0  0  0  0  0  0  0  0
    2.2527   -0.3225    0.1500 N   0  0  0  0  0  0  0  0  0  0  0  0
    0.1588    0.5296   -0.1017 C   0  0  0  0  0  0  0  0  0  0  0  0
   -2.0482    1.7382    0.1741 C   0  0  0  0  0  0  0  0  0  0  0  0
  1  6  1  0
  2  6  2  0
  3  9  1  0
  4  9  2  0
  5  6  1  0
  5 10  1  0
  5 11  1  0
  7 10  1  0
  8  9  1  0
  8 10  2  0
M  CHG  4   1  -1   3  -1   6   1   9   1
M  END
>  <PUBCHEM_COMPOUND_CID>  (1) 
23249

>  <PUBCHEM_CONFORMER_RMSD>  (1) 
0.6

>  <PUBCHEM_CONFORMER_DIVERSEORDER>  (1) 
1
3
10
8
5
12
7
11
9
4
6
2

>  <PUBCHEM_MMFF94_PARTIAL_CHARGES>  (1) 
13
1 -0.52
10 0.55
11 0.37
15 0.4
16 0.4
2 -0.52
3 -0.52
4 -0.52
5 -0.42
6 1.04
7 -0.85
8 -0.5
9 1.09

>  <PUBCHEM_EFFECTIVE_ROTOR_COUNT>  (1) 
3

>  <PUBCHEM_PHARMACOPHORE_FEATURES>  (1) 
6
1 1 acceptor
1 2 acceptor
1 3 acceptor
1 4 acceptor
1 7 donor
4 5 7 8 10 cation

>  <PUBCHEM_HEAVY_ATOM_COUNT>  (1) 
11

>  <PUBCHEM_ATOM_DEF_STEREO_COUNT>  (1) 
0

>  <PUBCHEM_ATOM_UDEF_STEREO_COUNT>  (1) 
0

>  <PUBCHEM_BOND_DEF_STEREO_COUNT>  (1) 
0

>  <PUBCHEM_BOND_UDEF_STEREO_COUNT>  (1) 
1

>  <PUBCHEM_ISOTOPIC_ATOM_COUNT>  (1) 
0

>  <PUBCHEM_COMPONENT_COUNT>  (1) 
1

>  <PUBCHEM_CACTVS_TAUTO_COUNT>  (1) 
2

>  <PUBCHEM_CONFORMER_ID>  (1) 
00005AD100000001

>  <PUBCHEM_MMFF94_ENERGY>  (1) 
42.3535

>  <PUBCHEM_FEATURE_SELFOVERLAP>  (1) 
30.617

>  <PUBCHEM_SHAPE_FINGERPRINT>  (1) 
10857977 72 18338785788884998784
12932741 1 17917146105026468404
12932764 1 17604430695893422588
14128692 85 18336553823029806804
20645464 45 18059001805217895650
20871998 184 18202002157375852215
21040471 1 18121780530260836621
23552423 10 18042971075987684365
2748010 2 18194406580674611615
29004967 10 17489584558951641170
369184 2 16630522925514205515

>  <PUBCHEM_SHAPE_MULTIPOLES>  (1) 
177.99
4.33
1.58
0.75
1.01
0.24
0
-0.73
0.44
-0.92
-0.2
0.44
0.08
0.08

>  <PUBCHEM_SHAPE_SELFOVERLAP>  (1) 
344.07

>  <PUBCHEM_SHAPE_VOLUME>  (1) 
108.6

>  <PUBCHEM_COORDINATE_TYPE>  (1) 
2
5
10

$$$$
