23253
     RDKit          3D

 16 17  0  0  1  0  0  0  0  0999 V2000
    2.2447   -0.4913    0.0522 O   0  0  0  0  0  0  0  0  0  0  0  0
    4.3664    0.7557    1.3272 O   0  0  0  0  0  0  0  0  0  0  0  0
    0.9627   -0.4561   -0.5109 N   0  0  0  0  0  0  0  0  0  0  0  0
   -1.3069   -1.4866   -0.2788 C   0  0  0  0  0  0  0  0  0  0  0  0
   -1.7855   -0.9839   -1.6818 C   0  0  0  0  0  0  0  0  0  0  0  0
   -2.1771   -0.4095    0.2973 C   0  0  0  0  0  0  0  0  0  0  0  0
   -2.5975    0.0315   -0.9342 C   0  0  0  0  0  0  0  0  0  0  0  0
    0.1708   -1.2847    0.0976 C   0  0  0  0  0  0  0  0  0  0  0  0
   -2.6082    0.1704    1.4671 C   0  0  0  0  0  0  0  0  0  0  0  0
   -3.4756    1.0804   -1.0738 C   0  0  0  0  0  0  0  0  0  0  0  0
    0.7343   -2.0968    1.2350 C   0  0  0  0  0  0  0  0  0  0  0  0
   -3.5017    1.2391    1.3591 C   0  0  0  0  0  0  0  0  0  0  0  0
   -3.9326    1.6913    0.0966 C   0  0  0  0  0  0  0  0  0  0  0  0
    3.0620    0.4313   -0.6515 C   0  0  0  0  0  0  0  0  0  0  0  0
    4.4626    0.4078   -0.0532 C   0  0  0  0  0  0  0  0  0  0  0  0
    5.3815    1.4014   -0.7479 C   0  0  0  0  0  0  0  0  0  0  0  0
  1  3  1  0
  1 14  1  0
  2 15  1  0
  3  8  2  0
  4  5  1  0
  4  6  1  0
  4  8  1  0
  5  7  1  0
  6  7  2  0
  6  9  1  0
  7 10  1  0
  8 11  1  0
  9 12  2  0
 10 13  2  0
 12 13  1  0
 14 15  1  0
 15 16  1  0
M  END
>  <PUBCHEM_COMPOUND_CID>  (1) 
23253

>  <PUBCHEM_CONFORMER_RMSD>  (1) 
0.6

>  <PUBCHEM_CONFORMER_DIVERSEORDER>  (1) 
2
84
80
88
140
136
149
139
19
107
153
111
42
35
38
96
154
34
32
152
25
155
76
26
99
71
4
55
148
24
58
127
8
81
133
27
52
121
68
14
43
151
145
47
75
108
113
95
144
5
48
12
141
56
29
158
137
41
159
49
60
93
59
117
102
77
123
135
100
87
83
143
69
6
67
94
160
157
72
37
79
65
45
119
106
114
122
17
78
70
63
11
89
116
98
16
150
101
53
33
97
61
156
125
146
134
20
74
82
15
21
147
54
129
9
86
130
120
124
1
109
118
31
126
112
104
128
91
40
62
10
92
90
64
73
51
23
131
22
46
36
7
13
115
138
85
103
57
39
105
3
142
50
110
44
18
28
132
66
30

>  <PUBCHEM_MMFF94_PARTIAL_CHARGES>  (1) 
20
1 -0.22
10 -0.15
11 0.06
12 -0.15
13 -0.15
14 0.28
15 0.28
2 -0.68
20 0.15
21 0.15
25 0.15
26 0.15
3 -0.51
33 0.4
4 0.16
5 0.11
6 -0.11
7 -0.11
8 0.34
9 -0.15

>  <PUBCHEM_EFFECTIVE_ROTOR_COUNT>  (1) 
4.4

>  <PUBCHEM_PHARMACOPHORE_FEATURES>  (1) 
5
1 2 acceptor
1 2 donor
1 3 acceptor
4 4 5 6 7 rings
6 6 7 9 10 12 13 rings

>  <PUBCHEM_HEAVY_ATOM_COUNT>  (1) 
16

>  <PUBCHEM_ATOM_DEF_STEREO_COUNT>  (1) 
0

>  <PUBCHEM_ATOM_UDEF_STEREO_COUNT>  (1) 
2

>  <PUBCHEM_BOND_DEF_STEREO_COUNT>  (1) 
0

>  <PUBCHEM_BOND_UDEF_STEREO_COUNT>  (1) 
1

>  <PUBCHEM_ISOTOPIC_ATOM_COUNT>  (1) 
0

>  <PUBCHEM_COMPONENT_COUNT>  (1) 
1

>  <PUBCHEM_CACTVS_TAUTO_COUNT>  (1) 
1

>  <PUBCHEM_CONFORMER_ID>  (1) 
00005AD500000002

>  <PUBCHEM_MMFF94_ENERGY>  (1) 
38.4726

>  <PUBCHEM_FEATURE_SELFOVERLAP>  (1) 
25.62

>  <PUBCHEM_SHAPE_FINGERPRINT>  (1) 
10014705 185 18272929444569856732
10498660 4 17774716472544807873
11046707 91 8430319026061849004
11127187 94 13686294669352806997
11137873 295 12103844557835495975
11370993 144 15864339199960264632
11543360 7 15841545293081995676
12251169 10 16008759004296492199
12363563 72 11024108754786616122
12633257 1 16153725201535168341
12788726 201 18048584117435216026
12892183 10 15791728603250225568
13583140 156 15213288781593316838
13675066 3 16081079386293443830
14123255 352 18409168831198890036
14123255 52 18410575050324446075
14123260 362 18343869930609662740
1420 369 10809351030973602240
14251764 38 17630592626057886304
15239191 94 10881395439825661860
15534591 1 18343584044717636223
15775835 57 18341610374258990861
1741750 31 18343018895593285714
17780758 139 12901808533456962236
17870717 6 13901915500539760429
1813 80 9007058010747462482
18186145 218 18410300185825000830
193927 3 8502366763081572632
19784866 240 9295278444382180025
200 152 10087637091801121453
20112054 13 18040720264027026734
20300324 65 16988556918447391893
204376 136 18187366527770049514
20645477 56 17846506958023489359
20671657 53 11095876068864475738
20693207 138 13325984756064560397
20871999 31 15626222399265465129
21650355 55 14273746157241448055
22646028 28 9079111167952044488
23403322 49 11240002234839700012
23557571 272 17703515509470043878
23559900 14 15913331282700921214
24859131 72 14345798249072829075
27216 239 17894634768436626541
4028521 119 17917710188550705576
474 4 18408323280897389222
5924683 9 15864355800061410465
633830 44 18335138683468108590
90316 7 14201402647104350095

>  <PUBCHEM_SHAPE_MULTIPOLES>  (1) 
312.55
9.78
1.79
1.45
13.03
0.36
-0.1
-7.14
-0.42
-0.26
-0.21
-0.85
0.03
-0.64

>  <PUBCHEM_SHAPE_SELFOVERLAP>  (1) 
648.299

>  <PUBCHEM_SHAPE_VOLUME>  (1) 
181.2

>  <PUBCHEM_COORDINATE_TYPE>  (1) 
2
5
10

$$$$
