23251
     RDKit          3D

 18 20  0  0  1  0  0  0  0  0999 V2000
    0.0549   -2.5623    1.7546 O   0  0  0  0  0  0  0  0  0  0  0  0
    0.8520   -1.8406    0.8644 N   0  0  0  0  0  0  0  0  0  0  0  0
   -1.3922   -1.5030   -0.1857 C   0  0  0  0  0  0  0  0  0  0  0  0
   -2.0779   -1.2182   -1.5637 C   0  0  0  0  0  0  0  0  0  0  0  0
   -2.1275   -0.2979    0.3207 C   0  0  0  0  0  0  0  0  0  0  0  0
   -2.7297   -0.0481   -0.8889 C   0  0  0  0  0  0  0  0  0  0  0  0
    0.1320   -1.3225   -0.0839 C   0  0  0  0  0  0  0  0  0  0  0  0
   -2.3470    0.4935    1.4234 C   0  0  0  0  0  0  0  0  0  0  0  0
    0.8447   -0.5143   -1.1494 C   0  0  0  0  0  0  0  0  0  0  0  0
   -3.5895    1.0091   -1.0722 C   0  0  0  0  0  0  0  0  0  0  0  0
   -3.2166    1.5764    1.2697 C   0  0  0  0  0  0  0  0  0  0  0  0
   -3.8338    1.8326    0.0299 C   0  0  0  0  0  0  0  0  0  0  0  0
    2.0918    0.1354   -0.6128 C   0  0  0  0  0  0  0  0  0  0  0  0
    2.0170    1.4059   -0.0587 C   0  0  0  0  0  0  0  0  0  0  0  0
    3.3002   -0.5448   -0.6797 C   0  0  0  0  0  0  0  0  0  0  0  0
    3.1730    2.0080    0.4382 C   0  0  0  0  0  0  0  0  0  0  0  0
    4.4560    0.0573   -0.1825 C   0  0  0  0  0  0  0  0  0  0  0  0
    4.3925    1.3337    0.3765 C   0  0  0  0  0  0  0  0  0  0  0  0
  1  2  1  0
  2  7  2  0
  3  4  1  0
  3  5  1  0
  3  7  1  0
  4  6  1  0
  5  6  2  0
  5  8  1  0
  6 10  1  0
  7  9  1  0
  8 11  2  0
  9 13  1  0
 10 12  2  0
 11 12  1  0
 13 14  2  0
 13 15  1  0
 14 16  1  0
 15 17  2  0
 16 18  2  0
 17 18  1  0
M  END
>  <PUBCHEM_COMPOUND_CID>  (1) 
23251

>  <PUBCHEM_CONFORMER_RMSD>  (1) 
0.6

>  <PUBCHEM_CONFORMER_DIVERSEORDER>  (1) 
1
30
58
31
37
48
18
22
21
62
11
26
23
13
55
6
12
15
61
35
57
52
5
27
40
59
34
49
16
60
20
56
43
25
53
29
4
51
32
24
28
33
36
9
38
41
42
44
7
3
19
54
14
46
50
10
39
47
2
17
8
45

>  <PUBCHEM_MMFF94_PARTIAL_CHARGES>  (1) 
28
1 -0.34
10 -0.15
11 -0.15
12 -0.15
13 -0.14
14 -0.15
15 -0.15
16 -0.15
17 -0.15
18 -0.15
2 -0.51
22 0.15
25 0.15
26 0.15
27 0.15
28 0.15
29 0.15
3 0.16
30 0.15
31 0.15
32 0.15
33 0.4
4 0.11
5 -0.11
6 -0.11
7 0.34
8 -0.15
9 0.2

>  <PUBCHEM_EFFECTIVE_ROTOR_COUNT>  (1) 
3.4

>  <PUBCHEM_PHARMACOPHORE_FEATURES>  (1) 
5
1 1 anion
1 2 acceptor
4 3 4 5 6 rings
6 13 14 15 16 17 18 rings
6 5 6 8 10 11 12 rings

>  <PUBCHEM_HEAVY_ATOM_COUNT>  (1) 
18

>  <PUBCHEM_ATOM_DEF_STEREO_COUNT>  (1) 
0

>  <PUBCHEM_ATOM_UDEF_STEREO_COUNT>  (1) 
1

>  <PUBCHEM_BOND_DEF_STEREO_COUNT>  (1) 
0

>  <PUBCHEM_BOND_UDEF_STEREO_COUNT>  (1) 
1

>  <PUBCHEM_ISOTOPIC_ATOM_COUNT>  (1) 
0

>  <PUBCHEM_COMPONENT_COUNT>  (1) 
1

>  <PUBCHEM_CACTVS_TAUTO_COUNT>  (1) 
2

>  <PUBCHEM_CONFORMER_ID>  (1) 
00005AD300000001

>  <PUBCHEM_MMFF94_ENERGY>  (1) 
51.2429

>  <PUBCHEM_FEATURE_SELFOVERLAP>  (1) 
25.62

>  <PUBCHEM_SHAPE_FINGERPRINT>  (1) 
11370993 70 17203888552664548598
11552529 35 15792027725825835800
11640471 11 18341884148348770779
12363563 72 12247678262170600854
12403814 3 17559684021633813327
12491281 212 18201445817292527806
12633257 1 18187632653177358928
14004511 7 18410293618635038124
14251764 38 17345739923788268608
15239191 94 11386359357542854948
15309172 13 17385723616554943854
15534591 1 18342739619919269175
15775835 57 18410292480336900877
17492 89 18059857298385122174
18186145 218 18341059566236105198
18219364 16 18260832605004187013
18927931 339 11887415624215336644
19765921 60 18411696574034219307
200 152 14117525328884781380
20112054 13 18114183038193897908
20300324 65 17346874572485047709
20510252 161 18047189936326445595
20832881 197 18119815712331993458
21524375 3 18409169909035208271
21731228 192 18113624494713658435
21864079 5 17914624860634972561
22079108 93 18336559269660222683
22182937 141 18341059591905675841
22646028 28 8934997074929500684
22749437 52 18199746006623613584
231179 274 18335983060504584845
23557571 272 17559958894944752775
23559900 14 17489591130752939454
25 1 18409452453485019350
27216 239 18335709368462308113
305870 269 18187361004378848826
4028521 119 18272931617907828013
4340502 62 18114756962527258731
449060 23 9943809979977065494
474 4 18410575102022523612
495365 180 17242440617648617951
5262128 65 12750940110440102323
6328613 192 18410580622026605660
633830 44 18408885135792354078
7226269 152 18412540995144520984
81228 2 17317900392146213554
83771 10 8286198353170428901
9981440 41 17768231768071116472

>  <PUBCHEM_SHAPE_MULTIPOLES>  (1) 
359.58
8.13
2.23
1.36
4.29
0.03
-0.28
-4.9
0.68
-0.25
-0.65
-0.87
0.46
-0.26

>  <PUBCHEM_SHAPE_SELFOVERLAP>  (1) 
783.737

>  <PUBCHEM_SHAPE_VOLUME>  (1) 
197

>  <PUBCHEM_COORDINATE_TYPE>  (1) 
2
5
10

$$$$
