2325
     RDKit          3D

 25 27  0  0  1  0  0  0  0  0999 V2000
   -4.4438    1.4680    1.6435 S   0  0  0  0  0  0  0  0  0  0  0  0
   -4.0722   -0.3469   -0.9443 O   0  0  0  0  0  0  0  0  0  0  0  0
    3.0857   -0.2189   -0.7000 O   0  0  0  0  0  0  0  0  0  0  0  0
    4.3067   -2.3871    0.5176 O   0  0  0  0  0  0  0  0  0  0  0  0
    4.3115    2.2632   -0.6280 O   0  0  0  0  0  0  0  0  0  0  0  0
   -0.5293   -0.0450   -0.0282 N   0  0  0  0  0  0  0  0  0  0  0  0
   -2.9852   -0.0759   -0.0513 C   0  0  0  0  0  0  0  0  0  0  0  0
   -1.7032   -0.2684   -0.8579 C   0  0  0  0  0  0  0  0  0  0  0  0
   -3.0605    1.3491    0.4788 C   0  0  0  0  0  0  0  0  0  0  0  0
    0.6958   -0.2176   -0.7982 C   0  0  0  0  0  0  0  0  0  0  0  0
   -5.3231   -0.2507   -0.3927 C   0  0  0  0  0  0  0  0  0  0  0  0
   -5.6428    0.4979    0.7473 C   0  0  0  0  0  0  0  0  0  0  0  0
    1.9173   -0.0251    0.0862 C   0  0  0  0  0  0  0  0  0  0  0  0
   -6.3262   -0.9456   -1.0787 C   0  0  0  0  0  0  0  0  0  0  0  0
   -6.9682    0.5069    1.2060 C   0  0  0  0  0  0  0  0  0  0  0  0
   -7.6408   -0.9249   -0.6171 C   0  0  0  0  0  0  0  0  0  0  0  0
   -7.9609   -0.2027    0.5282 C   0  0  0  0  0  0  0  0  0  0  0  0
    4.2904   -0.0640   -0.0653 C   0  0  0  0  0  0  0  0  0  0  0  0
    4.8965   -1.1593    0.5424 C   0  0  0  0  0  0  0  0  0  0  0  0
    4.8989    1.1869   -0.0345 C   0  0  0  0  0  0  0  0  0  0  0  0
    6.1230   -1.0020    1.1876 C   0  0  0  0  0  0  0  0  0  0  0  0
    6.1256    1.3441    0.6108 C   0  0  0  0  0  0  0  0  0  0  0  0
    6.7376    0.2496    1.2218 C   0  0  0  0  0  0  0  0  0  0  0  0
    4.6298   -3.2392   -0.5794 C   0  0  0  0  0  0  0  0  0  0  0  0
    4.6373    2.5076   -1.9948 C   0  0  0  0  0  0  0  0  0  0  0  0
  1  9  1  0
  1 12  1  0
  2  7  1  0
  2 11  1  0
  3 13  1  0
  3 18  1  0
  4 19  1  0
  4 24  1  0
  5 20  1  0
  5 25  1  0
  6  8  1  0
  6 10  1  0
  7  8  1  0
  7  9  1  0
 10 13  1  0
 11 12  2  0
 11 14  1  0
 12 15  1  0
 14 16  2  0
 15 17  2  0
 16 17  1  0
 18 19  2  0
 18 20  1  0
 19 21  1  0
 20 22  2  0
 21 23  2  0
 22 23  1  0
M  END
>  <PUBCHEM_COMPOUND_CID>  (1) 
2325

>  <PUBCHEM_CONFORMER_RMSD>  (1) 
1

>  <PUBCHEM_CONFORMER_DIVERSEORDER>  (1) 
1
72
95
21
71
31
70
79
23
46
49
2
78
33
69
44
16
75
98
41
12
87
91
82
14
61
11
8
89
17
45
100
36
39
10
80
62
5
81
35
67
92
19
51
99
96
15
43
47
94
52
24
40
4
20
38
48
55
57
85
56
26
77
66
103
18
30
68
37
83
74
25
63
65
76
6
88
29
42
104
28
64
59
53
90
3
58
13
22
93
54
101
50
34
32
27
86
9
97
84
60
102
73
7

>  <PUBCHEM_MMFF94_PARTIAL_CHARGES>  (1) 
33
1 -0.33
10 0.27
11 0.08
12 0.1
13 0.28
14 -0.15
15 -0.15
16 -0.15
17 -0.15
18 0.08
19 0.08
2 -0.36
20 0.08
21 -0.15
22 -0.15
23 -0.15
24 0.28
25 0.28
3 -0.36
31 0.36
36 0.15
37 0.15
38 0.15
39 0.15
4 -0.36
40 0.15
41 0.15
42 0.15
5 -0.36
6 -0.9
7 0.28
8 0.27
9 0.23

>  <PUBCHEM_EFFECTIVE_ROTOR_COUNT>  (1) 
8.8

>  <PUBCHEM_PHARMACOPHORE_FEATURES>  (1) 
9
1 2 acceptor
1 3 acceptor
1 4 acceptor
1 5 acceptor
1 6 cation
1 6 donor
6 1 2 7 9 11 12 rings
6 11 12 14 15 16 17 rings
6 18 19 20 21 22 23 rings

>  <PUBCHEM_HEAVY_ATOM_COUNT>  (1) 
25

>  <PUBCHEM_ATOM_DEF_STEREO_COUNT>  (1) 
0

>  <PUBCHEM_ATOM_UDEF_STEREO_COUNT>  (1) 
1

>  <PUBCHEM_BOND_DEF_STEREO_COUNT>  (1) 
0

>  <PUBCHEM_BOND_UDEF_STEREO_COUNT>  (1) 
0

>  <PUBCHEM_ISOTOPIC_ATOM_COUNT>  (1) 
0

>  <PUBCHEM_COMPONENT_COUNT>  (1) 
1

>  <PUBCHEM_CACTVS_TAUTO_COUNT>  (1) 
1

>  <PUBCHEM_CONFORMER_ID>  (1) 
0000091500000001

>  <PUBCHEM_MMFF94_ENERGY>  (1) 
90.5608

>  <PUBCHEM_FEATURE_SELFOVERLAP>  (1) 
45.702

>  <PUBCHEM_SHAPE_FINGERPRINT>  (1) 
10 15 16988840575510198927
10162869 55 18335691801655541182
10299344 5 18201999932582695243
11315181 36 18131630102637979451
11505856 67 15515929610716449052
11524674 6 16298387976956792227
11724838 91 18341609330840361748
12236239 1 18413109451129470557
12596602 18 18201155455954843611
13073987 5 18130786711581727538
13533116 47 18410294704908309986
13914758 101 17749104457847124869
14251764 18 18131348622416852625
14849402 71 18059289984713175561
14933364 13 16558751221811270001
15183329 4 18409169917424370801
15348495 7 17313110803420416096
15419008 47 16443055114942029749
15419008 91 15647602484630133229
15716309 27 18413388731467706631
1577012 14 18131073718998775625
15840311 113 18342737464890665744
17844677 252 17895193264261224444
19377110 9 18202284684577183259
20157964 124 18335138709205932210
20281389 69 17917993862935650857
20397935 70 18408604734768847054
23081809 10 18273218595206746893
23522609 53 18057350395036834281
3044373 193 16660934377645966261
3663271 9 18131351878060352035
4073 2 18338236084516279458

>  <PUBCHEM_SHAPE_MULTIPOLES>  (1) 
489.88
25.56
2.16
1.36
19.02
0.68
-0.13
1.36
4.5
-4.43
-0.45
-0.39
-0.53
-2.69

>  <PUBCHEM_SHAPE_SELFOVERLAP>  (1) 
1017.935

>  <PUBCHEM_SHAPE_VOLUME>  (1) 
280.8

>  <PUBCHEM_COORDINATE_TYPE>  (1) 
2
5
10

$$$$
