23263
     RDKit          3D

 18 20  0  0  0  0  0  0  0  0999 V2000
   -0.6681    1.1169    0.4222 N   0  0  0  0  0  0  0  0  0  0  0  0
    0.6617    1.1171    0.4210 N   0  0  0  0  0  0  0  0  0  0  0  0
   -0.6684   -1.1182   -0.4192 N   0  0  0  0  0  0  0  0  0  0  0  0
    0.6615   -1.1181   -0.4201 N   0  0  0  0  0  0  0  0  0  0  0  0
   -2.7199   -0.0003    0.0010 C   0  0  0  0  0  0  0  0  0  0  0  0
    2.7136   -0.0003   -0.0005 C   0  0  0  0  0  0  0  0  0  0  0  0
   -1.2730   -0.0009    0.0021 C   0  0  0  0  0  0  0  0  0  0  0  0
    1.2763   -0.0003    0.0000 C   0  0  0  0  0  0  0  0  0  0  0  0
   -3.4167    1.1917   -0.1973 C   0  0  0  0  0  0  0  0  0  0  0  0
    3.4204    1.1919   -0.1973 C   0  0  0  0  0  0  0  0  0  0  0  0
   -3.4182   -1.1918    0.1979 C   0  0  0  0  0  0  0  0  0  0  0  0
    3.4210   -1.1919    0.1964 C   0  0  0  0  0  0  0  0  0  0  0  0
   -4.8115    1.1924   -0.1988 C   0  0  0  0  0  0  0  0  0  0  0  0
    4.8152    1.1923   -0.1974 C   0  0  0  0  0  0  0  0  0  0  0  0
   -4.8131   -1.1910    0.1963 C   0  0  0  0  0  0  0  0  0  0  0  0
    4.8160   -1.1913    0.1963 C   0  0  0  0  0  0  0  0  0  0  0  0
   -5.5097    0.0011   -0.0020 C   0  0  0  0  0  0  0  0  0  0  0  0
    5.5130    0.0007   -0.0007 C   0  0  0  0  0  0  0  0  0  0  0  0
  1  2  2  0
  1  7  1  0
  2  8  1  0
  3  4  1  0
  3  7  2  0
  4  8  2  0
  5  7  1  0
  5  9  2  0
  5 11  1  0
  6  8  1  0
  6 10  2  0
  6 12  1  0
  9 13  1  0
 10 14  1  0
 11 15  2  0
 12 16  2  0
 13 17  2  0
 14 18  2  0
 15 17  1  0
 16 18  1  0
M  END
>  <PUBCHEM_COMPOUND_CID>  (1) 
23263

>  <PUBCHEM_CONFORMER_RMSD>  (1) 
0.6

>  <PUBCHEM_CONFORMER_DIVERSEORDER>  (1) 
1
2

>  <PUBCHEM_MMFF94_PARTIAL_CHARGES>  (1) 
26
1 -0.31
10 -0.15
11 -0.15
12 -0.15
13 -0.15
14 -0.15
15 -0.15
16 -0.15
17 -0.15
18 -0.15
19 0.15
2 -0.31
20 0.15
21 0.15
22 0.15
23 0.15
24 0.15
25 0.15
26 0.15
27 0.15
28 0.15
3 -0.31
4 -0.31
7 0.62
8 0.62
9 -0.15

>  <PUBCHEM_EFFECTIVE_ROTOR_COUNT>  (1) 
2

>  <PUBCHEM_PHARMACOPHORE_FEATURES>  (1) 
5
3 1 3 7 cation
3 2 4 8 cation
6 1 2 3 4 7 8 rings
6 5 9 11 13 15 17 rings
6 6 10 12 14 16 18 rings

>  <PUBCHEM_HEAVY_ATOM_COUNT>  (1) 
18

>  <PUBCHEM_ATOM_DEF_STEREO_COUNT>  (1) 
0

>  <PUBCHEM_ATOM_UDEF_STEREO_COUNT>  (1) 
0

>  <PUBCHEM_BOND_DEF_STEREO_COUNT>  (1) 
0

>  <PUBCHEM_BOND_UDEF_STEREO_COUNT>  (1) 
0

>  <PUBCHEM_ISOTOPIC_ATOM_COUNT>  (1) 
0

>  <PUBCHEM_COMPONENT_COUNT>  (1) 
1

>  <PUBCHEM_CACTVS_TAUTO_COUNT>  (1) 
1

>  <PUBCHEM_CONFORMER_ID>  (1) 
00005ADF00000001

>  <PUBCHEM_MMFF94_ENERGY>  (1) 
56.5838

>  <PUBCHEM_FEATURE_SELFOVERLAP>  (1) 
25.87

>  <PUBCHEM_SHAPE_FINGERPRINT>  (1) 
10595046 47 18335139816685106364
11287383 113 18260550043226358896
11401426 45 18201998828501650575
12107183 9 17614838517994799704
12236239 1 18334575741887934442
13167823 11 18334855017419805778
13288520 33 18410575098265399103
13533116 47 16878215369418584400
13675066 3 18343015610048422578
13760787 19 18333729121792041251
13760787 5 18342449361401778295
13862211 1 18273209802839265743
1420 363 17967258606694213891
14341114 176 18334582347347286089
14528608 73 18336269024228476572
15196674 1 18410856559639789569
15788980 27 18041001738940453241
17834072 33 18409448106856666526
17844677 252 18335990812936683493
18186145 218 17531239569575242280
19489759 90 17748543736538202545
200 152 18131349704796058073
20281389 69 18261110743139682653
20645477 70 18411420566762269030
21267235 1 18340775866899092134
23402539 116 17967247594434964213
23536379 177 18259984855436753400
23557571 272 17821727195896583453
23559900 14 18410289237626218376
239999 70 18341899567782984790
26918003 58 18408603660409578202
300161 21 18113611283541630459
3004659 81 18334859390503368178
351380 180 18334857225006381681
3545911 37 18409168809365064964
4073 2 17822299023763800330
4214541 1 18408603647777961653
42788 4 18409167709779525646
4463277 17 18412826893124935480
474229 33 18342176678418755863
5104073 3 18410012134714991761
5283173 99 18261669264586299933
5374978 207 18343858918809284408
542803 24 17313106353950010484
59755656 215 18271814475998627542
7495541 125 18059854016802416192
77779 3 18335421270176307556
9971528 1 17458065967272581316

>  <PUBCHEM_SHAPE_MULTIPOLES>  (1) 
350.51
13.49
1.49
0.65
0.04
0
0
0
-0.01
0
0
0
0
0

>  <PUBCHEM_SHAPE_SELFOVERLAP>  (1) 
774.83

>  <PUBCHEM_SHAPE_VOLUME>  (1) 
184.3

>  <PUBCHEM_COORDINATE_TYPE>  (1) 
2
5
10

$$$$
