23265
     RDKit          3D

 16 17  0  0  0  0  0  0  0  0999 V2000
   -2.2503   -2.3672    0.9955 Cl  0  0  0  0  0  0  0  0  0  0  0  0
   -0.1187   -1.4106   -1.0756 O   0  0  0  0  0  0  0  0  0  0  0  0
    0.6190    0.4303    0.1784 N   0  0  0  0  0  0  0  0  0  0  0  0
   -1.7349    0.0237   -0.2140 C   0  0  0  0  0  0  0  0  0  0  0  0
    2.0283    0.2928    0.1395 C   0  0  0  0  0  0  0  0  0  0  0  0
   -0.3511   -0.3930   -0.4063 C   0  0  0  0  0  0  0  0  0  0  0  0
   -2.6731   -0.7979    0.4111 C   0  0  0  0  0  0  0  0  0  0  0  0
   -2.1102    1.2857   -0.6747 C   0  0  0  0  0  0  0  0  0  0  0  0
    2.5850   -0.7716   -0.5489 C   0  0  0  0  0  0  0  0  0  0  0  0
    2.8172    1.2261    0.7900 C   0  0  0  0  0  0  0  0  0  0  0  0
   -3.9864   -0.3572    0.5755 C   0  0  0  0  0  0  0  0  0  0  0  0
   -3.4235    1.7261   -0.5105 C   0  0  0  0  0  0  0  0  0  0  0  0
    3.9727   -0.9069   -0.5877 C   0  0  0  0  0  0  0  0  0  0  0  0
    4.2050    1.0908    0.7510 C   0  0  0  0  0  0  0  0  0  0  0  0
   -4.3616    0.9047    0.1145 C   0  0  0  0  0  0  0  0  0  0  0  0
    4.7827    0.0242    0.0621 C   0  0  0  0  0  0  0  0  0  0  0  0
  1  7  1  0
  2  6  2  0
  3  5  1  0
  3  6  1  0
  4  6  1  0
  4  7  2  0
  4  8  1  0
  5  9  2  0
  5 10  1  0
  7 11  1  0
  8 12  2  0
  9 13  1  0
 10 14  2  0
 11 15  2  0
 12 15  1  0
 13 16  2  0
 14 16  1  0
M  END
>  <PUBCHEM_COMPOUND_CID>  (1) 
23265

>  <PUBCHEM_CONFORMER_RMSD>  (1) 
0.6

>  <PUBCHEM_CONFORMER_DIVERSEORDER>  (1) 
1
3
2
4

>  <PUBCHEM_MMFF94_PARTIAL_CHARGES>  (1) 
26
1 -0.18
10 -0.15
11 -0.15
12 -0.15
13 -0.15
14 -0.15
15 -0.15
16 -0.15
17 0.37
18 0.15
19 0.15
2 -0.57
20 0.15
21 0.15
22 0.15
23 0.15
24 0.15
25 0.15
26 0.15
3 -0.55
4 0.09
5 0.12
6 0.54
7 0.18
8 -0.15
9 -0.15

>  <PUBCHEM_EFFECTIVE_ROTOR_COUNT>  (1) 
3

>  <PUBCHEM_PHARMACOPHORE_FEATURES>  (1) 
4
1 2 acceptor
1 3 donor
6 4 7 8 11 12 15 rings
6 5 9 10 13 14 16 rings

>  <PUBCHEM_HEAVY_ATOM_COUNT>  (1) 
16

>  <PUBCHEM_ATOM_DEF_STEREO_COUNT>  (1) 
0

>  <PUBCHEM_ATOM_UDEF_STEREO_COUNT>  (1) 
0

>  <PUBCHEM_BOND_DEF_STEREO_COUNT>  (1) 
0

>  <PUBCHEM_BOND_UDEF_STEREO_COUNT>  (1) 
0

>  <PUBCHEM_ISOTOPIC_ATOM_COUNT>  (1) 
0

>  <PUBCHEM_COMPONENT_COUNT>  (1) 
1

>  <PUBCHEM_CACTVS_TAUTO_COUNT>  (1) 
2

>  <PUBCHEM_CONFORMER_ID>  (1) 
00005AE100000001

>  <PUBCHEM_MMFF94_ENERGY>  (1) 
51.7169

>  <PUBCHEM_FEATURE_SELFOVERLAP>  (1) 
20.297

>  <PUBCHEM_SHAPE_FINGERPRINT>  (1) 
10608611 8 18412822499420935832
11132069 177 18260830401706835901
11471102 20 17917991664123235732
11543360 7 11887667420740853698
12119455 92 17989204837183185799
12251169 10 18114183051189628029
12500047 106 18333448724920654563
12507560 40 18412545435544235336
13214271 11 18411980265504204957
13675066 3 18342175596271165280
14289901 80 18041002881633823714
15042514 8 18115036332965245707
15219456 202 18341897368026083799
15242439 84 18413110528786492852
15309172 13 17775570853013790663
15375358 24 18342457032382362038
15653759 3 18407761447456071336
17804303 29 18334862735729075317
18186145 218 17632861927667395516
200 152 16988839467002298709
20279233 1 18412830187428096518
20510252 161 18410855422027799097
20645477 56 18334295353406308285
20645477 70 17703794674282012990
21065198 57 18410012147947993986
21065199 12 18410575132234929490
21065201 7 18186800270860459602
22854114 59 18272370879703905671
23402539 116 18335414704078881415
23402655 69 17632574951011905252
23557571 272 18409741659239345836
23559900 14 18336550426343860294
26918003 58 18343581841710208298
2838139 119 16342584934247740641
351380 180 18341890788283970205
3545911 37 18413109459287050880
42 15 18261110755728607282
4214541 1 18408604759847326856
5104073 3 18341327868564125906
602551 16 17968380142919760090
69090 78 18130782377991653807
77779 3 18408887347510658976
90316 7 17313098618930682501
9709674 26 18412267246054437206

>  <PUBCHEM_SHAPE_MULTIPOLES>  (1) 
320.29
9.75
1.78
0.94
4.53
0.49
-0.01
-1.81
-1.11
-1.36
-0.19
0.14
0.11
1.29

>  <PUBCHEM_SHAPE_SELFOVERLAP>  (1) 
681.776

>  <PUBCHEM_SHAPE_VOLUME>  (1) 
178.2

>  <PUBCHEM_COORDINATE_TYPE>  (1) 
2
5
10

$$$$
