23274
     RDKit          3D

 12 13  0  0  0  0  0  0  0  0999 V2000
    2.6040   -0.2362    0.0105 N   0  0  0  0  0  0  0  0  0  0  0  0
   -2.8446    0.7190   -0.0648 N   0  0  0  0  0  0  0  0  0  0  0  0
   -1.0865   -0.6471    0.0774 C   0  0  0  0  0  0  0  0  0  0  0  0
   -1.4682    0.6883   -0.0694 C   0  0  0  0  0  0  0  0  0  0  0  0
    1.2253    0.0706   -0.0163 C   0  0  0  0  0  0  0  0  0  0  0  0
    0.2869   -0.9608    0.1043 C   0  0  0  0  0  0  0  0  0  0  0  0
    0.8153    1.3944   -0.1618 C   0  0  0  0  0  0  0  0  0  0  0  0
   -0.5414    1.7297   -0.1912 C   0  0  0  0  0  0  0  0  0  0  0  0
   -2.2809   -1.4150    0.1701 C   0  0  0  0  0  0  0  0  0  0  0  0
   -3.3447   -0.5472    0.0795 C   0  0  0  0  0  0  0  0  0  0  0  0
    3.5573    0.7238    0.5272 C   0  0  0  0  0  0  0  0  0  0  0  0
    3.0773   -1.5195   -0.4655 C   0  0  0  0  0  0  0  0  0  0  0  0
  1  5  1  0
  1 11  1  0
  1 12  1  0
  2  4  1  0
  2 10  1  0
  3  4  2  0
  3  6  1  0
  3  9  1  0
  4  8  1  0
  5  6  2  0
  5  7  1  0
  7  8  2  0
  9 10  2  0
M  END
>  <PUBCHEM_COMPOUND_CID>  (1) 
23274

>  <PUBCHEM_CONFORMER_RMSD>  (1) 
0.4

>  <PUBCHEM_CONFORMER_DIVERSEORDER>  (1) 
1
2
3

>  <PUBCHEM_MMFF94_PARTIAL_CHARGES>  (1) 
17
1 -0.84
10 -0.3
11 0.37
12 0.37
13 0.15
14 0.15
15 0.15
16 0.15
17 0.27
18 0.15
2 0.03
4 -0.15
5 0.1
6 -0.15
7 -0.15
8 -0.15
9 -0.15

>  <PUBCHEM_EFFECTIVE_ROTOR_COUNT>  (1) 
1

>  <PUBCHEM_PHARMACOPHORE_FEATURES>  (1) 
5
1 1 cation
1 2 cation
1 2 donor
5 2 3 4 9 10 rings
6 3 4 5 6 7 8 rings

>  <PUBCHEM_HEAVY_ATOM_COUNT>  (1) 
12

>  <PUBCHEM_ATOM_DEF_STEREO_COUNT>  (1) 
0

>  <PUBCHEM_ATOM_UDEF_STEREO_COUNT>  (1) 
0

>  <PUBCHEM_BOND_DEF_STEREO_COUNT>  (1) 
0

>  <PUBCHEM_BOND_UDEF_STEREO_COUNT>  (1) 
0

>  <PUBCHEM_ISOTOPIC_ATOM_COUNT>  (1) 
0

>  <PUBCHEM_COMPONENT_COUNT>  (1) 
1

>  <PUBCHEM_CACTVS_TAUTO_COUNT>  (1) 
1

>  <PUBCHEM_CONFORMER_ID>  (1) 
00005AEA00000001

>  <PUBCHEM_MMFF94_ENERGY>  (1) 
38.3391

>  <PUBCHEM_FEATURE_SELFOVERLAP>  (1) 
25.463

>  <PUBCHEM_SHAPE_FINGERPRINT>  (1) 
10219947 1 18201722863873184647
10608611 8 18412539890689033536
10857977 72 18410283744220466032
11132069 177 18409725162238189672
11769659 78 18343015597021349311
12032990 46 18408611361407414979
12932764 1 17531525382537558648
13296908 3 18410294705082597686
14128692 85 18335426806484240709
14144814 61 18410293609702316138
14252887 29 18339933696014595994
14325111 11 18411419501019107048
15219456 202 18271804597298967846
16945 1 18334013865396879237
193761 8 17472416548029926935
20201158 50 18410009957224710978
20645477 70 18201434731686960422
20871998 184 18272934942344221727
20871998 22 18410863169610444830
21501925 9 18337103591770703699
23402655 69 18194099852050109637
23463225 33 18408323276449480142
23552423 10 18187087294649962903
23559900 14 18338794516891540262
2748010 2 18410009922827893605
369184 2 16988840579377670947
528886 8 18410287021422866179
7364860 26 18195530526213429596

>  <PUBCHEM_SHAPE_MULTIPOLES>  (1) 
236.99
5.44
1.67
0.66
1.5
0.12
0
-1.13
0.31
0.16
-0.12
0.14
-0.01
0.38

>  <PUBCHEM_SHAPE_SELFOVERLAP>  (1) 
510.922

>  <PUBCHEM_SHAPE_VOLUME>  (1) 
133.7

>  <PUBCHEM_COORDINATE_TYPE>  (1) 
2
5
10

$$$$
