2329
     RDKit          3D

 30 32  0  0  1  0  0  0  0  0999 V2000
   -0.2567   -0.7853   -0.8008 O   0  0  0  0  0  0  0  0  0  0  0  0
    3.3134   -1.8517    2.0943 O   0  0  0  0  0  0  0  0  0  0  0  0
    0.9750    5.1603   -1.4968 O   0  0  0  0  0  0  0  0  0  0  0  0
   -6.8784   -0.9941   -2.1786 O   0  0  0  0  0  0  0  0  0  0  0  0
   -7.8569   -0.9071   -0.1289 O   0  0  0  0  0  0  0  0  0  0  0  0
    2.0097   -0.7884    0.4980 N   0  0  0  0  0  0  0  0  0  0  0  0
   -1.5555   -0.6651    1.1501 N   0  0  0  0  0  0  0  0  0  0  0  0
    0.8503   -0.5880    1.3332 C   0  0  0  0  0  0  0  0  0  0  0  0
    0.9287    0.7683    2.0440 C   0  0  0  0  0  0  0  0  0  0  0  0
    0.9410    1.9428    1.0969 C   0  0  0  0  0  0  0  0  0  0  0  0
   -0.3723   -0.6736    0.4169 C   0  0  0  0  0  0  0  0  0  0  0  0
   -0.2599    2.5190    0.7132 C   0  0  0  0  0  0  0  0  0  0  0  0
    2.1527    2.4246    0.6275 C   0  0  0  0  0  0  0  0  0  0  0  0
    3.1599   -1.4129    0.9574 C   0  0  0  0  0  0  0  0  0  0  0  0
   -2.8793   -0.7297    0.6556 C   0  0  0  0  0  0  0  0  0  0  0  0
   -0.2487    3.6049   -0.1622 C   0  0  0  0  0  0  0  0  0  0  0  0
    2.1641    3.5105   -0.2479 C   0  0  0  0  0  0  0  0  0  0  0  0
    4.2756   -1.5185   -0.0179 C   0  0  0  0  0  0  0  0  0  0  0  0
    0.9634    4.1007   -0.6429 C   0  0  0  0  0  0  0  0  0  0  0  0
   -3.9380   -0.7087    1.5487 C   0  0  0  0  0  0  0  0  0  0  0  0
   -3.0896   -0.8115   -0.7112 C   0  0  0  0  0  0  0  0  0  0  0  0
    5.5697   -1.5843    0.4552 C   0  0  0  0  0  0  0  0  0  0  0  0
    3.9818   -1.5478   -1.3654 C   0  0  0  0  0  0  0  0  0  0  0  0
   -5.2435   -0.7716    1.0615 C   0  0  0  0  0  0  0  0  0  0  0  0
   -4.3951   -0.8741   -1.1983 C   0  0  0  0  0  0  0  0  0  0  0  0
   -5.4721   -0.8541   -0.3119 C   0  0  0  0  0  0  0  0  0  0  0  0
    6.6173   -1.6836   -0.4604 C   0  0  0  0  0  0  0  0  0  0  0  0
    5.0294   -1.6473   -2.2810 C   0  0  0  0  0  0  0  0  0  0  0  0
    6.3472   -1.7152   -1.8284 C   0  0  0  0  0  0  0  0  0  0  0  0
   -6.8332   -0.9185   -0.8201 C   0  0  0  0  0  0  0  0  0  0  0  0
  1 11  2  0
  2 14  2  0
  3 19  1  0
  4 30  1  0
  5 30  2  0
  6  8  1  0
  6 14  1  0
  7 11  1  0
  7 15  1  0
  8  9  1  0
  8 11  1  0
  9 10  1  0
 10 12  2  0
 10 13  1  0
 12 16  1  0
 13 17  2  0
 14 18  1  0
 15 20  2  0
 15 21  1  0
 16 19  2  0
 17 19  1  0
 18 22  2  0
 18 23  1  0
 20 24  1  0
 21 25  2  0
 22 27  1  0
 23 28  2  0
 24 26  2  0
 25 26  1  0
 26 30  1  0
 27 29  2  0
 28 29  1  0
M  END
>  <PUBCHEM_COMPOUND_CID>  (1) 
2329

>  <PUBCHEM_CONFORMER_RMSD>  (1) 
1

>  <PUBCHEM_CONFORMER_DIVERSEORDER>  (1) 
2
35
16
13
15
20
28
30
38
12
29
22
23
25
17
5
34
31
26
3
4
32
7
1
36
33
37
9
27
21
24
14
6
10
18
8
19
11

>  <PUBCHEM_MMFF94_PARTIAL_CHARGES>  (1) 
47
1 -0.57
10 -0.14
11 0.57
12 -0.15
13 -0.15
14 0.54
15 0.12
16 -0.15
17 -0.15
18 0.09
19 0.08
2 -0.57
20 -0.15
21 -0.15
22 -0.15
23 -0.15
24 -0.15
25 -0.15
26 0.09
27 -0.15
28 -0.15
29 -0.15
3 -0.53
30 0.63
34 0.37
35 0.15
36 0.15
37 0.37
38 0.15
39 0.15
4 -0.65
40 0.15
41 0.15
42 0.15
43 0.15
44 0.15
45 0.15
46 0.15
47 0.15
48 0.15
49 0.45
5 -0.57
50 0.5
6 -0.73
7 -0.55
8 0.36
9 0.14

>  <PUBCHEM_EFFECTIVE_ROTOR_COUNT>  (1) 
9

>  <PUBCHEM_PHARMACOPHORE_FEATURES>  (1) 
11
1 1 acceptor
1 2 acceptor
1 3 donor
1 4 acceptor
1 5 acceptor
1 6 donor
1 7 donor
3 4 5 30 anion
6 10 12 13 16 17 19 rings
6 15 20 21 24 25 26 rings
6 18 22 23 27 28 29 rings

>  <PUBCHEM_HEAVY_ATOM_COUNT>  (1) 
30

>  <PUBCHEM_ATOM_DEF_STEREO_COUNT>  (1) 
0

>  <PUBCHEM_ATOM_UDEF_STEREO_COUNT>  (1) 
1

>  <PUBCHEM_BOND_DEF_STEREO_COUNT>  (1) 
0

>  <PUBCHEM_BOND_UDEF_STEREO_COUNT>  (1) 
0

>  <PUBCHEM_ISOTOPIC_ATOM_COUNT>  (1) 
0

>  <PUBCHEM_COMPONENT_COUNT>  (1) 
1

>  <PUBCHEM_CACTVS_TAUTO_COUNT>  (1) 
12

>  <PUBCHEM_CONFORMER_ID>  (1) 
0000091900000002

>  <PUBCHEM_MMFF94_ENERGY>  (1) 
92.4136

>  <PUBCHEM_FEATURE_SELFOVERLAP>  (1) 
55.88

>  <PUBCHEM_SHAPE_FINGERPRINT>  (1) 
102385 1 17833554874437095098
10815517 723 18198353849178670153
11297750 10 16956230314624015290
11331351 85 17916318159865207665
11386260 185 18336814395260934293
11421498 54 18188772726312943274
11720765 8 18337115673709919572
12166972 35 17989485234392111315
12373685 5 10663820733891007201
12717326 69 13829842573901155517
12788726 201 18115591427043460242
13009979 54 18059869367358527977
13540713 4 17898581031733325635
13617811 41 18410015403702711166
13726171 33 14346341335272544847
13757389 114 17837509461264322904
13911987 19 18041577874750182186
14068700 675 18131354081030298353
14117953 113 18130499757292292991
14556957 393 18043839536119431548
146900 427 11314302854336722015
15198563 99 18264498282561721284
15439362 3 18193838373518137712
16728300 4 13182191587715620054
16994733 274 14634874162493479214
1813 80 18343586213813023922
18222031 100 18272366460188352963
19438510 23 12324248268955991640
21049683 118 11242544413508718916
21365058 113 18335990821800743333
21641784 216 18190193299677924132
22956985 138 11094796331815010084
23536364 44 18260825943172392189
23559900 14 18269548498471394387
23576562 1 18336545044670912575
24771750 20 17900562360033509830
249057 3 18343861126760506751
255183 451 18341336699011916399
3388396 114 17972351553862134284
340366 18 18272646904578751359
4066623 53 18114177536557713404
465052 167 14045742612849269162
469060 322 18194984971309522130
5081480 168 18335410288325097805
5219985 9 18342176635695585538
5969126 39 18340488855535262212
6691757 9 9726770693360816686

>  <PUBCHEM_SHAPE_MULTIPOLES>  (1) 
578.08
16.46
4.37
1.9
15.85
9.01
0.18
-17.97
7.69
-4.24
1.79
-0.56
-0.51
0.13

>  <PUBCHEM_SHAPE_SELFOVERLAP>  (1) 
1254.841

>  <PUBCHEM_SHAPE_VOLUME>  (1) 
312.4

>  <PUBCHEM_COORDINATE_TYPE>  (1) 
2
5
10

$$$$
