23310
     RDKit          3D

 28 33  0  0  1  0  0  0  0  0999 V2000
    0.7029    1.0242    1.8631 O   0  0  0  0  0  0  0  0  0  0  0  0
   -1.5714    1.3600    0.4809 O   0  0  0  0  0  0  0  0  0  0  0  0
    5.9862    0.5432   -1.3492 O   0  0  0  0  0  0  0  0  0  0  0  0
   -5.8970   -0.2596    0.2686 O   0  0  0  0  0  0  0  0  0  0  0  0
   -6.0871    1.9581   -0.3162 O   0  0  0  0  0  0  0  0  0  0  0  0
    0.7008    0.4982    0.5302 C   0  0  0  0  0  0  0  0  0  0  0  0
    1.6708   -0.6512    0.2851 C   0  0  0  0  0  0  0  0  0  0  0  0
   -0.7055    0.3368   -0.0359 C   0  0  0  0  0  0  0  0  0  0  0  0
    1.2580    1.8745    0.8452 C   0  0  0  0  0  0  0  0  0  0  0  0
   -1.3290   -1.0543    0.2950 C   0  0  0  0  0  0  0  0  0  0  0  0
    3.1497   -0.3999    0.7648 C   0  0  0  0  0  0  0  0  0  0  0  0
    3.6036    1.0518    0.4063 C   0  0  0  0  0  0  0  0  0  0  0  0
    2.7137    2.1269    1.0425 C   0  0  0  0  0  0  0  0  0  0  0  0
    1.0396   -1.9532    0.8036 C   0  0  0  0  0  0  0  0  0  0  0  0
   -0.2978   -2.2065    0.1030 C   0  0  0  0  0  0  0  0  0  0  0  0
   -0.7511    0.4286   -1.5743 C   0  0  0  0  0  0  0  0  0  0  0  0
   -2.4437   -1.1945   -0.7895 C   0  0  0  0  0  0  0  0  0  0  0  0
   -1.8099   -0.5774   -2.0478 C   0  0  0  0  0  0  0  0  0  0  0  0
    4.1345   -1.3896    0.0636 C   0  0  0  0  0  0  0  0  0  0  0  0
    3.7117    1.2720   -1.1198 C   0  0  0  0  0  0  0  0  0  0  0  0
   -1.8907   -1.1412    1.7301 C   0  0  0  0  0  0  0  0  0  0  0  0
    3.3128   -0.6423    2.2862 C   0  0  0  0  0  0  0  0  0  0  0  0
    4.2905   -1.1717   -1.4438 C   0  0  0  0  0  0  0  0  0  0  0  0
    4.6545    0.2701   -1.7835 C   0  0  0  0  0  0  0  0  0  0  0  0
   -3.7507   -0.5211   -0.4836 C   0  0  0  0  0  0  0  0  0  0  0  0
   -4.8646   -1.2454    0.1616 C   0  0  0  0  0  0  0  0  0  0  0  0
   -4.0792    0.7439   -0.7319 C   0  0  0  0  0  0  0  0  0  0  0  0
   -5.4515    0.9198   -0.2541 C   0  0  0  0  0  0  0  0  0  0  0  0
  1  6  1  0
  1  9  1  0
  2  8  1  0
  3 24  1  0
  4 26  1  0
  4 28  1  0
  5 28  2  0
  6  7  1  0
  6  8  1  0
  6  9  1  0
  7 11  1  0
  7 14  1  0
  8 10  1  0
  8 16  1  0
  9 13  1  0
 10 15  1  0
 10 17  1  0
 10 21  1  0
 11 12  1  0
 11 19  1  0
 11 22  1  0
 12 13  1  0
 12 20  1  0
 14 15  1  0
 16 18  1  0
 17 18  1  0
 17 25  1  0
 19 23  1  0
 20 24  1  0
 23 24  1  0
 25 26  1  0
 25 27  2  0
 27 28  1  0
M  END
>  <PUBCHEM_COMPOUND_CID>  (1) 
23310

>  <PUBCHEM_CONFORMER_RMSD>  (1) 
0.8

>  <PUBCHEM_CONFORMER_DIVERSEORDER>  (1) 
6
8
3
14
7
1
15
13
11
17
4
10
5
2
12
16
9

>  <PUBCHEM_MMFF94_PARTIAL_CHARGES>  (1) 
20
1 -0.3
13 0.09
17 0.14
2 -0.68
24 0.28
25 -0.28
26 0.42
27 -0.14
28 0.71
3 -0.68
30 0.1
4 -0.43
5 -0.57
53 0.4
59 0.15
6 -0.04
60 0.4
7 0.09
8 0.38
9 -0.05

>  <PUBCHEM_EFFECTIVE_ROTOR_COUNT>  (1) 
3.6

>  <PUBCHEM_PHARMACOPHORE_FEATURES>  (1) 
11
1 1 acceptor
1 2 acceptor
1 2 donor
1 3 acceptor
1 3 donor
1 5 acceptor
5 4 25 26 27 28 rings
5 8 10 16 17 18 rings
6 11 12 19 20 23 24 rings
6 6 7 8 10 14 15 rings
7 1 6 7 9 11 12 13 rings

>  <PUBCHEM_HEAVY_ATOM_COUNT>  (1) 
28

>  <PUBCHEM_ATOM_DEF_STEREO_COUNT>  (1) 
7

>  <PUBCHEM_ATOM_UDEF_STEREO_COUNT>  (1) 
2

>  <PUBCHEM_BOND_DEF_STEREO_COUNT>  (1) 
0

>  <PUBCHEM_BOND_UDEF_STEREO_COUNT>  (1) 
0

>  <PUBCHEM_ISOTOPIC_ATOM_COUNT>  (1) 
0

>  <PUBCHEM_COMPONENT_COUNT>  (1) 
1

>  <PUBCHEM_CACTVS_TAUTO_COUNT>  (1) 
1

>  <PUBCHEM_CONFORMER_ID>  (1) 
00005B0E00000006

>  <PUBCHEM_MMFF94_ENERGY>  (1) 
89.1967

>  <PUBCHEM_FEATURE_SELFOVERLAP>  (1) 
56.048

>  <PUBCHEM_SHAPE_FINGERPRINT>  (1) 
10165383 225 18040720272759633142
10554248 39 17824241740925731015
11578080 2 18046072815781213584
11595378 159 14996272592345744365
11796584 16 15051734209118242941
12236239 1 18040718056239763286
12596602 18 15213022635629581717
12670546 56 14476963380353973491
12788726 201 18340491071301200064
128620 24 15140955158249030351
13224815 77 17822280314569558790
13583140 156 14475816692921371659
13782708 43 17345468362160449103
14341114 328 15285357361867398500
14790565 3 18334017181291226885
15183329 4 17704077270171243341
15210252 30 18186805811653816324
15238133 3 18336537235850337680
15475509 8 17702121199887761933
15664445 248 18260837046306619172
15788980 27 13542466479792711351
1601671 61 18410571760601095399
16752209 62 18130229263629274592
16945 1 18269272525247225162
17349148 13 14908189672172836669
1813 80 17561093497003904288
18186145 218 18338220656861220829
18470217 77 14172363866115347432
19377110 9 12396581785210751101
19862831 5 18341897415597654620
20691752 17 17459168832948340850
20775530 9 15048684078491188532
20832881 197 18272369741748640522
21033648 29 18337389443677948009
21279426 13 18343021043451181493
21285901 2 17631744755197824724
22079108 93 14057008238555880084
221357 26 18201718453358717321
22149856 69 12108075397624230997
22393880 68 18342173418601790639
23559900 14 17417810690453267504
3004659 81 18335704897813049958
340366 18 17346596421459479796
350125 39 18261386707266741864
3633792 109 15626222394543197491
376196 1 17411319320159490112
392239 28 13551200999763130125
4058900 60 18189624847887519715
4098825 35 18187651259027952566
4325135 7 15068621621321145551
474 4 13840269217081959158
5104073 3 18261663844642839713
58260988 393 14562806621442844519
633830 44 18270387395308728021
6913067 236 8718549376559970515

>  <PUBCHEM_SHAPE_MULTIPOLES>  (1) 
546.88
11.77
1.98
1.75
7.72
0.06
0.04
2.52
3.2
-0.07
-0.4
-1.57
-0.03
0.13

>  <PUBCHEM_SHAPE_SELFOVERLAP>  (1) 
1203.759

>  <PUBCHEM_SHAPE_VOLUME>  (1) 
293.4

>  <PUBCHEM_COORDINATE_TYPE>  (1) 
2
5
10

$$$$
