23332
     RDKit          3D

 22 24  0  0  1  0  0  0  0  0999 V2000
   -2.2528   -2.0670   -0.9243 O   0  0  0  0  0  0  0  0  0  0  0  0
   -0.2892    2.0604    0.1726 O   0  0  0  0  0  0  0  0  0  0  0  0
    2.5540    2.4332    0.3792 O   0  0  0  0  0  0  0  0  0  0  0  0
   -3.9844   -1.8118    0.5762 O   0  0  0  0  0  0  0  0  0  0  0  0
   -1.9321    2.3044   -1.4329 O   0  0  0  0  0  0  0  0  0  0  0  0
    1.3969    0.2695    0.2434 C   0  0  0  0  0  0  0  0  0  0  0  0
    1.9656   -0.9035   -0.6015 C   0  0  0  0  0  0  0  0  0  0  0  0
    0.1361    0.8399   -0.4390 C   0  0  0  0  0  0  0  0  0  0  0  0
   -1.0952   -0.0782   -0.5885 C   0  0  0  0  0  0  0  0  0  0  0  0
    1.4912   -2.3328   -0.3065 C   0  0  0  0  0  0  0  0  0  0  0  0
   -0.9024   -1.5344   -1.0250 C   0  0  0  0  0  0  0  0  0  0  0  0
   -0.0310   -2.4583   -0.1538 C   0  0  0  0  0  0  0  0  0  0  0  0
    2.5823    1.2344    0.1400 C   0  0  0  0  0  0  0  0  0  0  0  0
    1.2257    0.0327    1.7490 C   0  0  0  0  0  0  0  0  0  0  0  0
    3.4536   -0.6862   -0.5935 C   0  0  0  0  0  0  0  0  0  0  0  0
   -2.0942   -0.2925    0.5083 C   0  0  0  0  0  0  0  0  0  0  0  0
    2.1939   -3.0403    0.8594 C   0  0  0  0  0  0  0  0  0  0  0  0
    3.8272    0.5367   -0.2185 C   0  0  0  0  0  0  0  0  0  0  0  0
   -2.9163   -1.4625    0.1087 C   0  0  0  0  0  0  0  0  0  0  0  0
   -2.3193    0.3257    1.6695 C   0  0  0  0  0  0  0  0  0  0  0  0
   -1.3378    2.6871   -0.4342 C   0  0  0  0  0  0  0  0  0  0  0  0
   -1.6720    3.9434    0.3114 C   0  0  0  0  0  0  0  0  0  0  0  0
  1 11  1  0
  1 19  1  0
  2  8  1  0
  2 21  1  0
  3 13  2  0
  4 19  2  0
  5 21  2  0
  6  7  1  0
  6  8  1  0
  6 13  1  0
  6 14  1  0
  7 10  1  0
  7 15  1  0
  8  9  1  0
  9 11  1  0
  9 16  1  0
 10 12  1  0
 10 17  1  0
 11 12  1  0
 13 18  1  0
 15 18  2  0
 16 19  1  0
 16 20  2  0
 21 22  1  0
M  END
>  <PUBCHEM_COMPOUND_CID>  (1) 
23332

>  <PUBCHEM_CONFORMER_RMSD>  (1) 
0.6

>  <PUBCHEM_CONFORMER_DIVERSEORDER>  (1) 
1
2
3

>  <PUBCHEM_MMFF94_PARTIAL_CHARGES>  (1) 
22
1 -0.43
11 0.28
13 0.49
15 -0.29
16 -0.12
18 -0.14
19 0.71
2 -0.43
20 -0.3
21 0.66
22 0.06
3 -0.57
33 0.15
37 0.15
38 0.15
39 0.15
4 -0.57
5 -0.57
6 0.06
7 0.14
8 0.28
9 0.14

>  <PUBCHEM_EFFECTIVE_ROTOR_COUNT>  (1) 
2.8

>  <PUBCHEM_PHARMACOPHORE_FEATURES>  (1) 
6
1 3 acceptor
1 4 acceptor
1 5 acceptor
5 1 9 11 16 19 rings
5 6 7 13 15 18 rings
7 6 7 8 9 10 11 12 rings

>  <PUBCHEM_HEAVY_ATOM_COUNT>  (1) 
22

>  <PUBCHEM_ATOM_DEF_STEREO_COUNT>  (1) 
6

>  <PUBCHEM_ATOM_UDEF_STEREO_COUNT>  (1) 
0

>  <PUBCHEM_BOND_DEF_STEREO_COUNT>  (1) 
0

>  <PUBCHEM_BOND_UDEF_STEREO_COUNT>  (1) 
0

>  <PUBCHEM_ISOTOPIC_ATOM_COUNT>  (1) 
0

>  <PUBCHEM_COMPONENT_COUNT>  (1) 
1

>  <PUBCHEM_CACTVS_TAUTO_COUNT>  (1) 
3

>  <PUBCHEM_CONFORMER_ID>  (1) 
00005B2400000001

>  <PUBCHEM_MMFF94_ENERGY>  (1) 
80.9011

>  <PUBCHEM_FEATURE_SELFOVERLAP>  (1) 
30.529

>  <PUBCHEM_SHAPE_FINGERPRINT>  (1) 
10382601 240 18339663203242900602
104564 63 18411421669988329622
10863032 1 18118688708153877518
10967382 1 18051412074019859996
1100329 8 17474391751781315120
11578080 2 17487870428787500457
12035758 1 17690001128748673089
12553582 1 18338791346435640022
12716301 132 18196911328349964208
13132413 78 18127416867810149077
13140716 1 18193554704182079322
13965767 371 17697078822899630769
14178342 30 18265319630674379560
14223421 5 18411985719511491822
14790565 3 18048611600809383429
14955137 171 17832447636120072017
15209289 33 18270691960378119066
16945 1 18411696574055473918
17357779 13 18338784711111952013
17492 54 17541087010520206172
18981168 100 18270383997994969008
19591789 44 18339365278789261758
20510252 161 18340766035223293848
20511035 2 17911213050046601382
20691752 17 18335718164275937323
20905425 154 18341055120686939382
21421861 104 18187364264264360299
21501502 16 18192711133438424414
2334 1 17907015428284429646
23402539 116 18127402582659407774
23419403 2 14076593869346439123
23558518 356 18117562825384900817
23566358 2 18128268800601909158
238 59 17761476007610474301
2748010 2 18340476824677829644
2871803 45 18410574006732159710
350125 39 18266745675200357094
484989 97 18048036273270969671
589210 1 18264769857226785460
59554788 170 18269566077508545780
6443956 14 18265616674828468693
6992083 37 18127428940852311953
81228 2 18113626651156655361

>  <PUBCHEM_SHAPE_MULTIPOLES>  (1) 
423.4
5.22
3.9
1.18
1.06
1.43
0.29
-0.36
0.26
-1.71
-0.08
-0.3
-0.06
0.12

>  <PUBCHEM_SHAPE_SELFOVERLAP>  (1) 
912.949

>  <PUBCHEM_SHAPE_VOLUME>  (1) 
231.7

>  <PUBCHEM_COORDINATE_TYPE>  (1) 
2
5
10

$$$$
