23347
     RDKit          3D

 12 13  0  0  0  0  0  0  0  0999 V2000
   -2.0624   -0.8833   -1.3047 S   0  0  0  0  0  0  0  0  0  0  0  0
    2.0678   -0.8556    1.3254 S   0  0  0  0  0  0  0  0  0  0  0  0
   -0.6205    1.7398   -0.8269 S   0  0  0  0  0  0  0  0  0  0  0  0
    0.6320    1.7646    0.8138 S   0  0  0  0  0  0  0  0  0  0  0  0
   -1.8118    0.5338   -0.3765 C   0  0  0  0  0  0  0  0  0  0  0  0
    1.8328    0.5240    0.3658 C   0  0  0  0  0  0  0  0  0  0  0  0
   -2.6425    0.5865    0.7211 C   0  0  0  0  0  0  0  0  0  0  0  0
    2.6312    0.5725   -0.7346 C   0  0  0  0  0  0  0  0  0  0  0  0
   -3.4959   -0.5517    0.8013 C   0  0  0  0  0  0  0  0  0  0  0  0
    3.4786   -0.5709   -0.8025 C   0  0  0  0  0  0  0  0  0  0  0  0
   -3.2850   -1.4307   -0.2380 C   0  0  0  0  0  0  0  0  0  0  0  0
    3.2757   -1.4290    0.2558 C   0  0  0  0  0  0  0  0  0  0  0  0
  1  5  1  0
  1 11  1  0
  2  6  1  0
  2 12  1  0
  3  4  1  0
  3  5  1  0
  4  6  1  0
  5  7  2  0
  6  8  2  0
  7  9  1  0
  8 10  1  0
  9 11  2  0
 10 12  2  0
M  END
>  <PUBCHEM_COMPOUND_CID>  (1) 
23347

>  <PUBCHEM_CONFORMER_RMSD>  (1) 
0.6

>  <PUBCHEM_CONFORMER_DIVERSEORDER>  (1) 
1
53
51
12
32
49
47
45
2
33
9
48
52
46
3
39
18
11
37
31
36
19
28
35
42
44
5
43
38
56
30
15
54
41
4
27
14
29
6
26
17
50
25
40
21
20
22
34
24
57
23
55
10
7
8
16
13

>  <PUBCHEM_MMFF94_PARTIAL_CHARGES>  (1) 
18
1 -0.08
10 -0.15
11 -0.11
12 -0.11
13 0.15
14 0.15
15 0.15
16 0.15
17 0.15
18 0.15
2 -0.08
3 -0.06
4 -0.06
5 0.1
6 0.1
7 -0.15
8 -0.15
9 -0.15

>  <PUBCHEM_EFFECTIVE_ROTOR_COUNT>  (1) 
3

>  <PUBCHEM_PHARMACOPHORE_FEATURES>  (1) 
2
5 1 5 7 9 11 rings
5 2 6 8 10 12 rings

>  <PUBCHEM_HEAVY_ATOM_COUNT>  (1) 
12

>  <PUBCHEM_ATOM_DEF_STEREO_COUNT>  (1) 
0

>  <PUBCHEM_ATOM_UDEF_STEREO_COUNT>  (1) 
0

>  <PUBCHEM_BOND_DEF_STEREO_COUNT>  (1) 
0

>  <PUBCHEM_BOND_UDEF_STEREO_COUNT>  (1) 
0

>  <PUBCHEM_ISOTOPIC_ATOM_COUNT>  (1) 
0

>  <PUBCHEM_COMPONENT_COUNT>  (1) 
1

>  <PUBCHEM_CACTVS_TAUTO_COUNT>  (1) 
1

>  <PUBCHEM_CONFORMER_ID>  (1) 
00005B3300000001

>  <PUBCHEM_MMFF94_ENERGY>  (1) 
2.6623

>  <PUBCHEM_FEATURE_SELFOVERLAP>  (1) 
10.149

>  <PUBCHEM_SHAPE_FINGERPRINT>  (1) 
10618630 7 18408602556581786516
12932764 1 18410568487598853357
13296908 3 18410567392382218877
14123260 362 9655287181051059866
15239191 94 18410856563945611699
15276787 5 15698005114974455692
15375462 189 18412830200428984592
18186145 218 12973885866779356320
18522851 12 18410583880756347979
19107657 9 9295009119256026426
192875 21 9078835121693008019
19422 9 18410584980267917285
19766037 51 18186805798372450171
20281407 28 18409165506514316645
20291156 8 18410577283686347459
20361792 2 18336256916357044445
20442098 301 17845648269564911767
20645477 70 18266447884054267999
20711983 138 17632292320192996601
20711985 344 17604971647040522693
21713013 43 17240204339319570531
21731516 1 18410282618865174725
22169311 14 15913329091307367819
22445834 79 18057885938523558829
22485316 2 18410573985156972741
23402539 116 17240482477644470220
23557571 272 15574978611575268973
305870 269 9943537301162468348
449060 23 18411421712937833565
5262128 65 15213307374264362710
94968 8 18261393402878104875

>  <PUBCHEM_SHAPE_MULTIPOLES>  (1) 
262.35
6.72
1.82
1.31
0.07
0.39
0
-3.3
-0.03
0
0
-0.01
-0.07
-0.27

>  <PUBCHEM_SHAPE_SELFOVERLAP>  (1) 
500.168

>  <PUBCHEM_SHAPE_VOLUME>  (1) 
163.9

>  <PUBCHEM_COORDINATE_TYPE>  (1) 
2
5
10

$$$$
