23365
     RDKit          3D

  9  8  0  0  0  0  0  0  0  0999 V2000
   -1.7323   -0.4440   -0.0013 O   0  0  0  0  0  0  0  0  0  0  0  0
   -0.5760    1.5524    0.0102 O   0  0  0  0  0  0  0  0  0  0  0  0
    4.3580    0.0691   -0.0157 N   0  0  0  0  0  0  0  0  0  0  0  0
    1.9121    0.2215   -0.0162 C   0  0  0  0  0  0  0  0  0  0  0  0
    0.6066   -0.5729    0.0025 C   0  0  0  0  0  0  0  0  0  0  0  0
    3.1241   -0.7070    0.0236 C   0  0  0  0  0  0  0  0  0  0  0  0
   -0.6062    0.3295    0.0044 C   0  0  0  0  0  0  0  0  0  0  0  0
   -2.9716    0.2720   -0.0004 C   0  0  0  0  0  0  0  0  0  0  0  0
   -4.1146   -0.7206   -0.0071 C   0  0  0  0  0  0  0  0  0  0  0  0
  1  7  1  0
  1  8  1  0
  2  7  2  0
  3  6  1  0
  4  5  1  0
  4  6  1  0
  5  7  1  0
  8  9  1  0
M  END
>  <PUBCHEM_COMPOUND_CID>  (1) 
23365

>  <PUBCHEM_CONFORMER_RMSD>  (1) 
0.6

>  <PUBCHEM_CONFORMER_DIVERSEORDER>  (1) 
1
88
33
50
83
17
56
79
6
44
86
7
41
68
81
84
75
39
48
69
74
77
19
18
80
57
72
11
3
87
13
67
31
16
45
70
59
78
10
65
38
9
23
49
66
28
5
15
12
22
8
64
58
85
52
61
63
20
46
34
27
4
24
2
55
32
73
29
71
26
51
76
21
40
14
30
42
53
54
62
47
43
25
36
60
82
37
35

>  <PUBCHEM_MMFF94_PARTIAL_CHARGES>  (1) 
9
1 -0.43
18 0.36
19 0.36
2 -0.57
3 -0.99
5 0.06
6 0.27
7 0.66
8 0.28

>  <PUBCHEM_EFFECTIVE_ROTOR_COUNT>  (1) 
5

>  <PUBCHEM_PHARMACOPHORE_FEATURES>  (1) 
3
1 2 acceptor
1 3 cation
1 3 donor

>  <PUBCHEM_HEAVY_ATOM_COUNT>  (1) 
9

>  <PUBCHEM_ATOM_DEF_STEREO_COUNT>  (1) 
0

>  <PUBCHEM_ATOM_UDEF_STEREO_COUNT>  (1) 
0

>  <PUBCHEM_BOND_DEF_STEREO_COUNT>  (1) 
0

>  <PUBCHEM_BOND_UDEF_STEREO_COUNT>  (1) 
0

>  <PUBCHEM_ISOTOPIC_ATOM_COUNT>  (1) 
0

>  <PUBCHEM_COMPONENT_COUNT>  (1) 
1

>  <PUBCHEM_CACTVS_TAUTO_COUNT>  (1) 
1

>  <PUBCHEM_CONFORMER_ID>  (1) 
00005B4500000001

>  <PUBCHEM_MMFF94_ENERGY>  (1) 
-0.31

>  <PUBCHEM_FEATURE_SELFOVERLAP>  (1) 
15.223

>  <PUBCHEM_SHAPE_FINGERPRINT>  (1) 
11062470 55 14490192708701768198
12932764 1 14764053503266181330
14325111 11 18338517443712885058
20719005 15 18410855473081797859
21293036 1 17967250909775176566
22485316 2 18411414007956655391

>  <PUBCHEM_SHAPE_MULTIPOLES>  (1) 
168.5
7.51
1
0.59
1.01
0.22
0
-1.63
-0.02
-0.22
0
-0.02
-0.01
-0.01

>  <PUBCHEM_SHAPE_SELFOVERLAP>  (1) 
304.133

>  <PUBCHEM_SHAPE_VOLUME>  (1) 
108.7

>  <PUBCHEM_COORDINATE_TYPE>  (1) 
2
5
10

$$$$
