23369
     RDKit          3D

 17 19  0  0  0  0  0  0  0  0999 V2000
   -5.7369    0.5032   -0.0007 Cl  0  0  0  0  0  0  0  0  0  0  0  0
    4.9998   -0.7849    0.0005 O   0  0  0  0  0  0  0  0  0  0  0  0
    4.6288    1.3788   -0.0002 O   0  0  0  0  0  0  0  0  0  0  0  0
    4.2157    0.1943    0.0002 N   0  0  0  0  0  0  0  0  0  0  0  0
   -0.5775    1.7433    0.0001 C   0  0  0  0  0  0  0  0  0  0  0  0
    0.5732    0.7586   -0.0002 C   0  0  0  0  0  0  0  0  0  0  0  0
    0.0884   -0.5687   -0.0003 C   0  0  0  0  0  0  0  0  0  0  0  0
   -1.7760    0.8175    0.0001 C   0  0  0  0  0  0  0  0  0  0  0  0
   -1.3583   -0.5325   -0.0001 C   0  0  0  0  0  0  0  0  0  0  0  0
    1.9295    1.0330   -0.0002 C   0  0  0  0  0  0  0  0  0  0  0  0
    0.9675   -1.6387   -0.0003 C   0  0  0  0  0  0  0  0  0  0  0  0
   -3.1170    1.1594    0.0005 C   0  0  0  0  0  0  0  0  0  0  0  0
   -2.2899   -1.5571    0.0001 C   0  0  0  0  0  0  0  0  0  0  0  0
    2.8155   -0.0458   -0.0002 C   0  0  0  0  0  0  0  0  0  0  0  0
    2.3393   -1.3683   -0.0001 C   0  0  0  0  0  0  0  0  0  0  0  0
   -4.0558    0.1263    0.0005 C   0  0  0  0  0  0  0  0  0  0  0  0
   -3.6465   -1.2184    0.0002 C   0  0  0  0  0  0  0  0  0  0  0  0
  1 16  1  0
  2  4  1  0
  3  4  2  0
  4 14  1  0
  5  6  1  0
  5  8  1  0
  6  7  2  0
  6 10  1  0
  7  9  1  0
  7 11  1  0
  8  9  2  0
  8 12  1  0
  9 13  1  0
 10 14  2  0
 11 15  2  0
 12 16  2  0
 13 17  2  0
 14 15  1  0
 16 17  1  0
M  CHG  2   2  -1   4   1
M  END
>  <PUBCHEM_COMPOUND_CID>  (1) 
23369

>  <PUBCHEM_CONFORMER_RMSD>  (1) 
0.6

>  <PUBCHEM_CONFORMER_DIVERSEORDER>  (1) 
1

>  <PUBCHEM_MMFF94_PARTIAL_CHARGES>  (1) 
21
1 -0.18
10 -0.15
11 -0.15
12 -0.15
13 -0.15
14 0.13
15 -0.15
16 0.18
17 -0.15
2 -0.52
20 0.15
21 0.15
22 0.15
23 0.15
24 0.15
25 0.15
3 -0.52
4 0.91
5 0.29
6 -0.14
8 -0.14

>  <PUBCHEM_EFFECTIVE_ROTOR_COUNT>  (1) 
1.2

>  <PUBCHEM_PHARMACOPHORE_FEATURES>  (1) 
6
1 2 acceptor
1 2 anion
1 3 acceptor
5 5 6 7 8 9 rings
6 6 7 10 11 14 15 rings
6 8 9 12 13 16 17 rings

>  <PUBCHEM_HEAVY_ATOM_COUNT>  (1) 
17

>  <PUBCHEM_ATOM_DEF_STEREO_COUNT>  (1) 
0

>  <PUBCHEM_ATOM_UDEF_STEREO_COUNT>  (1) 
0

>  <PUBCHEM_BOND_DEF_STEREO_COUNT>  (1) 
0

>  <PUBCHEM_BOND_UDEF_STEREO_COUNT>  (1) 
0

>  <PUBCHEM_ISOTOPIC_ATOM_COUNT>  (1) 
0

>  <PUBCHEM_COMPONENT_COUNT>  (1) 
1

>  <PUBCHEM_CACTVS_TAUTO_COUNT>  (1) 
1

>  <PUBCHEM_CONFORMER_ID>  (1) 
00005B4900000001

>  <PUBCHEM_MMFF94_ENERGY>  (1) 
57.3757

>  <PUBCHEM_FEATURE_SELFOVERLAP>  (1) 
30.692

>  <PUBCHEM_SHAPE_FINGERPRINT>  (1) 
10608611 8 18410570665215935173
10967382 1 18410856534007350215
11132069 177 18410571803371394400
11401426 45 18411416228538883613
11471102 20 18411416202515872327
11806522 49 18338233872591855887
12236239 1 17894349977528723121
12251169 10 18411702084493044957
12403814 3 17749106678033675389
13140716 1 18266744760726011081
13214271 11 18411980295226259943
13288520 33 18412829066620902486
13380535 76 18410014329491154627
13862211 1 18410851053497328647
14115302 16 18114191855603520719
15196674 1 18410575123323111302
15375358 24 18411139130055005639
15536298 74 18342459210067983174
16945 1 18338798896982670149
17804303 29 18341614853836157449
18522853 276 18412826880509026473
19141452 34 18272089418187395951
200 152 18060697308346458855
20510252 161 18200595774703805305
20645477 70 18200594687628835991
21029758 11 18343579651250987617
21267235 1 18410583868008654603
23402539 116 18272926129403451333
23402655 69 18342168926524746821
23463225 33 18408322185337765927
23557571 272 18340210682866559436
23559900 14 18341330072177792560
26918003 58 17967817150032223587
2748010 2 18122621914570342341
2871803 45 18335981986936801478
296302 2 18411420613748030551
3312278 4 18411983563627579523
335352 9 18410575076099518527
34934 24 18410569587527219031
3545911 37 18409450271488593711
4072396 5 18336532846647040066
4214541 1 18410856529701937349
4340502 62 16660650626921787387
4463277 17 18410857651236936881
474 4 17169277133967399660
4990 188 18060146414376793782
5104073 3 18410292535960434450
69090 78 18341890784363568871
7364860 26 18269556031548846406
77779 3 18411420609315893698
8809292 202 18260833751755180587
9709674 26 18411143536522997150

>  <PUBCHEM_SHAPE_MULTIPOLES>  (1) 
335
9.81
1.7
0.6
0.16
0.11
0
-0.89
0
0.08
0
-0.09
0
0

>  <PUBCHEM_SHAPE_SELFOVERLAP>  (1) 
742.292

>  <PUBCHEM_SHAPE_VOLUME>  (1) 
181.9

>  <PUBCHEM_COORDINATE_TYPE>  (1) 
2
5
10

$$$$
