2338
     RDKit          3D

 27 27  0  0  1  0  0  0  0  0999 V2000
   -1.0041    2.0907    1.1010 O   0  0  0  0  0  0  0  0  0  0  0  0
    2.8650    0.3914   -0.5306 O   0  0  0  0  0  0  0  0  0  0  0  0
    1.8207    0.8170   -2.5315 O   0  0  0  0  0  0  0  0  0  0  0  0
   -4.8472    1.0921    0.6438 O   0  0  0  0  0  0  0  0  0  0  0  0
    0.6450    0.7476   -0.5319 N   0  0  0  0  0  0  0  0  0  0  0  0
   -2.6644    2.2829   -0.5085 N   0  0  0  0  0  0  0  0  0  0  0  0
   -2.8363   -3.2898    0.3412 N   0  0  0  0  0  0  0  0  0  0  0  0
   -5.0186   -4.1929   -0.1869 N   0  0  0  0  0  0  0  0  0  0  0  0
   -3.4167   -5.5148    0.9516 N   0  0  0  0  0  0  0  0  0  0  0  0
   -1.4088   -0.2532   -1.4665 C   0  0  0  0  0  0  0  0  0  0  0  0
   -0.6698    1.0253   -1.0512 C   0  0  0  0  0  0  0  0  0  0  0  0
   -1.7312   -1.1964   -0.2992 C   0  0  0  0  0  0  0  0  0  0  0  0
   -2.5201   -2.4141   -0.7811 C   0  0  0  0  0  0  0  0  0  0  0  0
   -1.4440    1.8398   -0.0192 C   0  0  0  0  0  0  0  0  0  0  0  0
   -3.5645    3.1042    0.2669 C   0  0  0  0  0  0  0  0  0  0  0  0
   -3.5928   -4.4773   -0.0609 C   0  0  0  0  0  0  0  0  0  0  0  0
   -4.4122    4.0026   -0.6155 C   0  0  0  0  0  0  0  0  0  0  0  0
    1.7801    0.6665   -1.3147 C   0  0  0  0  0  0  0  0  0  0  0  0
   -4.4427    2.1691    1.0823 C   0  0  0  0  0  0  0  0  0  0  0  0
   -4.8471    2.6489    2.4526 C   0  0  0  0  0  0  0  0  0  0  0  0
    4.1178    0.2789   -1.2151 C   0  0  0  0  0  0  0  0  0  0  0  0
    5.1962   -0.0228   -0.2165 C   0  0  0  0  0  0  0  0  0  0  0  0
    5.8869    1.0202    0.4007 C   0  0  0  0  0  0  0  0  0  0  0  0
    5.5081   -1.3463    0.0952 C   0  0  0  0  0  0  0  0  0  0  0  0
    6.8893    0.7400    1.3292 C   0  0  0  0  0  0  0  0  0  0  0  0
    6.5104   -1.6264    1.0239 C   0  0  0  0  0  0  0  0  0  0  0  0
    7.2010   -0.5833    1.6408 C   0  0  0  0  0  0  0  0  0  0  0  0
  1 14  2  0
  2 18  1  0
  2 21  1  0
  3 18  2  0
  4 19  2  0
  5 11  1  0
  5 18  1  0
  6 14  1  0
  6 15  1  0
  7 13  1  0
  7 16  1  0
  8 16  1  0
  9 16  1  0
 10 11  1  0
 10 12  1  0
 11 14  1  0
 12 13  1  0
 15 17  1  0
 15 19  1  0
 19 20  1  0
 21 22  1  0
 22 23  2  0
 22 24  1  0
 23 25  1  0
 24 26  2  0
 25 27  2  0
 26 27  1  0
M  END
>  <PUBCHEM_COMPOUND_CID>  (1) 
2338

>  <PUBCHEM_CONFORMER_RMSD>  (1) 
1.2

>  <PUBCHEM_CONFORMER_DIVERSEORDER>  (1) 
1
101
46
68
7
111
142
28
41
59
121
104
131
74
40
145
23
134
102
82
95
112
123
67
118
6
117
135
128
56
61
26
24
126
149
137
65
60
77
34
98
5
81
122
44
71
76
132
92
37
120
136
4
138
22
113
51
66
125
91
78
3
45
32
70
110
72
89
36
143
127
49
133
90
124
100
8
55
141
83
94
47
109
57
19
84
86
140
108
13
25
115
63
147
85
80
130
105
97
27
99
29
87
62
39
129
114
148
54
17
52
73
69
14
2
79
96
38
12
48
106
64
144
33
50
103
58
119
20
75
11
35
53
43
88
16
116
139
9
30
31
146
93
107
18
10
15
42
21

>  <PUBCHEM_MMFF94_PARTIAL_CHARGES>  (1) 
36
1 -0.57
11 0.36
13 0.27
14 0.57
15 0.36
16 0.81
18 0.78
19 0.45
2 -0.43
20 0.06
21 0.42
22 -0.14
23 -0.15
24 -0.15
25 -0.15
26 -0.15
27 -0.15
3 -0.57
35 0.37
37 0.37
38 0.36
4 -0.57
46 0.36
47 0.36
48 0.36
49 0.36
5 -0.73
52 0.15
53 0.15
54 0.15
55 0.15
56 0.15
6 -0.73
7 -0.9
8 -0.99
9 -0.99

>  <PUBCHEM_EFFECTIVE_ROTOR_COUNT>  (1) 
14

>  <PUBCHEM_PHARMACOPHORE_FEATURES>  (1) 
12
1 1 acceptor
1 3 acceptor
1 4 acceptor
1 5 donor
1 6 donor
1 7 cation
1 7 donor
1 8 cation
1 8 donor
1 9 cation
1 9 donor
6 22 23 24 25 26 27 rings

>  <PUBCHEM_HEAVY_ATOM_COUNT>  (1) 
27

>  <PUBCHEM_ATOM_DEF_STEREO_COUNT>  (1) 
0

>  <PUBCHEM_ATOM_UDEF_STEREO_COUNT>  (1) 
2

>  <PUBCHEM_BOND_DEF_STEREO_COUNT>  (1) 
0

>  <PUBCHEM_BOND_UDEF_STEREO_COUNT>  (1) 
0

>  <PUBCHEM_ISOTOPIC_ATOM_COUNT>  (1) 
0

>  <PUBCHEM_COMPONENT_COUNT>  (1) 
1

>  <PUBCHEM_CACTVS_TAUTO_COUNT>  (1) 
12

>  <PUBCHEM_CONFORMER_ID>  (1) 
0000092200000001

>  <PUBCHEM_MMFF94_ENERGY>  (1) 
40.0566

>  <PUBCHEM_FEATURE_SELFOVERLAP>  (1) 
61.099

>  <PUBCHEM_SHAPE_FINGERPRINT>  (1) 
10074138 170 18412545409916921319
10319688 67 18201442450312442177
10838868 229 18192715544624168994
10906281 52 17131838621039031256
11399510 152 18129930300342618970
12523318 42 18341890818575581570
12616971 3 17748828497629346068
13052359 8 18411426094495643749
13540713 4 17702685288487507214
13540713 5 18115603676174306524
13782708 43 13407090184254469280
14844126 61 18341608273909804439
14866123 147 18409168818446155739
15021287 119 17458351826994572621
15348495 7 18343294865249942408
15950262 2 15192788220259071849
16994733 274 15768927931994171137
21033648 29 18196378009129076412
21639891 77 18130506426601401129
22122407 14 16558739123305557968
22224240 67 18128827357020427921
255183 313 18338530651133180489
312425 54 18338222775340634890
4073 2 18411976945921986602
484985 159 18334288803929712015
5104073 3 18340757209719342808
563151 248 18261118434776971658
56633871 153 18042401332007976022
5924683 9 18408598184748242974
6691757 9 18340201895199700860
9981440 41 17417245425306862716

>  <PUBCHEM_SHAPE_MULTIPOLES>  (1) 
507.27
17.68
5.83
1.71
31.16
9.26
-0.11
-0.45
-9.47
-16.68
-1.52
0.16
-0.82
-1.27

>  <PUBCHEM_SHAPE_SELFOVERLAP>  (1) 
1011.758

>  <PUBCHEM_SHAPE_VOLUME>  (1) 
297.6

>  <PUBCHEM_COORDINATE_TYPE>  (1) 
2
5
10

$$$$
