23387
     RDKit          3D

 17 18  0  0  0  0  0  0  0  0999 V2000
    3.8016    2.7944   -0.3702 Cl  0  0  0  0  0  0  0  0  0  0  0  0
    1.5905   -2.6320    0.0297 O   0  0  0  0  0  0  0  0  0  0  0  0
    0.3140   -0.5557    1.5196 C   0  0  0  0  0  0  0  0  0  0  0  0
   -0.9883   -0.3971    0.8107 C   0  0  0  0  0  0  0  0  0  0  0  0
   -2.8338    0.9962    0.1105 C   0  0  0  0  0  0  0  0  0  0  0  0
    1.5255   -0.3155    0.6415 C   0  0  0  0  0  0  0  0  0  0  0  0
   -1.6158    0.8482    0.7741 C   0  0  0  0  0  0  0  0  0  0  0  0
   -3.4242   -0.1012   -0.5165 C   0  0  0  0  0  0  0  0  0  0  0  0
   -1.5789   -1.4943    0.1837 C   0  0  0  0  0  0  0  0  0  0  0  0
   -2.7968   -1.3465   -0.4798 C   0  0  0  0  0  0  0  0  0  0  0  0
    2.0944   -1.3687   -0.0524 C   0  0  0  0  0  0  0  0  0  0  0  0
    2.0350    0.9686    0.5564 C   0  0  0  0  0  0  0  0  0  0  0  0
   -3.4884    2.3385    0.0859 C   0  0  0  0  0  0  0  0  0  0  0  0
   -4.7282    0.0329   -1.2325 C   0  0  0  0  0  0  0  0  0  0  0  0
    3.2084   -1.1309   -0.8571 C   0  0  0  0  0  0  0  0  0  0  0  0
    3.1492    1.2065   -0.2484 C   0  0  0  0  0  0  0  0  0  0  0  0
    3.7360    0.1567   -0.9551 C   0  0  0  0  0  0  0  0  0  0  0  0
  1 16  1  0
  2 11  1  0
  3  4  1  0
  3  6  1  0
  4  7  1  0
  4  9  2  0
  5  7  2  0
  5  8  1  0
  5 13  1  0
  6 11  2  0
  6 12  1  0
  8 10  2  0
  8 14  1  0
  9 10  1  0
 11 15  1  0
 12 16  2  0
 15 17  2  0
 16 17  1  0
M  END
>  <PUBCHEM_COMPOUND_CID>  (1) 
23387

>  <PUBCHEM_CONFORMER_RMSD>  (1) 
0.6

>  <PUBCHEM_CONFORMER_DIVERSEORDER>  (1) 
2
13
11
5
3
7
10
14
1
12
6
4
9
8

>  <PUBCHEM_MMFF94_PARTIAL_CHARGES>  (1) 
24
1 -0.18
10 -0.15
11 0.08
12 -0.15
13 0.14
14 0.14
15 -0.15
16 0.18
17 -0.15
2 -0.53
20 0.15
21 0.15
22 0.15
23 0.15
3 0.29
30 0.15
31 0.15
32 0.45
4 -0.14
5 -0.14
6 -0.14
7 -0.15
8 -0.14
9 -0.15

>  <PUBCHEM_EFFECTIVE_ROTOR_COUNT>  (1) 
2

>  <PUBCHEM_PHARMACOPHORE_FEATURES>  (1) 
3
1 2 donor
6 4 5 7 8 9 10 rings
6 6 11 12 15 16 17 rings

>  <PUBCHEM_HEAVY_ATOM_COUNT>  (1) 
17

>  <PUBCHEM_ATOM_DEF_STEREO_COUNT>  (1) 
0

>  <PUBCHEM_ATOM_UDEF_STEREO_COUNT>  (1) 
0

>  <PUBCHEM_BOND_DEF_STEREO_COUNT>  (1) 
0

>  <PUBCHEM_BOND_UDEF_STEREO_COUNT>  (1) 
0

>  <PUBCHEM_ISOTOPIC_ATOM_COUNT>  (1) 
0

>  <PUBCHEM_COMPONENT_COUNT>  (1) 
1

>  <PUBCHEM_CACTVS_TAUTO_COUNT>  (1) 
3

>  <PUBCHEM_CONFORMER_ID>  (1) 
00005B5B00000002

>  <PUBCHEM_MMFF94_ENERGY>  (1) 
46.7692

>  <PUBCHEM_FEATURE_SELFOVERLAP>  (1) 
15.223

>  <PUBCHEM_SHAPE_FINGERPRINT>  (1) 
10498660 4 18333728056919616389
10608611 8 18409171029979390000
10756046 5 18271529701774330814
11265709 11 17539688002713727490
11543360 7 18272088326817062877
11552529 35 11747235579233092913
11715629 250 18333728018011761437
12173636 292 18410008832402157183
12363563 72 15195279789988711506
12670546 177 18130790083157480837
12696612 119 8358252640337032418
12707595 3 15841544171916060171
12714826 92 12606867811738541082
12892183 10 10881690134447848830
13103583 49 10666042867489990092
13464514 151 18261120630021938290
14250199 8 18409735036310110720
15239191 94 13039194705527157332
15527383 91 7925645392668887180
16752209 62 16702020821210936107
1813 80 16955043623829335570
18186145 218 17749394723851295779
19862831 5 17988647375944696034
200 152 17704354363875065178
20361792 2 14692571017870112835
20671657 53 16057160601183268754
20871999 31 18201717345404601125
21864079 5 18261392192009077041
22393880 68 18343308076257881326
231179 274 17385716998083972972
23402655 69 18340774732357910396
23557571 272 17897734385993793227
23559900 14 17987795207848224338
25 1 18187938231088333794
2748010 2 17118596416156801770
3060560 45 18411417311124181470
3082319 5 18342458123219522763
4028521 119 18187078460245295533
4371632 12 12459067332077156920
474 4 17749676289107008228
5262128 65 17703250445943269972
5281201 14 18341338811792538476
58051976 378 18342735269043304876
633830 44 18262516979861566689
7832392 63 18338239254059504545
81228 2 16155993605486530251
93112 12 18341333318487129607
9709674 26 18342182141458959367
9981440 41 18117554252867127032

>  <PUBCHEM_SHAPE_MULTIPOLES>  (1) 
345.85
8.4
2.44
1.1
2.1
0.71
-0.07
3.4
3.49
-1.26
0.14
0.12
-0.09
-0.23

>  <PUBCHEM_SHAPE_SELFOVERLAP>  (1) 
732.825

>  <PUBCHEM_SHAPE_VOLUME>  (1) 
196

>  <PUBCHEM_COORDINATE_TYPE>  (1) 
2
5
10

$$$$
