23380
     RDKit          3D

 26 27  0  0  1  0  0  0  0  0999 V2000
    5.7184   -2.8383    0.8788 Cl  0  0  0  0  0  0  0  0  0  0  0  0
   -5.7128   -2.6945   -1.1002 Cl  0  0  0  0  0  0  0  0  0  0  0  0
    2.2323   -1.4058   -0.5462 N   0  0  0  0  0  0  0  0  0  0  0  0
   -2.3064   -1.3630    0.5903 N   0  0  0  0  0  0  0  0  0  0  0  0
    0.0491   -2.5815   -0.6709 C   0  0  0  0  0  0  0  0  0  0  0  0
   -0.1914   -2.5778    0.8423 C   0  0  0  0  0  0  0  0  0  0  0  0
    1.5305   -2.5784   -1.0544 C   0  0  0  0  0  0  0  0  0  0  0  0
   -1.6863   -2.5533    1.1605 C   0  0  0  0  0  0  0  0  0  0  0  0
    1.9773   -0.2428   -1.3981 C   0  0  0  0  0  0  0  0  0  0  0  0
   -2.0818   -0.2014    1.4525 C   0  0  0  0  0  0  0  0  0  0  0  0
    3.6707   -1.6641   -0.4575 C   0  0  0  0  0  0  0  0  0  0  0  0
   -3.7407   -1.5754    0.3883 C   0  0  0  0  0  0  0  0  0  0  0  0
    2.2607    1.0505   -0.6812 C   0  0  0  0  0  0  0  0  0  0  0  0
   -2.2641    1.0939    0.7072 C   0  0  0  0  0  0  0  0  0  0  0  0
    3.9691   -2.5356    0.7527 C   0  0  0  0  0  0  0  0  0  0  0  0
   -3.9701   -2.4474   -0.8364 C   0  0  0  0  0  0  0  0  0  0  0  0
    2.6877    2.1673   -1.3998 C   0  0  0  0  0  0  0  0  0  0  0  0
   -2.7097    2.2303    1.3825 C   0  0  0  0  0  0  0  0  0  0  0  0
    2.0960    1.1322    0.7017 C   0  0  0  0  0  0  0  0  0  0  0  0
   -1.9869    1.1580   -0.6584 C   0  0  0  0  0  0  0  0  0  0  0  0
    2.9501    3.3655   -0.7359 C   0  0  0  0  0  0  0  0  0  0  0  0
   -2.8784    3.4306    0.6921 C   0  0  0  0  0  0  0  0  0  0  0  0
    2.3584    2.3306    1.3656 C   0  0  0  0  0  0  0  0  0  0  0  0
   -2.1556    2.3585   -1.3487 C   0  0  0  0  0  0  0  0  0  0  0  0
    2.7854    3.4472    0.6467 C   0  0  0  0  0  0  0  0  0  0  0  0
   -2.6014    3.4947   -0.6733 C   0  0  0  0  0  0  0  0  0  0  0  0
  1 15  1  0
  2 16  1  0
  3  7  1  0
  3  9  1  0
  3 11  1  0
  4  8  1  0
  4 10  1  0
  4 12  1  0
  5  6  1  0
  5  7  1  0
  6  8  1  0
  9 13  1  0
 10 14  1  0
 11 15  1  0
 12 16  1  0
 13 17  2  0
 13 19  1  0
 14 18  2  0
 14 20  1  0
 17 21  1  0
 18 22  1  0
 19 23  2  0
 20 24  2  0
 21 25  2  0
 22 26  2  0
 23 25  1  0
 24 26  1  0
M  END
>  <PUBCHEM_COMPOUND_CID>  (1) 
23380

>  <PUBCHEM_CONFORMER_RMSD>  (1) 
1.2

>  <PUBCHEM_CONFORMER_DIVERSEORDER>  (1) 
1
116
62
142
74
61
15
89
161
102
130
203
45
24
7
195
97
131
84
20
117
186
38
99
16
134
85
80
32
98
65
157
155
31
78
110
54
60
95
181
79
208
18
77
190
75
96
12
196
139
197
180
201
73
140
200
70
184
153
6
150
126
76
145
193
121
34
159
47
185
55
104
48
204
178
41
202
14
105
53
68
135
205
11
42
57
170
175
206
182
118
177
23
69
49
125
149
173
189
176
199
37
44
87
129
156
132
114
133
35
100
103
171
179
172
40
167
113
112
90
10
39
158
101
119
146
151
50
19
86
3
136
127
138
52
56
71
137
9
183
13
4
174
25
191
166
106
198
162
111
109
124
64
154
108
51
141
82
46
194
92
188
2
144
187
58
143
83
72
88
123
152
165
33
5
169
63
122
26
81
22
28
128
163
30
66
115
27
36
43
207
8
17
192
148
160
94
107
21
164
29
120
59
168
147
93
67
91

>  <PUBCHEM_MMFF94_PARTIAL_CHARGES>  (1) 
34
1 -0.29
10 0.41
11 0.27
12 0.27
13 -0.14
14 -0.14
15 0.29
16 0.29
17 -0.15
18 -0.15
19 -0.15
2 -0.29
20 -0.15
21 -0.15
22 -0.15
23 -0.15
24 -0.15
25 -0.15
26 -0.15
3 -0.81
4 -0.81
47 0.15
48 0.15
49 0.15
50 0.15
51 0.15
52 0.15
53 0.15
54 0.15
55 0.15
56 0.15
7 0.27
8 0.27
9 0.41

>  <PUBCHEM_EFFECTIVE_ROTOR_COUNT>  (1) 
13

>  <PUBCHEM_PHARMACOPHORE_FEATURES>  (1) 
4
1 3 cation
1 4 cation
6 13 17 19 21 23 25 rings
6 14 18 20 22 24 26 rings

>  <PUBCHEM_HEAVY_ATOM_COUNT>  (1) 
26

>  <PUBCHEM_ATOM_DEF_STEREO_COUNT>  (1) 
0

>  <PUBCHEM_ATOM_UDEF_STEREO_COUNT>  (1) 
0

>  <PUBCHEM_BOND_DEF_STEREO_COUNT>  (1) 
0

>  <PUBCHEM_BOND_UDEF_STEREO_COUNT>  (1) 
0

>  <PUBCHEM_ISOTOPIC_ATOM_COUNT>  (1) 
0

>  <PUBCHEM_COMPONENT_COUNT>  (1) 
1

>  <PUBCHEM_CACTVS_TAUTO_COUNT>  (1) 
1

>  <PUBCHEM_CONFORMER_ID>  (1) 
00005B5400000001

>  <PUBCHEM_MMFF94_ENERGY>  (1) 
55.5847

>  <PUBCHEM_FEATURE_SELFOVERLAP>  (1) 
20.298

>  <PUBCHEM_SHAPE_FINGERPRINT>  (1) 
10006869 2 18271804696062429103
10366900 7 18196385933411548972
10498660 4 17836093638078832030
11646440 116 17908151975220222064
12107698 1 18411129238545239687
12403260 363 18411136935110783810
12553582 1 17903940081519361881
12633257 1 18193854659859518177
12788726 201 18265048223096080009
13004483 165 18343301509474763031
13140716 1 18339083683479769720
1361 2 17765710617888902993
14117953 113 18050285074523035365
14466204 15 18263924328759675162
192875 21 18408884044412504047
20600515 1 18053109424121815956
20715895 44 17751053986378170863
20764821 26 18410018697430670632
21285901 2 18043515326217975877
22113638 7 17977671909142471080
23558518 356 18409450271768168657
23559900 14 18411691080613175073
238 59 18340760464534536917
3380486 145 18049455750818923442
350125 39 18410866455244446052
3524813 1 17626407949020734200
70251023 43 18411982464296183227

>  <PUBCHEM_SHAPE_MULTIPOLES>  (1) 
528.85
9.42
5.93
1.52
0.15
2.1
0.01
-6.37
-0.23
0.24
-0.01
-0.13
0.22
-1.32

>  <PUBCHEM_SHAPE_SELFOVERLAP>  (1) 
1054.294

>  <PUBCHEM_SHAPE_VOLUME>  (1) 
312.1

>  <PUBCHEM_COORDINATE_TYPE>  (1) 
2
5
10

$$$$
