23381
     RDKit          3D

  9  9  0  0  0  0  0  0  0  0999 V2000
   -2.9142    1.6791   -0.0003 Br  0  0  0  0  0  0  0  0  0  0  0  0
    3.3320    0.7988   -0.0003 N   0  0  0  0  0  0  0  0  0  0  0  0
    0.8788   -0.0344    0.0003 C   0  0  0  0  0  0  0  0  0  0  0  0
   -0.1706    0.8845    0.0004 C   0  0  0  0  0  0  0  0  0  0  0  0
    0.6077   -1.4028    0.0000 C   0  0  0  0  0  0  0  0  0  0  0  0
   -1.4911    0.4351    0.0002 C   0  0  0  0  0  0  0  0  0  0  0  0
   -0.7127   -1.8522   -0.0001 C   0  0  0  0  0  0  0  0  0  0  0  0
   -1.7621   -0.9333   -0.0001 C   0  0  0  0  0  0  0  0  0  0  0  0
    2.2320    0.4253    0.0000 C   0  0  0  0  0  0  0  0  0  0  0  0
  1  6  1  0
  2  9  3  0
  3  4  2  0
  3  5  1  0
  3  9  1  0
  4  6  1  0
  5  7  2  0
  6  8  2  0
  7  8  1  0
M  END
>  <PUBCHEM_COMPOUND_CID>  (1) 
23381

>  <PUBCHEM_CONFORMER_RMSD>  (1) 
0.4

>  <PUBCHEM_CONFORMER_DIVERSEORDER>  (1) 
1

>  <PUBCHEM_MMFF94_PARTIAL_CHARGES>  (1) 
13
1 -0.11
10 0.15
11 0.15
12 0.15
13 0.15
2 -0.56
3 0.07
4 -0.15
5 -0.15
6 0.11
7 -0.15
8 -0.15
9 0.48

>  <PUBCHEM_EFFECTIVE_ROTOR_COUNT>  (1) 
0

>  <PUBCHEM_PHARMACOPHORE_FEATURES>  (1) 
3
1 1 hydrophobe
1 2 acceptor
6 3 4 5 6 7 8 rings

>  <PUBCHEM_HEAVY_ATOM_COUNT>  (1) 
9

>  <PUBCHEM_ATOM_DEF_STEREO_COUNT>  (1) 
0

>  <PUBCHEM_ATOM_UDEF_STEREO_COUNT>  (1) 
0

>  <PUBCHEM_BOND_DEF_STEREO_COUNT>  (1) 
0

>  <PUBCHEM_BOND_UDEF_STEREO_COUNT>  (1) 
0

>  <PUBCHEM_ISOTOPIC_ATOM_COUNT>  (1) 
0

>  <PUBCHEM_COMPONENT_COUNT>  (1) 
1

>  <PUBCHEM_CACTVS_TAUTO_COUNT>  (1) 
1

>  <PUBCHEM_CONFORMER_ID>  (1) 
00005B5500000001

>  <PUBCHEM_MMFF94_ENERGY>  (1) 
15.4748

>  <PUBCHEM_FEATURE_SELFOVERLAP>  (1) 
15.223

>  <PUBCHEM_SHAPE_FINGERPRINT>  (1) 
13380535 76 18338794524822137303
14325111 11 18410856542533935808
16945 1 18266458887307065607
20653085 51 18335435577050156064
20871998 184 18127700541356792047
21040471 1 18410856538270532579
23235685 24 18411132507120489645
23402655 69 18197481954064597453
23552423 10 18260831527162574526
241688 4 16322595563081718835
2748010 2 18338527339217548783
29004967 10 14418123028815649938
369184 2 18271525415729363218
5084963 1 18059015128011269018
6333449 129 18341328972027854717

>  <PUBCHEM_SHAPE_MULTIPOLES>  (1) 
186.18
4.08
1.88
0.62
0.75
0.61
0
-2.75
0
-0.55
0
-0.08
-0.01
0

>  <PUBCHEM_SHAPE_SELFOVERLAP>  (1) 
373.18

>  <PUBCHEM_SHAPE_VOLUME>  (1) 
112.2

>  <PUBCHEM_COORDINATE_TYPE>  (1) 
2
5
10

$$$$
