23398
     RDKit          3D

 32 34  0  0  1  0  0  0  0  0999 V2000
    0.9979    2.0061   -1.3189 O   0  0  0  0  0  0  0  0  0  0  0  0
    3.6643    2.5591   -1.0433 O   0  0  0  0  0  0  0  0  0  0  0  0
    5.1466    1.3172    0.9324 O   0  0  0  0  0  0  0  0  0  0  0  0
   -3.7195   -0.7590   -1.9029 O   0  0  0  0  0  0  0  0  0  0  0  0
    1.5022   -4.6510   -0.7427 O   0  0  0  0  0  0  0  0  0  0  0  0
    1.1495   -2.3516   -0.6746 N   0  0  0  0  0  0  0  0  0  0  0  0
   -4.8633    0.7099    0.1569 N   0  0  0  0  0  0  0  0  0  0  0  0
    0.1434   -2.3388    0.3676 C   0  0  0  0  0  0  0  0  0  0  0  0
    0.7693   -2.4393    1.7769 C   0  0  0  0  0  0  0  0  0  0  0  0
    1.1939   -1.1410    2.4758 C   0  0  0  0  0  0  0  0  0  0  0  0
   -0.8224   -1.1815    0.1084 C   0  0  0  0  0  0  0  0  0  0  0  0
    1.8447   -0.1412    1.5569 C   0  0  0  0  0  0  0  0  0  0  0  0
   -0.3680    0.1807    0.4233 C   0  0  0  0  0  0  0  0  0  0  0  0
    1.0817    0.4978    0.5573 C   0  0  0  0  0  0  0  0  0  0  0  0
   -1.9981   -1.4742   -0.4777 C   0  0  0  0  0  0  0  0  0  0  0  0
    1.7036    1.4023   -0.3170 C   0  0  0  0  0  0  0  0  0  0  0  0
    3.2108    0.1466    1.6713 C   0  0  0  0  0  0  0  0  0  0  0  0
   -1.1852    1.2105    0.7167 C   0  0  0  0  0  0  0  0  0  0  0  0
   -3.5112    0.5138    0.0835 C   0  0  0  0  0  0  0  0  0  0  0  0
    3.0645    1.6797   -0.1905 C   0  0  0  0  0  0  0  0  0  0  0  0
    3.8158    1.0546    0.8024 C   0  0  0  0  0  0  0  0  0  0  0  0
   -3.0902   -0.5505   -0.8677 C   0  0  0  0  0  0  0  0  0  0  0  0
   -2.6241    1.2295    0.7885 C   0  0  0  0  0  0  0  0  0  0  0  0
    1.7401   -3.5123   -1.1371 C   0  0  0  0  0  0  0  0  0  0  0  0
   -5.7592   -0.3536    0.5866 C   0  0  0  0  0  0  0  0  0  0  0  0
   -5.4419    2.0414    0.0528 C   0  0  0  0  0  0  0  0  0  0  0  0
    2.7313   -3.2439   -2.2377 C   0  0  0  0  0  0  0  0  0  0  0  0
   -5.9275   -0.3178    2.0934 C   0  0  0  0  0  0  0  0  0  0  0  0
   -5.7280    2.3744   -1.3988 C   0  0  0  0  0  0  0  0  0  0  0  0
    0.9572    1.3336   -2.5740 C   0  0  0  0  0  0  0  0  0  0  0  0
    4.2768    3.7076   -0.4621 C   0  0  0  0  0  0  0  0  0  0  0  0
    6.0448    0.4910    0.1945 C   0  0  0  0  0  0  0  0  0  0  0  0
  1 16  1  0
  1 30  1  0
  2 20  1  0
  2 31  1  0
  3 21  1  0
  3 32  1  0
  4 22  2  0
  5 24  2  0
  6  8  1  0
  6 24  1  0
  7 19  1  0
  7 25  1  0
  7 26  1  0
  8  9  1  0
  8 11  1  0
  9 10  1  0
 10 12  1  0
 11 13  1  0
 11 15  2  0
 12 14  2  0
 12 17  1  0
 13 14  1  0
 13 18  2  0
 14 16  1  0
 15 22  1  0
 16 20  2  0
 17 21  2  0
 18 23  1  0
 19 22  1  0
 19 23  2  0
 20 21  1  0
 24 27  1  0
 25 28  1  0
 26 29  1  0
M  END
>  <PUBCHEM_COMPOUND_CID>  (1) 
23398

>  <PUBCHEM_CONFORMER_RMSD>  (1) 
1

>  <PUBCHEM_CONFORMER_DIVERSEORDER>  (1) 
1
19
5
10
13
3
7
2
18
4
16
12
17
20
15
14
8
11
9
6

>  <PUBCHEM_MMFF94_PARTIAL_CHARGES>  (1) 
34
1 -0.36
10 0.14
11 -0.14
12 -0.14
13 -0.03
14 0.03
15 -0.14
16 0.08
17 -0.15
18 -0.15
19 0.11
2 -0.36
20 0.08
21 0.08
22 0.54
23 -0.15
24 0.57
25 0.37
26 0.37
27 0.06
3 -0.36
30 0.28
31 0.28
32 0.28
38 0.37
39 0.15
4 -0.57
40 0.15
41 0.15
42 0.15
5 -0.57
6 -0.73
7 -0.84
8 0.44

>  <PUBCHEM_EFFECTIVE_ROTOR_COUNT>  (1) 
8.6

>  <PUBCHEM_PHARMACOPHORE_FEATURES>  (1) 
10
1 1 acceptor
1 2 acceptor
1 3 acceptor
1 4 acceptor
1 5 acceptor
1 6 donor
1 7 cation
6 12 14 16 17 20 21 rings
7 11 13 15 18 19 22 23 rings
7 8 9 10 11 12 13 14 rings

>  <PUBCHEM_HEAVY_ATOM_COUNT>  (1) 
32

>  <PUBCHEM_ATOM_DEF_STEREO_COUNT>  (1) 
1

>  <PUBCHEM_ATOM_UDEF_STEREO_COUNT>  (1) 
0

>  <PUBCHEM_BOND_DEF_STEREO_COUNT>  (1) 
0

>  <PUBCHEM_BOND_UDEF_STEREO_COUNT>  (1) 
0

>  <PUBCHEM_ISOTOPIC_ATOM_COUNT>  (1) 
0

>  <PUBCHEM_COMPONENT_COUNT>  (1) 
1

>  <PUBCHEM_CACTVS_TAUTO_COUNT>  (1) 
2

>  <PUBCHEM_CONFORMER_ID>  (1) 
00005B6600000001

>  <PUBCHEM_MMFF94_ENERGY>  (1) 
140.8399

>  <PUBCHEM_FEATURE_SELFOVERLAP>  (1) 
50.774

>  <PUBCHEM_SHAPE_FINGERPRINT>  (1) 
10369192 42 18262523705110790484
11115154 58 16752952763468199214
11370993 70 18130223869783333766
11421498 54 18201727232203273673
11578080 2 17825941525039091989
12236239 1 18335415789867123272
12422481 6 18188194421276042232
12633257 1 15285643218033108409
12788726 201 17178857328576370982
133893 2 18056223296163553307
13782708 43 13912861117789056912
14790565 3 18339923843533861185
14955137 171 18040439914231839248
1813 80 17979351958631083195
20739085 24 17458341922931986436
21033648 29 15069164758448193925
22149856 69 18270701826556172579
22182313 1 18045492028717576429
23559900 14 18201997677355625595
23598288 3 17903073679378791602
3411729 13 18335419036935816675
38695281 34 18342172275903197774
4017518 198 17917998287733564102
404807 14 16909779990389659406
474 4 18260543429098101113
5081480 168 18054228730773571855
5265222 85 18126292076395453932
57724786 102 18268713797584759497
59755656 215 18341331089678833972

>  <PUBCHEM_SHAPE_MULTIPOLES>  (1) 
619.24
11.74
4.05
2.05
11.5
2.73
-0.18
-8.05
1.15
-4.23
-2.16
-0.22
0.73
0.97

>  <PUBCHEM_SHAPE_SELFOVERLAP>  (1) 
1309.013

>  <PUBCHEM_SHAPE_VOLUME>  (1) 
345.2

>  <PUBCHEM_COORDINATE_TYPE>  (1) 
2
5
10

$$$$
