23406
     RDKit          3D

 12 13  0  0  0  0  0  0  0  0999 V2000
   -3.1711    1.1560   -0.8019 O   0  0  0  0  0  0  0  0  0  0  0  0
   -0.0011   -1.7009    0.0059 N   0  0  0  0  0  0  0  0  0  0  0  0
   -0.0571    0.5245    0.1524 C   0  0  0  0  0  0  0  0  0  0  0  0
    0.7893   -0.5739   -0.0142 C   0  0  0  0  0  0  0  0  0  0  0  0
   -1.3810    0.0171    0.2728 C   0  0  0  0  0  0  0  0  0  0  0  0
   -1.3141   -1.3540    0.1788 C   0  0  0  0  0  0  0  0  0  0  0  0
    0.5044    1.8168    0.1691 C   0  0  0  0  0  0  0  0  0  0  0  0
    2.1744   -0.4440   -0.1654 C   0  0  0  0  0  0  0  0  0  0  0  0
   -2.6118    0.8107    0.4649 C   0  0  0  0  0  0  0  0  0  0  0  0
    0.4712   -3.0617   -0.1356 C   0  0  0  0  0  0  0  0  0  0  0  0
    1.8883    1.9619    0.0189 C   0  0  0  0  0  0  0  0  0  0  0  0
    2.7086    0.8475   -0.1456 C   0  0  0  0  0  0  0  0  0  0  0  0
  1  9  1  0
  2  4  1  0
  2  6  1  0
  2 10  1  0
  3  4  2  0
  3  5  1  0
  3  7  1  0
  4  8  1  0
  5  6  2  0
  5  9  1  0
  7 11  2  0
  8 12  2  0
 11 12  1  0
M  END
>  <PUBCHEM_COMPOUND_CID>  (1) 
23406

>  <PUBCHEM_CONFORMER_RMSD>  (1) 
0.4

>  <PUBCHEM_CONFORMER_DIVERSEORDER>  (1) 
1
2
3
4

>  <PUBCHEM_MMFF94_PARTIAL_CHARGES>  (1) 
17
1 -0.68
10 0.26
11 -0.15
12 -0.15
13 0.15
14 0.15
15 0.15
2 0.05
21 0.15
22 0.15
23 0.4
4 -0.15
5 -0.18
6 -0.3
7 -0.15
8 -0.15
9 0.46

>  <PUBCHEM_EFFECTIVE_ROTOR_COUNT>  (1) 
1

>  <PUBCHEM_PHARMACOPHORE_FEATURES>  (1) 
5
1 1 acceptor
1 1 donor
1 2 cation
5 2 3 4 5 6 rings
6 3 4 7 8 11 12 rings

>  <PUBCHEM_HEAVY_ATOM_COUNT>  (1) 
12

>  <PUBCHEM_ATOM_DEF_STEREO_COUNT>  (1) 
0

>  <PUBCHEM_ATOM_UDEF_STEREO_COUNT>  (1) 
0

>  <PUBCHEM_BOND_DEF_STEREO_COUNT>  (1) 
0

>  <PUBCHEM_BOND_UDEF_STEREO_COUNT>  (1) 
0

>  <PUBCHEM_ISOTOPIC_ATOM_COUNT>  (1) 
0

>  <PUBCHEM_COMPONENT_COUNT>  (1) 
1

>  <PUBCHEM_CACTVS_TAUTO_COUNT>  (1) 
1

>  <PUBCHEM_CONFORMER_ID>  (1) 
00005B6E00000001

>  <PUBCHEM_MMFF94_ENERGY>  (1) 
19.8955

>  <PUBCHEM_FEATURE_SELFOVERLAP>  (1) 
25.463

>  <PUBCHEM_SHAPE_FINGERPRINT>  (1) 
1 1 18410573955239661071
11206711 2 18051979404628933421
12138202 78 17977100167438337807
12423570 1 10932796324017913667
13380535 76 18408037412163990035
16945 1 18267310836988050393
193761 8 17979639266447012608
20645476 183 17896341249369833990
21040471 1 18267307706204960816
2334 1 18339365291457606458
23402655 69 18341038632961624429
23552423 10 17398107635357069212
23559900 14 18199767980715504588
241688 4 17185599014096985074
25 1 18336263432007120149
2748010 2 18338527437848549302
5084963 1 17986961932019923683
528886 8 18411416215469547472
63268167 104 18341335500378203297
81228 2 17690842688925257099

>  <PUBCHEM_SHAPE_MULTIPOLES>  (1) 
236.1
3.6
2.66
0.68
0.73
1.82
-0.02
-2.05
-0.36
-0.09
-0.11
0.17
-0.09
0.2

>  <PUBCHEM_SHAPE_SELFOVERLAP>  (1) 
510.989

>  <PUBCHEM_SHAPE_VOLUME>  (1) 
132.3

>  <PUBCHEM_COORDINATE_TYPE>  (1) 
2
5
10

$$$$
