23402
     RDKit          3D

 23 23  0  0  0  0  0  0  0  0999 V2000
   -2.7397   -1.7768   -0.1576 Cl  0  0  0  0  0  0  0  0  0  0  0  0
   -8.5649   -1.1019    0.2192 O   0  0  0  0  0  0  0  0  0  0  0  0
    1.6859    1.2275   -0.3581 C   0  0  0  0  0  0  0  0  0  0  0  0
    3.0115    1.2197    0.4051 C   0  0  0  0  0  0  0  0  0  0  0  0
    0.6436    2.0970    0.3468 C   0  0  0  0  0  0  0  0  0  0  0  0
    4.0643    0.3761   -0.3175 C   0  0  0  0  0  0  0  0  0  0  0  0
   -0.6721    2.1300   -0.4338 C   0  0  0  0  0  0  0  0  0  0  0  0
    5.3991    0.3966    0.4306 C   0  0  0  0  0  0  0  0  0  0  0  0
   -1.7231    2.9706    0.2929 C   0  0  0  0  0  0  0  0  0  0  0  0
    6.4976   -0.4146   -0.2623 C   0  0  0  0  0  0  0  0  0  0  0  0
   -3.0578    3.0642   -0.4484 C   0  0  0  0  0  0  0  0  0  0  0  0
    7.8521   -0.3343    0.4454 C   0  0  0  0  0  0  0  0  0  0  0  0
   -3.7918    1.7462   -0.7304 C   0  0  0  0  0  0  0  0  0  0  0  0
    8.9068   -1.1716   -0.2816 C   0  0  0  0  0  0  0  0  0  0  0  0
   -4.1247    0.9026    0.5092 C   0  0  0  0  0  0  0  0  0  0  0  0
   10.2703   -1.0632    0.4007 C   0  0  0  0  0  0  0  0  0  0  0  0
   -4.9945   -0.3053    0.2646 C   0  0  0  0  0  0  0  0  0  0  0  0
   11.3281   -1.8678   -0.3376 C   0  0  0  0  0  0  0  0  0  0  0  0
   -6.3783   -0.1541    0.3521 C   0  0  0  0  0  0  0  0  0  0  0  0
   -4.4470   -1.5513   -0.0412 C   0  0  0  0  0  0  0  0  0  0  0  0
   -7.2147   -1.2488    0.1337 C   0  0  0  0  0  0  0  0  0  0  0  0
   -5.2834   -2.6461   -0.2596 C   0  0  0  0  0  0  0  0  0  0  0  0
   -6.6671   -2.4947   -0.1721 C   0  0  0  0  0  0  0  0  0  0  0  0
  1 20  1  0
  2 21  1  0
  3  4  1  0
  3  5  1  0
  4  6  1  0
  5  7  1  0
  6  8  1  0
  7  9  1  0
  8 10  1  0
  9 11  1  0
 10 12  1  0
 11 13  1  0
 12 14  1  0
 13 15  1  0
 14 16  1  0
 15 17  1  0
 16 18  1  0
 17 19  2  0
 17 20  1  0
 19 21  1  0
 20 22  2  0
 21 23  2  0
 22 23  1  0
M  END
>  <PUBCHEM_COMPOUND_CID>  (1) 
23402

>  <PUBCHEM_CONFORMER_RMSD>  (1) 
1.6

>  <PUBCHEM_CONFORMER_DIVERSEORDER>  (1) 
1
67
3
66
84
61
56
82
50
31
68
42
81
51
10
73
4
25
78
69
59
57
24
75
63
28
18
5
32
58
33
22
36
23
53
72
19
11
8
47
85
7
38
13
64
20
44
39
12
79
83
49
41
26
14
2
17
34
37
21
70
46
35
71
48
52
6
29
16
54
27
77
74
45
9
43
55
60
15
62
76
30
80
65
40

>  <PUBCHEM_MMFF94_PARTIAL_CHARGES>  (1) 
13
1 -0.18
15 0.14
17 -0.14
19 -0.15
2 -0.53
20 0.18
21 0.08
22 -0.15
23 -0.15
55 0.15
56 0.15
57 0.15
58 0.45

>  <PUBCHEM_EFFECTIVE_ROTOR_COUNT>  (1) 
14

>  <PUBCHEM_PHARMACOPHORE_FEATURES>  (1) 
3
1 18 hydrophobe
1 2 donor
6 17 19 20 21 22 23 rings

>  <PUBCHEM_HEAVY_ATOM_COUNT>  (1) 
23

>  <PUBCHEM_ATOM_DEF_STEREO_COUNT>  (1) 
0

>  <PUBCHEM_ATOM_UDEF_STEREO_COUNT>  (1) 
0

>  <PUBCHEM_BOND_DEF_STEREO_COUNT>  (1) 
0

>  <PUBCHEM_BOND_UDEF_STEREO_COUNT>  (1) 
0

>  <PUBCHEM_ISOTOPIC_ATOM_COUNT>  (1) 
0

>  <PUBCHEM_COMPONENT_COUNT>  (1) 
1

>  <PUBCHEM_CACTVS_TAUTO_COUNT>  (1) 
6

>  <PUBCHEM_CONFORMER_ID>  (1) 
00005B6A00000001

>  <PUBCHEM_MMFF94_ENERGY>  (1) 
19.4333

>  <PUBCHEM_FEATURE_SELFOVERLAP>  (1) 
15.223

>  <PUBCHEM_SHAPE_FINGERPRINT>  (1) 
10429389 143 12966862200456826627
10670039 82 18333726909910043403
11135609 99 18412825811431617228
125118 31 9943226149148444594
12643181 29 18410571761113305197
12838863 1 18129656530590127575
13631057 29 18408602543692123344
14178184 131 18131344245930243902
14420673 8 18336265760696929179
14671636 106 18410011044869450992
15152005 1 18122624122437929151
15461852 350 18335144160057670124
155225 1 9439405726526882570
18643901 69 18187364333495435621
21362267 313 9655574090870355166
23559900 14 18054786459076019377
3004659 81 17968653934416476425
54039377 194 18334016102942978228
54583773 228 18409172143637053436
5719381 82 18407479964058380850
57676310 184 16737508894980994931
57828716 72 12319462049141301891
59521270 166 18114741509256890749
59682541 35 17846492635399301040
6138700 20 18336264635320487115
636775 8 18412830162570838132
999808 66 18130785646941859556

>  <PUBCHEM_SHAPE_MULTIPOLES>  (1) 
469.33
35.23
3.34
0.74
92.89
1.1
-0.01
-32.23
0.97
-4.96
-0.34
0.09
0.1
0.43

>  <PUBCHEM_SHAPE_SELFOVERLAP>  (1) 
897.696

>  <PUBCHEM_SHAPE_VOLUME>  (1) 
287.4

>  <PUBCHEM_COORDINATE_TYPE>  (1) 
2
5
10

$$$$
