23404
     RDKit          3D

  9  9  0  0  0  0  0  0  0  0999 V2000
   -2.8850    0.3178    0.4256 S   0  0  0  0  0  0  0  0  0  0  0  0
    3.1318   -0.1493   -0.4859 O   0  0  0  0  0  0  0  0  0  0  0  0
    1.7437   -0.4998    1.2771 O   0  0  0  0  0  0  0  0  0  0  0  0
   -0.4203    0.3805   -0.2970 C   0  0  0  0  0  0  0  0  0  0  0  0
    0.9578    0.8508   -0.5706 C   0  0  0  0  0  0  0  0  0  0  0  0
   -0.8738   -0.9457   -0.5534 C   0  0  0  0  0  0  0  0  0  0  0  0
   -1.4133    1.1726    0.2360 C   0  0  0  0  0  0  0  0  0  0  0  0
   -2.1959   -1.1166   -0.2064 C   0  0  0  0  0  0  0  0  0  0  0  0
    1.9551   -0.0102    0.1745 C   0  0  0  0  0  0  0  0  0  0  0  0
  1  7  1  0
  1  8  1  0
  2  9  1  0
  3  9  2  0
  4  5  1  0
  4  6  1  0
  4  7  2  0
  5  9  1  0
  6  8  2  0
M  END
>  <PUBCHEM_COMPOUND_CID>  (1) 
23404

>  <PUBCHEM_CONFORMER_RMSD>  (1) 
0.4

>  <PUBCHEM_CONFORMER_DIVERSEORDER>  (1) 
1
10
3
6
8
12
9
4
5
7
2
11

>  <PUBCHEM_MMFF94_PARTIAL_CHARGES>  (1) 
13
1 -0.08
12 0.15
13 0.15
14 0.15
15 0.5
2 -0.65
3 -0.57
4 -0.18
5 0.24
6 -0.15
7 -0.11
8 -0.11
9 0.66

>  <PUBCHEM_EFFECTIVE_ROTOR_COUNT>  (1) 
2

>  <PUBCHEM_PHARMACOPHORE_FEATURES>  (1) 
4
1 2 acceptor
1 3 acceptor
3 2 3 9 anion
5 1 4 6 7 8 rings

>  <PUBCHEM_HEAVY_ATOM_COUNT>  (1) 
9

>  <PUBCHEM_ATOM_DEF_STEREO_COUNT>  (1) 
0

>  <PUBCHEM_ATOM_UDEF_STEREO_COUNT>  (1) 
0

>  <PUBCHEM_BOND_DEF_STEREO_COUNT>  (1) 
0

>  <PUBCHEM_BOND_UDEF_STEREO_COUNT>  (1) 
0

>  <PUBCHEM_ISOTOPIC_ATOM_COUNT>  (1) 
0

>  <PUBCHEM_COMPONENT_COUNT>  (1) 
1

>  <PUBCHEM_CACTVS_TAUTO_COUNT>  (1) 
1

>  <PUBCHEM_CONFORMER_ID>  (1) 
00005B6C00000001

>  <PUBCHEM_MMFF94_ENERGY>  (1) 
8.587

>  <PUBCHEM_FEATURE_SELFOVERLAP>  (1) 
20.355

>  <PUBCHEM_SHAPE_FINGERPRINT>  (1) 
10857977 72 17988637545096838923
12897270 3 11386367040875090777
12932764 1 18113612391495701221
15310529 11 16587735426118859703
18185500 45 18261104231298777239
20645464 45 17417514883017819794
20653085 51 14045748105848138137
20871998 184 17917152830950737079
21040471 1 18129109939565288101
23235685 24 18201158763042601293
23552423 10 18116151267113251333
29004967 10 16298104293533356188
369184 2 15913322507359776023
5084963 1 17703794721130747373

>  <PUBCHEM_SHAPE_MULTIPOLES>  (1) 
177.33
4.22
1.15
0.88
1.17
0.02
-0.16
0.29
-0.38
-0.56
0.08
0.25
0.04
-0.27

>  <PUBCHEM_SHAPE_SELFOVERLAP>  (1) 
351.175

>  <PUBCHEM_SHAPE_VOLUME>  (1) 
106.3

>  <PUBCHEM_COORDINATE_TYPE>  (1) 
2
5
10

$$$$
