23410
     RDKit          3D

 11 10  0  0  1  0  0  0  0  0999 V2000
    1.8428   -0.4168   -1.4302 O   0  0  0  0  0  0  0  0  0  0  0  0
    2.9064    1.5994    0.0126 O   0  0  0  0  0  0  0  0  0  0  0  0
   -3.3297   -1.5034    0.1978 O   0  0  0  0  0  0  0  0  0  0  0  0
    0.2274   -0.5769    0.3588 C   0  0  0  0  0  0  0  0  0  0  0  0
   -0.5685    0.6678   -0.0743 C   0  0  0  0  0  0  0  0  0  0  0  0
    1.7170   -0.5203   -0.0212 C   0  0  0  0  0  0  0  0  0  0  0  0
   -2.0535    0.5713    0.3083 C   0  0  0  0  0  0  0  0  0  0  0  0
    2.4378   -1.7834    0.4491 C   0  0  0  0  0  0  0  0  0  0  0  0
   -2.7900    1.8590   -0.0541 C   0  0  0  0  0  0  0  0  0  0  0  0
    2.3777    0.6824    0.6333 C   0  0  0  0  0  0  0  0  0  0  0  0
   -2.7676   -0.5791   -0.3800 C   0  0  0  0  0  0  0  0  0  0  0  0
  1  6  1  0
  2 10  2  0
  3 11  2  0
  4  5  1  0
  4  6  1  0
  5  7  1  0
  6  8  1  0
  6 10  1  0
  7  9  1  0
  7 11  1  0
M  END
>  <PUBCHEM_COMPOUND_CID>  (1) 
23410

>  <PUBCHEM_CONFORMER_RMSD>  (1) 
0.6

>  <PUBCHEM_CONFORMER_DIVERSEORDER>  (1) 
2
86
44
28
59
33
40
87
11
72
38
63
52
80
45
79
14
83
46
68
37
67
26
65
47
78
43
23
56
75
30
76
81
20
49
27
73
85
69
48
55
21
77
32
82
29
39
35
62
84
8
16
34
54
25
51
71
64
31
15
66
7
9
50
24
41
42
13
17
10
22
60
58
70
36
6
1
53
61
12
5
57
4
74
3
18
19

>  <PUBCHEM_MMFF94_PARTIAL_CHARGES>  (1) 
10
1 -0.68
10 0.45
11 0.45
2 -0.57
23 0.06
24 0.06
25 0.4
3 -0.57
6 0.34
7 0.06

>  <PUBCHEM_EFFECTIVE_ROTOR_COUNT>  (1) 
5

>  <PUBCHEM_PHARMACOPHORE_FEATURES>  (1) 
5
1 1 acceptor
1 1 donor
1 2 acceptor
1 3 acceptor
1 9 hydrophobe

>  <PUBCHEM_HEAVY_ATOM_COUNT>  (1) 
11

>  <PUBCHEM_ATOM_DEF_STEREO_COUNT>  (1) 
0

>  <PUBCHEM_ATOM_UDEF_STEREO_COUNT>  (1) 
2

>  <PUBCHEM_BOND_DEF_STEREO_COUNT>  (1) 
0

>  <PUBCHEM_BOND_UDEF_STEREO_COUNT>  (1) 
0

>  <PUBCHEM_ISOTOPIC_ATOM_COUNT>  (1) 
0

>  <PUBCHEM_COMPONENT_COUNT>  (1) 
1

>  <PUBCHEM_CACTVS_TAUTO_COUNT>  (1) 
2

>  <PUBCHEM_CONFORMER_ID>  (1) 
00005B7200000002

>  <PUBCHEM_MMFF94_ENERGY>  (1) 
13.3174

>  <PUBCHEM_FEATURE_SELFOVERLAP>  (1) 
25.379

>  <PUBCHEM_SHAPE_FINGERPRINT>  (1) 
107287 299 17632019753141935950
12897270 3 18411136931010365247
12932764 1 18336277738389981377
14325111 11 18410571773306694793
14390081 3 18409728439430365105
15310529 11 18272083911680340271
15775835 57 18262524680068106248
170605 34 18271807981796695488
19973954 147 18412262796367935825
20279233 1 16271632400270117591
20645477 70 18342170042947536839
20653091 64 18341050710150762594
21501502 16 18411134714638520081
21524375 3 18055633069532438656
23552423 10 18334857177914702867
25610 137 18337674247275262169
3248919 1 17417810578578460873
5084963 1 17604150320175054110
74978 22 18267867177139861897
8030462 33 18186810162017213167
93112 12 18338795594226698597
9939556 21 18339077064882035785

>  <PUBCHEM_SHAPE_MULTIPOLES>  (1) 
208.77
5.63
1.79
0.83
1.71
0.09
0.18
-0.05
-0.12
0.15
-0.15
-0.33
-0.06
-0.01

>  <PUBCHEM_SHAPE_SELFOVERLAP>  (1) 
392.339

>  <PUBCHEM_SHAPE_VOLUME>  (1) 
130

>  <PUBCHEM_COORDINATE_TYPE>  (1) 
2
5
10

$$$$
