23411
     RDKit          3D

 21 22  0  0  0  0  0  0  0  0999 V2000
   -2.8060    2.2080    0.1711 O   0  0  0  0  0  0  0  0  0  0  0  0
    1.7894    0.9439   -1.6351 O   0  0  0  0  0  0  0  0  0  0  0  0
   -5.3529    1.1326   -0.1565 O   0  0  0  0  0  0  0  0  0  0  0  0
   -1.9661   -1.9964    0.1116 O   0  0  0  0  0  0  0  0  0  0  0  0
    3.2235   -0.0889    2.2729 O   0  0  0  0  0  0  0  0  0  0  0  0
    4.2523   -0.2041   -2.2283 O   0  0  0  0  0  0  0  0  0  0  0  0
   -3.3320   -0.0642    0.0352 N   0  0  0  0  0  0  0  0  0  0  0  0
    3.3080    0.0758   -0.0873 N   0  0  0  0  0  0  0  0  0  0  0  0
   -1.1047    0.6591    0.3036 N   0  0  0  0  0  0  0  0  0  0  0  0
    1.2527    1.0002    0.6082 N   0  0  0  0  0  0  0  0  0  0  0  0
   -0.0397    1.6280    0.4432 C   0  0  0  0  0  0  0  0  0  0  0  0
   -2.4386    1.0303    0.1751 C   0  0  0  0  0  0  0  0  0  0  0  0
    2.0880    0.6987   -0.4635 C   0  0  0  0  0  0  0  0  0  0  0  0
   -4.6928    0.1065   -0.1174 C   0  0  0  0  0  0  0  0  0  0  0  0
   -3.0377   -1.4204    0.0172 C   0  0  0  0  0  0  0  0  0  0  0  0
    3.7543   -0.2497    1.1860 C   0  0  0  0  0  0  0  0  0  0  0  0
    4.2573   -0.3090   -1.0120 C   0  0  0  0  0  0  0  0  0  0  0  0
   -5.2880   -1.2313   -0.2337 C   0  0  0  0  0  0  0  0  0  0  0  0
   -4.3120   -2.1321   -0.1529 C   0  0  0  0  0  0  0  0  0  0  0  0
    5.0744   -0.8758    1.0296 C   0  0  0  0  0  0  0  0  0  0  0  0
    5.3708   -0.9113   -0.2671 C   0  0  0  0  0  0  0  0  0  0  0  0
  1 12  2  0
  2 13  2  0
  3 14  2  0
  4 15  2  0
  5 16  2  0
  6 17  2  0
  7 12  1  0
  7 14  1  0
  7 15  1  0
  8 13  1  0
  8 16  1  0
  8 17  1  0
  9 11  1  0
  9 12  1  0
 10 11  1  0
 10 13  1  0
 14 18  1  0
 15 19  1  0
 16 20  1  0
 17 21  1  0
 18 19  2  0
 20 21  2  0
M  END
>  <PUBCHEM_COMPOUND_CID>  (1) 
23411

>  <PUBCHEM_CONFORMER_RMSD>  (1) 
0.8

>  <PUBCHEM_CONFORMER_DIVERSEORDER>  (1) 
1
5
13
7
8
4
3
11
12
9
6
2
10

>  <PUBCHEM_MMFF94_PARTIAL_CHARGES>  (1) 
27
1 -0.57
10 -0.73
11 0.6
12 0.69
13 0.69
14 0.62
15 0.62
16 0.62
17 0.62
18 -0.14
19 -0.14
2 -0.57
20 -0.14
21 -0.14
24 0.37
25 0.37
26 0.15
27 0.15
28 0.15
29 0.15
3 -0.57
4 -0.57
5 -0.57
6 -0.57
7 -0.18
8 -0.18
9 -0.73

>  <PUBCHEM_EFFECTIVE_ROTOR_COUNT>  (1) 
6.4

>  <PUBCHEM_PHARMACOPHORE_FEATURES>  (1) 
10
1 1 acceptor
1 10 donor
1 2 acceptor
1 3 acceptor
1 4 acceptor
1 5 acceptor
1 6 acceptor
1 9 donor
5 7 14 15 18 19 rings
5 8 16 17 20 21 rings

>  <PUBCHEM_HEAVY_ATOM_COUNT>  (1) 
21

>  <PUBCHEM_ATOM_DEF_STEREO_COUNT>  (1) 
0

>  <PUBCHEM_ATOM_UDEF_STEREO_COUNT>  (1) 
0

>  <PUBCHEM_BOND_DEF_STEREO_COUNT>  (1) 
0

>  <PUBCHEM_BOND_UDEF_STEREO_COUNT>  (1) 
0

>  <PUBCHEM_ISOTOPIC_ATOM_COUNT>  (1) 
0

>  <PUBCHEM_COMPONENT_COUNT>  (1) 
1

>  <PUBCHEM_CACTVS_TAUTO_COUNT>  (1) 
3

>  <PUBCHEM_CONFORMER_ID>  (1) 
00005B7300000001

>  <PUBCHEM_MMFF94_ENERGY>  (1) 
32.1585

>  <PUBCHEM_FEATURE_SELFOVERLAP>  (1) 
50.79

>  <PUBCHEM_SHAPE_FINGERPRINT>  (1) 
11128504 68 17022905670056816740
11796584 16 18412825780807527027
12236239 1 17967250888569268098
12730499 353 13551474743898921656
13167823 11 18186801391572577984
13402501 40 17988931058772480798
14341114 176 15339123437842948040
14386348 63 17847063280963588246
14848160 23 17489867141866559183
15183329 4 17603576409944940423
15537594 2 18187087230573782579
15880784 105 16200143322494972775
17857418 61 18334010584099822466
193927 3 18272379693040120081
20374829 77 18412544323337583805
20403669 9 18272654566699816551
21033648 29 16773502283655579552
22646028 1 18259982686546847017
23402539 116 18411695478991768461
23557571 272 17988082184034833200
23559900 14 18343298205922433633
239999 70 18130787880619875560
3004659 81 18334015012121537932
339767 52 18334569148886606666
351380 3 18040714762005232555
4325135 7 18336545010738363412
5104073 3 18271530909245899105
559249 180 18335134268194060371
573450 72 18335137566301747289
59682541 52 16081630258572553635
59755656 215 18270116808395820575
602551 16 18413669102358299514
67856867 119 18262519333245987748
960060 61 17240203240065957494

>  <PUBCHEM_SHAPE_MULTIPOLES>  (1) 
377.03
13.96
1.83
1.31
0.45
0.09
-0.1
4.98
-0.72
2.37
0.06
-2.52
0.01
-0.27

>  <PUBCHEM_SHAPE_SELFOVERLAP>  (1) 
811.783

>  <PUBCHEM_SHAPE_VOLUME>  (1) 
203

>  <PUBCHEM_COORDINATE_TYPE>  (1) 
2
5
10

$$$$
