23429
     RDKit          3D

 50 53  0  0  1  0  0  0  0  0999 V2000
   -2.0093   -2.6741    1.0299 O   0  0  0  0  0  0  0  0  0  0  0  0
    0.2308   -4.2388    0.8534 O   0  0  0  0  0  0  0  0  0  0  0  0
    3.1450   -4.1013   -0.7436 O   0  0  0  0  0  0  0  0  0  0  0  0
   -4.4331   -1.6067    1.2060 O   0  0  0  0  0  0  0  0  0  0  0  0
   -4.8291    2.3186   -1.1725 O   0  0  0  0  0  0  0  0  0  0  0  0
   -3.4573    3.0032    0.7007 O   0  0  0  0  0  0  0  0  0  0  0  0
   -3.5027   -4.4276    0.8513 O   0  0  0  0  0  0  0  0  0  0  0  0
   -2.3244    2.6756   -2.6265 O   0  0  0  0  0  0  0  0  0  0  0  0
    0.5472    2.3879    3.1965 O   0  0  0  0  0  0  0  0  0  0  0  0
    0.1390    2.5519   -2.9149 O   0  0  0  0  0  0  0  0  0  0  0  0
    2.6458    2.1015    1.9601 O   0  0  0  0  0  0  0  0  0  0  0  0
    4.7787    1.3587    1.7428 O   0  0  0  0  0  0  0  0  0  0  0  0
    4.1138    1.6651   -0.5245 N   0  0  0  0  0  0  0  0  0  0  0  0
   -1.1262   -3.5499   -1.0718 C   0  0  0  0  0  0  0  0  0  0  0  0
    0.3082   -3.7486   -0.4893 C   0  0  0  0  0  0  0  0  0  0  0  0
   -1.9845   -2.4437   -0.3770 C   0  0  0  0  0  0  0  0  0  0  0  0
    1.2798   -2.5241   -0.4865 C   0  0  0  0  0  0  0  0  0  0  0  0
   -3.4457   -2.3332   -0.9282 C   0  0  0  0  0  0  0  0  0  0  0  0
    2.6993   -2.9746    0.0188 C   0  0  0  0  0  0  0  0  0  0  0  0
   -1.8409   -4.9192   -1.0824 C   0  0  0  0  0  0  0  0  0  0  0  0
   -4.3896   -1.3370   -0.1942 C   0  0  0  0  0  0  0  0  0  0  0  0
    3.8361   -1.9002    0.0883 C   0  0  0  0  0  0  0  0  0  0  0  0
    1.3066   -1.8446   -1.8568 C   0  0  0  0  0  0  0  0  0  0  0  0
   -3.4629   -2.0515   -2.4382 C   0  0  0  0  0  0  0  0  0  0  0  0
    4.8954   -2.3755    1.1001 C   0  0  0  0  0  0  0  0  0  0  0  0
   -4.0546    0.1211   -0.3645 C   0  0  0  0  0  0  0  0  0  0  0  0
    4.4659   -1.6013   -1.2611 C   0  0  0  0  0  0  0  0  0  0  0  0
   -2.5962   -3.8415    1.4274 C   0  0  0  0  0  0  0  0  0  0  0  0
   -4.9060    0.9785   -0.9502 C   0  0  0  0  0  0  0  0  0  0  0  0
    5.5399   -0.8719   -1.6068 C   0  0  0  0  0  0  0  0  0  0  0  0
   -3.7442    3.1097   -0.7129 C   0  0  0  0  0  0  0  0  0  0  0  0
   -5.4163   -0.8146    1.8542 C   0  0  0  0  0  0  0  0  0  0  0  0
   -1.9618   -4.3197    2.6982 C   0  0  0  0  0  0  0  0  0  0  0  0
   -1.4150    2.7297   -0.4047 C   0  0  0  0  0  0  0  0  0  0  0  0
   -2.4362    2.8278   -1.4266 C   0  0  0  0  0  0  0  0  0  0  0  0
   -2.0967    2.8398    0.7969 C   0  0  0  0  0  0  0  0  0  0  0  0
   -0.0373    2.5129   -0.4786 C   0  0  0  0  0  0  0  0  0  0  0  0
   -4.1353    4.5666   -0.9816 C   0  0  0  0  0  0  0  0  0  0  0  0
    6.4871   -0.1184   -0.8168 C   0  0  0  0  0  0  0  0  0  0  0  0
   -1.4354    2.7355    2.0013 C   0  0  0  0  0  0  0  0  0  0  0  0
    0.6480    2.3869    0.7531 C   0  0  0  0  0  0  0  0  0  0  0  0
   -0.0590    2.5061    1.9733 C   0  0  0  0  0  0  0  0  0  0  0  0
    0.6897    2.4071   -1.6786 C   0  0  0  0  0  0  0  0  0  0  0  0
    2.0291    2.1269    0.7495 C   0  0  0  0  0  0  0  0  0  0  0  0
    6.2956    0.8550    0.0918 C   0  0  0  0  0  0  0  0  0  0  0  0
    2.7408    1.9982   -0.4479 C   0  0  0  0  0  0  0  0  0  0  0  0
   -2.1836    2.8451    3.2871 C   0  0  0  0  0  0  0  0  0  0  0  0
    2.0626    2.1606   -1.6593 C   0  0  0  0  0  0  0  0  0  0  0  0
    4.9464    1.3290    0.5297 C   0  0  0  0  0  0  0  0  0  0  0  0
    7.4524    1.5187    0.7857 C   0  0  0  0  0  0  0  0  0  0  0  0
  1 16  1  0
  1 28  1  0
  2 15  1  0
  3 19  1  0
  4 21  1  0
  4 32  1  0
  5 29  1  0
  5 31  1  0
  6 31  1  0
  6 36  1  0
  7 28  2  0
  8 35  2  0
  9 42  1  0
 10 43  1  0
 11 44  1  0
 12 49  2  0
 13 46  1  0
 13 49  1  0
 14 15  1  0
 14 16  1  0
 14 20  1  0
 15 17  1  0
 16 18  1  0
 17 19  1  0
 17 23  1  0
 18 21  1  0
 18 24  1  0
 19 22  1  0
 21 26  1  0
 22 25  1  0
 22 27  1  0
 26 29  2  0
 27 30  2  0
 28 33  1  0
 30 39  1  0
 31 35  1  0
 31 38  1  0
 34 35  1  0
 34 36  2  0
 34 37  1  0
 36 40  1  0
 37 41  2  0
 37 43  1  0
 39 45  2  0
 40 42  2  0
 40 47  1  0
 41 42  1  0
 41 44  1  0
 43 48  2  0
 44 46  2  0
 45 49  1  0
 45 50  1  0
 46 48  1  0
M  END
>  <PUBCHEM_COMPOUND_CID>  (1) 
23429

>  <PUBCHEM_CONFORMER_RMSD>  (1) 
1

>  <PUBCHEM_CONFORMER_DIVERSEORDER>  (1) 
1

>  <PUBCHEM_MMFF94_PARTIAL_CHARGES>  (1) 
52
1 -0.43
10 -0.53
11 -0.53
12 -0.57
13 -0.55
15 0.28
16 0.28
19 0.28
2 -0.68
21 0.42
22 0.14
26 -0.29
27 -0.29
28 0.66
29 -0.07
3 -0.68
30 -0.15
31 0.62
32 0.28
33 0.06
34 0.09
35 0.42
36 0.08
39 -0.15
4 -0.56
40 -0.14
42 0.08
43 0.08
44 0.08
45 -0.12
46 0.12
47 0.14
48 -0.15
49 0.62
5 -0.36
50 0.14
6 -0.36
68 0.4
7 -0.57
72 0.15
73 0.4
74 0.15
75 0.15
76 0.15
8 -0.57
86 0.15
9 -0.53
90 0.15
91 0.37
95 0.45
96 0.45
97 0.45

>  <PUBCHEM_EFFECTIVE_ROTOR_COUNT>  (1) 
5.2

>  <PUBCHEM_PHARMACOPHORE_FEATURES>  (1) 
17
1 10 donor
1 11 donor
1 12 acceptor
1 13 donor
1 2 acceptor
1 2 donor
1 3 acceptor
1 3 donor
1 4 acceptor
1 5 acceptor
1 6 acceptor
1 7 acceptor
1 8 acceptor
1 9 donor
5 6 31 34 35 36 rings
6 34 36 37 40 41 42 rings
6 37 41 43 44 46 48 rings

>  <PUBCHEM_HEAVY_ATOM_COUNT>  (1) 
50

>  <PUBCHEM_ATOM_DEF_STEREO_COUNT>  (1) 
9

>  <PUBCHEM_ATOM_UDEF_STEREO_COUNT>  (1) 
0

>  <PUBCHEM_BOND_DEF_STEREO_COUNT>  (1) 
0

>  <PUBCHEM_BOND_UDEF_STEREO_COUNT>  (1) 
3

>  <PUBCHEM_ISOTOPIC_ATOM_COUNT>  (1) 
0

>  <PUBCHEM_COMPONENT_COUNT>  (1) 
1

>  <PUBCHEM_CACTVS_TAUTO_COUNT>  (1) 
113

>  <PUBCHEM_CONFORMER_ID>  (1) 
00005B8500000001

>  <PUBCHEM_MMFF94_ENERGY>  (1) 
212.0676

>  <PUBCHEM_FEATURE_SELFOVERLAP>  (1) 
86.462

>  <PUBCHEM_SHAPE_FINGERPRINT>  (1) 
10305334 12 17054157956594809505
10462674 296 17477760651536236750
10864689 126 17979921514850120742
11513181 2 18202279178382346126
12355185 1 17987211427060409327
12786520 15 17555202471899204750
13347071 3 18339926021462068934
15001296 14 18338240491526732474
150020 26 17545327839611287986
15145343 4 18201431507469683440
15351339 4 18340471301460929443
15406563 190 18114460067685096800
15439362 3 17758107108737456557
16112460 7 18198634232868982345
20764821 26 18198608952570217027
25223398 141 18337666525278225800
354706 109 18192968474967843616
463206 1 18198630014979066874
50150288 127 16700065816158102547
508706 21 18336822086682048334
5265222 85 18409726300626991685

>  <PUBCHEM_SHAPE_MULTIPOLES>  (1) 
953.56
12.62
7.56
2.58
15.75
5.29
-0.93
-1.64
0.1
-6.18
-0.71
-1.44
-1.11
1.9

>  <PUBCHEM_SHAPE_SELFOVERLAP>  (1) 
2039.366

>  <PUBCHEM_SHAPE_VOLUME>  (1) 
523

>  <PUBCHEM_COORDINATE_TYPE>  (1) 
2
5
10

$$$$
