23433
     RDKit          3D

 12 11  0  0  0  0  0  0  0  0999 V2000
    4.5113    0.8143   -0.0264 O   0  0  0  0  0  0  0  0  0  0  0  0
    3.6413   -1.3216    0.0178 O   0  0  0  0  0  0  0  0  0  0  0  0
   -0.3606    0.4302    0.0697 C   0  0  0  0  0  0  0  0  0  0  0  0
   -1.5452   -0.5366    0.0016 C   0  0  0  0  0  0  0  0  0  0  0  0
    0.9732   -0.3222    0.0255 C   0  0  0  0  0  0  0  0  0  0  0  0
   -2.8787    0.2189    0.0005 C   0  0  0  0  0  0  0  0  0  0  0  0
    2.1764    0.6202    0.0586 C   0  0  0  0  0  0  0  0  0  0  0  0
   -4.0903   -0.7140   -0.0374 C   0  0  0  0  0  0  0  0  0  0  0  0
    3.5030   -0.1062    0.0248 C   0  0  0  0  0  0  0  0  0  0  0  0
   -5.3623    0.0222   -0.0248 C   0  0  0  0  0  0  0  0  0  0  0  0
    5.8353    0.2746   -0.0936 C   0  0  0  0  0  0  0  0  0  0  0  0
   -6.4033    0.6204   -0.0163 C   0  0  0  0  0  0  0  0  0  0  0  0
  1  9  1  0
  1 11  1  0
  2  9  2  0
  3  4  1  0
  3  5  1  0
  4  6  1  0
  5  7  1  0
  6  8  1  0
  7  9  1  0
  8 10  1  0
 10 12  3  0
M  END
>  <PUBCHEM_COMPOUND_CID>  (1) 
23433

>  <PUBCHEM_CONFORMER_RMSD>  (1) 
0.8

>  <PUBCHEM_CONFORMER_DIVERSEORDER>  (1) 
1
70
79
25
111
9
124
78
73
12
3
105
40
118
82
60
102
10
83
93
15
113
33
53
2
97
17
107
32
108
59
21
18
88
99
69
100
80
13
104
48
103
26
22
122
14
94
76
57
27
41
109
47
24
119
4
68
20
30
16
112
95
23
66
86
67
5
49
114
81
6
42
96
50
43
37
84
31
52
115
121
11
62
46
39
44
110
45
116
123
72
120
77
38
101
34
54
29
19
117
75
74
56
8
35
92
7
106
71
98
89
64
55
91
51
65
63
61
90
58
85
28
87
36

>  <PUBCHEM_MMFF94_PARTIAL_CHARGES>  (1) 
9
1 -0.43
10 -0.2
11 0.28
12 -0.18
2 -0.57
28 0.18
7 0.06
8 0.2
9 0.66

>  <PUBCHEM_EFFECTIVE_ROTOR_COUNT>  (1) 
7

>  <PUBCHEM_PHARMACOPHORE_FEATURES>  (1) 
2
1 12 hydrophobe
1 2 acceptor

>  <PUBCHEM_HEAVY_ATOM_COUNT>  (1) 
12

>  <PUBCHEM_ATOM_DEF_STEREO_COUNT>  (1) 
0

>  <PUBCHEM_ATOM_UDEF_STEREO_COUNT>  (1) 
0

>  <PUBCHEM_BOND_DEF_STEREO_COUNT>  (1) 
0

>  <PUBCHEM_BOND_UDEF_STEREO_COUNT>  (1) 
0

>  <PUBCHEM_ISOTOPIC_ATOM_COUNT>  (1) 
0

>  <PUBCHEM_COMPONENT_COUNT>  (1) 
1

>  <PUBCHEM_CACTVS_TAUTO_COUNT>  (1) 
1

>  <PUBCHEM_CONFORMER_ID>  (1) 
00005B8900000001

>  <PUBCHEM_MMFF94_ENERGY>  (1) 
5.463

>  <PUBCHEM_FEATURE_SELFOVERLAP>  (1) 
10.148

>  <PUBCHEM_SHAPE_FINGERPRINT>  (1) 
11287383 113 17168150073886188465
12091667 2 18342176683383233219
12815109 37 18272933829747049761
13533116 47 17417813890141223214
14123238 8 12103846761259096841
1420 363 10159696915365081709
14251718 22 18334294292501725051
15048467 5 18409449201957496869
15242433 33 18413670222801646158
15242439 84 17632294596884307515
15501527 16 18335701590820107277
17834072 33 18271524294447480381
17834076 25 18410855468728671885
187816 3 15841554080970315563
20621476 8 18338519642694020733
20645477 70 18339643331020266726
21130983 4 17240769505718560620
22485316 2 18412261752901807895
23218964 4 18412543202271959233
23402539 116 18201996651417442477
23521765 1 18341895194640685125
300161 21 18130781278411356542
366044 4 18334575750589132779
42788 4 18410573994094859073
522135 26 18412825776860615442
59345606 91 18342457049598979089
8209 1 18413671314266372388

>  <PUBCHEM_SHAPE_MULTIPOLES>  (1) 
235.22
15.72
0.93
0.6
4.92
0.11
0
-2
-0.43
-0.24
0
0.06
0
-0.02

>  <PUBCHEM_SHAPE_SELFOVERLAP>  (1) 
432.006

>  <PUBCHEM_SHAPE_VOLUME>  (1) 
148.4

>  <PUBCHEM_COORDINATE_TYPE>  (1) 
2
5
10

$$$$
