23446
     RDKit          3D

 19 21  0  0  0  0  0  0  0  0999 V2000
   -4.1001    1.4299    0.9256 O   0  0  0  0  0  0  0  0  0  0  0  0
   -2.1701   -0.1035   -0.4974 N   0  0  0  0  0  0  0  0  0  0  0  0
    1.1632   -3.0851    0.3461 N   0  0  0  0  0  0  0  0  0  0  0  0
    2.5678    2.2395   -0.1819 N   0  0  0  0  0  0  0  0  0  0  0  0
   -1.6956   -1.3423   -1.1109 C   0  0  0  0  0  0  0  0  0  0  0  0
   -2.3831   -0.2842    0.9454 C   0  0  0  0  0  0  0  0  0  0  0  0
   -3.4121    0.3528   -1.1364 C   0  0  0  0  0  0  0  0  0  0  0  0
   -0.3919   -1.8006   -0.5133 C   0  0  0  0  0  0  0  0  0  0  0  0
    0.7196   -0.9812   -0.2485 C   0  0  0  0  0  0  0  0  0  0  0  0
   -2.8899    1.0168    1.5612 C   0  0  0  0  0  0  0  0  0  0  0  0
   -3.8935    1.6394   -0.4719 C   0  0  0  0  0  0  0  0  0  0  0  0
    1.6965   -1.8169    0.2971 C   0  0  0  0  0  0  0  0  0  0  0  0
   -0.1136   -3.0801   -0.1483 C   0  0  0  0  0  0  0  0  0  0  0  0
    1.0119    0.3875   -0.4109 C   0  0  0  0  0  0  0  0  0  0  0  0
    2.2674    0.8685   -0.0221 C   0  0  0  0  0  0  0  0  0  0  0  0
    2.9559   -1.3503    0.6898 C   0  0  0  0  0  0  0  0  0  0  0  0
    3.2230    0.0112    0.5196 C   0  0  0  0  0  0  0  0  0  0  0  0
    3.9304    2.6669   -0.4230 C   0  0  0  0  0  0  0  0  0  0  0  0
    1.5142    3.2315   -0.1202 C   0  0  0  0  0  0  0  0  0  0  0  0
  1 10  1  0
  1 11  1  0
  2  5  1  0
  2  6  1  0
  2  7  1  0
  3 12  1  0
  3 13  1  0
  4 15  1  0
  4 18  1  0
  4 19  1  0
  5  8  1  0
  6 10  1  0
  7 11  1  0
  8  9  1  0
  8 13  2  0
  9 12  2  0
  9 14  1  0
 12 16  1  0
 14 15  2  0
 15 17  1  0
 16 17  2  0
M  END
>  <PUBCHEM_COMPOUND_CID>  (1) 
23446

>  <PUBCHEM_CONFORMER_RMSD>  (1) 
0.6

>  <PUBCHEM_CONFORMER_DIVERSEORDER>  (1) 
1
20
12
19
3
11
2
17
5
18
16
4
8
7
10
9
6
15
13
14

>  <PUBCHEM_MMFF94_PARTIAL_CHARGES>  (1) 
23
1 -0.56
10 0.28
11 0.28
12 -0.15
13 -0.3
14 -0.15
15 0.1
16 -0.15
17 -0.15
18 0.37
19 0.37
2 -0.81
3 0.03
30 0.15
31 0.27
32 0.15
33 0.15
34 0.15
4 -0.84
5 0.45
6 0.27
7 0.27
8 -0.18

>  <PUBCHEM_EFFECTIVE_ROTOR_COUNT>  (1) 
4.2

>  <PUBCHEM_PHARMACOPHORE_FEATURES>  (1) 
8
1 1 acceptor
1 2 cation
1 3 cation
1 3 donor
1 4 cation
5 3 8 9 12 13 rings
6 1 2 6 7 10 11 rings
6 9 12 14 15 16 17 rings

>  <PUBCHEM_HEAVY_ATOM_COUNT>  (1) 
19

>  <PUBCHEM_ATOM_DEF_STEREO_COUNT>  (1) 
0

>  <PUBCHEM_ATOM_UDEF_STEREO_COUNT>  (1) 
0

>  <PUBCHEM_BOND_DEF_STEREO_COUNT>  (1) 
0

>  <PUBCHEM_BOND_UDEF_STEREO_COUNT>  (1) 
0

>  <PUBCHEM_ISOTOPIC_ATOM_COUNT>  (1) 
0

>  <PUBCHEM_COMPONENT_COUNT>  (1) 
1

>  <PUBCHEM_CACTVS_TAUTO_COUNT>  (1) 
1

>  <PUBCHEM_CONFORMER_ID>  (1) 
00005B9600000001

>  <PUBCHEM_MMFF94_ENERGY>  (1) 
54.0902

>  <PUBCHEM_FEATURE_SELFOVERLAP>  (1) 
40.689

>  <PUBCHEM_SHAPE_FINGERPRINT>  (1) 
10366900 7 17822862970191662807
10382601 240 18040145237042566760
104564 63 17619917158172344678
11582403 64 16230775682343712591
11640471 11 17917148308455318265
11725454 13 16952779858415474775
12403259 327 16950277369523557329
12633257 1 17967811596423180465
12788726 201 17909534396302171942
13009979 54 17558542509426040691
13134695 92 17974003942647457031
13140716 1 18408603669020657314
13464514 151 18340215206084021260
13583140 156 18040997277039424563
14251764 38 18049442544264603421
14251764 75 18341348759344030417
14787075 74 17981600778465354935
14790565 3 18408893915022706572
15342168 16 18412270519341580749
15475509 8 18057340392342169238
15534591 1 18199194077518798454
16945 1 18337390418271871118
1741750 31 18196652015478411928
1813 80 17338162900971511718
18186145 218 18343026587937274046
18219364 16 18261384534060730733
19049666 15 17172643550581746911
20157964 124 18337948971086090853
20510252 161 17184184488414513522
20681677 76 18261675870725288963
20715895 44 17336182659957059049
20739085 24 18194961834310668466
21041028 32 17759236293718708442
21475661 188 17899129417663999453
21524375 3 18343017839073295327
21639500 275 18337660924260316927
21665062 11 18194685869217413523
22094290 62 18410570682643431854
22182937 141 18123477330105520032
23558518 356 18045783644212623978
238 59 17684603776470755389
283562 15 17543345412020618634
350125 39 18265337394015725650
474 4 18411696565338782875
5048184 11 18338800142481514188
6333272 397 18411134775100611759
7226269 152 18129947901045114744
7832392 63 18341604893733463470
81228 2 17327476120563891438
84936 182 18272641381055402448

>  <PUBCHEM_SHAPE_MULTIPOLES>  (1) 
370.2
6.82
3.68
1.07
2.84
0.05
0.16
-5.34
0.5
-2.45
-0.18
0.9
-0.1
-0.99

>  <PUBCHEM_SHAPE_SELFOVERLAP>  (1) 
791.321

>  <PUBCHEM_SHAPE_VOLUME>  (1) 
207.8

>  <PUBCHEM_COORDINATE_TYPE>  (1) 
2
5
10

$$$$
