23458
     RDKit          3D

 28 30  0  0  0  0  0  0  0  0999 V2000
    5.5058    0.2442   -2.3932 Cl  0  0  0  0  0  0  0  0  0  0  0  0
   -4.9128    1.0542    2.3563 Cl  0  0  0  0  0  0  0  0  0  0  0  0
    3.7266   -1.3268    0.4303 N   0  0  0  0  0  0  0  0  0  0  0  0
   -3.5005   -0.8523   -0.3937 N   0  0  0  0  0  0  0  0  0  0  0  0
    1.4130   -2.0476    0.7414 C   0  0  0  0  0  0  0  0  0  0  0  0
   -1.2646   -1.8288   -0.6915 C   0  0  0  0  0  0  0  0  0  0  0  0
    0.4095   -3.2115    0.6380 C   0  0  0  0  0  0  0  0  0  0  0  0
    0.9219   -0.7778    0.0240 C   0  0  0  0  0  0  0  0  0  0  0  0
    2.7916   -2.4496    0.2148 C   0  0  0  0  0  0  0  0  0  0  0  0
   -0.4427   -3.1297   -0.6251 C   0  0  0  0  0  0  0  0  0  0  0  0
   -0.5971   -0.6681    0.0670 C   0  0  0  0  0  0  0  0  0  0  0  0
   -2.6903   -2.0412   -0.1797 C   0  0  0  0  0  0  0  0  0  0  0  0
    3.2544   -0.0648   -0.3101 C   0  0  0  0  0  0  0  0  0  0  0  0
    5.1341   -1.6744   -0.0815 C   0  0  0  0  0  0  0  0  0  0  0  0
    3.8404   -0.9817    1.9242 C   0  0  0  0  0  0  0  0  0  0  0  0
    4.1966    1.0929   -0.1585 C   0  0  0  0  0  0  0  0  0  0  0  0
   -4.8569   -1.0478    0.1021 C   0  0  0  0  0  0  0  0  0  0  0  0
    5.2392    1.3032   -1.0566 C   0  0  0  0  0  0  0  0  0  0  0  0
    4.0027    1.9617    0.9118 C   0  0  0  0  0  0  0  0  0  0  0  0
   -5.7094    0.1769   -0.0981 C   0  0  0  0  0  0  0  0  0  0  0  0
    6.0947    2.3912   -0.8830 C   0  0  0  0  0  0  0  0  0  0  0  0
    4.8583    3.0496    1.0854 C   0  0  0  0  0  0  0  0  0  0  0  0
    5.9043    3.2643    0.1881 C   0  0  0  0  0  0  0  0  0  0  0  0
   -5.7861    1.1683    0.8720 C   0  0  0  0  0  0  0  0  0  0  0  0
   -6.4207    0.2883   -1.2867 C   0  0  0  0  0  0  0  0  0  0  0  0
   -6.5865    2.2891    0.6502 C   0  0  0  0  0  0  0  0  0  0  0  0
   -7.2212    1.4090   -1.5083 C   0  0  0  0  0  0  0  0  0  0  0  0
   -7.3041    2.4093   -0.5398 C   0  0  0  0  0  0  0  0  0  0  0  0
  1 18  1  0
  2 24  1  0
  3  9  1  0
  3 13  1  0
  3 14  1  0
  3 15  1  0
  4 12  1  0
  4 17  1  0
  5  7  1  0
  5  8  1  0
  5  9  1  0
  6 10  1  0
  6 11  1  0
  6 12  1  0
  7 10  1  0
  8 11  1  0
 13 16  1  0
 16 18  2  0
 16 19  1  0
 17 20  1  0
 18 21  1  0
 19 22  2  0
 20 24  2  0
 20 25  1  0
 21 23  2  0
 22 23  1  0
 24 26  1  0
 25 27  2  0
 26 28  2  0
 27 28  1  0
M  CHG  1   3   1
M  END
>  <PUBCHEM_COMPOUND_CID>  (1) 
23458

>  <PUBCHEM_CONFORMER_RMSD>  (1) 
1

>  <PUBCHEM_CONFORMER_DIVERSEORDER>  (1) 
2
7
14
6
8
9
15
3
5
10
13
12
16
1
4
11

>  <PUBCHEM_MMFF94_PARTIAL_CHARGES>  (1) 
31
1 -0.18
12 0.27
13 0.65
14 0.5
15 0.5
16 -0.14
17 0.41
18 0.18
19 -0.15
2 -0.18
20 -0.14
21 -0.15
22 -0.15
23 -0.15
24 0.18
25 -0.15
26 -0.15
27 -0.15
28 -0.15
3 -1.01
4 -0.9
51 0.36
54 0.15
55 0.15
56 0.15
57 0.15
58 0.15
59 0.15
60 0.15
61 0.15
9 0.5

>  <PUBCHEM_EFFECTIVE_ROTOR_COUNT>  (1) 
9.2

>  <PUBCHEM_PHARMACOPHORE_FEATURES>  (1) 
6
1 3 cation
1 4 cation
1 4 donor
6 16 18 19 21 22 23 rings
6 20 24 25 26 27 28 rings
6 5 6 7 8 10 11 rings

>  <PUBCHEM_HEAVY_ATOM_COUNT>  (1) 
28

>  <PUBCHEM_ATOM_DEF_STEREO_COUNT>  (1) 
0

>  <PUBCHEM_ATOM_UDEF_STEREO_COUNT>  (1) 
0

>  <PUBCHEM_BOND_DEF_STEREO_COUNT>  (1) 
0

>  <PUBCHEM_BOND_UDEF_STEREO_COUNT>  (1) 
0

>  <PUBCHEM_ISOTOPIC_ATOM_COUNT>  (1) 
0

>  <PUBCHEM_COMPONENT_COUNT>  (1) 
1

>  <PUBCHEM_CACTVS_TAUTO_COUNT>  (1) 
1

>  <PUBCHEM_CONFORMER_ID>  (1) 
00005BA200000002

>  <PUBCHEM_MMFF94_ENERGY>  (1) 
135.8496

>  <PUBCHEM_FEATURE_SELFOVERLAP>  (1) 
30.446

>  <PUBCHEM_SHAPE_FINGERPRINT>  (1) 
10280341 67 18055904649227006816
10554248 39 18341320094584071535
10675989 125 18411135814661798882
10740516 88 12388930383354026645
10816530 90 18410577254349856134
11505856 67 17392785947523929694
11621639 179 18335986394453975806
11991303 11 16988277685707718991
1200032 147 18113337544465736512
12422481 6 17530681000894639229
12661589 4 8286202799089594592
13540713 5 18264748004508212338
13690498 29 17272565290630126247
13782708 43 10809881039134557388
13878862 14 18335406942376482980
13944108 23 18198063586218167200
14118638 360 18261950872965583007
14251740 57 8862950476593205102
14347332 77 9655580716807900371
14790565 3 18413389821893670747
14931854 50 18059305343880040368
15082195 135 18130790001548126099
15183329 4 17988927764680049505
15274700 21 18196098970295277723
15840311 113 18334577906751983743
15980000 95 17691128128400388278
16992828 155 14962188135470216520
18335252 114 18341046312014976950
20058555 10 18410572886341904613
20398071 356 9583520932331077997
20691028 202 18335137609446579965
21033648 29 17385446505945280291
21424621 283 18336828696678745598
21585482 111 18261108556489958021
21774942 28 17917716816555844048
22122407 14 18338522941503204635
23569914 152 17771928047154453302
249057 25 17917711236797084851
2748736 6 18410564102880290817
2838139 119 18340483375209830991
328310 630 18411982430457930733
3504750 166 10881668110552153447
3862424 121 14044881807209334933
3918712 181 18340759403889306273
397830 11 16878240722510337779
4144715 1 18261403285872978451
4169191 19 18335698334928753709
4258327 124 18342172251346333647
44880568 143 14620794873403388243
465052 167 8430320155754520026
50009960 94 11095062349278405996
5104073 3 17968088767869755418
54583773 228 18341323445955930405
5718773 13 10015590497090224469
5951187 136 18343308085016575668
59682541 52 17274834553764258998
6036956 94 18125726687123064353
6328613 192 18411981360520476509
636775 72 17979914131865609760
6712543 237 14996275934010071257
6898599 12 18200307848807737007

>  <PUBCHEM_SHAPE_MULTIPOLES>  (1) 
570
21.83
4
1.61
24.93
0.08
-0.07
21.4
4.32
-3.23
-0.51
-0.07
0.49
-0.46

>  <PUBCHEM_SHAPE_SELFOVERLAP>  (1) 
1171.888

>  <PUBCHEM_SHAPE_VOLUME>  (1) 
326.6

>  <PUBCHEM_COORDINATE_TYPE>  (1) 
2
5
10

$$$$
