23454
     RDKit          3D

 17 16  0  0  1  0  0  0  0  0999 V2000
    0.0062   -0.8986    0.2124 P   0  0  0  0  0  0  0  0  0  0  0  0
   -1.2706    0.0209   -0.1376 O   0  0  0  0  0  0  0  0  0  0  0  0
    1.2753    0.0407   -0.1447 O   0  0  0  0  0  0  0  0  0  0  0  0
   -0.0077   -2.2212   -0.4992 O   0  0  0  0  0  0  0  0  0  0  0  0
   -3.6185    0.7435   -0.0387 C   0  0  0  0  0  0  0  0  0  0  0  0
    3.6112    0.7463   -0.0393 C   0  0  0  0  0  0  0  0  0  0  0  0
   -2.5866   -0.3901    0.2411 C   0  0  0  0  0  0  0  0  0  0  0  0
    2.5732   -0.3838    0.2322 C   0  0  0  0  0  0  0  0  0  0  0  0
   -3.2021    2.0412    0.6785 C   0  0  0  0  0  0  0  0  0  0  0  0
   -3.6622    1.0241   -1.5563 C   0  0  0  0  0  0  0  0  0  0  0  0
   -5.0408    0.3636    0.4146 C   0  0  0  0  0  0  0  0  0  0  0  0
    5.0059    0.3303    0.4647 C   0  0  0  0  0  0  0  0  0  0  0  0
    3.7023    0.9943   -1.5604 C   0  0  0  0  0  0  0  0  0  0  0  0
    3.2185    2.0743    0.6352 C   0  0  0  0  0  0  0  0  0  0  0  0
   -2.8754   -1.7275   -0.4371 C   0  0  0  0  0  0  0  0  0  0  0  0
    2.8504   -1.7190   -0.4549 C   0  0  0  0  0  0  0  0  0  0  0  0
    0.0209   -1.0389    1.9894 C   0  0  0  0  0  0  0  0  0  0  0  0
  1  2  1  0
  1  3  1  0
  1  4  2  0
  1 17  1  0
  2  7  1  0
  3  8  1  0
  5  7  1  0
  5  9  1  0
  5 10  1  0
  5 11  1  0
  6  8  1  0
  6 12  1  0
  6 13  1  0
  6 14  1  0
  7 15  1  0
  8 16  1  0
M  END
>  <PUBCHEM_COMPOUND_CID>  (1) 
23454

>  <PUBCHEM_CONFORMER_RMSD>  (1) 
0.8

>  <PUBCHEM_CONFORMER_DIVERSEORDER>  (1) 
1
14
13
6
12
11
10
15
7
2
5
16
9
8
3
4

>  <PUBCHEM_MMFF94_PARTIAL_CHARGES>  (1) 
6
1 1.24
2 -0.55
3 -0.55
4 -0.7
7 0.28
8 0.28

>  <PUBCHEM_EFFECTIVE_ROTOR_COUNT>  (1) 
6

>  <PUBCHEM_PHARMACOPHORE_FEATURES>  (1) 
3
1 4 acceptor
4 5 9 10 11 hydrophobe
4 6 12 13 14 hydrophobe

>  <PUBCHEM_HEAVY_ATOM_COUNT>  (1) 
17

>  <PUBCHEM_ATOM_DEF_STEREO_COUNT>  (1) 
0

>  <PUBCHEM_ATOM_UDEF_STEREO_COUNT>  (1) 
2

>  <PUBCHEM_BOND_DEF_STEREO_COUNT>  (1) 
0

>  <PUBCHEM_BOND_UDEF_STEREO_COUNT>  (1) 
0

>  <PUBCHEM_ISOTOPIC_ATOM_COUNT>  (1) 
0

>  <PUBCHEM_COMPONENT_COUNT>  (1) 
1

>  <PUBCHEM_CACTVS_TAUTO_COUNT>  (1) 
1

>  <PUBCHEM_CONFORMER_ID>  (1) 
00005B9E00000001

>  <PUBCHEM_MMFF94_ENERGY>  (1) 
45.6531

>  <PUBCHEM_FEATURE_SELFOVERLAP>  (1) 
15.223

>  <PUBCHEM_SHAPE_FINGERPRINT>  (1) 
10498660 4 18411693296963869469
10646746 165 18340204189208070024
11046707 91 10087645896383870762
11132069 177 18186236221205545477
11543360 7 17704065222513457279
11715629 250 18187923945979478519
12173636 292 18342737399584441351
122479 349 18114466759586249394
12251169 10 12035449449714034410
12596602 18 14851894680814962813
12670546 177 16486682670985008068
12788726 201 17536323883294641866
12892183 10 14273737360552664572
12916748 109 18272094889585210897
13675066 3 17822014185558437059
14123260 362 18337403689773387829
14252887 29 12035720999570106000
14415576 193 18341335483119160822
15239154 128 18413390942600534065
15422964 175 7853316210668918688
1798214 20 12031789149635416725
18186145 218 18187650158820219214
193927 3 10591764337041230917
19862831 5 16845577508491967952
200 152 15267350608700305696
20281475 54 10231493903587786262
20432913 95 10809341131031734941
204376 136 17240488026256894123
20645477 56 18408887347589832207
20645477 70 18201724994493988086
20871999 31 16056587798843759389
21250096 35 9295288335174755037
212847 35 18334014999685230116
21501925 9 8286200526598005830
21524375 3 18333168362319270778
21652331 79 18410293605798031145
22079108 93 17894638075856746611
22854114 59 17385726876682833489
231179 274 17968088681774547908
23382010 3 17632002143665401987
23402539 116 18202275927276029764
23402655 69 18272653454656480900
23557571 272 18200321046914819303
23559900 14 18060138739513231274
351380 180 18410289216156663048
351380 3 10303812089991910140
3545911 37 18411420613410368502
4028521 119 18334851693531778637
474 4 17967820456761447796
4921388 177 15697993081056413245
5104073 3 18409728482364273098
5281201 14 18270688549609298182
548570 60 18335138691430224012
58051976 378 18202845452507928750
633830 44 17894351059792319214

>  <PUBCHEM_SHAPE_MULTIPOLES>  (1) 
336.09
10.18
2.05
1.27
0.11
0.08
0.04
-4.26
-0.77
0
0
-0.02
-0.08
-0.01

>  <PUBCHEM_SHAPE_SELFOVERLAP>  (1) 
621.874

>  <PUBCHEM_SHAPE_VOLUME>  (1) 
218

>  <PUBCHEM_COORDINATE_TYPE>  (1) 
2
5
10

$$$$
