23465
     RDKit          3D

 22 23  0  0  1  0  0  0  0  0999 V2000
   -2.4110    1.6808    2.4916 Br  0  0  0  0  0  0  0  0  0  0  0  0
   -0.0044   -0.7025    1.2443 O   0  0  0  0  0  0  0  0  0  0  0  0
   -1.5686   -1.6782   -1.5043 O   0  0  0  0  0  0  0  0  0  0  0  0
    1.4095    1.3898   -0.1916 N   0  0  0  0  0  0  0  0  0  0  0  0
    3.9307   -1.1723    0.9054 N   0  0  0  0  0  0  0  0  0  0  0  0
    3.0377   -0.5132   -0.0470 C   0  0  0  0  0  0  0  0  0  0  0  0
    2.3748    0.6857    0.6484 C   0  0  0  0  0  0  0  0  0  0  0  0
    3.8485   -0.1040   -1.2759 C   0  0  0  0  0  0  0  0  0  0  0  0
    0.0797    1.1054   -0.2726 C   0  0  0  0  0  0  0  0  0  0  0  0
    1.7262    2.4322   -1.0099 C   0  0  0  0  0  0  0  0  0  0  0  0
    5.0034   -0.2653    1.3118 C   0  0  0  0  0  0  0  0  0  0  0  0
    4.4867   -2.3935    0.3241 C   0  0  0  0  0  0  0  0  0  0  0  0
   -0.4760    1.9908   -1.1697 C   0  0  0  0  0  0  0  0  0  0  0  0
    0.5656    2.8302   -1.6360 C   0  0  0  0  0  0  0  0  0  0  0  0
   -0.5856    0.0684    0.4555 C   0  0  0  0  0  0  0  0  0  0  0  0
   -2.0555   -0.1681    0.2989 C   0  0  0  0  0  0  0  0  0  0  0  0
   -2.4556   -1.0408   -0.6890 C   0  0  0  0  0  0  0  0  0  0  0  0
   -2.9470    0.4779    1.1246 C   0  0  0  0  0  0  0  0  0  0  0  0
   -3.8194   -1.2791   -0.8590 C   0  0  0  0  0  0  0  0  0  0  0  0
   -4.3109    0.2397    0.9543 C   0  0  0  0  0  0  0  0  0  0  0  0
   -4.7471   -0.6390   -0.0373 C   0  0  0  0  0  0  0  0  0  0  0  0
   -1.0816   -2.9448   -1.0667 C   0  0  0  0  0  0  0  0  0  0  0  0
  1 18  1  0
  2 15  2  0
  3 17  1  0
  3 22  1  0
  4  7  1  0
  4  9  1  0
  4 10  1  0
  5  6  1  0
  5 11  1  0
  5 12  1  0
  6  7  1  0
  6  8  1  0
  9 13  2  0
  9 15  1  0
 10 14  2  0
 13 14  1  0
 15 16  1  0
 16 17  2  0
 16 18  1  0
 17 19  1  0
 18 20  2  0
 19 21  2  0
 20 21  1  0
M  END
>  <PUBCHEM_COMPOUND_CID>  (1) 
23465

>  <PUBCHEM_CONFORMER_RMSD>  (1) 
0.8

>  <PUBCHEM_CONFORMER_DIVERSEORDER>  (1) 
2
38
67
27
40
33
58
42
3
50
35
1
63
66
26
62
29
54
5
51
49
64
17
57
22
14
46
61
60
59
23
9
30
53
34
16
19
24
65
45
20
41
48
68
37
31
56
21
43
28
47
55
18
32
25
13
52
36
8
15
44
10
4
12
7
11
6
39

>  <PUBCHEM_MMFF94_PARTIAL_CHARGES>  (1) 
27
1 -0.11
10 -0.3
11 0.27
12 0.27
13 -0.15
14 -0.15
15 0.57
16 0.09
17 0.08
18 0.11
19 -0.15
2 -0.57
20 -0.15
21 -0.15
22 0.28
29 0.15
3 -0.36
36 0.15
37 0.15
38 0.15
39 0.15
4 0.05
40 0.15
5 -0.81
6 0.27
7 0.26
9 -0.24

>  <PUBCHEM_EFFECTIVE_ROTOR_COUNT>  (1) 
6

>  <PUBCHEM_PHARMACOPHORE_FEATURES>  (1) 
7
1 1 hydrophobe
1 2 acceptor
1 3 acceptor
1 4 cation
1 5 cation
5 4 9 10 13 14 rings
6 16 17 18 19 20 21 rings

>  <PUBCHEM_HEAVY_ATOM_COUNT>  (1) 
22

>  <PUBCHEM_ATOM_DEF_STEREO_COUNT>  (1) 
0

>  <PUBCHEM_ATOM_UDEF_STEREO_COUNT>  (1) 
1

>  <PUBCHEM_BOND_DEF_STEREO_COUNT>  (1) 
0

>  <PUBCHEM_BOND_UDEF_STEREO_COUNT>  (1) 
0

>  <PUBCHEM_ISOTOPIC_ATOM_COUNT>  (1) 
0

>  <PUBCHEM_COMPONENT_COUNT>  (1) 
1

>  <PUBCHEM_CACTVS_TAUTO_COUNT>  (1) 
1

>  <PUBCHEM_CONFORMER_ID>  (1) 
00005BA900000002

>  <PUBCHEM_MMFF94_ENERGY>  (1) 
71.6746

>  <PUBCHEM_FEATURE_SELFOVERLAP>  (1) 
35.52

>  <PUBCHEM_SHAPE_FINGERPRINT>  (1) 
11370993 70 17489305256975551382
11578080 2 18197190685745365417
12236239 1 18412545435976726401
12363563 72 17894911806733213080
12403259 327 17060051575374687082
12422481 6 18051699840997201931
12553582 1 18261115171155499758
12592029 89 18340217327640038403
12633257 1 17203618089899679881
12788726 201 17559134244387137737
12892183 10 17418372463564550776
13009979 54 18271533090841228491
14739800 52 17559671939791057960
14840074 17 18334860558739643964
15848702 151 18334856125800689579
16752209 62 17386558064497567576
17349148 13 18131074865717990815
17357779 13 17822280275946573444
17818456 19 18129675109869576369
1813 80 18261681393594419412
19141452 34 18342451534718819079
204376 136 12103842375754908052
20645477 70 17749391519837510424
23175994 123 17385447604945334765
23184049 59 18411139142823655111
23419403 2 17124459918483964180
23559900 14 16988300732243687412
23598291 2 18339371862710220252
6992083 37 18412552002533549625
7064713 232 18059860506403171674
77492 1 18268720570436662953
7970288 3 18113331977656261370
9862522 239 18123477077119707345
9981440 41 17257083200000137921

>  <PUBCHEM_SHAPE_MULTIPOLES>  (1) 
436.99
8.94
2.79
1.79
4.19
0.1
-0.42
4.22
-2.75
0.55
1.21
-0.3
-0.84
-2.02

>  <PUBCHEM_SHAPE_SELFOVERLAP>  (1) 
909.346

>  <PUBCHEM_SHAPE_VOLUME>  (1) 
257.2

>  <PUBCHEM_COORDINATE_TYPE>  (1) 
2
5
10

$$$$
