23473
     RDKit          3D

 16 17  0  0  0  0  0  0  0  0999 V2000
   -1.6251   -1.4928    1.3060 S   0  0  0  0  0  0  0  0  0  0  0  0
   -2.4925   -0.8857   -1.4914 S   0  0  0  0  0  0  0  0  0  0  0  0
    1.5471    0.0448   -0.9410 O   0  0  0  0  0  0  0  0  0  0  0  0
    2.1896   -0.3874    1.2514 O   0  0  0  0  0  0  0  0  0  0  0  0
    3.1272   -1.5618   -0.5161 N   0  0  0  0  0  0  0  0  0  0  0  0
   -1.1283   -0.7541   -0.2877 C   0  0  0  0  0  0  0  0  0  0  0  0
   -0.6253    0.6641   -0.1387 C   0  0  0  0  0  0  0  0  0  0  0  0
   -3.3790   -1.7126    0.9073 C   0  0  0  0  0  0  0  0  0  0  0  0
   -3.4782   -2.0834   -0.5581 C   0  0  0  0  0  0  0  0  0  0  0  0
    0.6883    0.9934   -0.4730 C   0  0  0  0  0  0  0  0  0  0  0  0
   -1.4908    1.6480    0.3392 C   0  0  0  0  0  0  0  0  0  0  0  0
    1.1361    2.3067   -0.3295 C   0  0  0  0  0  0  0  0  0  0  0  0
   -1.0428    2.9612    0.4828 C   0  0  0  0  0  0  0  0  0  0  0  0
    0.2706    3.2905    0.1485 C   0  0  0  0  0  0  0  0  0  0  0  0
    2.2890   -0.6241    0.0510 C   0  0  0  0  0  0  0  0  0  0  0  0
    4.0141   -2.4068    0.2492 C   0  0  0  0  0  0  0  0  0  0  0  0
  1  6  1  0
  1  8  1  0
  2  6  1  0
  2  9  1  0
  3 10  1  0
  3 15  1  0
  4 15  2  0
  5 15  1  0
  5 16  1  0
  6  7  1  0
  7 10  2  0
  7 11  1  0
  8  9  1  0
 10 12  1  0
 11 13  2  0
 12 14  2  0
 13 14  1  0
M  END
>  <PUBCHEM_COMPOUND_CID>  (1) 
23473

>  <PUBCHEM_CONFORMER_RMSD>  (1) 
0.6

>  <PUBCHEM_CONFORMER_DIVERSEORDER>  (1) 
2
69
30
70
29
12
43
71
46
24
44
3
72
4
15
73
37
17
58
13
64
63
59
41
56
14
25
49
60
27
48
52
61
5
32
53
9
74
55
10
47
22
66
51
33
67
7
54
21
75
6
57
20
68
42
50
23
65
34
35
62
26
28
36
45
39
31
40
11
38
19
8
18
16
1

>  <PUBCHEM_MMFF94_PARTIAL_CHARGES>  (1) 
21
1 -0.46
10 0.08
11 -0.15
12 -0.15
13 -0.15
14 -0.15
15 0.78
16 0.3
2 -0.46
22 0.15
23 0.15
24 0.15
25 0.15
26 0.37
3 -0.23
4 -0.57
5 -0.73
6 0.6
7 -0.14
8 0.23
9 0.23

>  <PUBCHEM_EFFECTIVE_ROTOR_COUNT>  (1) 
5

>  <PUBCHEM_PHARMACOPHORE_FEATURES>  (1) 
4
1 4 acceptor
1 5 donor
5 1 2 6 8 9 rings
6 7 10 11 12 13 14 rings

>  <PUBCHEM_HEAVY_ATOM_COUNT>  (1) 
16

>  <PUBCHEM_ATOM_DEF_STEREO_COUNT>  (1) 
0

>  <PUBCHEM_ATOM_UDEF_STEREO_COUNT>  (1) 
0

>  <PUBCHEM_BOND_DEF_STEREO_COUNT>  (1) 
0

>  <PUBCHEM_BOND_UDEF_STEREO_COUNT>  (1) 
0

>  <PUBCHEM_ISOTOPIC_ATOM_COUNT>  (1) 
0

>  <PUBCHEM_COMPONENT_COUNT>  (1) 
1

>  <PUBCHEM_CACTVS_TAUTO_COUNT>  (1) 
2

>  <PUBCHEM_CONFORMER_ID>  (1) 
00005BB100000002

>  <PUBCHEM_MMFF94_ENERGY>  (1) 
36.6477

>  <PUBCHEM_FEATURE_SELFOVERLAP>  (1) 
20.297

>  <PUBCHEM_SHAPE_FINGERPRINT>  (1) 
11265709 11 18411138034690639134
11357001 24 18266465295482595963
11578080 2 17417514930589820113
12326174 3 17767419228508730093
12363563 72 18410290311315665038
12553582 1 18340217365835912190
13140716 1 18340773645604571200
14817 1 17113471218792198097
15001771 113 18334299759810586880
15042514 8 18122070801377827955
15502708 68 17618222153539750929
16945 1 17979635967928291389
19049666 15 18043803411075384461
20361792 2 18343302608353316535
20524608 308 17911233923513586086
20645476 183 17320742299133294924
20645477 70 18048302629752399471
20832881 197 18333170579203254499
20871998 184 18127979611246314268
20871998 22 18411417353582938426
21296965 67 18412258462988423271
21524375 3 17403735549663585544
22112679 90 18270141061559507473
2255824 54 17763185043732373261
23114952 82 17896314903665822821
23402539 116 17984124973325492173
23419403 2 17252524418685377036
23526113 38 18190154936681986863
23559900 14 18267571422061419906
23598291 2 17628644355856325127
23728640 28 17905326225999802138
257057 1 18412539924885033805
2748010 2 18341602720384910308
31174 14 18047196538176456483
458136 41 17613453554509176173
54173680 148 18266743484793409900
58807428 26 17187293365789554992
6338986 31 18341325677819509431
7364860 26 18122906704987349508
81228 2 18266726992108736184

>  <PUBCHEM_SHAPE_MULTIPOLES>  (1) 
320.25
5.4
3.72
1.17
0.6
2.54
0
-6.45
-0.07
1.45
0.52
-0.63
-0.39
-0.17

>  <PUBCHEM_SHAPE_SELFOVERLAP>  (1) 
639.5

>  <PUBCHEM_SHAPE_VOLUME>  (1) 
189.5

>  <PUBCHEM_COORDINATE_TYPE>  (1) 
2
5
10

$$$$
