23471
     RDKit          3D

  8  7  0  0  0  0  0  0  0  0999 V2000
   -2.2031    1.5602    0.2027 O   0  0  0  0  0  0  0  0  0  0  0  0
   -1.2671   -0.3300    0.2131 N   0  0  0  0  0  0  0  0  0  0  0  0
   -1.5406    0.7646   -0.4740 N   0  0  0  0  0  0  0  0  0  0  0  0
    1.1385    0.1350    0.1477 C   0  0  0  0  0  0  0  0  0  0  0  0
    0.0424   -0.9076   -0.0655 C   0  0  0  0  0  0  0  0  0  0  0  0
    2.5233   -0.4565   -0.1186 C   0  0  0  0  0  0  0  0  0  0  0  0
    3.6173    0.5844    0.0571 C   0  0  0  0  0  0  0  0  0  0  0  0
   -2.3107   -1.3501    0.0374 C   0  0  0  0  0  0  0  0  0  0  0  0
  1  3  2  0
  2  3  1  0
  2  5  1  0
  2  8  1  0
  4  5  1  0
  4  6  1  0
  6  7  1  0
M  END
>  <PUBCHEM_COMPOUND_CID>  (1) 
23471

>  <PUBCHEM_CONFORMER_RMSD>  (1) 
0.6

>  <PUBCHEM_CONFORMER_DIVERSEORDER>  (1) 
1
49
15
46
2
29
50
43
39
33
13
37
4
41
16
45
9
17
25
21
48
27
8
18
12
22
38
52
44
28
40
20
30
23
19
51
35
14
31
42
11
32
10
6
36
7
3
26
5
24
34
47

>  <PUBCHEM_MMFF94_PARTIAL_CHARGES>  (1) 
5
1 -0.16
2 -0.36
3 -0.01
5 0.27
8 0.27

>  <PUBCHEM_EFFECTIVE_ROTOR_COUNT>  (1) 
4

>  <PUBCHEM_PHARMACOPHORE_FEATURES>  (1) 
1
1 7 hydrophobe

>  <PUBCHEM_HEAVY_ATOM_COUNT>  (1) 
8

>  <PUBCHEM_ATOM_DEF_STEREO_COUNT>  (1) 
0

>  <PUBCHEM_ATOM_UDEF_STEREO_COUNT>  (1) 
0

>  <PUBCHEM_BOND_DEF_STEREO_COUNT>  (1) 
0

>  <PUBCHEM_BOND_UDEF_STEREO_COUNT>  (1) 
0

>  <PUBCHEM_ISOTOPIC_ATOM_COUNT>  (1) 
0

>  <PUBCHEM_COMPONENT_COUNT>  (1) 
1

>  <PUBCHEM_CACTVS_TAUTO_COUNT>  (1) 
1

>  <PUBCHEM_CONFORMER_ID>  (1) 
00005BAF00000001

>  <PUBCHEM_MMFF94_ENERGY>  (1) 
9.0785

>  <PUBCHEM_FEATURE_SELFOVERLAP>  (1) 
5.074

>  <PUBCHEM_SHAPE_FINGERPRINT>  (1) 
12932764 1 17561357413895923966
14325111 11 18410573981352459938
14390081 3 18412542102739323448
15310529 11 18272931639514422878
19973954 147 18411983589445148224
21040471 1 18193837042161931393
23552423 10 18260548875169749906
3248919 1 17312827095519504234
5460574 1 9367356928924712202

>  <PUBCHEM_SHAPE_MULTIPOLES>  (1) 
148.8
5.06
1.33
0.62
3.47
0.23
-0.01
0.56
0.07
-1.07
0.02
0.01
0
0.05

>  <PUBCHEM_SHAPE_SELFOVERLAP>  (1) 
264.291

>  <PUBCHEM_SHAPE_VOLUME>  (1) 
98.8

>  <PUBCHEM_COORDINATE_TYPE>  (1) 
2
5
10

$$$$
