23474
     RDKit          3D

 13 13  0  0  0  0  0  0  0  0999 V2000
   -2.7492    2.1907   -0.0594 Cl  0  0  0  0  0  0  0  0  0  0  0  0
   -3.2048   -0.7667   -0.3502 O   0  0  0  0  0  0  0  0  0  0  0  0
    3.2708   -1.3702   -0.0365 O   0  0  0  0  0  0  0  0  0  0  0  0
    2.1307    0.6898    0.0857 N   0  0  0  0  0  0  0  0  0  0  0  0
    0.7868    0.3313   -0.0234 C   0  0  0  0  0  0  0  0  0  0  0  0
   -0.2025    1.3142    0.0080 C   0  0  0  0  0  0  0  0  0  0  0  0
    0.4326   -1.0106   -0.1638 C   0  0  0  0  0  0  0  0  0  0  0  0
   -1.9000   -0.3869   -0.2415 C   0  0  0  0  0  0  0  0  0  0  0  0
   -1.5461    0.9551   -0.1011 C   0  0  0  0  0  0  0  0  0  0  0  0
   -0.9108   -1.3697   -0.2728 C   0  0  0  0  0  0  0  0  0  0  0  0
    3.2534   -0.1486    0.0750 C   0  0  0  0  0  0  0  0  0  0  0  0
    4.5357    0.6320    0.2184 C   0  0  0  0  0  0  0  0  0  0  0  0
   -3.8965   -1.0602    0.8614 C   0  0  0  0  0  0  0  0  0  0  0  0
  1  9  1  0
  2  8  1  0
  2 13  1  0
  3 11  2  0
  4  5  1  0
  4 11  1  0
  5  6  2  0
  5  7  1  0
  6  9  1  0
  7 10  2  0
  8  9  2  0
  8 10  1  0
 11 12  1  0
M  END
>  <PUBCHEM_COMPOUND_CID>  (1) 
23474

>  <PUBCHEM_CONFORMER_RMSD>  (1) 
0.6

>  <PUBCHEM_CONFORMER_DIVERSEORDER>  (1) 
1
4
5
3
2

>  <PUBCHEM_MMFF94_PARTIAL_CHARGES>  (1) 
17
1 -0.18
10 -0.15
11 0.57
12 0.06
13 0.28
14 0.15
15 0.15
16 0.15
17 0.37
2 -0.36
3 -0.57
4 -0.55
5 0.12
6 -0.15
7 -0.15
8 0.08
9 0.18

>  <PUBCHEM_EFFECTIVE_ROTOR_COUNT>  (1) 
3

>  <PUBCHEM_PHARMACOPHORE_FEATURES>  (1) 
4
1 2 acceptor
1 3 acceptor
1 4 donor
6 5 6 7 8 9 10 rings

>  <PUBCHEM_HEAVY_ATOM_COUNT>  (1) 
13

>  <PUBCHEM_ATOM_DEF_STEREO_COUNT>  (1) 
0

>  <PUBCHEM_ATOM_UDEF_STEREO_COUNT>  (1) 
0

>  <PUBCHEM_BOND_DEF_STEREO_COUNT>  (1) 
0

>  <PUBCHEM_BOND_UDEF_STEREO_COUNT>  (1) 
0

>  <PUBCHEM_ISOTOPIC_ATOM_COUNT>  (1) 
0

>  <PUBCHEM_COMPONENT_COUNT>  (1) 
1

>  <PUBCHEM_CACTVS_TAUTO_COUNT>  (1) 
2

>  <PUBCHEM_CONFORMER_ID>  (1) 
00005BB200000001

>  <PUBCHEM_MMFF94_ENERGY>  (1) 
45.0665

>  <PUBCHEM_FEATURE_SELFOVERLAP>  (1) 
20.297

>  <PUBCHEM_SHAPE_FINGERPRINT>  (1) 
10608611 8 18342450431281586576
12032990 46 18409172120785051503
12932764 1 17489294309325076614
13380535 21 18195534692436584645
13380535 76 18196367014359983645
14144814 61 18410571773649456194
14325111 11 18411697652044707916
15219456 202 18059018276254069126
16945 1 18340480183479340023
17844478 74 18408890650356249451
18186145 218 17988649553962762872
19422 9 18114183004023992082
200 152 17988914588089312981
20510252 161 18272371953446002936
20645477 70 17774154579279773422
20871998 184 18272089387768904781
21029758 27 18261117425602165861
21501502 16 18265607684981857123
23402539 116 18341603854583194295
23402655 69 18054771916037199997
23463225 33 18409167688579015366
23557571 272 18343313560978863804
23559900 14 18200870661754214142
2748010 2 18197786509477709623
43471831 8 18261388901795103098
5104073 3 18338794525207000264
6333449 129 18341608179409643165
7364860 26 18196090169400807060

>  <PUBCHEM_SHAPE_MULTIPOLES>  (1) 
252.68
7.17
1.79
0.69
4.76
0.52
0.05
-0.35
1.1
-1.28
-0.02
-0.26
-0.06
0.31

>  <PUBCHEM_SHAPE_SELFOVERLAP>  (1) 
510.441

>  <PUBCHEM_SHAPE_VOLUME>  (1) 
149.2

>  <PUBCHEM_COORDINATE_TYPE>  (1) 
2
5
10

$$$$
