23481
     RDKit          3D

 19 19  0  0  1  0  0  0  0  0999 V2000
    2.0850   -2.6320   -0.2706 O   0  0  0  0  0  0  0  0  0  0  0  0
    2.6722    2.0972    0.2064 O   0  0  0  0  0  0  0  0  0  0  0  0
    3.7320   -0.4066   -0.3250 O   0  0  0  0  0  0  0  0  0  0  0  0
   -2.4867    1.7932   -0.7894 N   0  0  0  0  0  0  0  0  0  0  0  0
   -2.6430    0.3903   -0.3839 C   0  0  0  0  0  0  0  0  0  0  0  0
   -1.7583    0.1559    0.8580 C   0  0  0  0  0  0  0  0  0  0  0  0
   -4.1288    0.0873   -0.0993 C   0  0  0  0  0  0  0  0  0  0  0  0
   -0.2891    0.0057    0.5418 C   0  0  0  0  0  0  0  0  0  0  0  0
    0.5188    1.1310    0.5197 C   0  0  0  0  0  0  0  0  0  0  0  0
    0.2226   -1.2547    0.2799 C   0  0  0  0  0  0  0  0  0  0  0  0
    1.5794   -1.3938   -0.0118 C   0  0  0  0  0  0  0  0  0  0  0  0
    1.8757    0.9921    0.2278 C   0  0  0  0  0  0  0  0  0  0  0  0
   -4.3749   -1.3448    0.2869 C   0  0  0  0  0  0  0  0  0  0  0  0
    2.4061   -0.2705   -0.0381 C   0  0  0  0  0  0  0  0  0  0  0  0
   -3.2696    2.0685   -1.9812 C   0  0  0  0  0  0  0  0  0  0  0  0
   -4.9236   -1.7234    1.4466 C   0  0  0  0  0  0  0  0  0  0  0  0
    2.0745   -3.0653   -1.6294 C   0  0  0  0  0  0  0  0  0  0  0  0
    2.0507    3.3493    0.4893 C   0  0  0  0  0  0  0  0  0  0  0  0
    4.6570    0.0208    0.6723 C   0  0  0  0  0  0  0  0  0  0  0  0
  1 11  1  0
  1 17  1  0
  2 12  1  0
  2 18  1  0
  3 14  1  0
  3 19  1  0
  4  5  1  0
  4 15  1  0
  5  6  1  0
  5  7  1  0
  6  8  1  0
  7 13  1  0
  8  9  2  0
  8 10  1  0
  9 12  1  0
 10 11  2  0
 11 14  1  0
 12 14  2  0
 13 16  2  0
M  END
>  <PUBCHEM_COMPOUND_CID>  (1) 
23481

>  <PUBCHEM_CONFORMER_RMSD>  (1) 
0.8

>  <PUBCHEM_CONFORMER_DIVERSEORDER>  (1) 
2
13
66
88
90
82
39
18
19
92
79
43
41
44
27
60
87
16
22
56
58
75
45
85
7
74
64
71
72
86
67
89
55
65
80
48
33
73
77
63
49
36
54
6
20
29
83
51
70
84
52
35
69
46
53
26
23
95
3
78
76
62
25
94
1
50
15
38
24
40
93
59
34
47
30
32
28
5
11
9
68
57
31
10
81
61
8
14
21
42
37
12
17
4
91

>  <PUBCHEM_MMFF94_PARTIAL_CHARGES>  (1) 
25
1 -0.36
10 -0.15
11 0.08
12 0.08
13 -0.29
14 0.08
15 0.27
16 -0.3
17 0.28
18 0.28
19 0.28
2 -0.36
25 0.36
26 0.15
27 0.15
28 0.15
3 -0.36
32 0.15
33 0.15
4 -0.9
5 0.27
6 0.14
7 0.14
8 -0.14
9 -0.15

>  <PUBCHEM_EFFECTIVE_ROTOR_COUNT>  (1) 
8

>  <PUBCHEM_PHARMACOPHORE_FEATURES>  (1) 
7
1 1 acceptor
1 16 hydrophobe
1 2 acceptor
1 3 acceptor
1 4 cation
1 4 donor
6 8 9 10 11 12 14 rings

>  <PUBCHEM_HEAVY_ATOM_COUNT>  (1) 
19

>  <PUBCHEM_ATOM_DEF_STEREO_COUNT>  (1) 
0

>  <PUBCHEM_ATOM_UDEF_STEREO_COUNT>  (1) 
1

>  <PUBCHEM_BOND_DEF_STEREO_COUNT>  (1) 
0

>  <PUBCHEM_BOND_UDEF_STEREO_COUNT>  (1) 
0

>  <PUBCHEM_ISOTOPIC_ATOM_COUNT>  (1) 
0

>  <PUBCHEM_COMPONENT_COUNT>  (1) 
1

>  <PUBCHEM_CACTVS_TAUTO_COUNT>  (1) 
1

>  <PUBCHEM_CONFORMER_ID>  (1) 
00005BB900000002

>  <PUBCHEM_MMFF94_ENERGY>  (1) 
73.1947

>  <PUBCHEM_FEATURE_SELFOVERLAP>  (1) 
35.529

>  <PUBCHEM_SHAPE_FINGERPRINT>  (1) 
10608611 8 18334005091058567181
10871710 139 15022735247889456275
116883 192 17478887195576871140
12403259 226 18333725836142176689
12403259 415 18338791312202885632
13140716 1 18197779023328847634
16945 1 18342470214000789112
18785283 64 18264773340577664136
19433438 38 18334011674931896803
200 152 18131068247168041315
20645477 70 18342731906469209623
20693207 138 18264786384551558847
21524375 3 18192990650263749024
221490 88 18409735036447351779
23402539 116 17530677723723958099
23557571 272 17822008718729610365
23559900 14 17976249150140303186
23598288 3 16485855688507493499
2748010 2 18052545361629102338
2838139 119 16516841124690654830
3060560 45 18343584062292676854
3286 77 18187078473008832452
350125 39 18194688287700895000
5104073 3 18338231566083460665
58051976 378 18411695487349724151
6049 1 18334298622129498301
621550 34 18264489653929789497
7399639 24 18264198287453862321
7495541 125 18187929520783712392
81228 2 17263558803753691792
9709674 26 18409728422640847111

>  <PUBCHEM_SHAPE_MULTIPOLES>  (1) 
368.42
8.77
3.19
1.25
5.7
0.31
0.47
-1.67
-1.13
-1.67
0.94
0.95
-0.08
2.59

>  <PUBCHEM_SHAPE_SELFOVERLAP>  (1) 
740.884

>  <PUBCHEM_SHAPE_VOLUME>  (1) 
218.5

>  <PUBCHEM_COORDINATE_TYPE>  (1) 
2
5
10

$$$$
