23508
     RDKit          3D

 28 32  0  0  1  0  0  0  0  0999 V2000
   -3.2021   -0.6645   -1.9154 O   0  0  0  0  0  0  0  0  0  0  0  0
    0.6764    2.6355   -0.4850 N   0  0  0  0  0  0  0  0  0  0  0  0
   -2.4496    0.5962   -0.0784 N   0  0  0  0  0  0  0  0  0  0  0  0
    5.7956   -0.4002    0.4354 N   0  0  0  0  0  0  0  0  0  0  0  0
   -4.5498   -0.3216   -0.1321 N   0  0  0  0  0  0  0  0  0  0  0  0
   -4.7493    0.2234    1.0946 N   0  0  0  0  0  0  0  0  0  0  0  0
    1.2892    0.1965   -0.5908 C   0  0  0  0  0  0  0  0  0  0  0  0
    1.6744    1.6357   -0.0301 C   0  0  0  0  0  0  0  0  0  0  0  0
   -0.1332   -0.1764   -0.1536 C   0  0  0  0  0  0  0  0  0  0  0  0
   -1.1225    0.9171   -0.5502 C   0  0  0  0  0  0  0  0  0  0  0  0
    3.1498    2.0468   -0.4073 C   0  0  0  0  0  0  0  0  0  0  0  0
    2.3287   -0.8405   -0.1991 C   0  0  0  0  0  0  0  0  0  0  0  0
   -0.6753    2.2801   -0.0195 C   0  0  0  0  0  0  0  0  0  0  0  0
    3.6361   -0.3791   -0.0011 C   0  0  0  0  0  0  0  0  0  0  0  0
    4.1021    0.9483   -0.0785 C   0  0  0  0  0  0  0  0  0  0  0  0
    4.6901   -1.2145    0.3175 C   0  0  0  0  0  0  0  0  0  0  0  0
    0.9897    3.9967   -0.0397 C   0  0  0  0  0  0  0  0  0  0  0  0
    5.4495    0.9138    0.1942 C   0  0  0  0  0  0  0  0  0  0  0  0
    2.1421   -2.2245   -0.0871 C   0  0  0  0  0  0  0  0  0  0  0  0
    4.5101   -2.5901    0.4540 C   0  0  0  0  0  0  0  0  0  0  0  0
    3.2103   -3.0757    0.2404 C   0  0  0  0  0  0  0  0  0  0  0  0
    7.1335   -0.8439    0.7612 C   0  0  0  0  0  0  0  0  0  0  0  0
   -3.3391   -0.1572   -0.8127 C   0  0  0  0  0  0  0  0  0  0  0  0
   -5.6561   -1.0159   -0.5718 C   0  0  0  0  0  0  0  0  0  0  0  0
   -6.6064   -0.9122    0.4138 C   0  0  0  0  0  0  0  0  0  0  0  0
   -5.9933   -0.1391    1.4116 C   0  0  0  0  0  0  0  0  0  0  0  0
   -5.7322   -1.7144   -1.8711 C   0  0  0  0  0  0  0  0  0  0  0  0
   -6.5689    0.2797    2.7008 C   0  0  0  0  0  0  0  0  0  0  0  0
  1 23  2  0
  2  8  1  0
  2 13  1  0
  2 17  1  0
  3 10  1  0
  3 23  1  0
  4 16  1  0
  4 18  1  0
  4 22  1  0
  5  6  1  0
  5 23  1  0
  5 24  1  0
  6 26  2  0
  7  8  1  0
  7  9  1  0
  7 12  1  0
  8 11  1  0
  9 10  1  0
 10 13  1  0
 11 15  1  0
 12 14  2  0
 12 19  1  0
 14 15  1  0
 14 16  1  0
 15 18  2  0
 16 20  2  0
 19 21  2  0
 20 21  1  0
 24 25  2  0
 24 27  1  0
 25 26  1  0
 26 28  1  0
M  END
>  <PUBCHEM_COMPOUND_CID>  (1) 
23508

>  <PUBCHEM_CONFORMER_RMSD>  (1) 
0.8

>  <PUBCHEM_CONFORMER_DIVERSEORDER>  (1) 
1
11
12
3
5
7
4
9
8
6
10
2

>  <PUBCHEM_MMFF94_PARTIAL_CHARGES>  (1) 
32
1 -0.57
10 0.3
11 0.18
12 -0.14
13 0.27
15 -0.18
16 -0.15
17 0.27
18 -0.3
19 -0.15
2 -0.81
20 -0.15
21 -0.15
22 0.26
23 0.64
24 -0.33
25 -0.15
26 0.11
27 0.18
28 0.18
3 -0.73
4 0.05
41 0.15
42 0.15
43 0.37
44 0.15
45 0.15
49 0.15
5 0.56
6 -0.71
7 0.14
8 0.27

>  <PUBCHEM_EFFECTIVE_ROTOR_COUNT>  (1) 
4

>  <PUBCHEM_PHARMACOPHORE_FEATURES>  (1) 
10
1 1 acceptor
1 2 cation
1 3 donor
1 4 cation
1 6 acceptor
5 4 14 15 16 18 rings
5 5 6 24 25 26 rings
6 12 14 16 19 20 21 rings
6 2 7 8 9 10 13 rings
6 7 8 11 12 14 15 rings

>  <PUBCHEM_HEAVY_ATOM_COUNT>  (1) 
28

>  <PUBCHEM_ATOM_DEF_STEREO_COUNT>  (1) 
3

>  <PUBCHEM_ATOM_UDEF_STEREO_COUNT>  (1) 
0

>  <PUBCHEM_BOND_DEF_STEREO_COUNT>  (1) 
0

>  <PUBCHEM_BOND_UDEF_STEREO_COUNT>  (1) 
0

>  <PUBCHEM_ISOTOPIC_ATOM_COUNT>  (1) 
0

>  <PUBCHEM_COMPONENT_COUNT>  (1) 
1

>  <PUBCHEM_CACTVS_TAUTO_COUNT>  (1) 
2

>  <PUBCHEM_CONFORMER_ID>  (1) 
00005BD400000001

>  <PUBCHEM_MMFF94_ENERGY>  (1) 
60.4311

>  <PUBCHEM_FEATURE_SELFOVERLAP>  (1) 
50.984

>  <PUBCHEM_SHAPE_FINGERPRINT>  (1) 
10688039 33 18113335288943794196
1100329 8 18267017435483420206
11545043 162 17095241445622960069
11646440 116 18334859415877410160
11796584 16 17095520703995424793
11963148 33 18334004004543423458
12107183 9 18270127799676580393
12236239 1 17846500352384711615
12422481 6 17774165583017400239
12516196 113 18411416211063608810
12596602 18 17346881182133605531
12623949 98 17988086561397766814
13103583 49 17988925574520723519
13402501 40 17967818266592254691
13673619 4 17676211277715836957
13685833 64 18259705600989698792
13782708 43 17313099748338107099
14739800 52 16771819103495733081
14790565 3 17253164528027256860
14849402 71 18058166318147291200
14863182 85 18410299103667355038
15250474 111 18129939113372968935
15537594 2 18342455949887190599
15799311 1 18335713792394927431
15927050 60 17692250051541385828
16110190 28 18272652337923175831
17492 89 18121493554138291306
17857418 61 18342453760081402399
1813 80 18340217314390977725
19377110 9 18273495654313661810
20028762 73 18272083912029266990
20511986 3 17989199361405870937
21197605 99 18338238279471596298
21267235 1 18410576150843746494
21315763 178 18272651255517161287
21521721 280 18341050830726663312
21623969 137 18187368731098971363
2303208 19 17095246951644218737
23522609 53 18127435503542274041
23559900 14 18189330350343074961
24771293 8 18201151165826138840
314194 84 18409448102778009559
3178227 256 18335704962210847992
3411729 13 16199007604393229600
3633792 109 18339346540812229559
3663271 9 17989488537090372299
3680242 22 18411985745313113047
4015057 19 18262798600941187601
46194498 28 17240762921380793644
463206 1 18337669831848824678
5104073 3 18268422430981400840
5758199 1 18272087258019312600
6009941 240 17822855265389969229
6431902 208 18335420162655078467
86090 222 17386585604070983147

>  <PUBCHEM_SHAPE_MULTIPOLES>  (1) 
545.45
17.93
3.08
1.34
15.69
1.53
-0.38
-8.59
-5.95
-3.44
0.24
3.41
-0.25
-1.66

>  <PUBCHEM_SHAPE_SELFOVERLAP>  (1) 
1199.294

>  <PUBCHEM_SHAPE_VOLUME>  (1) 
296.1

>  <PUBCHEM_COORDINATE_TYPE>  (1) 
2
5
10

$$$$
