23506
     RDKit          3D

  9  9  0  0  0  0  0  0  0  0999 V2000
    2.1623   -1.0806   -0.3698 O   0  0  0  0  0  0  0  0  0  0  0  0
    2.3256    1.0321    0.2841 O   0  0  0  0  0  0  0  0  0  0  0  0
    0.3765    0.0277    0.2554 N   0  0  0  0  0  0  0  0  0  0  0  0
    1.7206   -0.0097    0.0407 N   0  0  0  0  0  0  0  0  0  0  0  0
   -2.4928   -0.0091   -0.2506 C   0  0  0  0  0  0  0  0  0  0  0  0
   -1.7695   -1.2011    0.3650 C   0  0  0  0  0  0  0  0  0  0  0  0
   -1.7483    1.2827    0.0659 C   0  0  0  0  0  0  0  0  0  0  0  0
   -0.2975   -1.2366   -0.0488 C   0  0  0  0  0  0  0  0  0  0  0  0
   -0.2769    1.1944   -0.3418 C   0  0  0  0  0  0  0  0  0  0  0  0
  1  4  1  0
  2  4  2  0
  3  4  1  0
  3  8  1  0
  3  9  1  0
  5  6  1  0
  5  7  1  0
  6  8  1  0
  7  9  1  0
M  CHG  2   1  -1   4   1
M  END
>  <PUBCHEM_COMPOUND_CID>  (1) 
23506

>  <PUBCHEM_CONFORMER_RMSD>  (1) 
0.4

>  <PUBCHEM_CONFORMER_DIVERSEORDER>  (1) 
1
2
6
4
7
3
5
9
8

>  <PUBCHEM_MMFF94_PARTIAL_CHARGES>  (1) 
6
1 -0.52
2 -0.52
3 -0.53
4 1.03
8 0.27
9 0.27

>  <PUBCHEM_EFFECTIVE_ROTOR_COUNT>  (1) 
2.2

>  <PUBCHEM_PHARMACOPHORE_FEATURES>  (1) 
3
1 1 acceptor
1 2 acceptor
6 3 5 6 7 8 9 rings

>  <PUBCHEM_HEAVY_ATOM_COUNT>  (1) 
9

>  <PUBCHEM_ATOM_DEF_STEREO_COUNT>  (1) 
0

>  <PUBCHEM_ATOM_UDEF_STEREO_COUNT>  (1) 
0

>  <PUBCHEM_BOND_DEF_STEREO_COUNT>  (1) 
0

>  <PUBCHEM_BOND_UDEF_STEREO_COUNT>  (1) 
0

>  <PUBCHEM_ISOTOPIC_ATOM_COUNT>  (1) 
0

>  <PUBCHEM_COMPONENT_COUNT>  (1) 
1

>  <PUBCHEM_CACTVS_TAUTO_COUNT>  (1) 
1

>  <PUBCHEM_CONFORMER_ID>  (1) 
00005BD200000001

>  <PUBCHEM_MMFF94_ENERGY>  (1) 
11.6952

>  <PUBCHEM_FEATURE_SELFOVERLAP>  (1) 
15.297

>  <PUBCHEM_SHAPE_FINGERPRINT>  (1) 
10857977 72 18263917916056451985
12897270 3 18410856572540522364
14325111 11 18411135810087379885
16714656 1 18408042896768421303
18185500 45 17978512266907339879
19973954 147 18411703183661995744
21040471 1 18263643965851900597
23552423 10 18187650201769983118
2748010 2 18410013234405960335
29004967 10 18337394966578498923
369184 2 18411415116031564723
5084963 1 18271803467385017425

>  <PUBCHEM_SHAPE_MULTIPOLES>  (1) 
163.52
3.31
1.54
0.64
0.82
0.01
-0.01
0.05
-0.02
-0.22
0
-0.06
-0.01
0.22

>  <PUBCHEM_SHAPE_SELFOVERLAP>  (1) 
320.337

>  <PUBCHEM_SHAPE_VOLUME>  (1) 
98.6

>  <PUBCHEM_COORDINATE_TYPE>  (1) 
2
5
10

$$$$
