23505
     RDKit          3D

  8  7  0  0  0  0  0  0  0  0999 V2000
   -0.7505    1.3643    0.9253 O   0  0  0  0  0  0  0  0  0  0  0  0
    0.8208    1.8666   -0.5330 O   0  0  0  0  0  0  0  0  0  0  0  0
    0.0137   -0.2307   -0.4629 N   0  0  0  0  0  0  0  0  0  0  0  0
    0.0397    1.0809    0.0169 N   0  0  0  0  0  0  0  0  0  0  0  0
   -0.9571   -1.1250    0.1738 C   0  0  0  0  0  0  0  0  0  0  0  0
    1.3170   -0.8870   -0.5993 C   0  0  0  0  0  0  0  0  0  0  0  0
   -2.3728   -0.8100   -0.2787 C   0  0  0  0  0  0  0  0  0  0  0  0
    1.8891   -1.2591    0.7580 C   0  0  0  0  0  0  0  0  0  0  0  0
  1  4  1  0
  2  4  2  0
  3  4  1  0
  3  5  1  0
  3  6  1  0
  5  7  1  0
  6  8  1  0
M  CHG  2   1  -1   4   1
M  END
>  <PUBCHEM_COMPOUND_CID>  (1) 
23505

>  <PUBCHEM_CONFORMER_RMSD>  (1) 
0.6

>  <PUBCHEM_CONFORMER_DIVERSEORDER>  (1) 
1
11
8
4
6
3
2
7
5
10
9

>  <PUBCHEM_MMFF94_PARTIAL_CHARGES>  (1) 
6
1 -0.52
2 -0.52
3 -0.53
4 1.03
5 0.27
6 0.27

>  <PUBCHEM_EFFECTIVE_ROTOR_COUNT>  (1) 
3

>  <PUBCHEM_PHARMACOPHORE_FEATURES>  (1) 
2
1 1 acceptor
1 2 acceptor

>  <PUBCHEM_HEAVY_ATOM_COUNT>  (1) 
8

>  <PUBCHEM_ATOM_DEF_STEREO_COUNT>  (1) 
0

>  <PUBCHEM_ATOM_UDEF_STEREO_COUNT>  (1) 
0

>  <PUBCHEM_BOND_DEF_STEREO_COUNT>  (1) 
0

>  <PUBCHEM_BOND_UDEF_STEREO_COUNT>  (1) 
0

>  <PUBCHEM_ISOTOPIC_ATOM_COUNT>  (1) 
0

>  <PUBCHEM_COMPONENT_COUNT>  (1) 
1

>  <PUBCHEM_CACTVS_TAUTO_COUNT>  (1) 
1

>  <PUBCHEM_CONFORMER_ID>  (1) 
00005BD100000001

>  <PUBCHEM_MMFF94_ENERGY>  (1) 
12.4434

>  <PUBCHEM_FEATURE_SELFOVERLAP>  (1) 
10.228

>  <PUBCHEM_SHAPE_FINGERPRINT>  (1) 
137420 1 11335370141095756462
16714656 1 17619095852972039422
18185500 45 18334863766283998914
20653091 64 18336828722691357115
21040471 1 17258213502100057093
23552449 1 18122613964675418310
23552449 11 18265321971004482451
29004967 10 18408317808771788387
54338 74 18262792952373468914
5943 1 14521920985005768422

>  <PUBCHEM_SHAPE_MULTIPOLES>  (1) 
142.94
2.4
1.84
0.86
0.55
0.88
-0.07
-1.3
-0.1
-0.2
-0.07
-0.14
0.02
-0.34

>  <PUBCHEM_SHAPE_SELFOVERLAP>  (1) 
258.523

>  <PUBCHEM_SHAPE_VOLUME>  (1) 
93.2

>  <PUBCHEM_COORDINATE_TYPE>  (1) 
2
5
10

$$$$
