23510
     RDKit          3D

 15 16  0  0  0  0  0  0  0  0999 V2000
   -2.4841   -1.4979   -0.2484 O   0  0  0  0  0  0  0  0  0  0  0  0
   -2.8030    1.2200    0.2352 O   0  0  0  0  0  0  0  0  0  0  0  0
    1.9155    1.8053    0.3069 N   0  0  0  0  0  0  0  0  0  0  0  0
    2.5529   -2.2786   -0.4212 N   0  0  0  0  0  0  0  0  0  0  0  0
    1.0085   -0.3941   -0.0768 C   0  0  0  0  0  0  0  0  0  0  0  0
    0.8556    0.9866    0.1689 C   0  0  0  0  0  0  0  0  0  0  0  0
   -0.1202   -1.2196   -0.2154 C   0  0  0  0  0  0  0  0  0  0  0  0
   -1.4010   -0.6846   -0.1119 C   0  0  0  0  0  0  0  0  0  0  0  0
    2.3091   -0.9064   -0.1763 C   0  0  0  0  0  0  0  0  0  0  0  0
   -1.5591    0.6744    0.1300 C   0  0  0  0  0  0  0  0  0  0  0  0
   -0.4367    1.4948    0.2678 C   0  0  0  0  0  0  0  0  0  0  0  0
    3.4032   -0.0651   -0.0345 C   0  0  0  0  0  0  0  0  0  0  0  0
    3.1540    1.2712    0.2038 C   0  0  0  0  0  0  0  0  0  0  0  0
   -2.9916   -2.1073    0.9375 C   0  0  0  0  0  0  0  0  0  0  0  0
   -3.4032    1.7012   -0.9657 C   0  0  0  0  0  0  0  0  0  0  0  0
  1  8  1  0
  1 14  1  0
  2 10  1  0
  2 15  1  0
  3  6  2  0
  3 13  1  0
  4  9  1  0
  5  6  1  0
  5  7  1  0
  5  9  2  0
  6 11  1  0
  7  8  2  0
  8 10  1  0
  9 12  1  0
 10 11  2  0
 12 13  2  0
M  END
>  <PUBCHEM_COMPOUND_CID>  (1) 
23510

>  <PUBCHEM_CONFORMER_RMSD>  (1) 
0.6

>  <PUBCHEM_CONFORMER_DIVERSEORDER>  (1) 
1
2

>  <PUBCHEM_MMFF94_PARTIAL_CHARGES>  (1) 
20
1 -0.36
10 0.08
11 -0.15
12 -0.15
13 0.16
14 0.28
15 0.28
16 0.15
17 0.15
18 0.15
19 0.15
2 -0.36
20 0.4
21 0.4
3 -0.62
4 -0.9
6 0.31
7 -0.15
8 0.08
9 0.1

>  <PUBCHEM_EFFECTIVE_ROTOR_COUNT>  (1) 
2

>  <PUBCHEM_PHARMACOPHORE_FEATURES>  (1) 
7
1 1 acceptor
1 2 acceptor
1 3 acceptor
1 4 cation
1 4 donor
6 3 5 6 9 12 13 rings
6 5 6 7 8 10 11 rings

>  <PUBCHEM_HEAVY_ATOM_COUNT>  (1) 
15

>  <PUBCHEM_ATOM_DEF_STEREO_COUNT>  (1) 
0

>  <PUBCHEM_ATOM_UDEF_STEREO_COUNT>  (1) 
0

>  <PUBCHEM_BOND_DEF_STEREO_COUNT>  (1) 
0

>  <PUBCHEM_BOND_UDEF_STEREO_COUNT>  (1) 
0

>  <PUBCHEM_ISOTOPIC_ATOM_COUNT>  (1) 
0

>  <PUBCHEM_COMPONENT_COUNT>  (1) 
1

>  <PUBCHEM_CACTVS_TAUTO_COUNT>  (1) 
3

>  <PUBCHEM_CONFORMER_ID>  (1) 
00005BD600000001

>  <PUBCHEM_MMFF94_ENERGY>  (1) 
77.2847

>  <PUBCHEM_FEATURE_SELFOVERLAP>  (1) 
35.556

>  <PUBCHEM_SHAPE_FINGERPRINT>  (1) 
10608611 8 18410851083562158181
10967382 1 18340487738326878508
11471102 20 18268705022169709428
11680986 33 18341894043969381394
12382932 28 18341890784031136288
12730499 353 17682671823763841453
12932764 1 17531242812217541496
13140716 1 18411983524746072778
13296908 3 18343588442774456526
13380535 21 18410865351448549901
13380535 76 18340480067557421023
13897977 150 18413105043765381956
14325111 11 18411699915366028272
14648413 74 18411417297853917088
14911166 2 18195526995575674141
15219456 202 18412545422384961897
15279308 100 18336262319320537709
15442244 35 18197780994618291026
16945 1 18268153045820624064
17844478 74 18191030195145368059
17990270 104 18411700989276514450
18186145 218 18194395594211740893
19591789 44 16101088650576919741
200 152 17846210107491003607
20201158 50 18342173315553840828
20645477 70 18060137613514304174
21501502 16 18410855477323861734
2334 1 18339923813257566986
23402655 69 18200017444604541301
23463225 33 18410009961851968176
23552423 10 18408606980603784254
23559900 14 18340485544369113350
25 1 18121771743185218597
2748010 2 18413108372359482364
3312278 4 18413111658257559040
5104073 3 18411416228855486640
528886 8 18341043043291338536
63268167 104 18341334396671783072
69090 78 18411695461869810885
7364860 26 18201435823336269998
74978 22 18338516335289504386
81228 2 18041849523072983667
8809292 202 18336271141257164578
9709674 26 18412544297219958415

>  <PUBCHEM_SHAPE_MULTIPOLES>  (1) 
286.99
5.72
2.36
0.76
0.21
0.49
-0.01
-0.13
-0.2
0.81
0.04
0.33
0.02
0.99

>  <PUBCHEM_SHAPE_SELFOVERLAP>  (1) 
621.402

>  <PUBCHEM_SHAPE_VOLUME>  (1) 
158.2

>  <PUBCHEM_COORDINATE_TYPE>  (1) 
2
5
10

$$$$
