23519
     RDKit          3D

 17 19  0  0  0  0  0  0  0  0999 V2000
    0.0000    1.1886   -0.0001 N   0  0  0  0  0  0  0  0  0  0  0  0
    0.0005   -3.0030   -0.0005 N   0  0  0  0  0  0  0  0  0  0  0  0
   -1.2146   -0.8883    0.0001 C   0  0  0  0  0  0  0  0  0  0  0  0
    1.2147   -0.8882    0.0000 C   0  0  0  0  0  0  0  0  0  0  0  0
   -1.1671    0.5160   -0.0001 C   0  0  0  0  0  0  0  0  0  0  0  0
    1.1671    0.5161   -0.0001 C   0  0  0  0  0  0  0  0  0  0  0  0
    0.0001   -1.5815    0.0001 C   0  0  0  0  0  0  0  0  0  0  0  0
   -2.3731    1.2117   -0.0002 C   0  0  0  0  0  0  0  0  0  0  0  0
    2.3731    1.2120   -0.0001 C   0  0  0  0  0  0  0  0  0  0  0  0
   -2.4499   -1.5594    0.0002 C   0  0  0  0  0  0  0  0  0  0  0  0
    2.4501   -1.5591    0.0002 C   0  0  0  0  0  0  0  0  0  0  0  0
   -3.6026    0.5481   -0.0001 C   0  0  0  0  0  0  0  0  0  0  0  0
    3.6025    0.5486    0.0001 C   0  0  0  0  0  0  0  0  0  0  0  0
   -3.6414   -0.8404    0.0001 C   0  0  0  0  0  0  0  0  0  0  0  0
    3.6416   -0.8398    0.0002 C   0  0  0  0  0  0  0  0  0  0  0  0
   -2.3825    2.7091    0.0003 C   0  0  0  0  0  0  0  0  0  0  0  0
    2.3814    2.7093   -0.0003 C   0  0  0  0  0  0  0  0  0  0  0  0
  1  5  2  0
  1  6  1  0
  2  7  1  0
  3  5  1  0
  3  7  2  0
  3 10  1  0
  4  6  2  0
  4  7  1  0
  4 11  1  0
  5  8  1  0
  6  9  1  0
  8 12  2  0
  8 16  1  0
  9 13  2  0
  9 17  1  0
 10 14  2  0
 11 15  2  0
 12 14  1  0
 13 15  1  0
M  END
>  <PUBCHEM_COMPOUND_CID>  (1) 
23519

>  <PUBCHEM_CONFORMER_RMSD>  (1) 
0.4

>  <PUBCHEM_CONFORMER_DIVERSEORDER>  (1) 
1

>  <PUBCHEM_MMFF94_PARTIAL_CHARGES>  (1) 
23
1 -0.62
10 -0.15
11 -0.15
12 -0.15
13 -0.15
14 -0.15
15 -0.15
16 0.14
17 0.14
18 0.15
19 0.15
2 -0.9
20 0.15
21 0.15
22 0.15
23 0.15
30 0.4
31 0.4
5 0.31
6 0.31
7 0.1
8 -0.14
9 -0.14

>  <PUBCHEM_EFFECTIVE_ROTOR_COUNT>  (1) 
0

>  <PUBCHEM_PHARMACOPHORE_FEATURES>  (1) 
6
1 1 acceptor
1 2 cation
1 2 donor
6 1 3 4 5 6 7 rings
6 3 5 8 10 12 14 rings
6 4 6 9 11 13 15 rings

>  <PUBCHEM_HEAVY_ATOM_COUNT>  (1) 
17

>  <PUBCHEM_ATOM_DEF_STEREO_COUNT>  (1) 
0

>  <PUBCHEM_ATOM_UDEF_STEREO_COUNT>  (1) 
0

>  <PUBCHEM_BOND_DEF_STEREO_COUNT>  (1) 
0

>  <PUBCHEM_BOND_UDEF_STEREO_COUNT>  (1) 
0

>  <PUBCHEM_ISOTOPIC_ATOM_COUNT>  (1) 
0

>  <PUBCHEM_COMPONENT_COUNT>  (1) 
1

>  <PUBCHEM_CACTVS_TAUTO_COUNT>  (1) 
2

>  <PUBCHEM_CONFORMER_ID>  (1) 
00005BDF00000001

>  <PUBCHEM_MMFF94_ENERGY>  (1) 
71.6333

>  <PUBCHEM_FEATURE_SELFOVERLAP>  (1) 
30.507

>  <PUBCHEM_SHAPE_FINGERPRINT>  (1) 
10411042 1 15600610002384115011
10608611 8 18410571786128533377
10922523 26 18201440255193900094
10967382 1 18266459999793051684
11132069 177 18412538825352151163
11471102 20 18410569569940960262
12403259 226 18410852165888577061
12403260 363 18410564093841800933
13140716 1 18410858745941881841
13221675 6 18410573989451907554
13380535 76 18410573985157122147
13897977 150 18410290319926120365
14144814 61 18410573972403764408
14325111 11 18410575084684327328
15196674 1 18410575088958091687
15309172 13 18411709802465042483
15375462 6 18337954609407284109
15442244 35 18338233739632362618
15536298 74 18343020008363861536
16945 1 18410855460128356679
17802600 8 18410568487593481152
17804303 29 18410299085980686878
1813 80 16951681382328958546
18186145 218 18272660021345056200
193761 8 17906452121542754503
200 152 18130776868160250429
20510252 161 18343303690621732745
21267235 1 18410865360028201315
21501502 16 18410576188475111149
21524375 3 18335138678513680026
221490 88 18337117847036437834
2334 1 18410575119028247949
23402539 116 18341884238210833367
23463225 33 18408603651745640982
23559900 14 18343016701460784696
238 59 16888600080243770037
25 1 18119810213960971253
2748010 2 18409730664043745141
335352 9 17978228257736251702
350125 39 18410016537099102497
474 4 17169277146757317100
5104073 3 18410575088973903937
58051976 378 18413105082493875900
69090 78 18342452672959005583
7364860 26 18196935465713291615
7832392 63 18124033425291156369
8809292 202 18260834812474926635
9709674 26 18411986883479550438

>  <PUBCHEM_SHAPE_MULTIPOLES>  (1) 
339.89
6.22
2.85
0.61
0
0.49
0
0.85
0
0
0
0
0.01
0

>  <PUBCHEM_SHAPE_SELFOVERLAP>  (1) 
765.438

>  <PUBCHEM_SHAPE_VOLUME>  (1) 
179.5

>  <PUBCHEM_COORDINATE_TYPE>  (1) 
2
5
10

$$$$
