23521
     RDKit          3D

 22 24  0  0  0  0  0  0  0  0999 V2000
    0.1959    0.5357    1.2570 N   0  0  0  0  0  0  0  0  0  0  0  0
   -3.2067   -0.8483   -0.7617 N   0  0  0  0  0  0  0  0  0  0  0  0
    2.8907    0.9965    0.2408 C   0  0  0  0  0  0  0  0  0  0  0  0
    2.2236    1.8716    1.3031 C   0  0  0  0  0  0  0  0  0  0  0  0
    4.4191    0.9804    0.3354 C   0  0  0  0  0  0  0  0  0  0  0  0
    0.7063    1.8803    1.1391 C   0  0  0  0  0  0  0  0  0  0  0  0
    5.0822    0.0471   -0.6799 C   0  0  0  0  0  0  0  0  0  0  0  0
   -0.9294    0.0781    0.5895 C   0  0  0  0  0  0  0  0  0  0  0  0
    6.6056    0.0800   -0.5492 C   0  0  0  0  0  0  0  0  0  0  0  0
   -1.8920    0.9830    0.0789 C   0  0  0  0  0  0  0  0  0  0  0  0
   -1.1496   -1.3079    0.3983 C   0  0  0  0  0  0  0  0  0  0  0  0
   -3.0175    0.4745   -0.5912 C   0  0  0  0  0  0  0  0  0  0  0  0
   -2.3041   -1.7268   -0.2843 C   0  0  0  0  0  0  0  0  0  0  0  0
    7.2726   -0.8205   -1.5769 C   0  0  0  0  0  0  0  0  0  0  0  0
   -1.7248    2.3696    0.2396 C   0  0  0  0  0  0  0  0  0  0  0  0
   -0.2273   -2.2513    0.8837 C   0  0  0  0  0  0  0  0  0  0  0  0
   -3.9509    1.3820   -1.0849 C   0  0  0  0  0  0  0  0  0  0  0  0
   -2.5003   -3.0939   -0.4610 C   0  0  0  0  0  0  0  0  0  0  0  0
   -2.6727    3.2558   -0.2635 C   0  0  0  0  0  0  0  0  0  0  0  0
   -0.4468   -3.6124    0.6940 C   0  0  0  0  0  0  0  0  0  0  0  0
   -3.7879    2.7605   -0.9270 C   0  0  0  0  0  0  0  0  0  0  0  0
   -1.5858   -4.0342    0.0202 C   0  0  0  0  0  0  0  0  0  0  0  0
  1  6  1  0
  1  8  1  0
  2 12  2  0
  2 13  1  0
  3  4  1  0
  3  5  1  0
  4  6  1  0
  5  7  1  0
  7  9  1  0
  8 10  2  0
  8 11  1  0
  9 14  1  0
 10 12  1  0
 10 15  1  0
 11 13  2  0
 11 16  1  0
 12 17  1  0
 13 18  1  0
 15 19  2  0
 16 20  2  0
 17 21  2  0
 18 22  2  0
 19 21  1  0
 20 22  1  0
M  END
>  <PUBCHEM_COMPOUND_CID>  (1) 
23521

>  <PUBCHEM_CONFORMER_RMSD>  (1) 
0.8

>  <PUBCHEM_CONFORMER_DIVERSEORDER>  (1) 
2
17
22
3
4
19
20
24
7
14
18
6
21
11
1
9
23
13
8
15
12
5
10
16

>  <PUBCHEM_MMFF94_PARTIAL_CHARGES>  (1) 
23
1 -0.87
12 0.31
13 0.31
15 -0.15
16 -0.15
17 -0.15
18 -0.15
19 -0.15
2 -0.62
20 -0.15
21 -0.15
22 -0.15
33 0.4
39 0.15
40 0.15
41 0.15
42 0.15
43 0.15
44 0.15
45 0.15
46 0.15
6 0.37
8 0.1

>  <PUBCHEM_EFFECTIVE_ROTOR_COUNT>  (1) 
7

>  <PUBCHEM_PHARMACOPHORE_FEATURES>  (1) 
8
1 1 cation
1 1 donor
1 14 hydrophobe
1 2 acceptor
5 3 4 5 7 9 hydrophobe
6 10 12 15 17 19 21 rings
6 11 13 16 18 20 22 rings
6 2 8 10 11 12 13 rings

>  <PUBCHEM_HEAVY_ATOM_COUNT>  (1) 
22

>  <PUBCHEM_ATOM_DEF_STEREO_COUNT>  (1) 
0

>  <PUBCHEM_ATOM_UDEF_STEREO_COUNT>  (1) 
0

>  <PUBCHEM_BOND_DEF_STEREO_COUNT>  (1) 
0

>  <PUBCHEM_BOND_UDEF_STEREO_COUNT>  (1) 
0

>  <PUBCHEM_ISOTOPIC_ATOM_COUNT>  (1) 
0

>  <PUBCHEM_COMPONENT_COUNT>  (1) 
1

>  <PUBCHEM_CACTVS_TAUTO_COUNT>  (1) 
2

>  <PUBCHEM_CONFORMER_ID>  (1) 
00005BE100000002

>  <PUBCHEM_MMFF94_ENERGY>  (1) 
87.2603

>  <PUBCHEM_FEATURE_SELFOVERLAP>  (1) 
40.656

>  <PUBCHEM_SHAPE_FINGERPRINT>  (1) 
10165383 225 18338520721100733097
10254770 206 17759234095540290682
10693767 8 17554303089232510383
10730089 88 18341890852465659172
107951 10 18411980222106191343
10803635 8 18335703823938921732
11200772 48 18335147453949173004
11578080 2 17535173459625368037
12643181 29 18339082593576123294
12954195 1 18342171172581541933
13690498 29 18266470991253003798
13785724 45 17615417282419757635
13941206 138 18187927231619313482
14022347 108 17611723984364796203
14251740 79 18272091578191968544
14251757 5 18410296925997323824
14713325 29 18114473322238320811
14790565 3 18196651791993134497
14866123 147 18343031016333847995
14910302 57 18339635759034926860
14931854 50 18269545061801160572
14955137 171 17827928648342987115
15042514 8 18191590954998076699
15463212 79 18040989653150636328
15475509 8 18124588950085484319
167882 2 17902508186171221339
17870717 6 18343308059072892996
19591789 44 18338503223603597963
19958102 18 18336540505069536260
20642791 178 17904751185728851345
20693207 138 18129383881301561816
21344244 181 17915436489342577999
22393880 68 18410852188265117018
22849339 104 18410583902732338254
23366157 5 17612575740877747291
23557571 272 18050831514727555480
23559900 14 18272363213995034456
23572383 38 18131073710941623854
2748010 2 17111530920878593699
3729539 64 18196937665079269606
4015057 19 17489861657636850336
44062 13 18412546539725428910
5085150 59 18199457793608158422
5283173 99 18410570721873683416
559249 180 18335699408844566418
58260988 521 18190488033313695129
59755656 520 18200886075680190289
81228 2 17832973220301208265
9709674 26 18198334263953180936
9862886 166 18341897424757392388

>  <PUBCHEM_SHAPE_MULTIPOLES>  (1) 
442.79
11.43
4.61
1.2
31.13
3.58
0.01
-2.54
7.05
-5.76
-0.31
0.69
-0.2
1.42

>  <PUBCHEM_SHAPE_SELFOVERLAP>  (1) 
946.407

>  <PUBCHEM_SHAPE_VOLUME>  (1) 
244.2

>  <PUBCHEM_COORDINATE_TYPE>  (1) 
2
5
10

$$$$
