23528
     RDKit          3D

  8  7  0  0  0  0  0  0  0  0999 V2000
   -1.0167    0.1528    0.6340 C   0  0  0  0  0  0  0  0  0  0  0  0
    0.3884    0.5338    0.2012 C   0  0  0  0  0  0  0  0  0  0  0  0
   -1.9603   -0.0352   -0.5562 C   0  0  0  0  0  0  0  0  0  0  0  0
    1.3798   -0.3704    0.0086 C   0  0  0  0  0  0  0  0  0  0  0  0
    0.5722    2.0233    0.0311 C   0  0  0  0  0  0  0  0  0  0  0  0
   -3.3533   -0.4409   -0.1001 C   0  0  0  0  0  0  0  0  0  0  0  0
    1.2030   -1.8603    0.1768 C   0  0  0  0  0  0  0  0  0  0  0  0
    2.7869   -0.0030   -0.3954 C   0  0  0  0  0  0  0  0  0  0  0  0
  1  2  1  0
  1  3  1  0
  2  4  2  3
  2  5  1  0
  3  6  1  0
  4  7  1  0
  4  8  1  0
M  END
>  <PUBCHEM_COMPOUND_CID>  (1) 
23528

>  <PUBCHEM_CONFORMER_RMSD>  (1) 
0.4

>  <PUBCHEM_CONFORMER_DIVERSEORDER>  (1) 
1
3
8
4
6
5
7
2

>  <PUBCHEM_MMFF94_PARTIAL_CHARGES>  (1) 
6
1 0.14
2 -0.28
4 -0.28
5 0.14
7 0.14
8 0.14

>  <PUBCHEM_EFFECTIVE_ROTOR_COUNT>  (1) 
2

>  <PUBCHEM_PHARMACOPHORE_FEATURES>  (1) 
3
1 5 hydrophobe
1 6 hydrophobe
3 4 7 8 hydrophobe

>  <PUBCHEM_HEAVY_ATOM_COUNT>  (1) 
8

>  <PUBCHEM_ATOM_DEF_STEREO_COUNT>  (1) 
0

>  <PUBCHEM_ATOM_UDEF_STEREO_COUNT>  (1) 
0

>  <PUBCHEM_BOND_DEF_STEREO_COUNT>  (1) 
0

>  <PUBCHEM_BOND_UDEF_STEREO_COUNT>  (1) 
0

>  <PUBCHEM_ISOTOPIC_ATOM_COUNT>  (1) 
0

>  <PUBCHEM_COMPONENT_COUNT>  (1) 
1

>  <PUBCHEM_CACTVS_TAUTO_COUNT>  (1) 
1

>  <PUBCHEM_CONFORMER_ID>  (1) 
00005BE800000001

>  <PUBCHEM_MMFF94_ENERGY>  (1) 
6.5322

>  <PUBCHEM_FEATURE_SELFOVERLAP>  (1) 
15.224

>  <PUBCHEM_SHAPE_FINGERPRINT>  (1) 
12897270 3 18335139778030309886
14128692 85 17988077902088900485
14390081 3 11963387445019168959
18185500 45 18342454811710203191
20201158 50 18333731321142370403
21040471 1 17834391606974759016
21293036 1 18336273426422105988
23552333 60 18272931587674050690
23552423 10 18045506304898769426
29004967 10 18409166593119683873

>  <PUBCHEM_SHAPE_MULTIPOLES>  (1) 
164.64
4.08
1.64
0.74
2.5
0.23
0
-0.95
0.67
-0.77
-0.1
0.07
0
-0.08

>  <PUBCHEM_SHAPE_SELFOVERLAP>  (1) 
295.275

>  <PUBCHEM_SHAPE_VOLUME>  (1) 
108.7

>  <PUBCHEM_COORDINATE_TYPE>  (1) 
2
5
10

$$$$
