23526
     RDKit          3D

 16 16  0  0  0  0  0  0  0  0999 V2000
   -1.7700    0.0028    0.9226 O   0  0  0  0  0  0  0  0  0  0  0  0
   -2.2813   -0.5962   -1.2651 O   0  0  0  0  0  0  0  0  0  0  0  0
    2.8947   -0.8889   -0.0084 N   0  0  0  0  0  0  0  0  0  0  0  0
   -3.7979   -0.9591    0.4526 N   0  0  0  0  0  0  0  0  0  0  0  0
    1.7048    0.0734    0.0212 C   0  0  0  0  0  0  0  0  0  0  0  0
    3.9937   -0.3384    0.8959 C   0  0  0  0  0  0  0  0  0  0  0  0
    3.3881   -1.0156   -1.4471 C   0  0  0  0  0  0  0  0  0  0  0  0
    2.5221   -2.2835    0.4904 C   0  0  0  0  0  0  0  0  0  0  0  0
    0.5243   -0.4245    0.4607 C   0  0  0  0  0  0  0  0  0  0  0  0
    1.9326    1.3422   -0.3950 C   0  0  0  0  0  0  0  0  0  0  0  0
   -0.5599    0.4526    0.4873 C   0  0  0  0  0  0  0  0  0  0  0  0
   -0.3978    1.7746    0.0728 C   0  0  0  0  0  0  0  0  0  0  0  0
    0.8486    2.2194   -0.3685 C   0  0  0  0  0  0  0  0  0  0  0  0
   -1.5473    2.7268    0.0940 C   0  0  0  0  0  0  0  0  0  0  0  0
   -2.5998   -0.5315   -0.0814 C   0  0  0  0  0  0  0  0  0  0  0  0
   -4.8548   -1.5539   -0.3320 C   0  0  0  0  0  0  0  0  0  0  0  0
  1 11  1  0
  1 15  1  0
  2 15  2  0
  3  5  1  0
  3  6  1  0
  3  7  1  0
  3  8  1  0
  4 15  1  0
  4 16  1  0
  5  9  2  0
  5 10  1  0
  9 11  1  0
 10 13  2  0
 11 12  2  0
 12 13  1  0
 12 14  1  0
M  CHG  1   3   1
M  END
>  <PUBCHEM_COMPOUND_CID>  (1) 
23526

>  <PUBCHEM_CONFORMER_RMSD>  (1) 
0.6

>  <PUBCHEM_CONFORMER_DIVERSEORDER>  (1) 
1
27
25
30
16
11
22
28
33
12
34
21
15
29
31
26
32
7
10
14
24
13
20
19
23
17
18
9
8
4
2
3
5
6

>  <PUBCHEM_MMFF94_PARTIAL_CHARGES>  (1) 
20
1 -0.23
10 -0.15
11 0.08
12 -0.14
13 -0.15
14 0.14
15 0.78
16 0.3
2 -0.57
26 0.15
27 0.15
28 0.15
3 -0.87
32 0.37
4 -0.73
5 0.36
6 0.5
7 0.5
8 0.5
9 -0.15

>  <PUBCHEM_EFFECTIVE_ROTOR_COUNT>  (1) 
4

>  <PUBCHEM_PHARMACOPHORE_FEATURES>  (1) 
4
1 2 acceptor
1 3 cation
1 4 donor
6 5 9 10 11 12 13 rings

>  <PUBCHEM_HEAVY_ATOM_COUNT>  (1) 
16

>  <PUBCHEM_ATOM_DEF_STEREO_COUNT>  (1) 
0

>  <PUBCHEM_ATOM_UDEF_STEREO_COUNT>  (1) 
0

>  <PUBCHEM_BOND_DEF_STEREO_COUNT>  (1) 
0

>  <PUBCHEM_BOND_UDEF_STEREO_COUNT>  (1) 
0

>  <PUBCHEM_ISOTOPIC_ATOM_COUNT>  (1) 
0

>  <PUBCHEM_COMPONENT_COUNT>  (1) 
1

>  <PUBCHEM_CACTVS_TAUTO_COUNT>  (1) 
2

>  <PUBCHEM_CONFORMER_ID>  (1) 
00005BE600000001

>  <PUBCHEM_MMFF94_ENERGY>  (1) 
62.2186

>  <PUBCHEM_FEATURE_SELFOVERLAP>  (1) 
20.297

>  <PUBCHEM_SHAPE_FINGERPRINT>  (1) 
10618630 7 18411418401528682259
11206711 2 18115034008627977716
11471102 20 18263078980300265317
11543360 7 15285648741060020147
11578080 2 17774421859564131553
116883 192 18340209600824840541
11806522 49 18409448107146777968
12403259 327 14836408046874466775
12553582 1 18335718129800083147
12932764 1 18198070175109222226
13083527 12 18265597931454155896
13583140 156 14979674317315308011
14178342 30 18193829350123515552
14252887 29 18131356323267217290
15342816 4 18411703187973021414
15477762 27 18409166648959786682
16945 1 18261685821837576760
18186145 218 17530957025679176185
200 152 18333445443523338514
20339313 130 18341335595115156627
20361792 2 18413668028283977823
20645477 70 18338797943938079359
20671657 53 18333447642509638269
20871998 184 18129659682067051964
20871998 22 18342742892552200582
21296965 67 18412260640505174321
21501502 16 18335147453585812732
21501925 9 18411133658255932888
22112679 90 18129404672979779065
221490 88 17973731569128595955
2255824 54 18265057014344995516
23388829 49 18411412925835821908
23402539 116 18335692819795041506
23419403 2 17902472113100377940
23557571 272 18272089340925210416
23559900 14 18052531068347472746
23598291 2 18199491955049640873
2748010 2 18410288073822229068
31174 14 17489013950924065920
4463277 69 17917714578176016103
6338986 31 18409724045599375186
7364860 26 18200032996411938536
81228 2 18261961717325170712

>  <PUBCHEM_SHAPE_MULTIPOLES>  (1) 
307.57
7.13
2.49
0.99
4.22
1.2
0.2
-5.4
0.45
0.39
0.07
-0.43
-0.22
-0.27

>  <PUBCHEM_SHAPE_SELFOVERLAP>  (1) 
626.755

>  <PUBCHEM_SHAPE_VOLUME>  (1) 
180.7

>  <PUBCHEM_COORDINATE_TYPE>  (1) 
2
5
10

$$$$
