23538
     RDKit          3D

 23 25  0  0  0  0  0  0  0  0999 V2000
    5.1770    1.2168    1.4534 O   0  0  0  0  0  0  0  0  0  0  0  0
   -1.4484    0.6494   -0.8176 N   0  0  0  0  0  0  0  0  0  0  0  0
    3.5292    2.0094   -0.0018 N   0  0  0  0  0  0  0  0  0  0  0  0
    1.3604    0.8472    0.1864 C   0  0  0  0  0  0  0  0  0  0  0  0
    0.1072    0.7221    1.0997 C   0  0  0  0  0  0  0  0  0  0  0  0
    0.8542    1.5126   -1.1260 C   0  0  0  0  0  0  0  0  0  0  0  0
   -1.0408   -0.0303    0.4173 C   0  0  0  0  0  0  0  0  0  0  0  0
   -0.3295    0.7685   -1.7595 C   0  0  0  0  0  0  0  0  0  0  0  0
    2.3687    1.8118    0.8503 C   0  0  0  0  0  0  0  0  0  0  0  0
    2.0870   -0.5010   -0.0059 C   0  0  0  0  0  0  0  0  0  0  0  0
   -2.5745   -0.0451   -1.4406 C   0  0  0  0  0  0  0  0  0  0  0  0
    2.0448   -1.4572    1.0036 C   0  0  0  0  0  0  0  0  0  0  0  0
    2.7779   -0.7501   -1.1873 C   0  0  0  0  0  0  0  0  0  0  0  0
   -3.7737   -0.0973   -0.5316 C   0  0  0  0  0  0  0  0  0  0  0  0
    2.7011   -2.6758    0.8299 C   0  0  0  0  0  0  0  0  0  0  0  0
    3.4341   -1.9687   -1.3609 C   0  0  0  0  0  0  0  0  0  0  0  0
    3.3957   -2.9315   -0.3522 C   0  0  0  0  0  0  0  0  0  0  0  0
    4.8063    1.6923    0.3879 C   0  0  0  0  0  0  0  0  0  0  0  0
   -3.9251   -1.1675    0.3390 C   0  0  0  0  0  0  0  0  0  0  0  0
   -4.7105    0.9259   -0.5765 C   0  0  0  0  0  0  0  0  0  0  0  0
   -5.0359   -1.2158    1.1814 C   0  0  0  0  0  0  0  0  0  0  0  0
   -5.8211    0.8776    0.2661 C   0  0  0  0  0  0  0  0  0  0  0  0
   -5.9838   -0.1933    1.1450 C   0  0  0  0  0  0  0  0  0  0  0  0
  1 18  2  0
  2  7  1  0
  2  8  1  0
  2 11  1  0
  3  9  1  0
  3 18  1  0
  4  5  1  0
  4  6  1  0
  4  9  1  0
  4 10  1  0
  5  7  1  0
  6  8  1  0
 10 12  2  0
 10 13  1  0
 11 14  1  0
 12 15  1  0
 13 16  2  0
 14 19  2  0
 14 20  1  0
 15 17  2  0
 16 17  1  0
 19 21  1  0
 20 22  2  0
 21 23  2  0
 22 23  1  0
M  END
>  <PUBCHEM_COMPOUND_CID>  (1) 
23538

>  <PUBCHEM_CONFORMER_RMSD>  (1) 
0.8

>  <PUBCHEM_CONFORMER_DIVERSEORDER>  (1) 
2
32
45
11
52
34
25
20
40
36
27
14
28
46
51
1
47
31
29
39
37
16
17
10
33
53
50
24
3
13
23
48
21
7
41
5
38
35
49
26
43
12
9
15
22
18
42
19
44
4
8
30
6

>  <PUBCHEM_MMFF94_PARTIAL_CHARGES>  (1) 
33
1 -0.57
10 -0.14
11 0.41
12 -0.15
13 -0.15
14 -0.14
15 -0.15
16 -0.15
17 -0.15
18 0.57
19 -0.15
2 -0.81
20 -0.15
21 -0.15
22 -0.15
23 -0.15
3 -0.73
36 0.37
37 0.15
38 0.15
39 0.15
4 0.14
40 0.15
41 0.15
42 0.06
43 0.15
44 0.15
45 0.15
46 0.15
47 0.15
7 0.27
8 0.27
9 0.3

>  <PUBCHEM_EFFECTIVE_ROTOR_COUNT>  (1) 
7.2

>  <PUBCHEM_PHARMACOPHORE_FEATURES>  (1) 
6
1 1 acceptor
1 2 cation
1 3 donor
6 10 12 13 15 16 17 rings
6 14 19 20 21 22 23 rings
6 2 4 5 6 7 8 rings

>  <PUBCHEM_HEAVY_ATOM_COUNT>  (1) 
23

>  <PUBCHEM_ATOM_DEF_STEREO_COUNT>  (1) 
0

>  <PUBCHEM_ATOM_UDEF_STEREO_COUNT>  (1) 
0

>  <PUBCHEM_BOND_DEF_STEREO_COUNT>  (1) 
0

>  <PUBCHEM_BOND_UDEF_STEREO_COUNT>  (1) 
0

>  <PUBCHEM_ISOTOPIC_ATOM_COUNT>  (1) 
0

>  <PUBCHEM_COMPONENT_COUNT>  (1) 
1

>  <PUBCHEM_CACTVS_TAUTO_COUNT>  (1) 
2

>  <PUBCHEM_CONFORMER_ID>  (1) 
00005BF200000002

>  <PUBCHEM_MMFF94_ENERGY>  (1) 
63.8831

>  <PUBCHEM_FEATURE_SELFOVERLAP>  (1) 
30.446

>  <PUBCHEM_SHAPE_FINGERPRINT>  (1) 
10369192 42 18189052178407725484
10906281 52 17604445096913803220
11370993 144 18410294671419230497
11552529 35 17844529019043390527
11595378 159 16917078732761771945
12107183 9 17839188411656583745
12236239 1 17060057072716502397
12507560 40 18411138018101633309
12596602 18 18060425733391055539
12644460 14 17846497041133731500
12730499 353 18337116747550917504
12778500 126 18129957688779157993
12788726 201 17131844131417963705
13073987 5 18272658939757083649
13224815 77 15140678086167556037
13533116 47 18343302557446516763
13544592 145 18260554394181535459
13583140 156 18059009622601673761
13675066 3 18407760344251006125
13911882 115 18187655750946922707
14251764 38 10952051139490902795
14252887 29 18186238441825034525
14341114 176 18336555945598342769
14863182 85 18259990396556631614
15238133 3 15410899526459937003
15664445 248 17530977898882976228
1601671 61 15769782372292067241
16994733 274 15697139903399546904
17349148 13 14273729633975064144
17844677 252 18338522945866918537
20645477 70 18343016675274314751
21033650 10 15865198961944311140
21315759 148 18260561039001994193
21421861 104 18272649017891941184
2215653 11 18113897123044137615
22182313 1 17968360269863254701
22224240 67 18266169711976330344
22950370 63 17749964254269770535
23557571 272 17385714777454317588
23559900 14 18260269629375556877
239999 70 18410580574138049382
25222932 49 17701538639746735207
312425 54 18337125527197599619
3323516 105 17967818219479424371
3411729 13 18342739641568023052
3421961 26 18337954489412067242
34934 24 17560796684240225612
42630746 31 18410854373854876890
4340502 62 18412545444165799082
5104073 3 18336832996621543529
59755656 215 18341898493882684268
8272917 22 18202566180917986756
8509985 295 17346878923555657945

>  <PUBCHEM_SHAPE_MULTIPOLES>  (1) 
457.5
12.43
2.48
1.47
14.14
1.16
-0.24
0.05
3.34
-4
0.22
-0.19
-0.01
1.48

>  <PUBCHEM_SHAPE_SELFOVERLAP>  (1) 
971.985

>  <PUBCHEM_SHAPE_VOLUME>  (1) 
252.3

>  <PUBCHEM_COORDINATE_TYPE>  (1) 
2
5
10

$$$$
