23533
     RDKit          3D

 16 19  0  0  0  0  0  0  0  0999 V2000
    2.1124    2.4435    0.0001 N   0  0  0  0  0  0  0  0  0  0  0  0
    0.8949   -0.0030   -0.0004 C   0  0  0  0  0  0  0  0  0  0  0  0
    0.1038   -1.1426   -0.0005 C   0  0  0  0  0  0  0  0  0  0  0  0
    0.1057    1.1307   -0.0004 C   0  0  0  0  0  0  0  0  0  0  0  0
   -1.2888   -0.7136   -0.0006 C   0  0  0  0  0  0  0  0  0  0  0  0
   -1.2856    0.7127   -0.0004 C   0  0  0  0  0  0  0  0  0  0  0  0
    2.2821    0.0027    0.0000 C   0  0  0  0  0  0  0  0  0  0  0  0
    0.7163   -2.3821    0.0000 C   0  0  0  0  0  0  0  0  0  0  0  0
   -2.4727   -1.4251   -0.0005 C   0  0  0  0  0  0  0  0  0  0  0  0
   -2.4651    1.4313    0.0005 C   0  0  0  0  0  0  0  0  0  0  0  0
    0.7533    2.3410   -0.0002 C   0  0  0  0  0  0  0  0  0  0  0  0
    2.9078   -1.2605    0.0005 C   0  0  0  0  0  0  0  0  0  0  0  0
    2.1235   -2.4346    0.0007 C   0  0  0  0  0  0  0  0  0  0  0  0
    2.8425    1.2867    0.0001 C   0  0  0  0  0  0  0  0  0  0  0  0
   -3.6669   -0.6979    0.0002 C   0  0  0  0  0  0  0  0  0  0  0  0
   -3.6631    0.7109    0.0008 C   0  0  0  0  0  0  0  0  0  0  0  0
  1 11  2  0
  1 14  1  0
  2  3  1  0
  2  4  2  0
  2  7  1  0
  3  5  1  0
  3  8  2  0
  4  6  1  0
  4 11  1  0
  5  6  2  0
  5  9  1  0
  6 10  1  0
  7 12  1  0
  7 14  2  0
  8 13  1  0
  9 15  2  0
 10 16  2  0
 12 13  2  0
 15 16  1  0
M  END
>  <PUBCHEM_COMPOUND_CID>  (1) 
23533

>  <PUBCHEM_CONFORMER_RMSD>  (1) 
0.4

>  <PUBCHEM_CONFORMER_DIVERSEORDER>  (1) 
1

>  <PUBCHEM_MMFF94_PARTIAL_CHARGES>  (1) 
19
1 -0.62
10 -0.15
11 0.16
12 -0.15
13 -0.15
14 0.16
15 -0.15
16 -0.15
17 0.15
18 0.15
19 0.15
20 0.15
21 0.15
22 0.15
23 0.15
24 0.15
25 0.15
8 -0.15
9 -0.15

>  <PUBCHEM_EFFECTIVE_ROTOR_COUNT>  (1) 
0

>  <PUBCHEM_PHARMACOPHORE_FEATURES>  (1) 
5
1 1 acceptor
5 2 3 4 5 6 rings
6 1 2 4 7 11 14 rings
6 2 3 7 8 12 13 rings
6 5 6 9 10 15 16 rings

>  <PUBCHEM_HEAVY_ATOM_COUNT>  (1) 
16

>  <PUBCHEM_ATOM_DEF_STEREO_COUNT>  (1) 
0

>  <PUBCHEM_ATOM_UDEF_STEREO_COUNT>  (1) 
0

>  <PUBCHEM_BOND_DEF_STEREO_COUNT>  (1) 
0

>  <PUBCHEM_BOND_UDEF_STEREO_COUNT>  (1) 
0

>  <PUBCHEM_ISOTOPIC_ATOM_COUNT>  (1) 
0

>  <PUBCHEM_COMPONENT_COUNT>  (1) 
1

>  <PUBCHEM_CACTVS_TAUTO_COUNT>  (1) 
1

>  <PUBCHEM_CONFORMER_ID>  (1) 
00005BED00000001

>  <PUBCHEM_MMFF94_ENERGY>  (1) 
71.6283

>  <PUBCHEM_FEATURE_SELFOVERLAP>  (1) 
25.681

>  <PUBCHEM_SHAPE_FINGERPRINT>  (1) 
10608611 8 18408037395068542837
10967382 1 18338517550791616391
10980938 120 18411138051817474976
11132069 177 18410003321452603680
11471102 20 18410288103912828357
11578080 2 17271123641638466873
12553582 1 18050007683933381714
13140716 1 18410855421499843336
13380535 76 18264203789037508042
13897977 150 18409727395837415877
14648413 74 18408324384535179433
14790565 3 16469260540672528648
15196674 1 18410575080373392871
15219456 202 18407759244422659097
15442244 35 18268431226689333057
15501101 241 18260551095361555805
15536298 74 18343864415739610442
16945 1 18338517439233236487
17990270 104 18409728434998176362
18186145 218 18271535263846838261
193761 8 18410574002537087623
19591789 44 17834122222352053050
20510252 161 17622170486836313945
20559304 39 18411138030342651504
20645477 70 18411976958337383951
21267235 1 18339370664562440143
21501502 16 18411419509973012527
221490 88 18408612473725089787
2334 1 18410574019537576260
23463225 33 18337670823801348210
23559900 14 18340197518654257082
25 1 18335984245910121244
2748010 2 18410292518928212004
3071541 12 18411423929315291388
3071541 158 18261675861439269300
335352 9 18122626059219025685
34934 24 18193547870414234106
352729 6 17761213619209353060
5104073 3 18410576184770826123
528886 8 18411132571523698864
53812653 166 18342453794040415536
54173680 148 17185313141316843242
63268167 104 18411142419947051177
7364860 26 18413107259957671298
7832392 63 18268710507016902641
81228 2 17548705079812246730
84936 182 18130787927047611872
8809292 202 18260274027280065499
9709674 26 18410014347072119311

>  <PUBCHEM_SHAPE_MULTIPOLES>  (1) 
324.29
5.3
2.73
0.61
3.06
0.11
0
-0.21
0
-1.63
0
0.01
-0.01
0

>  <PUBCHEM_SHAPE_SELFOVERLAP>  (1) 
759.768

>  <PUBCHEM_SHAPE_VOLUME>  (1) 
163.5

>  <PUBCHEM_COORDINATE_TYPE>  (1) 
2
5
10

$$$$
