23539
     RDKit          3D

 11 12  0  0  0  0  0  0  0  0999 V2000
    3.2000    0.7093   -0.0004 S   0  0  0  0  0  0  0  0  0  0  0  0
    0.5872    1.3473    0.0005 N   0  0  0  0  0  0  0  0  0  0  0  0
    0.9566   -0.8443    0.0008 N   0  0  0  0  0  0  0  0  0  0  0  0
   -0.6550    0.7668    0.0001 C   0  0  0  0  0  0  0  0  0  0  0  0
   -0.3978   -0.6013    0.0003 C   0  0  0  0  0  0  0  0  0  0  0  0
    1.5165    0.3446    0.0006 C   0  0  0  0  0  0  0  0  0  0  0  0
   -1.9425    1.3047   -0.0003 C   0  0  0  0  0  0  0  0  0  0  0  0
   -1.4770   -1.5011    0.0001 C   0  0  0  0  0  0  0  0  0  0  0  0
   -3.0048    0.3947   -0.0007 C   0  0  0  0  0  0  0  0  0  0  0  0
   -2.7785   -0.9838   -0.0002 C   0  0  0  0  0  0  0  0  0  0  0  0
    3.9953   -0.9368   -0.0008 C   0  0  0  0  0  0  0  0  0  0  0  0
  1  6  1  0
  1 11  1  0
  2  4  1  0
  2  6  1  0
  3  5  1  0
  3  6  2  0
  4  5  2  0
  4  7  1  0
  5  8  1  0
  7  9  2  0
  8 10  2  0
  9 10  1  0
M  END
>  <PUBCHEM_COMPOUND_CID>  (1) 
23539

>  <PUBCHEM_CONFORMER_RMSD>  (1) 
0.4

>  <PUBCHEM_CONFORMER_DIVERSEORDER>  (1) 
1
2

>  <PUBCHEM_MMFF94_PARTIAL_CHARGES>  (1) 
16
1 -0.29
10 -0.15
11 0.23
12 0.27
13 0.15
14 0.15
15 0.15
16 0.15
2 0.03
3 -0.57
4 -0.15
5 0.23
6 0.24
7 -0.15
8 -0.15
9 -0.15

>  <PUBCHEM_EFFECTIVE_ROTOR_COUNT>  (1) 
1

>  <PUBCHEM_PHARMACOPHORE_FEATURES>  (1) 
5
1 11 hydrophobe
1 2 donor
3 2 3 6 cation
5 2 3 4 5 6 rings
6 4 5 7 8 9 10 rings

>  <PUBCHEM_HEAVY_ATOM_COUNT>  (1) 
11

>  <PUBCHEM_ATOM_DEF_STEREO_COUNT>  (1) 
0

>  <PUBCHEM_ATOM_UDEF_STEREO_COUNT>  (1) 
0

>  <PUBCHEM_BOND_DEF_STEREO_COUNT>  (1) 
0

>  <PUBCHEM_BOND_UDEF_STEREO_COUNT>  (1) 
0

>  <PUBCHEM_ISOTOPIC_ATOM_COUNT>  (1) 
0

>  <PUBCHEM_COMPONENT_COUNT>  (1) 
1

>  <PUBCHEM_CACTVS_TAUTO_COUNT>  (1) 
1

>  <PUBCHEM_CONFORMER_ID>  (1) 
00005BF300000001

>  <PUBCHEM_MMFF94_ENERGY>  (1) 
15.3606

>  <PUBCHEM_FEATURE_SELFOVERLAP>  (1) 
25.479

>  <PUBCHEM_SHAPE_FINGERPRINT>  (1) 
10608611 8 18413102875097223240
11769659 78 18411976996612190214
12032990 46 18410016554326158650
12932764 1 17560517425629936100
13024252 1 15647053763803193985
13380535 76 18340768156773575327
14144814 61 18409448089856087098
14325111 11 18410573998374145024
16945 1 18410574015490600261
193761 8 17617941327108058277
20645464 45 18131637763799397407
20871998 184 18129667533573445135
21040471 1 18410575046388330785
23402539 116 18131624578803823261
23402655 69 18196072380184194965
23463225 33 18408322164358925038
23552423 10 18116432733352243260
23559900 14 18342454812685830928
2748010 2 18411418422987597173
369184 2 18201999957962076361
6333449 129 18341892987175220573
7364860 26 18196373834879325980

>  <PUBCHEM_SHAPE_MULTIPOLES>  (1) 
220.26
5.72
1.5
0.61
4.14
0.06
0
0.79
0
-0.31
0
0.02
0
0

>  <PUBCHEM_SHAPE_SELFOVERLAP>  (1) 
462.366

>  <PUBCHEM_SHAPE_VOLUME>  (1) 
127.1

>  <PUBCHEM_COORDINATE_TYPE>  (1) 
2
5
10

$$$$
