23540
     RDKit          3D

 12 12  0  0  0  0  0  0  0  0999 V2000
    2.9904    0.5084    0.9641 S   0  0  0  0  0  0  0  0  0  0  0  0
   -2.8343   -0.1377   -0.2383 N   0  0  0  0  0  0  0  0  0  0  0  0
    3.9774   -0.7056   -1.4216 N   0  0  0  0  0  0  0  0  0  0  0  0
   -1.4602    0.0128    0.0414 C   0  0  0  0  0  0  0  0  0  0  0  0
   -0.7864    1.1626   -0.3702 C   0  0  0  0  0  0  0  0  0  0  0  0
   -0.7759   -0.9868    0.7331 C   0  0  0  0  0  0  0  0  0  0  0  0
   -3.6954    1.0242   -0.3341 C   0  0  0  0  0  0  0  0  0  0  0  0
   -3.4007   -1.4554   -0.4472 C   0  0  0  0  0  0  0  0  0  0  0  0
    0.5717    1.3129   -0.0902 C   0  0  0  0  0  0  0  0  0  0  0  0
    0.5823   -0.8365    1.0132 C   0  0  0  0  0  0  0  0  0  0  0  0
    1.2562    0.3134    0.6015 C   0  0  0  0  0  0  0  0  0  0  0  0
    3.5749   -0.2122   -0.4519 C   0  0  0  0  0  0  0  0  0  0  0  0
  1 11  1  0
  1 12  1  0
  2  4  1  0
  2  7  1  0
  2  8  1  0
  3 12  3  0
  4  5  2  0
  4  6  1  0
  5  9  1  0
  6 10  2  0
  9 11  2  0
 10 11  1  0
M  END
>  <PUBCHEM_COMPOUND_CID>  (1) 
23540

>  <PUBCHEM_CONFORMER_RMSD>  (1) 
0.6

>  <PUBCHEM_CONFORMER_DIVERSEORDER>  (1) 
1
3
2
4

>  <PUBCHEM_MMFF94_PARTIAL_CHARGES>  (1) 
16
1 -0.14
10 -0.15
11 0.1
12 0.59
13 0.15
14 0.15
2 -0.84
21 0.15
22 0.15
3 -0.56
4 0.1
5 -0.15
6 -0.15
7 0.37
8 0.37
9 -0.15

>  <PUBCHEM_EFFECTIVE_ROTOR_COUNT>  (1) 
2

>  <PUBCHEM_PHARMACOPHORE_FEATURES>  (1) 
3
1 2 cation
1 3 acceptor
6 4 5 6 9 10 11 rings

>  <PUBCHEM_HEAVY_ATOM_COUNT>  (1) 
12

>  <PUBCHEM_ATOM_DEF_STEREO_COUNT>  (1) 
0

>  <PUBCHEM_ATOM_UDEF_STEREO_COUNT>  (1) 
0

>  <PUBCHEM_BOND_DEF_STEREO_COUNT>  (1) 
0

>  <PUBCHEM_BOND_UDEF_STEREO_COUNT>  (1) 
0

>  <PUBCHEM_ISOTOPIC_ATOM_COUNT>  (1) 
0

>  <PUBCHEM_COMPONENT_COUNT>  (1) 
1

>  <PUBCHEM_CACTVS_TAUTO_COUNT>  (1) 
1

>  <PUBCHEM_CONFORMER_ID>  (1) 
00005BF400000001

>  <PUBCHEM_MMFF94_ENERGY>  (1) 
41.1341

>  <PUBCHEM_FEATURE_SELFOVERLAP>  (1) 
15.223

>  <PUBCHEM_SHAPE_FINGERPRINT>  (1) 
10465860 71 18261683635625370236
11206711 2 17968084318214564349
11769659 78 16988556935400401518
12032990 46 18411139181568103131
124424 183 15410614761833351969
12932764 1 18041264513751064849
13296908 3 18202278134419682424
13705890 14 17775002422929824362
13760787 5 17095234804796242979
14325111 11 18335128830327659377
14911166 2 18186237346402418286
14993402 34 17312821597560308918
16945 1 17894905247991059113
18186145 218 18261104188354703932
19026448 4 17703502272433552369
20374829 77 18342459201762924342
20645476 183 16877950472662636674
20645477 70 16988840558076966764
20871999 31 18115600368954373382
21293036 1 17968096447291651308
22485316 2 18060697290945082694
23402539 116 18261664918432090260
23402655 69 18044628972836525613
23559900 14 18408041819501795744
2748010 2 17680711728583299985
449060 23 18341609343234737863
4990 188 18413669101883441854
7364860 26 18053099807220957512

>  <PUBCHEM_SHAPE_MULTIPOLES>  (1) 
240.84
6.79
1.36
1.05
0.79
0.03
-0.09
-0.78
-2.21
-0.78
-0.05
0.95
-0.19
0.34

>  <PUBCHEM_SHAPE_SELFOVERLAP>  (1) 
477.653

>  <PUBCHEM_SHAPE_VOLUME>  (1) 
144

>  <PUBCHEM_COORDINATE_TYPE>  (1) 
2
5
10

$$$$
