23555
     RDKit          3D

 12 12  0  0  0  0  0  0  0  0999 V2000
    1.2312    1.7637    1.1924 Br  0  0  0  0  0  0  0  0  0  0  0  0
    3.1278   -1.4076   -0.2694 O   0  0  0  0  0  0  0  0  0  0  0  0
    3.8228    0.6680   -0.1836 O   0  0  0  0  0  0  0  0  0  0  0  0
    2.9366   -0.1948   -0.1073 N   0  0  0  0  0  0  0  0  0  0  0  0
   -0.8417   -0.3119   -0.2163 C   0  0  0  0  0  0  0  0  0  0  0  0
   -1.5396   -0.8971    0.8401 C   0  0  0  0  0  0  0  0  0  0  0  0
   -1.5125    0.5010   -1.1299 C   0  0  0  0  0  0  0  0  0  0  0  0
    0.5858   -0.5489   -0.3648 C   0  0  0  0  0  0  0  0  0  0  0  0
   -2.9083   -0.6696    0.9829 C   0  0  0  0  0  0  0  0  0  0  0  0
   -2.8812    0.7287   -0.9871 C   0  0  0  0  0  0  0  0  0  0  0  0
   -3.5791    0.1434    0.0694 C   0  0  0  0  0  0  0  0  0  0  0  0
    1.5583    0.2252    0.1736 C   0  0  0  0  0  0  0  0  0  0  0  0
  1 12  1  0
  2  4  1  0
  3  4  2  0
  4 12  1  0
  5  6  2  0
  5  7  1  0
  5  8  1  0
  6  9  1  0
  7 10  2  0
  8 12  2  0
  9 11  2  0
 10 11  1  0
M  CHG  2   2  -1   4   1
M  END
>  <PUBCHEM_COMPOUND_CID>  (1) 
23555

>  <PUBCHEM_CONFORMER_RMSD>  (1) 
0.6

>  <PUBCHEM_CONFORMER_DIVERSEORDER>  (1) 
1
2
3

>  <PUBCHEM_MMFF94_PARTIAL_CHARGES>  (1) 
18
1 -0.11
10 -0.15
11 -0.15
12 0.31
13 0.15
14 0.15
15 0.15
16 0.15
17 0.15
18 0.15
2 -0.52
3 -0.52
4 0.84
5 0.03
6 -0.15
7 -0.15
8 -0.18
9 -0.15

>  <PUBCHEM_EFFECTIVE_ROTOR_COUNT>  (1) 
2

>  <PUBCHEM_PHARMACOPHORE_FEATURES>  (1) 
5
1 1 hydrophobe
1 2 acceptor
1 2 anion
1 3 acceptor
6 5 6 7 9 10 11 rings

>  <PUBCHEM_HEAVY_ATOM_COUNT>  (1) 
12

>  <PUBCHEM_ATOM_DEF_STEREO_COUNT>  (1) 
0

>  <PUBCHEM_ATOM_UDEF_STEREO_COUNT>  (1) 
0

>  <PUBCHEM_BOND_DEF_STEREO_COUNT>  (1) 
0

>  <PUBCHEM_BOND_UDEF_STEREO_COUNT>  (1) 
1

>  <PUBCHEM_ISOTOPIC_ATOM_COUNT>  (1) 
0

>  <PUBCHEM_COMPONENT_COUNT>  (1) 
1

>  <PUBCHEM_CACTVS_TAUTO_COUNT>  (1) 
1

>  <PUBCHEM_CONFORMER_ID>  (1) 
00005C0300000001

>  <PUBCHEM_MMFF94_ENERGY>  (1) 
34.473

>  <PUBCHEM_FEATURE_SELFOVERLAP>  (1) 
25.455

>  <PUBCHEM_SHAPE_FINGERPRINT>  (1) 
10130415 120 18341045221045362682
10219947 1 17847064367690515022
10608611 8 18186516600907696772
10857977 72 17749104539134582861
11062470 55 10087639303835963775
124424 183 18410849928226121826
12932764 1 18410283744199457771
13024252 1 15285357328077391655
14144814 61 17275103929222107598
14325111 11 17822008687868435959
14993402 34 17132114649711639860
15219456 202 18261394425090935750
16945 1 17989200443241633737
17844478 74 18333735723325515153
18186145 218 18187932729198083254
190213 19 15213018245434078675
20201158 50 18410293596833303322
20279233 1 18333168366783120918
20645464 45 18189037837073443577
20645476 183 16415476060893445949
20645477 70 18342173306990923542
20653085 51 17988350542719024185
20715346 28 18262512705894502865
20871998 184 17895768390900772715
21130352 189 18272646865718148328
23402539 116 17967808375931268799
369184 2 18201435909013952907
74978 22 17560514122451867444
77492 1 16487255482256849627

>  <PUBCHEM_SHAPE_MULTIPOLES>  (1) 
236.18
6.12
1.33
1.12
1.88
0.49
0.01
-0.28
-0.28
0.96
0.32
-0.77
0.13
0.6

>  <PUBCHEM_SHAPE_SELFOVERLAP>  (1) 
475.737

>  <PUBCHEM_SHAPE_VOLUME>  (1) 
141.4

>  <PUBCHEM_COORDINATE_TYPE>  (1) 
2
5
10

$$$$
