23559
     RDKit          3D

 18 18  0  0  0  0  0  0  0  0999 V2000
   -6.5927    1.0264   -1.2909 Cl  0  0  0  0  0  0  0  0  0  0  0  0
    1.4959   -1.2205    0.9892 S   0  0  0  0  0  0  0  0  0  0  0  0
   -1.4439   -1.2644    1.5095 S   0  0  0  0  0  0  0  0  0  0  0  0
    2.8621   -0.4899   -0.4305 P   0  0  0  0  0  0  0  0  0  0  0  0
    4.3896   -0.8085    0.0257 O   0  0  0  0  0  0  0  0  0  0  0  0
    2.8163    1.1356   -0.4285 O   0  0  0  0  0  0  0  0  0  0  0  0
    2.5572   -1.0660   -1.7893 O   0  0  0  0  0  0  0  0  0  0  0  0
    5.4757   -0.3443   -0.7576 C   0  0  0  0  0  0  0  0  0  0  0  0
    3.0827    1.8244    0.7814 C   0  0  0  0  0  0  0  0  0  0  0  0
   -0.1301   -0.6848    0.3952 C   0  0  0  0  0  0  0  0  0  0  0  0
   -2.9084   -0.6128    0.7128 C   0  0  0  0  0  0  0  0  0  0  0  0
    6.7727   -0.7781   -0.1084 C   0  0  0  0  0  0  0  0  0  0  0  0
    2.9817    3.3143    0.5332 C   0  0  0  0  0  0  0  0  0  0  0  0
   -3.0422    0.7599    0.5321 C   0  0  0  0  0  0  0  0  0  0  0  0
   -3.9033   -1.4834    0.2799 C   0  0  0  0  0  0  0  0  0  0  0  0
   -4.1836    1.2676   -0.0884 C   0  0  0  0  0  0  0  0  0  0  0  0
   -5.0447   -0.9756   -0.3407 C   0  0  0  0  0  0  0  0  0  0  0  0
   -5.1849    0.4000   -0.5249 C   0  0  0  0  0  0  0  0  0  0  0  0
  1 18  1  0
  2  4  1  0
  2 10  1  0
  3 10  1  0
  3 11  1  0
  4  5  1  0
  4  6  1  0
  4  7  2  0
  5  8  1  0
  6  9  1  0
  8 12  1  0
  9 13  1  0
 11 14  2  0
 11 15  1  0
 14 16  1  0
 15 17  2  0
 16 18  2  0
 17 18  1  0
M  END
>  <PUBCHEM_COMPOUND_CID>  (1) 
23559

>  <PUBCHEM_CONFORMER_RMSD>  (1) 
0.8

>  <PUBCHEM_CONFORMER_DIVERSEORDER>  (1) 
1
14
62
11
80
46
66
30
12
10
94
50
61
98
55
97
17
99
7
43
22
75
3
67
44
85
95
79
23
33
18
21
53
93
90
25
6
35
27
37
91
48
31
2
51
100
84
57
76
4
34
19
24
13
70
60
47
52
63
39
77
36
38
29
45
41
82
28
9
56
68
59
71
20
5
49
87
58
92
54
69
15
65
32
16
86
73
72
74
81
78
42
64
89
96
8
40
83
26
88

>  <PUBCHEM_MMFF94_PARTIAL_CHARGES>  (1) 
20
1 -0.18
10 0.46
11 0.1
14 -0.15
15 -0.15
16 -0.15
17 -0.15
18 0.18
2 -0.48
3 -0.33
31 0.15
32 0.15
33 0.15
34 0.15
4 1.49
5 -0.55
6 -0.55
7 -0.7
8 0.28
9 0.28

>  <PUBCHEM_EFFECTIVE_ROTOR_COUNT>  (1) 
8

>  <PUBCHEM_PHARMACOPHORE_FEATURES>  (1) 
2
1 7 acceptor
6 11 14 15 16 17 18 rings

>  <PUBCHEM_HEAVY_ATOM_COUNT>  (1) 
18

>  <PUBCHEM_ATOM_DEF_STEREO_COUNT>  (1) 
0

>  <PUBCHEM_ATOM_UDEF_STEREO_COUNT>  (1) 
0

>  <PUBCHEM_BOND_DEF_STEREO_COUNT>  (1) 
0

>  <PUBCHEM_BOND_UDEF_STEREO_COUNT>  (1) 
0

>  <PUBCHEM_ISOTOPIC_ATOM_COUNT>  (1) 
0

>  <PUBCHEM_COMPONENT_COUNT>  (1) 
1

>  <PUBCHEM_CACTVS_TAUTO_COUNT>  (1) 
1

>  <PUBCHEM_CONFORMER_ID>  (1) 
00005C0700000001

>  <PUBCHEM_MMFF94_ENERGY>  (1) 
20.0662

>  <PUBCHEM_FEATURE_SELFOVERLAP>  (1) 
10.148

>  <PUBCHEM_SHAPE_FINGERPRINT>  (1) 
10670039 82 17676482813895677197
11089746 13 18335697243426707623
11545043 162 17677063446107968242
12403259 415 18187088403009962513
12596602 18 14201412585331559941
12616971 3 17489043637711583627
14251764 38 18413393150398918873
15183329 4 18187929443801485058
15537594 2 12684810030583871376
17834072 8 18408040701776421392
1813 80 13830137221542172827
193927 3 12751235965325684631
20645477 56 18113618967897753027
21521721 280 10881697814714862342
21623969 137 9439405739569968580
21709351 56 18343581862837203398
221357 26 18411979135332116072
22224240 67 8430305811006622348
22289505 5 18409730643165033564
23402539 116 18334576841210028630
23559900 14 18412259553778111641
351380 180 18411419518193701498
351380 3 13470401158829179583
3545911 37 18041000635629899427
4325135 7 13254793543135640714
6328613 192 17676499380027337844

>  <PUBCHEM_SHAPE_MULTIPOLES>  (1) 
366.24
16.52
2.23
1.24
0.66
1.97
-0.11
1.5
-5.96
1.36
0.65
-0.02
-0.16
1.59

>  <PUBCHEM_SHAPE_SELFOVERLAP>  (1) 
670.988

>  <PUBCHEM_SHAPE_VOLUME>  (1) 
234.6

>  <PUBCHEM_COORDINATE_TYPE>  (1) 
2
5
10

$$$$
