23556
     RDKit          3D

 10 11  0  0  0  0  0  0  0  0999 V2000
    0.8789    1.7470   -0.0001 O   0  0  0  0  0  0  0  0  0  0  0  0
    2.2896   -1.4976   -0.0006 O   0  0  0  0  0  0  0  0  0  0  0  0
    0.1690   -0.4631    0.0005 C   0  0  0  0  0  0  0  0  0  0  0  0
   -0.1763    0.8726    0.0002 C   0  0  0  0  0  0  0  0  0  0  0  0
    2.0759    0.9338   -0.0001 C   0  0  0  0  0  0  0  0  0  0  0  0
    1.6059   -0.4935    0.0003 C   0  0  0  0  0  0  0  0  0  0  0  0
   -0.7594   -1.4835    0.0003 C   0  0  0  0  0  0  0  0  0  0  0  0
   -1.5040    1.2525    0.0000 C   0  0  0  0  0  0  0  0  0  0  0  0
   -2.1048   -1.1131   -0.0001 C   0  0  0  0  0  0  0  0  0  0  0  0
   -2.4749    0.2449   -0.0004 C   0  0  0  0  0  0  0  0  0  0  0  0
  1  4  1  0
  1  5  1  0
  2  6  2  0
  3  4  2  0
  3  6  1  0
  3  7  1  0
  4  8  1  0
  5  6  1  0
  7  9  2  0
  8 10  2  0
  9 10  1  0
M  END
>  <PUBCHEM_COMPOUND_CID>  (1) 
23556

>  <PUBCHEM_CONFORMER_RMSD>  (1) 
0.4

>  <PUBCHEM_CONFORMER_DIVERSEORDER>  (1) 
1

>  <PUBCHEM_MMFF94_PARTIAL_CHARGES>  (1) 
14
1 -0.36
10 -0.15
13 0.15
14 0.15
15 0.15
16 0.15
2 -0.57
3 0.09
4 0.08
5 0.34
6 0.42
7 -0.15
8 -0.15
9 -0.15

>  <PUBCHEM_EFFECTIVE_ROTOR_COUNT>  (1) 
0.4

>  <PUBCHEM_PHARMACOPHORE_FEATURES>  (1) 
4
1 1 acceptor
1 2 acceptor
5 1 3 4 5 6 rings
6 3 4 7 8 9 10 rings

>  <PUBCHEM_HEAVY_ATOM_COUNT>  (1) 
10

>  <PUBCHEM_ATOM_DEF_STEREO_COUNT>  (1) 
0

>  <PUBCHEM_ATOM_UDEF_STEREO_COUNT>  (1) 
0

>  <PUBCHEM_BOND_DEF_STEREO_COUNT>  (1) 
0

>  <PUBCHEM_BOND_UDEF_STEREO_COUNT>  (1) 
0

>  <PUBCHEM_ISOTOPIC_ATOM_COUNT>  (1) 
0

>  <PUBCHEM_COMPONENT_COUNT>  (1) 
1

>  <PUBCHEM_CACTVS_TAUTO_COUNT>  (1) 
2

>  <PUBCHEM_CONFORMER_ID>  (1) 
00005C0400000001

>  <PUBCHEM_MMFF94_ENERGY>  (1) 
24.9225

>  <PUBCHEM_FEATURE_SELFOVERLAP>  (1) 
20.398

>  <PUBCHEM_SHAPE_FINGERPRINT>  (1) 
12897270 3 18194120939284010285
16945 1 18266740366599673669
18185500 45 18051973911466092247
19973954 147 18410576205802608433
21040471 1 18410575106169745793
23552423 10 18261114105476174006
241688 4 18336544915262444729
2748010 2 18410572859906969005
29004967 10 18263647418884209546
369184 2 18272084998264868179
5084963 1 18272928285086689075

>  <PUBCHEM_SHAPE_MULTIPOLES>  (1) 
194.06
3.2
1.76
0.6
0.04
0
0
0.31
0
-0.2
0
0.03
0
0

>  <PUBCHEM_SHAPE_SELFOVERLAP>  (1) 
428.359

>  <PUBCHEM_SHAPE_VOLUME>  (1) 
106.1

>  <PUBCHEM_COORDINATE_TYPE>  (1) 
2
5
10

$$$$
