23550
     RDKit          3D

 14 14  0  0  0  0  0  0  0  0999 V2000
    4.1654   -0.5321    0.0034 O   0  0  0  0  0  0  0  0  0  0  0  0
   -2.1790   -1.5947   -0.0066 O   0  0  0  0  0  0  0  0  0  0  0  0
   -3.6085    0.2261    0.0022 N   0  0  0  0  0  0  0  0  0  0  0  0
   -1.2742    0.5487   -0.0018 N   0  0  0  0  0  0  0  0  0  0  0  0
    0.1157    0.2724   -0.0010 C   0  0  0  0  0  0  0  0  0  0  0  0
    1.0136    1.3256   -0.0088 C   0  0  0  0  0  0  0  0  0  0  0  0
    0.5429   -1.0440    0.0077 C   0  0  0  0  0  0  0  0  0  0  0  0
   -2.3262   -0.3707    0.0053 C   0  0  0  0  0  0  0  0  0  0  0  0
    2.8305   -0.2670    0.0009 C   0  0  0  0  0  0  0  0  0  0  0  0
    2.3817    1.0537   -0.0079 C   0  0  0  0  0  0  0  0  0  0  0  0
    1.9110   -1.3158    0.0087 C   0  0  0  0  0  0  0  0  0  0  0  0
   -4.8318   -0.5658   -0.0150 C   0  0  0  0  0  0  0  0  0  0  0  0
   -3.7908    1.6761    0.0163 C   0  0  0  0  0  0  0  0  0  0  0  0
    5.0499    0.5875   -0.0033 C   0  0  0  0  0  0  0  0  0  0  0  0
  1  9  1  0
  1 14  1  0
  2  8  2  0
  3  8  1  0
  3 12  1  0
  3 13  1  0
  4  5  1  0
  4  8  1  0
  5  6  2  0
  5  7  1  0
  6 10  1  0
  7 11  2  0
  9 10  2  0
  9 11  1  0
M  END
>  <PUBCHEM_COMPOUND_CID>  (1) 
23550

>  <PUBCHEM_CONFORMER_RMSD>  (1) 
0.6

>  <PUBCHEM_CONFORMER_DIVERSEORDER>  (1) 
1
7
6
5
10
3
4
9
8
2

>  <PUBCHEM_MMFF94_PARTIAL_CHARGES>  (1) 
19
1 -0.36
10 -0.15
11 -0.15
12 0.3
13 0.3
14 0.28
15 0.37
16 0.15
17 0.15
18 0.15
19 0.15
2 -0.57
3 -0.66
4 -0.55
5 0.12
6 -0.15
7 -0.15
8 0.69
9 0.08

>  <PUBCHEM_EFFECTIVE_ROTOR_COUNT>  (1) 
4

>  <PUBCHEM_PHARMACOPHORE_FEATURES>  (1) 
4
1 1 acceptor
1 2 acceptor
1 4 donor
6 5 6 7 9 10 11 rings

>  <PUBCHEM_HEAVY_ATOM_COUNT>  (1) 
14

>  <PUBCHEM_ATOM_DEF_STEREO_COUNT>  (1) 
0

>  <PUBCHEM_ATOM_UDEF_STEREO_COUNT>  (1) 
0

>  <PUBCHEM_BOND_DEF_STEREO_COUNT>  (1) 
0

>  <PUBCHEM_BOND_UDEF_STEREO_COUNT>  (1) 
0

>  <PUBCHEM_ISOTOPIC_ATOM_COUNT>  (1) 
0

>  <PUBCHEM_COMPONENT_COUNT>  (1) 
1

>  <PUBCHEM_CACTVS_TAUTO_COUNT>  (1) 
2

>  <PUBCHEM_CONFORMER_ID>  (1) 
00005BFE00000001

>  <PUBCHEM_MMFF94_ENERGY>  (1) 
51.4208

>  <PUBCHEM_FEATURE_SELFOVERLAP>  (1) 
20.297

>  <PUBCHEM_SHAPE_FINGERPRINT>  (1) 
10608611 8 18410852174853110025
11062470 55 18410575071788746034
11401426 45 18411696604151666064
11471102 20 18410571782139170518
12251169 10 18410293631456662399
12500047 106 18412820283349472003
12932764 1 16950830483864434319
13380535 76 18410576188744487271
13922767 16 18343862234181320720
14123238 8 18333732424695445949
14144814 61 18410855430522365761
14252887 29 17988652873861700038
14325111 11 18410856598299912896
15196674 1 18410573942233517639
15375358 24 18342458123298826030
15442244 35 18123470471169147595
17802600 8 18411133649924675253
17834072 33 18201154446431618421
18522853 276 18413671313786480497
200 152 18131910468769348643
20201158 50 18410013225663311211
20279233 1 18410300215383298115
20645477 70 18130229246734670838
21267235 1 18410865373102857871
22485316 2 18409445882295761266
23402539 116 18272644650237417797
23402655 69 18341888550869798845
23559900 14 18343019983190221706
3312278 4 18413673508525136443
4214541 1 18410856551429896961
42788 4 18410856564367364484
4990 188 18059864956527165844
5104073 3 18410012091796934865
69090 78 18341890814407377343
77779 3 18410013234237116157
8809292 202 18188494682566475187
9709674 26 18412550903143637527

>  <PUBCHEM_SHAPE_MULTIPOLES>  (1) 
266.41
9.41
1.5
0.59
1.18
0.09
0
0.87
0.01
0.47
0
-0.02
0.01
-0.02

>  <PUBCHEM_SHAPE_SELFOVERLAP>  (1) 
542.28

>  <PUBCHEM_SHAPE_VOLUME>  (1) 
156

>  <PUBCHEM_COORDINATE_TYPE>  (1) 
2
5
10

$$$$
