23561
     RDKit          3D

 19 18  0  0  0  0  0  0  0  0999 V2000
   -0.0004   -0.0897    0.0000 O   0  0  0  0  0  0  0  0  0  0  0  0
    7.3999    0.3044    0.0130 N   0  0  0  0  0  0  0  0  0  0  0  0
   -7.3999    0.3044   -0.0130 N   0  0  0  0  0  0  0  0  0  0  0  0
    6.2590   -0.6410    0.0044 C   0  0  0  0  0  0  0  0  0  0  0  0
   -6.2588   -0.6409   -0.0045 C   0  0  0  0  0  0  0  0  0  0  0  0
    4.9353    0.1126   -0.0391 C   0  0  0  0  0  0  0  0  0  0  0  0
   -4.9353    0.1127    0.0391 C   0  0  0  0  0  0  0  0  0  0  0  0
    3.7106   -0.8071   -0.0600 C   0  0  0  0  0  0  0  0  0  0  0  0
   -3.7105   -0.8068    0.0600 C   0  0  0  0  0  0  0  0  0  0  0  0
    7.3012    1.2709    1.2026 C   0  0  0  0  0  0  0  0  0  0  0  0
    8.7338   -0.4487    0.1221 C   0  0  0  0  0  0  0  0  0  0  0  0
    7.4293    1.1389   -1.2759 C   0  0  0  0  0  0  0  0  0  0  0  0
   -7.3013    1.2707   -1.2026 C   0  0  0  0  0  0  0  0  0  0  0  0
   -8.7338   -0.4490   -0.1221 C   0  0  0  0  0  0  0  0  0  0  0  0
   -7.4294    1.1388    1.2758 C   0  0  0  0  0  0  0  0  0  0  0  0
    2.4104    0.0033   -0.0258 C   0  0  0  0  0  0  0  0  0  0  0  0
   -2.4103    0.0037    0.0258 C   0  0  0  0  0  0  0  0  0  0  0  0
    1.1750   -0.8890   -0.0125 C   0  0  0  0  0  0  0  0  0  0  0  0
   -1.1749   -0.8885    0.0126 C   0  0  0  0  0  0  0  0  0  0  0  0
  1 18  1  0
  1 19  1  0
  2  4  1  0
  2 10  1  0
  2 11  1  0
  2 12  1  0
  3  5  1  0
  3 13  1  0
  3 14  1  0
  3 15  1  0
  4  6  1  0
  5  7  1  0
  6  8  1  0
  7  9  1  0
  8 16  1  0
  9 17  1  0
 16 18  1  0
 17 19  1  0
M  CHG  2   2   1   3   1
M  END
>  <PUBCHEM_COMPOUND_CID>  (1) 
23561

>  <PUBCHEM_CONFORMER_RMSD>  (1) 
1

>  <PUBCHEM_CONFORMER_DIVERSEORDER>  (1) 
1
21
25
27
4
30
2
32
50
29
39
12
41
47
42
31
44
22
14
16
9
8
13
46
45
35
10
36
3
38
49
51
20
23
34
11
48
19
17
6
26
40
43
28
18
24
52
7
37
5
33
15

>  <PUBCHEM_MMFF94_PARTIAL_CHARGES>  (1) 
13
1 -0.56
10 0.5
11 0.5
12 0.5
13 0.5
14 0.5
15 0.5
18 0.28
19 0.28
2 -1.01
3 -1.01
4 0.5
5 0.5

>  <PUBCHEM_EFFECTIVE_ROTOR_COUNT>  (1) 
12

>  <PUBCHEM_PHARMACOPHORE_FEATURES>  (1) 
3
1 1 acceptor
1 2 cation
1 3 cation

>  <PUBCHEM_HEAVY_ATOM_COUNT>  (1) 
19

>  <PUBCHEM_ATOM_DEF_STEREO_COUNT>  (1) 
0

>  <PUBCHEM_ATOM_UDEF_STEREO_COUNT>  (1) 
0

>  <PUBCHEM_BOND_DEF_STEREO_COUNT>  (1) 
0

>  <PUBCHEM_BOND_UDEF_STEREO_COUNT>  (1) 
0

>  <PUBCHEM_ISOTOPIC_ATOM_COUNT>  (1) 
0

>  <PUBCHEM_COMPONENT_COUNT>  (1) 
1

>  <PUBCHEM_CACTVS_TAUTO_COUNT>  (1) 
1

>  <PUBCHEM_CONFORMER_ID>  (1) 
00005C0900000001

>  <PUBCHEM_MMFF94_ENERGY>  (1) 
49.5165

>  <PUBCHEM_FEATURE_SELFOVERLAP>  (1) 
15.223

>  <PUBCHEM_SHAPE_FINGERPRINT>  (1) 
10066227 49 13326588323693012348
11135609 127 14979379778329660002
11315181 36 18272933818059536331
11638347 137 15357690878259450600
12091667 2 16630526229298942147
14123256 10 17704354368106651058
14251764 18 18411139129949406737
14251764 46 15123509212073589910
14617042 71 17459199637477545612
14729087 3 18259982657120386085
15461852 350 16559028316364424637
15716309 27 12035451644600740579
16120349 18 18113617923867278980
17093844 174 16805042909661547257
1754908 1 14851609902955809669
18006028 8 9799691497730384867
195137 175 17917436414877501465
20281389 69 18409727353209684744
20621476 8 18335420158212541606
21150785 3 15770058328172128463
22224240 67 16587743148375379154
23035841 295 10881403140601627929
232437 2 18410575084663624578
23521765 1 18341895190345906215
33532 11 11025788800180565216
33684 2 18272932717598660794
5758199 1 18408041805815573643
59567204 34 18339360761328373633
59682541 35 15647058182844746985
636775 8 16414904350082168349
67123 10 18131349726471568903
8209 1 11167941363783871058

>  <PUBCHEM_SHAPE_MULTIPOLES>  (1) 
375.18
34.7
1.16
0.94
0
0.22
0
8.38
0
0
0
0
0.4
0.01

>  <PUBCHEM_SHAPE_SELFOVERLAP>  (1) 
679.135

>  <PUBCHEM_SHAPE_VOLUME>  (1) 
245.1

>  <PUBCHEM_COORDINATE_TYPE>  (1) 
2
5
10

$$$$
