2356
     RDKit          3D

 23 25  0  0  1  0  0  0  0  0999 V2000
   -1.1932   -1.0539    0.3538 O   0  0  0  0  0  0  0  0  0  0  0  0
   -1.2546    1.8505   -0.0227 O   0  0  0  0  0  0  0  0  0  0  0  0
   -3.6001    1.7558   -1.5392 O   0  0  0  0  0  0  0  0  0  0  0  0
   -3.5358    0.5750    1.0080 O   0  0  0  0  0  0  0  0  0  0  0  0
   -4.3360   -2.6837    1.1247 O   0  0  0  0  0  0  0  0  0  0  0  0
    1.6303   -2.1104   -1.2241 O   0  0  0  0  0  0  0  0  0  0  0  0
    0.1036    3.0895    1.2949 O   0  0  0  0  0  0  0  0  0  0  0  0
    4.1917   -1.4062   -0.5395 O   0  0  0  0  0  0  0  0  0  0  0  0
    4.6852    1.0371    0.6587 O   0  0  0  0  0  0  0  0  0  0  0  0
   -1.3679    0.8958   -1.1065 C   0  0  0  0  0  0  0  0  0  0  0  0
   -0.6067   -0.3823   -0.7652 C   0  0  0  0  0  0  0  0  0  0  0  0
   -2.8490    0.5677   -1.3243 C   0  0  0  0  0  0  0  0  0  0  0  0
   -3.4336   -0.2382   -0.1604 C   0  0  0  0  0  0  0  0  0  0  0  0
   -2.5478   -1.4612    0.1170 C   0  0  0  0  0  0  0  0  0  0  0  0
    0.7996   -0.0138   -0.3996 C   0  0  0  0  0  0  0  0  0  0  0  0
   -3.0066   -2.2453    1.3407 C   0  0  0  0  0  0  0  0  0  0  0  0
    1.0588    1.2164    0.2154 C   0  0  0  0  0  0  0  0  0  0  0  0
   -0.0525    2.1391    0.5396 C   0  0  0  0  0  0  0  0  0  0  0  0
    1.8594   -0.8956   -0.6453 C   0  0  0  0  0  0  0  0  0  0  0  0
    2.3661    1.5658    0.5705 C   0  0  0  0  0  0  0  0  0  0  0  0
    3.1630   -0.5450   -0.2945 C   0  0  0  0  0  0  0  0  0  0  0  0
    3.4159    0.6848    0.3102 C   0  0  0  0  0  0  0  0  0  0  0  0
    4.5102   -2.3419    0.4877 C   0  0  0  0  0  0  0  0  0  0  0  0
  1 11  1  0
  1 14  1  0
  2 10  1  0
  2 18  1  0
  3 12  1  0
  4 13  1  0
  5 16  1  0
  6 19  1  0
  7 18  2  0
  8 21  1  0
  8 23  1  0
  9 22  1  0
 10 11  1  0
 10 12  1  0
 11 15  1  0
 12 13  1  0
 13 14  1  0
 14 16  1  0
 15 17  2  0
 15 19  1  0
 17 18  1  0
 17 20  1  0
 19 21  2  0
 20 22  2  0
 21 22  1  0
M  END
>  <PUBCHEM_COMPOUND_CID>  (1) 
2356

>  <PUBCHEM_CONFORMER_RMSD>  (1) 
0.6

>  <PUBCHEM_CONFORMER_DIVERSEORDER>  (1) 
6
32
14
22
19
47
39
17
9
56
62
55
30
15
13
42
23
68
24
48
57
70
38
31
16
18
3
34
59
29
67
21
51
50
65
5
7
37
52
69
71
20
40
41
10
53
8
12
28
25
43
54
4
33
36
63
44
58
61
27
2
26
46
35
1
60
11
66
45
49
64

>  <PUBCHEM_MMFF94_PARTIAL_CHARGES>  (1) 
29
1 -0.56
10 0.28
11 0.42
12 0.28
13 0.28
14 0.28
15 -0.14
16 0.28
17 0.09
18 0.63
19 0.08
2 -0.43
20 -0.15
21 0.08
22 0.08
23 0.28
3 -0.68
31 0.4
32 0.4
33 0.15
34 0.4
35 0.45
36 0.45
4 -0.68
5 -0.68
6 -0.53
7 -0.57
8 -0.36
9 -0.53

>  <PUBCHEM_EFFECTIVE_ROTOR_COUNT>  (1) 
3

>  <PUBCHEM_PHARMACOPHORE_FEATURES>  (1) 
14
1 1 acceptor
1 3 acceptor
1 3 donor
1 4 acceptor
1 4 donor
1 5 acceptor
1 5 donor
1 6 donor
1 7 acceptor
1 8 acceptor
1 9 donor
6 1 10 11 12 13 14 rings
6 15 17 19 20 21 22 rings
6 2 10 11 15 17 18 rings

>  <PUBCHEM_HEAVY_ATOM_COUNT>  (1) 
23

>  <PUBCHEM_ATOM_DEF_STEREO_COUNT>  (1) 
0

>  <PUBCHEM_ATOM_UDEF_STEREO_COUNT>  (1) 
5

>  <PUBCHEM_BOND_DEF_STEREO_COUNT>  (1) 
0

>  <PUBCHEM_BOND_UDEF_STEREO_COUNT>  (1) 
0

>  <PUBCHEM_ISOTOPIC_ATOM_COUNT>  (1) 
0

>  <PUBCHEM_COMPONENT_COUNT>  (1) 
1

>  <PUBCHEM_CACTVS_TAUTO_COUNT>  (1) 
9

>  <PUBCHEM_CONFORMER_ID>  (1) 
0000093400000006

>  <PUBCHEM_MMFF94_ENERGY>  (1) 
81.5552

>  <PUBCHEM_FEATURE_SELFOVERLAP>  (1) 
71.182

>  <PUBCHEM_SHAPE_FINGERPRINT>  (1) 
10759866 29 18259992591485159046
10906281 52 18057611970865150564
10967382 1 18272925055603799756
1100329 8 16754094533299220451
11796584 16 17823691976390123674
12236239 1 16271928250460170077
12403259 226 18336825411398224175
12553582 1 18201445709986884836
12633257 1 18270138854447503747
12714826 92 17967538977880010595
12788726 201 17911792479525917144
13140716 1 18341054034054620314
13224815 77 18131347505841419796
13544653 18 18337955687523248703
14115302 16 18187651241267918932
14787075 74 18117842333508916794
14790565 3 18054796354042794640
15196674 1 18342451517628575340
15219456 202 18411414020809655652
15375358 24 18340195323920902108
15653759 3 18260548939261501735
16945 1 18272089336102923956
17357779 13 18117545439747579823
1813 80 17386293206759692751
19049666 15 18409161104489122061
200 152 17631716189053632725
20645477 70 18131059403761904934
20681677 274 18336261263307040146
221490 88 18409450302038512022
23175994 123 18271808999313632645
23493267 7 18188197715574097337
23526113 38 18339060662439024481
23558518 356 17767412283488544564
23559900 14 18335694997812802990
26918003 58 18336537236346066454
2748010 2 18342449387398721060
5104073 3 18413106147893614242
77492 1 16271927159375011533
81228 2 17983866579318387456
8809292 202 18336265652262443582
9709674 26 18409158922308112804

>  <PUBCHEM_SHAPE_MULTIPOLES>  (1) 
420.51
8.13
2.88
1.23
2.78
0.19
0.06
4
-1.02
-0.44
-0.97
-0.82
-0.04
1.77

>  <PUBCHEM_SHAPE_SELFOVERLAP>  (1) 
916.211

>  <PUBCHEM_SHAPE_VOLUME>  (1) 
227.1

>  <PUBCHEM_COORDINATE_TYPE>  (1) 
2
5
10

$$$$
