23584
     RDKit          3D

 17 17  0  0  0  0  0  0  0  0999 V2000
   -1.9517   -0.1704    0.2851 O   0  0  0  0  0  0  0  0  0  0  0  0
    4.2069   -1.0021   -0.4435 O   0  0  0  0  0  0  0  0  0  0  0  0
    4.2471    1.2704   -0.4241 O   0  0  0  0  0  0  0  0  0  0  0  0
    0.1722   -1.2336    0.0237 C   0  0  0  0  0  0  0  0  0  0  0  0
    0.0103    1.1765    0.0705 C   0  0  0  0  0  0  0  0  0  0  0  0
   -0.5999   -0.0765    0.1276 C   0  0  0  0  0  0  0  0  0  0  0  0
   -0.4627   -2.5838    0.0827 C   0  0  0  0  0  0  0  0  0  0  0  0
   -0.7993    2.4263    0.1805 C   0  0  0  0  0  0  0  0  0  0  0  0
    1.5544   -1.1378   -0.1372 C   0  0  0  0  0  0  0  0  0  0  0  0
    1.3925    1.2724   -0.0904 C   0  0  0  0  0  0  0  0  0  0  0  0
    2.1646    0.1152   -0.1943 C   0  0  0  0  0  0  0  0  0  0  0  0
   -0.5446   -3.1233    1.5076 C   0  0  0  0  0  0  0  0  0  0  0  0
   -0.9485    2.8940    1.6252 C   0  0  0  0  0  0  0  0  0  0  0  0
   -2.7401   -0.2004   -0.9020 C   0  0  0  0  0  0  0  0  0  0  0  0
    3.6058    0.2164   -0.3611 C   0  0  0  0  0  0  0  0  0  0  0  0
   -4.1743   -0.3621   -0.5215 C   0  0  0  0  0  0  0  0  0  0  0  0
   -5.1327    0.5189   -0.8288 C   0  0  0  0  0  0  0  0  0  0  0  0
  1  6  1  0
  1 14  1  0
  2 15  1  0
  3 15  2  0
  4  6  2  0
  4  7  1  0
  4  9  1  0
  5  6  1  0
  5  8  1  0
  5 10  2  0
  7 12  1  0
  8 13  1  0
  9 11  2  0
 10 11  1  0
 11 15  1  0
 14 16  1  0
 16 17  2  0
M  END
>  <PUBCHEM_COMPOUND_CID>  (1) 
23584

>  <PUBCHEM_CONFORMER_RMSD>  (1) 
0.8

>  <PUBCHEM_CONFORMER_DIVERSEORDER>  (1) 
1
7
6
11
2
4
3
8
5
10
9

>  <PUBCHEM_MMFF94_PARTIAL_CHARGES>  (1) 
21
1 -0.36
10 -0.15
11 0.09
14 0.42
15 0.63
16 -0.29
17 -0.3
2 -0.65
22 0.15
23 0.15
3 -0.57
32 0.15
33 0.5
34 0.15
35 0.15
4 -0.14
5 -0.14
6 0.08
7 0.14
8 0.14
9 -0.15

>  <PUBCHEM_EFFECTIVE_ROTOR_COUNT>  (1) 
6

>  <PUBCHEM_PHARMACOPHORE_FEATURES>  (1) 
8
1 1 acceptor
1 12 hydrophobe
1 13 hydrophobe
1 17 hydrophobe
1 2 acceptor
1 3 acceptor
3 2 3 15 anion
6 4 5 6 9 10 11 rings

>  <PUBCHEM_HEAVY_ATOM_COUNT>  (1) 
17

>  <PUBCHEM_ATOM_DEF_STEREO_COUNT>  (1) 
0

>  <PUBCHEM_ATOM_UDEF_STEREO_COUNT>  (1) 
0

>  <PUBCHEM_BOND_DEF_STEREO_COUNT>  (1) 
0

>  <PUBCHEM_BOND_UDEF_STEREO_COUNT>  (1) 
0

>  <PUBCHEM_ISOTOPIC_ATOM_COUNT>  (1) 
0

>  <PUBCHEM_COMPONENT_COUNT>  (1) 
1

>  <PUBCHEM_CACTVS_TAUTO_COUNT>  (1) 
1

>  <PUBCHEM_CONFORMER_ID>  (1) 
00005C2000000001

>  <PUBCHEM_MMFF94_ENERGY>  (1) 
47.6692

>  <PUBCHEM_FEATURE_SELFOVERLAP>  (1) 
40.654

>  <PUBCHEM_SHAPE_FINGERPRINT>  (1) 
10756046 5 17979633433865626725
108231 29 18341331201321551385
10906281 52 18199767962564814084
11680986 33 17909265033111474337
12592029 89 17022894606316105650
12788726 201 18272376356172752496
13140716 1 18195253445362159912
14115302 16 18187372077147078844
14178342 30 17836070179252421738
14911166 2 18410294735252662750
14943834 7 17763178047203930067
16752209 62 18337669720153047760
16945 1 18338814380730045416
187816 3 18411982472457946973
193761 8 17834395618421225543
19784866 9 18261384499985737715
200 152 18272084976621454213
20510252 161 18271808995330083800
20600515 1 18193810825650473864
20871999 31 18191022506890424150
21029758 11 18272931656451874321
21421861 104 17828201000534120507
21501502 16 18052540971692510400
221490 88 17980757457183373999
22713019 99 18343585135554790686
2334 1 17835247018810665424
23402539 116 18343012302918330302
23402655 69 18339913836845227869
23558518 356 18125173631749723812
23559900 14 18339642356431611244
25 1 18336255804319295367
25147074 1 18121789335444745498
2748010 2 17981049931407402876
283562 15 18340487764023160833
2871803 45 18339637841713991277
3084891 72 18411416215527939898
3250762 1 17690276440616014537
34934 24 18338509872012531406
352729 6 18337123340410593474
353137 74 18338513028418011013
3759504 43 17676208021555899363
394222 165 17603856767639369136
81228 2 18270978881141317664
9709674 26 18271538515854694894

>  <PUBCHEM_SHAPE_MULTIPOLES>  (1) 
332.24
7.03
3.01
1.05
2.02
0.49
0.39
-0.9
-3.26
0.37
1.75
0.46
-0.04
-0.15

>  <PUBCHEM_SHAPE_SELFOVERLAP>  (1) 
679.925

>  <PUBCHEM_SHAPE_VOLUME>  (1) 
192.8

>  <PUBCHEM_COORDINATE_TYPE>  (1) 
2
5
10

$$$$
