23581
     RDKit          3D

 15 15  0  0  0  0  0  0  0  0999 V2000
   -2.0408   -0.1624    0.5429 O   0  0  0  0  0  0  0  0  0  0  0  0
    4.0891   -1.0632   -0.3309 O   0  0  0  0  0  0  0  0  0  0  0  0
    4.1548    1.2088   -0.3159 O   0  0  0  0  0  0  0  0  0  0  0  0
   -0.6922   -0.0837    0.3531 C   0  0  0  0  0  0  0  0  0  0  0  0
    0.0644   -1.2493    0.2326 C   0  0  0  0  0  0  0  0  0  0  0  0
   -0.0697    1.1624    0.2797 C   0  0  0  0  0  0  0  0  0  0  0  0
    2.0658    0.0771   -0.0347 C   0  0  0  0  0  0  0  0  0  0  0  0
    1.4433   -1.1690    0.0387 C   0  0  0  0  0  0  0  0  0  0  0  0
    1.3093    1.2428    0.0858 C   0  0  0  0  0  0  0  0  0  0  0  0
   -0.5839   -2.5924    0.3087 C   0  0  0  0  0  0  0  0  0  0  0  0
   -0.8626    2.4213    0.4072 C   0  0  0  0  0  0  0  0  0  0  0  0
   -2.8576   -0.1850   -0.6250 C   0  0  0  0  0  0  0  0  0  0  0  0
    3.5036    0.1621   -0.2361 C   0  0  0  0  0  0  0  0  0  0  0  0
   -4.2840   -0.3303   -0.2102 C   0  0  0  0  0  0  0  0  0  0  0  0
   -5.2397    0.5608   -0.4959 C   0  0  0  0  0  0  0  0  0  0  0  0
  1  4  1  0
  1 12  1  0
  2 13  1  0
  3 13  2  0
  4  5  2  0
  4  6  1  0
  5  8  1  0
  5 10  1  0
  6  9  2  0
  6 11  1  0
  7  8  2  0
  7  9  1  0
  7 13  1  0
 12 14  1  0
 14 15  2  0
M  END
>  <PUBCHEM_COMPOUND_CID>  (1) 
23581

>  <PUBCHEM_CONFORMER_RMSD>  (1) 
0.6

>  <PUBCHEM_CONFORMER_DIVERSEORDER>  (1) 
1
5
4
2
6
3

>  <PUBCHEM_MMFF94_PARTIAL_CHARGES>  (1) 
21
1 -0.36
10 0.14
11 0.14
12 0.42
13 0.63
14 -0.29
15 -0.3
16 0.15
17 0.15
2 -0.65
26 0.15
27 0.5
28 0.15
29 0.15
3 -0.57
4 0.08
5 -0.14
6 -0.14
7 0.09
8 -0.15
9 -0.15

>  <PUBCHEM_EFFECTIVE_ROTOR_COUNT>  (1) 
4

>  <PUBCHEM_PHARMACOPHORE_FEATURES>  (1) 
6
1 1 acceptor
1 15 hydrophobe
1 2 acceptor
1 3 acceptor
3 2 3 13 anion
6 4 5 6 7 8 9 rings

>  <PUBCHEM_HEAVY_ATOM_COUNT>  (1) 
15

>  <PUBCHEM_ATOM_DEF_STEREO_COUNT>  (1) 
0

>  <PUBCHEM_ATOM_UDEF_STEREO_COUNT>  (1) 
0

>  <PUBCHEM_BOND_DEF_STEREO_COUNT>  (1) 
0

>  <PUBCHEM_BOND_UDEF_STEREO_COUNT>  (1) 
0

>  <PUBCHEM_ISOTOPIC_ATOM_COUNT>  (1) 
0

>  <PUBCHEM_COMPONENT_COUNT>  (1) 
1

>  <PUBCHEM_CACTVS_TAUTO_COUNT>  (1) 
1

>  <PUBCHEM_CONFORMER_ID>  (1) 
00005C1D00000001

>  <PUBCHEM_MMFF94_ENERGY>  (1) 
46.9471

>  <PUBCHEM_FEATURE_SELFOVERLAP>  (1) 
30.504

>  <PUBCHEM_SHAPE_FINGERPRINT>  (1) 
11401426 45 18342170085443087065
11471102 20 18410572890008715229
12236239 1 17775289357326835681
13690532 89 18410011018287380906
13862211 1 18411413999198156131
14115302 16 18187936117916730662
14576447 43 18201423831698175631
14911166 2 18411421730318136894
14943859 89 16587739858651755145
14993402 34 18341896311374406103
15196674 1 18410292549024910831
16945 1 18339093652367427866
18186145 218 18337095848308678973
187816 3 18411420613399805957
193761 8 17762339119578839691
200 152 18060135414406515521
20510252 161 18272371932451376888
20645477 70 18341332206038352919
20871999 31 18264770050331885735
21029758 11 18272933846901065200
21501502 16 18122063096106324272
21637258 2 15410610337711179812
221490 88 18050567640880049683
22713019 99 18272374161180557606
2334 1 17834963344742121090
23402539 116 18343013406624743958
23402655 69 18339916031605203365
23559900 14 18341332297176599656
25 1 18335132090629881975
2748010 2 17980768452088180834
2871803 45 18339640045000513485
3060560 45 18412255138868463287
3250762 1 17690840485754460899
3286 77 16988839450149529482
34934 24 18338792442174247610
366044 4 18334856138548649379
3759504 43 17603871155817285826
4072396 5 18262219045889832578
4990 188 18202567280471936095
528886 8 18411414033784345259
537710 114 18409732871752127612
69090 78 18343300387934319582

>  <PUBCHEM_SHAPE_MULTIPOLES>  (1) 
291.09
7.88
2.07
0.71
4.24
0.19
0
-0.85
-2.15
-0.19
0.32
0.16
-0.01
0.01

>  <PUBCHEM_SHAPE_SELFOVERLAP>  (1) 
601.883

>  <PUBCHEM_SHAPE_VOLUME>  (1) 
168.3

>  <PUBCHEM_COORDINATE_TYPE>  (1) 
2
5
10

$$$$
