23585
     RDKit          3D

 20 20  0  0  0  0  0  0  0  0999 V2000
   -1.9213    0.2264   -0.1296 O   0  0  0  0  0  0  0  0  0  0  0  0
    0.2120   -3.2536   -0.2168 O   0  0  0  0  0  0  0  0  0  0  0  0
   -1.6659   -2.2923   -1.1379 O   0  0  0  0  0  0  0  0  0  0  0  0
    0.1260    1.4446    0.0341 C   0  0  0  0  0  0  0  0  0  0  0  0
    2.2304    0.2935   -0.2551 C   0  0  0  0  0  0  0  0  0  0  0  0
   -0.6159    2.7129    0.3015 C   0  0  0  0  0  0  0  0  0  0  0  0
    3.7209    0.3199   -0.2983 C   0  0  0  0  0  0  0  0  0  0  0  0
    1.5200    1.4682   -0.0079 C   0  0  0  0  0  0  0  0  0  0  0  0
   -0.5578    0.2463   -0.1711 C   0  0  0  0  0  0  0  0  0  0  0  0
    0.1526   -0.9283   -0.4185 C   0  0  0  0  0  0  0  0  0  0  0  0
   -0.9504    3.4716   -0.9894 C   0  0  0  0  0  0  0  0  0  0  0  0
    1.5467   -0.9049   -0.4603 C   0  0  0  0  0  0  0  0  0  0  0  0
    4.3471    0.0639    1.0796 C   0  0  0  0  0  0  0  0  0  0  0  0
   -1.7348    4.7442   -0.7120 C   0  0  0  0  0  0  0  0  0  0  0  0
    5.8664    0.0583    1.0216 C   0  0  0  0  0  0  0  0  0  0  0  0
   -0.5400   -2.1913   -0.6361 C   0  0  0  0  0  0  0  0  0  0  0  0
   -2.5255   -0.0205    1.1374 C   0  0  0  0  0  0  0  0  0  0  0  0
   -4.0085    0.0543    0.9844 C   0  0  0  0  0  0  0  0  0  0  0  0
   -0.3625   -4.5547   -0.3797 C   0  0  0  0  0  0  0  0  0  0  0  0
   -4.8395   -0.9584    1.2543 C   0  0  0  0  0  0  0  0  0  0  0  0
  1  9  1  0
  1 17  1  0
  2 16  1  0
  2 19  1  0
  3 16  2  0
  4  6  1  0
  4  8  2  0
  4  9  1  0
  5  7  1  0
  5  8  1  0
  5 12  2  0
  6 11  1  0
  7 13  1  0
  9 10  2  0
 10 12  1  0
 10 16  1  0
 11 14  1  0
 13 15  1  0
 17 18  1  0
 18 20  2  0
M  END
>  <PUBCHEM_COMPOUND_CID>  (1) 
23585

>  <PUBCHEM_CONFORMER_RMSD>  (1) 
0.8

>  <PUBCHEM_CONFORMER_DIVERSEORDER>  (1) 
1
114
84
124
102
55
51
45
60
119
35
93
27
52
80
110
126
89
96
66
95
53
105
100
71
15
33
78
23
118
64
112
86
92
42
116
99
44
50
30
61
22
113
75
49
24
10
123
122
31
57
101
63
72
128
39
46
127
98
104
115
12
54
19
125
58
87
20
108
107
120
103
5
76
73
77
91
74
131
14
81
6
117
16
109
94
106
32
83
9
111
47
18
25
41
34
67
43
129
7
88
26
36
59
56
13
65
68
90
40
121
17
38
79
28
4
21
37
69
130
62
11
70
3
29
85
82
97
8
2
48

>  <PUBCHEM_MMFF94_PARTIAL_CHARGES>  (1) 
21
1 -0.36
10 0.09
12 -0.15
16 0.63
17 0.42
18 -0.29
19 0.28
2 -0.43
20 -0.3
25 0.15
28 0.15
3 -0.57
39 0.15
4 -0.14
43 0.15
44 0.15
5 -0.14
6 0.14
7 0.14
8 -0.15
9 0.08

>  <PUBCHEM_EFFECTIVE_ROTOR_COUNT>  (1) 
9

>  <PUBCHEM_PHARMACOPHORE_FEATURES>  (1) 
6
1 1 acceptor
1 14 hydrophobe
1 15 hydrophobe
1 20 hydrophobe
1 3 acceptor
6 4 5 8 9 10 12 rings

>  <PUBCHEM_HEAVY_ATOM_COUNT>  (1) 
20

>  <PUBCHEM_ATOM_DEF_STEREO_COUNT>  (1) 
0

>  <PUBCHEM_ATOM_UDEF_STEREO_COUNT>  (1) 
0

>  <PUBCHEM_BOND_DEF_STEREO_COUNT>  (1) 
0

>  <PUBCHEM_BOND_UDEF_STEREO_COUNT>  (1) 
0

>  <PUBCHEM_ISOTOPIC_ATOM_COUNT>  (1) 
0

>  <PUBCHEM_COMPONENT_COUNT>  (1) 
1

>  <PUBCHEM_CACTVS_TAUTO_COUNT>  (1) 
1

>  <PUBCHEM_CONFORMER_ID>  (1) 
00005C2100000001

>  <PUBCHEM_MMFF94_ENERGY>  (1) 
49.9564

>  <PUBCHEM_FEATURE_SELFOVERLAP>  (1) 
30.452

>  <PUBCHEM_SHAPE_FINGERPRINT>  (1) 
1100329 8 18197782304430394187
11132069 177 18202849867823856182
11680986 33 17546727054104022454
12553582 1 18337953497585631092
12633257 1 17987784311584442072
12839892 36 18338233756495656147
12930653 34 18194119616539831412
13140716 1 18197496440487704376
14022347 108 18264794175585076606
14790565 3 18267607816797667492
14943834 7 17547301458930485509
15042514 8 18338799021911761874
15420108 30 18059577924063649627
16945 1 18412543215252001820
17980427 23 17487899123474722717
19591789 44 18125454020432550910
20028762 73 17986963040808243543
20510252 161 18200591398263992952
20600515 1 18199475539578991156
20739085 24 18120971453392053753
21339142 126 18410287017217835868
21637258 2 16298942177381225810
22182313 1 18126572219483786708
2334 1 17908702074895094492
23366157 5 17469882650306002812
23402539 116 18272362105149101695
23558518 356 17826243899379502833
23559900 14 17402886727051043330
25147074 1 18051694635866045756
2748010 2 18052827944480795156
3250762 1 17832715564954566725
4409770 3 18262783099650193125
465052 167 17969235584493734483
58807428 26 18341895186404893242
59554788 191 18187365402410075236
7364860 26 17188118004206046788
81228 2 18127397080642966094
84936 182 17264951906957682632
90316 7 18337663222010103152
9981440 41 17979329998674113696

>  <PUBCHEM_SHAPE_MULTIPOLES>  (1) 
393.98
7.52
5.08
1.11
6.52
0.68
0.18
-0.23
4.86
-3.83
-2.27
-0.28
-0.04
0.65

>  <PUBCHEM_SHAPE_SELFOVERLAP>  (1) 
793.969

>  <PUBCHEM_SHAPE_VOLUME>  (1) 
231.9

>  <PUBCHEM_COORDINATE_TYPE>  (1) 
2
5
10

$$$$
