23603
     RDKit          3D

 18 20  0  0  0  0  0  0  0  0999 V2000
    0.9036    2.1131   -1.4996 O   0  0  0  0  0  0  0  0  0  0  0  0
   -1.0888    2.8977   -0.6397 N   0  0  0  0  0  0  0  0  0  0  0  0
    0.0051    0.9989    0.3890 C   0  0  0  0  0  0  0  0  0  0  0  0
    1.3003    0.2019    0.3800 C   0  0  0  0  0  0  0  0  0  0  0  0
   -1.2897    0.2108    0.4117 C   0  0  0  0  0  0  0  0  0  0  0  0
    0.5609   -1.7072   -1.2449 C   0  0  0  0  0  0  0  0  0  0  0  0
   -0.6831   -0.9769   -1.7354 C   0  0  0  0  0  0  0  0  0  0  0  0
    1.5474   -0.9707   -0.3631 C   0  0  0  0  0  0  0  0  0  0  0  0
   -1.6334   -0.6947   -0.6057 C   0  0  0  0  0  0  0  0  0  0  0  0
    2.3547    0.7351    1.1610 C   0  0  0  0  0  0  0  0  0  0  0  0
   -2.1989    0.4184    1.4662 C   0  0  0  0  0  0  0  0  0  0  0  0
   -0.0052    2.0527   -0.6798 C   0  0  0  0  0  0  0  0  0  0  0  0
    2.8202   -1.5807   -0.2608 C   0  0  0  0  0  0  0  0  0  0  0  0
   -2.8648   -1.3693   -0.5512 C   0  0  0  0  0  0  0  0  0  0  0  0
    3.6044    0.1225    1.2353 C   0  0  0  0  0  0  0  0  0  0  0  0
   -3.4180   -0.2579    1.5113 C   0  0  0  0  0  0  0  0  0  0  0  0
    3.8369   -1.0424    0.5247 C   0  0  0  0  0  0  0  0  0  0  0  0
   -3.7518   -1.1512    0.5009 C   0  0  0  0  0  0  0  0  0  0  0  0
  1 12  2  0
  2 12  1  0
  3  4  1  0
  3  5  1  0
  3 12  1  0
  4  8  2  0
  4 10  1  0
  5  9  2  0
  5 11  1  0
  6  7  1  0
  6  8  1  0
  7  9  1  0
  8 13  1  0
  9 14  1  0
 10 15  2  0
 11 16  2  0
 13 17  2  0
 14 18  2  0
 15 17  1  0
 16 18  1  0
M  END
>  <PUBCHEM_COMPOUND_CID>  (1) 
23603

>  <PUBCHEM_CONFORMER_RMSD>  (1) 
0.6

>  <PUBCHEM_CONFORMER_DIVERSEORDER>  (1) 
1
5
2
3
4

>  <PUBCHEM_MMFF94_PARTIAL_CHARGES>  (1) 
28
1 -0.57
10 -0.15
11 -0.15
12 0.57
13 -0.15
14 -0.15
15 -0.15
16 -0.15
17 -0.15
18 -0.15
2 -0.8
24 0.15
25 0.15
26 0.15
27 0.15
28 0.15
29 0.15
3 0.35
30 0.15
31 0.15
32 0.37
33 0.37
4 -0.14
5 -0.14
6 0.14
7 0.14
8 -0.14
9 -0.14

>  <PUBCHEM_EFFECTIVE_ROTOR_COUNT>  (1) 
1.6

>  <PUBCHEM_PHARMACOPHORE_FEATURES>  (1) 
5
1 1 acceptor
1 2 donor
6 4 8 10 13 15 17 rings
6 5 9 11 14 16 18 rings
7 3 4 5 6 7 8 9 rings

>  <PUBCHEM_HEAVY_ATOM_COUNT>  (1) 
18

>  <PUBCHEM_ATOM_DEF_STEREO_COUNT>  (1) 
0

>  <PUBCHEM_ATOM_UDEF_STEREO_COUNT>  (1) 
0

>  <PUBCHEM_BOND_DEF_STEREO_COUNT>  (1) 
0

>  <PUBCHEM_BOND_UDEF_STEREO_COUNT>  (1) 
0

>  <PUBCHEM_ISOTOPIC_ATOM_COUNT>  (1) 
0

>  <PUBCHEM_COMPONENT_COUNT>  (1) 
1

>  <PUBCHEM_CACTVS_TAUTO_COUNT>  (1) 
2

>  <PUBCHEM_CONFORMER_ID>  (1) 
00005C3300000001

>  <PUBCHEM_MMFF94_ENERGY>  (1) 
58.8367

>  <PUBCHEM_FEATURE_SELFOVERLAP>  (1) 
25.387

>  <PUBCHEM_SHAPE_FINGERPRINT>  (1) 
10948715 1 13542466466285388686
11086676 242 18342458132115516554
11132069 177 18131625673540617530
12251169 10 17917993871182856426
12382932 28 17632581513310470715
12403814 3 18341036476449704474
12644460 14 17974883792968551889
13172582 1 18343582970817303287
14817 1 14737777408381585869
14840074 17 17827345889969000956
15309172 13 17632289051971037774
15375462 478 17989205992703721359
15422964 175 18333453127183271754
15501101 241 18272932730456916378
15775835 57 17203332251120450235
16945 1 17845380950753026735
17357779 13 18266719360099349885
17844478 74 18410849932900981706
1813 80 18335711528846487510
18981168 100 16771508899366208474
19862831 5 11241961599104751627
200 152 14273454769348609242
20361792 2 18186801391620018347
20559304 39 18127707117389136777
20671657 53 15574719088255645982
21756936 100 16055736815978725208
23382010 3 8862652478371015051
23402539 116 18041275487619236274
23419403 2 15906227444693480621
2748010 2 17914326880109129014
3323516 105 11386667233751859113
549884 4 11097853033863249659
6442390 28 17255123341924837332
6786 2 16165518271302049644
6992083 37 18200867495503701535
81228 2 17970631787893245025
90316 7 18335987450045615761

>  <PUBCHEM_SHAPE_MULTIPOLES>  (1) 
359.58
5.8
2.2
1.52
0.61
1
-0.11
-2.23
3.07
-0.02
-1.09
-0.31
0.27
0.02

>  <PUBCHEM_SHAPE_SELFOVERLAP>  (1) 
790.751

>  <PUBCHEM_SHAPE_VOLUME>  (1) 
191

>  <PUBCHEM_COORDINATE_TYPE>  (1) 
2
5
10

$$$$
