23600
     RDKit          3D

 20 22  0  0  1  0  0  0  0  0999 V2000
   -3.5690   -3.4015    0.2817 O   0  0  0  0  0  0  0  0  0  0  0  0
    3.6009   -3.4139   -0.3428 O   0  0  0  0  0  0  0  0  0  0  0  0
   -2.3533   -0.1752   -0.2183 O   0  0  0  0  0  0  0  0  0  0  0  0
    2.2905   -0.2418    0.2552 O   0  0  0  0  0  0  0  0  0  0  0  0
   -3.4714    1.6153    0.7000 O   0  0  0  0  0  0  0  0  0  0  0  0
    3.6032    1.6154   -0.1010 O   0  0  0  0  0  0  0  0  0  0  0  0
   -3.2520   -2.3473   -0.6302 C   0  0  0  0  0  0  0  0  0  0  0  0
    3.0578   -2.4766    0.5900 C   0  0  0  0  0  0  0  0  0  0  0  0
   -2.1826   -3.1985   -0.0210 C   0  0  0  0  0  0  0  0  0  0  0  0
    2.1828   -3.2072   -0.3795 C   0  0  0  0  0  0  0  0  0  0  0  0
   -3.5320   -0.9802   -0.1077 C   0  0  0  0  0  0  0  0  0  0  0  0
    3.4598   -1.0632    0.3428 C   0  0  0  0  0  0  0  0  0  0  0  0
   -2.4435    1.1174    0.2214 C   0  0  0  0  0  0  0  0  0  0  0  0
    2.4880    1.0932    0.0290 C   0  0  0  0  0  0  0  0  0  0  0  0
   -1.1860    1.8281    0.0546 C   0  0  0  0  0  0  0  0  0  0  0  0
    1.2283    1.8166   -0.0376 C   0  0  0  0  0  0  0  0  0  0  0  0
    0.0221    1.1339    0.1205 C   0  0  0  0  0  0  0  0  0  0  0  0
   -1.1881    3.2049   -0.1691 C   0  0  0  0  0  0  0  0  0  0  0  0
    1.2262    3.1933   -0.2612 C   0  0  0  0  0  0  0  0  0  0  0  0
    0.0182    3.8875   -0.3269 C   0  0  0  0  0  0  0  0  0  0  0  0
  1  7  1  0
  1  9  1  0
  2  8  1  0
  2 10  1  0
  3 11  1  0
  3 13  1  0
  4 12  1  0
  4 14  1  0
  5 13  2  0
  6 14  2  0
  7  9  1  0
  7 11  1  0
  8 10  1  0
  8 12  1  0
 13 15  1  0
 14 16  1  0
 15 17  2  0
 15 18  1  0
 16 17  1  0
 16 19  2  0
 18 20  2  0
 19 20  1  0
M  END
>  <PUBCHEM_COMPOUND_CID>  (1) 
23600

>  <PUBCHEM_CONFORMER_RMSD>  (1) 
0.8

>  <PUBCHEM_CONFORMER_DIVERSEORDER>  (1) 
1
89
103
215
241
78
46
330
4
209
14
3
308
292
42
334
165
44
304
102
291
274
178
27
303
156
112
228
191
348
49
284
12
171
77
335
261
305
58
116
208
159
226
251
301
314
345
350
218
306
148
198
252
307
297
195
336
144
16
188
132
90
317
278
160
139
344
162
237
5
256
233
332
327
213
107
43
26
192
125
189
176
163
64
294
153
324
263
322
57
346
309
39
349
66
265
260
61
187
105
273
229
354
234
268
316
295
157
85
79
147
283
358
201
325
117
203
262
272
271
223
18
161
29
235
243
337
321
205
328
339
94
311
118
202
220
135
54
13
282
211
145
231
359
127
22
113
318
193
109
232
37
310
236
170
68
360
212
248
285
133
169
83
293
183
166
333
173
55
87
238
329
190
8
222
281
21
225
214
140
255
108
245
131
197
240
106
69
56
184
70
249
67
181
146
199
15
331
266
221
254
253
296
355
75
239
300
326
48
114
23
96
194
155
123
134
38
177
338
347
315
362
269
51
81
361
124
289
120
111
185
24
312
279
182
92
101
60
319
247
45
73
50
258
286
6
152
88
141
122
17
287
59
74
137
119
257
204
200
290
28
320
82
299
128
65
76
98
351
71
343
150
63
97
342
158
115
84
267
302
110
52
143
80
121
35
217
353
216
275
99
93
142
47
280
130
104
172
36
270
288
219
357
259
25
95
264
154
20
186
246
136
19
9
129
91
276
40
149
207
174
62
230
356
7
341
180
352
53
86
206
224
31
151
168
30
298
313
196
41
126
242
33
32
72
138
227
179
2
340
10
164
210
244
175
250
277
11
34
100
167
323

>  <PUBCHEM_MMFF94_PARTIAL_CHARGES>  (1) 
30
1 -0.3
10 -0.05
11 0.38
12 0.38
13 0.63
14 0.63
15 0.09
16 0.09
17 -0.15
18 -0.15
19 -0.15
2 -0.3
20 -0.15
21 0.1
22 0.1
23 0.1
24 0.1
25 0.1
26 0.1
3 -0.43
31 0.15
32 0.15
33 0.15
34 0.15
4 -0.43
5 -0.57
6 -0.57
7 -0.05
8 -0.05
9 -0.05

>  <PUBCHEM_EFFECTIVE_ROTOR_COUNT>  (1) 
9.2

>  <PUBCHEM_PHARMACOPHORE_FEATURES>  (1) 
5
1 1 acceptor
1 2 acceptor
1 5 acceptor
1 6 acceptor
6 15 16 17 18 19 20 rings

>  <PUBCHEM_HEAVY_ATOM_COUNT>  (1) 
20

>  <PUBCHEM_ATOM_DEF_STEREO_COUNT>  (1) 
0

>  <PUBCHEM_ATOM_UDEF_STEREO_COUNT>  (1) 
2

>  <PUBCHEM_BOND_DEF_STEREO_COUNT>  (1) 
0

>  <PUBCHEM_BOND_UDEF_STEREO_COUNT>  (1) 
0

>  <PUBCHEM_ISOTOPIC_ATOM_COUNT>  (1) 
0

>  <PUBCHEM_COMPONENT_COUNT>  (1) 
1

>  <PUBCHEM_CACTVS_TAUTO_COUNT>  (1) 
1

>  <PUBCHEM_CONFORMER_ID>  (1) 
00005C3000000001

>  <PUBCHEM_MMFF94_ENERGY>  (1) 
51.7334

>  <PUBCHEM_FEATURE_SELFOVERLAP>  (1) 
25.374

>  <PUBCHEM_SHAPE_FINGERPRINT>  (1) 
10616163 171 18412546539166519486
12038231 1 18410572851301866123
12539773 59 17415544425263920015
12553582 1 18410013234226573134
12839892 36 18267563858597872280
13122387 1 18050562937273915911
138480 1 14808254604694142062
14178342 30 18340758351242140512
14251705 54 18337951306593530487
14251757 5 17907881521451853126
14916288 52 18339079272511296982
14940714 1 9274024888284970295
15110567 62 17473545128250135043
16719943 64 17112693688136976066
17859628 97 17329429445777747339
19591789 44 17402612944038766051
19930381 70 17905324388028482555
20028762 73 17695911416376474886
221490 88 17830736817650126273
23559900 14 18122895697456240041
3882209 13 17906126842127105006
532947 4 15887707897679361916
7097593 13 18411990186630862113

>  <PUBCHEM_SHAPE_MULTIPOLES>  (1) 
376.37
6.92
6.08
0.69
0.18
1.29
0
6.43
0.32
-0.18
-0.61
0.05
0.06
-0.35

>  <PUBCHEM_SHAPE_SELFOVERLAP>  (1) 
789.578

>  <PUBCHEM_SHAPE_VOLUME>  (1) 
213.1

>  <PUBCHEM_COORDINATE_TYPE>  (1) 
2
5
10

$$$$
