23611
     RDKit          3D

 15 15  0  0  0  0  0  0  0  0999 V2000
   -2.0084    1.3215    1.4398 O   0  0  0  0  0  0  0  0  0  0  0  0
   -2.0024   -1.2909    1.4805 O   0  0  0  0  0  0  0  0  0  0  0  0
   -0.7908    2.4642   -0.1157 N   0  0  0  0  0  0  0  0  0  0  0  0
   -0.7780   -2.4761   -0.0373 N   0  0  0  0  0  0  0  0  0  0  0  0
   -0.7371   -0.0078   -0.1986 C   0  0  0  0  0  0  0  0  0  0  0  0
   -1.2906   -0.0326   -1.6631 C   0  0  0  0  0  0  0  0  0  0  0  0
    0.8067   -0.0021   -0.1040 C   0  0  0  0  0  0  0  0  0  0  0  0
   -1.2509    1.3020    0.4711 C   0  0  0  0  0  0  0  0  0  0  0  0
   -1.2442   -1.2983    0.5123 C   0  0  0  0  0  0  0  0  0  0  0  0
   -2.8161   -0.0015   -1.7601 C   0  0  0  0  0  0  0  0  0  0  0  0
    1.3738    0.0406    1.1403 C   0  0  0  0  0  0  0  0  0  0  0  0
    1.5218   -0.0397   -1.2697 C   0  0  0  0  0  0  0  0  0  0  0  0
    2.7661    0.0462    1.2256 C   0  0  0  0  0  0  0  0  0  0  0  0
    2.9140   -0.0342   -1.1844 C   0  0  0  0  0  0  0  0  0  0  0  0
    3.5361    0.0088    0.0633 C   0  0  0  0  0  0  0  0  0  0  0  0
  1  8  2  0
  2  9  2  0
  3  8  1  0
  4  9  1  0
  5  6  1  0
  5  7  1  0
  5  8  1  0
  5  9  1  0
  6 10  1  0
  7 11  2  0
  7 12  1  0
 11 13  1  0
 12 14  2  0
 13 15  2  0
 14 15  1  0
M  END
>  <PUBCHEM_COMPOUND_CID>  (1) 
23611

>  <PUBCHEM_CONFORMER_RMSD>  (1) 
0.6

>  <PUBCHEM_CONFORMER_DIVERSEORDER>  (1) 
1
9
24
35
29
37
32
18
15
19
10
26
5
8
21
16
4
3
31
36
22
2
34
14
28
12
11
25
6
30
7
13
33
17
20
23
27

>  <PUBCHEM_MMFF94_PARTIAL_CHARGES>  (1) 
22
1 -0.57
11 -0.15
12 -0.15
13 -0.15
14 -0.15
15 -0.15
2 -0.57
21 0.15
22 0.15
23 0.15
24 0.15
25 0.37
26 0.37
27 0.37
28 0.37
29 0.15
3 -0.8
4 -0.8
5 0.27
7 -0.14
8 0.57
9 0.57

>  <PUBCHEM_EFFECTIVE_ROTOR_COUNT>  (1) 
4

>  <PUBCHEM_PHARMACOPHORE_FEATURES>  (1) 
6
1 1 acceptor
1 10 hydrophobe
1 2 acceptor
1 3 donor
1 4 donor
6 7 11 12 13 14 15 rings

>  <PUBCHEM_HEAVY_ATOM_COUNT>  (1) 
15

>  <PUBCHEM_ATOM_DEF_STEREO_COUNT>  (1) 
0

>  <PUBCHEM_ATOM_UDEF_STEREO_COUNT>  (1) 
0

>  <PUBCHEM_BOND_DEF_STEREO_COUNT>  (1) 
0

>  <PUBCHEM_BOND_UDEF_STEREO_COUNT>  (1) 
0

>  <PUBCHEM_ISOTOPIC_ATOM_COUNT>  (1) 
0

>  <PUBCHEM_COMPONENT_COUNT>  (1) 
1

>  <PUBCHEM_CACTVS_TAUTO_COUNT>  (1) 
3

>  <PUBCHEM_CONFORMER_ID>  (1) 
00005C3B00000001

>  <PUBCHEM_MMFF94_ENERGY>  (1) 
48.4427

>  <PUBCHEM_FEATURE_SELFOVERLAP>  (1) 
30.457

>  <PUBCHEM_SHAPE_FINGERPRINT>  (1) 
11578080 2 17679298830725771405
13024252 1 13912323486361317575
13299463 15 16414898825440869868
13538477 17 18113632169978341880
14817 1 12389560518387678511
15557651 10 17700149702588032113
15775835 57 17986108509117696577
15852999 172 18116131329817482790
16945 1 18410293610018703616
187816 3 18266436811375390863
19837323 101 18340494352471051936
20082192 1 17676209039715979254
20511035 2 16969703291707540833
20653085 51 16916789522174609145
21501502 16 17346312666197934828
21524375 3 17554059735768002017
22802520 49 18129400214929845510
23402539 116 18128795547573975942
23419403 2 17975120256672286277
25 1 16698104248717668080
25610 171 18341608235265219832
2748010 2 18051682536568515882
298252 57 16445560829016541535
3248919 1 18410572881951485198
369184 2 16225767419431550676
427121 178 17478096741300740033
5084963 1 16415184728771442678
68419 9 17482521141657038949
8030462 33 18340761568557233974
81228 2 18272931639371842225

>  <PUBCHEM_SHAPE_MULTIPOLES>  (1) 
286.99
4.42
1.68
1.67
2.79
0.04
0.43
-0.5
-0.25
-0.61
-0.33
-1.13
0.15
0.26

>  <PUBCHEM_SHAPE_SELFOVERLAP>  (1) 
599.224

>  <PUBCHEM_SHAPE_VOLUME>  (1) 
162

>  <PUBCHEM_COORDINATE_TYPE>  (1) 
2
5
10

$$$$
