23617
     RDKit          3D

 22 24  0  0  0  0  0  0  0  0999 V2000
   -0.5268    2.5531    0.0629 O   0  0  0  0  0  0  0  0  0  0  0  0
    4.4349   -1.3807   -0.2609 O   0  0  0  0  0  0  0  0  0  0  0  0
   -0.3973   -2.7847   -0.1600 O   0  0  0  0  0  0  0  0  0  0  0  0
    2.0172    2.7056   -0.0119 O   0  0  0  0  0  0  0  0  0  0  0  0
   -3.0856    2.5746    0.1478 O   0  0  0  0  0  0  0  0  0  0  0  0
    4.3803    1.3790   -0.1444 O   0  0  0  0  0  0  0  0  0  0  0  0
   -1.7166   -0.8452   -0.0357 C   0  0  0  0  0  0  0  0  0  0  0  0
    0.7940    0.6140   -0.0580 C   0  0  0  0  0  0  0  0  0  0  0  0
   -1.7499    0.5497    0.0227 C   0  0  0  0  0  0  0  0  0  0  0  0
    0.8274   -0.7809   -0.1163 C   0  0  0  0  0  0  0  0  0  0  0  0
   -0.4958    1.3302    0.0135 C   0  0  0  0  0  0  0  0  0  0  0  0
   -0.4266   -1.5614   -0.1071 C   0  0  0  0  0  0  0  0  0  0  0  0
   -2.9124   -1.5733   -0.0266 C   0  0  0  0  0  0  0  0  0  0  0  0
    1.9898    1.3420   -0.0674 C   0  0  0  0  0  0  0  0  0  0  0  0
   -2.9792    1.2166    0.0901 C   0  0  0  0  0  0  0  0  0  0  0  0
    2.0567   -1.4477   -0.1837 C   0  0  0  0  0  0  0  0  0  0  0  0
   -4.1351   -0.9048    0.0405 C   0  0  0  0  0  0  0  0  0  0  0  0
    3.2459   -0.7184   -0.1927 C   0  0  0  0  0  0  0  0  0  0  0  0
   -4.1685    0.4872    0.0987 C   0  0  0  0  0  0  0  0  0  0  0  0
    3.2126    0.6734   -0.1347 C   0  0  0  0  0  0  0  0  0  0  0  0
   -5.4089   -1.6810    0.0479 C   0  0  0  0  0  0  0  0  0  0  0  0
    5.0439   -1.7474    0.9754 C   0  0  0  0  0  0  0  0  0  0  0  0
  1 11  2  0
  2 18  1  0
  2 22  1  0
  3 12  2  0
  4 14  1  0
  5 15  1  0
  6 20  1  0
  7  9  2  0
  7 12  1  0
  7 13  1  0
  8 10  2  0
  8 11  1  0
  8 14  1  0
  9 11  1  0
  9 15  1  0
 10 12  1  0
 10 16  1  0
 13 17  2  0
 14 20  2  0
 15 19  2  0
 16 18  2  0
 17 19  1  0
 17 21  1  0
 18 20  1  0
M  END
>  <PUBCHEM_COMPOUND_CID>  (1) 
23617

>  <PUBCHEM_CONFORMER_RMSD>  (1) 
0.6

>  <PUBCHEM_CONFORMER_DIVERSEORDER>  (1) 
1

>  <PUBCHEM_MMFF94_PARTIAL_CHARGES>  (1) 
28
1 -0.57
10 0.09
11 0.4
12 0.4
13 -0.15
14 0.08
15 0.08
16 -0.15
17 -0.14
18 0.08
19 -0.15
2 -0.36
20 0.08
21 0.14
22 0.28
23 0.15
24 0.15
25 0.15
29 0.45
3 -0.57
30 0.45
31 0.45
4 -0.53
5 -0.53
6 -0.53
7 0.09
8 0.09
9 0.09

>  <PUBCHEM_EFFECTIVE_ROTOR_COUNT>  (1) 
1

>  <PUBCHEM_PHARMACOPHORE_FEATURES>  (1) 
9
1 1 acceptor
1 2 acceptor
1 3 acceptor
1 4 donor
1 5 donor
1 6 donor
6 7 8 9 10 11 12 rings
6 7 9 13 15 17 19 rings
6 8 10 14 16 18 20 rings

>  <PUBCHEM_HEAVY_ATOM_COUNT>  (1) 
22

>  <PUBCHEM_ATOM_DEF_STEREO_COUNT>  (1) 
0

>  <PUBCHEM_ATOM_UDEF_STEREO_COUNT>  (1) 
0

>  <PUBCHEM_BOND_DEF_STEREO_COUNT>  (1) 
0

>  <PUBCHEM_BOND_UDEF_STEREO_COUNT>  (1) 
0

>  <PUBCHEM_ISOTOPIC_ATOM_COUNT>  (1) 
0

>  <PUBCHEM_COMPONENT_COUNT>  (1) 
1

>  <PUBCHEM_CACTVS_TAUTO_COUNT>  (1) 
208

>  <PUBCHEM_CONFORMER_ID>  (1) 
00005C4100000001

>  <PUBCHEM_MMFF94_ENERGY>  (1) 
78.8426

>  <PUBCHEM_FEATURE_SELFOVERLAP>  (1) 
45.72

>  <PUBCHEM_SHAPE_FINGERPRINT>  (1) 
10062212 137 18411412882611965779
10616163 171 18340207375894598519
10967382 1 18267305524424858453
1100329 8 16897647883712722219
12236239 1 17895196550676161322
12403259 226 18410006650332417405
12403260 363 18411134744961740855
13140716 1 18412546474863375065
13862211 1 18411415124849028207
15042514 8 18121495748776532066
15196674 1 18410856555350116541
15442244 35 18410573981209911724
15536298 74 18342458157742752444
16945 1 18123190374845459197
17492 89 18411420579062030630
17804303 29 18411422790974644388
1813 80 17313098649332634676
19591789 44 18410855464602750015
200 152 18202280334165618095
20028762 73 18201997767999293847
20510252 161 18272092699241671377
21267235 1 18410865351469973758
21792934 111 18412818097923249401
221490 88 18336553814413407490
2334 1 18411702123037084781
23366157 5 18114182007876903252
23402539 116 18342167834880536023
23463225 33 18410013251448783357
23559900 14 18342174454057920728
2748010 2 18411138043528357261
2871803 45 18335134315412261919
3004659 81 18261114054675135838
3286 77 18335420175001871460
335352 9 18266459806493357933
34934 24 18268427026585824894
350125 39 18411422817113999025
4214541 1 18410575046203772949
474 4 17387138770051661956
5104073 3 18412265029766514432
9709674 26 18411708702742677863
9981440 41 17470446704451550728

>  <PUBCHEM_SHAPE_MULTIPOLES>  (1) 
417.53
9.51
2.8
0.65
0.33
0.75
0.04
-3.36
0.91
0.01
0.08
0.22
-0.1
-0.43

>  <PUBCHEM_SHAPE_SELFOVERLAP>  (1) 
939.837

>  <PUBCHEM_SHAPE_VOLUME>  (1) 
219.1

>  <PUBCHEM_COORDINATE_TYPE>  (1) 
2
5
10

$$$$
