23619
     RDKit          3D

 11 12  0  0  0  0  0  0  0  0999 V2000
   -4.3391    0.0636   -0.3632 Br  0  0  0  0  0  0  0  0  0  0  0  0
    3.7137    0.0469   -0.3951 N   0  0  0  0  0  0  0  0  0  0  0  0
    1.8342   -0.0869    0.5395 C   0  0  0  0  0  0  0  0  0  0  0  0
    2.6696    1.0488   -0.0681 C   0  0  0  0  0  0  0  0  0  0  0  0
    2.6596   -0.9968   -0.3812 C   0  0  0  0  0  0  0  0  0  0  0  0
    0.2903   -0.0452    0.3120 C   0  0  0  0  0  0  0  0  0  0  0  0
   -0.4339   -1.2357    0.2514 C   0  0  0  0  0  0  0  0  0  0  0  0
   -0.3655    1.1780    0.1719 C   0  0  0  0  0  0  0  0  0  0  0  0
   -1.8138   -1.2032    0.0509 C   0  0  0  0  0  0  0  0  0  0  0  0
   -1.7454    1.2106   -0.0287 C   0  0  0  0  0  0  0  0  0  0  0  0
   -2.4697    0.0200   -0.0894 C   0  0  0  0  0  0  0  0  0  0  0  0
  1 11  1  0
  2  4  1  0
  2  5  1  0
  3  4  1  0
  3  5  1  0
  3  6  1  0
  6  7  2  0
  6  8  1  0
  7  9  1  0
  8 10  2  0
  9 11  2  0
 10 11  1  0
M  END
>  <PUBCHEM_COMPOUND_CID>  (1) 
23619

>  <PUBCHEM_CONFORMER_RMSD>  (1) 
0.4

>  <PUBCHEM_CONFORMER_DIVERSEORDER>  (1) 
1
2
3

>  <PUBCHEM_MMFF94_PARTIAL_CHARGES>  (1) 
16
1 -0.11
10 -0.15
11 0.11
17 0.36
18 0.15
19 0.15
2 -0.78
20 0.15
21 0.15
3 0.11
4 0.21
5 0.21
6 -0.11
7 -0.15
8 -0.15
9 -0.15

>  <PUBCHEM_EFFECTIVE_ROTOR_COUNT>  (1) 
1.8

>  <PUBCHEM_PHARMACOPHORE_FEATURES>  (1) 
5
1 1 hydrophobe
1 2 cation
1 2 donor
4 2 3 4 5 rings
6 6 7 8 9 10 11 rings

>  <PUBCHEM_HEAVY_ATOM_COUNT>  (1) 
11

>  <PUBCHEM_ATOM_DEF_STEREO_COUNT>  (1) 
0

>  <PUBCHEM_ATOM_UDEF_STEREO_COUNT>  (1) 
0

>  <PUBCHEM_BOND_DEF_STEREO_COUNT>  (1) 
0

>  <PUBCHEM_BOND_UDEF_STEREO_COUNT>  (1) 
0

>  <PUBCHEM_ISOTOPIC_ATOM_COUNT>  (1) 
0

>  <PUBCHEM_COMPONENT_COUNT>  (1) 
1

>  <PUBCHEM_CACTVS_TAUTO_COUNT>  (1) 
1

>  <PUBCHEM_CONFORMER_ID>  (1) 
00005C4300000001

>  <PUBCHEM_MMFF94_ENERGY>  (1) 
30.0088

>  <PUBCHEM_FEATURE_SELFOVERLAP>  (1) 
25.371

>  <PUBCHEM_SHAPE_FINGERPRINT>  (1) 
11062470 55 13551192182305689869
12032990 46 18410859884514390339
12897270 3 18411420630943659018
12932764 1 17385433332557877176
14325111 11 18410292475867918577
14911166 2 18410287021749861861
14993402 34 18259703402272489373
15775835 57 17748825207019407910
16945 1 18409725153722030235
18186145 218 18259698991272426597
200 152 17489868228287433302
20201158 50 18272654541082948078
20279233 1 18202282524272001810
20645476 183 17603591858388974451
20645477 70 18343021047314035046
21119208 17 18259705596842424612
21293036 1 18335698347486315349
21501502 16 18127134065250804379
23235685 24 18408878534295685889
23402539 116 18341884182370899301
23402655 69 18342168934893180821
23552423 10 18333733541587519978
23559900 14 18413105091853748768
2748010 2 18049715514862046321
369184 2 18411139129864835306
528886 8 18410851079372452283
69090 78 18272927237067410519

>  <PUBCHEM_SHAPE_MULTIPOLES>  (1) 
227.34
6.48
1.34
0.71
1.3
0.01
0
-0.17
-1.28
0.01
0.02
-0.02
0.02
0.09

>  <PUBCHEM_SHAPE_SELFOVERLAP>  (1) 
461.866

>  <PUBCHEM_SHAPE_VOLUME>  (1) 
137.1

>  <PUBCHEM_COORDINATE_TYPE>  (1) 
2
5
10

$$$$
