23622
     RDKit          3D

 11 12  0  0  0  0  0  0  0  0999 V2000
    3.6716   -0.0018    0.3815 N   0  0  0  0  0  0  0  0  0  0  0  0
   -3.9044   -0.0035    0.3364 N   0  0  0  0  0  0  0  0  0  0  0  0
    1.7877    0.0001   -0.5539 C   0  0  0  0  0  0  0  0  0  0  0  0
    2.6203   -1.0353    0.2154 C   0  0  0  0  0  0  0  0  0  0  0  0
    2.6232    1.0341    0.2140 C   0  0  0  0  0  0  0  0  0  0  0  0
    0.2449    0.0031   -0.3155 C   0  0  0  0  0  0  0  0  0  0  0  0
   -0.4423   -1.2059   -0.2084 C   0  0  0  0  0  0  0  0  0  0  0  0
   -0.4458    1.2101   -0.2060 C   0  0  0  0  0  0  0  0  0  0  0  0
   -1.8202   -1.2080    0.0083 C   0  0  0  0  0  0  0  0  0  0  0  0
   -1.8238    1.2080    0.0106 C   0  0  0  0  0  0  0  0  0  0  0  0
   -2.5111   -0.0011    0.1177 C   0  0  0  0  0  0  0  0  0  0  0  0
  1  4  1  0
  1  5  1  0
  2 11  1  0
  3  4  1  0
  3  5  1  0
  3  6  1  0
  6  7  2  0
  6  8  1  0
  7  9  1  0
  8 10  2  0
  9 11  2  0
 10 11  1  0
M  END
>  <PUBCHEM_COMPOUND_CID>  (1) 
23622

>  <PUBCHEM_CONFORMER_RMSD>  (1) 
0.4

>  <PUBCHEM_CONFORMER_DIVERSEORDER>  (1) 
1
2

>  <PUBCHEM_MMFF94_PARTIAL_CHARGES>  (1) 
18
1 -0.78
10 -0.15
11 0.1
17 0.36
18 0.15
19 0.15
2 -0.9
20 0.15
21 0.15
22 0.4
23 0.4
3 0.11
4 0.21
5 0.21
6 -0.11
7 -0.15
8 -0.15
9 -0.15

>  <PUBCHEM_EFFECTIVE_ROTOR_COUNT>  (1) 
1.8

>  <PUBCHEM_PHARMACOPHORE_FEATURES>  (1) 
6
1 1 cation
1 1 donor
1 2 cation
1 2 donor
4 1 3 4 5 rings
6 6 7 8 9 10 11 rings

>  <PUBCHEM_HEAVY_ATOM_COUNT>  (1) 
11

>  <PUBCHEM_ATOM_DEF_STEREO_COUNT>  (1) 
0

>  <PUBCHEM_ATOM_UDEF_STEREO_COUNT>  (1) 
0

>  <PUBCHEM_BOND_DEF_STEREO_COUNT>  (1) 
0

>  <PUBCHEM_BOND_UDEF_STEREO_COUNT>  (1) 
0

>  <PUBCHEM_ISOTOPIC_ATOM_COUNT>  (1) 
0

>  <PUBCHEM_COMPONENT_COUNT>  (1) 
1

>  <PUBCHEM_CACTVS_TAUTO_COUNT>  (1) 
1

>  <PUBCHEM_CONFORMER_ID>  (1) 
00005C4600000001

>  <PUBCHEM_MMFF94_ENERGY>  (1) 
41.7616

>  <PUBCHEM_FEATURE_SELFOVERLAP>  (1) 
30.446

>  <PUBCHEM_SHAPE_FINGERPRINT>  (1) 
10219947 1 18410578387846350965
10857977 72 18411132571444603537
11062470 55 17632297878144278539
12032990 46 18336274482947364619
12251169 10 18411133645550300912
12932764 1 18410008836443786790
13024252 1 14923943436136762349
14144814 61 18409729534694167096
14325111 11 18411138000262199052
15775835 57 18413110571599093714
16945 1 18410862061608940479
17846911 113 18272086084960237393
20201158 50 18272089387737359846
20510252 161 18272653394200300689
20528008 55 18342451569125854785
20645464 45 18060140929176107342
20871998 184 18129947908980603255
22445834 79 18114737132014666250
23402539 116 18201709648812638093
23402655 69 18195793087193386445
23463225 33 18335139769556517150
23552423 10 18116154561215971836
2748010 2 18049732823585543701
369184 2 18411415115852223135
5084963 1 17895479132999761724
69090 78 18273490182868334855

>  <PUBCHEM_SHAPE_MULTIPOLES>  (1) 
216.41
5.56
1.36
0.68
0.5
0
-0.03
0
1
-0.1
0
0.08
0
0

>  <PUBCHEM_SHAPE_SELFOVERLAP>  (1) 
454.41

>  <PUBCHEM_SHAPE_VOLUME>  (1) 
124.1

>  <PUBCHEM_COORDINATE_TYPE>  (1) 
2
5
10

$$$$
