23626
     RDKit          3D

 13 14  0  0  0  0  0  0  0  0999 V2000
   -5.1764    0.5108   -0.6393 O   0  0  0  0  0  0  0  0  0  0  0  0
   -1.6124   -0.2713   -0.1519 N   0  0  0  0  0  0  0  0  0  0  0  0
    0.0111   -0.4306    1.1757 C   0  0  0  0  0  0  0  0  0  0  0  0
   -0.9330   -1.4254    0.4859 C   0  0  0  0  0  0  0  0  0  0  0  0
   -1.1251    0.5794    0.9614 C   0  0  0  0  0  0  0  0  0  0  0  0
    1.3959   -0.1291    0.4632 C   0  0  0  0  0  0  0  0  0  0  0  0
   -3.0576   -0.4335   -0.0558 C   0  0  0  0  0  0  0  0  0  0  0  0
   -3.7738    0.7184   -0.7424 C   0  0  0  0  0  0  0  0  0  0  0  0
    2.0096    1.1155    0.6044 C   0  0  0  0  0  0  0  0  0  0  0  0
    1.9975   -1.1193   -0.3134 C   0  0  0  0  0  0  0  0  0  0  0  0
    3.2249    1.3700   -0.0311 C   0  0  0  0  0  0  0  0  0  0  0  0
    3.2128   -0.8648   -0.9490 C   0  0  0  0  0  0  0  0  0  0  0  0
    3.8265    0.3799   -0.8078 C   0  0  0  0  0  0  0  0  0  0  0  0
  1  8  1  0
  2  4  1  0
  2  5  1  0
  2  7  1  0
  3  4  1  0
  3  5  1  0
  3  6  1  0
  6  9  2  0
  6 10  1  0
  7  8  1  0
  9 11  1  0
 10 12  2  0
 11 13  2  0
 12 13  1  0
M  END
>  <PUBCHEM_COMPOUND_CID>  (1) 
23626

>  <PUBCHEM_CONFORMER_RMSD>  (1) 
0.6

>  <PUBCHEM_CONFORMER_DIVERSEORDER>  (1) 
2
8
4
6
9
3
7
5
1

>  <PUBCHEM_MMFF94_PARTIAL_CHARGES>  (1) 
19
1 -0.68
10 -0.15
11 -0.15
12 -0.15
13 -0.15
2 -0.69
23 0.15
24 0.15
25 0.15
26 0.15
27 0.15
28 0.4
3 0.11
4 0.21
5 0.21
6 -0.11
7 0.27
8 0.28
9 -0.15

>  <PUBCHEM_EFFECTIVE_ROTOR_COUNT>  (1) 
3.8

>  <PUBCHEM_PHARMACOPHORE_FEATURES>  (1) 
5
1 1 acceptor
1 1 donor
1 2 cation
4 2 3 4 5 rings
6 6 9 10 11 12 13 rings

>  <PUBCHEM_HEAVY_ATOM_COUNT>  (1) 
13

>  <PUBCHEM_ATOM_DEF_STEREO_COUNT>  (1) 
0

>  <PUBCHEM_ATOM_UDEF_STEREO_COUNT>  (1) 
0

>  <PUBCHEM_BOND_DEF_STEREO_COUNT>  (1) 
0

>  <PUBCHEM_BOND_UDEF_STEREO_COUNT>  (1) 
0

>  <PUBCHEM_ISOTOPIC_ATOM_COUNT>  (1) 
0

>  <PUBCHEM_COMPONENT_COUNT>  (1) 
1

>  <PUBCHEM_CACTVS_TAUTO_COUNT>  (1) 
1

>  <PUBCHEM_CONFORMER_ID>  (1) 
00005C4A00000002

>  <PUBCHEM_MMFF94_ENERGY>  (1) 
36.5154

>  <PUBCHEM_FEATURE_SELFOVERLAP>  (1) 
25.371

>  <PUBCHEM_SHAPE_FINGERPRINT>  (1) 
10498660 4 17823406120441308997
11031198 65 17167861950210446106
11471102 20 18343866619369082644
11543360 7 18059286664818700767
12251169 10 11386370347978757728
12897270 3 18201165450533391682
13549 16 17988642978241115193
13675066 3 9943806690601809251
13764800 53 16515697636291412233
14252887 29 10087643718920003876
14445660 50 12757441569549138433
14911166 2 18342181059348350406
14943859 89 17385445422906626811
15775835 57 17385720309382393312
15885798 251 11959730486736188035
16945 1 18129680680826709410
177051 138 11815896768888115477
18186145 218 18410857646588275539
200 152 17203895145328551448
20201158 50 18272660047415650734
20281407 28 12247409998444649362
20361792 2 15052013463554760609
20645477 56 18114746035223245185
20645477 70 18130794434002004414
20671657 53 15410892959549620923
20767249 442 17240762882451507605
20871998 22 10375881787384354130
20871999 31 18200304554609869359
21119208 17 18060701692922590261
212847 35 17603862278277802428
21501925 9 10735872881024005099
22218785 32 18409167697116533767
22485316 2 13902192573185158741
23402539 116 18261102011159348982
23402655 69 18272091595224021020
23557571 272 18188218722443680395
23559900 14 18343584053898187218
25 1 18335986389088414907
251288 83 10807924964571328588
2748010 2 17697886122132338584
276578 36 16008744701981465880
3060560 45 18272368668117748982
4028521 119 18260825977943489581
4047638 21 18187082853753999104
42 15 9511464433277513509
4990 188 18341892987402138959
522135 26 18060416902531761807
8030462 33 17632308877692706442
93112 12 18272933846884734007

>  <PUBCHEM_SHAPE_MULTIPOLES>  (1) 
256.68
7.97
1.31
1.05
6.63
0.04
0.07
-2.03
-3.59
-0.6
0.03
-0.01
0
0.55

>  <PUBCHEM_SHAPE_SELFOVERLAP>  (1) 
528.688

>  <PUBCHEM_SHAPE_VOLUME>  (1) 
149.7

>  <PUBCHEM_COORDINATE_TYPE>  (1) 
2
5
10

$$$$
