23632
     RDKit          3D

 13 14  0  0  0  0  0  0  0  0999 V2000
   -1.6345   -0.4469   -0.2579 N   0  0  0  0  0  0  0  0  0  0  0  0
   -0.0537   -0.5152    1.1278 C   0  0  0  0  0  0  0  0  0  0  0  0
   -0.9156   -1.5613    0.4068 C   0  0  0  0  0  0  0  0  0  0  0  0
   -1.2357    0.4300    0.8702 C   0  0  0  0  0  0  0  0  0  0  0  0
    1.3370   -0.1376    0.4650 C   0  0  0  0  0  0  0  0  0  0  0  0
   -3.0710   -0.6890   -0.2136 C   0  0  0  0  0  0  0  0  0  0  0  0
    1.8752    1.1392    0.6252 C   0  0  0  0  0  0  0  0  0  0  0  0
    2.0204   -1.0932   -0.2869 C   0  0  0  0  0  0  0  0  0  0  0  0
   -3.7728    0.4454   -0.8884 C   0  0  0  0  0  0  0  0  0  0  0  0
    3.0968    1.4605    0.0334 C   0  0  0  0  0  0  0  0  0  0  0  0
    3.2419   -0.7719   -0.8788 C   0  0  0  0  0  0  0  0  0  0  0  0
    3.7801    0.5050   -0.7186 C   0  0  0  0  0  0  0  0  0  0  0  0
   -4.6681    1.2350   -0.2842 C   0  0  0  0  0  0  0  0  0  0  0  0
  1  3  1  0
  1  4  1  0
  1  6  1  0
  2  3  1  0
  2  4  1  0
  2  5  1  0
  5  7  2  0
  5  8  1  0
  6  9  1  0
  7 10  1  0
  8 11  2  0
  9 13  2  0
 10 12  2  0
 11 12  1  0
M  END
>  <PUBCHEM_COMPOUND_CID>  (1) 
23632

>  <PUBCHEM_CONFORMER_RMSD>  (1) 
0.6

>  <PUBCHEM_CONFORMER_DIVERSEORDER>  (1) 
2
1
10
4
8
12
7
3
5
9
11
6

>  <PUBCHEM_MMFF94_PARTIAL_CHARGES>  (1) 
21
1 -0.69
10 -0.15
11 -0.15
12 -0.15
13 -0.3
2 0.11
21 0.15
22 0.15
23 0.15
24 0.15
25 0.15
26 0.15
27 0.15
28 0.15
3 0.21
4 0.21
5 -0.11
6 0.41
7 -0.15
8 -0.15
9 -0.29

>  <PUBCHEM_EFFECTIVE_ROTOR_COUNT>  (1) 
3.8

>  <PUBCHEM_PHARMACOPHORE_FEATURES>  (1) 
4
1 1 cation
1 13 hydrophobe
4 1 2 3 4 rings
6 5 7 8 10 11 12 rings

>  <PUBCHEM_HEAVY_ATOM_COUNT>  (1) 
13

>  <PUBCHEM_ATOM_DEF_STEREO_COUNT>  (1) 
0

>  <PUBCHEM_ATOM_UDEF_STEREO_COUNT>  (1) 
0

>  <PUBCHEM_BOND_DEF_STEREO_COUNT>  (1) 
0

>  <PUBCHEM_BOND_UDEF_STEREO_COUNT>  (1) 
0

>  <PUBCHEM_ISOTOPIC_ATOM_COUNT>  (1) 
0

>  <PUBCHEM_COMPONENT_COUNT>  (1) 
1

>  <PUBCHEM_CACTVS_TAUTO_COUNT>  (1) 
1

>  <PUBCHEM_CONFORMER_ID>  (1) 
00005C5000000002

>  <PUBCHEM_MMFF94_ENERGY>  (1) 
39.0749

>  <PUBCHEM_FEATURE_SELFOVERLAP>  (1) 
20.297

>  <PUBCHEM_SHAPE_FINGERPRINT>  (1) 
10498660 4 18041264492629923133
10608611 8 18337672047835450616
11031198 65 17240481394647995506
11543360 7 17916858136164513175
11769659 78 11600008760428363417
12251169 10 11458429045823287225
12897270 3 18201163264347610690
13549 16 17989204824377359461
13581323 91 9439404626972712504
13764800 53 16805333188398321777
1420 369 10879696729037400613
14252887 29 9511463342181916012
14943859 89 17385443223909751451
15775835 57 17749104495678449275
177051 138 10879992475667663333
18186145 218 18409443674693029637
200 152 17060623286908151242
20201158 50 18272940431423221478
20281407 28 11671794779078007146
20361792 2 14908181966753581705
20645477 56 18260548973711047257
20645477 70 17988650678922668854
20653085 51 18187650240556349881
20671657 53 15123786292998076811
20871999 31 18130498751821974943
21119208 17 17918274246674014237
212847 35 17967809410153158684
21501925 9 10303806592786789811
22485316 2 12607410978914302037
23402539 116 18336818771320437596
23402655 69 18272936015880336660
23500284 214 17530687619191445193
23557571 272 18189909771205906583
23559900 14 18272650152169710066
25 1 18335420144995323763
251288 83 9367339340759328580
26918003 58 9295293820085310487
2748010 2 17697039498094561544
276578 36 16443060586698260802
31174 14 8646481899728759702
4028521 119 18334852793069877741
4047638 21 18260548917839380264
42 15 9079118868960294605
4990 188 18343019982493993615
8030462 33 17561093518083082690
93112 12 18201718474601107543
9882013 296 12324249351699063949

>  <PUBCHEM_SHAPE_MULTIPOLES>  (1) 
262.55
7.95
1.45
1.01
5
0.04
-0.05
2.89
2.93
-0.17
-0.04
-0.07
-0.01
0.43

>  <PUBCHEM_SHAPE_SELFOVERLAP>  (1) 
541.871

>  <PUBCHEM_SHAPE_VOLUME>  (1) 
152.7

>  <PUBCHEM_COORDINATE_TYPE>  (1) 
2
5
10

$$$$
