23644
     RDKit          3D

 22 24  0  0  0  0  0  0  0  0999 V2000
    2.2483    1.5281   -1.6015 S   0  0  0  0  0  0  0  0  0  0  0  0
    3.2357   -1.8157    1.1576 S   0  0  0  0  0  0  0  0  0  0  0  0
    1.2521   -0.0155    1.9286 O   0  0  0  0  0  0  0  0  0  0  0  0
   -4.4150   -0.0420   -0.2555 N   0  0  0  0  0  0  0  0  0  0  0  0
   -2.9338    0.0559   -0.3350 C   0  0  0  0  0  0  0  0  0  0  0  0
   -0.1818    0.0232    0.0407 C   0  0  0  0  0  0  0  0  0  0  0  0
   -2.4403    1.0708    0.6870 C   0  0  0  0  0  0  0  0  0  0  0  0
   -2.3298   -1.3311   -0.1045 C   0  0  0  0  0  0  0  0  0  0  0  0
   -0.9192    1.2447    0.6188 C   0  0  0  0  0  0  0  0  0  0  0  0
   -0.8915   -1.2785    0.4237 C   0  0  0  0  0  0  0  0  0  0  0  0
    1.2781    0.0104    0.4888 C   0  0  0  0  0  0  0  0  0  0  0  0
   -5.0602    1.3165   -0.5495 C   0  0  0  0  0  0  0  0  0  0  0  0
   -4.8499   -0.4906    1.1436 C   0  0  0  0  0  0  0  0  0  0  0  0
   -4.9423   -1.0577   -1.2744 C   0  0  0  0  0  0  0  0  0  0  0  0
    1.9768    1.3090    0.0454 C   0  0  0  0  0  0  0  0  0  0  0  0
    2.0877   -1.2317    0.0735 C   0  0  0  0  0  0  0  0  0  0  0  0
    2.3993    2.2992    0.8446 C   0  0  0  0  0  0  0  0  0  0  0  0
    1.9743   -1.9080   -1.0787 C   0  0  0  0  0  0  0  0  0  0  0  0
    2.9971    3.3325    0.0668 C   0  0  0  0  0  0  0  0  0  0  0  0
    2.8922   -2.9976   -1.0975 C   0  0  0  0  0  0  0  0  0  0  0  0
    2.9816    3.0416   -1.2796 C   0  0  0  0  0  0  0  0  0  0  0  0
    3.6405   -3.0636    0.0572 C   0  0  0  0  0  0  0  0  0  0  0  0
  1 15  1  0
  1 21  1  0
  2 16  1  0
  2 22  1  0
  3 11  1  0
  4  5  1  0
  4 12  1  0
  4 13  1  0
  4 14  1  0
  5  7  1  0
  5  8  1  0
  6  9  1  0
  6 10  1  0
  6 11  1  0
  7  9  1  0
  8 10  1  0
 11 15  1  0
 11 16  1  0
 15 17  2  0
 16 18  2  0
 17 19  1  0
 18 20  1  0
 19 21  2  0
 20 22  2  0
M  CHG  1   4   1
M  END
>  <PUBCHEM_COMPOUND_CID>  (1) 
23644

>  <PUBCHEM_CONFORMER_RMSD>  (1) 
0.8

>  <PUBCHEM_CONFORMER_DIVERSEORDER>  (1) 
2
17
12
7
8
16
10
13
15
14
6
11
5
1
3
9
4

>  <PUBCHEM_MMFF94_PARTIAL_CHARGES>  (1) 
24
1 -0.08
11 0.64
12 0.5
13 0.5
14 0.5
15 -0.14
16 -0.14
17 -0.15
18 -0.15
19 -0.15
2 -0.08
20 -0.15
21 -0.11
22 -0.11
3 -0.68
4 -1.01
42 0.4
43 0.15
44 0.15
45 0.15
46 0.15
47 0.15
48 0.15
5 0.5

>  <PUBCHEM_EFFECTIVE_ROTOR_COUNT>  (1) 
5.2

>  <PUBCHEM_PHARMACOPHORE_FEATURES>  (1) 
6
1 3 acceptor
1 3 donor
1 4 cation
5 1 15 17 19 21 rings
5 2 16 18 20 22 rings
6 5 6 7 8 9 10 rings

>  <PUBCHEM_HEAVY_ATOM_COUNT>  (1) 
22

>  <PUBCHEM_ATOM_DEF_STEREO_COUNT>  (1) 
0

>  <PUBCHEM_ATOM_UDEF_STEREO_COUNT>  (1) 
0

>  <PUBCHEM_BOND_DEF_STEREO_COUNT>  (1) 
0

>  <PUBCHEM_BOND_UDEF_STEREO_COUNT>  (1) 
0

>  <PUBCHEM_ISOTOPIC_ATOM_COUNT>  (1) 
0

>  <PUBCHEM_COMPONENT_COUNT>  (1) 
1

>  <PUBCHEM_CACTVS_TAUTO_COUNT>  (1) 
1

>  <PUBCHEM_CONFORMER_ID>  (1) 
00005C5C00000002

>  <PUBCHEM_MMFF94_ENERGY>  (1) 
76.5556

>  <PUBCHEM_FEATURE_SELFOVERLAP>  (1) 
30.446

>  <PUBCHEM_SHAPE_FINGERPRINT>  (1) 
10369192 42 17680444534420887052
10498660 4 18197219363405004457
11405975 8 18335985273182869113
12293681 160 17700430340521420056
12553582 1 18123206609917153906
12616971 3 18343019970210445771
12617007 42 18338234843491880562
12730499 353 18266191702018760931
12788726 201 17612319554737586274
13004483 165 18049432648575245458
13009979 54 17844261626599292488
13134695 92 17702646762161291360
13149001 5 17896342280014577978
133893 2 18189922884004948368
13681431 1 18337686204706826762
13955234 65 18411705417034297738
14004458 79 17689166608519514630
14178000 15 18341332176358469616
14181834 199 18408326566716195292
14863182 85 18272927250379489386
15163728 17 17534647068016669804
15502722 9 18409735096539730244
15842332 3 17916887732684241737
17492 89 18413105070137027311
17818456 19 17558838286717291297
17844677 252 18261395516882859065
1813 80 18266742368408218762
18186145 218 17676202451594635425
18222031 100 18198059184251592542
18785283 64 18334296508873615852
18915476 22 18192456227266719778
19591789 44 15964006316881968024
19784866 34 18126006211139461281
20281475 54 18131630093583918683
20369508 70 18114457864482561482
20559304 39 18272369758965491432
20600515 1 17832396736721688624
20645477 70 18409725171187021643
21054139 6 17913758689852384791
21304303 282 17335313409851555764
21452121 199 18270394993232520672
21524375 3 18046062933124762632
221490 88 18409736153360381955
22149856 69 18269565004452901171
22393880 68 18200319955818773916
2255824 54 18410013221516218818
23114952 82 18334575745740095837
23366157 5 18261111889515681298
23419403 2 17840272590256484840
23558518 356 18340216180735830881
23559900 14 18342170042630798131
238 59 18263947555926461328
25147074 1 18130522841977001129
3004659 81 18341607093072885767
3060560 45 18266742570398457988
312423 11 18341907259736719345
394222 165 18044643446317241392
4409770 3 17180802953272489780
460360 51 18341344292624826905
474 4 17823417282596911628
5104073 3 18408328787620385569
5281201 14 18333731291277799757
59755656 215 18334294288539548044
60123966 16 18189033362013161333
6138700 20 18409740560914485324
633830 44 18187640289718550579
6443956 14 18268427941118498774
67856867 119 18341603849908366569
70251023 43 18263368005950756675
7164475 11 18271805675336382929
7364860 26 18412826897873434016
7615 1 17988937630172371705
81228 2 17617394887531331450
81539 233 18263083386899891788
90127 26 18040155094308957273
9709674 26 18410291415454355083
9841814 1 18115017520485918586
9971528 1 18199462178004512882
9981440 41 18121776403003078688

>  <PUBCHEM_SHAPE_MULTIPOLES>  (1) 
449.6
9.24
3.67
1.38
13.93
0.67
0.05
-1.03
1.28
-6.26
0.78
-0.4
0.03
-0.39

>  <PUBCHEM_SHAPE_SELFOVERLAP>  (1) 
927.398

>  <PUBCHEM_SHAPE_VOLUME>  (1) 
262.1

>  <PUBCHEM_COORDINATE_TYPE>  (1) 
2
5
10

$$$$
