23648
     RDKit          3D

 23 27  0  0  1  0  0  0  0  0999 V2000
    3.4851    1.1733   -0.6254 O   0  0  0  0  0  0  0  0  0  0  0  0
    4.5718   -0.4253    0.7752 O   0  0  0  0  0  0  0  0  0  0  0  0
   -0.2030   -1.7327   -0.2993 O   0  0  0  0  0  0  0  0  0  0  0  0
   -0.8604    3.1018   -0.1264 O   0  0  0  0  0  0  0  0  0  0  0  0
   -4.6151   -1.8028    0.1664 O   0  0  0  0  0  0  0  0  0  0  0  0
   -1.9760   -3.1843   -0.1539 O   0  0  0  0  0  0  0  0  0  0  0  0
    2.7510   -1.1558   -0.6139 C   0  0  0  0  0  0  0  0  0  0  0  0
    3.9416   -0.1932   -0.4992 C   0  0  0  0  0  0  0  0  0  0  0  0
    1.6352   -0.1936   -0.4376 C   0  0  0  0  0  0  0  0  0  0  0  0
    2.9842   -2.1398    0.5088 C   0  0  0  0  0  0  0  0  0  0  0  0
    2.1255    1.1003   -0.4751 C   0  0  0  0  0  0  0  0  0  0  0  0
    3.7550   -1.3283    1.5276 C   0  0  0  0  0  0  0  0  0  0  0  0
    0.2742   -0.4037   -0.3046 C   0  0  0  0  0  0  0  0  0  0  0  0
   -0.6017    0.6845   -0.1913 C   0  0  0  0  0  0  0  0  0  0  0  0
   -2.0208    0.3951   -0.0483 C   0  0  0  0  0  0  0  0  0  0  0  0
    1.2970    2.2036   -0.3751 C   0  0  0  0  0  0  0  0  0  0  0  0
   -0.0775    1.9893   -0.2271 C   0  0  0  0  0  0  0  0  0  0  0  0
   -3.0973    1.4207    0.0919 C   0  0  0  0  0  0  0  0  0  0  0  0
   -2.4357   -0.8723   -0.0381 C   0  0  0  0  0  0  0  0  0  0  0  0
   -4.3829    0.6035    0.2074 C   0  0  0  0  0  0  0  0  0  0  0  0
   -3.8963   -0.8162    0.1179 C   0  0  0  0  0  0  0  0  0  0  0  0
   -1.5574   -2.0338   -0.1643 C   0  0  0  0  0  0  0  0  0  0  0  0
   -1.0965    3.6096    1.1844 C   0  0  0  0  0  0  0  0  0  0  0  0
  1  8  1  0
  1 11  1  0
  2  8  1  0
  2 12  1  0
  3 13  1  0
  3 22  1  0
  4 17  1  0
  4 23  1  0
  5 21  2  0
  6 22  2  0
  7  8  1  0
  7  9  1  0
  7 10  1  0
  9 11  2  0
  9 13  1  0
 10 12  1  0
 11 16  1  0
 13 14  2  0
 14 15  1  0
 14 17  1  0
 15 18  1  0
 15 19  2  0
 16 17  2  0
 18 20  1  0
 19 21  1  0
 19 22  1  0
 20 21  1  0
M  END
>  <PUBCHEM_COMPOUND_CID>  (1) 
23648

>  <PUBCHEM_CONFORMER_RMSD>  (1) 
0.6

>  <PUBCHEM_CONFORMER_DIVERSEORDER>  (1) 
1
2
3

>  <PUBCHEM_MMFF94_PARTIAL_CHARGES>  (1) 
23
1 -0.36
11 0.08
12 0.28
13 0.08
14 0.03
15 -0.17
16 -0.15
17 0.08
18 0.14
19 0.03
2 -0.56
20 0.06
21 0.49
22 0.71
23 0.28
3 -0.23
30 0.15
4 -0.36
5 -0.57
6 -0.57
7 0.14
8 0.56
9 -0.14

>  <PUBCHEM_EFFECTIVE_ROTOR_COUNT>  (1) 
2.2

>  <PUBCHEM_PHARMACOPHORE_FEATURES>  (1) 
11
1 1 acceptor
1 19 anion
1 2 acceptor
1 4 acceptor
1 5 acceptor
1 6 acceptor
5 1 7 8 9 11 rings
5 15 18 19 20 21 rings
5 2 7 8 10 12 rings
6 3 13 14 15 19 22 rings
6 9 11 13 14 16 17 rings

>  <PUBCHEM_HEAVY_ATOM_COUNT>  (1) 
23

>  <PUBCHEM_ATOM_DEF_STEREO_COUNT>  (1) 
0

>  <PUBCHEM_ATOM_UDEF_STEREO_COUNT>  (1) 
2

>  <PUBCHEM_BOND_DEF_STEREO_COUNT>  (1) 
0

>  <PUBCHEM_BOND_UDEF_STEREO_COUNT>  (1) 
0

>  <PUBCHEM_ISOTOPIC_ATOM_COUNT>  (1) 
0

>  <PUBCHEM_COMPONENT_COUNT>  (1) 
1

>  <PUBCHEM_CACTVS_TAUTO_COUNT>  (1) 
10

>  <PUBCHEM_CONFORMER_ID>  (1) 
00005C6000000001

>  <PUBCHEM_MMFF94_ENERGY>  (1) 
81.4289

>  <PUBCHEM_FEATURE_SELFOVERLAP>  (1) 
56.639

>  <PUBCHEM_SHAPE_FINGERPRINT>  (1) 
10062212 137 18411697695179023271
10319926 262 18125981808132149338
10616163 171 18338242685828181454
10759866 29 18113629979845604188
10967382 1 18339084911829451197
1100329 8 18337955704650097547
11132069 177 18271526403329157255
12236239 1 17967535658245058142
12293681 160 17762368063802278604
12422481 6 17906476337143818441
12553582 1 18412261761449440862
12788726 201 18340496586081133128
13140716 1 18339357577912763666
13583140 156 14404905734987077445
138480 1 15456216628507013613
14022347 108 18266767742684399478
14081887 123 18270384036881725048
14178342 30 17979350859525072128
14223421 5 18340765949534645604
14790565 3 18196104256914922857
15196674 1 18410015450624948317
15375462 189 18187082866739309818
15442244 35 18409730689929762359
16752209 62 18267029353669429028
16945 1 18339929225248754020
17349148 13 18201434809365467711
17492 89 18335984155864313202
1813 80 17312818269408930774
19591789 44 18265900159448830263
20028762 73 18130226085955843471
20510252 161 18200312091760346600
20715895 44 17973435504306327461
21029758 11 18341891918187416797
21197605 99 13580479259904439738
21267235 1 18337120028816696094
21421861 104 18041554733592453042
23184049 29 18410292471936896316
2334 1 18195249046819821894
23366157 5 17899975237867457485
23402539 116 18272081687108918343
23463225 33 18408606963154909382
23557571 272 18272660034546450006
23559900 14 18199473156252054310
3004659 81 18187085048603697854
3084891 72 18340484461551759295
3091708 16 9064873596037139241
335352 9 18337956692962061437
34934 24 18339360880789983164
350125 39 18410299125416399977
352729 6 18123473769614918837
3680242 22 18263933129210370771
474 4 17315084487470377732
5104073 3 18410579521923556681
58807428 26 17762621685567064056
7364860 26 17981891053302313165
7471813 234 17625799923201451639
81228 2 18266475221152075408
9709674 26 18411991268556939190

>  <PUBCHEM_SHAPE_MULTIPOLES>  (1) 
438.11
7.89
3.36
0.89
0.47
1.34
0.23
-3.1
1.24
-1.64
0.52
0.64
0.09
-0.85

>  <PUBCHEM_SHAPE_SELFOVERLAP>  (1) 
1001.332

>  <PUBCHEM_SHAPE_VOLUME>  (1) 
228.7

>  <PUBCHEM_COORDINATE_TYPE>  (1) 
2
5
10

$$$$
