23654
     RDKit          3D

 11 11  0  0  0  0  0  0  0  0999 V2000
    2.7746   -0.1315    0.0811 N   0  0  0  0  0  0  0  0  0  0  0  0
    0.7232    0.1629   -0.6677 N   0  0  0  0  0  0  0  0  0  0  0  0
    1.4246   -0.1760    0.3103 N   0  0  0  0  0  0  0  0  0  0  0  0
   -0.6323    0.0854   -0.3330 C   0  0  0  0  0  0  0  0  0  0  0  0
   -1.2804    1.1941    0.2118 C   0  0  0  0  0  0  0  0  0  0  0  0
   -1.3363   -1.1004   -0.5430 C   0  0  0  0  0  0  0  0  0  0  0  0
   -2.6323    1.1170    0.5466 C   0  0  0  0  0  0  0  0  0  0  0  0
   -2.6883   -1.1774   -0.2083 C   0  0  0  0  0  0  0  0  0  0  0  0
    3.3771    0.8073   -0.8496 C   0  0  0  0  0  0  0  0  0  0  0  0
    3.6064   -0.7127    1.1152 C   0  0  0  0  0  0  0  0  0  0  0  0
   -3.3362   -0.0687    0.3366 C   0  0  0  0  0  0  0  0  0  0  0  0
  1  3  1  0
  1  9  1  0
  1 10  1  0
  2  3  2  0
  2  4  1  0
  4  5  2  0
  4  6  1  0
  5  7  1  0
  6  8  2  0
  7 11  2  0
  8 11  1  0
M  END
>  <PUBCHEM_COMPOUND_CID>  (1) 
23654

>  <PUBCHEM_CONFORMER_RMSD>  (1) 
0.4

>  <PUBCHEM_CONFORMER_DIVERSEORDER>  (1) 
1
2
3

>  <PUBCHEM_MMFF94_PARTIAL_CHARGES>  (1) 
16
1 -0.54
10 0.3
11 -0.15
12 0.15
13 0.15
2 -0.18
20 0.15
21 0.15
22 0.15
3 -0.06
4 0.18
5 -0.15
6 -0.15
7 -0.15
8 -0.15
9 0.3

>  <PUBCHEM_EFFECTIVE_ROTOR_COUNT>  (1) 
2

>  <PUBCHEM_PHARMACOPHORE_FEATURES>  (1) 
1
6 4 5 6 7 8 11 rings

>  <PUBCHEM_HEAVY_ATOM_COUNT>  (1) 
11

>  <PUBCHEM_ATOM_DEF_STEREO_COUNT>  (1) 
0

>  <PUBCHEM_ATOM_UDEF_STEREO_COUNT>  (1) 
0

>  <PUBCHEM_BOND_DEF_STEREO_COUNT>  (1) 
0

>  <PUBCHEM_BOND_UDEF_STEREO_COUNT>  (1) 
0

>  <PUBCHEM_ISOTOPIC_ATOM_COUNT>  (1) 
0

>  <PUBCHEM_COMPONENT_COUNT>  (1) 
1

>  <PUBCHEM_CACTVS_TAUTO_COUNT>  (1) 
1

>  <PUBCHEM_CONFORMER_ID>  (1) 
00005C6600000001

>  <PUBCHEM_MMFF94_ENERGY>  (1) 
30.5022

>  <PUBCHEM_FEATURE_SELFOVERLAP>  (1) 
5.074

>  <PUBCHEM_SHAPE_FINGERPRINT>  (1) 
10857977 72 17988923396560873601
11062470 55 17095524006630154693
12932764 1 18113054930816374516
13024252 1 15647052651601843189
13296908 3 15068340111958147170
14144814 61 18410294713693455880
14325111 11 18341898471795658108
15669948 3 18271525406870591966
190213 19 18260827098723893946
19422 9 18260831496791679546
20279233 1 16774076267606772134
20645464 45 17060334123913691463
20645477 70 16878209905698489594
20715346 28 16630525159013224540
20871998 184 17917435388428043855
21061003 4 15285368292559257925
23402539 116 18059563690699935765
23552423 10 18048318044099581965
3248919 1 18342171155143190574
369184 2 17821446859186237501

>  <PUBCHEM_SHAPE_MULTIPOLES>  (1) 
211.43
6.55
1.23
0.91
4.34
0.03
0.06
-0.26
1.01
-0.61
0
0.55
-0.03
-0.83

>  <PUBCHEM_SHAPE_SELFOVERLAP>  (1) 
425.997

>  <PUBCHEM_SHAPE_VOLUME>  (1) 
125.8

>  <PUBCHEM_COORDINATE_TYPE>  (1) 
2
5
10

$$$$
