23669
     RDKit          3D

 19 21  0  0  0  0  0  0  0  0999 V2000
   -0.7773   -0.3713    0.4526 N   0  0  0  0  0  0  0  0  0  0  0  0
    2.0365   -0.1188    0.0305 N   0  0  0  0  0  0  0  0  0  0  0  0
   -4.9684    0.6348   -1.1453 N   0  0  0  0  0  0  0  0  0  0  0  0
   -5.3580   -0.2100    0.9191 N   0  0  0  0  0  0  0  0  0  0  0  0
   -6.2325    0.2346   -0.9486 N   0  0  0  0  0  0  0  0  0  0  0  0
   -6.5087   -0.2732    0.2606 N   0  0  0  0  0  0  0  0  0  0  0  0
   -0.2379    0.7675   -0.3003 C   0  0  0  0  0  0  0  0  0  0  0  0
    0.0475   -1.5625    0.2153 C   0  0  0  0  0  0  0  0  0  0  0  0
    1.1980    1.0799    0.1279 C   0  0  0  0  0  0  0  0  0  0  0  0
    1.4924   -1.3276    0.6618 C   0  0  0  0  0  0  0  0  0  0  0  0
   -2.1665   -0.6257    0.0732 C   0  0  0  0  0  0  0  0  0  0  0  0
    3.4274    0.0118   -0.0501 C   0  0  0  0  0  0  0  0  0  0  0  0
   -3.0564    0.5757    0.4025 C   0  0  0  0  0  0  0  0  0  0  0  0
    4.0910    1.0972    0.5562 C   0  0  0  0  0  0  0  0  0  0  0  0
    4.2066   -0.9382   -0.7403 C   0  0  0  0  0  0  0  0  0  0  0  0
   -4.4925    0.3309    0.0440 C   0  0  0  0  0  0  0  0  0  0  0  0
    5.4774    1.2275    0.4752 C   0  0  0  0  0  0  0  0  0  0  0  0
    5.5930   -0.8079   -0.8211 C   0  0  0  0  0  0  0  0  0  0  0  0
    6.2284    0.2751   -0.2133 C   0  0  0  0  0  0  0  0  0  0  0  0
  1  7  1  0
  1  8  1  0
  1 11  1  0
  2  9  1  0
  2 10  1  0
  2 12  1  0
  3  5  1  0
  3 16  2  0
  4  6  2  0
  4 16  1  0
  5  6  1  0
  7  9  1  0
  8 10  1  0
 11 13  1  0
 12 14  2  0
 12 15  1  0
 13 16  1  0
 14 17  1  0
 15 18  2  0
 17 19  2  0
 18 19  1  0
M  END
>  <PUBCHEM_COMPOUND_CID>  (1) 
23669

>  <PUBCHEM_CONFORMER_RMSD>  (1) 
0.8

>  <PUBCHEM_CONFORMER_DIVERSEORDER>  (1) 
1
15
11
7
8
9
2
3
10
16
14
12
13
6
5
4
17

>  <PUBCHEM_MMFF94_PARTIAL_CHARGES>  (1) 
25
1 -0.81
10 0.37
11 0.27
12 0.1
13 0.18
14 -0.15
15 -0.15
16 0.34
17 -0.15
18 -0.15
19 -0.15
2 -0.84
3 -0.71
32 0.15
33 0.15
34 0.15
35 0.15
36 0.15
37 0.27
4 -0.23
5 0.57
6 -0.42
7 0.27
8 0.27
9 0.37

>  <PUBCHEM_EFFECTIVE_ROTOR_COUNT>  (1) 
5.2

>  <PUBCHEM_PHARMACOPHORE_FEATURES>  (1) 
6
1 1 cation
1 2 cation
3 3 4 16 cation
5 3 4 5 6 16 rings
6 1 2 7 8 9 10 rings
6 12 14 15 17 18 19 rings

>  <PUBCHEM_HEAVY_ATOM_COUNT>  (1) 
19

>  <PUBCHEM_ATOM_DEF_STEREO_COUNT>  (1) 
0

>  <PUBCHEM_ATOM_UDEF_STEREO_COUNT>  (1) 
0

>  <PUBCHEM_BOND_DEF_STEREO_COUNT>  (1) 
0

>  <PUBCHEM_BOND_UDEF_STEREO_COUNT>  (1) 
0

>  <PUBCHEM_ISOTOPIC_ATOM_COUNT>  (1) 
0

>  <PUBCHEM_COMPONENT_COUNT>  (1) 
1

>  <PUBCHEM_CACTVS_TAUTO_COUNT>  (1) 
2

>  <PUBCHEM_CONFORMER_ID>  (1) 
00005C7500000001

>  <PUBCHEM_MMFF94_ENERGY>  (1) 
47.5593

>  <PUBCHEM_FEATURE_SELFOVERLAP>  (1) 
30.451

>  <PUBCHEM_SHAPE_FINGERPRINT>  (1) 
10299344 5 16558751222180535239
10354089 29 16732983133094469700
11646440 116 18410302423197130705
12091667 2 16877946044851631849
12166972 35 17346880069721641777
12236239 1 17632579340399689201
12730499 353 18410860949613915514
12916748 109 18409731750971359256
13533116 47 17275108293557960846
1420 363 18410298008017755041
14251764 18 18202847639421573512
14251764 46 17989487420039789072
15048467 5 14490194916420356124
15183329 4 17775566433481848174
17834072 33 17561361785840185500
17834072 8 18411141337905358366
17834076 25 18409448089560713816
19489759 90 16443063894382442285
200 152 17346882234310805016
20157964 124 18131633400766719816
20281389 69 17603300457953599084
20645477 70 17917717847258142454
21150785 3 17703785955123569503
21236236 1 18200597999544636177
220451 1 16128658548245260439
221357 26 18131631171167542800
22224240 67 12324244996876714408
23035841 295 16343703236061497303
23198884 109 17132117948647436795
23402539 116 18202279233931407902
23536379 177 16773801380766989035
23559900 14 17916861438941655432
26918003 58 11095879376521731799
29717793 49 16558758910272280244
3014965 18 18261107414429252090
335352 9 18413674609155330166
34797466 226 16415484887009352536
3545911 37 18335140899433713419
4072396 5 17894619349783505290
42788 4 18201721747218558921
4340502 62 16225764112501990290
465052 167 12679463093006684948
542803 24 16988563502716470809
59755656 215 18260269608048913454
59755656 520 17821442486651821307
7495541 125 15502667034603944429

>  <PUBCHEM_SHAPE_MULTIPOLES>  (1) 
361.13
17.02
1.26
0.88
12
0.13
-0.08
-1.95
-2.38
-1.14
0.1
0.32
0.03
0.8

>  <PUBCHEM_SHAPE_SELFOVERLAP>  (1) 
759.806

>  <PUBCHEM_SHAPE_VOLUME>  (1) 
199.1

>  <PUBCHEM_COORDINATE_TYPE>  (1) 
2
5
10

$$$$
