23662
     RDKit          3D

 15 17  0  0  1  0  0  0  0  0999 V2000
    2.4347   -0.3867    0.7765 N   0  0  0  0  0  0  0  0  0  0  0  0
   -1.2249    1.9474    0.5690 N   0  0  0  0  0  0  0  0  0  0  0  0
    1.5040   -0.3486   -0.3693 C   0  0  0  0  0  0  0  0  0  0  0  0
    2.3001    0.3346   -1.4966 C   0  0  0  0  0  0  0  0  0  0  0  0
    3.6854    0.5781   -0.9144 C   0  0  0  0  0  0  0  0  0  0  0  0
    3.7832   -0.4323    0.2108 C   0  0  0  0  0  0  0  0  0  0  0  0
    0.2115    0.3719   -0.0476 C   0  0  0  0  0  0  0  0  0  0  0  0
   -1.1035   -0.1618   -0.1479 C   0  0  0  0  0  0  0  0  0  0  0  0
    2.1831   -1.4988    1.6841 C   0  0  0  0  0  0  0  0  0  0  0  0
    0.1045    1.6698    0.3953 C   0  0  0  0  0  0  0  0  0  0  0  0
   -1.9860    0.8469    0.2449 C   0  0  0  0  0  0  0  0  0  0  0  0
   -1.6298   -1.4099   -0.5364 C   0  0  0  0  0  0  0  0  0  0  0  0
   -3.3738    0.6691    0.2690 C   0  0  0  0  0  0  0  0  0  0  0  0
   -3.0159   -1.6022   -0.5173 C   0  0  0  0  0  0  0  0  0  0  0  0
   -3.8727   -0.5774   -0.1201 C   0  0  0  0  0  0  0  0  0  0  0  0
  1  3  1  0
  1  6  1  0
  1  9  1  0
  2 10  1  0
  2 11  1  0
  3  4  1  0
  3  7  1  0
  4  5  1  0
  5  6  1  0
  7  8  1  0
  7 10  2  0
  8 11  2  0
  8 12  1  0
 11 13  1  0
 12 14  2  0
 13 15  2  0
 14 15  1  0
M  END
>  <PUBCHEM_COMPOUND_CID>  (1) 
23662

>  <PUBCHEM_CONFORMER_RMSD>  (1) 
0.6

>  <PUBCHEM_CONFORMER_DIVERSEORDER>  (1) 
1
2
15
12
3
5
4
11
16
9
7
13
8
14
6
10

>  <PUBCHEM_MMFF94_PARTIAL_CHARGES>  (1) 
18
1 -0.81
10 -0.3
11 -0.15
12 -0.15
13 -0.15
14 -0.15
15 -0.15
2 0.03
26 0.15
27 0.27
28 0.15
29 0.15
3 0.45
30 0.15
31 0.15
6 0.27
7 -0.18
9 0.27

>  <PUBCHEM_EFFECTIVE_ROTOR_COUNT>  (1) 
2

>  <PUBCHEM_PHARMACOPHORE_FEATURES>  (1) 
6
1 1 cation
1 2 cation
1 2 donor
5 1 3 4 5 6 rings
5 2 7 8 10 11 rings
6 8 11 12 13 14 15 rings

>  <PUBCHEM_HEAVY_ATOM_COUNT>  (1) 
15

>  <PUBCHEM_ATOM_DEF_STEREO_COUNT>  (1) 
0

>  <PUBCHEM_ATOM_UDEF_STEREO_COUNT>  (1) 
1

>  <PUBCHEM_BOND_DEF_STEREO_COUNT>  (1) 
0

>  <PUBCHEM_BOND_UDEF_STEREO_COUNT>  (1) 
0

>  <PUBCHEM_ISOTOPIC_ATOM_COUNT>  (1) 
0

>  <PUBCHEM_COMPONENT_COUNT>  (1) 
1

>  <PUBCHEM_CACTVS_TAUTO_COUNT>  (1) 
1

>  <PUBCHEM_CONFORMER_ID>  (1) 
00005C6E00000001

>  <PUBCHEM_MMFF94_ENERGY>  (1) 
25.7683

>  <PUBCHEM_FEATURE_SELFOVERLAP>  (1) 
30.538

>  <PUBCHEM_SHAPE_FINGERPRINT>  (1) 
10465860 71 18200049433040628196
11132069 177 18202283593407537669
11543360 7 16733263572931574487
11578080 2 17971441140173595172
12236239 1 18259706692322874598
12553582 1 18341890839997891519
12670545 47 16486964124475994827
12932764 1 18334011687727335765
13221675 6 18411703192288749659
13296908 3 18059572528861662535
13538477 17 18409165489402759438
13581323 91 18343016666694773406
13760787 19 18114184137900795327
14115302 16 18041565835513226503
14144814 61 18413108355395962355
15279307 12 18187366527823121978
15375462 189 18334295379081075939
15669948 3 18341891891974501407
16752209 62 18341603777305203789
16945 1 18201439143034766441
17804303 29 18060421348023379817
17844478 74 16487259846138937832
18175812 5 16988841696021753780
18186145 218 14201392759709559653
19049666 15 16629413419428940472
19422 9 18334296444074819946
19786989 88 16009043816399488406
200 152 17821726130786631522
20279233 1 17132115731890385318
204376 136 16951139507452478292
20510252 161 17917716738602744105
20645476 183 18114185267477447751
20645477 70 16878214286354109011
21639500 275 16806178785886128932
22445834 79 18115866300375660418
228727 97 18334867129454141376
232386 152 18341328980575526575
23402539 116 18342454846565593238
23463225 33 18336543815777320339
23552423 10 18120372313985660597
23557571 272 17846225432150931136
23559900 14 17988087686435818796
23598291 2 17970073240481288068
2748010 2 18128244791512963389
3312278 4 18334580174088754571
474 4 17751368506675618476
57096353 35 18260835933566587318
5902787 121 18270958067629197515
603831 33 18260547827054830676
7364860 26 17700411661286357297
77492 1 18187367610159544462
81228 2 18058746705635746177

>  <PUBCHEM_SHAPE_MULTIPOLES>  (1) 
298.73
6.75
1.64
1.13
0.48
0.11
0.07
-1.23
-0.63
-0.65
0.33
0.9
-0.22
-1.09

>  <PUBCHEM_SHAPE_SELFOVERLAP>  (1) 
650.348

>  <PUBCHEM_SHAPE_VOLUME>  (1) 
166.5

>  <PUBCHEM_COORDINATE_TYPE>  (1) 
2
5
10

$$$$
