23666
     RDKit          3D

 22 22  0  0  0  0  0  0  0  0999 V2000
   -0.1230    0.9659    1.0614 O   0  0  0  0  0  0  0  0  0  0  0  0
   -1.4415   -1.2311    1.6259 O   0  0  0  0  0  0  0  0  0  0  0  0
    3.2587   -0.3311    0.3969 N   0  0  0  0  0  0  0  0  0  0  0  0
   -0.4321    3.6091    0.1960 N   0  0  0  0  0  0  0  0  0  0  0  0
    3.6995    0.6649   -0.5827 C   0  0  0  0  0  0  0  0  0  0  0  0
    2.9062   -1.5825   -0.2783 C   0  0  0  0  0  0  0  0  0  0  0  0
    2.1332    0.1710    1.1710 C   0  0  0  0  0  0  0  0  0  0  0  0
    4.0705    1.9568    0.1384 C   0  0  0  0  0  0  0  0  0  0  0  0
    4.8793    0.1284   -1.3884 C   0  0  0  0  0  0  0  0  0  0  0  0
    1.7306   -1.3596   -1.2254 C   0  0  0  0  0  0  0  0  0  0  0  0
    2.5760   -2.6463    0.7639 C   0  0  0  0  0  0  0  0  0  0  0  0
    0.9587    0.4955    0.2617 C   0  0  0  0  0  0  0  0  0  0  0  0
   -1.2650    1.3262    0.4063 C   0  0  0  0  0  0  0  0  0  0  0  0
   -2.2675    0.4145    0.1633 C   0  0  0  0  0  0  0  0  0  0  0  0
   -1.4337    2.6400   -0.0312 C   0  0  0  0  0  0  0  0  0  0  0  0
   -2.1099   -0.9974    0.6216 C   0  0  0  0  0  0  0  0  0  0  0  0
   -2.7863   -2.1034   -0.1742 C   0  0  0  0  0  0  0  0  0  0  0  0
   -3.4308    0.7480   -0.4951 C   0  0  0  0  0  0  0  0  0  0  0  0
   -2.0257   -3.4266   -0.0859 C   0  0  0  0  0  0  0  0  0  0  0  0
   -2.6010    3.0077   -0.7006 C   0  0  0  0  0  0  0  0  0  0  0  0
   -3.5995    2.0616   -0.9324 C   0  0  0  0  0  0  0  0  0  0  0  0
   -2.6967   -4.5115   -0.9123 C   0  0  0  0  0  0  0  0  0  0  0  0
  1 12  1  0
  1 13  1  0
  2 16  2  0
  3  5  1  0
  3  6  1  0
  3  7  1  0
  4 15  1  0
  5  8  1  0
  5  9  1  0
  6 10  1  0
  6 11  1  0
  7 12  1  0
 13 14  2  0
 13 15  1  0
 14 16  1  0
 14 18  1  0
 15 20  2  0
 16 17  1  0
 17 19  1  0
 18 21  2  0
 19 22  1  0
 20 21  1  0
M  END
>  <PUBCHEM_COMPOUND_CID>  (1) 
23666

>  <PUBCHEM_CONFORMER_RMSD>  (1) 
0.8

>  <PUBCHEM_CONFORMER_DIVERSEORDER>  (1) 
1
28
55
35
17
37
24
3
45
25
21
13
29
22
50
47
12
15
52
23
20
19
53
30
10
14
34
26
18
4
9
43
33
49
32
2
44
41
42
46
7
40
27
16
8
54
39
51
36
11
5
48
6
31
38

>  <PUBCHEM_MMFF94_PARTIAL_CHARGES>  (1) 
21
1 -0.36
12 0.28
13 0.08
14 0.09
15 0.1
16 0.42
17 0.06
18 -0.15
2 -0.57
20 -0.15
21 -0.15
3 -0.81
4 -0.9
43 0.15
46 0.15
47 0.15
5 0.27
51 0.4
52 0.4
6 0.27
7 0.27

>  <PUBCHEM_EFFECTIVE_ROTOR_COUNT>  (1) 
9

>  <PUBCHEM_PHARMACOPHORE_FEATURES>  (1) 
9
1 1 acceptor
1 2 acceptor
1 22 hydrophobe
1 3 cation
1 4 cation
1 4 donor
3 5 8 9 hydrophobe
3 6 10 11 hydrophobe
6 13 14 15 18 20 21 rings

>  <PUBCHEM_HEAVY_ATOM_COUNT>  (1) 
22

>  <PUBCHEM_ATOM_DEF_STEREO_COUNT>  (1) 
0

>  <PUBCHEM_ATOM_UDEF_STEREO_COUNT>  (1) 
0

>  <PUBCHEM_BOND_DEF_STEREO_COUNT>  (1) 
0

>  <PUBCHEM_BOND_UDEF_STEREO_COUNT>  (1) 
0

>  <PUBCHEM_ISOTOPIC_ATOM_COUNT>  (1) 
0

>  <PUBCHEM_COMPONENT_COUNT>  (1) 
1

>  <PUBCHEM_CACTVS_TAUTO_COUNT>  (1) 
2

>  <PUBCHEM_CONFORMER_ID>  (1) 
00005C7200000001

>  <PUBCHEM_MMFF94_ENERGY>  (1) 
104.8026

>  <PUBCHEM_FEATURE_SELFOVERLAP>  (1) 
45.68

>  <PUBCHEM_SHAPE_FINGERPRINT>  (1) 
10498660 4 18410575115107768700
10616163 171 18410577288234678342
10759866 29 18261960652626818830
11370993 70 18193270784857027566
11640471 11 17458633263463932244
12173636 292 18192705644671297589
12500047 106 18336264535755459092
12553582 1 18192427700284213835
12788726 201 18261385689539140075
13034934 17 17770761705572034376
14790565 3 18196093244835027873
17357779 13 17985533696770715175
19591789 44 18339072680427178459
19930381 70 17690278210179483245
20775438 99 17694456646612869021
20871999 31 18408601474661614589
22113638 7 17760915256432804122
22393880 68 18410580578728175582
23557571 272 18336277807156989444
23559900 14 18195519308196059490
2871803 45 18268428121412588902
352729 6 18121778318700689755
4280585 95 17906437080657234274
9709674 26 18341050705534015710

>  <PUBCHEM_SHAPE_MULTIPOLES>  (1) 
431.05
7.82
4.8
1.16
6.68
2.79
-0.01
-0.42
2.36
-5.03
0.89
0.35
0.23
0.07

>  <PUBCHEM_SHAPE_SELFOVERLAP>  (1) 
872.016

>  <PUBCHEM_SHAPE_VOLUME>  (1) 
254.2

>  <PUBCHEM_COORDINATE_TYPE>  (1) 
2
5
10

$$$$
