23688
     RDKit          3D

 12 11  0  0  0  0  0  0  0  0999 V2000
   -1.0807    0.6414   -0.1229 O   0  0  0  0  0  0  0  0  0  0  0  0
    1.6614    0.2622    0.2855 O   0  0  0  0  0  0  0  0  0  0  0  0
    3.6548    0.6868   -0.8035 O   0  0  0  0  0  0  0  0  0  0  0  0
   -3.2297   -0.4086   -0.2373 C   0  0  0  0  0  0  0  0  0  0  0  0
   -4.6810   -0.3688    0.2325 C   0  0  0  0  0  0  0  0  0  0  0  0
   -2.4129    0.7263    0.3641 C   0  0  0  0  0  0  0  0  0  0  0  0
   -0.2648    1.6787    0.4047 C   0  0  0  0  0  0  0  0  0  0  0  0
   -5.5033   -1.4778   -0.4039 C   0  0  0  0  0  0  0  0  0  0  0  0
    1.1450    1.5203   -0.1312 C   0  0  0  0  0  0  0  0  0  0  0  0
    2.9309   -0.0235   -0.1240 C   0  0  0  0  0  0  0  0  0  0  0  0
    3.2890   -1.3584    0.3987 C   0  0  0  0  0  0  0  0  0  0  0  0
    4.4914   -1.8788    0.1373 C   0  0  0  0  0  0  0  0  0  0  0  0
  1  6  1  0
  1  7  1  0
  2  9  1  0
  2 10  1  0
  3 10  2  0
  4  5  1  0
  4  6  1  0
  5  8  1  0
  7  9  1  0
 10 11  1  0
 11 12  2  0
M  END
>  <PUBCHEM_COMPOUND_CID>  (1) 
23688

>  <PUBCHEM_CONFORMER_RMSD>  (1) 
0.8

>  <PUBCHEM_CONFORMER_DIVERSEORDER>  (1) 
1
82
123
183
25
155
202
156
106
180
6
130
186
212
102
172
210
27
22
137
182
117
10
12
55
74
140
94
181
145
122
2
58
18
179
71
3
44
154
38
112
110
4
157
86
89
203
32
160
191
66
87
24
211
142
101
26
51
108
173
148
194
96
56
175
169
189
205
192
47
208
209
78
84
39
197
13
127
170
149
92
28
190
83
164
114
45
36
61
146
90
138
144
21
178
70
11
50
118
31
34
139
207
165
162
120
131
126
91
200
95
121
5
64
46
166
65
75
29
174
185
158
135
188
195
67
199
37
143
129
97
60
124
42
213
115
99
8
206
136
98
17
16
104
76
171
100
43
193
141
109
33
35
150
161
59
73
23
214
9
20
153
167
196
132
134
81
201
15
147
119
184
19
177
93
63
125
85
77
52
54
48
113
204
163
14
159
133
57
103
152
111
80
176
79
30
40
68
107
198
128
88
151
62
69
41
53
49
7
168
187
72
116
105

>  <PUBCHEM_MMFF94_PARTIAL_CHARGES>  (1) 
12
1 -0.56
10 0.71
11 -0.14
12 -0.3
2 -0.43
26 0.15
27 0.15
28 0.15
3 -0.57
6 0.28
7 0.28
9 0.28

>  <PUBCHEM_EFFECTIVE_ROTOR_COUNT>  (1) 
8

>  <PUBCHEM_PHARMACOPHORE_FEATURES>  (1) 
4
1 1 acceptor
1 12 hydrophobe
1 3 acceptor
1 8 hydrophobe

>  <PUBCHEM_HEAVY_ATOM_COUNT>  (1) 
12

>  <PUBCHEM_ATOM_DEF_STEREO_COUNT>  (1) 
0

>  <PUBCHEM_ATOM_UDEF_STEREO_COUNT>  (1) 
0

>  <PUBCHEM_BOND_DEF_STEREO_COUNT>  (1) 
0

>  <PUBCHEM_BOND_UDEF_STEREO_COUNT>  (1) 
0

>  <PUBCHEM_ISOTOPIC_ATOM_COUNT>  (1) 
0

>  <PUBCHEM_COMPONENT_COUNT>  (1) 
1

>  <PUBCHEM_CACTVS_TAUTO_COUNT>  (1) 
1

>  <PUBCHEM_CONFORMER_ID>  (1) 
00005C8800000001

>  <PUBCHEM_MMFF94_ENERGY>  (1) 
13.2158

>  <PUBCHEM_FEATURE_SELFOVERLAP>  (1) 
20.297

>  <PUBCHEM_SHAPE_FINGERPRINT>  (1) 
100836 57 9655571937398628402
122479 349 10087630516138002685
12555020 224 18337943580928716103
13690532 89 18411136939832466883
13955234 65 18053946435675028241
14123255 352 10087643684971910627
14123260 362 11891333110866615623
1420 369 18342739589527515350
14251710 61 18411136905071931811
14252887 29 17632587049607470764
14455015 7 18187372073369309987
14576447 43 18335707126684395982
15342816 4 18411709768126312396
15477762 27 18334015012348599028
177051 138 18411699842509534482
17834072 32 8862649218438271707
20281475 54 18411140216586922465
20605781 2 8646767807327685715
20621476 91 13325992491996980439
20645477 70 18260827120019434331
20671657 53 18410014346950696117
20767249 142 18410292484516193810
21354914 76 18413107260005241523
21499 59 8502376616142848745
22485316 2 18411980269340417913
23403322 49 18409164385939140171
23500284 214 10879981476077213245
270888 7 9078818693728346666
2871803 45 17968093105622706259
351380 3 18343584040274963103
465052 167 18342462581844333023
556388 4 18261669251611799018
59345605 21 18187078447012435403
59345606 38 9007051370712074747
94968 8 18408885144187077042

>  <PUBCHEM_SHAPE_MULTIPOLES>  (1) 
229.35
11.51
1.86
0.71
7.8
0.17
-0.01
8.27
-0.79
-0.9
0.07
-0.07
-0.02
-0.73

>  <PUBCHEM_SHAPE_SELFOVERLAP>  (1) 
422.501

>  <PUBCHEM_SHAPE_VOLUME>  (1) 
144.9

>  <PUBCHEM_COORDINATE_TYPE>  (1) 
2
5
10

$$$$
