23689
     RDKit          3D

 10 10  0  0  0  0  0  0  0  0999 V2000
    0.9063    2.9094   -0.0009 Cl  0  0  0  0  0  0  0  0  0  0  0  0
   -2.1771   -0.9212   -0.0011 O   0  0  0  0  0  0  0  0  0  0  0  0
    0.0862   -1.4024    0.0003 N   0  0  0  0  0  0  0  0  0  0  0  0
   -0.7043    0.8631    0.0013 N   0  0  0  0  0  0  0  0  0  0  0  0
    1.6530    0.4151   -0.0001 N   0  0  0  0  0  0  0  0  0  0  0  0
    2.3961   -1.8091   -0.0004 N   0  0  0  0  0  0  0  0  0  0  0  0
   -0.8784   -0.4683    0.0010 C   0  0  0  0  0  0  0  0  0  0  0  0
    1.3264   -0.8874   -0.0002 C   0  0  0  0  0  0  0  0  0  0  0  0
    0.5869    1.2315    0.0006 C   0  0  0  0  0  0  0  0  0  0  0  0
   -3.1950    0.0694   -0.0004 C   0  0  0  0  0  0  0  0  0  0  0  0
  1  9  1  0
  2  7  1  0
  2 10  1  0
  3  7  2  0
  3  8  1  0
  4  7  1  0
  4  9  2  0
  5  8  2  0
  5  9  1  0
  6  8  1  0
M  END
>  <PUBCHEM_COMPOUND_CID>  (1) 
23689

>  <PUBCHEM_CONFORMER_RMSD>  (1) 
0.4

>  <PUBCHEM_CONFORMER_DIVERSEORDER>  (1) 
1
2

>  <PUBCHEM_MMFF94_PARTIAL_CHARGES>  (1) 
12
1 -0.18
10 0.28
14 0.4
15 0.4
2 -0.36
3 -0.62
4 -0.62
5 -0.62
6 -0.9
7 0.7
8 0.72
9 0.8

>  <PUBCHEM_EFFECTIVE_ROTOR_COUNT>  (1) 
1

>  <PUBCHEM_PHARMACOPHORE_FEATURES>  (1) 
3
1 6 donor
4 3 5 6 8 cation
6 3 4 5 7 8 9 rings

>  <PUBCHEM_HEAVY_ATOM_COUNT>  (1) 
10

>  <PUBCHEM_ATOM_DEF_STEREO_COUNT>  (1) 
0

>  <PUBCHEM_ATOM_UDEF_STEREO_COUNT>  (1) 
0

>  <PUBCHEM_BOND_DEF_STEREO_COUNT>  (1) 
0

>  <PUBCHEM_BOND_UDEF_STEREO_COUNT>  (1) 
0

>  <PUBCHEM_ISOTOPIC_ATOM_COUNT>  (1) 
0

>  <PUBCHEM_COMPONENT_COUNT>  (1) 
1

>  <PUBCHEM_CACTVS_TAUTO_COUNT>  (1) 
4

>  <PUBCHEM_CONFORMER_ID>  (1) 
00005C8900000001

>  <PUBCHEM_MMFF94_ENERGY>  (1) 
27.4375

>  <PUBCHEM_FEATURE_SELFOVERLAP>  (1) 
15.223

>  <PUBCHEM_SHAPE_FINGERPRINT>  (1) 
1 1 18122343742180928412
16945 1 18338517563671256517
193761 8 17978511167411737638
21040471 1 17545883088725140448
23552423 10 18267584791751436295
241688 4 18194684769811281032
2748010 2 18339353046595685300
29004967 10 18408324393051358427

>  <PUBCHEM_SHAPE_MULTIPOLES>  (1) 
181.87
3.32
2.48
0.58
2.84
1.34
0
-0.52
0
-2
0
0
0.04
0

>  <PUBCHEM_SHAPE_SELFOVERLAP>  (1) 
363.237

>  <PUBCHEM_SHAPE_VOLUME>  (1) 
108

>  <PUBCHEM_COORDINATE_TYPE>  (1) 
2
5
10

$$$$
