23680
     RDKit          3D

 16 15  0  0  0  0  0  0  0  0999 V2000
    6.6948    2.1489    0.0335 I   0  0  0  0  0  0  0  0  0  0  0  0
   -6.6687    2.2183   -0.0258 I   0  0  0  0  0  0  0  0  0  0  0  0
    2.9741    0.1481    0.5214 O   0  0  0  0  0  0  0  0  0  0  0  0
   -3.3541   -0.4280    0.2807 O   0  0  0  0  0  0  0  0  0  0  0  0
    4.4777    0.2671   -1.2182 O   0  0  0  0  0  0  0  0  0  0  0  0
   -3.6709    1.5731   -0.8131 O   0  0  0  0  0  0  0  0  0  0  0  0
   -0.0072   -1.8902   -0.2148 N   0  0  0  0  0  0  0  0  0  0  0  0
    0.9012   -1.0448    0.5589 C   0  0  0  0  0  0  0  0  0  0  0  0
   -1.3738   -1.7695    0.2917 C   0  0  0  0  0  0  0  0  0  0  0  0
    2.1299   -0.6856   -0.2615 C   0  0  0  0  0  0  0  0  0  0  0  0
   -2.0257   -0.4952   -0.2209 C   0  0  0  0  0  0  0  0  0  0  0  0
    0.4321   -3.2845   -0.1731 C   0  0  0  0  0  0  0  0  0  0  0  0
    4.1368    0.5633   -0.0821 C   0  0  0  0  0  0  0  0  0  0  0  0
   -4.0840    0.6740   -0.0948 C   0  0  0  0  0  0  0  0  0  0  0  0
    4.8954    1.4341    0.8922 C   0  0  0  0  0  0  0  0  0  0  0  0
   -5.4575    0.5708    0.5260 C   0  0  0  0  0  0  0  0  0  0  0  0
  1 15  1  0
  2 16  1  0
  3 10  1  0
  3 13  1  0
  4 11  1  0
  4 14  1  0
  5 13  2  0
  6 14  2  0
  7  8  1  0
  7  9  1  0
  7 12  1  0
  8 10  1  0
  9 11  1  0
 13 15  1  0
 14 16  1  0
M  END
>  <PUBCHEM_COMPOUND_CID>  (1) 
23680

>  <PUBCHEM_CONFORMER_RMSD>  (1) 
0.8

>  <PUBCHEM_CONFORMER_DIVERSEORDER>  (1) 
1
122
169
103
161
227
59
212
101
70
148
4
166
244
2
196
327
168
277
60
194
242
9
133
123
32
81
89
34
234
178
295
52
188
177
236
251
181
3
92
73
65
323
225
16
255
22
287
187
8
224
41
61
143
113
56
124
58
233
289
154
261
249
118
304
83
139
298
274
134
150
88
180
12
204
155
254
121
167
87
159
175
273
186
53
105
62
296
145
195
318
217
21
330
174
141
47
131
310
206
307
278
117
193
305
250
269
297
286
216
100
36
248
247
102
210
11
136
317
66
266
158
312
162
185
184
93
292
75
23
126
230
95
209
243
308
252
26
10
211
238
142
231
14
176
268
96
314
265
183
39
223
108
270
240
128
18
50
43
222
262
55
33
198
146
267
140
316
149
325
232
76
302
78
283
25
31
203
71
208
130
80
5
152
110
69
241
313
27
17
282
326
129
137
301
120
116
153
38
157
199
324
20
115
63
237
15
45
228
125
99
42
322
28
264
7
275
253
85
164
190
94
51
285
91
64
30
309
239
189
214
281
46
219
191
74
303
246
29
263
165
329
54
256
44
201
138
90
200
171
207
6
82
144
192
311
127
215
98
320
300
107
173
284
84
271
280
197
147
235
151
279
13
97
68
218
132
259
48
202
260
111
86
291
163
35
213
288
79
328
67
221
106
119
72
272
315
258
229
172
49
205
135
37
19
109
182
57
276
170
319
245
24
321
226
77
40
220
104
112
179
299
160
294
114
306
257
293
156
290

>  <PUBCHEM_MMFF94_PARTIAL_CHARGES>  (1) 
16
1 -0.19
10 0.28
11 0.28
12 0.27
13 0.66
14 0.66
15 0.25
16 0.25
2 -0.19
3 -0.43
4 -0.43
5 -0.57
6 -0.57
7 -0.81
8 0.27
9 0.27

>  <PUBCHEM_EFFECTIVE_ROTOR_COUNT>  (1) 
10

>  <PUBCHEM_PHARMACOPHORE_FEATURES>  (1) 
5
1 1 hydrophobe
1 2 hydrophobe
1 5 acceptor
1 6 acceptor
1 7 cation

>  <PUBCHEM_HEAVY_ATOM_COUNT>  (1) 
16

>  <PUBCHEM_ATOM_DEF_STEREO_COUNT>  (1) 
0

>  <PUBCHEM_ATOM_UDEF_STEREO_COUNT>  (1) 
0

>  <PUBCHEM_BOND_DEF_STEREO_COUNT>  (1) 
0

>  <PUBCHEM_BOND_UDEF_STEREO_COUNT>  (1) 
0

>  <PUBCHEM_ISOTOPIC_ATOM_COUNT>  (1) 
0

>  <PUBCHEM_COMPONENT_COUNT>  (1) 
1

>  <PUBCHEM_CACTVS_TAUTO_COUNT>  (1) 
1

>  <PUBCHEM_CONFORMER_ID>  (1) 
00005C8000000001

>  <PUBCHEM_MMFF94_ENERGY>  (1) 
22.9462

>  <PUBCHEM_FEATURE_SELFOVERLAP>  (1) 
25.371

>  <PUBCHEM_SHAPE_FINGERPRINT>  (1) 
100836 57 18409171012619925784
10753850 27 10015865375123833989
12403259 118 17895202163596705751
12555020 224 10231742367984566841
12596602 18 15357701902697239481
12760667 363 9727639418720160677
13955234 65 18119532029499662499
14123256 34 9799687121501562509
1420 369 8790887388764695304
14251752 14 12679189271978174675
14341114 328 16660370293752320461
14774955 27 18338230462999479799
15501527 16 18410012178065590544
15778101 99 18410013273139852178
1768 4 18342185475213561081
17834072 32 18410855498877955920
193927 3 9583522057195570162
20281389 69 18334853965907133872
20374829 77 10879990242659261203
20526848 3 18410294717809620873
20621476 66 18335140938489553460
20645477 56 18198627816478128674
20645477 70 16844469244654883782
23402655 69 17846780728287637902
23590187 49 18410571799092342203
270888 7 18410853256984382617
2916195 48 18343018938521463632
293599 30 18411419535779752648
3014063 24 11674885519739879873
351380 3 9727636102610100433
465052 167 7997963591836106656
5283384 27 18041267799981561893
59682541 35 18261686947904934073
59682541 52 17131562643778085532
6327066 14 18410570699712693925
7062679 13 9511471013173075436
7062679 6 18261394511739530484
77188 2 17474387972231960094
7808743 9 18409163350393040641
7970288 3 9151176445597619272

>  <PUBCHEM_SHAPE_MULTIPOLES>  (1) 
324.69
18.28
3.06
0.85
0.57
1.43
-0.04
-21.77
0.24
0.1
-0.09
-0.37
-0.16
0.53

>  <PUBCHEM_SHAPE_SELFOVERLAP>  (1) 
574.386

>  <PUBCHEM_SHAPE_VOLUME>  (1) 
217.3

>  <PUBCHEM_COORDINATE_TYPE>  (1) 
2
5
10

$$$$
