23695
     RDKit          3D

 24 25  0  0  0  0  0  0  0  0999 V2000
   -0.0628    0.0032    0.0774 S   0  0  0  0  0  0  0  0  0  0  0  0
   -3.0081    0.6652   -0.4987 O   0  0  0  0  0  0  0  0  0  0  0  0
   -0.8209   -1.1252   -0.4345 O   0  0  0  0  0  0  0  0  0  0  0  0
    0.0940    0.2020    1.5079 O   0  0  0  0  0  0  0  0  0  0  0  0
   -6.5840   -0.1110   -0.0566 N   0  0  0  0  0  0  0  0  0  0  0  0
    1.5640   -0.0745   -0.6357 C   0  0  0  0  0  0  0  0  0  0  0  0
   -0.7397    1.4812   -0.6135 C   0  0  0  0  0  0  0  0  0  0  0  0
    2.1980   -1.4064   -0.3098 C   0  0  0  0  0  0  0  0  0  0  0  0
    2.3714    1.1468   -0.2588 C   0  0  0  0  0  0  0  0  0  0  0  0
   -2.1515    1.7346   -0.1218 C   0  0  0  0  0  0  0  0  0  0  0  0
    2.9658   -2.0451   -1.2701 C   0  0  0  0  0  0  0  0  0  0  0  0
    2.6999    2.0698   -1.2377 C   0  0  0  0  0  0  0  0  0  0  0  0
    1.9999   -1.9636    0.9431 C   0  0  0  0  0  0  0  0  0  0  0  0
    2.7656    1.3184    1.0577 C   0  0  0  0  0  0  0  0  0  0  0  0
   -4.3430    0.8881   -0.0640 C   0  0  0  0  0  0  0  0  0  0  0  0
   -5.2014   -0.2890   -0.4988 C   0  0  0  0  0  0  0  0  0  0  0  0
    3.5514   -3.2748   -0.9692 C   0  0  0  0  0  0  0  0  0  0  0  0
    3.4447    3.1969   -0.8901 C   0  0  0  0  0  0  0  0  0  0  0  0
    2.5857   -3.1933    1.2438 C   0  0  0  0  0  0  0  0  0  0  0  0
    3.5102    2.4456    1.4052 C   0  0  0  0  0  0  0  0  0  0  0  0
    3.3614   -3.8488    0.2875 C   0  0  0  0  0  0  0  0  0  0  0  0
    3.8497    3.3847    0.4313 C   0  0  0  0  0  0  0  0  0  0  0  0
   -6.6411    0.0322    1.3977 C   0  0  0  0  0  0  0  0  0  0  0  0
   -7.4090   -1.2372   -0.4921 C   0  0  0  0  0  0  0  0  0  0  0  0
  1  3  2  0
  1  4  2  0
  1  6  1  0
  1  7  1  0
  2 10  1  0
  2 15  1  0
  5 16  1  0
  5 23  1  0
  5 24  1  0
  6  8  1  0
  6  9  1  0
  7 10  1  0
  8 11  2  0
  8 13  1  0
  9 12  2  0
  9 14  1  0
 11 17  1  0
 12 18  1  0
 13 19  2  0
 14 20  2  0
 15 16  1  0
 17 21  2  0
 18 22  2  0
 19 21  1  0
 20 22  1  0
M  END
>  <PUBCHEM_COMPOUND_CID>  (1) 
23695

>  <PUBCHEM_CONFORMER_RMSD>  (1) 
1

>  <PUBCHEM_CONFORMER_DIVERSEORDER>  (1) 
1
21
22
3
28
8
36
11
5
24
39
16
4
32
33
31
29
14
9
37
27
38
18
26
10
23
15
6
35
20
17
7
25
19
13
30
12
2
34

>  <PUBCHEM_MMFF94_PARTIAL_CHARGES>  (1) 
34
1 1.09
10 0.28
11 -0.15
12 -0.15
13 -0.15
14 -0.15
15 0.28
16 0.27
17 -0.15
18 -0.15
19 -0.15
2 -0.56
20 -0.15
21 -0.15
22 -0.15
23 0.27
24 0.27
3 -0.65
30 0.15
31 0.15
32 0.15
33 0.15
38 0.15
39 0.15
4 -0.65
40 0.15
41 0.15
42 0.15
43 0.15
5 -0.81
6 0.39
7 0.11
8 -0.14
9 -0.14

>  <PUBCHEM_EFFECTIVE_ROTOR_COUNT>  (1) 
9

>  <PUBCHEM_PHARMACOPHORE_FEATURES>  (1) 
6
1 2 acceptor
1 3 acceptor
1 4 acceptor
1 5 cation
6 8 11 13 17 19 21 rings
6 9 12 14 18 20 22 rings

>  <PUBCHEM_HEAVY_ATOM_COUNT>  (1) 
24

>  <PUBCHEM_ATOM_DEF_STEREO_COUNT>  (1) 
0

>  <PUBCHEM_ATOM_UDEF_STEREO_COUNT>  (1) 
0

>  <PUBCHEM_BOND_DEF_STEREO_COUNT>  (1) 
0

>  <PUBCHEM_BOND_UDEF_STEREO_COUNT>  (1) 
0

>  <PUBCHEM_ISOTOPIC_ATOM_COUNT>  (1) 
0

>  <PUBCHEM_COMPONENT_COUNT>  (1) 
1

>  <PUBCHEM_CACTVS_TAUTO_COUNT>  (1) 
1

>  <PUBCHEM_CONFORMER_ID>  (1) 
00005C8F00000001

>  <PUBCHEM_MMFF94_ENERGY>  (1) 
65.9298

>  <PUBCHEM_FEATURE_SELFOVERLAP>  (1) 
30.467

>  <PUBCHEM_SHAPE_FINGERPRINT>  (1) 
10169797 241 18041574588889243947
11405975 8 18266740173965014089
12616971 3 17988918934733451159
12730499 353 18338525234562163425
12788726 201 17109038920470997578
13009979 54 17773038544649084864
13533116 47 18411704275190045137
13692114 37 18267015240586839954
13955234 65 18411981368799207520
14251740 57 18411417285322663935
14347424 109 18342743971406897113
14565420 104 18057595658537377144
14790565 3 17761215818428222933
17492 89 18339075969908091797
17844677 252 18337111164605427917
20369508 70 18262799553880958862
20775438 99 18262229027927552739
21049683 271 18335990762324932604
21344244 246 18341622491016004006
21421861 104 18338785775979251114
23559900 14 18263354798931790661
239999 70 18410857646398780711
25222932 49 18057320798479968607
312423 11 18271814458554831913
4073 2 18263367053006262347
4340502 62 18340764944185289685
5104073 3 18341618067136580577
57634706 280 17628626750295184313
59755656 215 18409171026032478492
621550 34 18261383485909960301
70251023 43 18266466416579797755
7364860 26 18342172242186667196
7495541 125 18263926536050826023
7970288 3 17978228253732532327
9841814 1 18263638472805325458
9962374 69 18342729703156787935

>  <PUBCHEM_SHAPE_MULTIPOLES>  (1) 
475.17
13.59
4.49
1.3
40.09
1.73
0.25
1.66
0.56
-9.7
0.11
-0.65
0.01
0.13

>  <PUBCHEM_SHAPE_SELFOVERLAP>  (1) 
974.009

>  <PUBCHEM_SHAPE_VOLUME>  (1) 
274.8

>  <PUBCHEM_COORDINATE_TYPE>  (1) 
2
5
10

$$$$
