23711
     RDKit          3D

 14 13  0  0  0  0  0  0  0  0999 V2000
    2.8417    0.4682    0.3523 O   0  0  0  0  0  0  0  0  0  0  0  0
   -2.8177   -0.4955    0.2373 O   0  0  0  0  0  0  0  0  0  0  0  0
    1.9842   -1.5744   -0.3036 O   0  0  0  0  0  0  0  0  0  0  0  0
   -2.0086    1.6017   -0.2960 O   0  0  0  0  0  0  0  0  0  0  0  0
    4.1689   -0.0674    0.3262 C   0  0  0  0  0  0  0  0  0  0  0  0
   -4.1405    0.0357    0.3682 C   0  0  0  0  0  0  0  0  0  0  0  0
    4.4862   -0.5728   -1.0719 C   0  0  0  0  0  0  0  0  0  0  0  0
    5.1489    1.0201    0.7430 C   0  0  0  0  0  0  0  0  0  0  0  0
   -4.5680    0.6662   -0.9473 C   0  0  0  0  0  0  0  0  0  0  0  0
   -5.0880   -1.0886    0.7617 C   0  0  0  0  0  0  0  0  0  0  0  0
    1.8531   -0.4030    0.0140 C   0  0  0  0  0  0  0  0  0  0  0  0
   -1.8566    0.4066   -0.0988 C   0  0  0  0  0  0  0  0  0  0  0  0
    0.5670    0.3236    0.1000 C   0  0  0  0  0  0  0  0  0  0  0  0
   -0.5707   -0.3203   -0.1853 C   0  0  0  0  0  0  0  0  0  0  0  0
  1  5  1  0
  1 11  1  0
  2  6  1  0
  2 12  1  0
  3 11  2  0
  4 12  2  0
  5  7  1  0
  5  8  1  0
  6  9  1  0
  6 10  1  0
 11 13  1  0
 12 14  1  0
 13 14  2  0
M  END
>  <PUBCHEM_COMPOUND_CID>  (1) 
23711

>  <PUBCHEM_CONFORMER_RMSD>  (1) 
0.6

>  <PUBCHEM_CONFORMER_DIVERSEORDER>  (1) 
4
59
171
43
173
166
113
105
91
164
24
96
55
135
31
118
92
1
180
12
177
117
52
155
53
152
122
72
66
148
120
5
54
141
114
26
133
123
100
3
106
33
162
70
22
167
28
179
109
71
128
121
138
51
172
10
15
17
37
159
175
27
108
107
50
94
145
23
11
62
154
20
87
103
2
119
146
29
126
85
151
104
88
134
45
25
69
160
125
35
165
93
32
131
30
46
149
6
163
58
170
60
74
78
65
127
9
56
158
14
86
57
7
89
34
95
97
132
8
13
124
156
153
49
80
142
64
112
174
21
84
161
39
178
83
168
16
115
90
169
176
136
111
147
82
116
73
42
75
61
150
67
38
157
110
68
76
139
140
98
63
79
81
144
129
19
47
181
130
36
143
99
182
41
48
18
137
40
44
102
101
77

>  <PUBCHEM_MMFF94_PARTIAL_CHARGES>  (1) 
12
1 -0.43
11 0.71
12 0.71
13 -0.14
14 -0.14
2 -0.43
29 0.15
3 -0.57
30 0.15
4 -0.57
5 0.28
6 0.28

>  <PUBCHEM_EFFECTIVE_ROTOR_COUNT>  (1) 
6

>  <PUBCHEM_PHARMACOPHORE_FEATURES>  (1) 
4
1 3 acceptor
1 4 acceptor
3 5 7 8 hydrophobe
3 6 9 10 hydrophobe

>  <PUBCHEM_HEAVY_ATOM_COUNT>  (1) 
14

>  <PUBCHEM_ATOM_DEF_STEREO_COUNT>  (1) 
0

>  <PUBCHEM_ATOM_UDEF_STEREO_COUNT>  (1) 
0

>  <PUBCHEM_BOND_DEF_STEREO_COUNT>  (1) 
0

>  <PUBCHEM_BOND_UDEF_STEREO_COUNT>  (1) 
1

>  <PUBCHEM_ISOTOPIC_ATOM_COUNT>  (1) 
0

>  <PUBCHEM_COMPONENT_COUNT>  (1) 
1

>  <PUBCHEM_CACTVS_TAUTO_COUNT>  (1) 
1

>  <PUBCHEM_CONFORMER_ID>  (1) 
00005C9F00000004

>  <PUBCHEM_MMFF94_ENERGY>  (1) 
27.4524

>  <PUBCHEM_FEATURE_SELFOVERLAP>  (1) 
20.298

>  <PUBCHEM_SHAPE_FINGERPRINT>  (1) 
10680689 15 18202563969357917381
10912923 1 15936412242736996013
11287383 113 18336265725371748816
11401426 45 16950278503626765157
13081056 2 18343865511441781968
13237642 15 18410292531654865155
13955234 65 17561361765220385034
14123238 8 18411136948000323904
1420 363 18410860970792989099
14251718 22 17821453481909711534
14252887 29 18201449055487086742
15375358 24 18333732411905704051
17834072 33 17022908977134142502
17834076 25 16732701645006075273
19489759 90 17022896852947978309
200 152 17917988374046450625
20279233 1 18187089442434512259
20645477 56 18201710791194888608
20645477 70 17418100876072301190
22485316 2 17895189983132874875
22854114 59 18341891900675082336
23402539 116 17385435531765794623
23402655 69 18131063801470844341
23557571 272 18114750313116213292
23559900 14 18115029597944770166
4047638 21 17489588983163529786
42788 4 18412262843817973056
449060 50 18272089413406845934
5104073 3 18338797793086346738
522135 26 16559033779594427830
542803 24 15936412229830832767
9971528 1 11025798704401477726

>  <PUBCHEM_SHAPE_MULTIPOLES>  (1) 
264.64
12.46
1.17
0.88
0.11
0
-0.09
0.05
0.9
-0.12
-0.03
0.08
-0.01
1.21

>  <PUBCHEM_SHAPE_SELFOVERLAP>  (1) 
509.515

>  <PUBCHEM_SHAPE_VOLUME>  (1) 
161.2

>  <PUBCHEM_COORDINATE_TYPE>  (1) 
2
5
10

$$$$
