23726
     RDKit          3D

 10  9  0  0  0  0  0  0  0  0999 V2000
    0.0793   -0.2697   -0.0106 O   0  0  0  0  0  0  0  0  0  0  0  0
   -1.1709    1.6733    0.0094 O   0  0  0  0  0  0  0  0  0  0  0  0
    2.4648   -0.4770   -0.0212 C   0  0  0  0  0  0  0  0  0  0  0  0
    3.7969    0.2673   -0.0044 C   0  0  0  0  0  0  0  0  0  0  0  0
    1.2841    0.4835   -0.0092 C   0  0  0  0  0  0  0  0  0  0  0  0
    4.9728   -0.6957    0.0272 C   0  0  0  0  0  0  0  0  0  0  0  0
   -1.0765    0.4562   -0.0005 C   0  0  0  0  0  0  0  0  0  0  0  0
   -2.2117   -0.4915   -0.0028 C   0  0  0  0  0  0  0  0  0  0  0  0
   -3.4688   -0.0295    0.0066 C   0  0  0  0  0  0  0  0  0  0  0  0
   -4.6702   -0.9169    0.0056 C   0  0  0  0  0  0  0  0  0  0  0  0
  1  5  1  0
  1  7  1  0
  2  7  2  0
  3  4  1  0
  3  5  1  0
  4  6  1  0
  7  8  1  0
  8  9  2  0
  9 10  1  0
M  END
>  <PUBCHEM_COMPOUND_CID>  (1) 
23726

>  <PUBCHEM_CONFORMER_RMSD>  (1) 
0.6

>  <PUBCHEM_CONFORMER_DIVERSEORDER>  (1) 
1
59
27
22
23
70
52
4
58
28
53
7
44
62
65
26
24
63
72
6
60
10
56
18
11
2
36
54
3
55
48
71
40
69
30
50
74
9
73
37
14
46
67
17
76
57
64
21
39
78
45
61
33
20
75
77
25
5
35
66
29
31
41
49
15
16
47
12
34
19
32
38
68
8
42
13
43
51

>  <PUBCHEM_MMFF94_PARTIAL_CHARGES>  (1) 
9
1 -0.43
10 0.14
2 -0.57
20 0.15
21 0.15
5 0.28
7 0.71
8 -0.14
9 -0.29

>  <PUBCHEM_EFFECTIVE_ROTOR_COUNT>  (1) 
5

>  <PUBCHEM_PHARMACOPHORE_FEATURES>  (1) 
3
1 10 hydrophobe
1 2 acceptor
1 6 hydrophobe

>  <PUBCHEM_HEAVY_ATOM_COUNT>  (1) 
10

>  <PUBCHEM_ATOM_DEF_STEREO_COUNT>  (1) 
0

>  <PUBCHEM_ATOM_UDEF_STEREO_COUNT>  (1) 
0

>  <PUBCHEM_BOND_DEF_STEREO_COUNT>  (1) 
0

>  <PUBCHEM_BOND_UDEF_STEREO_COUNT>  (1) 
1

>  <PUBCHEM_ISOTOPIC_ATOM_COUNT>  (1) 
0

>  <PUBCHEM_COMPONENT_COUNT>  (1) 
1

>  <PUBCHEM_CACTVS_TAUTO_COUNT>  (1) 
1

>  <PUBCHEM_CONFORMER_ID>  (1) 
00005CAE00000001

>  <PUBCHEM_MMFF94_ENERGY>  (1) 
5.8755

>  <PUBCHEM_FEATURE_SELFOVERLAP>  (1) 
15.223

>  <PUBCHEM_SHAPE_FINGERPRINT>  (1) 
11062470 55 12107786306878583066
12032990 46 18409451422861517467
12932764 1 16916206802919091342
13690532 89 18260829302026415914
14123238 8 17917711314280224534
14252887 29 17489598848313363150
177051 138 18409730647349250478
17834076 25 16226046682568643143
18342897 14 10231758889715945447
187816 3 17385443228452625729
20211469 26 18259704492998951564
20645477 70 13695854897487410960
20719005 15 18410856568435608390
20767249 213 10952045658631987403
20828058 44 16630242588677675759
21119208 17 16008746922316202511
21293036 1 16442782431625774426
22485316 2 18341609321828648391
23402539 116 18410568479314633855
23402655 69 11963378661732031195
42788 4 18410575093253045991
449060 50 10807934873034513160

>  <PUBCHEM_SHAPE_MULTIPOLES>  (1) 
194.06
9.9
1.06
0.6
3.07
0.26
0
-3.47
0.07
-0.32
0
0.01
-0.01
-0.01

>  <PUBCHEM_SHAPE_SELFOVERLAP>  (1) 
355.856

>  <PUBCHEM_SHAPE_VOLUME>  (1) 
123.4

>  <PUBCHEM_COORDINATE_TYPE>  (1) 
2
5
10

$$$$
