23738
     RDKit          3D

 16 17  0  0  1  0  0  0  0  0999 V2000
    2.0638    0.6324   -0.1590 O   0  0  0  0  0  0  0  0  0  0  0  0
    0.8077    0.4820    0.4421 N   0  0  0  0  0  0  0  0  0  0  0  0
   -1.5079    1.4325    0.4037 C   0  0  0  0  0  0  0  0  0  0  0  0
   -1.9101    0.7628    1.7600 C   0  0  0  0  0  0  0  0  0  0  0  0
   -2.3577    0.3865   -0.2545 C   0  0  0  0  0  0  0  0  0  0  0  0
   -2.7110   -0.2011    0.9362 C   0  0  0  0  0  0  0  0  0  0  0  0
   -0.0396    1.3359   -0.0446 C   0  0  0  0  0  0  0  0  0  0  0  0
   -2.8121   -0.0832   -1.4642 C   0  0  0  0  0  0  0  0  0  0  0  0
   -3.5412   -1.2959    0.9924 C   0  0  0  0  0  0  0  0  0  0  0  0
    0.4458    2.2883   -1.1067 C   0  0  0  0  0  0  0  0  0  0  0  0
   -3.6582   -1.1949   -1.4409 C   0  0  0  0  0  0  0  0  0  0  0  0
   -4.0203   -1.7974   -0.2203 C   0  0  0  0  0  0  0  0  0  0  0  0
    4.3157   -0.1744   -0.2314 C   0  0  0  0  0  0  0  0  0  0  0  0
    2.9440   -0.3239    0.4111 C   0  0  0  0  0  0  0  0  0  0  0  0
    5.3124   -1.1869    0.3256 C   0  0  0  0  0  0  0  0  0  0  0  0
    6.6689   -1.0627   -0.3494 C   0  0  0  0  0  0  0  0  0  0  0  0
  1  2  1  0
  1 14  1  0
  2  7  2  0
  3  4  1  0
  3  5  1  0
  3  7  1  0
  4  6  1  0
  5  6  2  0
  5  8  1  0
  6  9  1  0
  7 10  1  0
  8 11  2  0
  9 12  2  0
 11 12  1  0
 13 14  1  0
 13 15  1  0
 15 16  1  0
M  END
>  <PUBCHEM_COMPOUND_CID>  (1) 
23738

>  <PUBCHEM_CONFORMER_RMSD>  (1) 
0.6

>  <PUBCHEM_CONFORMER_DIVERSEORDER>  (1) 
2
115
184
125
109
80
108
12
25
187
68
44
32
161
42
48
126
81
46
139
14
99
171
172
142
128
116
110
67
154
24
170
27
188
107
120
29
78
152
155
83
63
11
52
38
181
149
173
23
150
59
157
158
31
47
28
18
183
164
160
54
75
112
146
56
43
111
148
198
101
26
49
5
119
100
55
143
129
91
7
57
199
74
136
192
145
159
72
124
169
1
88
13
166
117
33
114
176
186
70
37
90
156
89
16
35
133
98
9
167
185
45
200
137
20
103
87
76
60
201
123
86
141
189
122
8
71
96
165
61
151
102
132
140
84
62
197
93
178
66
175
194
51
106
174
153
191
131
58
135
19
147
104
17
6
195
95
127
168
30
77
65
105
34
79
64
138
4
182
15
180
69
53
39
3
94
85
121
134
50
118
144
113
10
162
196
41
130
22
193
73
190
163
36
40
82
21
179
177
97
92

>  <PUBCHEM_MMFF94_PARTIAL_CHARGES>  (1) 
17
1 -0.22
10 0.06
11 -0.15
12 -0.15
14 0.28
2 -0.51
20 0.15
21 0.15
25 0.15
26 0.15
3 0.16
4 0.11
5 -0.11
6 -0.11
7 0.34
8 -0.15
9 -0.15

>  <PUBCHEM_EFFECTIVE_ROTOR_COUNT>  (1) 
5.4

>  <PUBCHEM_PHARMACOPHORE_FEATURES>  (1) 
4
1 16 hydrophobe
1 2 acceptor
4 3 4 5 6 rings
6 5 6 8 9 11 12 rings

>  <PUBCHEM_HEAVY_ATOM_COUNT>  (1) 
16

>  <PUBCHEM_ATOM_DEF_STEREO_COUNT>  (1) 
0

>  <PUBCHEM_ATOM_UDEF_STEREO_COUNT>  (1) 
1

>  <PUBCHEM_BOND_DEF_STEREO_COUNT>  (1) 
0

>  <PUBCHEM_BOND_UDEF_STEREO_COUNT>  (1) 
1

>  <PUBCHEM_ISOTOPIC_ATOM_COUNT>  (1) 
0

>  <PUBCHEM_COMPONENT_COUNT>  (1) 
1

>  <PUBCHEM_CACTVS_TAUTO_COUNT>  (1) 
1

>  <PUBCHEM_CONFORMER_ID>  (1) 
00005CBA00000002

>  <PUBCHEM_MMFF94_ENERGY>  (1) 
32.2718

>  <PUBCHEM_FEATURE_SELFOVERLAP>  (1) 
20.546

>  <PUBCHEM_SHAPE_FINGERPRINT>  (1) 
10014705 185 10881403140496282346
10803635 8 16298102086373951122
11046707 91 18342173354256058200
11315181 36 18060416898432109936
12633257 1 15482390966472505855
13288520 33 18342740697955703064
13583140 156 15984814888191768072
13675066 3 14549019858443956032
14123255 352 8790885181547260994
14123260 362 11169912775226420582
14251764 38 12541564595267137270
14251764 75 12326449405531568815
15415430 10 18412265038720269588
15534591 1 10665225956094072937
15716309 27 18060419097888050850
15880784 105 17775281703273491578
17780758 139 17489590026418797850
17870717 6 17458343035280731219
1813 80 18341345447749399028
18927931 339 18115600240432233102
193927 3 18342185487449239110
19784866 240 18410856611791528439
19784866 34 9367354729743220820
200 152 17749390343464662672
20112054 13 11312059859121571552
20325693 3 15357697492018540499
20671657 53 18261677072683597053
20871999 31 17167857556443097253
21650355 55 16630526271731520841
23198884 109 13984659248235664914
23402539 116 18114465565933396608
23403322 49 18260827102829152155
23466295 7 17678755650243479091
23559900 14 18336817684551852168
270888 7 10809880983110468335
27216 239 12031786976735275791
351380 3 18411982476901088002
4028521 119 12107780817715453519
49783359 22 17989204820472977222
559249 180 18341894057070379181
57265010 4 15554451803379482379

>  <PUBCHEM_SHAPE_MULTIPOLES>  (1) 
318.42
11.76
1.85
1.34
23.39
0.4
0
-8.73
-1.06
-0.68
-0.32
-1.48
0.07
-0.47

>  <PUBCHEM_SHAPE_SELFOVERLAP>  (1) 
653.608

>  <PUBCHEM_SHAPE_VOLUME>  (1) 
186.5

>  <PUBCHEM_COORDINATE_TYPE>  (1) 
2
5
10

$$$$
