23730
     RDKit          3D

 13 13  0  0  0  0  0  0  0  0999 V2000
   -0.6068    0.0326   -0.7554 O   0  0  0  0  0  0  0  0  0  0  0  0
   -1.1082    0.4242    1.4705 O   0  0  0  0  0  0  0  0  0  0  0  0
   -2.8255    0.0966   -0.0635 N   0  0  0  0  0  0  0  0  0  0  0  0
    1.4336   -0.9972   -0.0322 C   0  0  0  0  0  0  0  0  0  0  0  0
    0.7456    0.1331   -0.4128 C   0  0  0  0  0  0  0  0  0  0  0  0
    2.7817   -0.8788    0.3057 C   0  0  0  0  0  0  0  0  0  0  0  0
    1.3359    1.3763   -0.4729 C   0  0  0  0  0  0  0  0  0  0  0  0
    0.7809   -2.3387    0.0286 C   0  0  0  0  0  0  0  0  0  0  0  0
    3.4069    0.3672    0.2542 C   0  0  0  0  0  0  0  0  0  0  0  0
    2.6840    1.4946   -0.1352 C   0  0  0  0  0  0  0  0  0  0  0  0
   -1.4840    0.2041    0.3197 C   0  0  0  0  0  0  0  0  0  0  0  0
   -3.8833    0.2472    0.9256 C   0  0  0  0  0  0  0  0  0  0  0  0
   -3.2608   -0.1612   -1.4323 C   0  0  0  0  0  0  0  0  0  0  0  0
  1  5  1  0
  1 11  1  0
  2 11  2  0
  3 11  1  0
  3 12  1  0
  3 13  1  0
  4  5  2  0
  4  6  1  0
  4  8  1  0
  5  7  1  0
  6  9  2  0
  7 10  2  0
  9 10  1  0
M  END
>  <PUBCHEM_COMPOUND_CID>  (1) 
23730

>  <PUBCHEM_CONFORMER_RMSD>  (1) 
0.6

>  <PUBCHEM_CONFORMER_DIVERSEORDER>  (1) 
1
10
8
11
12
14
13
3
5
4
2
6
9
7

>  <PUBCHEM_MMFF94_PARTIAL_CHARGES>  (1) 
17
1 -0.23
10 -0.15
11 0.78
12 0.3
13 0.3
14 0.15
15 0.15
19 0.15
2 -0.57
20 0.15
3 -0.66
4 -0.14
5 0.08
6 -0.15
7 -0.15
8 0.14
9 -0.15

>  <PUBCHEM_EFFECTIVE_ROTOR_COUNT>  (1) 
3

>  <PUBCHEM_PHARMACOPHORE_FEATURES>  (1) 
2
1 2 acceptor
6 4 5 6 7 9 10 rings

>  <PUBCHEM_HEAVY_ATOM_COUNT>  (1) 
13

>  <PUBCHEM_ATOM_DEF_STEREO_COUNT>  (1) 
0

>  <PUBCHEM_ATOM_UDEF_STEREO_COUNT>  (1) 
0

>  <PUBCHEM_BOND_DEF_STEREO_COUNT>  (1) 
0

>  <PUBCHEM_BOND_UDEF_STEREO_COUNT>  (1) 
0

>  <PUBCHEM_ISOTOPIC_ATOM_COUNT>  (1) 
0

>  <PUBCHEM_COMPONENT_COUNT>  (1) 
1

>  <PUBCHEM_CACTVS_TAUTO_COUNT>  (1) 
1

>  <PUBCHEM_CONFORMER_ID>  (1) 
00005CB200000001

>  <PUBCHEM_MMFF94_ENERGY>  (1) 
36.6885

>  <PUBCHEM_FEATURE_SELFOVERLAP>  (1) 
10.148

>  <PUBCHEM_SHAPE_FINGERPRINT>  (1) 
10219947 1 18334292067735052508
11471102 22 18187652388071685384
12119455 92 18114167671054087772
124424 183 17095510782288745580
12932764 1 17917426514914671185
13581323 91 15068624911176319505
14251717 144 18410003338622150743
14993402 34 18410856577399881740
15207287 21 17676480636014844754
15219456 202 17822006501888318501
15775835 57 18131636702810840360
16945 1 18408603639045478918
18186145 218 18413109480471659300
19049666 15 17387686116140612829
20201158 50 18040432157409846883
20279233 1 17530962475834516655
204376 136 18264208178863414480
20645477 70 18263351521829760495
20871998 22 17981327794496492030
21639500 275 18337662130713961204
21730867 7 18261114071111076367
23402539 116 16272204185156155828
23559900 14 16226321518037727802
2748010 2 18191035688540544766
57812782 119 17530961401886912345
581208 293 18410568487872965158
69090 78 17895194450136343739
77492 1 17989483026362117981

>  <PUBCHEM_SHAPE_MULTIPOLES>  (1) 
250.81
6.06
1.56
1.05
3.77
0.68
0
-0.95
0.38
-1.28
-0.07
0.95
-0.08
-0.28

>  <PUBCHEM_SHAPE_SELFOVERLAP>  (1) 
513.564

>  <PUBCHEM_SHAPE_VOLUME>  (1) 
146.2

>  <PUBCHEM_COORDINATE_TYPE>  (1) 
2
5
10

$$$$
