23739
     RDKit          3D

 13 13  0  0  1  0  0  0  0  0999 V2000
   -4.1526    0.7182   -0.7714 O   0  0  0  0  0  0  0  0  0  0  0  0
   -2.5496    1.5917    0.5782 O   0  0  0  0  0  0  0  0  0  0  0  0
   -1.1096   -0.9591    0.4526 C   0  0  0  0  0  0  0  0  0  0  0  0
   -0.3061   -0.3781   -0.7333 C   0  0  0  0  0  0  0  0  0  0  0  0
   -2.6236   -0.8161    0.2044 C   0  0  0  0  0  0  0  0  0  0  0  0
   -0.7714   -2.4387    0.6752 C   0  0  0  0  0  0  0  0  0  0  0  0
    1.1236   -0.0360   -0.3893 C   0  0  0  0  0  0  0  0  0  0  0  0
    1.4242    1.2328    0.0803 C   0  0  0  0  0  0  0  0  0  0  0  0
    2.1093   -0.9971   -0.5489 C   0  0  0  0  0  0  0  0  0  0  0  0
   -3.0674    0.6224    0.0413 C   0  0  0  0  0  0  0  0  0  0  0  0
    2.7450    1.5489    0.3984 C   0  0  0  0  0  0  0  0  0  0  0  0
    3.4301   -0.6809   -0.2306 C   0  0  0  0  0  0  0  0  0  0  0  0
    3.7479    0.5921    0.2430 C   0  0  0  0  0  0  0  0  0  0  0  0
  1 10  1  0
  2 10  2  0
  3  4  1  0
  3  5  1  0
  3  6  1  0
  4  7  1  0
  5 10  1  0
  7  8  2  0
  7  9  1  0
  8 11  1  0
  9 12  2  0
 11 13  2  0
 12 13  1  0
M  END
>  <PUBCHEM_COMPOUND_CID>  (1) 
23739

>  <PUBCHEM_CONFORMER_RMSD>  (1) 
0.6

>  <PUBCHEM_CONFORMER_DIVERSEORDER>  (1) 
1
34
4
11
3
29
35
25
19
20
38
5
13
37
12
41
30
32
10
23
6
2
36
27
24
7
28
42
18
26
33
21
14
17
15
9
16
39
22
8
31
40

>  <PUBCHEM_MMFF94_PARTIAL_CHARGES>  (1) 
17
1 -0.65
10 0.66
11 -0.15
12 -0.15
13 -0.15
2 -0.57
22 0.15
23 0.15
24 0.15
25 0.15
26 0.15
27 0.5
4 0.14
5 0.06
7 -0.14
8 -0.15
9 -0.15

>  <PUBCHEM_EFFECTIVE_ROTOR_COUNT>  (1) 
4

>  <PUBCHEM_PHARMACOPHORE_FEATURES>  (1) 
5
1 1 acceptor
1 2 acceptor
1 6 hydrophobe
3 1 2 10 anion
6 7 8 9 11 12 13 rings

>  <PUBCHEM_HEAVY_ATOM_COUNT>  (1) 
13

>  <PUBCHEM_ATOM_DEF_STEREO_COUNT>  (1) 
0

>  <PUBCHEM_ATOM_UDEF_STEREO_COUNT>  (1) 
1

>  <PUBCHEM_BOND_DEF_STEREO_COUNT>  (1) 
0

>  <PUBCHEM_BOND_UDEF_STEREO_COUNT>  (1) 
0

>  <PUBCHEM_ISOTOPIC_ATOM_COUNT>  (1) 
0

>  <PUBCHEM_COMPONENT_COUNT>  (1) 
1

>  <PUBCHEM_CACTVS_TAUTO_COUNT>  (1) 
1

>  <PUBCHEM_CONFORMER_ID>  (1) 
00005CBB00000001

>  <PUBCHEM_MMFF94_ENERGY>  (1) 
25.9081

>  <PUBCHEM_FEATURE_SELFOVERLAP>  (1) 
25.43

>  <PUBCHEM_SHAPE_FINGERPRINT>  (1) 
10608611 8 18340205305593696368
11471102 20 18342736308699671284
12162725 195 18130790036007935137
12251169 10 18261955270821358472
124424 183 18413109455060525426
12500047 106 18334857259735502114
12932764 1 17702110368270125430
13380535 76 18413107268695584886
13571099 22 18131074809756828046
13922767 16 18341609304780459592
14144814 61 18410859858317097866
14325111 11 18411702101308891293
15219456 202 18340490053403902358
15442244 35 18126571119903378882
15775835 57 17895189987306321515
17834069 15 18407761430228690398
18186145 218 18340775853307152591
200 152 17346595274914064869
20201158 50 18272091586681370662
20510252 161 18266184005442868875
20528008 55 18410007749653705957
20645477 70 18202003192426320382
21501502 16 18190743231337499214
21524375 3 18409448055602122991
23402539 116 18341886433530010759
23402655 69 18130783430506717053
23559900 14 18413670202086250506
305870 269 18187923928762900539
3248919 1 18042682986866923942
351380 180 18342733005537627997
4028521 119 18410285883605017325
449060 23 9799402309250399125
53812653 166 18334857203795354322
57812782 119 18273495667367270893
69090 78 18343299292891816967
74978 22 18261396705881879318
81228 2 17826803830308824155
9709674 26 18341336690168884606

>  <PUBCHEM_SHAPE_MULTIPOLES>  (1) 
255.8
6.72
1.88
0.81
1.19
0.48
-0.03
-2.19
-0.23
0.39
0.42
0.11
0.06
0.53

>  <PUBCHEM_SHAPE_SELFOVERLAP>  (1) 
517.862

>  <PUBCHEM_SHAPE_VOLUME>  (1) 
149.3

>  <PUBCHEM_COORDINATE_TYPE>  (1) 
2
5
10

$$$$
