23732
     RDKit          3D

  9  8  0  0  0  0  0  0  0  0999 V2000
    0.2257   -1.3323    0.0278 O   0  0  0  0  0  0  0  0  0  0  0  0
   -2.4016   -1.1419   -0.0254 O   0  0  0  0  0  0  0  0  0  0  0  0
    1.6283    0.6275   -0.0333 C   0  0  0  0  0  0  0  0  0  0  0  0
    2.8216   -0.3228    0.0057 C   0  0  0  0  0  0  0  0  0  0  0  0
    0.2951   -0.1056   -0.0200 C   0  0  0  0  0  0  0  0  0  0  0  0
   -0.9361    0.7806   -0.0249 C   0  0  0  0  0  0  0  0  0  0  0  0
    4.1382    0.4364    0.0247 C   0  0  0  0  0  0  0  0  0  0  0  0
   -2.2795    0.0813    0.0077 C   0  0  0  0  0  0  0  0  0  0  0  0
   -3.4917    0.9769    0.0376 C   0  0  0  0  0  0  0  0  0  0  0  0
  1  5  2  0
  2  8  2  0
  3  4  1  0
  3  5  1  0
  4  7  1  0
  5  6  1  0
  6  8  1  0
  8  9  1  0
M  END
>  <PUBCHEM_COMPOUND_CID>  (1) 
23732

>  <PUBCHEM_CONFORMER_RMSD>  (1) 
0.6

>  <PUBCHEM_CONFORMER_DIVERSEORDER>  (1) 
1
34
17
13
95
70
84
80
42
8
41
99
98
18
94
45
24
2
89
55
78
92
9
74
69
21
22
86
71
33
90
48
3
5
50
56
85
93
47
44
77
25
40
14
97
19
76
73
39
64
27
83
57
96
26
15
82
52
75
68
49
53
37
10
35
32
91
12
54
23
88
30
87
79
81
65
7
63
59
66
61
11
20
6
67
58
60
31
38
72
36
29
43
51
28
4
62
16
46

>  <PUBCHEM_MMFF94_PARTIAL_CHARGES>  (1) 
7
1 -0.57
2 -0.57
3 0.06
5 0.45
6 0.12
8 0.45
9 0.06

>  <PUBCHEM_EFFECTIVE_ROTOR_COUNT>  (1) 
4

>  <PUBCHEM_PHARMACOPHORE_FEATURES>  (1) 
4
1 1 acceptor
1 2 acceptor
1 6 anion
1 7 hydrophobe

>  <PUBCHEM_HEAVY_ATOM_COUNT>  (1) 
9

>  <PUBCHEM_ATOM_DEF_STEREO_COUNT>  (1) 
0

>  <PUBCHEM_ATOM_UDEF_STEREO_COUNT>  (1) 
0

>  <PUBCHEM_BOND_DEF_STEREO_COUNT>  (1) 
0

>  <PUBCHEM_BOND_UDEF_STEREO_COUNT>  (1) 
0

>  <PUBCHEM_ISOTOPIC_ATOM_COUNT>  (1) 
0

>  <PUBCHEM_COMPONENT_COUNT>  (1) 
1

>  <PUBCHEM_CACTVS_TAUTO_COUNT>  (1) 
8

>  <PUBCHEM_CONFORMER_ID>  (1) 
00005CB400000001

>  <PUBCHEM_MMFF94_ENERGY>  (1) 
3.5509

>  <PUBCHEM_FEATURE_SELFOVERLAP>  (1) 
20.307

>  <PUBCHEM_SHAPE_FINGERPRINT>  (1) 
11062470 55 18334295357511351968
12932764 1 16950552298790623804
14325111 11 18410573989720725028
14390081 3 18343862195468553721
20645477 70 17560524984709288718
23235685 24 18410006620035089489
23402655 69 18198610061421067365
29004967 10 16128664058530006310
3248919 1 14261354690717961820

>  <PUBCHEM_SHAPE_MULTIPOLES>  (1) 
173.48
6.55
1.12
0.6
2.55
0.2
0
-1.36
-0.09
-0.44
0
0.02
-0.03
-0.02

>  <PUBCHEM_SHAPE_SELFOVERLAP>  (1) 
318.885

>  <PUBCHEM_SHAPE_VOLUME>  (1) 
109.7

>  <PUBCHEM_COORDINATE_TYPE>  (1) 
2
5
10

$$$$
