23746
     RDKit          3D

 30 30  0  0  0  0  0  0  0  0999 V2000
    0.4832    1.8072    1.3086 O   0  0  0  0  0  0  0  0  0  0  0  0
   -1.4507    0.6216   -1.5373 O   0  0  0  0  0  0  0  0  0  0  0  0
    1.2927   -0.3599   -1.5054 O   0  0  0  0  0  0  0  0  0  0  0  0
   -1.6638   -0.0157    2.0395 O   0  0  0  0  0  0  0  0  0  0  0  0
    1.6851   -2.2574    0.5539 O   0  0  0  0  0  0  0  0  0  0  0  0
   -0.7761   -2.1144   -0.8022 O   0  0  0  0  0  0  0  0  0  0  0  0
    1.9828    3.1087    0.3469 O   0  0  0  0  0  0  0  0  0  0  0  0
   -1.5390    2.8262   -1.5664 O   0  0  0  0  0  0  0  0  0  0  0  0
    3.0869    0.9195   -1.6718 O   0  0  0  0  0  0  0  0  0  0  0  0
   -3.6145    0.7958    1.4044 O   0  0  0  0  0  0  0  0  0  0  0  0
    2.9964   -1.1117    1.9096 O   0  0  0  0  0  0  0  0  0  0  0  0
   -2.5359   -3.0832    0.1186 O   0  0  0  0  0  0  0  0  0  0  0  0
    2.2070    2.6635    2.5202 O   0  0  0  0  0  0  0  0  0  0  0  0
   -1.8965    1.7281   -3.4738 O   0  0  0  0  0  0  0  0  0  0  0  0
    1.8401    0.6008   -3.4927 O   0  0  0  0  0  0  0  0  0  0  0  0
   -3.0196    1.0237    3.5411 O   0  0  0  0  0  0  0  0  0  0  0  0
    3.7239   -3.0751    1.1435 O   0  0  0  0  0  0  0  0  0  0  0  0
   -2.1074   -3.4881   -2.0317 O   0  0  0  0  0  0  0  0  0  0  0  0
    1.6609    2.5910    1.4170 N   0  0  0  0  0  0  0  0  0  0  0  0
   -1.6482    1.8209   -2.2694 N   0  0  0  0  0  0  0  0  0  0  0  0
    2.1380    0.4551   -2.3050 N   0  0  0  0  0  0  0  0  0  0  0  0
   -2.8653    0.6612    2.3726 N   0  0  0  0  0  0  0  0  0  0  0  0
    2.9129   -2.1532    1.2577 N   0  0  0  0  0  0  0  0  0  0  0  0
   -1.9011   -2.9721   -0.9309 N   0  0  0  0  0  0  0  0  0  0  0  0
    0.3111    1.2278    0.0172 C   0  0  0  0  0  0  0  0  0  0  0  0
   -1.1709    0.8455   -0.1573 C   0  0  0  0  0  0  0  0  0  0  0  0
    1.2613    0.0318   -0.1352 C   0  0  0  0  0  0  0  0  0  0  0  0
   -1.5915   -0.3875    0.6650 C   0  0  0  0  0  0  0  0  0  0  0  0
    0.8249   -1.1394    0.7563 C   0  0  0  0  0  0  0  0  0  0  0  0
   -0.6266   -1.5708    0.5072 C   0  0  0  0  0  0  0  0  0  0  0  0
  1 19  1  0
  1 25  1  0
  2 20  1  0
  2 26  1  0
  3 21  1  0
  3 27  1  0
  4 22  1  0
  4 28  1  0
  5 23  1  0
  5 29  1  0
  6 24  1  0
  6 30  1  0
  7 19  1  0
  8 20  1  0
  9 21  1  0
 10 22  1  0
 11 23  1  0
 12 24  1  0
 13 19  2  0
 14 20  2  0
 15 21  2  0
 16 22  2  0
 17 23  2  0
 18 24  2  0
 25 26  1  0
 25 27  1  0
 26 28  1  0
 27 29  1  0
 28 30  1  0
 29 30  1  0
M  CHG  8   7  -1   8  -1   9  -1  10  -1  11  -1  12  -1  19   1  20   1
M  CHG  4  21   1  22   1  23   1  24   1
M  END
>  <PUBCHEM_COMPOUND_CID>  (1) 
23746

>  <PUBCHEM_CONFORMER_RMSD>  (1) 
1.2

>  <PUBCHEM_CONFORMER_DIVERSEORDER>  (1) 
1
4
2
3

>  <PUBCHEM_MMFF94_PARTIAL_CHARGES>  (1) 
30
1 -0.27
10 -0.52
11 -0.52
12 -0.52
13 -0.52
14 -0.52
15 -0.52
16 -0.52
17 -0.52
18 -0.52
19 1.03
2 -0.27
20 1.03
21 1.03
22 1.03
23 1.03
24 1.03
25 0.28
26 0.28
27 0.28
28 0.28
29 0.28
3 -0.27
30 0.28
4 -0.27
5 -0.27
6 -0.27
7 -0.52
8 -0.52
9 -0.52

>  <PUBCHEM_EFFECTIVE_ROTOR_COUNT>  (1) 
13.2

>  <PUBCHEM_PHARMACOPHORE_FEATURES>  (1) 
13
1 10 acceptor
1 11 acceptor
1 12 acceptor
1 13 acceptor
1 14 acceptor
1 15 acceptor
1 16 acceptor
1 17 acceptor
1 18 acceptor
1 7 acceptor
1 8 acceptor
1 9 acceptor
6 25 26 27 28 29 30 rings

>  <PUBCHEM_HEAVY_ATOM_COUNT>  (1) 
30

>  <PUBCHEM_ATOM_DEF_STEREO_COUNT>  (1) 
0

>  <PUBCHEM_ATOM_UDEF_STEREO_COUNT>  (1) 
0

>  <PUBCHEM_BOND_DEF_STEREO_COUNT>  (1) 
0

>  <PUBCHEM_BOND_UDEF_STEREO_COUNT>  (1) 
0

>  <PUBCHEM_ISOTOPIC_ATOM_COUNT>  (1) 
0

>  <PUBCHEM_COMPONENT_COUNT>  (1) 
1

>  <PUBCHEM_CACTVS_TAUTO_COUNT>  (1) 
1

>  <PUBCHEM_CONFORMER_ID>  (1) 
00005CC200000001

>  <PUBCHEM_MMFF94_ENERGY>  (1) 
122.1749

>  <PUBCHEM_FEATURE_SELFOVERLAP>  (1) 
66.415

>  <PUBCHEM_SHAPE_FINGERPRINT>  (1) 
11578080 2 18336534010335588589
133893 2 17677321853000201482
16945 1 17757318959924039649
17980427 23 17130679769936534442
20600515 1 17772727412981113552
20691752 17 17754749543358621740
229495 10 17968959512311334836
23419403 2 18116144472280200361
2748010 2 17397271529504978179
3380486 145 18191282915537844818
394222 165 17612644064959133112
81228 2 17263595564658372953

>  <PUBCHEM_SHAPE_MULTIPOLES>  (1) 
481.85
4.66
3.9
3.42
0.71
1.54
0.86
1.18
-1.84
0.44
0.45
-1.05
-1.94
-0.84

>  <PUBCHEM_SHAPE_SELFOVERLAP>  (1) 
990.696

>  <PUBCHEM_SHAPE_VOLUME>  (1) 
274.7

>  <PUBCHEM_COORDINATE_TYPE>  (1) 
2
5
10

$$$$
