23750
     RDKit          3D

 16 17  0  0  0  0  0  0  0  0999 V2000
   -1.8259   -2.6102    0.1241 Cl  0  0  0  0  0  0  0  0  0  0  0  0
    1.8256    2.6103   -0.1277 Cl  0  0  0  0  0  0  0  0  0  0  0  0
   -0.3181   -0.0109    0.5398 N   0  0  0  0  0  0  0  0  0  0  0  0
    0.3176    0.0106   -0.5393 N   0  0  0  0  0  0  0  0  0  0  0  0
   -1.6911    0.1074    0.2866 C   0  0  0  0  0  0  0  0  0  0  0  0
    1.6946   -0.1079   -0.2850 C   0  0  0  0  0  0  0  0  0  0  0  0
   -2.4900   -1.0172    0.0796 C   0  0  0  0  0  0  0  0  0  0  0  0
    2.4892    1.0172   -0.0796 C   0  0  0  0  0  0  0  0  0  0  0  0
   -2.2564    1.3819    0.2432 C   0  0  0  0  0  0  0  0  0  0  0  0
    2.2559   -1.3820   -0.2421 C   0  0  0  0  0  0  0  0  0  0  0  0
   -3.8541   -0.8672   -0.1707 C   0  0  0  0  0  0  0  0  0  0  0  0
    3.8535    0.8675    0.1704 C   0  0  0  0  0  0  0  0  0  0  0  0
   -3.6205    1.5318   -0.0071 C   0  0  0  0  0  0  0  0  0  0  0  0
    3.6201   -1.5316    0.0079 C   0  0  0  0  0  0  0  0  0  0  0  0
   -4.4193    0.4073   -0.2142 C   0  0  0  0  0  0  0  0  0  0  0  0
    4.4188   -0.4069    0.2141 C   0  0  0  0  0  0  0  0  0  0  0  0
  1  7  1  0
  2  8  1  0
  3  4  2  0
  3  5  1  0
  4  6  1  0
  5  7  2  0
  5  9  1  0
  6  8  2  0
  6 10  1  0
  7 11  1  0
  8 12  1  0
  9 13  2  0
 10 14  2  0
 11 15  2  0
 12 16  2  0
 13 15  1  0
 14 16  1  0
M  END
>  <PUBCHEM_COMPOUND_CID>  (1) 
23750

>  <PUBCHEM_CONFORMER_RMSD>  (1) 
0.6

>  <PUBCHEM_CONFORMER_DIVERSEORDER>  (1) 
1
4
3
2
6
5

>  <PUBCHEM_MMFF94_PARTIAL_CHARGES>  (1) 
24
1 -0.18
10 -0.15
11 -0.15
12 -0.15
13 -0.15
14 -0.15
15 -0.15
16 -0.15
17 0.15
18 0.15
19 0.15
2 -0.18
20 0.15
21 0.15
22 0.15
23 0.15
24 0.15
3 -0.18
4 -0.18
5 0.18
6 0.18
7 0.18
8 0.18
9 -0.15

>  <PUBCHEM_EFFECTIVE_ROTOR_COUNT>  (1) 
2

>  <PUBCHEM_PHARMACOPHORE_FEATURES>  (1) 
2
6 5 7 9 11 13 15 rings
6 6 8 10 12 14 16 rings

>  <PUBCHEM_HEAVY_ATOM_COUNT>  (1) 
16

>  <PUBCHEM_ATOM_DEF_STEREO_COUNT>  (1) 
0

>  <PUBCHEM_ATOM_UDEF_STEREO_COUNT>  (1) 
0

>  <PUBCHEM_BOND_DEF_STEREO_COUNT>  (1) 
0

>  <PUBCHEM_BOND_UDEF_STEREO_COUNT>  (1) 
0

>  <PUBCHEM_ISOTOPIC_ATOM_COUNT>  (1) 
0

>  <PUBCHEM_COMPONENT_COUNT>  (1) 
1

>  <PUBCHEM_CACTVS_TAUTO_COUNT>  (1) 
1

>  <PUBCHEM_CONFORMER_ID>  (1) 
00005CC600000001

>  <PUBCHEM_MMFF94_ENERGY>  (1) 
40.7879

>  <PUBCHEM_FEATURE_SELFOVERLAP>  (1) 
10.149

>  <PUBCHEM_SHAPE_FINGERPRINT>  (1) 
10608611 8 18411135874279871721
10616163 171 18268713977039722318
11370993 70 18411978052958198495
12251169 10 18410575097737904510
12500047 106 18410569600058595595
13167823 11 18410853256841957735
14004511 7 18340772554893653617
14144814 61 18410858741504301050
15196674 1 18411138030321532933
15375358 24 18343864402881498206
15442244 35 18339081484519577248
15536298 74 18413388735208708064
17492 89 18337674234111681866
17802600 8 18408881836909726525
17834074 16 18410012156205749066
18186145 218 18341056211729542341
19050596 39 18412265068415814545
200 152 18060696195712558877
20279233 1 18343589533527429094
20645477 56 18407760339676489685
20645477 70 18342458097597886566
21267235 1 18411146826446502478
221490 88 18264778829593022890
2255824 54 18040438815189391342
23402539 116 18342449327664616549
23402655 69 18411139130191947932
23558518 356 17825951708670333410
23559900 14 18342453746911572866
351380 180 18412259532598667469
3545911 37 18411983572096285600
4214541 1 18410573976788363365
474 4 17604434136157114580
5104073 3 18411138043227534795
58051976 100 18409450318807236599
69090 78 18410290302920512803
7364860 26 18341050825999133520
74978 22 18408606980324202867
77779 3 18411139129833160709
93112 12 18410294730688656797
9709674 26 18413113874313529991
9981440 41 17469322990482764040

>  <PUBCHEM_SHAPE_MULTIPOLES>  (1) 
323.05
8.94
2.35
0.67
0
0
0
0
0
0
0
0
0
0

>  <PUBCHEM_SHAPE_SELFOVERLAP>  (1) 
677.328

>  <PUBCHEM_SHAPE_VOLUME>  (1) 
181.7

>  <PUBCHEM_COORDINATE_TYPE>  (1) 
2
5
10

$$$$
