23751
     RDKit          3D

 17 17  0  0  0  0  0  0  0  0999 V2000
    1.9331    0.1011   -0.7315 P   0  0  0  0  0  0  0  0  0  0  0  0
    2.7092   -1.0457    0.1100 O   0  0  0  0  0  0  0  0  0  0  0  0
    2.3097    1.4835    0.0253 O   0  0  0  0  0  0  0  0  0  0  0  0
    0.3779   -0.1353   -0.3510 O   0  0  0  0  0  0  0  0  0  0  0  0
    2.2190    0.1090   -2.2062 O   0  0  0  0  0  0  0  0  0  0  0  0
   -0.5199    1.6756   -1.4175 O   0  0  0  0  0  0  0  0  0  0  0  0
    2.4781   -2.4024   -0.2274 C   0  0  0  0  0  0  0  0  0  0  0  0
    2.0905    1.6111    1.4197 C   0  0  0  0  0  0  0  0  0  0  0  0
   -1.9333    0.1689   -0.2176 C   0  0  0  0  0  0  0  0  0  0  0  0
   -0.6381    0.6706   -0.7354 C   0  0  0  0  0  0  0  0  0  0  0  0
    3.3035   -3.2848    0.6848 C   0  0  0  0  0  0  0  0  0  0  0  0
    2.5263    2.9914    1.8630 C   0  0  0  0  0  0  0  0  0  0  0  0
   -3.0832    0.4116   -0.9429 C   0  0  0  0  0  0  0  0  0  0  0  0
   -1.9529   -0.5274    0.9749 C   0  0  0  0  0  0  0  0  0  0  0  0
   -4.3020   -0.0608   -0.4560 C   0  0  0  0  0  0  0  0  0  0  0  0
   -3.1717   -0.9998    1.4617 C   0  0  0  0  0  0  0  0  0  0  0  0
   -4.3462   -0.7665    0.7462 C   0  0  0  0  0  0  0  0  0  0  0  0
  1  2  1  0
  1  3  1  0
  1  4  1  0
  1  5  2  0
  2  7  1  0
  3  8  1  0
  4 10  1  0
  6 10  2  0
  7 11  1  0
  8 12  1  0
  9 10  1  0
  9 13  2  0
  9 14  1  0
 13 15  1  0
 14 16  2  0
 15 17  2  0
 16 17  1  0
M  END
>  <PUBCHEM_COMPOUND_CID>  (1) 
23751

>  <PUBCHEM_CONFORMER_RMSD>  (1) 
0.8

>  <PUBCHEM_CONFORMER_DIVERSEORDER>  (1) 
1
19
67
18
80
74
72
2
57
71
54
59
60
20
6
47
11
75
13
27
79
35
82
43
4
25
87
65
66
40
17
8
86
64
83
5
52
22
50
84
44
53
55
12
42
30
31
58
39
41
85
21
28
33
78
15
68
69
48
73
70
76
24
62
7
46
77
34
29
56
16
81
63
10
45
51
9
37
3
26
14
36
49
23
61
32
38

>  <PUBCHEM_MMFF94_PARTIAL_CHARGES>  (1) 
20
1 1.51
10 0.63
13 -0.15
14 -0.15
15 -0.15
16 -0.15
17 -0.15
2 -0.55
28 0.15
29 0.15
3 -0.55
30 0.15
31 0.15
32 0.15
4 -0.42
5 -0.7
6 -0.57
7 0.28
8 0.28
9 0.09

>  <PUBCHEM_EFFECTIVE_ROTOR_COUNT>  (1) 
7

>  <PUBCHEM_PHARMACOPHORE_FEATURES>  (1) 
3
1 5 acceptor
1 6 acceptor
6 9 13 14 15 16 17 rings

>  <PUBCHEM_HEAVY_ATOM_COUNT>  (1) 
17

>  <PUBCHEM_ATOM_DEF_STEREO_COUNT>  (1) 
0

>  <PUBCHEM_ATOM_UDEF_STEREO_COUNT>  (1) 
0

>  <PUBCHEM_BOND_DEF_STEREO_COUNT>  (1) 
0

>  <PUBCHEM_BOND_UDEF_STEREO_COUNT>  (1) 
0

>  <PUBCHEM_ISOTOPIC_ATOM_COUNT>  (1) 
0

>  <PUBCHEM_COMPONENT_COUNT>  (1) 
1

>  <PUBCHEM_CACTVS_TAUTO_COUNT>  (1) 
1

>  <PUBCHEM_CONFORMER_ID>  (1) 
00005CC700000001

>  <PUBCHEM_MMFF94_ENERGY>  (1) 
26.2604

>  <PUBCHEM_FEATURE_SELFOVERLAP>  (1) 
15.223

>  <PUBCHEM_SHAPE_FINGERPRINT>  (1) 
10366900 7 18410579517138069216
10382601 240 17845934147200054112
10980938 120 17274823618155589409
12616999 72 17532389710166929127
12932764 1 18343589563913713469
13296908 3 18040158418128276167
13533116 47 18411986858432225587
14022347 108 16660650626758509733
14178342 30 18047751782578851323
14252887 29 18041005076298912473
14787075 74 16622346119647491695
17841504 4 18270393889325718080
1813 80 17202499805491994822
19049666 15 18336539430869048649
19078846 21 17986970556324940128
20539784 86 18130514127451316920
20559304 39 15770061635286442512
20645477 70 18411416189942648999
21524375 3 17342925255646469856
2255824 54 17917435358188757324
23557571 272 17821995511309984605
23559900 14 17967812725830838847
31174 14 18343295964059781012
3286 77 18340486673212016299
474 4 17344343608012926680
495365 180 18339346518545919757
7615 1 16558746823891547609
81228 2 18040710321468640733
9709674 26 17603881017436704691

>  <PUBCHEM_SHAPE_MULTIPOLES>  (1) 
324.35
7.57
2.82
1.67
5.59
0.54
-0.09
2.58
1.54
-5.13
1.53
-0.42
-0.65
1.28

>  <PUBCHEM_SHAPE_SELFOVERLAP>  (1) 
639.203

>  <PUBCHEM_SHAPE_VOLUME>  (1) 
194.3

>  <PUBCHEM_COORDINATE_TYPE>  (1) 
2
5
10

$$$$
