23758
     RDKit          3D

 30 32  0  0  1  0  0  0  0  0999 V2000
    1.7039    2.0443    0.8312 O   0  0  0  0  0  0  0  0  0  0  0  0
    4.3339    1.3175    0.9598 O   0  0  0  0  0  0  0  0  0  0  0  0
    5.2066   -0.9704   -0.3356 O   0  0  0  0  0  0  0  0  0  0  0  0
   -1.7129   -3.7804    1.6968 O   0  0  0  0  0  0  0  0  0  0  0  0
   -3.6495    3.5126   -0.4563 O   0  0  0  0  0  0  0  0  0  0  0  0
   -3.0252    2.1924    1.9889 O   0  0  0  0  0  0  0  0  0  0  0  0
   -2.4849   -2.3925   -0.0012 N   0  0  0  0  0  0  0  0  0  0  0  0
   -1.2216   -1.7259   -0.2407 C   0  0  0  0  0  0  0  0  0  0  0  0
   -0.7848   -2.0037   -1.6898 C   0  0  0  0  0  0  0  0  0  0  0  0
    0.7342   -2.0543   -1.8763 C   0  0  0  0  0  0  0  0  0  0  0  0
   -1.3315   -0.2219    0.0229 C   0  0  0  0  0  0  0  0  0  0  0  0
    1.6122   -1.0781   -1.1273 C   0  0  0  0  0  0  0  0  0  0  0  0
   -0.2379    0.5824   -0.5457 C   0  0  0  0  0  0  0  0  0  0  0  0
    1.1743    0.1083   -0.5100 C   0  0  0  0  0  0  0  0  0  0  0  0
    2.1082    0.8911    0.2053 C   0  0  0  0  0  0  0  0  0  0  0  0
    2.9830   -1.4087   -1.0581 C   0  0  0  0  0  0  0  0  0  0  0  0
   -2.3450    0.3125    0.7319 C   0  0  0  0  0  0  0  0  0  0  0  0
   -0.4219    1.7872   -1.1238 C   0  0  0  0  0  0  0  0  0  0  0  0
   -3.5995   -1.9554   -0.8430 C   0  0  0  0  0  0  0  0  0  0  0  0
    3.4542    0.5361    0.2735 C   0  0  0  0  0  0  0  0  0  0  0  0
    3.8944   -0.6123   -0.3670 C   0  0  0  0  0  0  0  0  0  0  0  0
   -2.6301   -3.3881    0.9705 C   0  0  0  0  0  0  0  0  0  0  0  0
   -2.6296    1.7579    0.9123 C   0  0  0  0  0  0  0  0  0  0  0  0
   -1.6466    2.5418   -1.2275 C   0  0  0  0  0  0  0  0  0  0  0  0
   -2.6154    2.6077   -0.3068 C   0  0  0  0  0  0  0  0  0  0  0  0
   -3.9997   -4.0022    1.1184 C   0  0  0  0  0  0  0  0  0  0  0  0
    1.2601    1.9273    2.1797 C   0  0  0  0  0  0  0  0  0  0  0  0
    4.9761    2.3623    0.2334 C   0  0  0  0  0  0  0  0  0  0  0  0
    5.6212   -1.8113    0.7389 C   0  0  0  0  0  0  0  0  0  0  0  0
   -4.7261    2.9235   -1.1545 C   0  0  0  0  0  0  0  0  0  0  0  0
  1 15  1  0
  1 27  1  0
  2 20  1  0
  2 28  1  0
  3 21  1  0
  3 29  1  0
  4 22  2  0
  5 25  1  0
  5 30  1  0
  6 23  2  0
  7  8  1  0
  7 19  1  0
  7 22  1  0
  8  9  1  0
  8 11  1  0
  9 10  1  0
 10 12  1  0
 11 13  1  0
 11 17  2  0
 12 14  2  0
 12 16  1  0
 13 14  1  0
 13 18  2  0
 14 15  1  0
 15 20  2  0
 16 21  2  0
 17 23  1  0
 18 24  1  0
 20 21  1  0
 22 26  1  0
 23 25  1  0
 24 25  2  0
M  END
>  <PUBCHEM_COMPOUND_CID>  (1) 
23758

>  <PUBCHEM_CONFORMER_RMSD>  (1) 
0.8

>  <PUBCHEM_CONFORMER_DIVERSEORDER>  (1) 
1
36
9
22
35
27
4
8
34
38
19
17
28
15
37
5
10
23
12
21
14
25
33
32
18
16
26
31
20
24
7
30
13
6
2
29
3
11

>  <PUBCHEM_MMFF94_PARTIAL_CHARGES>  (1) 
33
1 -0.36
10 0.14
11 -0.14
12 -0.14
13 -0.03
14 0.03
15 0.08
16 -0.15
17 -0.14
18 -0.15
19 0.3
2 -0.36
20 0.08
21 0.08
22 0.57
23 0.54
24 -0.15
25 0.09
26 0.06
27 0.28
28 0.28
29 0.28
3 -0.36
30 0.28
36 0.15
37 0.15
38 0.15
4 -0.57
42 0.15
5 -0.36
6 -0.57
7 -0.66
8 0.44

>  <PUBCHEM_EFFECTIVE_ROTOR_COUNT>  (1) 
6.6

>  <PUBCHEM_PHARMACOPHORE_FEATURES>  (1) 
9
1 1 acceptor
1 2 acceptor
1 3 acceptor
1 4 acceptor
1 5 acceptor
1 6 acceptor
6 12 14 15 16 20 21 rings
7 11 13 17 18 23 24 25 rings
7 8 9 10 11 12 13 14 rings

>  <PUBCHEM_HEAVY_ATOM_COUNT>  (1) 
30

>  <PUBCHEM_ATOM_DEF_STEREO_COUNT>  (1) 
1

>  <PUBCHEM_ATOM_UDEF_STEREO_COUNT>  (1) 
0

>  <PUBCHEM_BOND_DEF_STEREO_COUNT>  (1) 
0

>  <PUBCHEM_BOND_UDEF_STEREO_COUNT>  (1) 
0

>  <PUBCHEM_ISOTOPIC_ATOM_COUNT>  (1) 
0

>  <PUBCHEM_COMPONENT_COUNT>  (1) 
1

>  <PUBCHEM_CACTVS_TAUTO_COUNT>  (1) 
1

>  <PUBCHEM_CONFORMER_ID>  (1) 
00005CCE00000001

>  <PUBCHEM_MMFF94_ENERGY>  (1) 
153.8088

>  <PUBCHEM_FEATURE_SELFOVERLAP>  (1) 
45.7

>  <PUBCHEM_SHAPE_FINGERPRINT>  (1) 
10688039 33 18192715763835435435
1100329 8 17832138329708726362
12156800 1 17981567625517533611
12236239 1 14997433637828168668
12422481 6 18128280998129824571
12633257 1 18340488846729043576
12788726 201 18264752419928725699
13004483 165 18267302217258401135
131258 38 15510592477652235635
13140716 1 18272368647091084104
13540713 4 18272655658322792140
13583140 156 17968665886956897336
140371 6 18045506579702563631
14223421 5 18270683193795609750
14866123 147 18263077738955120467
14955137 171 17111574943428675669
15775530 1 18056786267792667711
20739085 24 17476082796285146410
21033648 29 18119798128303705004
21133410 52 16684852321116702646
22182313 1 17702964542908330686
23558518 356 18408601487098045844
23569943 247 15408655303870675870
24893989 43 14148872452385142521
350125 39 18201438133475014756
4058900 60 17979079279979652561
474 4 17843959256570159372
5104073 3 18341891905587274194
59755656 520 18190734241860315749
70251023 43 17986370381990828062
81228 2 18337679706310564119

>  <PUBCHEM_SHAPE_MULTIPOLES>  (1) 
577.19
9.33
4.87
1.65
8.98
1.49
-0.27
-0.32
-1.41
-6.56
-0.96
-0.56
0.16
2.07

>  <PUBCHEM_SHAPE_SELFOVERLAP>  (1) 
1232.449

>  <PUBCHEM_SHAPE_VOLUME>  (1) 
318.9

>  <PUBCHEM_COORDINATE_TYPE>  (1) 
2
5
10

$$$$
