23766
     RDKit          3D

 14 14  0  0  1  0  0  0  0  0999 V2000
    3.0079   -0.8571   -0.8402 O   0  0  0  0  0  0  0  0  0  0  0  0
    2.8407    0.1961    1.1937 O   0  0  0  0  0  0  0  0  0  0  0  0
    0.6978    1.6375    0.1547 N   0  0  0  0  0  0  0  0  0  0  0  0
    1.4064    0.6894   -0.5626 N   0  0  0  0  0  0  0  0  0  0  0  0
   -0.6735    1.7150   -0.3301 C   0  0  0  0  0  0  0  0  0  0  0  0
   -1.4080    0.4078   -0.1244 C   0  0  0  0  0  0  0  0  0  0  0  0
   -1.3918    2.8991    0.3138 C   0  0  0  0  0  0  0  0  0  0  0  0
   -1.1212   -0.3598    0.9909 C   0  0  0  0  0  0  0  0  0  0  0  0
   -2.3500    0.0086   -1.0563 C   0  0  0  0  0  0  0  0  0  0  0  0
   -1.7980   -1.5647    1.1804 C   0  0  0  0  0  0  0  0  0  0  0  0
   -3.0269   -1.1962   -0.8668 C   0  0  0  0  0  0  0  0  0  0  0  0
   -2.7509   -1.9829    0.2515 C   0  0  0  0  0  0  0  0  0  0  0  0
    2.4535    0.0278    0.0414 C   0  0  0  0  0  0  0  0  0  0  0  0
    4.1139   -1.6207   -0.3460 C   0  0  0  0  0  0  0  0  0  0  0  0
  1 13  1  0
  1 14  1  0
  2 13  2  0
  3  4  1  0
  3  5  1  0
  4 13  1  0
  5  6  1  0
  5  7  1  0
  6  8  2  0
  6  9  1  0
  8 10  1  0
  9 11  2  0
 10 12  2  0
 11 12  1  0
M  END
>  <PUBCHEM_COMPOUND_CID>  (1) 
23766

>  <PUBCHEM_CONFORMER_RMSD>  (1) 
0.6

>  <PUBCHEM_CONFORMER_DIVERSEORDER>  (1) 
6
20
11
19
5
18
7
22
10
4
9
3
12
15
14
16
21
13
1
2
17
8

>  <PUBCHEM_MMFF94_PARTIAL_CHARGES>  (1) 
20
1 -0.43
10 -0.15
11 -0.15
12 -0.15
13 0.78
14 0.28
19 0.36
2 -0.57
20 0.15
21 0.15
22 0.15
23 0.15
24 0.37
25 0.15
3 -0.64
4 -0.42
5 0.41
6 -0.14
8 -0.15
9 -0.15

>  <PUBCHEM_EFFECTIVE_ROTOR_COUNT>  (1) 
5

>  <PUBCHEM_PHARMACOPHORE_FEATURES>  (1) 
4
1 2 acceptor
1 3 donor
1 4 donor
6 6 8 9 10 11 12 rings

>  <PUBCHEM_HEAVY_ATOM_COUNT>  (1) 
14

>  <PUBCHEM_ATOM_DEF_STEREO_COUNT>  (1) 
0

>  <PUBCHEM_ATOM_UDEF_STEREO_COUNT>  (1) 
1

>  <PUBCHEM_BOND_DEF_STEREO_COUNT>  (1) 
0

>  <PUBCHEM_BOND_UDEF_STEREO_COUNT>  (1) 
0

>  <PUBCHEM_ISOTOPIC_ATOM_COUNT>  (1) 
0

>  <PUBCHEM_COMPONENT_COUNT>  (1) 
1

>  <PUBCHEM_CACTVS_TAUTO_COUNT>  (1) 
2

>  <PUBCHEM_CONFORMER_ID>  (1) 
00005CD600000006

>  <PUBCHEM_MMFF94_ENERGY>  (1) 
28.2794

>  <PUBCHEM_FEATURE_SELFOVERLAP>  (1) 
21.791

>  <PUBCHEM_SHAPE_FINGERPRINT>  (1) 
10610426 29 16629377303518395333
10618630 7 18410296938391680222
11127187 94 18113620088209087975
13296908 3 18411697720595373150
16945 1 17604131714735281045
17834072 14 18337656616186650648
19766037 51 18262818365790015358
20201158 50 18261948673419529315
20361792 2 18271250546275158501
20524608 308 18126847092679174541
20645477 70 17903911498596571983
20711983 138 18409730655448561655
20711985 344 18336542716302564081
20871998 22 18339644567432290497
21296965 67 18339078310739043145
21486144 27 11314306114179943978
23526113 38 18191849322892219325
23559900 14 18337378384469586696
23728640 28 18122065295198346562
2748010 2 18044367455834133113
5262128 65 18261968409205509942
8050 44 10159159210876271235
81228 2 18409445860620991185

>  <PUBCHEM_SHAPE_MULTIPOLES>  (1) 
266.41
5.83
2.52
1.09
6.19
1.28
0.1
-4.04
-0.94
-1.23
0.27
-0.25
-0.24
0.38

>  <PUBCHEM_SHAPE_SELFOVERLAP>  (1) 
539.821

>  <PUBCHEM_SHAPE_VOLUME>  (1) 
155.7

>  <PUBCHEM_COORDINATE_TYPE>  (1) 
2
5
10

$$$$
