2376
     RDKit          3D

 27 32  0  0  1  0  0  0  0  0999 V2000
    0.3395    1.2896    0.4661 O   0  0  0  0  0  0  0  0  0  0  0  0
   -4.2393    2.4536   -0.5308 O   0  0  0  0  0  0  0  0  0  0  0  0
   -5.8173    0.8616    0.3518 O   0  0  0  0  0  0  0  0  0  0  0  0
    4.6752    1.8564   -0.1986 O   0  0  0  0  0  0  0  0  0  0  0  0
    5.8991   -0.2210   -0.1689 O   0  0  0  0  0  0  0  0  0  0  0  0
    1.7998    3.0446    0.0849 O   0  0  0  0  0  0  0  0  0  0  0  0
   -0.2380   -2.2598   -0.5011 N   0  0  0  0  0  0  0  0  0  0  0  0
   -0.4885   -0.8022   -0.4677 C   0  0  0  0  0  0  0  0  0  0  0  0
    0.4096   -0.1567    0.6001 C   0  0  0  0  0  0  0  0  0  0  0  0
   -1.9416   -0.4115   -0.2443 C   0  0  0  0  0  0  0  0  0  0  0  0
   -0.9449   -2.9616    0.5768 C   0  0  0  0  0  0  0  0  0  0  0  0
   -2.8723   -1.3442    0.2807 C   0  0  0  0  0  0  0  0  0  0  0  0
   -2.4624   -2.7704    0.5440 C   0  0  0  0  0  0  0  0  0  0  0  0
    1.8542   -0.4236    0.4159 C   0  0  0  0  0  0  0  0  0  0  0  0
    2.5187    0.7709    0.2096 C   0  0  0  0  0  0  0  0  0  0  0  0
   -2.3579    0.8993   -0.5382 C   0  0  0  0  0  0  0  0  0  0  0  0
   -0.5238   -2.8366   -1.8153 C   0  0  0  0  0  0  0  0  0  0  0  0
   -4.2073   -0.9662    0.4982 C   0  0  0  0  0  0  0  0  0  0  0  0
    1.5622    1.8629    0.2356 C   0  0  0  0  0  0  0  0  0  0  0  0
   -3.6748    1.2361   -0.3043 C   0  0  0  0  0  0  0  0  0  0  0  0
    2.5479   -1.6324    0.4390 C   0  0  0  0  0  0  0  0  0  0  0  0
   -4.5741    0.3290    0.2004 C   0  0  0  0  0  0  0  0  0  0  0  0
    3.8730    0.7863    0.0177 C   0  0  0  0  0  0  0  0  0  0  0  0
    4.5646   -0.4028    0.0360 C   0  0  0  0  0  0  0  0  0  0  0  0
    3.9349   -1.6233    0.2437 C   0  0  0  0  0  0  0  0  0  0  0  0
   -5.5976    2.2090   -0.1127 C   0  0  0  0  0  0  0  0  0  0  0  0
    5.9609    1.2131   -0.3187 C   0  0  0  0  0  0  0  0  0  0  0  0
  1  9  1  0
  1 19  1  0
  2 20  1  0
  2 26  1  0
  3 22  1  0
  3 26  1  0
  4 23  1  0
  4 27  1  0
  5 24  1  0
  5 27  1  0
  6 19  2  0
  7  8  1  0
  7 11  1  0
  7 17  1  0
  8  9  1  0
  8 10  1  0
  9 14  1  0
 10 12  2  0
 10 16  1  0
 11 13  1  0
 12 13  1  0
 12 18  1  0
 14 15  2  0
 14 21  1  0
 15 19  1  0
 15 23  1  0
 16 20  2  0
 18 22  2  0
 20 22  1  0
 21 25  2  0
 23 24  2  0
 24 25  1  0
M  END
>  <PUBCHEM_COMPOUND_CID>  (1) 
2376

>  <PUBCHEM_CONFORMER_RMSD>  (1) 
0.8

>  <PUBCHEM_CONFORMER_DIVERSEORDER>  (1) 
2
1
9
4
5
8
7
3
13
10
6
11
12

>  <PUBCHEM_MMFF94_PARTIAL_CHARGES>  (1) 
31
1 -0.43
10 -0.14
11 0.27
12 -0.14
13 0.14
14 -0.14
15 0.09
16 -0.15
17 0.27
18 -0.15
19 0.63
2 -0.36
20 0.08
21 -0.15
22 0.08
23 0.08
24 0.08
25 -0.15
26 0.56
27 0.56
3 -0.36
34 0.15
38 0.15
39 0.15
4 -0.36
40 0.15
5 -0.36
6 -0.57
7 -0.81
8 0.41
9 0.42

>  <PUBCHEM_EFFECTIVE_ROTOR_COUNT>  (1) 
3.4

>  <PUBCHEM_PHARMACOPHORE_FEATURES>  (1) 
12
1 2 acceptor
1 3 acceptor
1 4 acceptor
1 5 acceptor
1 6 acceptor
1 7 cation
5 1 9 14 15 19 rings
5 2 3 20 22 26 rings
5 4 5 23 24 27 rings
6 10 12 16 18 20 22 rings
6 14 15 21 23 24 25 rings
6 7 8 10 11 12 13 rings

>  <PUBCHEM_HEAVY_ATOM_COUNT>  (1) 
27

>  <PUBCHEM_ATOM_DEF_STEREO_COUNT>  (1) 
0

>  <PUBCHEM_ATOM_UDEF_STEREO_COUNT>  (1) 
2

>  <PUBCHEM_BOND_DEF_STEREO_COUNT>  (1) 
0

>  <PUBCHEM_BOND_UDEF_STEREO_COUNT>  (1) 
0

>  <PUBCHEM_ISOTOPIC_ATOM_COUNT>  (1) 
0

>  <PUBCHEM_COMPONENT_COUNT>  (1) 
1

>  <PUBCHEM_CACTVS_TAUTO_COUNT>  (1) 
1

>  <PUBCHEM_CONFORMER_ID>  (1) 
0000094800000002

>  <PUBCHEM_MMFF94_ENERGY>  (1) 
80.194

>  <PUBCHEM_FEATURE_SELFOVERLAP>  (1) 
61.315

>  <PUBCHEM_SHAPE_FINGERPRINT>  (1) 
10411042 1 17760371389689147931
10906281 52 18200047144028728969
11014199 57 17616534394654323814
11135926 11 18335125498356418158
11578080 2 17272556481271659960
12107183 9 18117548531718137090
12236239 1 18186521008044970824
12403259 415 18060132180628386651
12788726 201 17845938416302458016
13402501 40 18410012100730013333
13785724 45 17689713061161777946
13944108 23 17763176943598879653
14341114 176 18334863792481031697
14790565 3 18337956671002577360
15099037 51 18413670214221949174
15196674 1 18409729560258450410
15238133 3 18261399953299135662
15927050 60 18408603651731155258
1601671 61 18410572868824171960
16087824 20 18266179439603216449
17349148 13 12103848985793751882
1813 80 16370727023889835110
18608769 82 18336550525254897379
20775438 99 16405015513525676551
21033648 144 18335971047924442789
21033648 29 17988911310433206656
21133410 127 17753599450234584405
21133410 171 17115729869623513506
21236236 1 18412262874368430551
21279426 13 18339365149855879558
21421861 104 17750219336835997730
23227448 37 18410855511694643582
23558518 356 17899694849506604882
23559900 14 18343015631898208648
293599 30 18410575076162886624
3004659 81 18261394400223276922
3298306 158 18343306937596208438
335352 9 18410855447886780014
34934 24 18410007750249856970
350125 39 18410576232068297499
3545911 37 18410013238521800393
3680242 22 18188766146449134034
4073 2 17895481422876915338
4214541 1 18409167735718199553
4340502 62 16805608036187585234
474 4 18270398274914679659
5104073 3 18261385685301773250
5265222 85 18267879461437250046
6138700 20 18197218044881810246
6287921 2 17682120216032707940
6328613 192 18409172134034294652
70251023 43 17553187114425291502

>  <PUBCHEM_SHAPE_MULTIPOLES>  (1) 
515.45
12.34
3.23
0.86
2.68
0.67
0.22
-6.91
-0.01
-1.49
0.3
-0.19
0.45
0.22

>  <PUBCHEM_SHAPE_SELFOVERLAP>  (1) 
1182.192

>  <PUBCHEM_SHAPE_VOLUME>  (1) 
267.3

>  <PUBCHEM_COORDINATE_TYPE>  (1) 
2
5
10

$$$$
