23769
     RDKit          3D

 18 20  0  0  0  0  0  0  0  0999 V2000
   -0.7199   -0.2394   -0.0047 C   0  0  0  0  0  0  0  0  0  0  0  0
    0.7200   -0.2396    0.0046 C   0  0  0  0  0  0  0  0  0  0  0  0
   -1.4121   -1.4787   -0.0091 C   0  0  0  0  0  0  0  0  0  0  0  0
    1.4125   -1.4786    0.0090 C   0  0  0  0  0  0  0  0  0  0  0  0
   -1.5155    0.9338   -0.0099 C   0  0  0  0  0  0  0  0  0  0  0  0
    1.5151    0.9338    0.0096 C   0  0  0  0  0  0  0  0  0  0  0  0
   -2.9120    0.8857   -0.0189 C   0  0  0  0  0  0  0  0  0  0  0  0
    2.9118    0.8860    0.0188 C   0  0  0  0  0  0  0  0  0  0  0  0
   -0.6953   -2.6780   -0.0046 C   0  0  0  0  0  0  0  0  0  0  0  0
    0.6957   -2.6780    0.0043 C   0  0  0  0  0  0  0  0  0  0  0  0
   -2.8170   -1.5128   -0.0180 C   0  0  0  0  0  0  0  0  0  0  0  0
    2.8174   -1.5125    0.0183 C   0  0  0  0  0  0  0  0  0  0  0  0
   -3.5629   -0.3382   -0.0227 C   0  0  0  0  0  0  0  0  0  0  0  0
    3.5631   -0.3377    0.0232 C   0  0  0  0  0  0  0  0  0  0  0  0
   -1.0957    2.3089    0.4182 C   0  0  0  0  0  0  0  0  0  0  0  0
    1.0952    2.3089   -0.4182 C   0  0  0  0  0  0  0  0  0  0  0  0
   -3.7627    2.1179   -0.0628 C   0  0  0  0  0  0  0  0  0  0  0  0
    3.7623    2.1183    0.0628 C   0  0  0  0  0  0  0  0  0  0  0  0
  1  2  1  0
  1  3  1  0
  1  5  2  0
  2  4  2  0
  2  6  1  0
  3  9  1  0
  3 11  2  0
  4 10  1  0
  4 12  1  0
  5  7  1  0
  5 15  1  0
  6  8  2  0
  6 16  1  0
  7 13  2  0
  7 17  1  0
  8 14  1  0
  8 18  1  0
  9 10  2  0
 11 13  1  0
 12 14  2  0
M  END
>  <PUBCHEM_COMPOUND_CID>  (1) 
23769

>  <PUBCHEM_CONFORMER_RMSD>  (1) 
0.4

>  <PUBCHEM_CONFORMER_DIVERSEORDER>  (1) 
1

>  <PUBCHEM_MMFF94_PARTIAL_CHARGES>  (1) 
20
10 -0.15
11 -0.15
12 -0.15
13 -0.15
14 -0.15
15 0.14
16 0.14
17 0.14
18 0.14
19 0.15
20 0.15
21 0.15
22 0.15
23 0.15
24 0.15
5 -0.14
6 -0.14
7 -0.14
8 -0.14
9 -0.15

>  <PUBCHEM_EFFECTIVE_ROTOR_COUNT>  (1) 
0

>  <PUBCHEM_PHARMACOPHORE_FEATURES>  (1) 
3
6 1 2 3 4 9 10 rings
6 1 3 5 7 11 13 rings
6 2 4 6 8 12 14 rings

>  <PUBCHEM_HEAVY_ATOM_COUNT>  (1) 
18

>  <PUBCHEM_ATOM_DEF_STEREO_COUNT>  (1) 
0

>  <PUBCHEM_ATOM_UDEF_STEREO_COUNT>  (1) 
0

>  <PUBCHEM_BOND_DEF_STEREO_COUNT>  (1) 
0

>  <PUBCHEM_BOND_UDEF_STEREO_COUNT>  (1) 
0

>  <PUBCHEM_ISOTOPIC_ATOM_COUNT>  (1) 
0

>  <PUBCHEM_COMPONENT_COUNT>  (1) 
1

>  <PUBCHEM_CACTVS_TAUTO_COUNT>  (1) 
1

>  <PUBCHEM_CONFORMER_ID>  (1) 
00005CD900000001

>  <PUBCHEM_MMFF94_ENERGY>  (1) 
133.2649

>  <PUBCHEM_FEATURE_SELFOVERLAP>  (1) 
15.272

>  <PUBCHEM_SHAPE_FINGERPRINT>  (1) 
10608611 8 18410854364911683201
10616163 171 18266181814872098630
10863032 1 18411136935104872454
10967382 1 18410575097553275046
11132069 177 18338791226155248944
11680986 33 18337961082039115163
12173636 292 18338795718664667045
12390115 104 18198643170691105120
13132413 78 18411982506839063812
13140716 1 18337390448262328226
13380535 76 18410571790423559139
13583140 156 17022890272778460809
138480 1 17762336907639481827
13897977 150 18337951173781347053
14790565 3 18338532888083888036
15196674 1 18410573985151470629
15309172 13 18411146813767030385
15442244 35 18338233756886227730
15536298 74 18342739619950599284
16945 1 18410860957686365638
18186145 218 18272661120803832536
19591789 44 18410858762958532098
20510252 161 18270966859337672929
21267235 1 18410582785539856391
21501502 16 18410852165888440646
2334 1 18410856589704573643
23402539 116 18342446020255000894
23463225 33 18335699412543330610
23558518 356 18260832656385487179
23559900 14 18272368634306486866
238 59 17467871265887647533
25 1 18336263418884776431
2748010 2 18410579478441184998
335352 9 18194401091416036318
350125 39 18409736161591347385
5104073 3 18409730655459112113
5939293 188 18050844420971903794
7364860 26 18125440813033426238
7832392 63 18411417267625563670
9709674 26 18412830213303778790

>  <PUBCHEM_SHAPE_MULTIPOLES>  (1) 
370.43
6.15
3.2
0.64
0
0.29
0
-2.42
0
0
0
0
-0.05
-0.07

>  <PUBCHEM_SHAPE_SELFOVERLAP>  (1) 
832.51

>  <PUBCHEM_SHAPE_VOLUME>  (1) 
184.7

>  <PUBCHEM_COORDINATE_TYPE>  (1) 
2
5
10

$$$$
