23779
     RDKit          3D

 24 25  0  0  1  0  0  0  0  0999 V2000
   -0.0957    1.4255   -0.9535 O   0  0  0  0  0  0  0  0  0  0  0  0
   -2.6713   -0.4657   -2.0999 O   0  0  0  0  0  0  0  0  0  0  0  0
    3.2477    0.2037    0.1568 N   0  0  0  0  0  0  0  0  0  0  0  0
    2.0080    0.2801   -0.7227 C   0  0  0  0  0  0  0  0  0  0  0  0
    3.9795    1.5376    0.1194 C   0  0  0  0  0  0  0  0  0  0  0  0
    4.1676   -0.8941   -0.3578 C   0  0  0  0  0  0  0  0  0  0  0  0
    2.8359   -0.1089    1.5882 C   0  0  0  0  0  0  0  0  0  0  0  0
    1.0822    1.3510   -0.1593 C   0  0  0  0  0  0  0  0  0  0  0  0
    2.4522    0.5931   -2.1426 C   0  0  0  0  0  0  0  0  0  0  0  0
    5.2106    1.4554    0.9951 C   0  0  0  0  0  0  0  0  0  0  0  0
    3.4348   -2.2173   -0.3182 C   0  0  0  0  0  0  0  0  0  0  0  0
   -1.2457    1.8116   -0.3168 C   0  0  0  0  0  0  0  0  0  0  0  0
   -2.3531    0.9704   -0.2813 C   0  0  0  0  0  0  0  0  0  0  0  0
   -1.2873    3.0605    0.2951 C   0  0  0  0  0  0  0  0  0  0  0  0
   -3.5143    1.3822    0.3726 C   0  0  0  0  0  0  0  0  0  0  0  0
   -2.3248   -0.3394   -0.9171 C   0  0  0  0  0  0  0  0  0  0  0  0
   -2.4484    3.4724    0.9493 C   0  0  0  0  0  0  0  0  0  0  0  0
   -3.5619    2.6332    0.9880 C   0  0  0  0  0  0  0  0  0  0  0  0
   -1.8864   -1.5694   -0.1931 C   0  0  0  0  0  0  0  0  0  0  0  0
   -1.4963   -1.4563    1.1215 C   0  0  0  0  0  0  0  0  0  0  0  0
   -1.8894   -2.7676   -0.8691 C   0  0  0  0  0  0  0  0  0  0  0  0
   -1.0863   -2.6054    1.7977 C   0  0  0  0  0  0  0  0  0  0  0  0
   -1.4797   -3.9169   -0.1929 C   0  0  0  0  0  0  0  0  0  0  0  0
   -1.0781   -3.8357    1.1404 C   0  0  0  0  0  0  0  0  0  0  0  0
  1  8  1  0
  1 12  1  0
  2 16  2  0
  3  4  1  0
  3  5  1  0
  3  6  1  0
  3  7  1  0
  4  8  1  0
  4  9  1  0
  5 10  1  0
  6 11  1  0
 12 13  2  0
 12 14  1  0
 13 15  1  0
 13 16  1  0
 14 17  2  0
 15 18  2  0
 16 19  1  0
 17 18  1  0
 19 20  2  0
 19 21  1  0
 20 22  1  0
 21 23  2  0
 22 24  2  0
 23 24  1  0
M  CHG  1   3   1
M  END
>  <PUBCHEM_COMPOUND_CID>  (1) 
23779

>  <PUBCHEM_CONFORMER_RMSD>  (1) 
0.8

>  <PUBCHEM_CONFORMER_DIVERSEORDER>  (1) 
2
78
12
38
48
116
8
114
87
90
42
45
46
73
112
34
65
128
22
74
123
110
54
93
119
61
13
72
63
23
79
75
77
31
89
85
66
92
82
37
121
7
120
84
49
11
29
30
106
35
129
27
80
67
10
36
70
32
21
101
51
94
76
14
86
95
33
125
118
127
71
15
68
83
117
56
40
41
4
18
52
47
115
103
28
97
62
99
107
20
64
25
81
57
9
113
109
1
53
43
58
88
24
3
26
91
102
104
60
5
69
16
39
111
6
55
17
124
19
105
108
44
122
96
100
50
98
126
59

>  <PUBCHEM_MMFF94_PARTIAL_CHARGES>  (1) 
30
1 -0.36
12 0.08
13 0.09
14 -0.15
15 -0.15
16 0.4
17 -0.15
18 -0.15
19 0.09
2 -0.57
20 -0.15
21 -0.15
22 -0.15
23 -0.15
24 -0.15
3 -1.01
4 0.5
44 0.15
45 0.15
46 0.15
47 0.15
48 0.15
49 0.15
5 0.5
50 0.15
51 0.15
52 0.15
6 0.5
7 0.5
8 0.28

>  <PUBCHEM_EFFECTIVE_ROTOR_COUNT>  (1) 
8

>  <PUBCHEM_PHARMACOPHORE_FEATURES>  (1) 
5
1 1 acceptor
1 2 acceptor
1 3 cation
6 12 13 14 15 17 18 rings
6 19 20 21 22 23 24 rings

>  <PUBCHEM_HEAVY_ATOM_COUNT>  (1) 
24

>  <PUBCHEM_ATOM_DEF_STEREO_COUNT>  (1) 
0

>  <PUBCHEM_ATOM_UDEF_STEREO_COUNT>  (1) 
1

>  <PUBCHEM_BOND_DEF_STEREO_COUNT>  (1) 
0

>  <PUBCHEM_BOND_UDEF_STEREO_COUNT>  (1) 
0

>  <PUBCHEM_ISOTOPIC_ATOM_COUNT>  (1) 
0

>  <PUBCHEM_COMPONENT_COUNT>  (1) 
1

>  <PUBCHEM_CACTVS_TAUTO_COUNT>  (1) 
1

>  <PUBCHEM_CONFORMER_ID>  (1) 
00005CE300000002

>  <PUBCHEM_MMFF94_ENERGY>  (1) 
104.5553

>  <PUBCHEM_FEATURE_SELFOVERLAP>  (1) 
25.372

>  <PUBCHEM_SHAPE_FINGERPRINT>  (1) 
10366900 7 18129645526340296808
10616163 171 18339643446899416086
12035759 4 17981862191691511189
12156800 1 15150046985603136994
12422481 6 17036116014781890426
12553582 1 17904783402162941750
12592029 89 17906189355876407673
12633257 1 18264474106322128218
12788726 201 18338222890518917691
13135754 10 17606436282085019419
13140716 1 18050574246101582833
133893 2 17468745304785972741
14022349 108 17473552348021217721
14081887 123 18268140028159995528
14178342 30 18336267937612163508
14844126 61 18266451195221203050
14955137 171 17404024717106389883
17980427 23 17677333965298632172
19591789 44 18122067507227712595
23557571 272 18266174122780980442
23558518 356 18411138026306283604
23559900 14 18194667392664349048
23728640 28 18410017628215662947
3298306 158 17543072286032823388
3411729 13 17548150926453553265
35225 105 17984737504111885587
3633792 109 18119223117859973381
392239 28 17905318877843703816
43471831 8 18121510063902626977
463206 1 17544189841019520678
469060 322 15792020029370918371
5265222 85 18049464564671856014
5309563 4 17618505823218759402
57091435 65 17324642185241775258
57527585 103 17096095817117478354
58807428 26 18196106451647953305
6004065 56 17549530164742697119
6287921 2 17692801593797879395
81228 2 18411132575987724501
9709674 26 18342175574996847526

>  <PUBCHEM_SHAPE_MULTIPOLES>  (1) 
477.19
7.66
4.82
1.57
9.43
2.7
0.22
-3.46
-0.92
-4.46
-1.5
0.04
0.36
-0.28

>  <PUBCHEM_SHAPE_SELFOVERLAP>  (1) 
996.604

>  <PUBCHEM_SHAPE_VOLUME>  (1) 
273.4

>  <PUBCHEM_COORDINATE_TYPE>  (1) 
2
5
10

$$$$
