23777
     RDKit          3D

 23 24  0  0  1  0  0  0  0  0999 V2000
   -0.0795   -1.4177   -0.8788 O   0  0  0  0  0  0  0  0  0  0  0  0
    2.4621    0.4618   -2.1168 O   0  0  0  0  0  0  0  0  0  0  0  0
   -3.3478   -0.1844    0.3007 N   0  0  0  0  0  0  0  0  0  0  0  0
   -2.1947   -0.2907   -0.5918 C   0  0  0  0  0  0  0  0  0  0  0  0
   -1.2265   -1.3383   -0.0414 C   0  0  0  0  0  0  0  0  0  0  0  0
   -4.2273    0.9032   -0.1268 C   0  0  0  0  0  0  0  0  0  0  0  0
   -4.0818   -1.4489    0.3410 C   0  0  0  0  0  0  0  0  0  0  0  0
   -2.6572   -0.6331   -2.0083 C   0  0  0  0  0  0  0  0  0  0  0  0
   -3.4812    2.2259   -0.1747 C   0  0  0  0  0  0  0  0  0  0  0  0
   -5.2483   -1.3757    1.3117 C   0  0  0  0  0  0  0  0  0  0  0  0
    1.0914   -1.8113   -0.2860 C   0  0  0  0  0  0  0  0  0  0  0  0
    2.2039   -0.9762   -0.2903 C   0  0  0  0  0  0  0  0  0  0  0  0
    1.1488   -3.0616    0.3217 C   0  0  0  0  0  0  0  0  0  0  0  0
    3.3863   -1.3955    0.3194 C   0  0  0  0  0  0  0  0  0  0  0  0
    2.1591    0.3352   -0.9221 C   0  0  0  0  0  0  0  0  0  0  0  0
    2.3312   -3.4810    0.9316 C   0  0  0  0  0  0  0  0  0  0  0  0
    3.4499   -2.6479    0.9303 C   0  0  0  0  0  0  0  0  0  0  0  0
    1.7546    1.5661   -0.1801 C   0  0  0  0  0  0  0  0  0  0  0  0
    1.4131    1.4524    1.1478 C   0  0  0  0  0  0  0  0  0  0  0  0
    1.7391    2.7656   -0.8536 C   0  0  0  0  0  0  0  0  0  0  0  0
    1.0350    2.6024    1.8408 C   0  0  0  0  0  0  0  0  0  0  0  0
    1.3611    3.9156   -0.1607 C   0  0  0  0  0  0  0  0  0  0  0  0
    1.0090    3.8340    1.1865 C   0  0  0  0  0  0  0  0  0  0  0  0
  1  5  1  0
  1 11  1  0
  2 15  2  0
  3  4  1  0
  3  6  1  0
  3  7  1  0
  4  5  1  0
  4  8  1  0
  6  9  1  0
  7 10  1  0
 11 12  2  0
 11 13  1  0
 12 14  1  0
 12 15  1  0
 13 16  2  0
 14 17  2  0
 15 18  1  0
 16 17  1  0
 18 19  2  0
 18 20  1  0
 19 21  1  0
 20 22  2  0
 21 23  2  0
 22 23  1  0
M  END
>  <PUBCHEM_COMPOUND_CID>  (1) 
23777

>  <PUBCHEM_CONFORMER_RMSD>  (1) 
0.8

>  <PUBCHEM_CONFORMER_DIVERSEORDER>  (1) 
1
92
106
23
35
7
66
71
99
103
102
89
20
105
38
83
4
97
90
74
42
69
58
101
26
109
45
95
75
98
61
85
48
2
67
86
40
57
108
80
78
81
56
76
39
12
55
110
93
47
44
65
94
91
64
19
54
88
70
33
53
17
28
59
96
34
30
27
10
3
6
79
62
84
22
25
37
15
13
60
68
5
14
49
9
43
50
63
36
11
46
29
8
16
52
72
32
21
41
31
18
87
77
51
73
100
24
82
107
104

>  <PUBCHEM_MMFF94_PARTIAL_CHARGES>  (1) 
29
1 -0.36
11 0.08
12 0.09
13 -0.15
14 -0.15
15 0.4
16 -0.15
17 -0.15
18 0.09
19 -0.15
2 -0.57
20 -0.15
21 -0.15
22 -0.15
23 -0.15
3 -0.81
4 0.27
40 0.15
41 0.15
42 0.15
43 0.15
44 0.15
45 0.15
46 0.15
47 0.15
48 0.15
5 0.28
6 0.27
7 0.27

>  <PUBCHEM_EFFECTIVE_ROTOR_COUNT>  (1) 
8

>  <PUBCHEM_PHARMACOPHORE_FEATURES>  (1) 
5
1 1 acceptor
1 2 acceptor
1 3 cation
6 11 12 13 14 16 17 rings
6 18 19 20 21 22 23 rings

>  <PUBCHEM_HEAVY_ATOM_COUNT>  (1) 
23

>  <PUBCHEM_ATOM_DEF_STEREO_COUNT>  (1) 
0

>  <PUBCHEM_ATOM_UDEF_STEREO_COUNT>  (1) 
1

>  <PUBCHEM_BOND_DEF_STEREO_COUNT>  (1) 
0

>  <PUBCHEM_BOND_UDEF_STEREO_COUNT>  (1) 
0

>  <PUBCHEM_ISOTOPIC_ATOM_COUNT>  (1) 
0

>  <PUBCHEM_COMPONENT_COUNT>  (1) 
1

>  <PUBCHEM_CACTVS_TAUTO_COUNT>  (1) 
1

>  <PUBCHEM_CONFORMER_ID>  (1) 
00005CE100000001

>  <PUBCHEM_MMFF94_ENERGY>  (1) 
76.0374

>  <PUBCHEM_FEATURE_SELFOVERLAP>  (1) 
25.371

>  <PUBCHEM_SHAPE_FINGERPRINT>  (1) 
10165383 225 17899714623636249884
10366900 7 18189352302047642435
104564 63 17837489657396051838
12035759 4 17974878093784418270
12156800 1 16677764301706383169
12422481 6 16974786347127369817
12788726 201 17761765166125350418
13004483 165 17906156365989650122
13132413 78 18342448210814902764
13134695 92 18266437859316093846
13140716 1 18050282871130270418
13294875 104 18268424814640679220
13533116 47 18334296492216544719
13583140 156 18409163321140886903
13965767 371 16981545100847842571
14790565 3 18335985380610468068
14955137 171 18412549803764144742
15238133 3 18121226372406105389
17868525 174 18337107861490695417
17980427 23 17273954982663289990
18785283 64 18262799704003958234
19078846 21 18270403780577274551
19930381 70 18192993957694268585
20600515 1 17973163920106218239
21041028 32 18121777227552448326
21524375 3 17839739605872909382
2255824 54 18340205305509261502
23558518 356 17549258589454022710
23559900 14 18113336423421470511
238 59 18265908023518138259
23845131 108 17903355145491520899
31174 14 18335421292052480023
3286 77 18333450945756467279
350125 39 17975694214537528258
57124632 79 18196359527947611553
6438718 38 17197401244987598397
6442390 28 17688040016558869947
7097593 13 18410569557388978415
7808743 9 17254846788917149693
81228 2 17547857352068179022
84936 182 18268708501114097116
8509985 295 18266173925244165637

>  <PUBCHEM_SHAPE_MULTIPOLES>  (1) 
456.61
7.51
5
1.5
11.02
2.85
0.23
-3.53
-1.26
-4.26
-1.73
-0.05
0.37
-0.13

>  <PUBCHEM_SHAPE_SELFOVERLAP>  (1) 
956.057

>  <PUBCHEM_SHAPE_VOLUME>  (1) 
260.1

>  <PUBCHEM_COORDINATE_TYPE>  (1) 
2
5
10

$$$$
