23787
     RDKit          3D

 21 22  0  0  1  0  0  0  0  0999 V2000
   -0.7143   -0.2850   -0.6154 O   0  0  0  0  0  0  0  0  0  0  0  0
   -4.1644    0.7444    0.3550 N   0  0  0  0  0  0  0  0  0  0  0  0
   -2.6825    0.9245    0.0584 C   0  0  0  0  0  0  0  0  0  0  0  0
   -2.1057   -0.4240   -0.3540 C   0  0  0  0  0  0  0  0  0  0  0  0
   -4.3397   -0.2978    1.4501 C   0  0  0  0  0  0  0  0  0  0  0  0
   -4.7538    2.0695    0.8166 C   0  0  0  0  0  0  0  0  0  0  0  0
   -4.8815    0.2817   -0.9051 C   0  0  0  0  0  0  0  0  0  0  0  0
   -2.5415    1.9694   -1.0369 C   0  0  0  0  0  0  0  0  0  0  0  0
    0.0703   -1.3833   -0.3806 C   0  0  0  0  0  0  0  0  0  0  0  0
    1.1097   -1.3241    0.5420 C   0  0  0  0  0  0  0  0  0  0  0  0
    1.3971   -0.0687    1.2973 C   0  0  0  0  0  0  0  0  0  0  0  0
   -0.1889   -2.5583   -1.0790 C   0  0  0  0  0  0  0  0  0  0  0  0
    1.8984   -2.4521    0.7688 C   0  0  0  0  0  0  0  0  0  0  0  0
    2.3817    0.8514    0.6054 C   0  0  0  0  0  0  0  0  0  0  0  0
    0.5998   -3.6862   -0.8522 C   0  0  0  0  0  0  0  0  0  0  0  0
    1.6434   -3.6330    0.0715 C   0  0  0  0  0  0  0  0  0  0  0  0
    1.9065    1.8113   -0.2701 C   0  0  0  0  0  0  0  0  0  0  0  0
    3.7332    0.7107    0.8653 C   0  0  0  0  0  0  0  0  0  0  0  0
    2.8130    2.6587   -0.9072 C   0  0  0  0  0  0  0  0  0  0  0  0
    4.6397    1.5582    0.2283 C   0  0  0  0  0  0  0  0  0  0  0  0
    4.1794    2.5323   -0.6580 C   0  0  0  0  0  0  0  0  0  0  0  0
  1  4  1  0
  1  9  1  0
  2  3  1  0
  2  5  1  0
  2  6  1  0
  2  7  1  0
  3  4  1  0
  3  8  1  0
  9 10  2  0
  9 12  1  0
 10 11  1  0
 10 13  1  0
 11 14  1  0
 12 15  2  0
 13 16  2  0
 14 17  2  0
 14 18  1  0
 15 16  1  0
 17 19  1  0
 18 20  2  0
 19 21  2  0
 20 21  1  0
M  CHG  1   2   1
M  END
>  <PUBCHEM_COMPOUND_CID>  (1) 
23787

>  <PUBCHEM_CONFORMER_RMSD>  (1) 
0.8

>  <PUBCHEM_CONFORMER_DIVERSEORDER>  (1) 
1
57
19
17
18
44
9
65
84
41
27
72
35
20
6
58
15
82
16
29
77
14
22
26
70
34
13
62
51
11
49
83
2
61
5
43
10
33
56
21
79
53
60
68
4
45
78
39
74
36
46
48
55
71
64
76
59
31
7
85
12
3
40
8
63
30
81
37
23
38
67
80
50
54
75
47
52
69
32
28
73
24
42
25
66

>  <PUBCHEM_MMFF94_PARTIAL_CHARGES>  (1) 
29
1 -0.36
10 -0.14
11 0.29
12 -0.15
13 -0.15
14 -0.14
15 -0.15
16 -0.15
17 -0.15
18 -0.15
19 -0.15
2 -1.01
20 -0.15
21 -0.15
3 0.5
39 0.15
4 0.28
40 0.15
41 0.15
42 0.15
43 0.15
44 0.15
45 0.15
46 0.15
47 0.15
5 0.5
6 0.5
7 0.5
9 0.08

>  <PUBCHEM_EFFECTIVE_ROTOR_COUNT>  (1) 
6

>  <PUBCHEM_PHARMACOPHORE_FEATURES>  (1) 
4
1 1 acceptor
1 2 cation
6 14 17 18 19 20 21 rings
6 9 10 12 13 15 16 rings

>  <PUBCHEM_HEAVY_ATOM_COUNT>  (1) 
21

>  <PUBCHEM_ATOM_DEF_STEREO_COUNT>  (1) 
0

>  <PUBCHEM_ATOM_UDEF_STEREO_COUNT>  (1) 
1

>  <PUBCHEM_BOND_DEF_STEREO_COUNT>  (1) 
0

>  <PUBCHEM_BOND_UDEF_STEREO_COUNT>  (1) 
0

>  <PUBCHEM_ISOTOPIC_ATOM_COUNT>  (1) 
0

>  <PUBCHEM_COMPONENT_COUNT>  (1) 
1

>  <PUBCHEM_CACTVS_TAUTO_COUNT>  (1) 
1

>  <PUBCHEM_CONFORMER_ID>  (1) 
00005CEB00000001

>  <PUBCHEM_MMFF94_ENERGY>  (1) 
82.7237

>  <PUBCHEM_FEATURE_SELFOVERLAP>  (1) 
20.297

>  <PUBCHEM_SHAPE_FINGERPRINT>  (1) 
10382601 240 18260263010757100696
11823591 26 18338790221291494860
12173636 292 18051685848352395598
12422481 6 17905292201901561794
12592029 89 18408326579442744464
12633257 1 17749378252694076737
12788726 201 17617942869117732798
128238 76 18120941874062893419
12954195 1 18057323005571094318
13583140 156 17169809125131795907
14251757 17 15123236579817441725
14251764 38 18046050576588664325
1454969 45 18193843867498500147
14790565 3 18338521944707651904
14955137 171 18266454318195495410
16752209 62 17982436389510542054
17134986 127 18410292540709114134
1813 80 17483686597981381646
18785283 64 18336830797229334058
19591789 44 18267303312205321730
20567600 9 18269288871291867101
20681677 76 18044363947136035397
20739085 24 18266456495458480130
21524375 3 18336541724228142794
2255824 54 18270116786642084759
23419403 2 17759291454078721490
23557571 272 17189514899427342360
23558518 356 17542220607314683692
23559900 14 18191866717694481803
2637199 183 18409736192067835004
298252 57 18337669827780236842
3060560 45 18408885127318483196
3610482 184 17390809009065190788
3729539 64 18124345764699695470
458136 41 18342465828570420819
474 4 18409725162422766919
5048184 11 18340484564214288477
57724786 102 18125447410847193065
7364860 26 18339923693040914686
81228 2 17474934906251379962
81539 233 18408885131022743106
8272917 22 18339925900907117537

>  <PUBCHEM_SHAPE_MULTIPOLES>  (1) 
421.32
9.25
4.19
1.21
7.27
3.5
0.11
-8.59
1.31
-3.31
-1.15
0.4
0.02
-0.71

>  <PUBCHEM_SHAPE_SELFOVERLAP>  (1) 
875.385

>  <PUBCHEM_SHAPE_VOLUME>  (1) 
242.8

>  <PUBCHEM_COORDINATE_TYPE>  (1) 
2
5
10

$$$$
