2378
     RDKit          3D

 24 27  0  0  1  0  0  0  0  0999 V2000
    2.4626   -1.5480   -0.0918 N   0  0  0  0  0  0  0  0  0  0  0  0
    3.0944   -3.6194    0.0204 N   0  0  0  0  0  0  0  0  0  0  0  0
    1.8700   -0.2944   -0.6594 C   0  0  0  0  0  0  0  0  0  0  0  0
    0.3917   -0.1904   -0.4914 C   0  0  0  0  0  0  0  0  0  0  0  0
    2.7138    0.9362   -0.2824 C   0  0  0  0  0  0  0  0  0  0  0  0
   -0.3896    0.3565   -1.5095 C   0  0  0  0  0  0  0  0  0  0  0  0
   -0.2096   -0.6399    0.6842 C   0  0  0  0  0  0  0  0  0  0  0  0
   -2.3733    0.0046   -0.1763 C   0  0  0  0  0  0  0  0  0  0  0  0
    3.8612    1.1801   -0.9936 C   0  0  0  0  0  0  0  0  0  0  0  0
    2.2790    1.7320    0.7469 C   0  0  0  0  0  0  0  0  0  0  0  0
   -1.7720    0.4541   -1.3518 C   0  0  0  0  0  0  0  0  0  0  0  0
   -1.5921   -0.5424    0.8418 C   0  0  0  0  0  0  0  0  0  0  0  0
    3.0015   -1.6424    1.1249 C   0  0  0  0  0  0  0  0  0  0  0  0
    2.5189   -2.7140   -0.7393 C   0  0  0  0  0  0  0  0  0  0  0  0
   -3.8075    0.1049   -0.0127 C   0  0  0  0  0  0  0  0  0  0  0  0
    4.6260    2.2954   -0.6521 C   0  0  0  0  0  0  0  0  0  0  0  0
    3.0438    2.8475    1.0883 C   0  0  0  0  0  0  0  0  0  0  0  0
    3.3972   -2.9580    1.1841 C   0  0  0  0  0  0  0  0  0  0  0  0
    4.2173    3.1291    0.3887 C   0  0  0  0  0  0  0  0  0  0  0  0
   -4.3663    1.2512    0.5530 C   0  0  0  0  0  0  0  0  0  0  0  0
   -4.6314   -0.9439   -0.4211 C   0  0  0  0  0  0  0  0  0  0  0  0
   -5.7488    1.3482    0.7105 C   0  0  0  0  0  0  0  0  0  0  0  0
   -6.0140   -0.8466   -0.2636 C   0  0  0  0  0  0  0  0  0  0  0  0
   -6.5726    0.2994    0.3022 C   0  0  0  0  0  0  0  0  0  0  0  0
  1  3  1  0
  1 13  1  0
  1 14  1  0
  2 14  2  0
  2 18  1  0
  3  4  1  0
  3  5  1  0
  4  6  2  0
  4  7  1  0
  5  9  2  0
  5 10  1  0
  6 11  1  0
  7 12  2  0
  8 11  2  0
  8 12  1  0
  8 15  1  0
  9 16  1  0
 10 17  2  0
 13 18  2  0
 15 20  2  0
 15 21  1  0
 16 19  2  0
 17 19  1  0
 20 22  1  0
 21 23  2  0
 22 24  2  0
 23 24  1  0
M  END
>  <PUBCHEM_COMPOUND_CID>  (1) 
2378

>  <PUBCHEM_CONFORMER_RMSD>  (1) 
0.8

>  <PUBCHEM_CONFORMER_DIVERSEORDER>  (1) 
1
8
6
4
5
7
9
13
12
10
11
3
2

>  <PUBCHEM_MMFF94_PARTIAL_CHARGES>  (1) 
39
1 0.05
10 -0.15
11 -0.15
12 -0.15
13 -0.3
14 0.04
16 -0.15
17 -0.15
18 0.08
19 -0.15
2 -0.57
20 -0.15
21 -0.15
22 -0.15
23 -0.15
24 -0.15
26 0.15
27 0.15
28 0.15
29 0.15
3 0.54
30 0.15
31 0.15
32 0.15
33 0.15
34 0.15
35 0.15
36 0.15
37 0.15
38 0.15
39 0.15
4 -0.14
40 0.15
41 0.15
42 0.15
5 -0.14
6 -0.15
7 -0.15
9 -0.15

>  <PUBCHEM_EFFECTIVE_ROTOR_COUNT>  (1) 
4

>  <PUBCHEM_PHARMACOPHORE_FEATURES>  (1) 
5
3 1 2 14 cation
5 1 2 13 14 18 rings
6 15 20 21 22 23 24 rings
6 4 6 7 8 11 12 rings
6 5 9 10 16 17 19 rings

>  <PUBCHEM_HEAVY_ATOM_COUNT>  (1) 
24

>  <PUBCHEM_ATOM_DEF_STEREO_COUNT>  (1) 
0

>  <PUBCHEM_ATOM_UDEF_STEREO_COUNT>  (1) 
1

>  <PUBCHEM_BOND_DEF_STEREO_COUNT>  (1) 
0

>  <PUBCHEM_BOND_UDEF_STEREO_COUNT>  (1) 
0

>  <PUBCHEM_ISOTOPIC_ATOM_COUNT>  (1) 
0

>  <PUBCHEM_COMPONENT_COUNT>  (1) 
1

>  <PUBCHEM_CACTVS_TAUTO_COUNT>  (1) 
1

>  <PUBCHEM_CONFORMER_ID>  (1) 
0000094A00000001

>  <PUBCHEM_MMFF94_ENERGY>  (1) 
75.0506

>  <PUBCHEM_FEATURE_SELFOVERLAP>  (1) 
25.374

>  <PUBCHEM_SHAPE_FINGERPRINT>  (1) 
10165383 225 18261680380494262996
10411042 1 18051133584579053422
10554248 39 18058443219737562557
10595046 47 18342457067374862759
10670039 82 16056617438345023665
10906281 52 17314244417125380820
10912923 1 18131071524581561315
11405975 8 18340206285378808083
12107183 9 17909274577035221561
12403259 415 17822287947264404037
12616971 3 18200868492574313783
12644460 14 18413393128881124250
12730499 353 18337680809526419659
12788726 201 17346329171852238553
13073987 5 18408891737695067017
13533116 47 18409167688959024923
13540713 4 17677875860467573173
13583140 156 18270973465461493827
13785724 45 17768258907421379063
13878862 14 18265313055016665869
13955234 65 18409165502567567874
14178342 30 17970352739404225666
14461889 52 18042411399263820331
14528608 73 18202003282715442333
14565420 104 18267578190571786696
14739800 52 17988352754158028257
14849402 71 18410290350650891792
14955137 171 18342171134417881890
15081414 286 18040438793519883357
15142526 21 17982444099093091160
15238133 3 17203329940997322235
15250474 111 18129929170481721031
15475509 84 18125721192778113648
15842332 3 17773289379207747975
16992752 21 17764036770851629766
16993427 108 17535449445608065954
17844677 252 18338521825001669641
17868525 174 18121775024070864184
17980427 26 17985527065826662668
1813 80 17771636650771919054
18681886 176 16845575356887802804
18785283 64 18333724724431091896
19377110 9 18129646612972174047
20369508 70 18115585933506247970
20465049 17 18272664462900306132
20554085 129 17916858153935531872
20832881 197 17972883561947540003
21033648 29 18052535766810274968
21049683 271 18187654549152509086
21065198 48 18342177757088147037
21120745 212 17620767085836843350
21344244 78 18129367216659187730
21859007 373 17315052395564283069
22182313 1 17241311504736986511
22393880 68 18058734735397991598
23081809 10 18060416899064975989
23559900 14 17895204302232248702
23845131 108 18192425484075710322
268830 7 18412823560905533973
31174 14 18335696101234419382
3286 77 18262236595226534535
3411729 13 18409730686088339168
3421961 26 18262235521569197310
34797466 226 17703802448399678341
4073 2 18261962959119105067
4340502 62 18337392746091164087
474 4 18265616661426991813
495365 180 18410571812272669426
504579 68 18201993357372725357
5104073 3 18409175390104185235
5385378 56 18409162230287687512
5895379 119 17272585918830326688
5912855 24 18200024187888117791
59755656 520 18196647613342701436
6025842 7 18411418414519397654
621550 34 18187638132975243948
633830 44 18128532859317591692
6442390 28 18120937463057166070
67856867 119 18341889688635056251
77188 2 18122906422384931090
8272917 22 18412829079542753606
9841814 1 18262233297098125538
9971528 1 17822015294097726429

>  <PUBCHEM_SHAPE_MULTIPOLES>  (1) 
483.95
13.25
3.38
1.19
20.59
1.29
-0.08
-4.01
1.31
-7.19
0.84
-0.48
-0.02
-0.72

>  <PUBCHEM_SHAPE_SELFOVERLAP>  (1) 
1078.262

>  <PUBCHEM_SHAPE_VOLUME>  (1) 
258.7

>  <PUBCHEM_COORDINATE_TYPE>  (1) 
2
5
10

$$$$
