23797
     RDKit          3D

 17 19  0  0  0  0  0  0  0  0999 V2000
    2.5166    2.3243    0.5507 S   0  0  0  0  0  0  0  0  0  0  0  0
   -0.7089   -0.5994   -1.5838 O   0  0  0  0  0  0  0  0  0  0  0  0
   -2.9889    0.1748   -0.2983 N   0  0  0  0  0  0  0  0  0  0  0  0
   -4.2210    0.8218    0.1514 C   0  0  0  0  0  0  0  0  0  0  0  0
   -2.7836   -0.9373    0.6294 C   0  0  0  0  0  0  0  0  0  0  0  0
   -5.1280   -0.3575    0.4700 C   0  0  0  0  0  0  0  0  0  0  0  0
   -4.1835   -1.5126    0.7875 C   0  0  0  0  0  0  0  0  0  0  0  0
   -1.8584    1.0909   -0.3262 C   0  0  0  0  0  0  0  0  0  0  0  0
   -0.6168    0.3486   -0.8024 C   0  0  0  0  0  0  0  0  0  0  0  0
    0.7029    0.7875   -0.3101 C   0  0  0  0  0  0  0  0  0  0  0  0
    1.8174   -0.0684   -0.1360 C   0  0  0  0  0  0  0  0  0  0  0  0
    2.9114    0.6588    0.3434 C   0  0  0  0  0  0  0  0  0  0  0  0
    0.9165    2.0886    0.0125 C   0  0  0  0  0  0  0  0  0  0  0  0
    1.9823   -1.4568   -0.3588 C   0  0  0  0  0  0  0  0  0  0  0  0
    4.1506    0.0404    0.6019 C   0  0  0  0  0  0  0  0  0  0  0  0
    3.2100   -2.0733   -0.1029 C   0  0  0  0  0  0  0  0  0  0  0  0
    4.2815   -1.3304    0.3718 C   0  0  0  0  0  0  0  0  0  0  0  0
  1 12  1  0
  1 13  1  0
  2  9  2  0
  3  4  1  0
  3  5  1  0
  3  8  1  0
  4  6  1  0
  5  7  1  0
  6  7  1  0
  8  9  1  0
  9 10  1  0
 10 11  1  0
 10 13  2  0
 11 12  2  0
 11 14  1  0
 12 15  1  0
 14 16  2  0
 15 17  2  0
 16 17  1  0
M  END
>  <PUBCHEM_COMPOUND_CID>  (1) 
23797

>  <PUBCHEM_CONFORMER_RMSD>  (1) 
0.6

>  <PUBCHEM_CONFORMER_DIVERSEORDER>  (1) 
2
31
5
21
10
26
35
22
28
14
23
24
18
13
15
16
27
25
20
17
33
3
30
19
4
32
39
36
38
29
12
6
41
11
34
40
37
9
1
8
7

>  <PUBCHEM_MMFF94_PARTIAL_CHARGES>  (1) 
19
1 -0.08
10 -0.09
12 0.04
13 -0.11
14 -0.15
15 -0.15
16 -0.15
17 -0.15
2 -0.57
28 0.15
29 0.15
3 -0.81
30 0.15
31 0.15
32 0.15
4 0.27
5 0.27
8 0.33
9 0.6

>  <PUBCHEM_EFFECTIVE_ROTOR_COUNT>  (1) 
4

>  <PUBCHEM_PHARMACOPHORE_FEATURES>  (1) 
5
1 2 acceptor
1 3 cation
5 1 10 11 12 13 rings
5 3 4 5 6 7 rings
6 11 12 14 15 16 17 rings

>  <PUBCHEM_HEAVY_ATOM_COUNT>  (1) 
17

>  <PUBCHEM_ATOM_DEF_STEREO_COUNT>  (1) 
0

>  <PUBCHEM_ATOM_UDEF_STEREO_COUNT>  (1) 
0

>  <PUBCHEM_BOND_DEF_STEREO_COUNT>  (1) 
0

>  <PUBCHEM_BOND_UDEF_STEREO_COUNT>  (1) 
0

>  <PUBCHEM_ISOTOPIC_ATOM_COUNT>  (1) 
0

>  <PUBCHEM_COMPONENT_COUNT>  (1) 
1

>  <PUBCHEM_CACTVS_TAUTO_COUNT>  (1) 
2

>  <PUBCHEM_CONFORMER_ID>  (1) 
00005CF500000002

>  <PUBCHEM_MMFF94_ENERGY>  (1) 
36.4762

>  <PUBCHEM_FEATURE_SELFOVERLAP>  (1) 
25.432

>  <PUBCHEM_SHAPE_FINGERPRINT>  (1) 
11405975 8 18410862053604841393
11552529 35 17986115334401316555
11796584 16 17024854984299135498
12032990 46 18337390440115453038
12107183 9 17910121213730897969
12251169 10 18272652363539608967
12507560 40 18409726274977961501
12553582 1 18270668793414046206
12596602 18 16988839522694845450
12633257 1 18341062847691424427
12644460 14 18339929311280313040
12892183 10 18271807947136458921
13140716 1 18198047283081234104
13533116 47 18340488954382878771
13675066 3 18272081686671224008
13740256 8 18335704910397069994
14252887 29 18060141994781852846
14341114 176 18412552006802052457
14386348 63 18187083944644251755
14790565 3 17760372493020989252
14866123 147 17115793215456754555
15196674 1 18408042922543727291
15375462 189 18342729711577156926
15422964 175 18266457616355442382
15527383 91 18411136935258015672
15653759 3 18333731308230925789
15885798 251 18334296435611648201
16752209 62 14996266029820318997
16945 1 18270941506747169620
17804303 29 18261398823501235903
17834074 16 18334295361822156643
1813 80 16950285109043815381
18785283 64 18190738824976029136
19141452 34 18335423478612709875
193927 3 17168441457895874427
19862831 5 12468359041763035335
200 152 18130777972009062973
20261772 1 18060133249822282398
20281475 54 18260554406818316117
20645477 70 18408600383307196759
20871998 22 18128258891900990070
21041028 32 18272368633705659072
21065198 57 18409449198205809585
21065199 12 18409730703173464457
21267235 1 18341618071215107078
21637258 2 16226311643960486914
21673915 165 18266176330278613059
221490 88 18335145318685827842
231179 274 10952048953093170084
23184049 59 18131068212344066300
23402539 116 14346071971781445262
23557571 272 17022894657972082732
23559900 14 18260828224047835333
26918003 58 18410571773591512017
2748010 2 17912065167790577492
316301 35 17967814989374141018
3286 77 18334013899651064076
3421961 26 18411135827451735768
351380 180 18413669111101065385
42 15 18409168805333828713
4214541 1 18408886201039493961
5104073 3 18410859875908612849
5924683 9 18201154464545696807
6049 1 18113887247906989581
83771 10 18261111846418230900
9709674 26 18116156743518541187

>  <PUBCHEM_SHAPE_MULTIPOLES>  (1) 
342.85
9.65
2.15
0.92
7.71
0.32
0.13
-3.18
-2.72
-1.72
-0.23
0.17
-0.08
0.66

>  <PUBCHEM_SHAPE_SELFOVERLAP>  (1) 
730.352

>  <PUBCHEM_SHAPE_VOLUME>  (1) 
192.5

>  <PUBCHEM_COORDINATE_TYPE>  (1) 
2
5
10

$$$$
