23791
     RDKit          3D

 16 17  0  0  1  0  0  0  0  0999 V2000
   -5.3349   -1.7374    0.7661 Cl  0  0  0  0  0  0  0  0  0  0  0  0
    1.9792    1.9254    1.3411 S   0  0  0  0  0  0  0  0  0  0  0  0
   -2.0528    0.4149   -0.1662 N   0  0  0  0  0  0  0  0  0  0  0  0
   -1.0243   -0.4889    0.2914 C   0  0  0  0  0  0  0  0  0  0  0  0
    0.2683    0.1975    0.5408 C   0  0  0  0  0  0  0  0  0  0  0  0
   -3.3320   -0.2850   -0.3458 C   0  0  0  0  0  0  0  0  0  0  0  0
   -1.6640    1.0675   -1.4237 C   0  0  0  0  0  0  0  0  0  0  0  0
    1.5415   -0.3051    0.1087 C   0  0  0  0  0  0  0  0  0  0  0  0
    2.5788    0.5536    0.4857 C   0  0  0  0  0  0  0  0  0  0  0  0
    0.3654    1.3912    1.2157 C   0  0  0  0  0  0  0  0  0  0  0  0
   -3.7949   -0.8709    0.9791 C   0  0  0  0  0  0  0  0  0  0  0  0
   -2.7459    2.0188   -1.9058 C   0  0  0  0  0  0  0  0  0  0  0  0
    1.8729   -1.4821   -0.6051 C   0  0  0  0  0  0  0  0  0  0  0  0
    3.9221    0.2685    0.1710 C   0  0  0  0  0  0  0  0  0  0  0  0
    3.2042   -1.7677   -0.9190 C   0  0  0  0  0  0  0  0  0  0  0  0
    4.2165   -0.9002   -0.5338 C   0  0  0  0  0  0  0  0  0  0  0  0
  1 11  1  0
  2  9  1  0
  2 10  1  0
  3  4  1  0
  3  6  1  0
  3  7  1  0
  4  5  1  0
  5  8  1  0
  5 10  2  0
  6 11  1  0
  7 12  1  0
  8  9  2  0
  8 13  1  0
  9 14  1  0
 13 15  2  0
 14 16  2  0
 15 16  1  0
M  END
>  <PUBCHEM_COMPOUND_CID>  (1) 
23791

>  <PUBCHEM_CONFORMER_RMSD>  (1) 
0.6

>  <PUBCHEM_CONFORMER_DIVERSEORDER>  (1) 
3
45
14
29
21
46
25
13
48
28
44
19
15
10
53
52
43
33
38
1
30
20
51
16
40
41
36
9
50
17
35
37
31
8
4
11
39
42
12
7
2
32
27
34
22
6
5
18
23
49
47
24
26

>  <PUBCHEM_MMFF94_PARTIAL_CHARGES>  (1) 
19
1 -0.29
10 -0.11
11 0.29
13 -0.15
14 -0.15
15 -0.15
16 -0.15
2 -0.08
23 0.15
29 0.15
3 -0.81
30 0.15
31 0.15
32 0.15
4 0.45
5 -0.18
6 0.27
7 0.27
9 0.04

>  <PUBCHEM_EFFECTIVE_ROTOR_COUNT>  (1) 
5

>  <PUBCHEM_PHARMACOPHORE_FEATURES>  (1) 
3
1 3 cation
5 2 5 8 9 10 rings
6 8 9 13 14 15 16 rings

>  <PUBCHEM_HEAVY_ATOM_COUNT>  (1) 
16

>  <PUBCHEM_ATOM_DEF_STEREO_COUNT>  (1) 
0

>  <PUBCHEM_ATOM_UDEF_STEREO_COUNT>  (1) 
0

>  <PUBCHEM_BOND_DEF_STEREO_COUNT>  (1) 
0

>  <PUBCHEM_BOND_UDEF_STEREO_COUNT>  (1) 
0

>  <PUBCHEM_ISOTOPIC_ATOM_COUNT>  (1) 
0

>  <PUBCHEM_COMPONENT_COUNT>  (1) 
1

>  <PUBCHEM_CACTVS_TAUTO_COUNT>  (1) 
1

>  <PUBCHEM_CONFORMER_ID>  (1) 
00005CEF00000003

>  <PUBCHEM_MMFF94_ENERGY>  (1) 
33.9227

>  <PUBCHEM_FEATURE_SELFOVERLAP>  (1) 
15.283

>  <PUBCHEM_SHAPE_FINGERPRINT>  (1) 
10498660 4 17458894934420600165
11471102 20 18131348626653784760
11543360 7 17603878788406271606
11796584 16 17825377489044961562
12236239 1 16272213006897519851
12553582 1 17561080268283080262
12623949 98 18057342758542783991
13296908 3 18271802380805751262
13675066 3 16702306732577562387
13705890 14 18410572856176393542
15219456 202 18412535513985334156
15375462 189 17203889656376301610
16945 1 17917134062170279160
17357779 13 18188477078085937527
17844478 74 18408602569698920365
18186145 218 18335701572885526240
18222031 100 17823416171012583507
18785283 64 18197775720552023936
19141452 34 18341055228778773627
192875 21 13984658174403982070
19433438 38 18334294232472617598
200 152 17560228112517225964
20645477 70 17988912345414810127
20871999 31 17968097491037380293
21041028 32 17704079468778054001
21267235 1 17988938751507112054
21713013 43 18335427815754180206
22094290 60 17822013094826505015
22112679 90 15554437531108225481
22802520 49 18340191991068906948
23402539 116 17313099761059400423
23526113 38 18196918985886301543
23557571 272 18113051649334928661
23598291 2 16271634706552004681
31174 14 18272651298335160409
314173 85 17967819383932130075
3268164 11 17385718089253774783
3286 77 18272097127521511691
3323516 105 18413390942547910090
45790113 50 17917720131901025985
5104073 3 17987800696726739090
6049 1 18409441479859629637
621550 34 18266170811097678337
621550 5 18409457989835345225
7495541 125 18408324419016237058
7615 1 15266478747334854073
77492 1 16056589984597224468
88987 49 17241867831866888469

>  <PUBCHEM_SHAPE_MULTIPOLES>  (1) 
330.01
8.85
2.03
1.44
6.11
0.27
0.4
-4.55
-0.52
0.06
0.2
0.87
0.73
2.49

>  <PUBCHEM_SHAPE_SELFOVERLAP>  (1) 
666.569

>  <PUBCHEM_SHAPE_VOLUME>  (1) 
197.6

>  <PUBCHEM_COORDINATE_TYPE>  (1) 
2
5
10

$$$$
