23808
     RDKit          3D

 24 29  0  0  0  0  0  0  0  0999 V2000
   -0.6971    0.1676    0.0008 C   0  0  0  0  0  0  0  0  0  0  0  0
    0.6971   -0.1676    0.0006 C   0  0  0  0  0  0  0  0  0  0  0  0
   -1.0602    1.5258    0.0010 C   0  0  0  0  0  0  0  0  0  0  0  0
    1.0602   -1.5258    0.0008 C   0  0  0  0  0  0  0  0  0  0  0  0
   -1.6961   -0.8464    0.0008 C   0  0  0  0  0  0  0  0  0  0  0  0
    1.6962    0.8464    0.0000 C   0  0  0  0  0  0  0  0  0  0  0  0
   -2.4983    1.9756    0.0024 C   0  0  0  0  0  0  0  0  0  0  0  0
    2.4983   -1.9757   -0.0003 C   0  0  0  0  0  0  0  0  0  0  0  0
   -3.1417   -0.4839    0.0000 C   0  0  0  0  0  0  0  0  0  0  0  0
    3.1416    0.4839   -0.0001 C   0  0  0  0  0  0  0  0  0  0  0  0
   -3.5225    0.8729    0.0001 C   0  0  0  0  0  0  0  0  0  0  0  0
    3.5225   -0.8729    0.0003 C   0  0  0  0  0  0  0  0  0  0  0  0
   -0.0778    2.5185    0.0006 C   0  0  0  0  0  0  0  0  0  0  0  0
    0.0778   -2.5186    0.0013 C   0  0  0  0  0  0  0  0  0  0  0  0
   -1.2712   -2.1846    0.0013 C   0  0  0  0  0  0  0  0  0  0  0  0
    1.2712    2.1845    0.0000 C   0  0  0  0  0  0  0  0  0  0  0  0
   -4.1802   -1.4383   -0.0014 C   0  0  0  0  0  0  0  0  0  0  0  0
    4.1802    1.4382   -0.0010 C   0  0  0  0  0  0  0  0  0  0  0  0
   -4.8811    1.2421   -0.0007 C   0  0  0  0  0  0  0  0  0  0  0  0
    4.8812   -1.2422    0.0000 C   0  0  0  0  0  0  0  0  0  0  0  0
   -5.5287   -1.0647   -0.0020 C   0  0  0  0  0  0  0  0  0  0  0  0
    5.5286    1.0648   -0.0017 C   0  0  0  0  0  0  0  0  0  0  0  0
   -5.8801    0.2768   -0.0017 C   0  0  0  0  0  0  0  0  0  0  0  0
    5.8802   -0.2767   -0.0011 C   0  0  0  0  0  0  0  0  0  0  0  0
  1  2  1  0
  1  3  1  0
  1  5  2  0
  2  4  2  0
  2  6  1  0
  3  7  1  0
  3 13  2  0
  4  8  1  0
  4 14  1  0
  5  9  1  0
  5 15  1  0
  6 10  1  0
  6 16  2  0
  7 11  1  0
  8 12  1  0
  9 11  2  0
  9 17  1  0
 10 12  2  0
 10 18  1  0
 11 19  1  0
 12 20  1  0
 13 16  1  0
 14 15  2  0
 17 21  2  0
 18 22  2  0
 19 23  2  0
 20 24  2  0
 21 23  1  0
 22 24  1  0
M  END
>  <PUBCHEM_COMPOUND_CID>  (1) 
23808

>  <PUBCHEM_CONFORMER_RMSD>  (1) 
0.6

>  <PUBCHEM_CONFORMER_DIVERSEORDER>  (1) 
1

>  <PUBCHEM_MMFF94_PARTIAL_CHARGES>  (1) 
30
11 -0.14
12 -0.14
13 -0.15
14 -0.15
15 -0.15
16 -0.15
17 -0.15
18 -0.15
19 -0.15
20 -0.15
21 -0.15
22 -0.15
23 -0.15
24 -0.15
29 0.15
3 -0.14
30 0.15
31 0.15
32 0.15
33 0.15
34 0.15
35 0.15
36 0.15
37 0.15
38 0.15
39 0.15
4 -0.14
40 0.15
7 0.29
8 0.29

>  <PUBCHEM_EFFECTIVE_ROTOR_COUNT>  (1) 
0.4

>  <PUBCHEM_PHARMACOPHORE_FEATURES>  (1) 
6
6 1 2 3 6 13 16 rings
6 1 2 4 5 14 15 rings
6 1 3 5 7 9 11 rings
6 10 12 18 20 22 24 rings
6 2 4 6 8 10 12 rings
6 9 11 17 19 21 23 rings

>  <PUBCHEM_HEAVY_ATOM_COUNT>  (1) 
24

>  <PUBCHEM_ATOM_DEF_STEREO_COUNT>  (1) 
0

>  <PUBCHEM_ATOM_UDEF_STEREO_COUNT>  (1) 
0

>  <PUBCHEM_BOND_DEF_STEREO_COUNT>  (1) 
0

>  <PUBCHEM_BOND_UDEF_STEREO_COUNT>  (1) 
0

>  <PUBCHEM_ISOTOPIC_ATOM_COUNT>  (1) 
0

>  <PUBCHEM_COMPONENT_COUNT>  (1) 
1

>  <PUBCHEM_CACTVS_TAUTO_COUNT>  (1) 
1

>  <PUBCHEM_CONFORMER_ID>  (1) 
00005D0000000001

>  <PUBCHEM_MMFF94_ENERGY>  (1) 
84.682

>  <PUBCHEM_FEATURE_SELFOVERLAP>  (1) 
30.598

>  <PUBCHEM_SHAPE_FINGERPRINT>  (1) 
10 15 18336819893003598416
10906281 52 18338818761111442626
10967382 1 18410855464449541826
1100329 8 18338799047206240315
11112241 14 16484136292813980008
11578080 2 16807557380489269959
11646440 116 18201446899661275241
11963148 33 18409161142844440099
12011746 2 18410575088958046324
12107183 9 17618222810474218227
12166972 35 17821732723962527116
12236239 1 18410856559639789573
12403259 415 18411971464494249217
12516196 113 18273494584903936032
12788726 201 17988939863445070016
12838862 33 18338779183067314532
13140716 1 18122625230005338393
13402501 40 18410856563934756880
13862211 1 18410570690943495434
14341114 176 18409454687026164891
14787075 74 18410009939986657131
14790565 3 18410860957697324401
15099037 51 18410293635493134383
15131766 46 16155694573537802780
15196674 1 18410573976561516544
15927050 60 17622724636702724676
1601671 61 18411418414376563432
17492 89 18193834834823918466
1813 80 17313104150668990740
18681886 176 18340762736318879312
19591789 44 18410854343457789834
200 152 18202562878278046513
20028762 73 18130502028645093407
21236236 1 18412263905012914505
21267235 1 18410863144114980102
21279426 13 18338516322394046927
21421861 104 17897722059332087659
21792934 111 18338783520962905680
23402539 116 18343014510494668559
23559900 14 18341606070369938361
3004659 81 18261112968079869908
3178227 256 18336278915817572043
335352 9 18410575101842948541
338550 245 18334860562301563596
34797466 226 16630250298423670008
34934 24 18410852200733560154
350125 39 18410575088979619437
3545911 37 18410012134714938861
3680242 22 18334856065813689746
4073 2 18041285455832486450
4214541 1 18410855451554298305
474229 33 18411418405892318799
5104073 3 18410573963676615602
5486654 2 18411422821313683148
59755656 215 18411142403210618606
6138700 20 18409731725196397530
9709674 26 18412270514946555630

>  <PUBCHEM_SHAPE_MULTIPOLES>  (1) 
493.91
12.37
2.61
0.62
0
0
0
0
0.01
0
0
0
0
0

>  <PUBCHEM_SHAPE_SELFOVERLAP>  (1) 
1150.925

>  <PUBCHEM_SHAPE_VOLUME>  (1) 
229.3

>  <PUBCHEM_COORDINATE_TYPE>  (1) 
2
5
10

$$$$
