23806
     RDKit          3D

 20 21  0  0  0  0  0  0  0  0999 V2000
   -5.9194    0.0132    0.1950 O   0  0  0  0  0  0  0  0  0  0  0  0
   -4.6534    0.0035    0.0271 N   0  0  0  0  0  0  0  0  0  0  0  0
    5.6273   -0.0120   -0.1592 N   0  0  0  0  0  0  0  0  0  0  0  0
   -0.5036   -0.0283   -0.5260 N   0  0  0  0  0  0  0  0  0  0  0  0
    0.0780    0.0343    0.5826 N   0  0  0  0  0  0  0  0  0  0  0  0
   -3.9578    1.1867   -0.1314 C   0  0  0  0  0  0  0  0  0  0  0  0
   -3.9584   -1.1902    0.0009 C   0  0  0  0  0  0  0  0  0  0  0  0
    4.2292   -0.0001    0.0275 C   0  0  0  0  0  0  0  0  0  0  0  0
   -1.8964   -0.0176   -0.3390 C   0  0  0  0  0  0  0  0  0  0  0  0
   -2.5791    1.1896   -0.3153 C   0  0  0  0  0  0  0  0  0  0  0  0
   -2.5797   -1.2143   -0.1814 C   0  0  0  0  0  0  0  0  0  0  0  0
    3.5388    1.2118    0.0514 C   0  0  0  0  0  0  0  0  0  0  0  0
    3.5369   -1.2004    0.1884 C   0  0  0  0  0  0  0  0  0  0  0  0
    1.4641    0.0234    0.3971 C   0  0  0  0  0  0  0  0  0  0  0  0
    2.1563    1.2236    0.2362 C   0  0  0  0  0  0  0  0  0  0  0  0
    2.1543   -1.1886    0.3732 C   0  0  0  0  0  0  0  0  0  0  0  0
   -4.7235    2.4650   -0.0991 C   0  0  0  0  0  0  0  0  0  0  0  0
   -4.7244   -2.4567    0.1722 C   0  0  0  0  0  0  0  0  0  0  0  0
    6.4385    1.0975    0.3005 C   0  0  0  0  0  0  0  0  0  0  0  0
    6.2723   -1.1403   -0.8009 C   0  0  0  0  0  0  0  0  0  0  0  0
  1  2  1  0
  2  6  2  0
  2  7  1  0
  3  8  1  0
  3 19  1  0
  3 20  1  0
  4  5  2  0
  4  9  1  0
  5 14  1  0
  6 10  1  0
  6 17  1  0
  7 11  2  0
  7 18  1  0
  8 12  2  0
  8 13  1  0
  9 10  2  0
  9 11  1  0
 12 15  1  0
 13 16  2  0
 14 15  2  0
 14 16  1  0
M  CHG  2   1  -1   2   1
M  END
>  <PUBCHEM_COMPOUND_CID>  (1) 
23806

>  <PUBCHEM_CONFORMER_RMSD>  (1) 
0.6

>  <PUBCHEM_CONFORMER_DIVERSEORDER>  (1) 
1
3
2
4

>  <PUBCHEM_MMFF94_PARTIAL_CHARGES>  (1) 
26
1 -0.75
10 -0.15
11 -0.15
12 -0.15
13 -0.15
14 0.18
15 -0.15
16 -0.15
17 0.14
18 0.14
19 0.37
2 0.57
20 0.37
21 0.15
22 0.15
23 0.15
24 0.15
25 0.15
26 0.15
3 -0.84
4 -0.18
5 -0.18
6 -0.05
7 -0.05
8 0.1
9 0.18

>  <PUBCHEM_EFFECTIVE_ROTOR_COUNT>  (1) 
3

>  <PUBCHEM_PHARMACOPHORE_FEATURES>  (1) 
4
1 1 anion
1 3 cation
6 2 6 7 9 10 11 rings
6 8 12 13 14 15 16 rings

>  <PUBCHEM_HEAVY_ATOM_COUNT>  (1) 
20

>  <PUBCHEM_ATOM_DEF_STEREO_COUNT>  (1) 
0

>  <PUBCHEM_ATOM_UDEF_STEREO_COUNT>  (1) 
0

>  <PUBCHEM_BOND_DEF_STEREO_COUNT>  (1) 
0

>  <PUBCHEM_BOND_UDEF_STEREO_COUNT>  (1) 
0

>  <PUBCHEM_ISOTOPIC_ATOM_COUNT>  (1) 
0

>  <PUBCHEM_COMPONENT_COUNT>  (1) 
1

>  <PUBCHEM_CACTVS_TAUTO_COUNT>  (1) 
1

>  <PUBCHEM_CONFORMER_ID>  (1) 
00005CFE00000001

>  <PUBCHEM_MMFF94_ENERGY>  (1) 
70.4004

>  <PUBCHEM_FEATURE_SELFOVERLAP>  (1) 
20.297

>  <PUBCHEM_SHAPE_FINGERPRINT>  (1) 
10366900 7 16805320011217293400
10411042 1 18121500426576640219
10595046 47 18334575780400234822
10912923 1 17821722832378355640
11287383 113 18411701015272970176
11315181 36 18186519934065925893
11524674 6 16630529561687662943
12107183 9 17759798144175729315
12236239 1 18131634478418460808
12616971 3 14189575277364133419
13073987 5 18334856082571364130
13167823 11 18409445903427920715
13288520 33 18411138061135507263
14251732 16 18337952406584745056
14251764 18 18202285810217200531
14341114 176 18411705378326772581
14933364 13 18412547608998290108
15042514 8 18265899249786760035
15183329 4 18409449150929481850
15196674 1 18410572877477286618
15250474 111 18262221279395074763
15778101 99 18339364063598567921
15788980 27 17489866050950010908
17834072 33 18335421283340862308
17844677 252 18411706516488214601
18681886 176 18340483461161911712
18927931 339 18408608089217433015
200 152 18202002144358906082
20645477 70 18201159850255221174
21065198 48 18261104141378959275
21267235 1 18408328804462676259
21709351 56 18334852839987197836
220451 1 17967534536942102314
2297311 6 18412549807905442749
23081809 10 17603585223381413650
23402539 116 18260544532878231236
23402655 69 18410290290056521560
23522609 53 17751383732334734940
23536379 177 18410855447844666240
23557571 272 18413112740404844373
23559900 14 18339916121393425625
300161 21 18186513285166316815
3004659 81 18336830797888645590
34797466 226 17988650718004518844
3545911 37 18411136922483896577
4073 2 18114187462300701322
4214541 1 18410573976957350313
4463277 17 18412825785582535744
5104073 3 18410005520539150464
542803 24 18342736321363013896
59755656 520 16877944931980596067
6327066 14 17899406503521984565
7062679 117 18333732446450188611
77779 3 18410009940155442689

>  <PUBCHEM_SHAPE_MULTIPOLES>  (1) 
385.8
16.25
1.99
0.7
8.74
0.01
-0.02
0.06
-0.81
-2.4
0.01
0.26
-0.04
0.59

>  <PUBCHEM_SHAPE_SELFOVERLAP>  (1) 
815.539

>  <PUBCHEM_SHAPE_VOLUME>  (1) 
220.1

>  <PUBCHEM_COORDINATE_TYPE>  (1) 
2
5
10

$$$$
