23807
     RDKit          3D

 19 20  0  0  0  0  0  0  0  0999 V2000
   -3.4970   -2.4996   -0.0678 S   0  0  0  0  0  0  0  0  0  0  0  0
    2.8831   -0.2130    0.0314 O   0  0  0  0  0  0  0  0  0  0  0  0
   -4.1105    2.1494    0.0768 O   0  0  0  0  0  0  0  0  0  0  0  0
    6.3528    0.2028    0.0190 O   0  0  0  0  0  0  0  0  0  0  0  0
    5.0945   -1.5981    0.1256 O   0  0  0  0  0  0  0  0  0  0  0  0
   -2.2482   -0.2377    0.0121 N   0  0  0  0  0  0  0  0  0  0  0  0
   -4.6560   -0.1494    0.0010 N   0  0  0  0  0  0  0  0  0  0  0  0
    5.2097   -0.3398    0.0479 N   0  0  0  0  0  0  0  0  0  0  0  0
    1.9019    0.7254   -0.0297 C   0  0  0  0  0  0  0  0  0  0  0  0
   -1.3194   -1.2448   -0.0152 C   0  0  0  0  0  0  0  0  0  0  0  0
    0.5306    0.3812   -0.0139 C   0  0  0  0  0  0  0  0  0  0  0  0
    0.0713   -0.8941    0.0023 C   0  0  0  0  0  0  0  0  0  0  0  0
    2.4441    1.9871   -0.1056 C   0  0  0  0  0  0  0  0  0  0  0  0
   -3.4429   -0.7853   -0.0122 C   0  0  0  0  0  0  0  0  0  0  0  0
    4.0645    0.4570   -0.0055 C   0  0  0  0  0  0  0  0  0  0  0  0
    3.8485    1.8128   -0.0899 C   0  0  0  0  0  0  0  0  0  0  0  0
   -1.7823   -2.5295   -0.0592 C   0  0  0  0  0  0  0  0  0  0  0  0
   -4.9330    1.2398    0.0433 C   0  0  0  0  0  0  0  0  0  0  0  0
   -6.4117    1.5357    0.0395 C   0  0  0  0  0  0  0  0  0  0  0  0
  1 14  1  0
  1 17  1  0
  2  9  1  0
  2 15  1  0
  3 18  2  0
  4  8  1  0
  5  8  2  0
  6 10  1  0
  6 14  2  0
  7 14  1  0
  7 18  1  0
  8 15  1  0
  9 11  1  0
  9 13  2  0
 10 12  1  0
 10 17  2  0
 11 12  2  0
 13 16  1  0
 15 16  2  0
 18 19  1  0
M  CHG  2   4  -1   8   1
M  END
>  <PUBCHEM_COMPOUND_CID>  (1) 
23807

>  <PUBCHEM_CONFORMER_RMSD>  (1) 
0.6

>  <PUBCHEM_CONFORMER_DIVERSEORDER>  (1) 
1
21
18
4
23
15
13
3
20
6
19
17
7
11
10
22
8
5
12
14
16
2
9

>  <PUBCHEM_MMFF94_PARTIAL_CHARGES>  (1) 
25
1 -0.08
10 0.18
11 -0.11
12 -0.1
13 -0.15
14 0.44
15 0.22
16 -0.15
17 -0.11
18 0.57
19 0.06
2 -0.28
20 0.15
21 0.15
22 0.15
23 0.15
24 0.15
25 0.37
3 -0.57
4 -0.52
5 -0.52
6 -0.57
7 -0.49
8 0.96
9 0.09

>  <PUBCHEM_EFFECTIVE_ROTOR_COUNT>  (1) 
5

>  <PUBCHEM_PHARMACOPHORE_FEATURES>  (1) 
8
1 2 acceptor
1 3 acceptor
1 4 acceptor
1 4 anion
1 5 acceptor
1 7 donor
5 1 6 10 14 17 rings
5 2 9 13 15 16 rings

>  <PUBCHEM_HEAVY_ATOM_COUNT>  (1) 
19

>  <PUBCHEM_ATOM_DEF_STEREO_COUNT>  (1) 
0

>  <PUBCHEM_ATOM_UDEF_STEREO_COUNT>  (1) 
0

>  <PUBCHEM_BOND_DEF_STEREO_COUNT>  (1) 
0

>  <PUBCHEM_BOND_UDEF_STEREO_COUNT>  (1) 
1

>  <PUBCHEM_ISOTOPIC_ATOM_COUNT>  (1) 
0

>  <PUBCHEM_COMPONENT_COUNT>  (1) 
1

>  <PUBCHEM_CACTVS_TAUTO_COUNT>  (1) 
3

>  <PUBCHEM_CONFORMER_ID>  (1) 
00005CFF00000001

>  <PUBCHEM_MMFF94_ENERGY>  (1) 
29.8151

>  <PUBCHEM_FEATURE_SELFOVERLAP>  (1) 
40.688

>  <PUBCHEM_SHAPE_FINGERPRINT>  (1) 
11089746 13 18343294881580407325
11405975 8 18336545014257539658
11796584 16 18272654567269788598
12107183 9 18336540500289428154
13073987 5 18264487458885009746
13167823 11 18337388365456903594
13177829 73 18412261705572765313
14251732 17 18343866601994158583
14251764 18 18334010609938223958
15042514 8 18048320235108597923
15183329 4 18411136917935559270
15196674 1 18338516446953385804
15531645 54 18411702062833579238
17834072 8 18343024376213810932
17844677 252 18264497354283749338
18186145 218 17532077462139873810
19141452 34 18408602582446743934
20281389 69 18334294271206697769
20621476 66 18409733958373767061
20645477 56 18409451380223061423
20645477 70 18339081605338071222
20832881 197 18333448721311314618
21054139 6 11312055444011690716
21065198 57 18266740366763236482
21236236 1 18341049705524261823
21279426 13 18268432326137631670
21421861 104 17823123550437530122
23218964 4 18409729547552695106
23402539 116 18273209811787740685
23402655 69 18336828697095477100
23559900 14 18272647987226663720
2838139 119 18412820262529231277
3004659 81 18334860515942964430
32948 21 18410577309857194940
335352 9 18410856542792249702
3545911 37 18412827980120718577
4073 2 18041846237412764810
4214541 1 18410574023969680631
5104073 3 18262232339093182376
532947 4 18200883850592173631
5385378 56 18268437828523728035
543358 83 18335138679141479682
559249 180 18411979169760530194
56616090 46 18410016511524477871
59124914 9 18337953390190518761
59755656 215 18270405988406918262
59755656 520 18334007299157151703
6328613 192 18334583477309346396
633830 44 17604427517527771002
6430166 295 18411418418893109261
7226269 152 18060139816948688529
77779 3 18337110197567684830
9965369 4 18339358565538834131
9995097 60 18413670214517432734
9996256 80 18412829122972844707

>  <PUBCHEM_SHAPE_MULTIPOLES>  (1) 
356.44
14.66
2.55
0.59
3.89
0.47
0.01
-4.68
-0.3
-2.52
0.03
-0.06
0.01
-0.24

>  <PUBCHEM_SHAPE_SELFOVERLAP>  (1) 
746.645

>  <PUBCHEM_SHAPE_VOLUME>  (1) 
203.4

>  <PUBCHEM_COORDINATE_TYPE>  (1) 
2
5
10

$$$$
