23805
     RDKit          3D

 15 16  0  0  1  0  0  0  0  0999 V2000
    1.7255   -1.7768   -2.2308 Cl  0  0  0  0  0  0  0  0  0  0  0  0
   -1.3202   -1.9946    1.4252 S   0  0  0  0  0  0  0  0  0  0  0  0
    2.5798    0.8502    0.7239 N   0  0  0  0  0  0  0  0  0  0  0  0
    1.4319   -0.4634   -1.0309 C   0  0  0  0  0  0  0  0  0  0  0  0
    0.2343   -0.7992   -0.2203 C   0  0  0  0  0  0  0  0  0  0  0  0
    2.7370   -0.2370   -0.2394 C   0  0  0  0  0  0  0  0  0  0  0  0
   -0.9887   -0.0484   -0.2444 C   0  0  0  0  0  0  0  0  0  0  0  0
   -1.9384   -0.6002    0.6212 C   0  0  0  0  0  0  0  0  0  0  0  0
    0.1868   -1.8718    0.6382 C   0  0  0  0  0  0  0  0  0  0  0  0
   -1.3458    1.1069   -0.9810 C   0  0  0  0  0  0  0  0  0  0  0  0
    2.2949    2.1087    0.0345 C   0  0  0  0  0  0  0  0  0  0  0  0
    3.7804    0.9813    1.5494 C   0  0  0  0  0  0  0  0  0  0  0  0
   -3.2198   -0.0333    0.7666 C   0  0  0  0  0  0  0  0  0  0  0  0
   -2.6160    1.6719   -0.8386 C   0  0  0  0  0  0  0  0  0  0  0  0
   -3.5416    1.1057    0.0262 C   0  0  0  0  0  0  0  0  0  0  0  0
  1  4  1  0
  2  8  1  0
  2  9  1  0
  3  6  1  0
  3 11  1  0
  3 12  1  0
  4  5  1  0
  4  6  1  0
  5  7  1  0
  5  9  2  0
  7  8  2  0
  7 10  1  0
  8 13  1  0
 10 14  2  0
 13 15  2  0
 14 15  1  0
M  END
>  <PUBCHEM_COMPOUND_CID>  (1) 
23805

>  <PUBCHEM_CONFORMER_RMSD>  (1) 
0.6

>  <PUBCHEM_CONFORMER_DIVERSEORDER>  (1) 
1
7
2
10
5
9
8
4
6
3

>  <PUBCHEM_MMFF94_PARTIAL_CHARGES>  (1) 
19
1 -0.29
10 -0.15
11 0.27
12 0.27
13 -0.15
14 -0.15
15 -0.15
19 0.15
2 -0.08
20 0.15
27 0.15
28 0.15
29 0.15
3 -0.81
4 0.47
5 -0.18
6 0.27
8 0.04
9 -0.11

>  <PUBCHEM_EFFECTIVE_ROTOR_COUNT>  (1) 
3

>  <PUBCHEM_PHARMACOPHORE_FEATURES>  (1) 
3
1 3 cation
5 2 5 7 8 9 rings
6 7 8 10 13 14 15 rings

>  <PUBCHEM_HEAVY_ATOM_COUNT>  (1) 
15

>  <PUBCHEM_ATOM_DEF_STEREO_COUNT>  (1) 
0

>  <PUBCHEM_ATOM_UDEF_STEREO_COUNT>  (1) 
1

>  <PUBCHEM_BOND_DEF_STEREO_COUNT>  (1) 
0

>  <PUBCHEM_BOND_UDEF_STEREO_COUNT>  (1) 
0

>  <PUBCHEM_ISOTOPIC_ATOM_COUNT>  (1) 
0

>  <PUBCHEM_COMPONENT_COUNT>  (1) 
1

>  <PUBCHEM_CACTVS_TAUTO_COUNT>  (1) 
1

>  <PUBCHEM_CONFORMER_ID>  (1) 
00005CFD00000001

>  <PUBCHEM_MMFF94_ENERGY>  (1) 
34.0065

>  <PUBCHEM_FEATURE_SELFOVERLAP>  (1) 
15.283

>  <PUBCHEM_SHAPE_FINGERPRINT>  (1) 
11132069 177 18335422387374219825
11543360 7 17489293154327280845
11640471 11 15913336792373627448
12251169 10 17967806189175658672
12633257 1 18261107508570236976
12716301 132 17896341197318562370
12824470 246 14274882060100866921
13538477 17 16733563730541340427
13571099 52 18343577447578881986
13583140 156 13841136744704226341
14178342 30 17823422604657366761
14817 1 12334186750433498174
15219456 202 18343025479825259534
15775835 57 17967253087429207912
16945 1 17895211999314614567
17804303 29 17968377836585722890
17846911 113 18259980466418189049
1813 80 15069178962590844282
18186145 218 18269002994326534073
18219364 16 17630889502565137336
19049666 15 18266751172753234230
19786989 88 17846495919936446231
20645464 45 18409167705748296001
20671657 53 16913424909335821630
21296965 12 18199742703729842310
21486144 27 18201736032554085483
21524375 3 18199737197660805576
21639500 275 17561362876862021090
21947302 44 18342461408985529240
22096605 113 17703787015832804885
23388829 49 17184480252578801399
23402539 116 18192418887253960711
23493267 7 16083377322239738203
23526113 38 18123781701933045014
23557571 272 18338534035235203835
23559900 14 18188504487987348606
23598291 2 15480453468181292606
27216 239 17982717864655999840
2748010 2 17972627586487122879
305870 269 17896308130412725827
3071541 236 17603589668440801107
4072396 5 17240483590220205177
53812653 166 18189341181907398799
6049 1 18197244527391265663
7097593 13 17749933553817093952
7364860 26 17901661571156441307
77492 1 15338844114191405927
81228 2 17972061350920858195
88987 49 17895771671680572566
90316 7 16877655751816926749

>  <PUBCHEM_SHAPE_MULTIPOLES>  (1) 
309.43
5.66
2.22
1.61
0.47
0.14
0.42
-2.86
-1.46
0.12
-0.05
1.03
0.62
1.74

>  <PUBCHEM_SHAPE_SELFOVERLAP>  (1) 
629.071

>  <PUBCHEM_SHAPE_VOLUME>  (1) 
185

>  <PUBCHEM_COORDINATE_TYPE>  (1) 
2
5
10

$$$$
