23834
     RDKit          3D

 14 13  0  0  0  0  0  0  0  0999 V2000
   -2.0987    0.8873   -0.3617 O   0  0  0  0  0  0  0  0  0  0  0  0
   -1.0695    0.9714    1.7019 O   0  0  0  0  0  0  0  0  0  0  0  0
    2.5897   -1.0094   -0.8828 C   0  0  0  0  0  0  0  0  0  0  0  0
    2.3928    0.0430    0.2151 C   0  0  0  0  0  0  0  0  0  0  0  0
    1.7525   -2.2843   -0.7329 C   0  0  0  0  0  0  0  0  0  0  0  0
    3.3107    1.2565    0.0654 C   0  0  0  0  0  0  0  0  0  0  0  0
    0.2757   -2.0253   -0.7951 C   0  0  0  0  0  0  0  0  0  0  0  0
   -2.0419   -1.9891    0.1613 C   0  0  0  0  0  0  0  0  0  0  0  0
    3.1412    2.2268    1.2246 C   0  0  0  0  0  0  0  0  0  0  0  0
   -0.5624   -2.2394    0.2298 C   0  0  0  0  0  0  0  0  0  0  0  0
   -2.4870   -0.8973    1.1319 C   0  0  0  0  0  0  0  0  0  0  0  0
   -1.7993    0.4245    0.8851 C   0  0  0  0  0  0  0  0  0  0  0  0
   -1.4876    2.1306   -0.7199 C   0  0  0  0  0  0  0  0  0  0  0  0
   -1.9164    2.5048   -2.1227 C   0  0  0  0  0  0  0  0  0  0  0  0
  1 12  1  0
  1 13  1  0
  2 12  2  0
  3  4  1  0
  3  5  1  0
  4  6  1  0
  5  7  1  0
  6  9  1  0
  7 10  2  0
  8 10  1  0
  8 11  1  0
 11 12  1  0
 13 14  1  0
M  END
>  <PUBCHEM_COMPOUND_CID>  (1) 
23834

>  <PUBCHEM_CONFORMER_RMSD>  (1) 
0.8

>  <PUBCHEM_CONFORMER_DIVERSEORDER>  (1) 
2
83
57
198
364
397
22
8
314
65
1
49
386
161
253
335
408
20
14
157
95
246
369
46
119
87
401
18
367
203
271
216
50
171
182
4
381
283
380
117
111
107
99
350
336
337
27
30
147
28
320
184
84
240
392
332
195
303
136
108
237
127
10
121
413
59
64
247
114
16
291
196
250
276
214
172
154
168
354
155
215
351
274
98
416
100
47
322
56
266
138
51
360
58
394
308
317
334
245
421
285
261
212
374
268
23
202
383
256
63
105
158
217
420
21
263
305
375
159
186
24
356
273
80
338
387
71
229
66
353
248
307
219
150
399
333
167
298
54
109
395
423
295
327
415
120
325
169
191
112
309
200
62
352
316
192
348
72
35
347
402
341
379
255
70
339
326
79
321
153
382
32
257
210
61
287
53
6
251
419
236
243
400
9
13
104
418
166
19
331
11
103
233
194
163
318
37
296
405
293
278
211
227
362
330
116
152
231
102
76
422
365
17
42
412
67
133
313
204
221
349
45
5
389
31
249
122
189
373
15
3
286
404
265
388
144
93
258
188
190
310
254
319
378
34
156
38
48
85
125
384
33
142
232
134
96
340
123
361
128
209
151
88
323
12
393
297
135
315
7
414
205
368
41
260
220
241
26
242
129
264
357
193
343
40
164
280
75
244
208
187
78
201
252
170
218
406
77
126
281
225
355
60
145
275
267
43
224
36
82
207
239
86
411
206
359
137
302
226
92
130
363
197
230
372
74
118
179
180
385
342
115
228
301
304
288
124
110
185
370
279
199
371
329
106
181
292
132
294
81
358
396
289
391
140
407
312
90
39
346
277
299
235
183
178
165
44
417
29
101
409
300
344
306
176
175
143
324
146
97
259
345
89
25
160
52
262
403
69
270
55
398
282
213
410
148
73
94
223
328
290
68
311
234
91
162
177
174
222
390
376
272
173
141
284
269
113
238
377
366
131
149
139

>  <PUBCHEM_MMFF94_PARTIAL_CHARGES>  (1) 
11
1 -0.43
10 -0.29
11 0.06
12 0.66
13 0.28
2 -0.57
23 0.15
29 0.15
5 0.14
7 -0.29
8 0.14

>  <PUBCHEM_EFFECTIVE_ROTOR_COUNT>  (1) 
9

>  <PUBCHEM_PHARMACOPHORE_FEATURES>  (1) 
3
1 2 acceptor
1 9 hydrophobe
5 3 4 5 6 7 hydrophobe

>  <PUBCHEM_HEAVY_ATOM_COUNT>  (1) 
14

>  <PUBCHEM_ATOM_DEF_STEREO_COUNT>  (1) 
0

>  <PUBCHEM_ATOM_UDEF_STEREO_COUNT>  (1) 
0

>  <PUBCHEM_BOND_DEF_STEREO_COUNT>  (1) 
0

>  <PUBCHEM_BOND_UDEF_STEREO_COUNT>  (1) 
1

>  <PUBCHEM_ISOTOPIC_ATOM_COUNT>  (1) 
0

>  <PUBCHEM_COMPONENT_COUNT>  (1) 
1

>  <PUBCHEM_CACTVS_TAUTO_COUNT>  (1) 
1

>  <PUBCHEM_CONFORMER_ID>  (1) 
00005D1A00000002

>  <PUBCHEM_MMFF94_ENERGY>  (1) 
0.8473

>  <PUBCHEM_FEATURE_SELFOVERLAP>  (1) 
15.223

>  <PUBCHEM_SHAPE_FINGERPRINT>  (1) 
13294875 104 17391622286021650402
14614273 12 18341045332445701138
18219364 16 17904219034927828403
220403 375 18336814317207515814
232386 152 11929863842125523825
23419403 2 16336348812909699101
238 59 18125137360714285276
2803657 2 13864464579708616253
3524813 1 17901119524497113244
8050 44 18341894091071609818

>  <PUBCHEM_SHAPE_MULTIPOLES>  (1) 
276.37
5.08
3.5
1.56
3.6
0.29
-0.19
1.97
0.83
-0.41
-1.21
-0.58
1
2.09

>  <PUBCHEM_SHAPE_SELFOVERLAP>  (1) 
507.859

>  <PUBCHEM_SHAPE_VOLUME>  (1) 
175.1

>  <PUBCHEM_COORDINATE_TYPE>  (1) 
2
5
10

$$$$
