23832
     RDKit          3D

 12 11  0  0  0  0  0  0  0  0999 V2000
   -3.2542   -0.5108   -0.0804 O   0  0  0  0  0  0  0  0  0  0  0  0
   -2.4708    1.5873    0.4875 O   0  0  0  0  0  0  0  0  0  0  0  0
    3.8698   -0.2252   -0.3352 C   0  0  0  0  0  0  0  0  0  0  0  0
    2.4904    0.2027    0.1776 C   0  0  0  0  0  0  0  0  0  0  0  0
    4.9522   -0.1971    0.7470 C   0  0  0  0  0  0  0  0  0  0  0  0
    1.4131    0.1800   -0.9125 C   0  0  0  0  0  0  0  0  0  0  0  0
    6.3312   -0.5888    0.2392 C   0  0  0  0  0  0  0  0  0  0  0  0
    0.0755    0.6633   -0.4281 C   0  0  0  0  0  0  0  0  0  0  0  0
   -1.0306   -0.0921   -0.4473 C   0  0  0  0  0  0  0  0  0  0  0  0
   -2.3102    0.4603    0.0467 C   0  0  0  0  0  0  0  0  0  0  0  0
   -4.5694   -0.1506    0.3553 C   0  0  0  0  0  0  0  0  0  0  0  0
   -5.4969   -1.3292    0.1500 C   0  0  0  0  0  0  0  0  0  0  0  0
  1 10  1  0
  1 11  1  0
  2 10  2  0
  3  4  1  0
  3  5  1  0
  4  6  1  0
  5  7  1  0
  6  8  1  0
  8  9  2  0
  9 10  1  0
 11 12  1  0
M  END
>  <PUBCHEM_COMPOUND_CID>  (1) 
23832

>  <PUBCHEM_CONFORMER_RMSD>  (1) 
0.8

>  <PUBCHEM_CONFORMER_DIVERSEORDER>  (1) 
2
55
81
40
47
93
86
82
60
32
102
8
62
88
37
5
94
69
35
57
52
38
99
83
6
67
50
65
98
84
27
95
16
3
56
90
66
78
63
4
76
19
74
1
12
92
59
87
7
96
48
34
71
39
28
100
41
103
18
11
61
106
49
24
42
46
9
75
51
29
26
25
58
31
45
105
73
10
53
15
64
21
97
30
77
101
14
107
20
22
54
17
91
13
36
33
23
85
80
43
89
104
44
72
70
79
68

>  <PUBCHEM_MMFF94_PARTIAL_CHARGES>  (1) 
9
1 -0.43
10 0.71
11 0.28
2 -0.57
24 0.15
25 0.15
6 0.14
8 -0.29
9 -0.14

>  <PUBCHEM_EFFECTIVE_ROTOR_COUNT>  (1) 
7

>  <PUBCHEM_PHARMACOPHORE_FEATURES>  (1) 
3
1 2 acceptor
1 7 hydrophobe
5 3 4 5 6 8 hydrophobe

>  <PUBCHEM_HEAVY_ATOM_COUNT>  (1) 
12

>  <PUBCHEM_ATOM_DEF_STEREO_COUNT>  (1) 
0

>  <PUBCHEM_ATOM_UDEF_STEREO_COUNT>  (1) 
0

>  <PUBCHEM_BOND_DEF_STEREO_COUNT>  (1) 
0

>  <PUBCHEM_BOND_UDEF_STEREO_COUNT>  (1) 
1

>  <PUBCHEM_ISOTOPIC_ATOM_COUNT>  (1) 
0

>  <PUBCHEM_COMPONENT_COUNT>  (1) 
1

>  <PUBCHEM_CACTVS_TAUTO_COUNT>  (1) 
1

>  <PUBCHEM_CONFORMER_ID>  (1) 
00005D1800000002

>  <PUBCHEM_MMFF94_ENERGY>  (1) 
5.0089

>  <PUBCHEM_FEATURE_SELFOVERLAP>  (1) 
15.223

>  <PUBCHEM_SHAPE_FINGERPRINT>  (1) 
100836 57 12175623992458504410
10354089 29 15554448509471713394
12670543 26 13118270465163254418
12714333 28 8646769993534572222
13690532 89 17676206883362672359
14123238 8 17704071798213888764
1420 363 18343867718896729678
14911166 2 12829488159938830829
15048467 5 10663822974787840762
15242433 33 8862947173452455860
15242439 84 12757152385396203844
15501527 16 14333405657779510082
17834072 33 18187087290792884716
17834072 8 12396299261734628694
17834076 25 12103844557856516898
187816 3 13695586650408578181
19433438 28 18059850654376033280
200 152 16950279607069486885
20281389 69 11671788151943937186
20526848 3 11383841480152511475
20645477 56 15770055012468165844
20645477 70 14779532458163953280
20724930 69 11959729374007154156
20767249 13 17095241415183428070
20767249 213 12247681573896412571
21119208 17 11169914983055713142
22224240 67 16056880252094774551
23402539 116 18411978066385925925
23402655 69 9367348128489107036
23559900 14 13767935658162058972
42 15 18411702084208214900
42788 4 18408322190002037324
449060 50 16702301248278813228
49783359 22 18411980260523720930

>  <PUBCHEM_SHAPE_MULTIPOLES>  (1) 
235.22
14.34
1.03
0.8
6.54
0.05
-0.03
-5.92
2.7
-1.03
0.09
0.27
0.04
-0.27

>  <PUBCHEM_SHAPE_SELFOVERLAP>  (1) 
430.818

>  <PUBCHEM_SHAPE_VOLUME>  (1) 
149.9

>  <PUBCHEM_COORDINATE_TYPE>  (1) 
2
5
10

$$$$
