2384
     RDKit          3D

 27 30  0  0  0  0  0  0  0  0999 V2000
    0.2534   -3.3178    1.1368 O   0  0  0  0  0  0  0  0  0  0  0  0
   -0.1480   -3.3210   -1.1448 O   0  0  0  0  0  0  0  0  0  0  0  0
   -1.6577   -0.7773   -0.7617 N   0  0  0  0  0  0  0  0  0  0  0  0
    1.6471   -0.7715    0.7655 N   0  0  0  0  0  0  0  0  0  0  0  0
   -2.0176   -1.6634    1.2445 N   0  0  0  0  0  0  0  0  0  0  0  0
    2.0091   -1.6615   -1.2386 N   0  0  0  0  0  0  0  0  0  0  0  0
   -5.4777    2.6853   -1.8193 N   0  0  0  0  0  0  0  0  0  0  0  0
    5.4586    2.7030    1.8149 N   0  0  0  0  0  0  0  0  0  0  0  0
   -6.7496    2.5213    0.1097 N   0  0  0  0  0  0  0  0  0  0  0  0
    6.7308    2.5374   -0.1137 N   0  0  0  0  0  0  0  0  0  0  0  0
   -0.0032   -2.4544    0.0039 C   0  0  0  0  0  0  0  0  0  0  0  0
   -1.2251   -1.6515    0.1962 C   0  0  0  0  0  0  0  0  0  0  0  0
    1.2754   -1.6102   -0.1996 C   0  0  0  0  0  0  0  0  0  0  0  0
   -2.8057   -0.1855   -0.3008 C   0  0  0  0  0  0  0  0  0  0  0  0
    2.7936   -0.1780    0.3032 C   0  0  0  0  0  0  0  0  0  0  0  0
   -3.0093   -0.7553    0.9530 C   0  0  0  0  0  0  0  0  0  0  0  0
    2.9986   -0.7502   -0.9492 C   0  0  0  0  0  0  0  0  0  0  0  0
   -3.6574    0.7700   -0.8559 C   0  0  0  0  0  0  0  0  0  0  0  0
    3.6431    0.7810    0.8562 C   0  0  0  0  0  0  0  0  0  0  0  0
   -4.1237   -0.3600    1.7120 C   0  0  0  0  0  0  0  0  0  0  0  0
    4.1121   -0.3540   -1.7092 C   0  0  0  0  0  0  0  0  0  0  0  0
   -4.7616    1.1518   -0.0868 C   0  0  0  0  0  0  0  0  0  0  0  0
    4.7463    1.1635    0.0860 C   0  0  0  0  0  0  0  0  0  0  0  0
   -4.9925    0.5981    1.1747 C   0  0  0  0  0  0  0  0  0  0  0  0
    4.9785    0.6075   -1.1740 C   0  0  0  0  0  0  0  0  0  0  0  0
   -5.6816    2.1387   -0.6095 C   0  0  0  0  0  0  0  0  0  0  0  0
    5.6639    2.1539    0.6064 C   0  0  0  0  0  0  0  0  0  0  0  0
  1 11  1  0
  2 11  1  0
  3 12  1  0
  3 14  1  0
  4 13  1  0
  4 15  1  0
  5 12  2  0
  5 16  1  0
  6 13  2  0
  6 17  1  0
  7 26  2  0
  8 27  2  0
  9 26  1  0
 10 27  1  0
 11 12  1  0
 11 13  1  0
 14 16  2  0
 14 18  1  0
 15 17  2  0
 15 19  1  0
 16 20  1  0
 17 21  1  0
 18 22  2  0
 19 23  2  0
 20 24  2  0
 21 25  2  0
 22 24  1  0
 22 26  1  0
 23 25  1  0
 23 27  1  0
M  CHG  2   7   1   8   1
M  END
>  <PUBCHEM_COMPOUND_CID>  (1) 
2384

>  <PUBCHEM_CONFORMER_RMSD>  (1) 
0.8

>  <PUBCHEM_CONFORMER_DIVERSEORDER>  (1) 
1
11
2
6
8
4
10
9
7
5
3

>  <PUBCHEM_MMFF94_PARTIAL_CHARGES>  (1) 
45
1 -0.68
10 -0.75
11 0.92
12 0.01
13 0.01
14 -0.15
15 -0.15
16 0.23
17 0.23
18 -0.15
19 -0.15
2 -0.68
20 -0.15
21 -0.15
22 -0.02
23 -0.02
24 -0.15
25 -0.15
26 0.73
27 0.73
28 0.27
29 0.27
3 0.03
30 0.15
31 0.15
32 0.15
33 0.15
34 0.15
35 0.15
36 0.4
37 0.4
38 0.45
39 0.45
4 0.03
40 0.45
41 0.45
42 0.45
43 0.45
44 0.45
45 0.45
5 -0.57
6 -0.57
7 -0.75
8 -0.75
9 -0.75

>  <PUBCHEM_EFFECTIVE_ROTOR_COUNT>  (1) 
4

>  <PUBCHEM_PHARMACOPHORE_FEATURES>  (1) 
18
1 1 acceptor
1 1 donor
1 10 donor
1 2 acceptor
1 2 donor
1 3 donor
1 4 donor
1 7 donor
1 8 donor
1 9 donor
3 3 5 12 cation
3 4 6 13 cation
3 7 9 26 cation
3 8 10 27 cation
5 3 5 12 14 16 rings
5 4 6 13 15 17 rings
6 14 16 18 20 22 24 rings
6 15 17 19 21 23 25 rings

>  <PUBCHEM_HEAVY_ATOM_COUNT>  (1) 
27

>  <PUBCHEM_ATOM_DEF_STEREO_COUNT>  (1) 
0

>  <PUBCHEM_ATOM_UDEF_STEREO_COUNT>  (1) 
0

>  <PUBCHEM_BOND_DEF_STEREO_COUNT>  (1) 
0

>  <PUBCHEM_BOND_UDEF_STEREO_COUNT>  (1) 
0

>  <PUBCHEM_ISOTOPIC_ATOM_COUNT>  (1) 
0

>  <PUBCHEM_COMPONENT_COUNT>  (1) 
1

>  <PUBCHEM_CACTVS_TAUTO_COUNT>  (1) 
28

>  <PUBCHEM_CONFORMER_ID>  (1) 
0000095000000001

>  <PUBCHEM_MMFF94_ENERGY>  (1) 
62.5989

>  <PUBCHEM_FEATURE_SELFOVERLAP>  (1) 
91.766

>  <PUBCHEM_SHAPE_FINGERPRINT>  (1) 
10319926 262 17240771644327541507
10498660 4 18341898471932892683
11112241 14 18201433714096293289
117089 54 11171280547014175736
11720765 8 17912652311326932694
12363563 72 9583518724100969026
12403259 118 17749961062697411639
12403259 415 18338811064530489922
12422481 6 17458341918599823364
12633257 1 15430038789883991418
13103583 49 15647055996896096146
13383661 66 9871464378302320581
13402501 40 18410572889946067725
14123256 34 9871748013747267781
14429114 114 18193553364300716469
14739800 52 18115298978203632273
14848178 96 18131635608021259712
14950920 106 15574998437186589292
15238133 3 17603592945685282260
16120349 189 18334851748949518604
17870717 6 11959739248342611675
20715895 44 18343018909132289608
21033648 29 18261118477810780286
21196832 93 11527653237632118388
21223535 225 17559134089731651648
21307412 95 11815603178685226637
21401589 2 18338523031302132315
21585481 104 16486424166163790385
21585483 132 12317808383132004796
21756936 100 18189053252001492050
21859007 373 18261106315085968524
21968339 14 17560798806460147144
23379529 103 10951467328764747597
23559900 14 17388273238540007655
25122255 55 9727631709175158701
270888 7 18410853265400250309
2748736 6 18410848867359351749
2838139 119 18338790114043517077
2916195 48 18412266176644133466
314194 84 10809640236896623027
3459 39 18263628693249182000
34797466 226 18059295336990648357
392239 28 14923945682051529025
465052 167 10737287944131062008
474113 269 12035745232361672785
484985 159 9438862589800793559
5104073 3 17894349956170282851
5219985 13 18407761447361366478
56633871 153 11458432344791382881
57591035 28 14102917956523928229
59682541 52 16702026331506323236
6327066 14 18411696608024893781
636775 8 8357994298977766720
7808743 9 18336545022821087402
9981440 41 18113622287496335211
999808 66 11170179957137935864

>  <PUBCHEM_SHAPE_MULTIPOLES>  (1) 
504.06
16.15
3.37
1.52
0.31
0.41
0
-19.61
-0.01
-0.07
0
0.01
-0.19
2.87

>  <PUBCHEM_SHAPE_SELFOVERLAP>  (1) 
1137.371

>  <PUBCHEM_SHAPE_VOLUME>  (1) 
266.5

>  <PUBCHEM_COORDINATE_TYPE>  (1) 
2
5
10

$$$$
