23845
     RDKit          3D

 15 15  0  0  1  0  0  0  0  0999 V2000
   -0.0013    3.1826    0.0386 O   0  0  0  0  0  0  0  0  0  0  0  0
   -3.0895   -1.2551   -1.7760 O   0  0  0  0  0  0  0  0  0  0  0  0
   -3.6529   -1.8010    0.8908 O   0  0  0  0  0  0  0  0  0  0  0  0
    2.1564    0.1887   -0.3489 N   0  0  0  0  0  0  0  0  0  0  0  0
    0.3901    1.9006   -0.4507 C   0  0  0  0  0  0  0  0  0  0  0  0
    1.7428    1.4938    0.1467 C   0  0  0  0  0  0  0  0  0  0  0  0
   -0.6941    0.9074   -0.0941 C   0  0  0  0  0  0  0  0  0  0  0  0
    3.4556   -0.1867    0.1959 C   0  0  0  0  0  0  0  0  0  0  0  0
    3.8711   -1.5608   -0.3235 C   0  0  0  0  0  0  0  0  0  0  0  0
   -1.3953    0.2795   -1.1091 C   0  0  0  0  0  0  0  0  0  0  0  0
   -0.9619    0.6482    1.2389 C   0  0  0  0  0  0  0  0  0  0  0  0
    5.2151   -1.9856    0.2477 C   0  0  0  0  0  0  0  0  0  0  0  0
   -2.3953   -0.6358   -0.7808 C   0  0  0  0  0  0  0  0  0  0  0  0
   -1.9621   -0.2669    1.5672 C   0  0  0  0  0  0  0  0  0  0  0  0
   -2.6788   -0.9089    0.5573 C   0  0  0  0  0  0  0  0  0  0  0  0
  1  5  1  0
  2 13  1  0
  3 15  1  0
  4  6  1  0
  4  8  1  0
  5  6  1  0
  5  7  1  0
  7 10  2  0
  7 11  1  0
  8  9  1  0
  9 12  1  0
 10 13  1  0
 11 14  2  0
 13 15  2  0
 14 15  1  0
M  END
>  <PUBCHEM_COMPOUND_CID>  (1) 
23845

>  <PUBCHEM_CONFORMER_RMSD>  (1) 
0.6

>  <PUBCHEM_CONFORMER_DIVERSEORDER>  (1) 
3
48
49
32
108
94
79
5
102
57
59
97
9
103
18
105
43
7
50
60
92
33
88
42
51
110
54
52
81
10
38
107
84
24
68
64
104
22
4
70
90
100
67
101
77
14
89
21
109
15
31
82
98
73
63
6
111
44
8
72
27
53
23
25
29
96
37
58
11
19
74
12
106
20
62
36
78
83
61
55
99
80
87
2
45
71
66
47
93
1
69
13
40
26
91
56
35
65
34
95
30
75
41
85
76
86
17
39
46
28
16

>  <PUBCHEM_MMFF94_PARTIAL_CHARGES>  (1) 
20
1 -0.68
10 -0.15
11 -0.15
13 0.08
14 -0.15
15 0.08
2 -0.53
21 0.36
24 0.15
25 0.15
29 0.4
3 -0.53
30 0.15
31 0.45
32 0.45
4 -0.9
5 0.42
6 0.27
7 -0.14
8 0.27

>  <PUBCHEM_EFFECTIVE_ROTOR_COUNT>  (1) 
5

>  <PUBCHEM_PHARMACOPHORE_FEATURES>  (1) 
8
1 1 acceptor
1 1 donor
1 12 hydrophobe
1 2 donor
1 3 donor
1 4 cation
1 4 donor
6 7 10 11 13 14 15 rings

>  <PUBCHEM_HEAVY_ATOM_COUNT>  (1) 
15

>  <PUBCHEM_ATOM_DEF_STEREO_COUNT>  (1) 
0

>  <PUBCHEM_ATOM_UDEF_STEREO_COUNT>  (1) 
1

>  <PUBCHEM_BOND_DEF_STEREO_COUNT>  (1) 
0

>  <PUBCHEM_BOND_UDEF_STEREO_COUNT>  (1) 
0

>  <PUBCHEM_ISOTOPIC_ATOM_COUNT>  (1) 
0

>  <PUBCHEM_COMPONENT_COUNT>  (1) 
1

>  <PUBCHEM_CACTVS_TAUTO_COUNT>  (1) 
10

>  <PUBCHEM_CONFORMER_ID>  (1) 
00005D2500000003

>  <PUBCHEM_MMFF94_ENERGY>  (1) 
22.455

>  <PUBCHEM_FEATURE_SELFOVERLAP>  (1) 
40.601

>  <PUBCHEM_SHAPE_FINGERPRINT>  (1) 
10610426 29 17631712976570984845
10968037 57 18129385904157350686
11127187 94 17385724685875115562
11137873 295 18261110781250569131
11578080 2 17559368397172023505
12363563 72 18335422357309656530
12553582 1 18341902900334422886
12633257 1 15985107426735610890
12824470 246 17557977631137597487
14123255 52 9727633895450389602
14123260 362 7997677715003389178
15375462 189 17988368194818313560
15534591 1 11891334218609559644
16945 1 17979633764636533237
20361792 2 18411704309059504476
20645477 56 8862357878586034636
20645477 70 18191571150486877231
20671657 53 18335988648425789760
20871998 22 18409168852557779352
22926399 37 7925635479578659643
23403322 49 18114462267214286962
23526113 38 18188751959560419901
23559900 14 18261945259801562000
27216 239 11671482505138964174
4072396 5 17202227229930582171
81228 2 18262790753525007624
90316 7 16559040397564122689

>  <PUBCHEM_SHAPE_MULTIPOLES>  (1) 
286.1
7.59
2.42
1.27
10.02
1.29
-0.03
-7.46
0.13
0.52
-0.02
-1.33
-0.32
-0.06

>  <PUBCHEM_SHAPE_SELFOVERLAP>  (1) 
577.651

>  <PUBCHEM_SHAPE_VOLUME>  (1) 
168.3

>  <PUBCHEM_COORDINATE_TYPE>  (1) 
2
5
10

$$$$
