23856
     RDKit          3D

 14 14  0  0  0  0  0  0  0  0999 V2000
   -1.4995    1.1853    1.6121 O   0  0  0  0  0  0  0  0  0  0  0  0
    3.1188    0.2803   -0.2022 N   0  0  0  0  0  0  0  0  0  0  0  0
   -2.1174   -0.5725    0.1732 N   0  0  0  0  0  0  0  0  0  0  0  0
    2.2743   -0.9266   -0.3631 C   0  0  0  0  0  0  0  0  0  0  0  0
    0.8895   -0.6979    0.2311 C   0  0  0  0  0  0  0  0  0  0  0  0
   -0.0406   -1.9085    0.0883 C   0  0  0  0  0  0  0  0  0  0  0  0
   -1.3958   -1.6842    0.7531 C   0  0  0  0  0  0  0  0  0  0  0  0
   -2.8528   -0.7097   -1.0616 C   0  0  0  0  0  0  0  0  0  0  0  0
   -3.7096    0.5400   -1.0924 C   0  0  0  0  0  0  0  0  0  0  0  0
    3.2357    0.6734    1.2778 C   0  0  0  0  0  0  0  0  0  0  0  0
    4.5353    0.0329   -0.7416 C   0  0  0  0  0  0  0  0  0  0  0  0
    2.5215    1.4722   -0.9646 C   0  0  0  0  0  0  0  0  0  0  0  0
   -2.8757    1.5740   -0.3454 C   0  0  0  0  0  0  0  0  0  0  0  0
   -2.0838    0.7412    0.6352 C   0  0  0  0  0  0  0  0  0  0  0  0
  1 14  2  0
  2  4  1  0
  2 10  1  0
  2 11  1  0
  2 12  1  0
  3  7  1  0
  3  8  1  0
  3 14  1  0
  4  5  1  0
  5  6  1  0
  6  7  1  0
  8  9  1  0
  9 13  1  0
 13 14  1  0
M  CHG  1   2   1
M  END
>  <PUBCHEM_COMPOUND_CID>  (1) 
23856

>  <PUBCHEM_CONFORMER_RMSD>  (1) 
0.6

>  <PUBCHEM_CONFORMER_DIVERSEORDER>  (1) 
1
23
9
7
24
6
19
14
22
4
12
13
11
15
5
16
20
8
10
18
17
3
21
2

>  <PUBCHEM_MMFF94_PARTIAL_CHARGES>  (1) 
11
1 -0.57
10 0.5
11 0.5
12 0.5
13 0.06
14 0.57
2 -1.01
3 -0.66
4 0.5
7 0.3
8 0.3

>  <PUBCHEM_EFFECTIVE_ROTOR_COUNT>  (1) 
5.8

>  <PUBCHEM_PHARMACOPHORE_FEATURES>  (1) 
3
1 1 acceptor
1 2 cation
5 3 8 9 13 14 rings

>  <PUBCHEM_HEAVY_ATOM_COUNT>  (1) 
14

>  <PUBCHEM_ATOM_DEF_STEREO_COUNT>  (1) 
0

>  <PUBCHEM_ATOM_UDEF_STEREO_COUNT>  (1) 
0

>  <PUBCHEM_BOND_DEF_STEREO_COUNT>  (1) 
0

>  <PUBCHEM_BOND_UDEF_STEREO_COUNT>  (1) 
0

>  <PUBCHEM_ISOTOPIC_ATOM_COUNT>  (1) 
0

>  <PUBCHEM_COMPONENT_COUNT>  (1) 
1

>  <PUBCHEM_CACTVS_TAUTO_COUNT>  (1) 
2

>  <PUBCHEM_CONFORMER_ID>  (1) 
00005D3000000001

>  <PUBCHEM_MMFF94_ENERGY>  (1) 
29.7028

>  <PUBCHEM_FEATURE_SELFOVERLAP>  (1) 
15.223

>  <PUBCHEM_SHAPE_FINGERPRINT>  (1) 
12162725 195 18335138721663598830
124424 183 16877655751906213708
13618510 140 18260833678571626052
14123260 362 18260277351510477382
14252887 29 11097852965470521700
15276787 5 14851881417960824559
15775835 57 17749107785744730350
17834072 32 18186526509529357996
18186145 218 18341337703754422302
18219364 16 18113911445910600425
18522851 268 15554450682292888912
192875 21 18336251418709384188
19766037 51 12391503226400239135
20281407 28 10879993570757970135
20300324 65 17847059982302026383
20361792 2 11455880356580161851
20645476 183 18113893887958018987
20828058 34 18411699885074293459
20871999 31 17702927224322273207
21524375 3 18334571313471197403
23402539 116 15338849638252558570
23557571 272 18200323250122590807
27216 239 17313395542830572013
305870 269 18040715823057723306
4028521 119 18342734104838207364
5262128 65 16917073286537966648
74978 22 18114465664485587814
83771 10 11383827190658751671

>  <PUBCHEM_SHAPE_MULTIPOLES>  (1) 
272.28
7.57
1.78
1.25
4.13
0.28
-0.24
-2.43
1.94
-0.57
-0.05
-0.1
-0.29
-0.05

>  <PUBCHEM_SHAPE_SELFOVERLAP>  (1) 
522.48

>  <PUBCHEM_SHAPE_VOLUME>  (1) 
170.1

>  <PUBCHEM_COORDINATE_TYPE>  (1) 
2
5
10

$$$$
