23854
     RDKit          3D

  7  6  0  0  0  0  0  0  0  0999 V2000
   -0.8417   -0.0201    0.0000 N   0  0  0  0  0  0  0  0  0  0  0  0
    0.2799    1.0086    0.0000 C   0  0  0  0  0  0  0  0  0  0  0  0
   -0.7308   -0.8918    1.2426 C   0  0  0  0  0  0  0  0  0  0  0  0
   -2.1853    0.6948    0.0000 C   0  0  0  0  0  0  0  0  0  0  0  0
   -0.7309   -0.8918   -1.2426 C   0  0  0  0  0  0  0  0  0  0  0  0
    1.5722    0.3278    0.0001 C   0  0  0  0  0  0  0  0  0  0  0  0
    2.6366   -0.2275   -0.0001 C   0  0  0  0  0  0  0  0  0  0  0  0
  1  2  1  0
  1  3  1  0
  1  4  1  0
  1  5  1  0
  2  6  1  0
  6  7  3  0
M  CHG  1   1   1
M  END
>  <PUBCHEM_COMPOUND_CID>  (1) 
23854

>  <PUBCHEM_CONFORMER_RMSD>  (1) 
0.4

>  <PUBCHEM_CONFORMER_DIVERSEORDER>  (1) 
1

>  <PUBCHEM_MMFF94_PARTIAL_CHARGES>  (1) 
8
1 -1.01
19 0.18
2 0.7
3 0.5
4 0.5
5 0.5
6 -0.2
7 -0.18

>  <PUBCHEM_EFFECTIVE_ROTOR_COUNT>  (1) 
1

>  <PUBCHEM_PHARMACOPHORE_FEATURES>  (1) 
2
1 1 cation
1 7 hydrophobe

>  <PUBCHEM_HEAVY_ATOM_COUNT>  (1) 
7

>  <PUBCHEM_ATOM_DEF_STEREO_COUNT>  (1) 
0

>  <PUBCHEM_ATOM_UDEF_STEREO_COUNT>  (1) 
0

>  <PUBCHEM_BOND_DEF_STEREO_COUNT>  (1) 
0

>  <PUBCHEM_BOND_UDEF_STEREO_COUNT>  (1) 
0

>  <PUBCHEM_ISOTOPIC_ATOM_COUNT>  (1) 
0

>  <PUBCHEM_COMPONENT_COUNT>  (1) 
1

>  <PUBCHEM_CACTVS_TAUTO_COUNT>  (1) 
1

>  <PUBCHEM_CONFORMER_ID>  (1) 
00005D2E00000001

>  <PUBCHEM_MMFF94_ENERGY>  (1) 
20.4514

>  <PUBCHEM_FEATURE_SELFOVERLAP>  (1) 
10.148

>  <PUBCHEM_SHAPE_FINGERPRINT>  (1) 
137420 1 13506082913816049379
16714656 1 18272649017501791316
21040471 1 18410856521001051076
24536 1 17897154947708271564
29004967 10 18336553797629216216
5084963 1 18335420162402137109
5460574 1 9223229650183589216
5943 1 10865822846087781063

>  <PUBCHEM_SHAPE_MULTIPOLES>  (1) 
139.08
2.95
1.09
1.06
1.38
0.01
0
-0.25
0
-0.24
0
-0.34
0.41
0

>  <PUBCHEM_SHAPE_SELFOVERLAP>  (1) 
247.148

>  <PUBCHEM_SHAPE_VOLUME>  (1) 
92.2

>  <PUBCHEM_COORDINATE_TYPE>  (1) 
2
5
10

$$$$
