23851
     RDKit          3D

 23 24  0  0  1  0  0  0  0  0999 V2000
    2.5218    1.8088    0.4527 O   0  0  0  0  0  0  0  0  0  0  0  0
    0.0726    3.1527    0.3678 O   0  0  0  0  0  0  0  0  0  0  0  0
    1.0969   -1.5270    1.5178 O   0  0  0  0  0  0  0  0  0  0  0  0
   -3.6194   -0.2363    1.7211 O   0  0  0  0  0  0  0  0  0  0  0  0
   -4.8396   -0.5328   -0.7581 O   0  0  0  0  0  0  0  0  0  0  0  0
    4.6975    1.8427    1.3932 O   0  0  0  0  0  0  0  0  0  0  0  0
    1.3055    1.0646    0.3330 C   0  0  0  0  0  0  0  0  0  0  0  0
    0.2240    1.9278   -0.3690 C   0  0  0  0  0  0  0  0  0  0  0  0
    1.6287   -0.2108   -0.4134 C   0  0  0  0  0  0  0  0  0  0  0  0
   -1.1142    1.2772   -0.4686 C   0  0  0  0  0  0  0  0  0  0  0  0
    1.5061   -1.4357    0.2214 C   0  0  0  0  0  0  0  0  0  0  0  0
   -1.7533    0.8172    0.6828 C   0  0  0  0  0  0  0  0  0  0  0  0
    2.0453   -0.1194   -1.7316 C   0  0  0  0  0  0  0  0  0  0  0  0
   -1.7265    1.1282   -1.7130 C   0  0  0  0  0  0  0  0  0  0  0  0
   -3.0047    0.2081    0.5897 C   0  0  0  0  0  0  0  0  0  0  0  0
    1.8083   -2.6021   -0.4815 C   0  0  0  0  0  0  0  0  0  0  0  0
   -2.9778    0.5191   -1.8061 C   0  0  0  0  0  0  0  0  0  0  0  0
    2.3476   -1.2859   -2.4343 C   0  0  0  0  0  0  0  0  0  0  0  0
   -3.6171    0.0592   -0.6549 C   0  0  0  0  0  0  0  0  0  0  0  0
    3.5173    1.0867    1.1635 C   0  0  0  0  0  0  0  0  0  0  0  0
    2.2291   -2.5271   -1.8093 C   0  0  0  0  0  0  0  0  0  0  0  0
    1.0038   -2.8355    2.0772 C   0  0  0  0  0  0  0  0  0  0  0  0
   -3.3518   -1.5795    2.1194 C   0  0  0  0  0  0  0  0  0  0  0  0
  1  7  1  0
  1 20  1  0
  2  8  1  0
  3 11  1  0
  3 22  1  0
  4 15  1  0
  4 23  1  0
  5 19  1  0
  6 20  1  0
  7  8  1  0
  7  9  1  0
  8 10  1  0
  9 11  2  0
  9 13  1  0
 10 12  2  0
 10 14  1  0
 11 16  1  0
 12 15  1  0
 13 18  2  0
 14 17  2  0
 15 19  2  0
 16 21  2  0
 17 19  1  0
 18 21  1  0
M  END
>  <PUBCHEM_COMPOUND_CID>  (1) 
23851

>  <PUBCHEM_CONFORMER_RMSD>  (1) 
0.8

>  <PUBCHEM_CONFORMER_DIVERSEORDER>  (1) 
1
96
20
73
63
69
71
70
14
100
29
118
79
61
51
62
89
78
47
21
25
39
35
91
80
67
44
64
23
97
31
109
77
94
57
112
84
37
9
90
119
52
105
19
102
66
121
41
116
74
108
111
106
38
12
122
30
76
113
43
101
53
34
13
98
72
68
110
7
85
40
50
117
60
65
114
104
42
32
10
6
46
115
27
18
87
107
28
36
5
93
99
45
16
59
58
49
83
82
8
88
75
120
17
26
33
81
95
11
54
48
24
22
103
56
15
86
92
2
4
55
3

>  <PUBCHEM_MMFF94_PARTIAL_CHARGES>  (1) 
33
1 -0.56
10 -0.14
11 0.08
12 -0.15
13 -0.15
14 -0.15
15 0.08
16 -0.15
17 -0.15
18 -0.15
19 0.08
2 -0.68
20 0.56
21 -0.15
22 0.28
23 0.28
26 0.15
27 0.15
28 0.15
29 0.4
3 -0.36
30 0.15
31 0.15
32 0.15
35 0.15
39 0.45
4 -0.36
40 0.4
5 -0.53
6 -0.68
7 0.42
8 0.42
9 -0.14

>  <PUBCHEM_EFFECTIVE_ROTOR_COUNT>  (1) 
7

>  <PUBCHEM_PHARMACOPHORE_FEATURES>  (1) 
10
1 1 acceptor
1 2 acceptor
1 2 donor
1 3 acceptor
1 4 acceptor
1 5 donor
1 6 acceptor
1 6 donor
6 10 12 14 15 17 19 rings
6 9 11 13 16 18 21 rings

>  <PUBCHEM_HEAVY_ATOM_COUNT>  (1) 
23

>  <PUBCHEM_ATOM_DEF_STEREO_COUNT>  (1) 
0

>  <PUBCHEM_ATOM_UDEF_STEREO_COUNT>  (1) 
2

>  <PUBCHEM_BOND_DEF_STEREO_COUNT>  (1) 
0

>  <PUBCHEM_BOND_UDEF_STEREO_COUNT>  (1) 
0

>  <PUBCHEM_ISOTOPIC_ATOM_COUNT>  (1) 
0

>  <PUBCHEM_COMPONENT_COUNT>  (1) 
1

>  <PUBCHEM_CACTVS_TAUTO_COUNT>  (1) 
3

>  <PUBCHEM_CONFORMER_ID>  (1) 
00005D2B00000001

>  <PUBCHEM_MMFF94_ENERGY>  (1) 
85.5069

>  <PUBCHEM_FEATURE_SELFOVERLAP>  (1) 
50.789

>  <PUBCHEM_SHAPE_FINGERPRINT>  (1) 
10382601 240 17846786204233926980
11135609 12 16516828952009331010
11578080 2 17318716973430827628
12363563 72 18196640796855302927
12467345 10 15410353078308781036
12553582 1 18123762958584748191
12596599 1 18131077013270691079
12788726 201 17833279614483439009
13965767 371 16485044334752279337
15635459 17 18410293601487064415
16752209 62 17545603349221490965
16945 1 18200041762244997893
17492 54 15942370638314521711
1813 80 16556240903900796246
20600515 1 16756875233098614744
20603629 256 17917999343081844150
20645477 70 18342727491094987149
21452121 71 17537990373823674754
21731516 1 18056767515843510119
23419403 2 17697640811012706382
23557571 272 17822567205510885197
23559900 14 17459187387096283382
3052486 1 17606130716763462202
3383291 50 18201432546883443294
6669772 16 18412257372889779746
7097593 13 14188717521019175127
81228 2 16546350629242104136

>  <PUBCHEM_SHAPE_MULTIPOLES>  (1) 
438.11
6.94
2.98
2.3
4.13
0.5
-0.32
0.13
0.78
-2.22
0.98
-0.46
1.07
2.17

>  <PUBCHEM_SHAPE_SELFOVERLAP>  (1) 
926.338

>  <PUBCHEM_SHAPE_VOLUME>  (1) 
244.9

>  <PUBCHEM_COORDINATE_TYPE>  (1) 
2
5
10

$$$$
