23861
     RDKit          3D

 18 19  0  0  1  0  0  0  0  0999 V2000
    2.2790   -3.5646   -0.2684 O   0  0  0  0  0  0  0  0  0  0  0  0
    2.7834    0.0070    0.4951 N   0  0  0  0  0  0  0  0  0  0  0  0
   -2.6346    2.1512   -0.0234 N   0  0  0  0  0  0  0  0  0  0  0  0
    1.3901    0.3588    0.7471 C   0  0  0  0  0  0  0  0  0  0  0  0
    3.4622    1.0816   -0.2308 C   0  0  0  0  0  0  0  0  0  0  0  0
    0.5985    0.5416   -0.5607 C   0  0  0  0  0  0  0  0  0  0  0  0
    2.8700   -1.2468   -0.2549 C   0  0  0  0  0  0  0  0  0  0  0  0
   -0.8092    0.9271   -0.3329 C   0  0  0  0  0  0  0  0  0  0  0  0
   -1.9147    0.0451   -0.1757 C   0  0  0  0  0  0  0  0  0  0  0  0
    4.9185    0.7067   -0.4907 C   0  0  0  0  0  0  0  0  0  0  0  0
    3.3643    2.3761    0.5700 C   0  0  0  0  0  0  0  0  0  0  0  0
   -3.0477    0.8385    0.0171 C   0  0  0  0  0  0  0  0  0  0  0  0
   -1.2835    2.2148   -0.2345 C   0  0  0  0  0  0  0  0  0  0  0  0
    2.1859   -2.3737    0.5024 C   0  0  0  0  0  0  0  0  0  0  0  0
   -2.0608   -1.3564   -0.1788 C   0  0  0  0  0  0  0  0  0  0  0  0
   -4.3245    0.2983    0.2076 C   0  0  0  0  0  0  0  0  0  0  0  0
   -3.3318   -1.9108    0.0107 C   0  0  0  0  0  0  0  0  0  0  0  0
   -4.4450   -1.0943    0.2007 C   0  0  0  0  0  0  0  0  0  0  0  0
  1 14  1  0
  2  4  1  0
  2  5  1  0
  2  7  1  0
  3 12  1  0
  3 13  1  0
  4  6  1  0
  5 10  1  0
  5 11  1  0
  6  8  1  0
  7 14  1  0
  8  9  1  0
  8 13  2  0
  9 12  2  0
  9 15  1  0
 12 16  1  0
 15 17  2  0
 16 18  2  0
 17 18  1  0
M  END
>  <PUBCHEM_COMPOUND_CID>  (1) 
23861

>  <PUBCHEM_CONFORMER_RMSD>  (1) 
0.8

>  <PUBCHEM_CONFORMER_DIVERSEORDER>  (1) 
5
29
28
15
27
20
2
22
17
33
41
44
21
14
24
11
26
23
25
32
30
31
19
16
43
8
12
1
13
7
34
18
37
35
39
3
9
40
38
36
4
10
6
42

>  <PUBCHEM_MMFF94_PARTIAL_CHARGES>  (1) 
22
1 -0.68
12 -0.15
13 -0.3
14 0.28
15 -0.15
16 -0.15
17 -0.15
18 -0.15
2 -0.81
3 0.03
32 0.15
35 0.27
36 0.15
37 0.15
38 0.15
39 0.15
4 0.27
40 0.4
5 0.27
6 0.18
7 0.27
8 -0.18

>  <PUBCHEM_EFFECTIVE_ROTOR_COUNT>  (1) 
6

>  <PUBCHEM_PHARMACOPHORE_FEATURES>  (1) 
8
1 1 acceptor
1 1 donor
1 2 cation
1 3 cation
1 3 donor
3 5 10 11 hydrophobe
5 3 8 9 12 13 rings
6 9 12 15 16 17 18 rings

>  <PUBCHEM_HEAVY_ATOM_COUNT>  (1) 
18

>  <PUBCHEM_ATOM_DEF_STEREO_COUNT>  (1) 
0

>  <PUBCHEM_ATOM_UDEF_STEREO_COUNT>  (1) 
0

>  <PUBCHEM_BOND_DEF_STEREO_COUNT>  (1) 
0

>  <PUBCHEM_BOND_UDEF_STEREO_COUNT>  (1) 
0

>  <PUBCHEM_ISOTOPIC_ATOM_COUNT>  (1) 
0

>  <PUBCHEM_COMPONENT_COUNT>  (1) 
1

>  <PUBCHEM_CACTVS_TAUTO_COUNT>  (1) 
1

>  <PUBCHEM_CONFORMER_ID>  (1) 
00005D3500000005

>  <PUBCHEM_MMFF94_ENERGY>  (1) 
33.2294

>  <PUBCHEM_FEATURE_SELFOVERLAP>  (1) 
40.686

>  <PUBCHEM_SHAPE_FINGERPRINT>  (1) 
10366900 7 18343015635839273633
10616163 171 18410857689285227983
11552529 35 17774440611391026575
12107183 9 17765440837886580937
12553582 1 18338506568898136491
12596602 18 17488199273359815571
12633257 1 18053667975437791635
12839892 36 18265031627468860898
13533116 47 18270676472836501167
14178342 30 18337658729627455016
14223421 5 18410006615713813484
14289901 80 18410856551102966665
14617045 38 18410866477014973979
14866123 147 16181295120404343986
15196674 1 18409449163693168283
15375358 24 18187641457327240995
15375462 6 18410854347868977212
15442244 35 18123187909555206954
15536298 74 18411138008878669778
17804303 29 18123193402866059287
17834074 16 18411982438103483214
1813 80 17312831472233415727
19050596 39 18410006645973756896
19591789 44 18123469650767148830
20281475 54 18412822473835586081
20442098 301 18341604906481130743
20510252 161 18342459206005371553
20645477 70 18337384946515100183
21267235 1 18336556026727792139
21501502 16 18338795606995581922
21618674 54 18336263449076037556
221490 88 18337398136776540418
2297311 6 18270977820020671044
23402539 116 18040709303423656380
23557571 272 18342465845613464908
23559900 14 18339353068186533768
2871803 45 18409727391431834798
34934 24 18410005563984701311
4214541 1 18410856529607089268
474229 33 18264207075230704402
5104073 3 18410011005186241065
5486654 2 18122065570456191444
58051976 378 18411979174281714342
6442390 28 18268708501625741664
7097593 13 18047747101038053450
7364860 26 18339641132007053838
77779 3 18411983563564568148
9709674 26 18408889503331521283

>  <PUBCHEM_SHAPE_MULTIPOLES>  (1) 
354.6
9.12
2.96
0.74
0.64
1.68
-0.03
-0.06
-0.1
1.36
-0.05
0.24
-0.04
0.2

>  <PUBCHEM_SHAPE_SELFOVERLAP>  (1) 
738.874

>  <PUBCHEM_SHAPE_VOLUME>  (1) 
204.7

>  <PUBCHEM_COORDINATE_TYPE>  (1) 
2
5
10

$$$$
