23868
     RDKit          3D

 15 16  0  0  0  0  0  0  0  0999 V2000
    1.0975    2.4620   -0.2108 S   0  0  0  0  0  0  0  0  0  0  0  0
   -1.1065   -1.7157   -1.4350 O   0  0  0  0  0  0  0  0  0  0  0  0
   -2.9711    0.1728    0.6969 N   0  0  0  0  0  0  0  0  0  0  0  0
   -0.2075    0.2959   -0.6079 C   0  0  0  0  0  0  0  0  0  0  0  0
    1.0991   -0.1234   -0.1871 C   0  0  0  0  0  0  0  0  0  0  0  0
   -2.7503   -0.1226   -0.7140 C   0  0  0  0  0  0  0  0  0  0  0  0
   -1.2997   -0.5814   -0.9486 C   0  0  0  0  0  0  0  0  0  0  0  0
    1.9258    0.9754    0.0666 C   0  0  0  0  0  0  0  0  0  0  0  0
   -0.3391    1.6632   -0.6619 C   0  0  0  0  0  0  0  0  0  0  0  0
    1.6354   -1.4210   -0.0040 C   0  0  0  0  0  0  0  0  0  0  0  0
    3.2585    0.8116    0.4928 C   0  0  0  0  0  0  0  0  0  0  0  0
   -2.7246   -1.0148    1.5167 C   0  0  0  0  0  0  0  0  0  0  0  0
   -4.3324    0.6656    0.9134 C   0  0  0  0  0  0  0  0  0  0  0  0
    2.9568   -1.5868    0.4192 C   0  0  0  0  0  0  0  0  0  0  0  0
    3.7581   -0.4809    0.6639 C   0  0  0  0  0  0  0  0  0  0  0  0
  1  8  1  0
  1  9  1  0
  2  7  2  0
  3  6  1  0
  3 12  1  0
  3 13  1  0
  4  5  1  0
  4  7  1  0
  4  9  2  0
  5  8  2  0
  5 10  1  0
  6  7  1  0
  8 11  1  0
 10 14  2  0
 11 15  2  0
 14 15  1  0
M  END
>  <PUBCHEM_COMPOUND_CID>  (1) 
23868

>  <PUBCHEM_CONFORMER_RMSD>  (1) 
0.6

>  <PUBCHEM_CONFORMER_DIVERSEORDER>  (1) 
2
13
12
16
15
17
21
7
14
8
19
3
22
18
23
4
11
9
5
10
24
20
6
1

>  <PUBCHEM_MMFF94_PARTIAL_CHARGES>  (1) 
19
1 -0.08
10 -0.15
11 -0.15
12 0.27
13 0.27
14 -0.15
15 -0.15
18 0.15
19 0.15
2 -0.57
20 0.15
27 0.15
28 0.15
3 -0.81
4 -0.09
6 0.33
7 0.6
8 0.04
9 -0.11

>  <PUBCHEM_EFFECTIVE_ROTOR_COUNT>  (1) 
3

>  <PUBCHEM_PHARMACOPHORE_FEATURES>  (1) 
4
1 2 acceptor
1 3 cation
5 1 4 5 8 9 rings
6 5 8 10 11 14 15 rings

>  <PUBCHEM_HEAVY_ATOM_COUNT>  (1) 
15

>  <PUBCHEM_ATOM_DEF_STEREO_COUNT>  (1) 
0

>  <PUBCHEM_ATOM_UDEF_STEREO_COUNT>  (1) 
0

>  <PUBCHEM_BOND_DEF_STEREO_COUNT>  (1) 
0

>  <PUBCHEM_BOND_UDEF_STEREO_COUNT>  (1) 
0

>  <PUBCHEM_ISOTOPIC_ATOM_COUNT>  (1) 
0

>  <PUBCHEM_COMPONENT_COUNT>  (1) 
1

>  <PUBCHEM_CACTVS_TAUTO_COUNT>  (1) 
2

>  <PUBCHEM_CONFORMER_ID>  (1) 
00005D3C00000002

>  <PUBCHEM_MMFF94_ENERGY>  (1) 
38.7972

>  <PUBCHEM_FEATURE_SELFOVERLAP>  (1) 
20.357

>  <PUBCHEM_SHAPE_FINGERPRINT>  (1) 
10498660 4 13541916633816399979
10980938 120 18412262856687128676
1100329 8 14587048018320555953
11086676 242 18411421674510215160
11132069 177 18270380772864757266
11471102 22 18334580173914434448
12202030 40 16950554536579426403
12251169 10 18413110567398993857
12382932 28 18201434804780135478
12633257 1 18188792607758137625
12696612 119 18410856602784752020
13172582 1 18343584040211243790
14144814 61 18201712976842567102
14178342 30 18126547141096048042
14445660 50 18131061675704495898
14790565 3 18046637973348527012
15209294 21 17774145933711059968
15309172 13 18272365352181515095
15375462 189 18335695031782209874
15501101 241 18187362164162404732
15775835 57 17632861923440967633
16945 1 18337941385572193076
17844478 74 17894906304621579268
20871998 22 18267027159041413006
21061003 4 18187358831130431420
21256008 23 18408608084479074504
22445834 79 18341045336640207903
23184049 59 18343302531106916175
23557571 272 15140951868557198732
23598291 2 18127409162296046140
2748010 2 18124301710818888372
568465 68 18040724687690491106
6992083 37 18272644679684873999
77492 1 17989200494717924951
81228 2 17973428919905132556
83771 10 17748830695818846171

>  <PUBCHEM_SHAPE_MULTIPOLES>  (1) 
301.69
6.45
2
1.16
2.59
0.69
0
-0.93
-2.78
-0.96
0.14
0.88
-0.32
-0.12

>  <PUBCHEM_SHAPE_SELFOVERLAP>  (1) 
629.368

>  <PUBCHEM_SHAPE_VOLUME>  (1) 
174.3

>  <PUBCHEM_COORDINATE_TYPE>  (1) 
2
5
10

$$$$
