23866
     RDKit          3D

  7  6  0  0  1  0  0  0  0  0999 V2000
   -1.1696    0.0227   -0.3095 C   0  0  0  0  0  0  0  0  0  0  0  0
    0.3065   -0.4395   -0.4677 C   0  0  0  0  0  0  0  0  0  0  0  0
   -1.7948   -0.3141    1.0483 C   0  0  0  0  0  0  0  0  0  0  0  0
   -1.3209    1.5234   -0.5871 C   0  0  0  0  0  0  0  0  0  0  0  0
    0.4399   -1.9642   -0.3820 C   0  0  0  0  0  0  0  0  0  0  0  0
    1.2515    0.1993    0.5226 C   0  0  0  0  0  0  0  0  0  0  0  0
    2.2873    0.9724    0.1755 C   0  0  0  0  0  0  0  0  0  0  0  0
  1  2  1  0
  1  3  1  0
  1  4  1  0
  2  5  1  0
  2  6  1  0
  6  7  2  0
M  END
>  <PUBCHEM_COMPOUND_CID>  (1) 
23866

>  <PUBCHEM_CONFORMER_RMSD>  (1) 
0.4

>  <PUBCHEM_CONFORMER_DIVERSEORDER>  (1) 
1
7
9
3
8
5
6
4
2

>  <PUBCHEM_MMFF94_PARTIAL_CHARGES>  (1) 
6
19 0.15
2 0.14
20 0.15
21 0.15
6 -0.29
7 -0.3

>  <PUBCHEM_EFFECTIVE_ROTOR_COUNT>  (1) 
2

>  <PUBCHEM_PHARMACOPHORE_FEATURES>  (1) 
3
1 5 hydrophobe
1 7 hydrophobe
3 1 3 4 hydrophobe

>  <PUBCHEM_HEAVY_ATOM_COUNT>  (1) 
7

>  <PUBCHEM_ATOM_DEF_STEREO_COUNT>  (1) 
0

>  <PUBCHEM_ATOM_UDEF_STEREO_COUNT>  (1) 
1

>  <PUBCHEM_BOND_DEF_STEREO_COUNT>  (1) 
0

>  <PUBCHEM_BOND_UDEF_STEREO_COUNT>  (1) 
0

>  <PUBCHEM_ISOTOPIC_ATOM_COUNT>  (1) 
0

>  <PUBCHEM_COMPONENT_COUNT>  (1) 
1

>  <PUBCHEM_CACTVS_TAUTO_COUNT>  (1) 
1

>  <PUBCHEM_CONFORMER_ID>  (1) 
00005D3A00000001

>  <PUBCHEM_MMFF94_ENERGY>  (1) 
7.5978

>  <PUBCHEM_FEATURE_SELFOVERLAP>  (1) 
15.224

>  <PUBCHEM_SHAPE_FINGERPRINT>  (1) 
137420 1 11472816842820711702
16714656 1 18266743673893355204
20096714 4 18342728611791255012
20653085 51 14691471570856724360
21040471 1 18341882022303048924
24536 1 17749963150009306455
29004967 10 18188786031846682811
5084963 1 18059846303125509260
5943 1 16268820824415361871

>  <PUBCHEM_SHAPE_MULTIPOLES>  (1) 
144.06
2.53
1.68
0.93
0.62
0.46
-0.13
-0.95
-0.51
0.1
0.38
-0.29
0.02
0.38

>  <PUBCHEM_SHAPE_SELFOVERLAP>  (1) 
255.416

>  <PUBCHEM_SHAPE_VOLUME>  (1) 
96.1

>  <PUBCHEM_COORDINATE_TYPE>  (1) 
2
5
10

$$$$
