23872
     RDKit          3D

 19 19  0  0  1  0  0  0  0  0999 V2000
  -10.1428    0.2482    0.4197 O   0  0  0  0  0  0  0  0  0  0  0  0
   -8.9987   -0.1843   -0.3276 C   0  0  0  0  0  0  0  0  0  0  0  0
   -7.7490    0.5999   -0.0651 C   0  0  0  0  0  0  0  0  0  0  0  0
   -6.4955   -0.2569   -0.2473 C   0  0  0  0  0  0  0  0  0  0  0  0
   -9.6138   -1.0456    0.7370 C   0  0  0  0  0  0  0  0  0  0  0  0
   -5.1901    0.5265   -0.0833 C   0  0  0  0  0  0  0  0  0  0  0  0
   -3.9013   -0.2698   -0.3092 C   0  0  0  0  0  0  0  0  0  0  0  0
   -2.6303    0.5410   -0.0475 C   0  0  0  0  0  0  0  0  0  0  0  0
   -1.3762   -0.2928   -0.3191 C   0  0  0  0  0  0  0  0  0  0  0  0
   -0.1039    0.5044   -0.0266 C   0  0  0  0  0  0  0  0  0  0  0  0
    1.1495   -0.3406   -0.2666 C   0  0  0  0  0  0  0  0  0  0  0  0
    2.4200    0.4487    0.0570 C   0  0  0  0  0  0  0  0  0  0  0  0
    3.7051   -0.3610   -0.1373 C   0  0  0  0  0  0  0  0  0  0  0  0
    4.9741    0.4206    0.2100 C   0  0  0  0  0  0  0  0  0  0  0  0
    6.2303   -0.4087   -0.0709 C   0  0  0  0  0  0  0  0  0  0  0  0
    7.4996    0.3870    0.2400 C   0  0  0  0  0  0  0  0  0  0  0  0
    8.7891   -0.4038   -0.0015 C   0  0  0  0  0  0  0  0  0  0  0  0
   10.0927    0.3499    0.2724 C   0  0  0  0  0  0  0  0  0  0  0  0
   11.3410   -0.4627   -0.0338 C   0  0  0  0  0  0  0  0  0  0  0  0
  1  2  1  0
  1  5  1  0
  2  3  1  0
  2  5  1  0
  3  4  1  0
  4  6  1  0
  6  7  1  0
  7  8  1  0
  8  9  1  0
  9 10  1  0
 10 11  1  0
 11 12  1  0
 12 13  1  0
 13 14  1  0
 14 15  1  0
 15 16  1  0
 16 17  1  0
 17 18  1  0
 18 19  1  0
M  END
>  <PUBCHEM_COMPOUND_CID>  (1) 
23872

>  <PUBCHEM_CONFORMER_RMSD>  (1) 
1.4

>  <PUBCHEM_CONFORMER_DIVERSEORDER>  (1) 
1
13
43
7
47
57
34
27
2
66
75
25
33
70
72
17
14
48
11
53
45
55
65
36
74
37
31
69
4
35
42
62
49
5
78
59
58
30
6
15
24
71
44
20
23
64
12
77
16
29
81
61
26
18
54
60
73
68
32
40
8
52
10
67
51
38
76
9
63
79
41
46
39
80
3
50
19
28
22
56
21

>  <PUBCHEM_MMFF94_PARTIAL_CHARGES>  (1) 
7
1 -0.3
2 -0.05
20 0.1
25 0.1
26 0.1
3 0.09
5 -0.05

>  <PUBCHEM_EFFECTIVE_ROTOR_COUNT>  (1) 
15.6

>  <PUBCHEM_PHARMACOPHORE_FEATURES>  (1) 
2
1 1 acceptor
1 19 hydrophobe

>  <PUBCHEM_HEAVY_ATOM_COUNT>  (1) 
19

>  <PUBCHEM_ATOM_DEF_STEREO_COUNT>  (1) 
0

>  <PUBCHEM_ATOM_UDEF_STEREO_COUNT>  (1) 
1

>  <PUBCHEM_BOND_DEF_STEREO_COUNT>  (1) 
0

>  <PUBCHEM_BOND_UDEF_STEREO_COUNT>  (1) 
0

>  <PUBCHEM_ISOTOPIC_ATOM_COUNT>  (1) 
0

>  <PUBCHEM_COMPONENT_COUNT>  (1) 
1

>  <PUBCHEM_CACTVS_TAUTO_COUNT>  (1) 
1

>  <PUBCHEM_CONFORMER_ID>  (1) 
00005D4000000001

>  <PUBCHEM_MMFF94_ENERGY>  (1) 
1.1997

>  <PUBCHEM_FEATURE_SELFOVERLAP>  (1) 
10.148

>  <PUBCHEM_SHAPE_FINGERPRINT>  (1) 
14251764 46 18410573989451693190
14251920 1 18410573980856483847
14344974 52 13334745651924723108
15061470 23 17749105586917134860
15510794 2 18333735710752174666
155225 1 11887956553190767275
18335252 98 18272370845776723220
21362267 2 17560219406598594936
21362267 20 18334011722494510739
21362267 313 17604700050593847528
232437 2 18186519903953675586
23521765 1 18413670210422815109
23528940 14 18336269055449490659
23581129 1 18409448085244608524
33684 2 18273214196980855204
59521270 166 16950555581781246719
67123 10 18113337513683507820
8209 1 18412825784996856452

>  <PUBCHEM_SHAPE_MULTIPOLES>  (1) 
385.14
45.93
0.83
0.68
16.35
0.03
-0.01
5.06
-4.86
-0.41
-0.04
-0.33
0.03
0.47

>  <PUBCHEM_SHAPE_SELFOVERLAP>  (1) 
702.011

>  <PUBCHEM_SHAPE_VOLUME>  (1) 
246

>  <PUBCHEM_COORDINATE_TYPE>  (1) 
2
5
10

$$$$
