23876
     RDKit          3D

 17 18  0  0  0  0  0  0  0  0999 V2000
   -0.4374   -2.3181    1.3914 O   0  0  0  0  0  0  0  0  0  0  0  0
   -0.3793    2.2555    1.4574 O   0  0  0  0  0  0  0  0  0  0  0  0
   -3.1980    0.0453   -1.5144 O   0  0  0  0  0  0  0  0  0  0  0  0
   -1.7727   -1.1873   -0.1547 N   0  0  0  0  0  0  0  0  0  0  0  0
   -1.7519    1.2003   -0.1101 N   0  0  0  0  0  0  0  0  0  0  0  0
    1.2235   -0.0279   -0.0163 C   0  0  0  0  0  0  0  0  0  0  0  0
    2.0434    1.2627    0.1152 C   0  0  0  0  0  0  0  0  0  0  0  0
    2.1114   -1.2626    0.1888 C   0  0  0  0  0  0  0  0  0  0  0  0
    0.0591   -0.0304    0.9726 C   0  0  0  0  0  0  0  0  0  0  0  0
    3.2451    1.2655   -0.8267 C   0  0  0  0  0  0  0  0  0  0  0  0
    3.3132   -1.2555   -0.7532 C   0  0  0  0  0  0  0  0  0  0  0  0
    4.1206    0.0325   -0.6260 C   0  0  0  0  0  0  0  0  0  0  0  0
   -0.7424   -1.2899    0.7854 C   0  0  0  0  0  0  0  0  0  0  0  0
   -0.7139    1.2521    0.8258 C   0  0  0  0  0  0  0  0  0  0  0  0
   -2.2961    0.0209   -0.6696 C   0  0  0  0  0  0  0  0  0  0  0  0
   -2.4325   -2.4185   -0.5761 C   0  0  0  0  0  0  0  0  0  0  0  0
   -2.3921    2.4554   -0.4896 C   0  0  0  0  0  0  0  0  0  0  0  0
  1 13  2  0
  2 14  2  0
  3 15  2  0
  4 13  1  0
  4 15  1  0
  4 16  1  0
  5 14  1  0
  5 15  1  0
  5 17  1  0
  6  7  1  0
  6  8  1  0
  6  9  1  0
  7 10  1  0
  8 11  1  0
  9 13  1  0
  9 14  1  0
 10 12  1  0
 11 12  1  0
M  END
>  <PUBCHEM_COMPOUND_CID>  (1) 
23876

>  <PUBCHEM_CONFORMER_RMSD>  (1) 
0.6

>  <PUBCHEM_CONFORMER_DIVERSEORDER>  (1) 
1
7
3
6
4
5
2

>  <PUBCHEM_MMFF94_PARTIAL_CHARGES>  (1) 
11
1 -0.57
13 0.57
14 0.57
15 0.69
16 0.3
17 0.3
2 -0.57
3 -0.57
4 -0.42
5 -0.42
9 0.12

>  <PUBCHEM_EFFECTIVE_ROTOR_COUNT>  (1) 
2.8

>  <PUBCHEM_PHARMACOPHORE_FEATURES>  (1) 
6
1 1 acceptor
1 2 acceptor
1 3 acceptor
1 9 anion
6 4 5 9 13 14 15 rings
6 6 7 8 10 11 12 rings

>  <PUBCHEM_HEAVY_ATOM_COUNT>  (1) 
17

>  <PUBCHEM_ATOM_DEF_STEREO_COUNT>  (1) 
0

>  <PUBCHEM_ATOM_UDEF_STEREO_COUNT>  (1) 
0

>  <PUBCHEM_BOND_DEF_STEREO_COUNT>  (1) 
0

>  <PUBCHEM_BOND_UDEF_STEREO_COUNT>  (1) 
0

>  <PUBCHEM_ISOTOPIC_ATOM_COUNT>  (1) 
0

>  <PUBCHEM_COMPONENT_COUNT>  (1) 
1

>  <PUBCHEM_CACTVS_TAUTO_COUNT>  (1) 
1

>  <PUBCHEM_CONFORMER_ID>  (1) 
00005D4400000001

>  <PUBCHEM_MMFF94_ENERGY>  (1) 
31.7276

>  <PUBCHEM_FEATURE_SELFOVERLAP>  (1) 
30.446

>  <PUBCHEM_SHAPE_FINGERPRINT>  (1) 
10756046 5 18339365171583663830
10764073 3 17400696620079027051
11127187 94 18341334478202380311
11206711 2 18338529641514938388
11578080 2 16629954542527369635
12202030 40 15480948364493739221
12491281 212 17894634725376170908
13024252 1 18187941581046565707
13299463 15 18268151048618588010
14713566 1 18198621025664991120
14817 1 12750145240599622745
15775835 57 18043255638956385596
15906896 17 17201103420923512257
16945 1 18410845564660655465
17134986 127 17900532385436061181
18186145 218 18260545580723702948
18534176 82 17823983548365097970
200 152 18060421326569590470
20361792 2 15410894067645953688
20645476 183 18192143790081638447
20653085 51 18041004994446730660
20871999 31 18201147772480013829
21501502 16 18407763638274442726
21524375 3 18045225942366087193
22802520 49 18340763866058762721
23382010 3 18115572863877977071
23402539 116 18189043343253133046
23557571 272 17845352432386388154
23559900 14 18129655293617959634
25 1 17897731959336984808
2748010 2 17329705934276302576
353137 74 18408321068683192387
5262128 65 18130522859367561508
74978 22 18187092737027648130
81228 2 18263930010674055097
9709674 26 18272657809869571774

>  <PUBCHEM_SHAPE_MULTIPOLES>  (1) 
322.28
5.61
2.58
1.2
3.94
0.01
-0.11
0.02
2.78
-1.54
-0.3
-0.38
-0.01
-0.05

>  <PUBCHEM_SHAPE_SELFOVERLAP>  (1) 
669.286

>  <PUBCHEM_SHAPE_VOLUME>  (1) 
180.3

>  <PUBCHEM_COORDINATE_TYPE>  (1) 
2
5
10

$$$$
