23878
     RDKit          3D

 20 22  0  0  1  0  0  0  0  0999 V2000
    3.0024   -2.1964   -0.6000 N   0  0  0  0  0  0  0  0  0  0  0  0
   -0.1505   -0.2879    0.3253 C   0  0  0  0  0  0  0  0  0  0  0  0
    0.7177   -1.3888   -0.2820 C   0  0  0  0  0  0  0  0  0  0  0  0
    0.2615    1.0969   -0.1503 C   0  0  0  0  0  0  0  0  0  0  0  0
    0.1130   -0.1348    1.8279 C   0  0  0  0  0  0  0  0  0  0  0  0
   -1.5992   -0.5617    0.0699 C   0  0  0  0  0  0  0  0  0  0  0  0
    0.6846    1.8674    0.9450 C   0  0  0  0  0  0  0  0  0  0  0  0
    2.1944   -1.1443    0.0050 C   0  0  0  0  0  0  0  0  0  0  0  0
    0.5836    1.0780    2.1599 C   0  0  0  0  0  0  0  0  0  0  0  0
    0.2627    1.6198   -1.4345 C   0  0  0  0  0  0  0  0  0  0  0  0
   -2.0901   -0.5338   -1.2330 C   0  0  0  0  0  0  0  0  0  0  0  0
   -2.4495   -0.8436    1.1360 C   0  0  0  0  0  0  0  0  0  0  0  0
    1.1131    3.1730    0.7790 C   0  0  0  0  0  0  0  0  0  0  0  0
    0.6933    2.9365   -1.6095 C   0  0  0  0  0  0  0  0  0  0  0  0
    1.1145    3.7065   -0.5124 C   0  0  0  0  0  0  0  0  0  0  0  0
   -3.4404   -0.7893   -1.4713 C   0  0  0  0  0  0  0  0  0  0  0  0
   -3.7999   -1.0991    0.8976 C   0  0  0  0  0  0  0  0  0  0  0  0
    2.6556   -3.5018   -0.0353 C   0  0  0  0  0  0  0  0  0  0  0  0
    4.4285   -1.9245   -0.4112 C   0  0  0  0  0  0  0  0  0  0  0  0
   -4.2953   -1.0720   -0.4061 C   0  0  0  0  0  0  0  0  0  0  0  0
  1  8  1  0
  1 18  1  0
  1 19  1  0
  2  3  1  0
  2  4  1  0
  2  5  1  0
  2  6  1  0
  3  8  1  0
  4  7  2  0
  4 10  1  0
  5  9  2  0
  6 11  2  0
  6 12  1  0
  7  9  1  0
  7 13  1  0
 10 14  2  0
 11 16  1  0
 12 17  2  0
 13 15  2  0
 14 15  1  0
 16 20  2  0
 17 20  1  0
M  END
>  <PUBCHEM_COMPOUND_CID>  (1) 
23878

>  <PUBCHEM_CONFORMER_RMSD>  (1) 
0.6

>  <PUBCHEM_CONFORMER_DIVERSEORDER>  (1) 
3
17
2
16
10
15
12
8
13
5
9
11
7
14
4
1
6

>  <PUBCHEM_MMFF94_PARTIAL_CHARGES>  (1) 
30
1 -0.81
10 -0.15
11 -0.15
12 -0.15
13 -0.15
14 -0.15
15 -0.15
16 -0.15
17 -0.15
18 0.27
19 0.27
2 0.43
20 -0.15
23 0.15
26 0.15
27 0.15
28 0.15
29 0.15
30 0.15
31 0.15
32 0.15
33 0.15
34 0.15
4 -0.14
41 0.15
5 -0.29
6 -0.14
7 0.03
8 0.27
9 -0.18

>  <PUBCHEM_EFFECTIVE_ROTOR_COUNT>  (1) 
4.2

>  <PUBCHEM_PHARMACOPHORE_FEATURES>  (1) 
4
1 1 cation
5 2 4 5 7 9 rings
6 4 7 10 13 14 15 rings
6 6 11 12 16 17 20 rings

>  <PUBCHEM_HEAVY_ATOM_COUNT>  (1) 
20

>  <PUBCHEM_ATOM_DEF_STEREO_COUNT>  (1) 
0

>  <PUBCHEM_ATOM_UDEF_STEREO_COUNT>  (1) 
1

>  <PUBCHEM_BOND_DEF_STEREO_COUNT>  (1) 
0

>  <PUBCHEM_BOND_UDEF_STEREO_COUNT>  (1) 
0

>  <PUBCHEM_ISOTOPIC_ATOM_COUNT>  (1) 
0

>  <PUBCHEM_COMPONENT_COUNT>  (1) 
1

>  <PUBCHEM_CACTVS_TAUTO_COUNT>  (1) 
1

>  <PUBCHEM_CONFORMER_ID>  (1) 
00005D4600000003

>  <PUBCHEM_MMFF94_ENERGY>  (1) 
72.6377

>  <PUBCHEM_FEATURE_SELFOVERLAP>  (1) 
20.382

>  <PUBCHEM_SHAPE_FINGERPRINT>  (1) 
10165383 225 17254596053321459033
107951 10 16302334300240704284
11045515 52 18262806163888050366
11101153 10 18263660493988836774
11578080 2 17915722215978143848
12643181 29 16396064939047257246
12788726 201 17829884335081772354
13004483 165 18194962933231556234
13132413 78 18201730504730832601
13134695 92 18272927232935908405
13149001 5 18114757043256613042
13681431 1 18408885156892689304
13911987 19 17970938685372387550
13955234 65 18194690482598040563
14181834 199 18202003286598654222
14251757 17 17167864149365759246
14817 1 8123537066914059280
15502722 9 18193844966392598743
15806764 133 18040426690786768167
16945 1 18269833271386564288
17357779 13 18268690754203702871
17980427 26 16770106068452974984
1813 80 18129117661558056982
18785283 64 18045793535052262777
19765921 60 17411642558891374961
20600515 1 18272103655503218598
21041028 32 18339938025737197681
21285901 2 17696745563412444487
21304303 282 16961783574240676708
21524375 3 17177142081973797089
22112679 90 17840907055309295000
2255824 54 18270682098748228679
22907989 373 17837777733890451862
23175994 123 18335709303969434687
23419403 2 17843654739151694256
23526113 38 17604445092454870618
23557571 272 17976231583860576042
23559900 14 18336259150383967163
25222932 49 16326895130509838099
283562 15 18120096087496500098
298252 57 17396416581809882745
3729539 64 17974039376903025668
458136 41 17905623438047629187
576247 118 18336815395122734403
5845 1 11969651233501971043
6442390 28 17258518054295044387
70251023 43 18409721886012092791
7364860 26 18266739258651098621
81228 2 17976824185846105122
84936 31 18268140053438974268

>  <PUBCHEM_SHAPE_MULTIPOLES>  (1) 
406.61
5.7
4.06
1.68
3.56
1.84
-0.36
-5.86
1.16
-5.19
0.87
0.37
0.71
0.36

>  <PUBCHEM_SHAPE_SELFOVERLAP>  (1) 
886.602

>  <PUBCHEM_SHAPE_VOLUME>  (1) 
222.4

>  <PUBCHEM_COORDINATE_TYPE>  (1) 
2
5
10

$$$$
