23870
     RDKit          3D

 18 20  0  0  1  0  0  0  0  0999 V2000
    3.3029    2.0779   -0.4230 S   0  0  0  0  0  0  0  0  0  0  0  0
   -5.0198   -1.1221   -0.1393 O   0  0  0  0  0  0  0  0  0  0  0  0
   -0.7155    1.8555    1.4237 O   0  0  0  0  0  0  0  0  0  0  0  0
   -2.5929    0.3647   -0.1771 N   0  0  0  0  0  0  0  0  0  0  0  0
   -1.2013    0.5637   -0.5765 C   0  0  0  0  0  0  0  0  0  0  0  0
   -2.7346   -0.8545    0.6310 C   0  0  0  0  0  0  0  0  0  0  0  0
   -3.4686    0.2926   -1.3549 C   0  0  0  0  0  0  0  0  0  0  0  0
   -0.2993    0.7292    0.6528 C   0  0  0  0  0  0  0  0  0  0  0  0
   -4.1962   -1.0479    1.0251 C   0  0  0  0  0  0  0  0  0  0  0  0
   -4.9128    0.0731   -0.9135 C   0  0  0  0  0  0  0  0  0  0  0  0
    1.1460    0.9360    0.2557 C   0  0  0  0  0  0  0  0  0  0  0  0
    2.0747   -0.1300    0.1267 C   0  0  0  0  0  0  0  0  0  0  0  0
    1.6530    2.1702   -0.0047 C   0  0  0  0  0  0  0  0  0  0  0  0
    3.3281    0.3625   -0.2502 C   0  0  0  0  0  0  0  0  0  0  0  0
    1.9320   -1.5266    0.3103 C   0  0  0  0  0  0  0  0  0  0  0  0
    4.4280   -0.4955   -0.4460 C   0  0  0  0  0  0  0  0  0  0  0  0
    3.0213   -2.3804    0.1172 C   0  0  0  0  0  0  0  0  0  0  0  0
    4.2551   -1.8681   -0.2574 C   0  0  0  0  0  0  0  0  0  0  0  0
  1 13  1  0
  1 14  1  0
  2  9  1  0
  2 10  1  0
  3  8  1  0
  4  5  1  0
  4  6  1  0
  4  7  1  0
  5  8  1  0
  6  9  1  0
  7 10  1  0
  8 11  1  0
 11 12  1  0
 11 13  2  0
 12 14  2  0
 12 15  1  0
 14 16  1  0
 15 17  2  0
 16 18  2  0
 17 18  1  0
M  END
>  <PUBCHEM_COMPOUND_CID>  (1) 
23870

>  <PUBCHEM_CONFORMER_RMSD>  (1) 
0.6

>  <PUBCHEM_CONFORMER_DIVERSEORDER>  (1) 
1
3
38
2
26
18
27
37
15
32
8
17
25
35
24
10
6
7
20
11
30
4
31
9
21
29
28
16
36
19
22
14
33
5
12
13
34
23

>  <PUBCHEM_MMFF94_PARTIAL_CHARGES>  (1) 
23
1 -0.08
10 0.28
11 -0.18
13 -0.11
14 0.04
15 -0.15
16 -0.15
17 -0.15
18 -0.15
2 -0.56
3 -0.68
30 0.15
31 0.4
32 0.15
33 0.15
34 0.15
35 0.15
4 -0.81
5 0.27
6 0.27
7 0.27
8 0.46
9 0.28

>  <PUBCHEM_EFFECTIVE_ROTOR_COUNT>  (1) 
4.2

>  <PUBCHEM_PHARMACOPHORE_FEATURES>  (1) 
7
1 2 acceptor
1 3 acceptor
1 3 donor
1 4 cation
5 1 11 12 13 14 rings
6 12 14 15 16 17 18 rings
6 2 4 6 7 9 10 rings

>  <PUBCHEM_HEAVY_ATOM_COUNT>  (1) 
18

>  <PUBCHEM_ATOM_DEF_STEREO_COUNT>  (1) 
0

>  <PUBCHEM_ATOM_UDEF_STEREO_COUNT>  (1) 
1

>  <PUBCHEM_BOND_DEF_STEREO_COUNT>  (1) 
0

>  <PUBCHEM_BOND_UDEF_STEREO_COUNT>  (1) 
0

>  <PUBCHEM_ISOTOPIC_ATOM_COUNT>  (1) 
0

>  <PUBCHEM_COMPONENT_COUNT>  (1) 
1

>  <PUBCHEM_CACTVS_TAUTO_COUNT>  (1) 
1

>  <PUBCHEM_CONFORMER_ID>  (1) 
00005D3E00000001

>  <PUBCHEM_MMFF94_ENERGY>  (1) 
37.3589

>  <PUBCHEM_FEATURE_SELFOVERLAP>  (1) 
35.58

>  <PUBCHEM_SHAPE_FINGERPRINT>  (1) 
10498660 4 16443329958789512477
11471102 20 18410292544845851644
11806522 49 18411983529695076472
12236239 1 17632300081219921264
12553582 1 17917989473162413766
12596602 18 16702296892850068443
12616999 72 18187931724334238620
12670546 177 17312829289867757486
12788726 201 17560534944580387313
13533116 47 18343022242068739043
13544592 145 18113335306460759739
13862211 1 18337111156210879898
13911882 115 17897742087033659547
13955234 65 18269272529215502320
14251757 17 18186803578011937419
14252887 29 17775007860632844926
14576447 43 18411984624901434382
15188451 53 15194984082297413205
15375462 189 18059855094775962073
15477762 27 18409730643191374820
15502722 9 18334860566839247212
15961568 22 16443630232754182572
17349148 13 16630519670430136173
17834074 16 18334013921342340787
1798214 20 18341608192056999342
18186145 218 17821726122270829425
18222031 100 16559027212183640101
19078846 21 17275113820748244145
193927 3 18201447917616230590
19433438 38 17894909611751684654
200 152 18343582927830583697
20281475 54 18272086136795120483
20645477 70 18409164428461590774
20671657 53 18410015399096013612
20871999 31 18041000579162178900
21033650 10 15936971799861530356
21250096 35 18201715133084922171
21267235 1 18341621386713731206
221357 26 18334850607137012109
221490 88 18334302001978837330
2215653 11 18334565833773085415
22646028 28 18202001006007975567
235170 7 17676195879862429367
23557571 272 17385718114844347453
23559900 14 18333726939953935976
23596394 208 18113328708947881551
23598288 3 17845942814317586329
2838139 119 15503243205295067262
2871803 45 18333732390552173786
3004659 81 18333729096132909682
312423 11 18200607929097216800
3323516 105 18187365445353778003
33824 294 18409165550070404296
351380 3 17989205936494561590
42630746 31 18341891939857522904
46194498 28 17676490604818451533
465052 167 18131072662326207383
4921388 177 16515697649571855883
4990 188 17821443564740710045
5104073 3 18341894060817052513
5281201 14 18040435503326741845
59682541 52 18197472109962125559
77779 3 18334857234081665077
94968 8 18411138013690471878
960060 61 18411973685308372053
9709674 26 18114747152321093227

>  <PUBCHEM_SHAPE_MULTIPOLES>  (1) 
357.56
10.32
2.27
1.01
8.53
0.03
0.02
3.95
-2.14
-2.64
0.21
0.87
-0.16
0.38

>  <PUBCHEM_SHAPE_SELFOVERLAP>  (1) 
751.668

>  <PUBCHEM_SHAPE_VOLUME>  (1) 
203.9

>  <PUBCHEM_COORDINATE_TYPE>  (1) 
2
5
10

$$$$
