23886
     RDKit          3D

 20 20  0  0  1  0  0  0  0  0999 V2000
   -2.6705   -2.5551    0.6626 Cl  0  0  0  0  0  0  0  0  0  0  0  0
   -6.6481    0.4598   -1.3640 Cl  0  0  0  0  0  0  0  0  0  0  0  0
    3.9264    2.3065   -0.1339 O   0  0  0  0  0  0  0  0  0  0  0  0
   -1.3508    0.1010    1.1484 O   0  0  0  0  0  0  0  0  0  0  0  0
    5.6607    0.9412    0.3360 O   0  0  0  0  0  0  0  0  0  0  0  0
    1.0663   -1.0137    1.5501 O   0  0  0  0  0  0  0  0  0  0  0  0
    2.0978    0.4576    0.0730 N   0  0  0  0  0  0  0  0  0  0  0  0
    3.6901   -1.1903   -0.7999 C   0  0  0  0  0  0  0  0  0  0  0  0
    3.4454   -0.0470    0.2083 C   0  0  0  0  0  0  0  0  0  0  0  0
    5.0196   -1.9076   -0.5506 C   0  0  0  0  0  0  0  0  0  0  0  0
    3.5984   -0.7370   -2.2603 C   0  0  0  0  0  0  0  0  0  0  0  0
    4.4612    1.0892    0.1312 C   0  0  0  0  0  0  0  0  0  0  0  0
    1.0185   -0.0740    0.7609 C   0  0  0  0  0  0  0  0  0  0  0  0
   -0.2684    0.6499    0.4271 C   0  0  0  0  0  0  0  0  0  0  0  0
   -2.5922    0.1619    0.5606 C   0  0  0  0  0  0  0  0  0  0  0  0
   -3.3060   -0.9969    0.2834 C   0  0  0  0  0  0  0  0  0  0  0  0
   -3.1151    1.4114    0.2516 C   0  0  0  0  0  0  0  0  0  0  0  0
   -4.5638   -0.9051   -0.3129 C   0  0  0  0  0  0  0  0  0  0  0  0
   -4.3726    1.5032   -0.3447 C   0  0  0  0  0  0  0  0  0  0  0  0
   -5.0970    0.3450   -0.6269 C   0  0  0  0  0  0  0  0  0  0  0  0
  1 16  1  0
  2 20  1  0
  3 12  1  0
  4 14  1  0
  4 15  1  0
  5 12  2  0
  6 13  2  0
  7  9  1  0
  7 13  1  0
  8  9  1  0
  8 10  1  0
  8 11  1  0
  9 12  1  0
 13 14  1  0
 15 16  2  0
 15 17  1  0
 16 18  1  0
 17 19  2  0
 18 20  2  0
 19 20  1  0
M  END
>  <PUBCHEM_COMPOUND_CID>  (1) 
23886

>  <PUBCHEM_CONFORMER_RMSD>  (1) 
0.8

>  <PUBCHEM_CONFORMER_DIVERSEORDER>  (1) 
1
34
93
281
257
74
261
254
173
432
152
397
326
205
271
436
264
200
425
342
240
301
71
166
377
89
308
2
320
25
383
202
291
143
237
419
140
311
435
230
252
22
382
213
132
442
270
283
394
117
268
241
228
19
369
99
54
362
232
61
296
31
403
180
371
239
164
349
359
286
206
405
279
247
445
378
98
272
122
233
147
150
113
288
5
402
413
299
275
172
193
253
139
28
361
194
97
333
197
40
121
203
255
263
391
219
406
20
336
337
355
177
245
10
111
329
181
58
101
417
267
287
4
70
276
318
92
269
343
100
438
163
116
367
30
306
429
135
243
410
63
366
51
176
64
156
335
96
137
126
94
364
398
38
145
220
304
412
259
88
214
66
305
310
109
422
174
33
345
87
389
72
160
346
356
127
167
189
83
307
57
114
105
151
260
399
191
298
331
368
363
327
420
41
212
148
262
280
229
134
387
184
44
360
53
149
235
354
418
168
196
52
249
129
50
244
90
225
314
285
430
309
289
27
192
292
393
35
365
431
385
443
68
375
416
300
153
246
223
39
11
404
347
182
379
234
227
59
108
216
251
341
3
340
119
401
224
424
322
319
123
428
218
221
179
159
427
353
82
199
339
278
277
334
170
348
381
408
47
444
46
215
141
29
112
103
65
274
317
441
325
124
84
142
73
338
95
316
238
110
128
386
115
79
62
186
26
370
49
42
56
266
395
293
434
388
125
171
256
396
433
323
409
328
372
350
295
414
69
9
217
373
265
45
162
169
352
250
282
226
81
21
185
207
258
324
14
43
222
198
155
358
236
158
16
118
161
175
106
303
131
91
210
24
201
332
351
80
60
36
357
165
302
85
190
8
273
120
136
411
154
321
102
37
78
423
183
344
211
12
18
313
312
195
384
392
294
17
204
130
297
437
315
133
209
187
138
421
248
23
48
440
76
284
415
330
13
67
426
15
144
407
146
231
439
376
104
380
400
86
178
55
374
77
242
107
32
7
6
157
390
290
75
208
188

>  <PUBCHEM_MMFF94_PARTIAL_CHARGES>  (1) 
22
1 -0.18
12 0.66
13 0.57
14 0.34
15 0.08
16 0.18
17 -0.15
18 -0.15
19 -0.15
2 -0.18
20 0.18
29 0.37
3 -0.65
32 0.5
33 0.15
34 0.15
35 0.15
4 -0.36
5 -0.57
6 -0.57
7 -0.73
9 0.36

>  <PUBCHEM_EFFECTIVE_ROTOR_COUNT>  (1) 
7

>  <PUBCHEM_PHARMACOPHORE_FEATURES>  (1) 
8
1 3 acceptor
1 4 acceptor
1 5 acceptor
1 6 acceptor
1 7 donor
3 3 5 12 anion
3 8 10 11 hydrophobe
6 15 16 17 18 19 20 rings

>  <PUBCHEM_HEAVY_ATOM_COUNT>  (1) 
20

>  <PUBCHEM_ATOM_DEF_STEREO_COUNT>  (1) 
0

>  <PUBCHEM_ATOM_UDEF_STEREO_COUNT>  (1) 
1

>  <PUBCHEM_BOND_DEF_STEREO_COUNT>  (1) 
0

>  <PUBCHEM_BOND_UDEF_STEREO_COUNT>  (1) 
0

>  <PUBCHEM_ISOTOPIC_ATOM_COUNT>  (1) 
0

>  <PUBCHEM_COMPONENT_COUNT>  (1) 
1

>  <PUBCHEM_CACTVS_TAUTO_COUNT>  (1) 
2

>  <PUBCHEM_CONFORMER_ID>  (1) 
00005D4E00000001

>  <PUBCHEM_MMFF94_ENERGY>  (1) 
45.8848

>  <PUBCHEM_FEATURE_SELFOVERLAP>  (1) 
40.665

>  <PUBCHEM_SHAPE_FINGERPRINT>  (1) 
10014705 185 18040151846844189585
10366900 7 16415482678884394602
10670039 82 16443913739181286710
10835480 77 18341326790105737048
13668630 136 16128659668984077900
14251740 57 14548470076723258124
14252887 29 12247679353519470880
14528608 73 18260545627894464001
15183329 4 18338516339758824355
15348495 7 8069735295876801901
15537594 2 15267339626084256861
15961568 22 18041282183648273020
17844677 252 18342183232449230705
17870717 6 18342747295358091223
1813 80 14476964497082115048
18222031 100 14405183979963823809
19433438 15 16515687779177956791
200 152 16630805504788037315
20645477 70 17703795778056874926
20871999 31 18343580738056827905
212847 35 13334740132981399094
21637258 2 15123209058732482805
22849339 104 18335714874848479519
23402539 116 18188204399054711504
23557571 272 18413107264295473377
23559900 14 18341608247923301008
268830 7 14201402732634333006
2838139 119 15430300439998604655
29717793 49 18202562847960126389
300161 21 18261385667662967520
3004659 81 18272651208399342342
34797466 226 18413390955812620125
351380 3 14189575243199593013
5281201 14 18413395323704767148
5283173 99 18339359665072177857
59682541 52 18338229354471065647
633830 44 16298679360001158162
960060 61 17775849020833937276
9971528 1 17967536761914483956

>  <PUBCHEM_SHAPE_MULTIPOLES>  (1) 
386.87
15.09
1.98
1.3
1.83
0.47
-0.49
-1.6
-5.74
-0.6
0.14
-0.32
0.33
1.26

>  <PUBCHEM_SHAPE_SELFOVERLAP>  (1) 
771.945

>  <PUBCHEM_SHAPE_VOLUME>  (1) 
229.3

>  <PUBCHEM_COORDINATE_TYPE>  (1) 
2
5
10

$$$$
