23887
     RDKit          3D

 17 16  0  0  1  0  0  0  0  0999 V2000
    0.2371    0.3727   -0.3434 O   0  0  0  0  0  0  0  0  0  0  0  0
   -2.6604    2.3298    0.4769 O   0  0  0  0  0  0  0  0  0  0  0  0
    3.4220    1.5601    0.8177 O   0  0  0  0  0  0  0  0  0  0  0  0
   -1.6670    1.8531   -1.5077 O   0  0  0  0  0  0  0  0  0  0  0  0
    1.8101    2.5376   -0.4468 O   0  0  0  0  0  0  0  0  0  0  0  0
   -3.2422   -1.7695    0.7448 O   0  0  0  0  0  0  0  0  0  0  0  0
    1.3465   -2.5549    1.0103 O   0  0  0  0  0  0  0  0  0  0  0  0
   -1.8137   -1.3516   -0.9763 O   0  0  0  0  0  0  0  0  0  0  0  0
    1.1481   -2.8623   -1.2354 O   0  0  0  0  0  0  0  0  0  0  0  0
   -0.7575    0.8897    0.5309 C   0  0  0  0  0  0  0  0  0  0  0  0
    1.4928    0.2492    0.3105 C   0  0  0  0  0  0  0  0  0  0  0  0
   -1.4735   -0.2858    1.1941 C   0  0  0  0  0  0  0  0  0  0  0  0
    2.2738   -0.8813   -0.3574 C   0  0  0  0  0  0  0  0  0  0  0  0
   -1.7217    1.7200   -0.2921 C   0  0  0  0  0  0  0  0  0  0  0  0
    2.2246    1.5695    0.1769 C   0  0  0  0  0  0  0  0  0  0  0  0
   -2.1563   -1.1775    0.1835 C   0  0  0  0  0  0  0  0  0  0  0  0
    1.5373   -2.1987   -0.2864 C   0  0  0  0  0  0  0  0  0  0  0  0
  1 10  1  0
  1 11  1  0
  2 14  1  0
  3 15  1  0
  4 14  2  0
  5 15  2  0
  6 16  1  0
  7 17  1  0
  8 16  2  0
  9 17  2  0
 10 12  1  0
 10 14  1  0
 11 13  1  0
 11 15  1  0
 12 16  1  0
 13 17  1  0
M  END
>  <PUBCHEM_COMPOUND_CID>  (1) 
23887

>  <PUBCHEM_CONFORMER_RMSD>  (1) 
0.8

>  <PUBCHEM_CONFORMER_DIVERSEORDER>  (1) 
1
7
48
31
39
45
20
123
118
41
21
124
101
52
102
89
94
30
80
92
72
28
19
35
62
126
47
103
23
26
44
5
71
119
97
121
113
104
25
81
93
105
73
4
108
24
79
65
98
78
111
18
88
96
56
120
114
54
60
53
22
55
42
64
106
83
90
99
85
125
13
43
91
82
116
117
109
49
51
69
95
6
70
12
10
115
86
84
29
107
61
76
87
38
27
66
46
110
63
2
67
16
122
75
68
33
11
9
77
57
14
74
40
15
100
58
34
32
17
36
50
8
112
3
59
37

>  <PUBCHEM_MMFF94_PARTIAL_CHARGES>  (1) 
21
1 -0.56
10 0.34
11 0.34
12 0.06
13 0.06
14 0.66
15 0.66
16 0.66
17 0.66
2 -0.65
24 0.5
25 0.5
26 0.5
27 0.5
3 -0.65
4 -0.57
5 -0.57
6 -0.65
7 -0.65
8 -0.57
9 -0.57

>  <PUBCHEM_EFFECTIVE_ROTOR_COUNT>  (1) 
8

>  <PUBCHEM_PHARMACOPHORE_FEATURES>  (1) 
13
1 1 acceptor
1 2 acceptor
1 3 acceptor
1 4 acceptor
1 5 acceptor
1 6 acceptor
1 7 acceptor
1 8 acceptor
1 9 acceptor
3 2 4 14 anion
3 3 5 15 anion
3 6 8 16 anion
3 7 9 17 anion

>  <PUBCHEM_HEAVY_ATOM_COUNT>  (1) 
17

>  <PUBCHEM_ATOM_DEF_STEREO_COUNT>  (1) 
0

>  <PUBCHEM_ATOM_UDEF_STEREO_COUNT>  (1) 
2

>  <PUBCHEM_BOND_DEF_STEREO_COUNT>  (1) 
0

>  <PUBCHEM_BOND_UDEF_STEREO_COUNT>  (1) 
0

>  <PUBCHEM_ISOTOPIC_ATOM_COUNT>  (1) 
0

>  <PUBCHEM_COMPONENT_COUNT>  (1) 
1

>  <PUBCHEM_CACTVS_TAUTO_COUNT>  (1) 
1

>  <PUBCHEM_CONFORMER_ID>  (1) 
00005D4F00000001

>  <PUBCHEM_MMFF94_ENERGY>  (1) 
21.614

>  <PUBCHEM_FEATURE_SELFOVERLAP>  (1) 
66.234

>  <PUBCHEM_SHAPE_FINGERPRINT>  (1) 
11132069 177 17912643798184085328
11680986 33 18340207367009089473
12524768 44 18123466077428231040
13140716 1 18338792321904874008
13380535 21 18337966588086974752
14178342 30 18411415090388933568
14614273 12 18335976553850839661
14648413 74 18339644417214001720
15852999 172 18047716421933683668
16945 1 17770506644126709073
17492 54 17470719378622962295
17990270 104 18269558234597874942
21160774 45 18053370291265016526
21501502 16 18409449150433525201
22802520 49 18335701594497428301
2334 1 18411134775227179824
23419403 2 16682518774441373035
23526114 1 18411986832435256404
23558518 356 18334580118491563121
2748010 2 18411978053406188708
3250762 1 18338239258559823329
589210 1 18410293579758740771
7364860 26 18271246019453494384
74978 22 18196938764237151281
81228 2 18040729060489567593

>  <PUBCHEM_SHAPE_MULTIPOLES>  (1) 
297.03
4.37
3.34
1.08
0.31
0.58
-0.11
-0.63
0.58
-0.67
-0.42
0.22
0.15
0.64

>  <PUBCHEM_SHAPE_SELFOVERLAP>  (1) 
593.662

>  <PUBCHEM_SHAPE_VOLUME>  (1) 
173.2

>  <PUBCHEM_COORDINATE_TYPE>  (1) 
2
5
10

$$$$
