23885
     RDKit          3D

 10  9  0  0  0  0  0  0  0  0999 V2000
   -2.1646    0.1330   -0.0748 O   0  0  0  0  0  0  0  0  0  0  0  0
    0.0578    1.8758    0.8633 O   0  0  0  0  0  0  0  0  0  0  0  0
    0.6472   -0.2505    0.1324 N   0  0  0  0  0  0  0  0  0  0  0  0
   -0.3142   -0.9758    0.9589 C   0  0  0  0  0  0  0  0  0  0  0  0
    1.4890   -1.0812   -0.7192 C   0  0  0  0  0  0  0  0  0  0  0  0
   -1.6318   -1.1514    0.2209 C   0  0  0  0  0  0  0  0  0  0  0  0
    0.7523    1.1407    0.1564 C   0  0  0  0  0  0  0  0  0  0  0  0
    2.7664   -1.4846   -0.0025 C   0  0  0  0  0  0  0  0  0  0  0  0
    1.7891    1.7565   -0.7495 C   0  0  0  0  0  0  0  0  0  0  0  0
   -3.3911    0.0376   -0.7860 C   0  0  0  0  0  0  0  0  0  0  0  0
  1  6  1  0
  1 10  1  0
  2  7  2  0
  3  4  1  0
  3  5  1  0
  3  7  1  0
  4  6  1  0
  5  8  1  0
  7  9  1  0
M  END
>  <PUBCHEM_COMPOUND_CID>  (1) 
23885

>  <PUBCHEM_CONFORMER_RMSD>  (1) 
0.6

>  <PUBCHEM_CONFORMER_DIVERSEORDER>  (1) 
1
32
28
19
11
25
18
30
5
39
38
6
9
17
4
27
40
10
35
37
23
24
8
31
12
3
21
7
29
2
36
34
14
13
22
20
26
33
15
16

>  <PUBCHEM_MMFF94_PARTIAL_CHARGES>  (1) 
9
1 -0.56
10 0.28
2 -0.57
3 -0.66
4 0.3
5 0.3
6 0.28
7 0.57
9 0.06

>  <PUBCHEM_EFFECTIVE_ROTOR_COUNT>  (1) 
5

>  <PUBCHEM_PHARMACOPHORE_FEATURES>  (1) 
2
1 1 acceptor
1 2 acceptor

>  <PUBCHEM_HEAVY_ATOM_COUNT>  (1) 
10

>  <PUBCHEM_ATOM_DEF_STEREO_COUNT>  (1) 
0

>  <PUBCHEM_ATOM_UDEF_STEREO_COUNT>  (1) 
0

>  <PUBCHEM_BOND_DEF_STEREO_COUNT>  (1) 
0

>  <PUBCHEM_BOND_UDEF_STEREO_COUNT>  (1) 
0

>  <PUBCHEM_ISOTOPIC_ATOM_COUNT>  (1) 
0

>  <PUBCHEM_COMPONENT_COUNT>  (1) 
1

>  <PUBCHEM_CACTVS_TAUTO_COUNT>  (1) 
1

>  <PUBCHEM_CONFORMER_ID>  (1) 
00005D4D00000001

>  <PUBCHEM_MMFF94_ENERGY>  (1) 
16.9652

>  <PUBCHEM_FEATURE_SELFOVERLAP>  (1) 
10.15

>  <PUBCHEM_SHAPE_FINGERPRINT>  (1) 
12897270 3 17838050764803267391
13839132 238 17677612149501698975
14120999 15 18042697099992419076
20201158 50 18409449163403070062
20653085 51 15358569378706150526
21040471 1 17691128562096132672
23552423 10 18334581290595615634
54338 74 18190468147319727722

>  <PUBCHEM_SHAPE_MULTIPOLES>  (1) 
189.08
4.02
1.96
0.94
2.61
0.64
-0.02
-0.8
1.32
-1.27
-0.1
0.07
0.06
0.06

>  <PUBCHEM_SHAPE_SELFOVERLAP>  (1) 
344.939

>  <PUBCHEM_SHAPE_VOLUME>  (1) 
121.6

>  <PUBCHEM_COORDINATE_TYPE>  (1) 
2
5
10

$$$$
