23891
     RDKit          3D

  7  7  0  0  0  0  0  0  0  0999 V2000
    0.5270    1.0372    0.1256 N   0  0  0  0  0  0  0  0  0  0  0  0
    0.4775   -1.1463    0.0530 N   0  0  0  0  0  0  0  0  0  0  0  0
    1.7920    0.7112   -0.1803 N   0  0  0  0  0  0  0  0  0  0  0  0
   -1.6793    0.0034    0.5965 C   0  0  0  0  0  0  0  0  0  0  0  0
   -0.2478   -0.0722    0.2624 C   0  0  0  0  0  0  0  0  0  0  0  0
   -2.5789    0.0874   -0.6444 C   0  0  0  0  0  0  0  0  0  0  0  0
    1.7094   -0.6206   -0.2127 C   0  0  0  0  0  0  0  0  0  0  0  0
  1  3  1  0
  1  5  1  0
  2  5  2  0
  2  7  1  0
  3  7  2  0
  4  5  1  0
  4  6  1  0
M  END
>  <PUBCHEM_COMPOUND_CID>  (1) 
23891

>  <PUBCHEM_CONFORMER_RMSD>  (1) 
0.4

>  <PUBCHEM_CONFORMER_DIVERSEORDER>  (1) 
2
1
3
4

>  <PUBCHEM_MMFF94_PARTIAL_CHARGES>  (1) 
8
1 0.3
13 0.27
14 0.15
2 -0.57
3 -0.71
4 0.18
5 0.01
7 0.37

>  <PUBCHEM_EFFECTIVE_ROTOR_COUNT>  (1) 
1

>  <PUBCHEM_PHARMACOPHORE_FEATURES>  (1) 
5
1 1 donor
1 6 hydrophobe
3 1 2 5 cation
3 2 3 7 cation
5 1 2 3 5 7 rings

>  <PUBCHEM_HEAVY_ATOM_COUNT>  (1) 
7

>  <PUBCHEM_ATOM_DEF_STEREO_COUNT>  (1) 
0

>  <PUBCHEM_ATOM_UDEF_STEREO_COUNT>  (1) 
0

>  <PUBCHEM_BOND_DEF_STEREO_COUNT>  (1) 
0

>  <PUBCHEM_BOND_UDEF_STEREO_COUNT>  (1) 
0

>  <PUBCHEM_ISOTOPIC_ATOM_COUNT>  (1) 
0

>  <PUBCHEM_COMPONENT_COUNT>  (1) 
1

>  <PUBCHEM_CACTVS_TAUTO_COUNT>  (1) 
5

>  <PUBCHEM_CONFORMER_ID>  (1) 
00005D5300000002

>  <PUBCHEM_MMFF94_ENERGY>  (1) 
-0.5676

>  <PUBCHEM_FEATURE_SELFOVERLAP>  (1) 
28.12

>  <PUBCHEM_SHAPE_FINGERPRINT>  (1) 
20096714 4 18338804519057911448
21040471 1 18337675346523106818
24536 1 18409732850424763521
29004967 10 18408612439264598539
5460574 1 8646772187962050179

>  <PUBCHEM_SHAPE_MULTIPOLES>  (1) 
129.11
3
0.99
0.73
1.31
0.01
0
-0.06
-0.57
-0.36
0
0.27
0.01
0.02

>  <PUBCHEM_SHAPE_SELFOVERLAP>  (1) 
257.243

>  <PUBCHEM_SHAPE_VOLUME>  (1) 
76.3

>  <PUBCHEM_COORDINATE_TYPE>  (1) 
2
5
10

$$$$
