23890
     RDKit          3D

 28 30  0  0  1  0  0  0  0  0999 V2000
    0.9480    1.7389   -1.3977 O   0  0  0  0  0  0  0  0  0  0  0  0
    3.6773    1.6874   -1.2177 O   0  0  0  0  0  0  0  0  0  0  0  0
    4.9151    0.1961    0.7533 O   0  0  0  0  0  0  0  0  0  0  0  0
   -4.9625    1.9392    0.3131 O   0  0  0  0  0  0  0  0  0  0  0  0
   -4.4932   -0.0624   -1.5471 O   0  0  0  0  0  0  0  0  0  0  0  0
   -1.1707   -3.4881   -2.1886 O   0  0  0  0  0  0  0  0  0  0  0  0
    0.2127   -2.4617   -0.6089 N   0  0  0  0  0  0  0  0  0  0  0  0
   -0.7656   -2.2553    0.4420 C   0  0  0  0  0  0  0  0  0  0  0  0
   -0.1565   -2.4588    1.8479 C   0  0  0  0  0  0  0  0  0  0  0  0
    0.5723   -1.2730    2.4935 C   0  0  0  0  0  0  0  0  0  0  0  0
   -1.4878   -0.9264    0.1998 C   0  0  0  0  0  0  0  0  0  0  0  0
    1.3955   -0.4677    1.5231 C   0  0  0  0  0  0  0  0  0  0  0  0
    0.7579    0.3010    0.5267 C   0  0  0  0  0  0  0  0  0  0  0  0
   -0.7324    0.3130    0.4425 C   0  0  0  0  0  0  0  0  0  0  0  0
    1.5351    1.0196   -0.3954 C   0  0  0  0  0  0  0  0  0  0  0  0
    2.7947   -0.4915    1.5872 C   0  0  0  0  0  0  0  0  0  0  0  0
   -2.7367   -0.9878   -0.2978 C   0  0  0  0  0  0  0  0  0  0  0  0
   -1.2816    1.5149    0.7026 C   0  0  0  0  0  0  0  0  0  0  0  0
    2.9273    0.9877   -0.3185 C   0  0  0  0  0  0  0  0  0  0  0  0
    3.5554    0.2354    0.6717 C   0  0  0  0  0  0  0  0  0  0  0  0
   -3.6736    0.1057   -0.6458 C   0  0  0  0  0  0  0  0  0  0  0  0
   -2.6698    1.8827    0.7928 C   0  0  0  0  0  0  0  0  0  0  0  0
   -3.7241    1.3292    0.1880 C   0  0  0  0  0  0  0  0  0  0  0  0
   -0.0900   -3.0544   -1.8105 C   0  0  0  0  0  0  0  0  0  0  0  0
    0.7152    1.0588   -2.6275 C   0  0  0  0  0  0  0  0  0  0  0  0
    4.0201    3.0267   -0.8702 C   0  0  0  0  0  0  0  0  0  0  0  0
    5.5788   -0.8288    0.0166 C   0  0  0  0  0  0  0  0  0  0  0  0
   -5.6607    1.4194    1.4249 C   0  0  0  0  0  0  0  0  0  0  0  0
  1 15  1  0
  1 25  1  0
  2 19  1  0
  2 26  1  0
  3 20  1  0
  3 27  1  0
  4 23  1  0
  4 28  1  0
  5 21  2  0
  6 24  2  0
  7  8  1  0
  7 24  1  0
  8  9  1  0
  8 11  1  0
  9 10  1  0
 10 12  1  0
 11 14  1  0
 11 17  2  0
 12 13  2  0
 12 16  1  0
 13 14  1  0
 13 15  1  0
 14 18  2  0
 15 19  2  0
 16 20  2  0
 17 21  1  0
 18 22  1  0
 19 20  1  0
 21 23  1  0
 22 23  2  0
M  END
>  <PUBCHEM_COMPOUND_CID>  (1) 
23890

>  <PUBCHEM_CONFORMER_RMSD>  (1) 
0.8

>  <PUBCHEM_CONFORMER_DIVERSEORDER>  (1) 
1
6
9
31
28
14
29
20
16
30
27
12
10
11
15
22
26
18
5
7
21
4
25
17
24
19
8
3
23
2
13

>  <PUBCHEM_MMFF94_PARTIAL_CHARGES>  (1) 
33
1 -0.36
10 0.14
11 -0.14
12 -0.14
13 0.03
14 -0.03
15 0.08
16 -0.15
17 -0.14
18 -0.15
19 0.08
2 -0.36
20 0.08
21 0.54
22 -0.15
23 0.09
24 0.57
25 0.28
26 0.28
27 0.28
28 0.28
3 -0.36
34 0.15
35 0.37
36 0.15
37 0.15
38 0.15
39 0.06
4 -0.36
5 -0.57
6 -0.57
7 -0.73
8 0.44

>  <PUBCHEM_EFFECTIVE_ROTOR_COUNT>  (1) 
6.6

>  <PUBCHEM_PHARMACOPHORE_FEATURES>  (1) 
10
1 1 acceptor
1 2 acceptor
1 3 acceptor
1 4 acceptor
1 5 acceptor
1 6 acceptor
1 7 donor
6 12 13 15 16 19 20 rings
7 11 14 17 18 21 22 23 rings
7 8 9 10 11 12 13 14 rings

>  <PUBCHEM_HEAVY_ATOM_COUNT>  (1) 
28

>  <PUBCHEM_ATOM_DEF_STEREO_COUNT>  (1) 
1

>  <PUBCHEM_ATOM_UDEF_STEREO_COUNT>  (1) 
0

>  <PUBCHEM_BOND_DEF_STEREO_COUNT>  (1) 
0

>  <PUBCHEM_BOND_UDEF_STEREO_COUNT>  (1) 
0

>  <PUBCHEM_ISOTOPIC_ATOM_COUNT>  (1) 
0

>  <PUBCHEM_COMPONENT_COUNT>  (1) 
1

>  <PUBCHEM_CACTVS_TAUTO_COUNT>  (1) 
2

>  <PUBCHEM_CONFORMER_ID>  (1) 
00005D5200000001

>  <PUBCHEM_MMFF94_ENERGY>  (1) 
132.4198

>  <PUBCHEM_FEATURE_SELFOVERLAP>  (1) 
50.78

>  <PUBCHEM_SHAPE_FINGERPRINT>  (1) 
10382601 240 18117843187985908467
11370993 70 18059853952710495422
11640471 11 18187648071360767949
12236239 1 18335137574744086569
12422481 6 17906708338044132234
12788726 201 17979350086088665151
13140716 1 17531248422241695144
13583140 156 16877656847481505715
14251757 17 15051728720292573709
14955137 171 17895490136621786088
15420108 30 17474671646616678536
16752209 62 18272077353376302491
16945 1 18114177484822250954
18681886 176 18341885286431104896
20691752 17 17969508091199110771
21033650 10 16485876656480512200
21781055 127 17773056188870875456
23402539 116 18060412504211398873
23419403 2 15360193271349297306
23559900 14 18340205293431754088
23598288 3 18265339601681890890
298252 57 18413668019478220394
38695281 34 18272087133117114439
404807 14 16477992930597735798
469060 322 14202238430164747610
474 4 18187083914848408897
5104073 3 17895193371904653488
59755656 215 18196094347923379645

>  <PUBCHEM_SHAPE_MULTIPOLES>  (1) 
536.03
9.1
3.19
2.08
1.24
1.43
-0.54
-5.87
1.06
-0.07
-1.27
0.08
1
-1.88

>  <PUBCHEM_SHAPE_SELFOVERLAP>  (1) 
1148.832

>  <PUBCHEM_SHAPE_VOLUME>  (1) 
292.7

>  <PUBCHEM_COORDINATE_TYPE>  (1) 
2
5
10

$$$$
