2390
     RDKit          3D

 22 23  0  0  0  0  0  0  0  0999 V2000
   -5.8566   -1.3599    0.3540 O   0  0  0  0  0  0  0  0  0  0  0  0
   -6.4880    1.1535   -0.6526 O   0  0  0  0  0  0  0  0  0  0  0  0
    1.2970   -0.4686    1.9284 O   0  0  0  0  0  0  0  0  0  0  0  0
    2.0101   -1.3387   -0.0893 N   0  0  0  0  0  0  0  0  0  0  0  0
   -0.7418   -1.1737   -2.3399 N   0  0  0  0  0  0  0  0  0  0  0  0
    3.3624   -1.6312    0.3313 C   0  0  0  0  0  0  0  0  0  0  0  0
    4.2893   -0.4701    0.0870 C   0  0  0  0  0  0  0  0  0  0  0  0
   -2.6132    0.2917    0.5065 C   0  0  0  0  0  0  0  0  0  0  0  0
    4.9594   -0.3738   -1.1246 C   0  0  0  0  0  0  0  0  0  0  0  0
    4.4606    0.4873    1.0770 C   0  0  0  0  0  0  0  0  0  0  0  0
   -1.2331   -0.0106    0.9166 C   0  0  0  0  0  0  0  0  0  0  0  0
    1.0708   -0.7715    0.7579 C   0  0  0  0  0  0  0  0  0  0  0  0
   -0.2790   -0.5408    0.1267 C   0  0  0  0  0  0  0  0  0  0  0  0
   -3.5888   -0.6863    0.6262 C   0  0  0  0  0  0  0  0  0  0  0  0
   -2.9146    1.5494    0.0064 C   0  0  0  0  0  0  0  0  0  0  0  0
   -4.8971   -0.3998    0.2365 C   0  0  0  0  0  0  0  0  0  0  0  0
    5.8182    0.7017   -1.3506 C   0  0  0  0  0  0  0  0  0  0  0  0
    5.3194    1.5629    0.8508 C   0  0  0  0  0  0  0  0  0  0  0  0
   -5.2142    0.8613   -0.2683 C   0  0  0  0  0  0  0  0  0  0  0  0
   -4.2229    1.8358   -0.3833 C   0  0  0  0  0  0  0  0  0  0  0  0
    5.9983    1.6702   -0.3630 C   0  0  0  0  0  0  0  0  0  0  0  0
   -0.5363   -0.8889   -1.2338 C   0  0  0  0  0  0  0  0  0  0  0  0
  1 16  1  0
  2 19  1  0
  3 12  2  0
  4  6  1  0
  4 12  1  0
  5 22  3  0
  6  7  1  0
  7  9  2  0
  7 10  1  0
  8 11  1  0
  8 14  2  0
  8 15  1  0
  9 17  1  0
 10 18  2  0
 11 13  2  0
 12 13  1  0
 13 22  1  0
 14 16  1  0
 15 20  2  0
 16 19  2  0
 17 21  2  0
 18 21  1  0
 19 20  1  0
M  END
>  <PUBCHEM_COMPOUND_CID>  (1) 
2390

>  <PUBCHEM_CONFORMER_RMSD>  (1) 
0.8

>  <PUBCHEM_CONFORMER_DIVERSEORDER>  (1) 
2
17
5
22
29
43
12
32
27
21
30
7
25
34
11
28
33
42
6
35
36
4
8
39
40
14
26
18
37
41
3
1
13
16
20
19
38
31
15
10
23
9
24

>  <PUBCHEM_MMFF94_PARTIAL_CHARGES>  (1) 
34
1 -0.53
10 -0.15
11 -0.18
12 0.62
13 0.08
14 -0.15
15 -0.15
16 0.08
17 -0.15
18 -0.15
19 0.08
2 -0.53
20 -0.15
21 -0.15
22 0.49
25 0.37
26 0.15
27 0.15
28 0.15
29 0.15
3 -0.57
30 0.15
31 0.15
32 0.15
33 0.15
34 0.15
35 0.45
36 0.45
4 -0.73
5 -0.56
6 0.44
7 -0.14
8 0.03
9 -0.15

>  <PUBCHEM_EFFECTIVE_ROTOR_COUNT>  (1) 
5

>  <PUBCHEM_PHARMACOPHORE_FEATURES>  (1) 
7
1 1 donor
1 2 donor
1 3 acceptor
1 4 donor
1 5 acceptor
6 7 9 10 17 18 21 rings
6 8 14 15 16 19 20 rings

>  <PUBCHEM_HEAVY_ATOM_COUNT>  (1) 
22

>  <PUBCHEM_ATOM_DEF_STEREO_COUNT>  (1) 
0

>  <PUBCHEM_ATOM_UDEF_STEREO_COUNT>  (1) 
0

>  <PUBCHEM_BOND_DEF_STEREO_COUNT>  (1) 
0

>  <PUBCHEM_BOND_UDEF_STEREO_COUNT>  (1) 
1

>  <PUBCHEM_ISOTOPIC_ATOM_COUNT>  (1) 
0

>  <PUBCHEM_COMPONENT_COUNT>  (1) 
1

>  <PUBCHEM_CACTVS_TAUTO_COUNT>  (1) 
20

>  <PUBCHEM_CONFORMER_ID>  (1) 
0000095600000002

>  <PUBCHEM_MMFF94_ENERGY>  (1) 
53.6537

>  <PUBCHEM_FEATURE_SELFOVERLAP>  (1) 
35.526

>  <PUBCHEM_SHAPE_FINGERPRINT>  (1) 
10670039 82 17703519796549356552
11128504 68 16271926021651828808
11796584 16 9367344825480226796
11991303 11 17704067438806806087
12236239 1 17385443185888224139
12516196 113 14273459192937856309
12596602 18 17603585227191110817
12633257 1 16226050046076701308
12730499 353 18343027696635435554
13533116 47 13334726921936628216
13685833 64 11312055448464465148
14251751 18 9439393627609440348
14347332 77 14045751378412868154
14528608 73 18411982459936989904
15048467 5 17821730524432758277
15183329 4 15482673481047339812
15348495 7 11242266167946481116
15575132 122 18059293167405208437
15961568 22 18113904849237019036
17834072 33 18408603656061915275
17980427 23 17749116582444460095
1813 80 14045739318339880226
19784866 240 9655582932978824480
1979834 28 12757144667751897856
20511986 3 17095793370094717195
20567600 234 16877950459402980428
21150785 3 17774999115599401733
21267235 1 13470398994777377637
21641784 216 17489036976228416080
22079108 93 18186800309568055586
221357 26 17561084692194763304
23227448 37 18270397316820286180
23559900 14 17979066090113851339
23569914 2 17612258166417337708
23569943 247 13901086417279946004
26918003 58 11025797604462140426
2767999 5 17167581600583764460
300161 21 17313097519793165379
3004659 81 16773803572176353798
3472631 163 18200594813010893668
34797466 226 18342749519565373710
351380 3 13758075177707232764
4072396 5 14057000516305116770
4325135 7 18334577966401613911
465052 167 9727636111969999808
5104073 3 17967817085285967929
5374978 207 14057001620549431510
53794403 172 18122344838031409944
6913067 236 15864063282444544130
960060 61 14261351384363322888

>  <PUBCHEM_SHAPE_MULTIPOLES>  (1) 
425.18
16.64
1.69
1.38
0.12
0.38
-0.35
6.64
-1.95
0.1
-0.12
0.92
-0.26
0.43

>  <PUBCHEM_SHAPE_SELFOVERLAP>  (1) 
910.114

>  <PUBCHEM_SHAPE_VOLUME>  (1) 
232

>  <PUBCHEM_COORDINATE_TYPE>  (1) 
2
5
10

$$$$
