23916
     RDKit          3D

 10  9  0  0  0  0  0  0  0  0999 V2000
   -2.7535   -0.1947   -0.2765 C   0  0  0  0  0  0  0  0  0  0  0  0
    2.7176   -0.2726    0.2393 C   0  0  0  0  0  0  0  0  0  0  0  0
   -1.9297    1.0157    0.1757 C   0  0  0  0  0  0  0  0  0  0  0  0
    1.9656    0.9974   -0.1632 C   0  0  0  0  0  0  0  0  0  0  0  0
   -4.1698   -0.2767    0.3024 C   0  0  0  0  0  0  0  0  0  0  0  0
    4.1505   -0.2611   -0.2939 C   0  0  0  0  0  0  0  0  0  0  0  0
   -0.5333    1.0142   -0.3755 C   0  0  0  0  0  0  0  0  0  0  0  0
    0.5694    1.0008    0.3875 C   0  0  0  0  0  0  0  0  0  0  0  0
   -4.9316   -1.5197   -0.1307 C   0  0  0  0  0  0  0  0  0  0  0  0
    4.9149   -1.5034    0.1350 C   0  0  0  0  0  0  0  0  0  0  0  0
  1  3  1  0
  1  5  1  0
  2  4  1  0
  2  6  1  0
  3  7  1  0
  4  8  1  0
  5  9  1  0
  6 10  1  0
  7  8  2  0
M  END
>  <PUBCHEM_COMPOUND_CID>  (1) 
23916

>  <PUBCHEM_CONFORMER_RMSD>  (1) 
0.6

>  <PUBCHEM_CONFORMER_DIVERSEORDER>  (1) 
4
53
1
119
81
23
125
70
82
111
11
152
62
16
87
32
39
151
67
141
135
78
144
27
19
26
91
150
36
110
133
29
160
72
5
22
37
120
92
104
132
9
101
7
34
153
40
15
113
10
54
124
41
96
45
154
145
50
94
149
12
123
142
44
18
103
76
31
56
64
126
8
2
75
66
118
129
25
35
47
158
156
14
105
155
148
21
108
137
3
121
57
65
127
68
61
130
52
73
97
106
71
20
146
122
38
84
80
43
63
86
117
157
95
46
6
83
139
134
159
55
69
74
88
147
131
59
140
115
93
98
24
60
28
102
13
128
100
77
85
143
58
79
107
136
49
90
112
30
17
116
109
33
138
99
114
51
48
42
89

>  <PUBCHEM_MMFF94_PARTIAL_CHARGES>  (1) 
6
23 0.15
24 0.15
3 0.14
4 0.14
7 -0.29
8 -0.29

>  <PUBCHEM_EFFECTIVE_ROTOR_COUNT>  (1) 
6

>  <PUBCHEM_PHARMACOPHORE_FEATURES>  (1) 
4
1 10 hydrophobe
1 9 hydrophobe
4 1 3 5 7 hydrophobe
4 2 4 6 8 hydrophobe

>  <PUBCHEM_HEAVY_ATOM_COUNT>  (1) 
10

>  <PUBCHEM_ATOM_DEF_STEREO_COUNT>  (1) 
0

>  <PUBCHEM_ATOM_UDEF_STEREO_COUNT>  (1) 
0

>  <PUBCHEM_BOND_DEF_STEREO_COUNT>  (1) 
0

>  <PUBCHEM_BOND_UDEF_STEREO_COUNT>  (1) 
1

>  <PUBCHEM_ISOTOPIC_ATOM_COUNT>  (1) 
0

>  <PUBCHEM_COMPONENT_COUNT>  (1) 
1

>  <PUBCHEM_CACTVS_TAUTO_COUNT>  (1) 
1

>  <PUBCHEM_CONFORMER_ID>  (1) 
00005D6C00000004

>  <PUBCHEM_MMFF94_ENERGY>  (1) 
-4.2221

>  <PUBCHEM_FEATURE_SELFOVERLAP>  (1) 
20.3

>  <PUBCHEM_SHAPE_FINGERPRINT>  (1) 
100836 57 9727631726280850042
114248 4 16081092592758696700
12032990 46 18410855460133715877
122479 349 10447634812564884100
13690532 89 18408604759915853074
14123255 352 10447932750114492643
1420 369 18341896268667735606
14251710 61 18410856559655737263
14252887 29 17060346193183178806
14455015 7 18187653539487041179
15477762 27 18333452049821408292
15501527 24 17821734935817949366
177051 138 18411981372925369444
17834072 32 9222936089427597898
17834072 8 18187918466218374597
18342897 14 11312052149803065738
20374829 77 18333728005379839707
20432913 95 18131357396755736378
20605781 2 9007061266427526927
20621476 51 17487326295318645743
20645477 56 9079111176605484017
20645477 70 18260828241032207342
20671657 53 18334581251899004493
20724930 31 18342174466800280952
20767249 142 18409449172177724794
20871999 31 17095518474754599157
21119208 17 15647054871472259143
212847 35 8718827574888084598
21293036 1 15502376733437895612
22485316 2 18410571786133684705
22926399 37 11530480025970405631
22959321 54 8502384338024379583
23402539 116 16878225260317050172
23402655 69 12179837312515839203
23403322 49 18407758123288677211
42 15 18059859462868491385

>  <PUBCHEM_SHAPE_MULTIPOLES>  (1) 
205.8
11.24
1.5
0.69
0.26
0.29
0
7.78
0
0.02
0
0.01
-0.02
-0.19

>  <PUBCHEM_SHAPE_SELFOVERLAP>  (1) 
362.742

>  <PUBCHEM_SHAPE_VOLUME>  (1) 
133.4

>  <PUBCHEM_COORDINATE_TYPE>  (1) 
2
5
10

$$$$
