23918
     RDKit          3D

 13 13  0  0  0  0  0  0  0  0999 V2000
    2.3926   -1.8270    0.8330 O   0  0  0  0  0  0  0  0  0  0  0  0
   -2.7490    0.1167    0.3176 N   0  0  0  0  0  0  0  0  0  0  0  0
    1.5388   -0.1529   -0.5848 N   0  0  0  0  0  0  0  0  0  0  0  0
   -1.3153   -0.3893    0.2489 C   0  0  0  0  0  0  0  0  0  0  0  0
   -0.8468   -0.3596   -1.2003 C   0  0  0  0  0  0  0  0  0  0  0  0
    0.5708   -0.8994   -1.3586 C   0  0  0  0  0  0  0  0  0  0  0  0
    1.8406    1.2276   -0.8804 C   0  0  0  0  0  0  0  0  0  0  0  0
    2.5946    1.6862    0.3518 C   0  0  0  0  0  0  0  0  0  0  0  0
   -3.2143    0.1272    1.7667 C   0  0  0  0  0  0  0  0  0  0  0  0
   -2.8162    1.5283   -0.2470 C   0  0  0  0  0  0  0  0  0  0  0  0
   -3.6501   -0.7995   -0.4978 C   0  0  0  0  0  0  0  0  0  0  0  0
    3.2921    0.4242    0.8449 C   0  0  0  0  0  0  0  0  0  0  0  0
    2.3622   -0.6825    0.4060 C   0  0  0  0  0  0  0  0  0  0  0  0
  1 13  2  0
  2  4  1  0
  2  9  1  0
  2 10  1  0
  2 11  1  0
  3  6  1  0
  3  7  1  0
  3 13  1  0
  4  5  1  0
  5  6  1  0
  7  8  1  0
  8 12  1  0
 12 13  1  0
M  CHG  1   2   1
M  END
>  <PUBCHEM_COMPOUND_CID>  (1) 
23918

>  <PUBCHEM_CONFORMER_RMSD>  (1) 
0.6

>  <PUBCHEM_CONFORMER_DIVERSEORDER>  (1) 
2
10
12
9
6
7
11
5
8
3
4
1

>  <PUBCHEM_MMFF94_PARTIAL_CHARGES>  (1) 
11
1 -0.57
10 0.5
11 0.5
12 0.06
13 0.57
2 -1.01
3 -0.66
4 0.5
6 0.3
7 0.3
9 0.5

>  <PUBCHEM_EFFECTIVE_ROTOR_COUNT>  (1) 
4.8

>  <PUBCHEM_PHARMACOPHORE_FEATURES>  (1) 
3
1 1 acceptor
1 2 cation
5 3 7 8 12 13 rings

>  <PUBCHEM_HEAVY_ATOM_COUNT>  (1) 
13

>  <PUBCHEM_ATOM_DEF_STEREO_COUNT>  (1) 
0

>  <PUBCHEM_ATOM_UDEF_STEREO_COUNT>  (1) 
0

>  <PUBCHEM_BOND_DEF_STEREO_COUNT>  (1) 
0

>  <PUBCHEM_BOND_UDEF_STEREO_COUNT>  (1) 
0

>  <PUBCHEM_ISOTOPIC_ATOM_COUNT>  (1) 
0

>  <PUBCHEM_COMPONENT_COUNT>  (1) 
1

>  <PUBCHEM_CACTVS_TAUTO_COUNT>  (1) 
2

>  <PUBCHEM_CONFORMER_ID>  (1) 
00005D6E00000002

>  <PUBCHEM_MMFF94_ENERGY>  (1) 
29.9605

>  <PUBCHEM_FEATURE_SELFOVERLAP>  (1) 
15.223

>  <PUBCHEM_SHAPE_FINGERPRINT>  (1) 
10149128 111 17418098736339732801
10799339 124 18187925032458608689
10980938 120 18413106177968882068
11471102 22 18114173138468269334
11715629 250 13542459839372416795
12162725 195 18342737412253065045
12251169 10 18335698364333985630
12346177 29 15502648347829071339
12696612 119 18335424577417540684
12897270 3 11384110847357308422
12932764 1 18337403668482914495
13296908 3 14490194937937384135
13693222 15 18407762551542234735
13764800 53 16988290871067230315
14144814 61 18342174475031545423
14350558 41 11963657916126156256
15775835 57 18131349760440949704
17357990 137 17703795820784819560
17834069 15 18115301151188064805
18186145 218 17131847434021070709
19107657 47 18337379487595543837
19107657 9 17489318511081018728
201361 129 18408322203098163120
20233049 118 16989124262342125256
20279233 1 15936401252052783627
20281407 28 15140955145406254844
20361792 2 13334737946479204343
20711985 344 13985488202545917127
21028194 46 17846780723491614846
21524375 3 17917147320470493526
21713013 43 10519696817539844257
22169311 14 17967815990227594569
22485316 2 13840259308054161260
230 275 18410581699108082156
232386 152 13262670452610081320
23557571 272 14764337284608629677
3248919 1 17168148948704866845
57812782 119 17748823025302622033
81228 2 15120945283616456263
9882013 296 18200879590442635387

>  <PUBCHEM_SHAPE_MULTIPOLES>  (1) 
251.7
6.53
1.54
1.36
2.5
0.2
-0.2
1.11
-1.83
-0.55
0.07
0.28
-0.09
-0.49

>  <PUBCHEM_SHAPE_SELFOVERLAP>  (1) 
484.678

>  <PUBCHEM_SHAPE_VOLUME>  (1) 
157.1

>  <PUBCHEM_COORDINATE_TYPE>  (1) 
2
5
10

$$$$
