2395
     RDKit          3D

 24 24  0  0  0  0  0  0  0  0999 V2000
    1.2386   -3.5233   -1.3270 S   0  0  0  0  0  0  0  0  0  0  0  0
    2.8811   -0.0380    0.3965 O   0  0  0  0  0  0  0  0  0  0  0  0
    4.6545    0.9846   -0.6660 O   0  0  0  0  0  0  0  0  0  0  0  0
   -3.0259   -3.3233   -0.1646 O   0  0  0  0  0  0  0  0  0  0  0  0
   -1.0462   -2.0713   -0.0499 N   0  0  0  0  0  0  0  0  0  0  0  0
   -2.4520    2.4377   -0.5178 N   0  0  0  0  0  0  0  0  0  0  0  0
   -3.8149    0.9717    0.8240 N   0  0  0  0  0  0  0  0  0  0  0  0
   -0.7620    1.5454   -1.9221 N   0  0  0  0  0  0  0  0  0  0  0  0
    0.1651   -1.9207    0.5805 C   0  0  0  0  0  0  0  0  0  0  0  0
   -1.3866   -1.1389   -1.1145 C   0  0  0  0  0  0  0  0  0  0  0  0
    2.6383   -2.4210    0.8129 C   0  0  0  0  0  0  0  0  0  0  0  0
    1.2826   -2.5443    0.1365 C   0  0  0  0  0  0  0  0  0  0  0  0
    3.4995   -1.3058    0.2223 C   0  0  0  0  0  0  0  0  0  0  0  0
    2.7957    2.3154    0.1716 C   0  0  0  0  0  0  0  0  0  0  0  0
   -2.1088    0.0697   -0.5933 C   0  0  0  0  0  0  0  0  0  0  0  0
    0.0986   -1.0270    1.7895 C   0  0  0  0  0  0  0  0  0  0  0  0
    3.5710    1.0379   -0.0988 C   0  0  0  0  0  0  0  0  0  0  0  0
   -1.8051    1.3491   -0.9837 C   0  0  0  0  0  0  0  0  0  0  0  0
    3.0335    3.3378   -0.9367 C   0  0  0  0  0  0  0  0  0  0  0  0
    3.1930    2.8806    1.5300 C   0  0  0  0  0  0  0  0  0  0  0  0
   -1.9231   -3.0834    0.3158 C   0  0  0  0  0  0  0  0  0  0  0  0
   -3.1261   -0.0718    0.3170 C   0  0  0  0  0  0  0  0  0  0  0  0
   -3.4313    2.1801    0.3700 C   0  0  0  0  0  0  0  0  0  0  0  0
   -4.1695    3.3587    0.9077 C   0  0  0  0  0  0  0  0  0  0  0  0
  1 12  1  0
  2 13  1  0
  2 17  1  0
  3 17  2  0
  4 21  2  0
  5  9  1  0
  5 10  1  0
  5 21  1  0
  6 18  2  0
  6 23  1  0
  7 22  1  0
  7 23  2  0
  8 18  1  0
  9 12  2  0
  9 16  1  0
 10 15  1  0
 11 12  1  0
 11 13  1  0
 14 17  1  0
 14 19  1  0
 14 20  1  0
 15 18  1  0
 15 22  2  0
 23 24  1  0
M  END
>  <PUBCHEM_COMPOUND_CID>  (1) 
2395

>  <PUBCHEM_CONFORMER_RMSD>  (1) 
1

>  <PUBCHEM_CONFORMER_DIVERSEORDER>  (1) 
1
216
88
122
67
211
60
134
95
112
198
195
251
189
246
210
113
178
118
239
54
100
135
63
184
115
18
49
225
109
64
13
141
200
152
173
145
59
127
102
185
155
181
19
254
235
255
168
240
205
17
163
104
103
43
38
71
157
52
111
41
148
15
187
83
50
224
252
14
219
253
222
68
149
213
234
204
250
31
53
230
86
57
107
56
105
39
8
110
28
62
66
192
126
80
241
153
188
51
37
158
77
23
87
45
247
215
116
3
136
242
236
245
97
119
218
156
221
2
146
196
138
223
220
93
183
208
82
120
207
69
249
237
177
165
248
98
99
16
101
191
169
197
70
150
160
140
42
172
182
199
162
193
214
161
48
180
114
176
228
233
132
142
201
232
209
202
44
81
30
11
144
229
174
227
121
179
92
46
40
84
206
133
243
34
139
33
147
9
25
47
226
91
217
55
29
106
65
24
6
129
238
20
151
73
131
72
143
166
89
85
61
4
186
154
96
32
190
7
76
130
125
212
231
36
5
128
21
175
194
22
12
167
27
26
171
244
164
159
35
170
94
124
117
78
123
137
75
203
10
58
79
90
108
74

>  <PUBCHEM_MMFF94_PARTIAL_CHARGES>  (1) 
27
1 -0.28
10 0.44
11 0.14
12 -0.04
13 0.28
14 0.06
15 -0.14
16 0.14
17 0.66
18 0.41
2 -0.43
21 0.57
22 0.16
23 0.48
24 0.14
3 -0.57
4 -0.57
41 0.06
42 0.15
43 0.18
44 0.4
45 0.4
5 -0.47
6 -0.62
7 -0.62
8 -0.9
9 -0.03

>  <PUBCHEM_EFFECTIVE_ROTOR_COUNT>  (1) 
9

>  <PUBCHEM_PHARMACOPHORE_FEATURES>  (1) 
7
1 3 acceptor
1 4 acceptor
1 8 donor
3 14 19 20 hydrophobe
3 6 7 23 cation
3 6 8 18 cation
6 6 7 15 18 22 23 rings

>  <PUBCHEM_HEAVY_ATOM_COUNT>  (1) 
24

>  <PUBCHEM_ATOM_DEF_STEREO_COUNT>  (1) 
0

>  <PUBCHEM_ATOM_UDEF_STEREO_COUNT>  (1) 
0

>  <PUBCHEM_BOND_DEF_STEREO_COUNT>  (1) 
0

>  <PUBCHEM_BOND_UDEF_STEREO_COUNT>  (1) 
1

>  <PUBCHEM_ISOTOPIC_ATOM_COUNT>  (1) 
0

>  <PUBCHEM_COMPONENT_COUNT>  (1) 
1

>  <PUBCHEM_CACTVS_TAUTO_COUNT>  (1) 
9

>  <PUBCHEM_CONFORMER_ID>  (1) 
0000095B00000001

>  <PUBCHEM_MMFF94_ENERGY>  (1) 
77.1759

>  <PUBCHEM_FEATURE_SELFOVERLAP>  (1) 
35.657

>  <PUBCHEM_SHAPE_FINGERPRINT>  (1) 
10670039 82 17973169714797997852
10871710 139 17904492048866568726
11221954 11 18335985341512130906
12156800 1 12691919576165174404
12173636 292 18270394030843354541
12403260 363 18191574471082302218
12633257 1 18189605052098402522
12788726 201 17687470473878323212
13122387 1 16176495748023082220
13140716 1 18410845582193965720
13583140 156 16952241019976273923
14081887 123 17621310673365673936
14123250 116 18340197583105270133
14178342 30 18266164210002275096
14466204 15 18335969961914453592
14713325 29 18263932201297500906
151778 21 18337398145060610792
15664445 248 16118466268919365485
19930381 70 18122344567067765737
20567600 299 18199741449816014288
21041028 32 16751273190905598763
21860390 5 18056194666159354854
22182937 141 18411982481042723793
23227448 37 18411136922294265471
23558518 356 18334572494555328178
238 59 17612548347001424924
3524813 1 17898007936961220270
474 4 18124874552066031403
5048184 11 18410013234417087820
5081480 168 17269792064237221246
5252454 2 18334016068973831604
6287921 2 18336552715112743860

>  <PUBCHEM_SHAPE_MULTIPOLES>  (1) 
460.23
7.74
5.37
1.37
0.04
0.31
-0.06
-6.33
1.02
-0.58
-0.16
-0.15
-0.24
-0.36

>  <PUBCHEM_SHAPE_SELFOVERLAP>  (1) 
923.376

>  <PUBCHEM_SHAPE_VOLUME>  (1) 
273.9

>  <PUBCHEM_COORDINATE_TYPE>  (1) 
2
5
10

$$$$
