2397
     RDKit          3D

 33 38  0  0  1  0  0  0  0  0999 V2000
    1.9397   -3.9209    1.2114 O   0  0  0  0  0  0  0  0  0  0  0  0
    4.8300   -0.5161    2.2164 O   0  0  0  0  0  0  0  0  0  0  0  0
   -5.5210    1.7077    0.8579 N   0  0  0  0  0  0  0  0  0  0  0  0
   -1.6792   -1.3486    0.0575 N   0  0  0  0  0  0  0  0  0  0  0  0
    3.6403   -2.4792    1.8622 N   0  0  0  0  0  0  0  0  0  0  0  0
    1.9881    3.0018    1.2963 N   0  0  0  0  0  0  0  0  0  0  0  0
   -5.0163    0.3276    0.8490 C   0  0  0  0  0  0  0  0  0  0  0  0
   -5.9189   -0.3550   -0.1811 C   0  0  0  0  0  0  0  0  0  0  0  0
   -7.2006    0.4707   -0.2037 C   0  0  0  0  0  0  0  0  0  0  0  0
   -3.5449    0.2241    0.4681 C   0  0  0  0  0  0  0  0  0  0  0  0
   -6.9794    1.5761    0.8151 C   0  0  0  0  0  0  0  0  0  0  0  0
   -3.0899   -1.2311    0.4115 C   0  0  0  0  0  0  0  0  0  0  0  0
   -5.0879    2.4733    2.0207 C   0  0  0  0  0  0  0  0  0  0  0  0
   -1.1929   -1.4544   -1.2185 C   0  0  0  0  0  0  0  0  0  0  0  0
   -0.6668   -1.3653    0.9689 C   0  0  0  0  0  0  0  0  0  0  0  0
    0.5143   -1.4853    0.2735 C   0  0  0  0  0  0  0  0  0  0  0  0
    0.1968   -1.5428   -1.1125 C   0  0  0  0  0  0  0  0  0  0  0  0
    1.8070   -1.5383    0.8825 C   0  0  0  0  0  0  0  0  0  0  0  0
   -1.8595   -1.4793   -2.4488 C   0  0  0  0  0  0  0  0  0  0  0  0
    2.6516   -0.5364    1.1883 C   0  0  0  0  0  0  0  0  0  0  0  0
    0.9606   -1.6619   -2.2905 C   0  0  0  0  0  0  0  0  0  0  0  0
    2.5167    0.8690    0.9614 C   0  0  0  0  0  0  0  0  0  0  0  0
    2.4348   -2.8117    1.3192 C   0  0  0  0  0  0  0  0  0  0  0  0
   -1.0811   -1.5981   -3.6036 C   0  0  0  0  0  0  0  0  0  0  0  0
    0.3074   -1.6881   -3.5281 C   0  0  0  0  0  0  0  0  0  0  0  0
    3.8537   -1.1332    1.8247 C   0  0  0  0  0  0  0  0  0  0  0  0
    2.9313    1.6180   -0.1777 C   0  0  0  0  0  0  0  0  0  0  0  0
    1.9403    1.7504    1.8496 C   0  0  0  0  0  0  0  0  0  0  0  0
    2.5882    2.9511    0.0583 C   0  0  0  0  0  0  0  0  0  0  0  0
    3.5677    1.2860   -1.3902 C   0  0  0  0  0  0  0  0  0  0  0  0
    2.8508    3.9727   -0.8613 C   0  0  0  0  0  0  0  0  0  0  0  0
    3.8367    2.2976   -2.3195 C   0  0  0  0  0  0  0  0  0  0  0  0
    3.4829    3.6195   -2.0570 C   0  0  0  0  0  0  0  0  0  0  0  0
  1 23  2  0
  2 26  2  0
  3  7  1  0
  3 11  1  0
  3 13  1  0
  4 12  1  0
  4 14  1  0
  4 15  1  0
  5 23  1  0
  5 26  1  0
  6 28  1  0
  6 29  1  0
  7  8  1  0
  7 10  1  0
  8  9  1  0
  9 11  1  0
 10 12  1  0
 14 17  2  0
 14 19  1  0
 15 16  2  0
 16 17  1  0
 16 18  1  0
 17 21  1  0
 18 20  2  0
 18 23  1  0
 19 24  2  0
 20 22  1  0
 20 26  1  0
 21 25  2  0
 22 27  1  0
 22 28  2  0
 24 25  1  0
 27 29  2  0
 27 30  1  0
 29 31  1  0
 30 32  2  0
 31 33  2  0
 32 33  1  0
M  END
>  <PUBCHEM_COMPOUND_CID>  (1) 
2397

>  <PUBCHEM_CONFORMER_RMSD>  (1) 
0.8

>  <PUBCHEM_CONFORMER_DIVERSEORDER>  (1) 
1
233
63
43
218
167
180
223
231
205
148
192
141
106
75
40
53
230
232
70
216
30
168
93
41
227
60
28
212
235
125
45
137
90
32
239
206
68
65
213
219
157
48
210
84
173
214
135
140
217
62
188
29
229
110
198
161
197
73
202
4
200
158
143
44
189
176
54
166
112
8
182
190
114
153
203
199
92
78
169
11
155
14
220
69
225
134
170
204
179
119
86
160
22
237
99
177
107
124
113
88
201
77
159
39
196
183
152
6
215
130
97
186
116
71
87
149
85
144
238
121
2
76
187
95
181
139
163
38
34
7
111
211
52
120
207
67
56
150
128
236
156
226
184
47
171
10
3
194
132
61
103
174
221
136
94
51
228
151
101
80
98
117
193
191
27
74
209
23
115
82
26
35
185
50
72
172
79
49
122
36
175
178
58
12
100
17
154
96
105
104
195
81
127
162
146
21
91
16
145
129
234
5
57
83
131
24
20
165
37
118
108
123
222
33
208
89
142
126
13
19
224
138
102
133
164
25
64
59
42
109
18
15
9
46
31
55
66
147

>  <PUBCHEM_MMFF94_PARTIAL_CHARGES>  (1) 
40
1 -0.57
11 0.27
12 0.26
13 0.27
14 -0.15
15 -0.3
16 -0.05
18 0.06
19 -0.15
2 -0.57
20 0.06
21 -0.15
22 -0.05
23 0.62
24 -0.15
25 -0.15
26 0.62
28 -0.3
29 -0.15
3 -0.81
30 -0.15
31 -0.15
32 -0.15
33 -0.15
4 0.05
48 0.15
49 0.15
5 -0.49
50 0.15
51 0.15
52 0.15
53 0.37
54 0.15
55 0.27
56 0.15
57 0.15
58 0.15
59 0.15
6 0.03
7 0.27

>  <PUBCHEM_EFFECTIVE_ROTOR_COUNT>  (1) 
6.2

>  <PUBCHEM_PHARMACOPHORE_FEATURES>  (1) 
13
1 1 acceptor
1 2 acceptor
1 3 cation
1 4 cation
1 5 donor
1 6 cation
1 6 donor
5 3 7 8 9 11 rings
5 4 14 15 16 17 rings
5 5 18 20 23 26 rings
5 6 22 27 28 29 rings
6 14 17 19 21 24 25 rings
6 27 29 30 31 32 33 rings

>  <PUBCHEM_HEAVY_ATOM_COUNT>  (1) 
33

>  <PUBCHEM_ATOM_DEF_STEREO_COUNT>  (1) 
0

>  <PUBCHEM_ATOM_UDEF_STEREO_COUNT>  (1) 
1

>  <PUBCHEM_BOND_DEF_STEREO_COUNT>  (1) 
0

>  <PUBCHEM_BOND_UDEF_STEREO_COUNT>  (1) 
0

>  <PUBCHEM_ISOTOPIC_ATOM_COUNT>  (1) 
0

>  <PUBCHEM_COMPONENT_COUNT>  (1) 
1

>  <PUBCHEM_CACTVS_TAUTO_COUNT>  (1) 
8

>  <PUBCHEM_CONFORMER_ID>  (1) 
0000095D00000001

>  <PUBCHEM_MMFF94_ENERGY>  (1) 
64.9881

>  <PUBCHEM_FEATURE_SELFOVERLAP>  (1) 
66.158

>  <PUBCHEM_SHAPE_FINGERPRINT>  (1) 
10165383 225 17458634470998596006
11093857 51 17131567067172309949
11505856 67 17470742464383252463
11578080 2 17677919965549974059
12047536 79 14634867579173446869
12156800 1 17693109465949163502
12160290 23 16341444980696526767
12741549 16 17315065563892015126
12788726 201 17484221313046620127
13673619 4 16588861257612674858
13878862 14 17969480702798981909
14294032 229 16773220908275883063
14395042 70 16806476671611611844
14705955 166 16588850284177117941
15082195 135 17631745846683746965
151778 21 18041557061227259056
15238133 3 18411136944101054410
15849732 13 17988918938717604098
15975801 100 17824849765817587108
19319366 153 18337110180435730416
20567600 9 18335431195862033597
21304303 94 12031780354080582141
21756936 100 17905892831371188668
21860390 5 18340771438012499363
21927370 108 17606949600462166898
22122407 14 18336554892956978273
23559900 14 17845386453197451327
394071 54 15430323580886535437
513532 50 16415482623128888988
5252454 2 17389658906737325540
57527306 92 18340211804712795142
57527585 21 16683167873081414316
6703917 75 16955654201012295852
9849439 229 18049434035190273777

>  <PUBCHEM_SHAPE_MULTIPOLES>  (1) 
647.46
12.63
4.37
3.11
27.69
2.12
2.53
9.38
-4.29
-4.57
0.32
-2.39
-1.36
-4.55

>  <PUBCHEM_SHAPE_SELFOVERLAP>  (1) 
1455.843

>  <PUBCHEM_SHAPE_VOLUME>  (1) 
346.6

>  <PUBCHEM_COORDINATE_TYPE>  (1) 
2
5
10

$$$$
