2398
     RDKit          3D

 29 33  0  0  0  0  0  0  0  0999 V2000
   -0.2544    4.1205   -0.3247 O   0  0  0  0  0  0  0  0  0  0  0  0
   -3.9952    1.7523   -1.4877 O   0  0  0  0  0  0  0  0  0  0  0  0
    2.7301    0.5999   -0.3144 N   0  0  0  0  0  0  0  0  0  0  0  0
   -2.3228    3.2735   -0.9556 N   0  0  0  0  0  0  0  0  0  0  0  0
   -2.0358   -2.3924   -1.8324 N   0  0  0  0  0  0  0  0  0  0  0  0
    5.4580   -3.0044   -2.2534 N   0  0  0  0  0  0  0  0  0  0  0  0
    0.6221    1.2845   -0.1460 C   0  0  0  0  0  0  0  0  0  0  0  0
    1.1019    0.9840    1.1616 C   0  0  0  0  0  0  0  0  0  0  0  0
    2.4249    0.5575    1.0273 C   0  0  0  0  0  0  0  0  0  0  0  0
   -0.6740    1.7569   -0.5225 C   0  0  0  0  0  0  0  0  0  0  0  0
    1.6487    1.0375   -1.0311 C   0  0  0  0  0  0  0  0  0  0  0  0
    4.0037    0.2398   -0.8992 C   0  0  0  0  0  0  0  0  0  0  0  0
   -1.7769    1.0604   -0.8533 C   0  0  0  0  0  0  0  0  0  0  0  0
   -1.9631   -0.3534   -0.9581 C   0  0  0  0  0  0  0  0  0  0  0  0
    4.0657   -1.2399   -1.2769 C   0  0  0  0  0  0  0  0  0  0  0  0
   -1.0141    3.2016   -0.5803 C   0  0  0  0  0  0  0  0  0  0  0  0
   -2.3749   -1.2592    0.0592 C   0  0  0  0  0  0  0  0  0  0  0  0
    0.5333    1.0352    2.4497 C   0  0  0  0  0  0  0  0  0  0  0  0
    3.2108    0.1780    2.1213 C   0  0  0  0  0  0  0  0  0  0  0  0
   -2.8603    2.0345   -1.1422 C   0  0  0  0  0  0  0  0  0  0  0  0
   -2.4125   -2.5314   -0.5155 C   0  0  0  0  0  0  0  0  0  0  0  0
   -1.7621   -1.0799   -2.1092 C   0  0  0  0  0  0  0  0  0  0  0  0
    5.4229   -1.5955   -1.8800 C   0  0  0  0  0  0  0  0  0  0  0  0
    1.3075    0.6585    3.5532 C   0  0  0  0  0  0  0  0  0  0  0  0
    2.6255    0.2368    3.3892 C   0  0  0  0  0  0  0  0  0  0  0  0
   -2.7206   -1.1182    1.4179 C   0  0  0  0  0  0  0  0  0  0  0  0
   -2.7797   -3.6744    0.2036 C   0  0  0  0  0  0  0  0  0  0  0  0
   -3.0901   -2.2527    2.1496 C   0  0  0  0  0  0  0  0  0  0  0  0
   -3.1185   -3.5102    1.5498 C   0  0  0  0  0  0  0  0  0  0  0  0
  1 16  2  0
  2 20  2  0
  3  9  1  0
  3 11  1  0
  3 12  1  0
  4 16  1  0
  4 20  1  0
  5 21  1  0
  5 22  1  0
  6 23  1  0
  7  8  1  0
  7 10  1  0
  7 11  2  0
  8  9  2  0
  8 18  1  0
  9 19  1  0
 10 13  2  0
 10 16  1  0
 12 15  1  0
 13 14  1  0
 13 20  1  0
 14 17  1  0
 14 22  2  0
 15 23  1  0
 17 21  2  0
 17 26  1  0
 18 24  2  0
 19 25  2  0
 21 27  1  0
 24 25  1  0
 26 28  2  0
 27 29  2  0
 28 29  1  0
M  END
>  <PUBCHEM_COMPOUND_CID>  (1) 
2398

>  <PUBCHEM_CONFORMER_RMSD>  (1) 
0.8

>  <PUBCHEM_CONFORMER_DIVERSEORDER>  (1) 
1
29
40
25
52
53
22
31
19
54
8
41
5
27
6
7
39
43
23
30
34
50
12
45
20
51
4
15
9
17
14
3
36
24
11
47
49
18
28
13
48
46
35
10
38
2
44
26
16
21
42
37
32
33

>  <PUBCHEM_MMFF94_PARTIAL_CHARGES>  (1) 
40
1 -0.57
10 0.06
11 -0.3
12 0.26
13 0.06
14 -0.05
16 0.62
18 -0.15
19 -0.15
2 -0.57
20 0.62
21 -0.15
22 -0.3
23 0.27
24 -0.15
25 -0.15
26 -0.15
27 -0.15
28 -0.15
29 -0.15
3 0.05
30 0.15
35 0.15
36 0.15
37 0.37
38 0.15
4 -0.49
41 0.15
42 0.15
43 0.27
44 0.15
45 0.15
46 0.15
47 0.15
48 0.36
49 0.36
5 0.03
6 -0.99
7 -0.05
9 -0.15

>  <PUBCHEM_EFFECTIVE_ROTOR_COUNT>  (1) 
5.2

>  <PUBCHEM_PHARMACOPHORE_FEATURES>  (1) 
13
1 1 acceptor
1 2 acceptor
1 3 cation
1 4 donor
1 5 cation
1 5 donor
1 6 cation
1 6 donor
5 3 7 8 9 11 rings
5 4 10 13 16 20 rings
5 5 14 17 21 22 rings
6 17 21 26 27 28 29 rings
6 8 9 18 19 24 25 rings

>  <PUBCHEM_HEAVY_ATOM_COUNT>  (1) 
29

>  <PUBCHEM_ATOM_DEF_STEREO_COUNT>  (1) 
0

>  <PUBCHEM_ATOM_UDEF_STEREO_COUNT>  (1) 
0

>  <PUBCHEM_BOND_DEF_STEREO_COUNT>  (1) 
0

>  <PUBCHEM_BOND_UDEF_STEREO_COUNT>  (1) 
0

>  <PUBCHEM_ISOTOPIC_ATOM_COUNT>  (1) 
0

>  <PUBCHEM_COMPONENT_COUNT>  (1) 
1

>  <PUBCHEM_CACTVS_TAUTO_COUNT>  (1) 
8

>  <PUBCHEM_CONFORMER_ID>  (1) 
0000095E00000001

>  <PUBCHEM_MMFF94_ENERGY>  (1) 
51.9372

>  <PUBCHEM_FEATURE_SELFOVERLAP>  (1) 
66.156

>  <PUBCHEM_SHAPE_FINGERPRINT>  (1) 
107951 10 17971765375923247903
11578080 2 17845649386383587841
12156800 1 15799115019233506969
12160290 23 18263904593316293917
12363563 72 17758359209830572323
12549972 3 17846205636213738496
12553582 1 18043802294088787587
12714826 92 18272378563790743070
12788726 201 18040986372069811585
13134695 92 9361791188080067253
13583140 156 15983981617075504459
14022347 108 18261939826172021573
16114785 44 15408372711722561978
17909252 39 18120113898983963092
19315092 285 12891644532137299686
20642791 178 17181368106180123776
21792938 131 17976527322608390199
23559900 14 18129647626795790524
23728640 28 17972284423010905529
35225 105 17895467034541014955
484985 159 17699314095616512846
70634741 139 18269855155416634670
81228 2 18196342962596354285

>  <PUBCHEM_SHAPE_MULTIPOLES>  (1) 
565.14
8.04
4.36
3.15
8.25
0.33
2.69
-7.39
-3.45
-3.58
-1.61
2.42
-0.91
3.85

>  <PUBCHEM_SHAPE_SELFOVERLAP>  (1) 
1275.073

>  <PUBCHEM_SHAPE_VOLUME>  (1) 
300.3

>  <PUBCHEM_COORDINATE_TYPE>  (1) 
2
5
10

$$$$
