24017
     RDKit          3D

 12 12  0  0  0  0  0  0  0  0999 V2000
    3.4321    0.5602    0.0001 O   0  0  0  0  0  0  0  0  0  0  0  0
   -2.5462   -1.4768    0.4599 O   0  0  0  0  0  0  0  0  0  0  0  0
   -0.6594   -0.1335    0.0813 C   0  0  0  0  0  0  0  0  0  0  0  0
    2.0906    0.3325    0.0275 C   0  0  0  0  0  0  0  0  0  0  0  0
   -0.1667    1.1563    0.2789 C   0  0  0  0  0  0  0  0  0  0  0  0
    0.2228   -1.1904   -0.1432 C   0  0  0  0  0  0  0  0  0  0  0  0
    1.2082    1.3893    0.2520 C   0  0  0  0  0  0  0  0  0  0  0  0
    1.5979   -0.9575   -0.1701 C   0  0  0  0  0  0  0  0  0  0  0  0
   -2.0930   -0.3766    0.1090 C   0  0  0  0  0  0  0  0  0  0  0  0
   -3.0195    0.7204   -0.3258 C   0  0  0  0  0  0  0  0  0  0  0  0
    4.2773   -0.5652   -0.2341 C   0  0  0  0  0  0  0  0  0  0  0  0
   -4.3441    0.5414   -0.3356 C   0  0  0  0  0  0  0  0  0  0  0  0
  1  4  1  0
  1 11  1  0
  2  9  2  0
  3  5  2  0
  3  6  1  0
  3  9  1  0
  4  7  2  0
  4  8  1  0
  5  7  1  0
  6  8  2  0
  9 10  1  0
 10 12  2  0
M  END
>  <PUBCHEM_COMPOUND_CID>  (1) 
24017

>  <PUBCHEM_CONFORMER_RMSD>  (1) 
0.6

>  <PUBCHEM_CONFORMER_DIVERSEORDER>  (1) 
1
4
3
2

>  <PUBCHEM_MMFF94_PARTIAL_CHARGES>  (1) 
19
1 -0.36
10 -0.14
11 0.28
12 -0.3
13 0.15
14 0.15
15 0.15
16 0.15
17 0.15
2 -0.57
21 0.15
22 0.15
3 0.09
4 0.08
5 -0.15
6 -0.15
7 -0.15
8 -0.15
9 0.47

>  <PUBCHEM_EFFECTIVE_ROTOR_COUNT>  (1) 
3

>  <PUBCHEM_PHARMACOPHORE_FEATURES>  (1) 
4
1 1 acceptor
1 12 hydrophobe
1 2 acceptor
6 3 4 5 6 7 8 rings

>  <PUBCHEM_HEAVY_ATOM_COUNT>  (1) 
12

>  <PUBCHEM_ATOM_DEF_STEREO_COUNT>  (1) 
0

>  <PUBCHEM_ATOM_UDEF_STEREO_COUNT>  (1) 
0

>  <PUBCHEM_BOND_DEF_STEREO_COUNT>  (1) 
0

>  <PUBCHEM_BOND_UDEF_STEREO_COUNT>  (1) 
0

>  <PUBCHEM_ISOTOPIC_ATOM_COUNT>  (1) 
0

>  <PUBCHEM_COMPONENT_COUNT>  (1) 
1

>  <PUBCHEM_CACTVS_TAUTO_COUNT>  (1) 
1

>  <PUBCHEM_CONFORMER_ID>  (1) 
00005DD100000001

>  <PUBCHEM_MMFF94_ENERGY>  (1) 
43.4075

>  <PUBCHEM_FEATURE_SELFOVERLAP>  (1) 
20.297

>  <PUBCHEM_SHAPE_FINGERPRINT>  (1) 
10130415 120 18409725136515917320
10219947 1 17847064384938884478
10608611 8 18337386140748110353
11062470 55 17822010899771234141
11401426 45 18273206500251780676
11471102 20 18413103952938504452
12032990 46 18341339954565198686
124424 183 18408039610875885755
12932764 1 16371273519649432469
13380535 76 18410292493375062703
13571099 22 18344148085602871468
13760787 19 17676489453893926666
14325111 11 18338517542286188280
14911166 2 18412544297135283004
14943859 89 17676487246127560649
14993402 34 17418088819386788573
16945 1 18271536337525254864
18175812 5 18409448115378036068
18186145 218 17458620146765562228
19026448 5 16660644089691444330
193761 8 17691972557508215090
200 152 17489584545713337277
20201158 50 18412263913238514399
20279233 1 18342182158633280871
20645477 70 18130508531088098062
23402539 116 17988915648244861917
23402655 69 18270388396648369117
23559900 14 18412826898395523968
25 1 18337103467659731287
2748010 2 18196934598134789240
3248919 1 15266791021279067709
3312278 4 18409733958368187243
528886 8 18412257337559103891
53812653 166 18411415120163021353
8809292 202 18333736848659675059

>  <PUBCHEM_SHAPE_MULTIPOLES>  (1) 
235.22
6.96
1.37
0.66
0.38
0.04
-0.01
-0.15
-0.9
0.03
0.1
0.09
0
0.33

>  <PUBCHEM_SHAPE_SELFOVERLAP>  (1) 
487.161

>  <PUBCHEM_SHAPE_VOLUME>  (1) 
134.5

>  <PUBCHEM_COORDINATE_TYPE>  (1) 
2
5
10

$$$$
