24025
     RDKit          3D

 24 27  0  0  1  0  0  0  0  0999 V2000
   -4.4245   -4.1550    0.6171 Cl  0  0  0  0  0  0  0  0  0  0  0  0
    0.6833    0.1173    0.3163 O   0  0  0  0  0  0  0  0  0  0  0  0
   -0.1751    0.3611   -1.8404 O   0  0  0  0  0  0  0  0  0  0  0  0
    3.3650   -0.0941    1.1827 N   0  0  0  0  0  0  0  0  0  0  0  0
    2.9818   -0.4985   -0.1759 C   0  0  0  0  0  0  0  0  0  0  0  0
    1.7555    0.3030   -0.6086 C   0  0  0  0  0  0  0  0  0  0  0  0
    4.1419   -0.2789   -1.1566 C   0  0  0  0  0  0  0  0  0  0  0  0
    5.4005   -1.0091   -0.6962 C   0  0  0  0  0  0  0  0  0  0  0  0
    1.1542   -0.1513   -1.9096 C   0  0  0  0  0  0  0  0  0  0  0  0
   -0.5318    0.3441   -0.4372 C   0  0  0  0  0  0  0  0  0  0  0  0
    5.7346   -0.6429    0.7457 C   0  0  0  0  0  0  0  0  0  0  0  0
    4.5285   -0.8413    1.6605 C   0  0  0  0  0  0  0  0  0  0  0  0
   -1.5160   -0.7939   -0.1711 C   0  0  0  0  0  0  0  0  0  0  0  0
   -1.1344    1.6925   -0.0465 C   0  0  0  0  0  0  0  0  0  0  0  0
   -2.4133   -1.1919   -1.1647 C   0  0  0  0  0  0  0  0  0  0  0  0
   -1.5217   -1.4401    1.0669 C   0  0  0  0  0  0  0  0  0  0  0  0
   -0.9654    2.1869    1.2487 C   0  0  0  0  0  0  0  0  0  0  0  0
   -1.8566    2.4351   -0.9830 C   0  0  0  0  0  0  0  0  0  0  0  0
   -3.3116   -2.2309   -0.9213 C   0  0  0  0  0  0  0  0  0  0  0  0
   -2.4200   -2.4791    1.3103 C   0  0  0  0  0  0  0  0  0  0  0  0
   -1.5160    3.4178    1.6054 C   0  0  0  0  0  0  0  0  0  0  0  0
   -2.4071    3.6661   -0.6263 C   0  0  0  0  0  0  0  0  0  0  0  0
   -3.3149   -2.8744    0.3162 C   0  0  0  0  0  0  0  0  0  0  0  0
   -2.2367    4.1576    0.6679 C   0  0  0  0  0  0  0  0  0  0  0  0
  1 23  1  0
  2  6  1  0
  2 10  1  0
  3  9  1  0
  3 10  1  0
  4  5  1  0
  4 12  1  0
  5  6  1  0
  5  7  1  0
  6  9  1  0
  7  8  1  0
  8 11  1  0
 10 13  1  0
 10 14  1  0
 11 12  1  0
 13 15  2  0
 13 16  1  0
 14 17  2  0
 14 18  1  0
 15 19  1  0
 16 20  2  0
 17 21  1  0
 18 22  2  0
 19 23  2  0
 20 23  1  0
 21 24  2  0
 22 24  1  0
M  END
>  <PUBCHEM_COMPOUND_CID>  (1) 
24025

>  <PUBCHEM_CONFORMER_RMSD>  (1) 
0.8

>  <PUBCHEM_CONFORMER_DIVERSEORDER>  (1) 
1
22
37
46
26
48
50
17
16
31
49
38
29
4
40
18
35
11
30
42
39
28
20
45
24
47
32
34
7
27
14
2
43
15
44
3
23
8
41
21
6
33
25
36
10
5
19
13
9
12

>  <PUBCHEM_MMFF94_PARTIAL_CHARGES>  (1) 
31
1 -0.18
10 0.85
12 0.27
13 -0.14
14 -0.14
15 -0.15
16 -0.15
17 -0.15
18 -0.15
19 -0.15
2 -0.56
20 -0.15
21 -0.15
22 -0.15
23 0.18
24 -0.15
3 -0.56
33 0.36
38 0.15
39 0.15
4 -0.9
40 0.15
41 0.15
42 0.15
43 0.15
44 0.15
45 0.15
46 0.15
5 0.27
6 0.28
9 0.28

>  <PUBCHEM_EFFECTIVE_ROTOR_COUNT>  (1) 
5.2

>  <PUBCHEM_PHARMACOPHORE_FEATURES>  (1) 
8
1 2 acceptor
1 3 acceptor
1 4 cation
1 4 donor
5 2 3 6 9 10 rings
6 13 15 16 19 20 23 rings
6 14 17 18 21 22 24 rings
6 4 5 7 8 11 12 rings

>  <PUBCHEM_HEAVY_ATOM_COUNT>  (1) 
24

>  <PUBCHEM_ATOM_DEF_STEREO_COUNT>  (1) 
0

>  <PUBCHEM_ATOM_UDEF_STEREO_COUNT>  (1) 
3

>  <PUBCHEM_BOND_DEF_STEREO_COUNT>  (1) 
0

>  <PUBCHEM_BOND_UDEF_STEREO_COUNT>  (1) 
0

>  <PUBCHEM_ISOTOPIC_ATOM_COUNT>  (1) 
0

>  <PUBCHEM_COMPONENT_COUNT>  (1) 
1

>  <PUBCHEM_CACTVS_TAUTO_COUNT>  (1) 
1

>  <PUBCHEM_CONFORMER_ID>  (1) 
00005DD900000001

>  <PUBCHEM_MMFF94_ENERGY>  (1) 
47.2104

>  <PUBCHEM_FEATURE_SELFOVERLAP>  (1) 
40.64

>  <PUBCHEM_SHAPE_FINGERPRINT>  (1) 
10074138 170 18341057328653064131
11545043 162 18130507436667827230
11552529 35 18409449155256058746
121448 382 18125711301958826717
12160290 23 18194426436429707773
12293681 160 18053353563011483629
12363563 72 18266745859815931215
12516196 113 18195247943040185098
12549972 3 17773869793189505218
12788726 201 18335426776366871531
12930653 34 18270679762660605118
13004483 165 18339364192051746519
13052359 8 18336543803361839021
13134695 92 18051691346005421767
13140716 1 18340492269807682185
13583140 156 17703217426651507630
13631057 29 18260827142243669002
13681431 1 17907307894130014389
13899415 180 18197769115082083759
13911987 19 17033063173513390060
13955234 65 17257384466718540907
14068700 675 18188206619368421078
14178342 30 18337111151451539710
14468879 13 17487881333857079364
14565420 104 17479750320874504801
15042514 8 18410864256864820779
15131766 46 15911334698001116992
15806764 133 17418100901905453276
15842332 3 17750538250852586988
1813 80 17984723343779108535
20197701 30 17975693883909319173
20681651 13 17822556223901526952
20832881 197 18116715317159192483
21049683 118 17766820759223367697
21120745 212 18265074563597815140
21304303 282 18121197806715938989
21344244 78 17415016917623634939
22182313 1 17346044372818747564
23419403 2 18051664914729664197
23557571 272 18201723912093241980
23559900 14 18116136930744545332
23598288 3 18412830179028118500
24893989 43 14298338980748778896
283562 15 18334858337703962314
3027735 51 18336542729193286491
3380486 145 17699826695462101253
345986 75 18114173181276024987
3729539 64 8499888528672037880
376196 1 17197969692694629628
4258327 124 18114760243434679172
4409770 3 18335699404528396125
463206 1 17972035009396523050
497634 4 18186518800706100878
59755656 520 18123749742690966212
633830 44 13398630589498549100
7226269 152 18410285888021089525
7288768 16 17414170013806309385
77188 2 18194404622264495913
81228 2 18340506486175740733
9841814 1 17837231620172225103
9981440 41 17415259664526256910

>  <PUBCHEM_SHAPE_MULTIPOLES>  (1) 
479.06
9.22
4.95
1.66
15.28
3.15
-0.04
-8.42
1.46
-9.97
1.62
0.43
0.15
0.12

>  <PUBCHEM_SHAPE_SELFOVERLAP>  (1) 
1026.293

>  <PUBCHEM_SHAPE_VOLUME>  (1) 
265.9

>  <PUBCHEM_COORDINATE_TYPE>  (1) 
2
5
10

$$$$
