24020
     RDKit          3D

  9  8  0  0  1  0  0  0  0  0999 V2000
    1.1148   -0.0095    0.3963 O   0  0  0  0  0  0  0  0  0  0  0  0
    0.0168   -0.7444   -1.4948 O   0  0  0  0  0  0  0  0  0  0  0  0
   -1.2166   -0.3251    0.5597 C   0  0  0  0  0  0  0  0  0  0  0  0
   -2.2408    0.6742    0.0026 C   0  0  0  0  0  0  0  0  0  0  0  0
   -1.8210   -1.7227    0.6633 C   0  0  0  0  0  0  0  0  0  0  0  0
    0.0202   -0.4026   -0.3192 C   0  0  0  0  0  0  0  0  0  0  0  0
   -1.6855    2.0898   -0.0900 C   0  0  0  0  0  0  0  0  0  0  0  0
    2.3524   -0.0081   -0.3220 C   0  0  0  0  0  0  0  0  0  0  0  0
    3.4596    0.4483    0.6041 C   0  0  0  0  0  0  0  0  0  0  0  0
  1  6  1  0
  1  8  1  0
  2  6  2  0
  3  4  1  0
  3  5  1  0
  3  6  1  0
  4  7  1  0
  8  9  1  0
M  END
>  <PUBCHEM_COMPOUND_CID>  (1) 
24020

>  <PUBCHEM_CONFORMER_RMSD>  (1) 
0.6

>  <PUBCHEM_CONFORMER_DIVERSEORDER>  (1) 
5
64
60
31
2
16
8
59
53
11
46
4
62
70
50
35
40
52
51
56
25
65
44
45
55
27
15
69
20
13
22
17
41
57
26
66
6
28
12
33
24
18
39
23
43
37
36
42
54
3
68
48
10
7
14
21
29
67
9
58
30
49
63
1
47
34
32
61
19
38

>  <PUBCHEM_MMFF94_PARTIAL_CHARGES>  (1) 
5
1 -0.43
2 -0.57
3 0.06
6 0.66
8 0.28

>  <PUBCHEM_EFFECTIVE_ROTOR_COUNT>  (1) 
4

>  <PUBCHEM_PHARMACOPHORE_FEATURES>  (1) 
3
1 2 acceptor
1 5 hydrophobe
1 7 hydrophobe

>  <PUBCHEM_HEAVY_ATOM_COUNT>  (1) 
9

>  <PUBCHEM_ATOM_DEF_STEREO_COUNT>  (1) 
0

>  <PUBCHEM_ATOM_UDEF_STEREO_COUNT>  (1) 
1

>  <PUBCHEM_BOND_DEF_STEREO_COUNT>  (1) 
0

>  <PUBCHEM_BOND_UDEF_STEREO_COUNT>  (1) 
0

>  <PUBCHEM_ISOTOPIC_ATOM_COUNT>  (1) 
0

>  <PUBCHEM_COMPONENT_COUNT>  (1) 
1

>  <PUBCHEM_CACTVS_TAUTO_COUNT>  (1) 
1

>  <PUBCHEM_CONFORMER_ID>  (1) 
00005DD400000005

>  <PUBCHEM_MMFF94_ENERGY>  (1) 
4.9005

>  <PUBCHEM_FEATURE_SELFOVERLAP>  (1) 
15.223

>  <PUBCHEM_SHAPE_FINGERPRINT>  (1) 
10857977 72 18267868456966256786
12716758 59 18337121046491615754
12932764 1 17846214510064544938
13839132 238 18194972833267979501
14390081 3 18342454798983615368
20653085 51 17631455553252986585
21028194 46 18271807848225538836
21040471 1 18044675095857021559
23211744 41 18197783193773473877
23402539 116 18411127044459886775
23552449 1 18337677511250050937
3248919 1 18186798097802212422
5084963 1 18131077072925018266
54338 74 18114179791283095957

>  <PUBCHEM_SHAPE_MULTIPOLES>  (1) 
173.48
4.28
1.62
0.95
4.12
0.4
-0.24
0.85
0.96
-1.59
0.15
0.11
-0.19
0.33

>  <PUBCHEM_SHAPE_SELFOVERLAP>  (1) 
315.862

>  <PUBCHEM_SHAPE_VOLUME>  (1) 
112

>  <PUBCHEM_COORDINATE_TYPE>  (1) 
2
5
10

$$$$
