24023
     RDKit          3D

 17 18  0  0  0  0  0  0  0  0999 V2000
    0.0380   -2.4656    1.4401 Cl  0  0  0  0  0  0  0  0  0  0  0  0
   -0.1948   -2.4622   -1.4356 Cl  0  0  0  0  0  0  0  0  0  0  0  0
    5.1042    1.8005    0.0921 Cl  0  0  0  0  0  0  0  0  0  0  0  0
   -5.0304    1.9513   -0.0962 Cl  0  0  0  0  0  0  0  0  0  0  0  0
   -0.0110   -1.3385    0.0019 C   0  0  0  0  0  0  0  0  0  0  0  0
    1.2605   -0.5592    0.0249 C   0  0  0  0  0  0  0  0  0  0  0  0
   -1.3097   -0.4879   -0.0243 C   0  0  0  0  0  0  0  0  0  0  0  0
    1.5195    0.3220    1.0745 C   0  0  0  0  0  0  0  0  0  0  0  0
   -1.2573    0.7347   -0.6295 C   0  0  0  0  0  0  0  0  0  0  0  0
    2.1901   -0.7109   -1.0040 C   0  0  0  0  0  0  0  0  0  0  0  0
   -2.4262   -1.0132    0.5602 C   0  0  0  0  0  0  0  0  0  0  0  0
    2.7081    1.0516    1.0954 C   0  0  0  0  0  0  0  0  0  0  0  0
   -2.4237    1.4994   -0.6521 C   0  0  0  0  0  0  0  0  0  0  0  0
    3.3789    0.0187   -0.9832 C   0  0  0  0  0  0  0  0  0  0  0  0
   -3.5927   -0.2486    0.5376 C   0  0  0  0  0  0  0  0  0  0  0  0
    3.6379    0.9000    0.0666 C   0  0  0  0  0  0  0  0  0  0  0  0
   -3.5915    1.0078   -0.0686 C   0  0  0  0  0  0  0  0  0  0  0  0
  1  5  1  0
  2  5  1  0
  3 16  1  0
  4 17  1  0
  5  6  1  0
  5  7  1  0
  6  8  2  0
  6 10  1  0
  7  9  2  0
  7 11  1  0
  8 12  1  0
  9 13  1  0
 10 14  2  0
 11 15  2  0
 12 16  2  0
 13 17  2  0
 14 16  1  0
 15 17  1  0
M  END
>  <PUBCHEM_COMPOUND_CID>  (1) 
24023

>  <PUBCHEM_CONFORMER_RMSD>  (1) 
0.6

>  <PUBCHEM_CONFORMER_DIVERSEORDER>  (1) 
1
2
3

>  <PUBCHEM_MMFF94_PARTIAL_CHARGES>  (1) 
25
1 -0.29
10 -0.15
11 -0.15
12 -0.15
13 -0.15
14 -0.15
15 -0.15
16 0.18
17 0.18
18 0.15
19 0.15
2 -0.29
20 0.15
21 0.15
22 0.15
23 0.15
24 0.15
25 0.15
3 -0.18
4 -0.18
5 0.87
6 -0.14
7 -0.14
8 -0.15
9 -0.15

>  <PUBCHEM_EFFECTIVE_ROTOR_COUNT>  (1) 
2

>  <PUBCHEM_PHARMACOPHORE_FEATURES>  (1) 
2
6 6 8 10 12 14 16 rings
6 7 9 11 13 15 17 rings

>  <PUBCHEM_HEAVY_ATOM_COUNT>  (1) 
17

>  <PUBCHEM_ATOM_DEF_STEREO_COUNT>  (1) 
0

>  <PUBCHEM_ATOM_UDEF_STEREO_COUNT>  (1) 
0

>  <PUBCHEM_BOND_DEF_STEREO_COUNT>  (1) 
0

>  <PUBCHEM_BOND_UDEF_STEREO_COUNT>  (1) 
0

>  <PUBCHEM_ISOTOPIC_ATOM_COUNT>  (1) 
0

>  <PUBCHEM_COMPONENT_COUNT>  (1) 
1

>  <PUBCHEM_CACTVS_TAUTO_COUNT>  (1) 
1

>  <PUBCHEM_CONFORMER_ID>  (1) 
00005DD700000001

>  <PUBCHEM_MMFF94_ENERGY>  (1) 
54.0583

>  <PUBCHEM_FEATURE_SELFOVERLAP>  (1) 
10.149

>  <PUBCHEM_SHAPE_FINGERPRINT>  (1) 
10498660 4 18408321060373410805
10922049 32 18411142432763608390
11046707 91 9655587313581949520
11132069 177 18113904853346862837
11543360 7 16916775289191092869
122479 349 18336829796448712768
12403259 415 18340782484604821374
12532896 13 18408602586847465850
12730499 353 18272378525431644175
12788726 201 16737796958046782858
13764800 53 18261117361351482945
14178342 30 17531540806329764419
14252887 29 8286189548603503940
14341114 328 16443357480534171869
15219456 202 18341900675066583606
15342816 4 11959728240061967508
15422964 175 11314302819818819377
15775835 57 18410008831901023058
16945 1 18115311192890265387
17834072 32 18338233872776978820
18186145 218 17846788403030335354
193927 3 9727350272652602741
19784866 170 18040721325195399441
19862831 5 14764349357603566384
200 152 14261363478774813976
20510252 161 18408891758368342697
20645477 56 18199751504487109832
20645477 70 17560524997319695502
20671657 53 11239994576923547899
21524375 3 18410570665210608422
231179 274 18411981338586730224
23227448 37 18124878112504684404
23402539 116 18410285952234608756
23402655 69 17561083592118509032
23557571 272 18270969071098026542
23558518 356 17978776128070143312
23559900 14 18115038393800396478
25 1 17846221050888357982
276578 36 18040996215734038050
2916195 48 18341889749065785504
3060560 45 17845929615750645655
350125 39 17826512158873530397
4028521 119 18273216404161827649
449060 62 18336264523102724109
495365 180 18057870360735068585
5104073 3 18115031797189156953
633830 44 18410570656594099087
6442390 28 18334867120991216915
69090 78 18202281450176997006
7364860 26 18047749308656732667
77492 1 16443068351983586546
7808743 9 18262519316029000124
81228 2 17837756091033736583
9999458 23 17969222231229680322

>  <PUBCHEM_SHAPE_MULTIPOLES>  (1) 
357.33
8.55
2.39
1.22
0.2
0.87
-0.02
-7.77
0.01
-0.52
0.02
0.39
0.55
0.65

>  <PUBCHEM_SHAPE_SELFOVERLAP>  (1) 
732.892

>  <PUBCHEM_SHAPE_VOLUME>  (1) 
201.6

>  <PUBCHEM_COORDINATE_TYPE>  (1) 
2
5
10

$$$$
