24036
     RDKit          3D

 14 15  0  0  0  0  0  0  0  0999 V2000
   -2.9319    2.2913   -0.3067 O   0  0  0  0  0  0  0  0  0  0  0  0
   -2.9308   -2.2556    0.2864 O   0  0  0  0  0  0  0  0  0  0  0  0
   -0.9406    1.1416   -0.1497 N   0  0  0  0  0  0  0  0  0  0  0  0
   -0.9117   -1.1932    0.1529 N   0  0  0  0  0  0  0  0  0  0  0  0
   -2.9564    0.0053    0.0040 N   0  0  0  0  0  0  0  0  0  0  0  0
    1.2008   -0.0282    0.0072 C   0  0  0  0  0  0  0  0  0  0  0  0
   -0.2837   -0.0663    0.0126 C   0  0  0  0  0  0  0  0  0  0  0  0
    1.9259   -1.1220   -0.4656 C   0  0  0  0  0  0  0  0  0  0  0  0
    1.8702    1.1030    0.4740 C   0  0  0  0  0  0  0  0  0  0  0  0
   -2.3241    1.2318   -0.1611 C   0  0  0  0  0  0  0  0  0  0  0  0
    3.3202   -1.0844   -0.4719 C   0  0  0  0  0  0  0  0  0  0  0  0
    3.2645    1.1406    0.4676 C   0  0  0  0  0  0  0  0  0  0  0  0
    3.9896    0.0469   -0.0053 C   0  0  0  0  0  0  0  0  0  0  0  0
   -2.2921   -1.2108    0.1558 C   0  0  0  0  0  0  0  0  0  0  0  0
  1 10  2  0
  2 14  2  0
  3  7  1  0
  3 10  1  0
  4  7  2  0
  4 14  1  0
  5 10  1  0
  5 14  1  0
  6  7  1  0
  6  8  2  0
  6  9  1  0
  8 11  1  0
  9 12  2  0
 11 13  2  0
 12 13  1  0
M  END
>  <PUBCHEM_COMPOUND_CID>  (1) 
24036

>  <PUBCHEM_CONFORMER_RMSD>  (1) 
0.4

>  <PUBCHEM_CONFORMER_DIVERSEORDER>  (1) 
1
2
3

>  <PUBCHEM_MMFF94_PARTIAL_CHARGES>  (1) 
21
1 -0.57
10 0.69
11 -0.15
12 -0.15
13 -0.15
14 0.84
15 0.37
16 0.15
17 0.15
18 0.15
19 0.15
2 -0.57
20 0.37
21 0.15
3 -0.49
4 -0.66
5 -0.49
6 0.09
7 0.42
8 -0.15
9 -0.15

>  <PUBCHEM_EFFECTIVE_ROTOR_COUNT>  (1) 
1

>  <PUBCHEM_PHARMACOPHORE_FEATURES>  (1) 
7
1 1 acceptor
1 2 acceptor
1 3 donor
1 4 donor
1 5 donor
6 3 4 5 7 10 14 rings
6 6 8 9 11 12 13 rings

>  <PUBCHEM_HEAVY_ATOM_COUNT>  (1) 
14

>  <PUBCHEM_ATOM_DEF_STEREO_COUNT>  (1) 
0

>  <PUBCHEM_ATOM_UDEF_STEREO_COUNT>  (1) 
0

>  <PUBCHEM_BOND_DEF_STEREO_COUNT>  (1) 
0

>  <PUBCHEM_BOND_UDEF_STEREO_COUNT>  (1) 
0

>  <PUBCHEM_ISOTOPIC_ATOM_COUNT>  (1) 
0

>  <PUBCHEM_COMPONENT_COUNT>  (1) 
1

>  <PUBCHEM_CACTVS_TAUTO_COUNT>  (1) 
5

>  <PUBCHEM_CONFORMER_ID>  (1) 
00005DE400000001

>  <PUBCHEM_MMFF94_ENERGY>  (1) 
37.9362

>  <PUBCHEM_FEATURE_SELFOVERLAP>  (1) 
35.642

>  <PUBCHEM_SHAPE_FINGERPRINT>  (1) 
10608611 8 18413103970292700264
10922523 26 18343023289550142334
12500047 106 18335979753406075684
12932764 1 17458618978487075788
13296908 3 18272374170039420022
13380535 21 18339086994862248258
13380535 76 18268987600879058143
14144814 61 18410854356611756218
14325111 11 18411698785873863024
15219456 202 18343582945332173680
15279308 100 18338517409216152764
15375462 6 18267867366208015772
15775835 57 18042125362419767984
16945 1 18408044034718509363
17844478 74 18339367477585573115
18186145 218 18200599072979991512
19973954 147 18411138064771273376
200 152 17489861657288118455
20201158 50 18272652312026524438
20279233 1 18342738498848135998
20510252 161 18413109489314801697
20645477 56 18336266751943155709
20645477 70 17489307421976458486
20715346 28 18130785676869103394
20871998 184 18271529788059110687
21501502 16 18409166614932117286
22943178 12 18343581841588947102
23402539 116 18263350550739831455
23402655 69 18130498618087333236
23557571 272 18342468048941821540
23559900 14 18269553837390003926
25 1 18053098424225319701
2748010 2 18342738520312364580
2871803 45 18337666520313183191
3312278 4 18342179942751747152
5104073 3 18412825781197742706
6333449 129 18410572873002880389
69090 78 18343298150477735623
81228 2 18188213203658397745
8809292 202 18410017615362532866
93112 12 18411419479765940204
9709674 26 18342459214146906790

>  <PUBCHEM_SHAPE_MULTIPOLES>  (1) 
261.43
6.61
1.95
0.67
1.61
0.04
0
0.09
-0.04
-1.57
-0.01
0.15
0
0.78

>  <PUBCHEM_SHAPE_SELFOVERLAP>  (1) 
565.424

>  <PUBCHEM_SHAPE_VOLUME>  (1) 
141

>  <PUBCHEM_COORDINATE_TYPE>  (1) 
2
5
10

$$$$
