24039
     RDKit          3D

 26 29  0  0  0  0  0  0  0  0999 V2000
    0.6274    2.6458    1.0448 O   0  0  0  0  0  0  0  0  0  0  0  0
    1.5349    0.7485    0.0061 N   0  0  0  0  0  0  0  0  0  0  0  0
    5.6019   -0.4295   -0.0402 N   0  0  0  0  0  0  0  0  0  0  0  0
    0.9682   -0.2896   -0.6644 N   0  0  0  0  0  0  0  0  0  0  0  0
    2.9524    0.7730    0.2679 C   0  0  0  0  0  0  0  0  0  0  0  0
    3.7507    0.8780   -1.0318 C   0  0  0  0  0  0  0  0  0  0  0  0
    3.3827   -0.4660    1.0529 C   0  0  0  0  0  0  0  0  0  0  0  0
    5.2553    0.7998   -0.7669 C   0  0  0  0  0  0  0  0  0  0  0  0
    4.8994   -0.5008    1.2484 C   0  0  0  0  0  0  0  0  0  0  0  0
    0.5339    1.6183    0.3936 C   0  0  0  0  0  0  0  0  0  0  0  0
   -0.3822   -0.0786   -0.7750 C   0  0  0  0  0  0  0  0  0  0  0  0
   -0.7551    1.0517   -0.1401 C   0  0  0  0  0  0  0  0  0  0  0  0
    7.0483   -0.5145    0.1603 C   0  0  0  0  0  0  0  0  0  0  0  0
   -1.2109   -1.0194   -1.5788 C   0  0  0  0  0  0  0  0  0  0  0  0
   -2.0693    1.6709   -0.0050 C   0  0  0  0  0  0  0  0  0  0  0  0
   -1.8132   -2.1241   -0.7487 C   0  0  0  0  0  0  0  0  0  0  0  0
   -2.9030    1.3402    1.0719 C   0  0  0  0  0  0  0  0  0  0  0  0
   -2.5155    2.6043   -0.9503 C   0  0  0  0  0  0  0  0  0  0  0  0
   -3.0600   -1.9391   -0.1697 C   0  0  0  0  0  0  0  0  0  0  0  0
   -1.1114   -3.3081   -0.5772 C   0  0  0  0  0  0  0  0  0  0  0  0
   -4.1596    1.9319    1.2010 C   0  0  0  0  0  0  0  0  0  0  0  0
   -3.7721    3.1960   -0.8211 C   0  0  0  0  0  0  0  0  0  0  0  0
   -4.5940    2.8597    0.2546 C   0  0  0  0  0  0  0  0  0  0  0  0
   -3.6176   -2.9612    0.5983 C   0  0  0  0  0  0  0  0  0  0  0  0
   -1.6692   -4.3303    0.1908 C   0  0  0  0  0  0  0  0  0  0  0  0
   -2.9223   -4.1568    0.7785 C   0  0  0  0  0  0  0  0  0  0  0  0
  1 10  2  0
  2  4  1  0
  2  5  1  0
  2 10  1  0
  3  8  1  0
  3  9  1  0
  3 13  1  0
  4 11  1  0
  5  6  1  0
  5  7  1  0
  6  8  1  0
  7  9  1  0
 10 12  1  0
 11 12  2  0
 11 14  1  0
 12 15  1  0
 14 16  1  0
 15 17  2  0
 15 18  1  0
 16 19  2  0
 16 20  1  0
 17 21  1  0
 18 22  2  0
 19 24  1  0
 20 25  2  0
 21 23  2  0
 22 23  1  0
 24 26  2  0
 25 26  1  0
M  END
>  <PUBCHEM_COMPOUND_CID>  (1) 
24039

>  <PUBCHEM_CONFORMER_RMSD>  (1) 
0.8

>  <PUBCHEM_CONFORMER_DIVERSEORDER>  (1) 
1
60
9
58
81
52
55
54
43
77
83
35
56
17
48
63
64
75
3
46
33
71
30
79
73
69
29
36
32
31
34
12
72
26
11
62
76
85
53
65
25
82
49
80
66
70
18
37
68
27
14
51
74
38
13
19
21
23
4
61
50
6
22
28
47
57
45
8
15
2
59
24
39
78
20
7
84
41
40
10
42
5
16
44
67

>  <PUBCHEM_MMFF94_PARTIAL_CHARGES>  (1) 
35
1 -0.57
10 0.62
11 -0.04
12 -0.01
13 0.27
14 0.28
15 0.03
16 -0.14
17 -0.15
18 -0.15
19 -0.15
2 -0.34
20 -0.15
21 -0.15
22 -0.15
23 -0.15
24 -0.15
25 -0.15
26 -0.15
3 -0.81
36 0.4
4 -0.52
42 0.15
43 0.15
44 0.15
45 0.15
46 0.15
47 0.15
48 0.15
49 0.15
5 0.3
50 0.15
51 0.15
8 0.27
9 0.27

>  <PUBCHEM_EFFECTIVE_ROTOR_COUNT>  (1) 
5.2

>  <PUBCHEM_PHARMACOPHORE_FEATURES>  (1) 
7
1 1 acceptor
1 3 cation
1 4 donor
5 2 4 10 11 12 rings
6 15 17 18 21 22 23 rings
6 16 19 20 24 25 26 rings
6 3 5 6 7 8 9 rings

>  <PUBCHEM_HEAVY_ATOM_COUNT>  (1) 
26

>  <PUBCHEM_ATOM_DEF_STEREO_COUNT>  (1) 
0

>  <PUBCHEM_ATOM_UDEF_STEREO_COUNT>  (1) 
0

>  <PUBCHEM_BOND_DEF_STEREO_COUNT>  (1) 
0

>  <PUBCHEM_BOND_UDEF_STEREO_COUNT>  (1) 
0

>  <PUBCHEM_ISOTOPIC_ATOM_COUNT>  (1) 
0

>  <PUBCHEM_COMPONENT_COUNT>  (1) 
1

>  <PUBCHEM_CACTVS_TAUTO_COUNT>  (1) 
3

>  <PUBCHEM_CONFORMER_ID>  (1) 
00005DE700000001

>  <PUBCHEM_MMFF94_ENERGY>  (1) 
68.7706

>  <PUBCHEM_FEATURE_SELFOVERLAP>  (1) 
35.522

>  <PUBCHEM_SHAPE_FINGERPRINT>  (1) 
1100329 8 17979074882012197839
12236239 1 18261112933841892508
12522641 33 18191018999184323741
12549972 3 17774421889485782680
12553582 1 18123179367013591414
12597179 24 18200597982021498975
12616971 3 17749388149221814108
12633257 1 17986695820716107905
12643181 29 18341050697799162646
12788726 201 18191879017995631266
13004483 165 18122341543701134787
13052359 8 18411138022016525965
13103583 49 18054811725308487675
13140716 1 17980759655979944911
13726171 33 18055944179810281164
14251757 5 18411700993339262920
14866123 147 18410573985442244875
15042514 8 18411142445600881628
15230672 131 18192153694952339846
15775530 1 17771325745909279849
15927050 60 18268708308115655279
17980427 23 17241341166203762557
19784866 135 18267304411738354011
21120745 212 18047771569624988109
21236236 1 18342455954218768991
22182313 1 17560261166247894166
22224240 67 18271811164779412529
22950370 63 18047758379875562110
23558518 356 18190182480260023496
23569943 247 15050345393448259572
23598288 3 18270959163030481502
25269216 80 18191894364863483078
3027735 51 18272081708732012927
3759504 43 18411136892340166973
4015057 19 16916201352521918448
4058900 60 17980206287998516137
4073 2 18342171168961957346
4409770 3 18408600388335608207
484985 159 18261947531196144555
497634 4 18113897217074294278
5104073 3 18341884230649644760
513202 73 18262252113096719979
5385378 56 17981614762820848481
5486654 36 18336264638913873586
59755656 520 18338230453734604540
6669772 16 18197782089845975671
7226269 152 17916861318815102392
9981440 41 18120377549630539729

>  <PUBCHEM_SHAPE_MULTIPOLES>  (1) 
514.26
11.58
5.03
1.2
21.94
4.67
0.01
-2.28
-1.71
-9.61
-0.35
-0.08
-0.12
-0.13

>  <PUBCHEM_SHAPE_SELFOVERLAP>  (1) 
1110.431

>  <PUBCHEM_SHAPE_VOLUME>  (1) 
282.4

>  <PUBCHEM_COORDINATE_TYPE>  (1) 
2
5
10

$$$$
