24044
     RDKit          3D

 18 19  0  0  0  0  0  0  0  0999 V2000
   -2.1304   -0.2025    0.0145 O   0  0  0  0  0  0  0  0  0  0  0  0
    1.5651    1.5962    0.3248 O   0  0  0  0  0  0  0  0  0  0  0  0
   -1.2817   -2.2220    0.7633 O   0  0  0  0  0  0  0  0  0  0  0  0
   -0.6772    1.7870    0.7203 O   0  0  0  0  0  0  0  0  0  0  0  0
   -4.4331    0.3646   -0.3719 C   0  0  0  0  0  0  0  0  0  0  0  0
   -5.8805   -0.1160   -0.3175 C   0  0  0  0  0  0  0  0  0  0  0  0
   -3.4634   -0.7204    0.0742 C   0  0  0  0  0  0  0  0  0  0  0  0
    2.5192   -0.5898   -0.1458 C   0  0  0  0  0  0  0  0  0  0  0  0
    0.1411   -0.3911    0.2722 C   0  0  0  0  0  0  0  0  0  0  0  0
   -6.8485    0.9841   -0.7225 C   0  0  0  0  0  0  0  0  0  0  0  0
    2.6748    0.7818    0.0261 C   0  0  0  0  0  0  0  0  0  0  0  0
    1.1918   -1.1697   -0.0118 C   0  0  0  0  0  0  0  0  0  0  0  0
   -1.1559   -1.0686    0.3878 C   0  0  0  0  0  0  0  0  0  0  0  0
    3.6437   -1.3642   -0.4416 C   0  0  0  0  0  0  0  0  0  0  0  0
    0.2830    1.0704    0.4591 C   0  0  0  0  0  0  0  0  0  0  0  0
    3.9188    1.3992   -0.0884 C   0  0  0  0  0  0  0  0  0  0  0  0
    4.8982   -0.7588   -0.5597 C   0  0  0  0  0  0  0  0  0  0  0  0
    5.0351    0.6198   -0.3832 C   0  0  0  0  0  0  0  0  0  0  0  0
  1  7  1  0
  1 13  1  0
  2 11  1  0
  2 15  1  0
  3 13  2  0
  4 15  2  0
  5  6  1  0
  5  7  1  0
  6 10  1  0
  8 11  2  0
  8 12  1  0
  8 14  1  0
  9 12  2  0
  9 13  1  0
  9 15  1  0
 11 16  1  0
 14 17  2  0
 16 18  2  0
 17 18  1  0
M  END
>  <PUBCHEM_COMPOUND_CID>  (1) 
24044

>  <PUBCHEM_CONFORMER_RMSD>  (1) 
0.6

>  <PUBCHEM_CONFORMER_DIVERSEORDER>  (1) 
1
33
32
105
96
73
58
103
43
109
88
47
13
99
92
27
23
18
106
72
20
53
102
10
98
67
12
63
35
49
50
104
4
84
8
77
107
93
85
68
52
100
83
64
78
38
7
56
74
15
45
51
81
3
30
39
24
16
101
65
55
90
79
97
21
54
91
46
11
31
28
71
59
70
48
95
62
76
40
44
80
86
14
2
6
22
42
69
66
61
37
5
87
75
9
19
57
36
17
108
29
25
41
94
60
26
34
89
82

>  <PUBCHEM_MMFF94_PARTIAL_CHARGES>  (1) 
20
1 -0.43
11 0.08
12 -0.18
13 0.71
14 -0.15
15 0.71
16 -0.15
17 -0.15
18 -0.15
2 -0.23
28 0.15
29 0.15
3 -0.57
30 0.15
31 0.15
32 0.15
4 -0.57
7 0.28
8 0.03
9 0.03

>  <PUBCHEM_EFFECTIVE_ROTOR_COUNT>  (1) 
5

>  <PUBCHEM_PHARMACOPHORE_FEATURES>  (1) 
6
1 10 hydrophobe
1 3 acceptor
1 4 acceptor
1 9 anion
6 2 8 9 11 12 15 rings
6 8 11 14 16 17 18 rings

>  <PUBCHEM_HEAVY_ATOM_COUNT>  (1) 
18

>  <PUBCHEM_ATOM_DEF_STEREO_COUNT>  (1) 
0

>  <PUBCHEM_ATOM_UDEF_STEREO_COUNT>  (1) 
0

>  <PUBCHEM_BOND_DEF_STEREO_COUNT>  (1) 
0

>  <PUBCHEM_BOND_UDEF_STEREO_COUNT>  (1) 
0

>  <PUBCHEM_ISOTOPIC_ATOM_COUNT>  (1) 
0

>  <PUBCHEM_COMPONENT_COUNT>  (1) 
1

>  <PUBCHEM_CACTVS_TAUTO_COUNT>  (1) 
1

>  <PUBCHEM_CONFORMER_ID>  (1) 
00005DEC00000001

>  <PUBCHEM_MMFF94_ENERGY>  (1) 
45.068

>  <PUBCHEM_FEATURE_SELFOVERLAP>  (1) 
30.473

>  <PUBCHEM_SHAPE_FINGERPRINT>  (1) 
10354089 29 12757151272720183910
106641 1 8862649201300289175
11471102 20 18413109472134886586
12011746 2 18343309167063432350
12236239 1 17418095416899556163
12596602 18 12540694800101869805
12670543 26 18412544280409055501
12730499 353 18261116253503537427
13533116 47 17604140425008534130
14115302 16 18187656842005551430
14911166 2 18411139142892285363
15048467 5 17967534583748730445
15099037 51 18411700997724082719
15183329 4 18272651217231850613
15196674 1 18339363070922818475
15475509 35 13254244814035007292
17834072 8 18410576180064414423
18222031 100 14476964505772191488
200 152 17632579339982905800
20645477 70 18272092664956058870
21029758 11 18273216404188266616
21267235 1 18342469114505264798
21279426 13 18266741277206717293
21285901 2 18340772533170910908
22079108 93 12757155705063051959
221357 26 18342450422955558621
22224240 67 7925616783469547173
22289505 5 18413105052381683948
23402539 116 18342453764091585119
23402655 69 18342454846634229711
23559900 14 18411421743799170178
2871803 45 18411141312256873766
293599 30 18260265248677797727
29717793 49 17489593341795894716
3004659 81 18334295345138153038
335352 9 18410294709973677310
34934 24 18341045324298858746
3759504 43 17531249495598637459
4047638 21 18113054939216404738
4072396 5 18338504288571215530
4340502 62 16226048873118074427
495365 180 17774712177798687824
59755656 520 17458339754448314243

>  <PUBCHEM_SHAPE_MULTIPOLES>  (1) 
346.95
13.29
1.71
0.76
17.67
0.05
-0.01
-2.5
-4.35
-0.59
0.25
0.12
0
0.58

>  <PUBCHEM_SHAPE_SELFOVERLAP>  (1) 
734.039

>  <PUBCHEM_SHAPE_VOLUME>  (1) 
193.5

>  <PUBCHEM_COORDINATE_TYPE>  (1) 
2
5
10

$$$$
