24047
     RDKit          3D

 15 15  0  0  1  0  0  0  0  0999 V2000
   -4.1443    1.0127    0.3485 O   0  0  0  0  0  0  0  0  0  0  0  0
   -2.2157    2.1297   -0.0593 O   0  0  0  0  0  0  0  0  0  0  0  0
    4.2390   -0.1673    0.9162 O   0  0  0  0  0  0  0  0  0  0  0  0
    4.0395    0.5159   -1.1650 O   0  0  0  0  0  0  0  0  0  0  0  0
    3.5394    0.1310   -0.0811 N   0  0  0  0  0  0  0  0  0  0  0  0
   -2.1319   -0.2851    0.3252 C   0  0  0  0  0  0  0  0  0  0  0  0
   -2.7592   -1.2781   -0.6739 C   0  0  0  0  0  0  0  0  0  0  0  0
   -0.6181   -0.1732    0.2172 C   0  0  0  0  0  0  0  0  0  0  0  0
    0.1548   -0.4998    1.3126 C   0  0  0  0  0  0  0  0  0  0  0  0
   -0.0641    0.2508   -0.9734 C   0  0  0  0  0  0  0  0  0  0  0  0
   -2.2355   -2.6993   -0.5085 C   0  0  0  0  0  0  0  0  0  0  0  0
   -2.7967    1.0794    0.1810 C   0  0  0  0  0  0  0  0  0  0  0  0
    1.5423   -0.3978    1.2131 C   0  0  0  0  0  0  0  0  0  0  0  0
    1.3236    0.3527   -1.0729 C   0  0  0  0  0  0  0  0  0  0  0  0
    2.1268    0.0283    0.0204 C   0  0  0  0  0  0  0  0  0  0  0  0
  1 12  1  0
  2 12  2  0
  3  5  1  0
  4  5  2  0
  5 15  1  0
  6  7  1  0
  6  8  1  0
  6 12  1  0
  7 11  1  0
  8  9  2  0
  8 10  1  0
  9 13  1  0
 10 14  2  0
 13 15  2  0
 14 15  1  0
M  CHG  2   3  -1   5   1
M  END
>  <PUBCHEM_COMPOUND_CID>  (1) 
24047

>  <PUBCHEM_CONFORMER_RMSD>  (1) 
0.6

>  <PUBCHEM_CONFORMER_DIVERSEORDER>  (1) 
1
7
5
10
3
9
2
6
4
8

>  <PUBCHEM_MMFF94_PARTIAL_CHARGES>  (1) 
18
1 -0.65
10 -0.15
12 0.66
13 -0.15
14 -0.15
15 0.13
19 0.15
2 -0.57
20 0.15
24 0.15
25 0.15
26 0.5
3 -0.52
4 -0.52
5 0.91
6 0.2
8 -0.14
9 -0.15

>  <PUBCHEM_EFFECTIVE_ROTOR_COUNT>  (1) 
4

>  <PUBCHEM_PHARMACOPHORE_FEATURES>  (1) 
8
1 1 acceptor
1 11 hydrophobe
1 2 acceptor
1 3 acceptor
1 3 anion
1 4 acceptor
3 1 2 12 anion
6 8 9 10 13 14 15 rings

>  <PUBCHEM_HEAVY_ATOM_COUNT>  (1) 
15

>  <PUBCHEM_ATOM_DEF_STEREO_COUNT>  (1) 
0

>  <PUBCHEM_ATOM_UDEF_STEREO_COUNT>  (1) 
1

>  <PUBCHEM_BOND_DEF_STEREO_COUNT>  (1) 
0

>  <PUBCHEM_BOND_UDEF_STEREO_COUNT>  (1) 
0

>  <PUBCHEM_ISOTOPIC_ATOM_COUNT>  (1) 
0

>  <PUBCHEM_COMPONENT_COUNT>  (1) 
1

>  <PUBCHEM_CACTVS_TAUTO_COUNT>  (1) 
1

>  <PUBCHEM_CONFORMER_ID>  (1) 
00005DEF00000001

>  <PUBCHEM_MMFF94_ENERGY>  (1) 
37.038

>  <PUBCHEM_FEATURE_SELFOVERLAP>  (1) 
40.736

>  <PUBCHEM_SHAPE_FINGERPRINT>  (1) 
10219947 1 16153431636219867812
11543360 7 18270410519787209076
12138202 97 18060415785924765095
12236239 1 18040433300546354807
124424 183 17131833144707081238
12491281 212 18260272944800210912
12500047 106 18272646827173991351
12932764 1 18342176682613139314
13296908 3 16917353657966271822
13581323 91 18410015433561104043
13760787 19 18413110558972901470
13760787 5 16805602577616545182
15219456 202 17131544050289459347
15279307 12 18334007264106492339
15309172 13 16515404057901448882
15653759 3 17704070732761546450
15669948 3 18410288125303476539
15775835 57 18260832557738376377
16945 1 18411410713700648843
18186145 218 16660648470779736254
18534176 82 17917713504613279727
19026448 4 17846217782666100618
19026448 5 18335419093155448166
19422 9 18259982691190162286
200 152 17458627873791763475
20279233 1 16917350337703331566
20645477 56 18343023272280797145
20645477 70 15430579711335189386
20715346 28 16987988509458610330
21061003 4 16343432824504095643
21339142 149 18261111927959468787
22094290 60 18342459287076629726
23236772 104 17967812756275359497
23402539 116 18272360971952981925
23493267 7 17846787273438203402
23557571 272 17988652929332355813
23559900 14 17989209227251737238
23598294 1 18411411830730048603
25 1 16772679793571911697
2748010 2 14691136254338776114
633830 44 17530693091248928990
69090 78 18411419475650249487
77492 1 18040709281595320651

>  <PUBCHEM_SHAPE_MULTIPOLES>  (1) 
280.23
6.73
1.68
1.16
3.94
0.59
-0.06
-0.84
0.23
-2.44
0.25
0.64
0.09
-0.7

>  <PUBCHEM_SHAPE_SELFOVERLAP>  (1) 
581.908

>  <PUBCHEM_SHAPE_VOLUME>  (1) 
160

>  <PUBCHEM_COORDINATE_TYPE>  (1) 
2
5
10

$$$$
