24053
     RDKit          3D

 18 19  0  0  0  0  0  0  0  0999 V2000
    2.4634    2.5529    0.0490 N   0  0  0  0  0  0  0  0  0  0  0  0
   -0.2234    0.2571    0.3027 C   0  0  0  0  0  0  0  0  0  0  0  0
    1.8641    1.5929    0.9752 C   0  0  0  0  0  0  0  0  0  0  0  0
    0.4020    1.3937    0.6823 C   0  0  0  0  0  0  0  0  0  0  0  0
   -1.6953    0.3148    0.1039 C   0  0  0  0  0  0  0  0  0  0  0  0
    0.5483   -0.9885    0.0945 C   0  0  0  0  0  0  0  0  0  0  0  0
   -2.5226    0.0427    1.1736 C   0  0  0  0  0  0  0  0  0  0  0  0
    1.0668   -1.2563   -1.1587 C   0  0  0  0  0  0  0  0  0  0  0  0
   -2.1865    0.6389   -1.1434 C   0  0  0  0  0  0  0  0  0  0  0  0
    0.7312   -1.8517    1.1585 C   0  0  0  0  0  0  0  0  0  0  0  0
    2.3370    2.0806   -1.3293 C   0  0  0  0  0  0  0  0  0  0  0  0
    3.8687    2.7787    0.3851 C   0  0  0  0  0  0  0  0  0  0  0  0
   -3.9039    0.0973    0.9874 C   0  0  0  0  0  0  0  0  0  0  0  0
    1.7946   -2.4299   -1.3550 C   0  0  0  0  0  0  0  0  0  0  0  0
   -3.5679    0.6936   -1.3296 C   0  0  0  0  0  0  0  0  0  0  0  0
    1.4591   -3.0253    0.9624 C   0  0  0  0  0  0  0  0  0  0  0  0
   -4.4265    0.4227   -0.2642 C   0  0  0  0  0  0  0  0  0  0  0  0
    1.9907   -3.3144   -0.2944 C   0  0  0  0  0  0  0  0  0  0  0  0
  1  3  1  0
  1 11  1  0
  1 12  1  0
  2  4  2  3
  2  5  1  0
  2  6  1  0
  3  4  1  0
  5  7  2  0
  5  9  1  0
  6  8  2  0
  6 10  1  0
  7 13  1  0
  8 14  1  0
  9 15  2  0
 10 16  2  0
 13 17  2  0
 14 18  2  0
 15 17  1  0
 16 18  1  0
M  END
>  <PUBCHEM_COMPOUND_CID>  (1) 
24053

>  <PUBCHEM_CONFORMER_RMSD>  (1) 
0.6

>  <PUBCHEM_CONFORMER_DIVERSEORDER>  (1) 
1
12
2
7
11
8
6
9
10
3
5
4

>  <PUBCHEM_MMFF94_PARTIAL_CHARGES>  (1) 
29
1 -0.81
10 -0.15
11 0.27
12 0.27
13 -0.15
14 -0.15
15 -0.15
16 -0.15
17 -0.15
18 -0.15
2 -0.06
21 0.15
22 0.15
23 0.15
24 0.15
25 0.15
3 0.41
32 0.15
33 0.15
34 0.15
35 0.15
36 0.15
37 0.15
4 -0.29
5 0.03
6 0.03
7 -0.15
8 -0.15
9 -0.15

>  <PUBCHEM_EFFECTIVE_ROTOR_COUNT>  (1) 
4

>  <PUBCHEM_PHARMACOPHORE_FEATURES>  (1) 
3
1 1 cation
6 5 7 9 13 15 17 rings
6 6 8 10 14 16 18 rings

>  <PUBCHEM_HEAVY_ATOM_COUNT>  (1) 
18

>  <PUBCHEM_ATOM_DEF_STEREO_COUNT>  (1) 
0

>  <PUBCHEM_ATOM_UDEF_STEREO_COUNT>  (1) 
0

>  <PUBCHEM_BOND_DEF_STEREO_COUNT>  (1) 
0

>  <PUBCHEM_BOND_UDEF_STEREO_COUNT>  (1) 
0

>  <PUBCHEM_ISOTOPIC_ATOM_COUNT>  (1) 
0

>  <PUBCHEM_COMPONENT_COUNT>  (1) 
1

>  <PUBCHEM_CACTVS_TAUTO_COUNT>  (1) 
1

>  <PUBCHEM_CONFORMER_ID>  (1) 
00005DF500000001

>  <PUBCHEM_MMFF94_ENERGY>  (1) 
61.0355

>  <PUBCHEM_FEATURE_SELFOVERLAP>  (1) 
15.223

>  <PUBCHEM_SHAPE_FINGERPRINT>  (1) 
10764073 3 15941143329908258008
107951 10 17824270517385481170
11578080 2 17388249044545540292
121448 382 17910942857769389085
12532896 13 18053660558235083988
12553582 1 17980491053041390979
12592029 89 18335977640598670984
12707595 3 18192714432390487275
12788726 201 16893703944157134266
133893 2 18338246959436354600
13681431 1 18197211451847839866
14181834 199 18269257011239756919
15163728 17 17895210912192556452
15309172 13 18265050425976466025
15502722 9 18410855460370943373
15906896 17 17759798543729253466
16945 1 18340769256269131922
1813 80 17700139798330287223
18915476 22 18409158896949908621
20361792 2 17983570806585329127
20567600 347 18267017439256310479
20600515 1 17479728317365851320
20645476 183 18046906267006548876
20645477 70 18340759361281615199
20671657 53 18050000000495183307
21524375 3 18194396921087311000
21731228 192 18191865845431070424
22112679 90 17550411552128904818
2255824 54 18342738464478205415
22907989 373 17400370438550186244
23114952 82 18261671472257174845
23419403 2 17762949589272353322
23557571 272 17240490199948195629
23558518 356 17407384206059970569
23559900 14 17604436197873071143
23598288 3 17466511526686911256
25 1 18271534202984927216
312423 11 18201723891246120225
3729539 64 18264512640958560486
458136 41 18337968886121084825
474 4 18341611546563653112
6049 1 17895763877016478677
6138700 20 18340210700937634102
633830 44 17916041207367824129
7364860 26 18412544275628713354
7615 1 17560514002841870217
81228 2 17189813446397881720
81539 233 18408881871121498901
84936 31 18412259519370809589

>  <PUBCHEM_SHAPE_MULTIPOLES>  (1) 
365.45
6.33
3.69
1.43
6.33
1.2
-0.22
-3.13
-0.41
-6.25
0.04
0.14
0.17
0.53

>  <PUBCHEM_SHAPE_SELFOVERLAP>  (1) 
772.476

>  <PUBCHEM_SHAPE_VOLUME>  (1) 
206.1

>  <PUBCHEM_COORDINATE_TYPE>  (1) 
2
5
10

$$$$
