24057
     RDKit          3D

 11 12  0  0  0  0  0  0  0  0999 V2000
   -1.6889    1.5218   -0.0003 S   0  0  0  0  0  0  0  0  0  0  0  0
    1.3907   -2.3677    0.0000 O   0  0  0  0  0  0  0  0  0  0  0  0
   -1.2145   -1.0134   -0.0002 N   0  0  0  0  0  0  0  0  0  0  0  0
   -3.5004   -0.4192    0.0006 N   0  0  0  0  0  0  0  0  0  0  0  0
    0.0167   -0.3743   -0.0002 C   0  0  0  0  0  0  0  0  0  0  0  0
   -0.0384    1.0228   -0.0001 C   0  0  0  0  0  0  0  0  0  0  0  0
    1.2811   -1.0025   -0.0001 C   0  0  0  0  0  0  0  0  0  0  0  0
    1.1237    1.8108    0.0001 C   0  0  0  0  0  0  0  0  0  0  0  0
    2.4422   -0.2241    0.0001 C   0  0  0  0  0  0  0  0  0  0  0  0
   -2.1745   -0.1183   -0.0002 C   0  0  0  0  0  0  0  0  0  0  0  0
    2.3622    1.1641    0.0002 C   0  0  0  0  0  0  0  0  0  0  0  0
  1  6  1  0
  1 10  1  0
  2  7  1  0
  3  5  1  0
  3 10  2  0
  4 10  1  0
  5  6  2  0
  5  7  1  0
  6  8  1  0
  7  9  2  0
  8 11  2  0
  9 11  1  0
M  END
>  <PUBCHEM_COMPOUND_CID>  (1) 
24057

>  <PUBCHEM_CONFORMER_RMSD>  (1) 
0.4

>  <PUBCHEM_CONFORMER_DIVERSEORDER>  (1) 
1

>  <PUBCHEM_MMFF94_PARTIAL_CHARGES>  (1) 
17
1 -0.08
10 0.46
11 -0.15
12 0.15
13 0.15
14 0.15
15 0.4
16 0.4
17 0.45
2 -0.53
3 -0.57
4 -0.88
5 0.23
6 0.04
7 0.08
8 -0.15
9 -0.15

>  <PUBCHEM_EFFECTIVE_ROTOR_COUNT>  (1) 
0

>  <PUBCHEM_PHARMACOPHORE_FEATURES>  (1) 
5
1 2 donor
1 4 donor
3 3 4 10 cation
5 1 3 5 6 10 rings
6 5 6 7 8 9 11 rings

>  <PUBCHEM_HEAVY_ATOM_COUNT>  (1) 
11

>  <PUBCHEM_ATOM_DEF_STEREO_COUNT>  (1) 
0

>  <PUBCHEM_ATOM_UDEF_STEREO_COUNT>  (1) 
0

>  <PUBCHEM_BOND_DEF_STEREO_COUNT>  (1) 
0

>  <PUBCHEM_BOND_UDEF_STEREO_COUNT>  (1) 
0

>  <PUBCHEM_ISOTOPIC_ATOM_COUNT>  (1) 
0

>  <PUBCHEM_COMPONENT_COUNT>  (1) 
1

>  <PUBCHEM_CACTVS_TAUTO_COUNT>  (1) 
6

>  <PUBCHEM_CONFORMER_ID>  (1) 
00005DF900000001

>  <PUBCHEM_MMFF94_ENERGY>  (1) 
20.7277

>  <PUBCHEM_FEATURE_SELFOVERLAP>  (1) 
25.443

>  <PUBCHEM_SHAPE_FINGERPRINT>  (1) 
11471102 20 18410288129772452317
12897270 3 18410012169159183789
13380535 76 18336262452443327306
14325111 11 18410856598495306081
161256 15 18410295778718894324
16945 1 18410574002357830501
17990270 104 18338234847507143066
193761 8 18122624942532965448
19973954 147 18338798897061999317
20201158 50 18407758140389386171
20645477 70 18411975850415397015
20871998 22 18126571106950457446
21040471 1 17978510063784380196
21501502 16 18337674096619324681
23235685 24 18264201577108446316
23402655 69 18340754967567371701
23552423 10 18335425603798302791
23559900 14 17188969018012598318
241688 4 17977104557053202576
2748010 2 18194961838035416764
29004967 10 18335424560163499976
5084963 1 18202288038762122600
528886 8 18339075024704050416
7364860 26 18271806787658598174

>  <PUBCHEM_SHAPE_MULTIPOLES>  (1) 
214.39
3.9
1.98
0.6
1.97
0.23
0
0.21
0
-0.7
0
-0.01
-0.05
0

>  <PUBCHEM_SHAPE_SELFOVERLAP>  (1) 
457.252

>  <PUBCHEM_SHAPE_VOLUME>  (1) 
121.2

>  <PUBCHEM_COORDINATE_TYPE>  (1) 
2
5
10

$$$$
