24056
     RDKit          3D

 17 19  0  0  0  0  0  0  0  0999 V2000
    4.7492   -0.3027   -0.0015 O   0  0  0  0  0  0  0  0  0  0  0  0
    3.5442   -2.2300    0.0006 O   0  0  0  0  0  0  0  0  0  0  0  0
   -0.0350    0.1433    0.0001 C   0  0  0  0  0  0  0  0  0  0  0  0
   -1.3790   -0.3732   -0.0001 C   0  0  0  0  0  0  0  0  0  0  0  0
    0.1671    1.5483    0.0001 C   0  0  0  0  0  0  0  0  0  0  0  0
   -2.4696    0.5352   -0.0001 C   0  0  0  0  0  0  0  0  0  0  0  0
    1.1283   -0.6665    0.0003 C   0  0  0  0  0  0  0  0  0  0  0  0
   -0.9320    2.4107    0.0001 C   0  0  0  0  0  0  0  0  0  0  0  0
   -2.2306    1.9118    0.0001 C   0  0  0  0  0  0  0  0  0  0  0  0
    1.4665    2.0840    0.0000 C   0  0  0  0  0  0  0  0  0  0  0  0
   -1.7010   -1.7536   -0.0001 C   0  0  0  0  0  0  0  0  0  0  0  0
    2.4149   -0.1208    0.0005 C   0  0  0  0  0  0  0  0  0  0  0  0
   -3.7934    0.0635    0.0000 C   0  0  0  0  0  0  0  0  0  0  0  0
    2.5840    1.2550    0.0002 C   0  0  0  0  0  0  0  0  0  0  0  0
   -3.0221   -2.2094   -0.0002 C   0  0  0  0  0  0  0  0  0  0  0  0
   -4.0687   -1.3004   -0.0002 C   0  0  0  0  0  0  0  0  0  0  0  0
    3.5772   -0.9952    0.0003 C   0  0  0  0  0  0  0  0  0  0  0  0
  1 17  1  0
  2 17  2  0
  3  4  1  0
  3  5  1  0
  3  7  2  0
  4  6  2  0
  4 11  1  0
  5  8  1  0
  5 10  2  0
  6  9  1  0
  6 13  1  0
  7 12  1  0
  8  9  2  0
 10 14  1  0
 11 15  2  0
 12 14  2  0
 12 17  1  0
 13 16  2  0
 15 16  1  0
M  END
>  <PUBCHEM_COMPOUND_CID>  (1) 
24056

>  <PUBCHEM_CONFORMER_RMSD>  (1) 
0.6

>  <PUBCHEM_CONFORMER_DIVERSEORDER>  (1) 
1

>  <PUBCHEM_MMFF94_PARTIAL_CHARGES>  (1) 
23
1 -0.65
10 -0.15
11 -0.15
12 0.09
13 -0.15
14 -0.15
15 -0.15
16 -0.15
17 0.63
18 0.15
19 0.15
2 -0.57
20 0.15
21 0.15
22 0.15
23 0.15
24 0.15
25 0.15
26 0.15
27 0.5
7 -0.15
8 -0.15
9 -0.15

>  <PUBCHEM_EFFECTIVE_ROTOR_COUNT>  (1) 
1

>  <PUBCHEM_PHARMACOPHORE_FEATURES>  (1) 
6
1 1 acceptor
1 2 acceptor
3 1 2 17 anion
6 3 4 5 6 8 9 rings
6 3 5 7 10 12 14 rings
6 4 6 11 13 15 16 rings

>  <PUBCHEM_HEAVY_ATOM_COUNT>  (1) 
17

>  <PUBCHEM_ATOM_DEF_STEREO_COUNT>  (1) 
0

>  <PUBCHEM_ATOM_UDEF_STEREO_COUNT>  (1) 
0

>  <PUBCHEM_BOND_DEF_STEREO_COUNT>  (1) 
0

>  <PUBCHEM_BOND_UDEF_STEREO_COUNT>  (1) 
0

>  <PUBCHEM_ISOTOPIC_ATOM_COUNT>  (1) 
0

>  <PUBCHEM_COMPONENT_COUNT>  (1) 
1

>  <PUBCHEM_CACTVS_TAUTO_COUNT>  (1) 
1

>  <PUBCHEM_CONFORMER_ID>  (1) 
00005DF800000001

>  <PUBCHEM_MMFF94_ENERGY>  (1) 
58.8475

>  <PUBCHEM_FEATURE_SELFOVERLAP>  (1) 
30.552

>  <PUBCHEM_SHAPE_FINGERPRINT>  (1) 
10319926 262 18124851510247231130
10616163 171 18411984637364609478
10618630 7 18410012177759687357
10967382 1 18122343742185949575
1100329 8 17112972964179309579
11578080 2 17387383836606630348
11769659 78 18411135861458136917
11806522 49 18335701667622700572
12032990 46 18409450327586802203
12553582 1 18410851092236625254
13140716 1 18340212976668849505
13288520 33 18412547583281117078
13583140 156 14261352423223376855
138480 1 15240322009865824101
14115302 16 17894639183489018199
14790565 3 17763189033441317984
14965852 173 18411418388612034393
15099037 51 18409162178610741389
15196674 1 18410574032839293989
15352361 1 18410855473124236254
15375462 189 18114180804642261698
15442244 35 18411703179456640841
15536298 74 18342175626214870416
16752209 62 18263347119519624913
16945 1 18410575046166979589
17804303 29 18341898480348851277
1813 80 17603304864510839308
18186145 218 17531517789188444555
19141452 34 18272373092271751463
19591789 44 16972251963971348193
200 152 17988634216797852063
20281475 54 18410860966355603404
20510252 161 18200029525798678352
20645477 70 18264762328297179031
21267235 1 18410302431602325043
21501502 16 18411427232023952637
21501925 9 18411693322701777936
21634736 98 18335707186497427068
221490 88 18191030203482166555
23184049 29 18411420613473678596
2334 1 18266741479201860205
23366157 5 18041558173798329804
23402539 116 18343293752526027335
23463225 33 18411703226716955981
23557571 272 18201165347781172300
23559900 14 18411974789146972560
2748010 2 18338791342330570293
3091708 16 9064031374599349025
335352 9 18338798918937671893
4214541 1 18338797806430164130
5104073 3 18412263960346031545
54173680 148 18338798901230307624
7364860 26 18269272542227049784
8809292 202 18334579070234660795
9709674 26 18342179904018407542

>  <PUBCHEM_SHAPE_MULTIPOLES>  (1) 
338.11
7.33
2.6
0.61
2.72
0.33
0
-3.9
0
-0.31
0
-0.05
0.02
0

>  <PUBCHEM_SHAPE_SELFOVERLAP>  (1) 
763.938

>  <PUBCHEM_SHAPE_VOLUME>  (1) 
178.2

>  <PUBCHEM_COORDINATE_TYPE>  (1) 
2
5
10

$$$$
