24060
     RDKit          3D

 20 21  0  0  0  0  0  0  0  0999 V2000
   -3.5122    1.5777   -0.2681 N   0  0  0  0  0  0  0  0  0  0  0  0
   -0.0377    0.5693    3.1224 N   0  0  0  0  0  0  0  0  0  0  0  0
    0.0486    0.1980    0.4938 C   0  0  0  0  0  0  0  0  0  0  0  0
   -1.1123    1.0744   -0.1088 C   0  0  0  0  0  0  0  0  0  0  0  0
   -2.5300    0.6947    0.3557 C   0  0  0  0  0  0  0  0  0  0  0  0
    1.4591    0.6591    0.0392 C   0  0  0  0  0  0  0  0  0  0  0  0
   -0.1732   -1.2721    0.0616 C   0  0  0  0  0  0  0  0  0  0  0  0
   -0.0021    0.3984    1.9746 C   0  0  0  0  0  0  0  0  0  0  0  0
    2.5408    0.0147    0.5679 C   0  0  0  0  0  0  0  0  0  0  0  0
   -0.3849   -2.2027    1.0409 C   0  0  0  0  0  0  0  0  0  0  0  0
    1.5351    1.6814   -0.8630 C   0  0  0  0  0  0  0  0  0  0  0  0
   -0.1456   -1.5581   -1.2752 C   0  0  0  0  0  0  0  0  0  0  0  0
   -3.4281    1.4898   -1.7261 C   0  0  0  0  0  0  0  0  0  0  0  0
   -3.3127    2.9589    0.1715 C   0  0  0  0  0  0  0  0  0  0  0  0
    3.8086    0.4289    0.1593 C   0  0  0  0  0  0  0  0  0  0  0  0
   -0.5849   -3.5271    0.6517 C   0  0  0  0  0  0  0  0  0  0  0  0
    2.8029    2.0954   -1.2718 C   0  0  0  0  0  0  0  0  0  0  0  0
   -0.3457   -2.8826   -1.6644 C   0  0  0  0  0  0  0  0  0  0  0  0
    3.9396    1.4691   -0.7605 C   0  0  0  0  0  0  0  0  0  0  0  0
   -0.5654   -3.8671   -0.7008 C   0  0  0  0  0  0  0  0  0  0  0  0
  1  5  1  0
  1 13  1  0
  1 14  1  0
  2  8  3  0
  3  4  1  0
  3  6  1  0
  3  7  1  0
  3  8  1  0
  4  5  1  0
  6  9  2  0
  6 11  1  0
  7 10  2  0
  7 12  1  0
  9 15  1  0
 10 16  1  0
 11 17  2  0
 12 18  2  0
 15 19  2  0
 16 20  2  0
 17 19  1  0
 18 20  1  0
M  END
>  <PUBCHEM_COMPOUND_CID>  (1) 
24060

>  <PUBCHEM_CONFORMER_RMSD>  (1) 
0.8

>  <PUBCHEM_CONFORMER_DIVERSEORDER>  (1) 
1
3
8
7
9
5
6
4
2

>  <PUBCHEM_MMFF94_PARTIAL_CHARGES>  (1) 
29
1 -0.81
10 -0.15
11 -0.15
12 -0.15
13 0.27
14 0.27
15 -0.15
16 -0.15
17 -0.15
18 -0.15
19 -0.15
2 -0.56
20 -0.15
25 0.15
26 0.15
27 0.15
28 0.15
3 0.49
35 0.15
36 0.15
37 0.15
38 0.15
39 0.15
40 0.15
5 0.27
6 -0.14
7 -0.14
8 0.36
9 -0.15

>  <PUBCHEM_EFFECTIVE_ROTOR_COUNT>  (1) 
5

>  <PUBCHEM_PHARMACOPHORE_FEATURES>  (1) 
4
1 1 cation
1 2 acceptor
6 6 9 11 15 17 19 rings
6 7 10 12 16 18 20 rings

>  <PUBCHEM_HEAVY_ATOM_COUNT>  (1) 
20

>  <PUBCHEM_ATOM_DEF_STEREO_COUNT>  (1) 
0

>  <PUBCHEM_ATOM_UDEF_STEREO_COUNT>  (1) 
0

>  <PUBCHEM_BOND_DEF_STEREO_COUNT>  (1) 
0

>  <PUBCHEM_BOND_UDEF_STEREO_COUNT>  (1) 
0

>  <PUBCHEM_ISOTOPIC_ATOM_COUNT>  (1) 
0

>  <PUBCHEM_COMPONENT_COUNT>  (1) 
1

>  <PUBCHEM_CACTVS_TAUTO_COUNT>  (1) 
1

>  <PUBCHEM_CONFORMER_ID>  (1) 
00005DFC00000001

>  <PUBCHEM_MMFF94_ENERGY>  (1) 
74.017

>  <PUBCHEM_FEATURE_SELFOVERLAP>  (1) 
20.297

>  <PUBCHEM_SHAPE_FINGERPRINT>  (1) 
11101153 10 17181380725523255220
11421498 54 17987809493020481097
11578080 2 11007895442217600696
11833330 49 17905321080692109281
121448 382 18129929170148715973
12553582 1 17402620039783973870
12592029 89 18263370204520370499
12714826 92 17769672115212774606
12788726 201 18047184430246904810
13149001 5 17702375341724353785
133893 2 17836952008709758666
13681431 1 17621038664322401103
14181834 199 17696171626795620063
14251751 93 18410851075309580751
14817 1 14110746560078359843
15163728 17 18118712952896565556
15502722 9 18123475981849695053
15852999 172 18130517366056832646
15906896 17 18264491852425719230
16752209 62 18268699679103974423
16945 1 18197217164159858626
1813 80 17044329886284634974
19765921 60 18059017168395203761
20361792 2 17263570305919255742
20600515 1 17048834559400751750
20602899 9 18129679542301582244
20645476 183 18410012156474631678
20671657 53 17257935893068692395
21285901 2 17985000433705331103
21524375 3 18259984881344051421
22907989 373 18122636216616299061
229495 10 17829363454791977744
23419403 2 17765760928914717007
23557571 272 17691099944697481944
266924 78 17694537786992710129
298252 57 18334572438699738856
3060560 45 18262787454836383820
6138700 20 17907304248093755262
68419 9 17609457813041684761
7164475 11 18048596212120013542
7364860 26 17908702830651043989
81228 2 17836911670756761571
81539 233 18264203604538524349
9999458 23 16153714167437143704

>  <PUBCHEM_SHAPE_MULTIPOLES>  (1) 
401.63
5.2
4.17
1.86
2.41
3.8
-0.98
-5.68
1.72
-3.29
1.18
-0.28
0
-0.34

>  <PUBCHEM_SHAPE_SELFOVERLAP>  (1) 
852.762

>  <PUBCHEM_SHAPE_VOLUME>  (1) 
222.4

>  <PUBCHEM_COORDINATE_TYPE>  (1) 
2
5
10

$$$$
