24062
     RDKit          3D

 13 13  0  0  0  0  0  0  0  0999 V2000
    4.6551    1.5142    0.3836 Cl  0  0  0  0  0  0  0  0  0  0  0  0
    1.3306   -0.3759   -0.4434 O   0  0  0  0  0  0  0  0  0  0  0  0
    3.1668   -0.9512    0.8254 O   0  0  0  0  0  0  0  0  0  0  0  0
   -0.6507   -1.7039   -0.8131 C   0  0  0  0  0  0  0  0  0  0  0  0
   -1.5939   -0.6416   -0.3586 C   0  0  0  0  0  0  0  0  0  0  0  0
    0.7178   -1.6202   -0.1303 C   0  0  0  0  0  0  0  0  0  0  0  0
   -2.4292   -0.8720    0.7346 C   0  0  0  0  0  0  0  0  0  0  0  0
   -1.6403    0.5823   -1.0262 C   0  0  0  0  0  0  0  0  0  0  0  0
   -3.3112    0.1215    1.1599 C   0  0  0  0  0  0  0  0  0  0  0  0
   -2.5223    1.5757   -0.6007 C   0  0  0  0  0  0  0  0  0  0  0  0
   -3.3577    1.3452    0.4923 C   0  0  0  0  0  0  0  0  0  0  0  0
    2.5698   -0.1635    0.1049 C   0  0  0  0  0  0  0  0  0  0  0  0
    3.0653    1.1894   -0.3284 C   0  0  0  0  0  0  0  0  0  0  0  0
  1 13  1  0
  2  6  1  0
  2 12  1  0
  3 12  2  0
  4  5  1  0
  4  6  1  0
  5  7  2  0
  5  8  1  0
  7  9  1  0
  8 10  2  0
  9 11  2  0
 10 11  1  0
 12 13  1  0
M  END
>  <PUBCHEM_COMPOUND_CID>  (1) 
24062

>  <PUBCHEM_CONFORMER_RMSD>  (1) 
0.6

>  <PUBCHEM_CONFORMER_DIVERSEORDER>  (1) 
1
23
92
4
61
72
93
24
63
50
39
27
17
81
7
16
108
71
45
79
75
85
20
56
103
22
41
32
38
21
51
65
100
101
46
48
80
87
109
104
82
29
28
35
15
78
88
76
62
40
105
44
34
89
60
9
36
55
97
47
68
58
66
53
5
52
106
30
74
6
99
102
107
19
33
96
83
73
42
90
86
70
31
69
84
10
49
95
98
14
37
25
67
94
13
26
8
12
57
91
43
3
11
64
77
54
59
2
18

>  <PUBCHEM_MMFF94_PARTIAL_CHARGES>  (1) 
18
1 -0.29
10 -0.15
11 -0.15
12 0.66
13 0.35
18 0.15
19 0.15
2 -0.43
20 0.15
21 0.15
22 0.15
3 -0.57
4 0.14
5 -0.14
6 0.28
7 -0.15
8 -0.15
9 -0.15

>  <PUBCHEM_EFFECTIVE_ROTOR_COUNT>  (1) 
5

>  <PUBCHEM_PHARMACOPHORE_FEATURES>  (1) 
2
1 3 acceptor
6 5 7 8 9 10 11 rings

>  <PUBCHEM_HEAVY_ATOM_COUNT>  (1) 
13

>  <PUBCHEM_ATOM_DEF_STEREO_COUNT>  (1) 
0

>  <PUBCHEM_ATOM_UDEF_STEREO_COUNT>  (1) 
0

>  <PUBCHEM_BOND_DEF_STEREO_COUNT>  (1) 
0

>  <PUBCHEM_BOND_UDEF_STEREO_COUNT>  (1) 
0

>  <PUBCHEM_ISOTOPIC_ATOM_COUNT>  (1) 
0

>  <PUBCHEM_COMPONENT_COUNT>  (1) 
1

>  <PUBCHEM_CACTVS_TAUTO_COUNT>  (1) 
1

>  <PUBCHEM_CONFORMER_ID>  (1) 
00005DFE00000001

>  <PUBCHEM_MMFF94_ENERGY>  (1) 
22.8872

>  <PUBCHEM_FEATURE_SELFOVERLAP>  (1) 
10.148

>  <PUBCHEM_SHAPE_FINGERPRINT>  (1) 
10857977 72 17605579690166301071
11127187 94 10663822983520083145
11137873 295 9439403540594049365
122479 349 18337390427193868189
12251169 10 17967820469714863069
12696612 119 18040727964708248949
13296908 3 10665233669644099670
13618510 140 18343021060304113260
13897977 13 18335708268750233141
14123255 52 18342458157869534856
14123260 362 17632580469781006872
15342168 16 18202010889171049777
15775835 57 18413390955596082312
1741750 31 18201717405486690066
17834072 32 18342458140394649936
18186145 218 18131638876528229974
19107657 9 17847066553607296729
20281475 54 8646475345618767319
20361792 2 12468650425503987683
20645464 45 18189903019897053959
20645477 56 17987522670566262838
21524375 3 18272645740531759663
22646028 28 10665223757123350584
23403322 49 8718835279495235776
27216 239 18409449223616878425
4921388 177 14476673156760853445
90316 7 16950566532639576933
9882013 296 18041286559591166433

>  <PUBCHEM_SHAPE_MULTIPOLES>  (1) 
257.67
7.69
1.88
1.02
7.05
0.04
-0.04
-4.3
-2.12
0.08
0.18
-0.53
-0.01
0.05

>  <PUBCHEM_SHAPE_SELFOVERLAP>  (1) 
512.47

>  <PUBCHEM_SHAPE_VOLUME>  (1) 
152.5

>  <PUBCHEM_COORDINATE_TYPE>  (1) 
2
5
10

$$$$
