24078
     RDKit          3D

 12 13  0  0  1  0  0  0  0  0999 V2000
   -0.1786    0.6609   -1.8529 O   0  0  0  0  0  0  0  0  0  0  0  0
   -0.0789    2.1618    0.5738 O   0  0  0  0  0  0  0  0  0  0  0  0
    2.4851   -0.3414    0.5197 N   0  0  0  0  0  0  0  0  0  0  0  0
   -2.3969   -0.7202    0.5466 N   0  0  0  0  0  0  0  0  0  0  0  0
    3.9324   -0.1917    0.4563 C   0  0  0  0  0  0  0  0  0  0  0  0
    3.2771   -1.5071    0.1516 C   0  0  0  0  0  0  0  0  0  0  0  0
   -3.8527   -0.7577    0.5411 C   0  0  0  0  0  0  0  0  0  0  0  0
   -3.0666   -1.0608   -0.7009 C   0  0  0  0  0  0  0  0  0  0  0  0
    1.8551    0.2436   -0.6558 C   0  0  0  0  0  0  0  0  0  0  0  0
   -1.9173    0.6548    0.5133 C   0  0  0  0  0  0  0  0  0  0  0  0
    0.3272    0.0924   -0.6420 C   0  0  0  0  0  0  0  0  0  0  0  0
   -0.3858    0.7657    0.5493 C   0  0  0  0  0  0  0  0  0  0  0  0
  1 11  1  0
  2 12  1  0
  3  5  1  0
  3  6  1  0
  3  9  1  0
  4  7  1  0
  4  8  1  0
  4 10  1  0
  5  6  1  0
  7  8  1  0
  9 11  1  0
 10 12  1  0
 11 12  1  0
M  END
>  <PUBCHEM_COMPOUND_CID>  (1) 
24078

>  <PUBCHEM_CONFORMER_RMSD>  (1) 
0.6

>  <PUBCHEM_CONFORMER_DIVERSEORDER>  (1) 
1
43
74
63
80
73
76
77
66
83
88
90
78
50
71
51
69
25
8
68
39
44
67
93
17
46
42
38
18
61
24
59
41
64
81
55
35
72
70
32
12
34
23
65
89
60
36
54
58
13
57
3
62
87
86
9
5
85
11
79
37
22
21
92
91
7
16
29
56
82
33
84
19
45
30
20
52
49
75
47
31
4
15
28
6
14
27
26
53
2
40
48
10

>  <PUBCHEM_MMFF94_PARTIAL_CHARGES>  (1) 
22
1 -0.68
10 0.27
11 0.28
12 0.28
13 0.1
14 0.1
15 0.1
16 0.1
17 0.1
18 0.1
19 0.1
2 -0.68
20 0.1
27 0.4
28 0.4
3 -0.59
4 -0.59
5 -0.04
6 -0.04
7 -0.04
8 -0.04
9 0.27

>  <PUBCHEM_EFFECTIVE_ROTOR_COUNT>  (1) 
6.2

>  <PUBCHEM_PHARMACOPHORE_FEATURES>  (1) 
6
1 1 acceptor
1 1 donor
1 2 acceptor
1 2 donor
1 3 cation
1 4 cation

>  <PUBCHEM_HEAVY_ATOM_COUNT>  (1) 
12

>  <PUBCHEM_ATOM_DEF_STEREO_COUNT>  (1) 
0

>  <PUBCHEM_ATOM_UDEF_STEREO_COUNT>  (1) 
2

>  <PUBCHEM_BOND_DEF_STEREO_COUNT>  (1) 
0

>  <PUBCHEM_BOND_UDEF_STEREO_COUNT>  (1) 
0

>  <PUBCHEM_ISOTOPIC_ATOM_COUNT>  (1) 
0

>  <PUBCHEM_COMPONENT_COUNT>  (1) 
1

>  <PUBCHEM_CACTVS_TAUTO_COUNT>  (1) 
1

>  <PUBCHEM_CONFORMER_ID>  (1) 
00005E0E00000001

>  <PUBCHEM_MMFF94_ENERGY>  (1) 
28.232

>  <PUBCHEM_FEATURE_SELFOVERLAP>  (1) 
30.451

>  <PUBCHEM_SHAPE_FINGERPRINT>  (1) 
10726558 24 11241965954185739560
10857977 72 17489595553777911317
10922049 32 10807937093343038933
11769659 78 18334009458850188882
12251169 10 17203608206984765218
124424 183 18412823582316963021
13549 16 14201390577829321418
13705890 14 17095529555522205259
14943859 89 8502652606023880718
15775835 57 10879993544903796411
177051 138 18412548686876897298
18186145 218 13118003300975350262
18380122 1 16988292970921070917
200 152 18186515493233226634
20201158 50 17894631448242544146
20211469 26 18261390023002658434
20653085 51 9439108884352092790
20671657 53 17385444310684183582
20711985 327 17989211477239626561
21293036 1 13984664762820406171
21501925 9 18272087227194723769
21524375 3 10303815367088483833
22485316 2 18413384341214681691
231179 274 11671795835735128699
232386 152 18341622550380648287
23402539 116 17917140603806728681
9882013 296 17203607111915804250

>  <PUBCHEM_SHAPE_MULTIPOLES>  (1) 
225.25
6.7
1.43
1.09
0.89
0.35
-0.44
-3.47
1.41
-0.04
0.17
-0.16
0.13
-0.23

>  <PUBCHEM_SHAPE_SELFOVERLAP>  (1) 
436.21

>  <PUBCHEM_SHAPE_VOLUME>  (1) 
139.9

>  <PUBCHEM_COORDINATE_TYPE>  (1) 
2
5
10

$$$$
