2409
     RDKit          3D

 22 24  0  0  1  0  0  0  0  0999 V2000
    0.0299    2.3073   -1.6481 O   0  0  0  0  0  0  0  0  0  0  0  0
    2.1221    2.8204    0.5599 O   0  0  0  0  0  0  0  0  0  0  0  0
   -1.9091    0.6693    0.1437 N   0  0  0  0  0  0  0  0  0  0  0  0
    0.0506   -0.5878   -0.5545 N   0  0  0  0  0  0  0  0  0  0  0  0
    0.0915    1.8607   -0.3094 C   0  0  0  0  0  0  0  0  0  0  0  0
   -0.8186    2.6931    0.5942 C   0  0  0  0  0  0  0  0  0  0  0  0
   -2.2087    2.0813    0.3950 C   0  0  0  0  0  0  0  0  0  0  0  0
   -0.5872    0.4922   -0.2527 C   0  0  0  0  0  0  0  0  0  0  0  0
    1.5371    1.8330    0.1275 C   0  0  0  0  0  0  0  0  0  0  0  0
    2.2050    0.5126   -0.0559 C   0  0  0  0  0  0  0  0  0  0  0  0
    1.4656   -0.4589   -0.9275 C   0  0  0  0  0  0  0  0  0  0  0  0
   -2.9002   -0.2829    0.1413 C   0  0  0  0  0  0  0  0  0  0  0  0
    3.3678    0.2662    0.5585 C   0  0  0  0  0  0  0  0  0  0  0  0
   -2.6031   -1.6514    0.3318 C   0  0  0  0  0  0  0  0  0  0  0  0
   -4.2553    0.0689   -0.0520 C   0  0  0  0  0  0  0  0  0  0  0  0
    4.1562   -0.9657    0.4907 C   0  0  0  0  0  0  0  0  0  0  0  0
   -3.6090   -2.6180    0.3291 C   0  0  0  0  0  0  0  0  0  0  0  0
   -5.2612   -0.8975   -0.0545 C   0  0  0  0  0  0  0  0  0  0  0  0
   -4.9380   -2.2410    0.1362 C   0  0  0  0  0  0  0  0  0  0  0  0
    4.8014   -1.4453    1.7645 C   0  0  0  0  0  0  0  0  0  0  0  0
    4.2604   -1.5999   -0.6957 C   0  0  0  0  0  0  0  0  0  0  0  0
    5.0028   -2.8566   -1.0221 C   0  0  0  0  0  0  0  0  0  0  0  0
  1  5  1  0
  2  9  2  0
  3  7  1  0
  3  8  1  0
  3 12  1  0
  4  8  2  0
  4 11  1  0
  5  6  1  0
  5  8  1  0
  5  9  1  0
  6  7  1  0
  9 10  1  0
 10 11  1  0
 10 13  2  0
 12 14  2  0
 12 15  1  0
 13 16  1  0
 14 17  1  0
 15 18  2  0
 16 20  1  0
 16 21  2  0
 17 19  2  0
 18 19  1  0
 21 22  1  0
M  END
>  <PUBCHEM_COMPOUND_CID>  (1) 
2409

>  <PUBCHEM_CONFORMER_RMSD>  (1) 
0.6

>  <PUBCHEM_CONFORMER_DIVERSEORDER>  (1) 
1
6
3
4
5
2

>  <PUBCHEM_MMFF94_PARTIAL_CHARGES>  (1) 
29
1 -0.68
10 -0.12
11 0.38
12 0.1
13 -0.15
14 -0.15
15 -0.15
16 -0.14
17 -0.15
18 -0.15
19 -0.15
2 -0.57
20 0.14
21 -0.29
22 0.14
29 0.4
3 -0.52
30 0.15
31 0.15
32 0.15
33 0.15
34 0.15
35 0.15
39 0.15
4 -0.7
5 0.4
7 0.37
8 0.44
9 0.49

>  <PUBCHEM_EFFECTIVE_ROTOR_COUNT>  (1) 
2.8

>  <PUBCHEM_PHARMACOPHORE_FEATURES>  (1) 
9
1 1 acceptor
1 1 donor
1 2 acceptor
1 20 hydrophobe
1 22 hydrophobe
3 3 4 8 cation
5 3 5 6 7 8 rings
6 12 14 15 17 18 19 rings
6 4 5 8 9 10 11 rings

>  <PUBCHEM_HEAVY_ATOM_COUNT>  (1) 
22

>  <PUBCHEM_ATOM_DEF_STEREO_COUNT>  (1) 
0

>  <PUBCHEM_ATOM_UDEF_STEREO_COUNT>  (1) 
1

>  <PUBCHEM_BOND_DEF_STEREO_COUNT>  (1) 
0

>  <PUBCHEM_BOND_UDEF_STEREO_COUNT>  (1) 
2

>  <PUBCHEM_ISOTOPIC_ATOM_COUNT>  (1) 
0

>  <PUBCHEM_COMPONENT_COUNT>  (1) 
1

>  <PUBCHEM_CACTVS_TAUTO_COUNT>  (1) 
1

>  <PUBCHEM_CONFORMER_ID>  (1) 
0000096900000001

>  <PUBCHEM_MMFF94_ENERGY>  (1) 
72.8826

>  <PUBCHEM_FEATURE_SELFOVERLAP>  (1) 
45.768

>  <PUBCHEM_SHAPE_FINGERPRINT>  (1) 
11796584 16 17967524710051849363
12107183 9 18270695177551172217
12363563 72 18410303522571380551
12633257 1 18272102569187332977
12892183 10 17418089880660318840
13140716 1 18343587326067648753
13533116 47 18270120257381413195
13544653 18 18335424616224967089
14178342 30 17915757383090994817
14790565 3 17257935317026974068
14866123 147 18124884456403041065
15042514 8 18268433434075897120
15196674 1 18338799039296761739
15342816 4 18113899338925326658
15352361 1 18411420609105247946
15475509 84 17846234249592463289
17349148 13 18130229362893589423
17492 89 18195250138132749479
17804303 29 18411985728022376541
1813 80 17967817145626441244
18222031 100 18413670218707028558
193927 3 18334864921688139603
20028762 73 18130502032739886495
20403669 9 18409729551679403114
20645477 56 9151167662409922290
20645477 70 18335699515480172867
20681677 274 18411414050705953065
21033648 29 17130971093326379082
21267235 1 18409738378417302203
21279426 13 18335693937013812509
221490 88 18118692255833819851
23557571 272 18129106610923396998
23559900 14 18411695504413425401
3004659 81 18186804686092367934
335352 9 18410858729447697917
3421961 26 18341331197010701368
465052 167 18342182193088159798
5104073 3 18270407217168303619
59755656 215 18195247719833728887
76465 3 18261104175522211962
7970288 3 18409164415551283171
9709674 26 18045785847667880203

>  <PUBCHEM_SHAPE_MULTIPOLES>  (1) 
431.05
10.84
3.39
1.05
0.46
0.55
0.03
-10.96
1.27
0.15
-0.05
1.17
-0.11
0.56

>  <PUBCHEM_SHAPE_SELFOVERLAP>  (1) 
926.977

>  <PUBCHEM_SHAPE_VOLUME>  (1) 
237.1

>  <PUBCHEM_COORDINATE_TYPE>  (1) 
2
5
10

$$$$
