24105
     RDKit          3D

 11 11  0  0  1  0  0  0  0  0999 V2000
    2.2301   -0.6322   -0.1268 P   0  0  0  0  0  0  0  0  0  0  0  0
    1.3188    1.6832   -0.7962 O   0  0  0  0  0  0  0  0  0  0  0  0
    3.6039    0.2317   -0.2548 O   0  0  0  0  0  0  0  0  0  0  0  0
    2.2936   -1.5503    1.0682 O   0  0  0  0  0  0  0  0  0  0  0  0
    1.0300    0.6930    0.1902 C   0  0  0  0  0  0  0  0  0  0  0  0
   -0.4044    0.2981    0.0850 C   0  0  0  0  0  0  0  0  0  0  0  0
   -1.3720    0.9825    0.8208 C   0  0  0  0  0  0  0  0  0  0  0  0
   -0.7786   -0.7554   -0.7493 C   0  0  0  0  0  0  0  0  0  0  0  0
   -2.7135    0.6135    0.7224 C   0  0  0  0  0  0  0  0  0  0  0  0
   -2.1203   -1.1243   -0.8477 C   0  0  0  0  0  0  0  0  0  0  0  0
   -3.0876   -0.4398   -0.1118 C   0  0  0  0  0  0  0  0  0  0  0  0
  1  3  1  0
  1  4  2  0
  1  5  1  0
  2  5  1  0
  5  6  1  0
  6  7  2  0
  6  8  1  0
  7  9  1  0
  8 10  2  0
  9 11  2  0
 10 11  1  0
M  END
>  <PUBCHEM_COMPOUND_CID>  (1) 
24105

>  <PUBCHEM_CONFORMER_RMSD>  (1) 
0.4

>  <PUBCHEM_CONFORMER_DIVERSEORDER>  (1) 
1
7
4
5
3
8
2
6
9

>  <PUBCHEM_MMFF94_PARTIAL_CHARGES>  (1) 
19
1 1.01
10 -0.15
11 -0.15
13 -0.04
14 0.15
15 0.15
16 0.15
17 0.15
18 0.15
19 0.4
2 -0.68
20 0.5
3 -0.77
4 -0.7
5 0.42
6 -0.14
7 -0.15
8 -0.15
9 -0.15

>  <PUBCHEM_EFFECTIVE_ROTOR_COUNT>  (1) 
2

>  <PUBCHEM_PHARMACOPHORE_FEATURES>  (1) 
3
1 2 acceptor
1 2 donor
6 6 7 8 9 10 11 rings

>  <PUBCHEM_HEAVY_ATOM_COUNT>  (1) 
11

>  <PUBCHEM_ATOM_DEF_STEREO_COUNT>  (1) 
0

>  <PUBCHEM_ATOM_UDEF_STEREO_COUNT>  (1) 
0

>  <PUBCHEM_BOND_DEF_STEREO_COUNT>  (1) 
0

>  <PUBCHEM_BOND_UDEF_STEREO_COUNT>  (1) 
0

>  <PUBCHEM_ISOTOPIC_ATOM_COUNT>  (1) 
0

>  <PUBCHEM_COMPONENT_COUNT>  (1) 
1

>  <PUBCHEM_CACTVS_TAUTO_COUNT>  (1) 
2

>  <PUBCHEM_CONFORMER_ID>  (1) 
00005E2900000001

>  <PUBCHEM_MMFF94_ENERGY>  (1) 
12.0834

>  <PUBCHEM_FEATURE_SELFOVERLAP>  (1) 
15.223

>  <PUBCHEM_SHAPE_FINGERPRINT>  (1) 
10857977 72 16845568742690550707
12932764 1 18411134727560494544
14128692 85 18271524294431643108
14144814 61 18343585122558884891
14325111 11 18060424585959300433
14993402 34 18413390916767251573
15310529 11 17967531246606587943
15775835 57 18273221876018513777
16945 1 17917426489086585199
20201158 50 16877944923406335746
20645464 45 15482675680038855751
20653085 51 17821998810097900213
207724 885 18408605833720941615
20871998 184 17203046391256255351
21040471 1 17703525289616991553
22445834 79 18412262817879591691
23402539 116 17060614474326622781
23552423 10 18267018543205011925
29004967 10 17603871087276702104
3248919 1 16443351952942494692
369184 2 18334011675142847899
5084963 1 18411416220001819985
7364860 26 17844807182030486928

>  <PUBCHEM_SHAPE_MULTIPOLES>  (1) 
212.62
4.96
1.41
0.96
1.56
0.01
0.08
-0.62
0.31
-0.04
-0.05
0.19
-0.05
-0.85

>  <PUBCHEM_SHAPE_SELFOVERLAP>  (1) 
423.003

>  <PUBCHEM_SHAPE_VOLUME>  (1) 
126.6

>  <PUBCHEM_COORDINATE_TYPE>  (1) 
2
5
10

$$$$
