24125
     RDKit          3D

 16 15  0  0  1  0  0  0  0  0999 V2000
    2.5333   -0.4885   -1.4458 Cl  0  0  0  0  0  0  0  0  0  0  0  0
    1.7189   -3.0816   -0.4127 Cl  0  0  0  0  0  0  0  0  0  0  0  0
   -0.1342   -1.4718   -1.9472 Cl  0  0  0  0  0  0  0  0  0  0  0  0
   -2.1914    0.0313    0.4050 O   0  0  0  0  0  0  0  0  0  0  0  0
    0.9227   -0.5122    2.8701 O   0  0  0  0  0  0  0  0  0  0  0  0
    1.2076    2.0302   -1.2755 O   0  0  0  0  0  0  0  0  0  0  0  0
   -1.5133    1.4362   -1.2885 O   0  0  0  0  0  0  0  0  0  0  0  0
    1.6603   -0.6893    1.6392 N   0  0  0  0  0  0  0  0  0  0  0  0
    0.0582    0.7592    0.4542 C   0  0  0  0  0  0  0  0  0  0  0  0
    0.6308   -0.6856    0.5823 C   0  0  0  0  0  0  0  0  0  0  0  0
    1.1769   -1.3921   -0.6965 C   0  0  0  0  0  0  0  0  0  0  0  0
    1.0936    1.7624   -0.0789 C   0  0  0  0  0  0  0  0  0  0  0  0
   -1.2846    0.8027   -0.2664 C   0  0  0  0  0  0  0  0  0  0  0  0
    2.0057    2.4204    0.9285 C   0  0  0  0  0  0  0  0  0  0  0  0
   -3.5045   -0.0158   -0.1622 C   0  0  0  0  0  0  0  0  0  0  0  0
   -4.3800   -0.9053    0.6944 C   0  0  0  0  0  0  0  0  0  0  0  0
  1 11  1  0
  2 11  1  0
  3 11  1  0
  4 13  1  0
  4 15  1  0
  5  8  1  0
  6 12  2  0
  7 13  2  0
  8 10  1  0
  9 10  1  0
  9 12  1  0
  9 13  1  0
 10 11  1  0
 12 14  1  0
 15 16  1  0
M  END
>  <PUBCHEM_COMPOUND_CID>  (1) 
24125

>  <PUBCHEM_CONFORMER_RMSD>  (1) 
0.8

>  <PUBCHEM_CONFORMER_DIVERSEORDER>  (1) 
2
91
34
89
68
46
74
105
85
73
76
62
70
37
108
35
90
102
113
92
17
81
26
72
94
33
31
103
104
65
88
112
25
50
100
79
58
7
44
19
55
10
97
77
67
106
114
45
49
101
78
61
86
43
80
47
111
41
82
66
110
69
109
99
11
57
59
18
38
54
95
9
8
116
96
1
64
24
115
29
28
27
16
40
56
51
63
60
75
14
93
32
53
87
3
107
84
13
30
52
36
83
4
48
15
5
42
22
20
98
12
71
39
23
21
6

>  <PUBCHEM_MMFF94_PARTIAL_CHARGES>  (1) 
17
1 -0.29
10 0.27
11 0.87
12 0.45
13 0.66
14 0.06
15 0.28
19 0.36
2 -0.29
25 0.4
3 -0.29
4 -0.43
5 -0.3
6 -0.57
7 -0.57
8 -0.73
9 0.12

>  <PUBCHEM_EFFECTIVE_ROTOR_COUNT>  (1) 
7

>  <PUBCHEM_PHARMACOPHORE_FEATURES>  (1) 
4
1 5 anion
1 6 acceptor
1 7 acceptor
1 9 anion

>  <PUBCHEM_HEAVY_ATOM_COUNT>  (1) 
16

>  <PUBCHEM_ATOM_DEF_STEREO_COUNT>  (1) 
0

>  <PUBCHEM_ATOM_UDEF_STEREO_COUNT>  (1) 
2

>  <PUBCHEM_BOND_DEF_STEREO_COUNT>  (1) 
0

>  <PUBCHEM_BOND_UDEF_STEREO_COUNT>  (1) 
0

>  <PUBCHEM_ISOTOPIC_ATOM_COUNT>  (1) 
0

>  <PUBCHEM_COMPONENT_COUNT>  (1) 
1

>  <PUBCHEM_CACTVS_TAUTO_COUNT>  (1) 
5

>  <PUBCHEM_CONFORMER_ID>  (1) 
00005E3D00000002

>  <PUBCHEM_MMFF94_ENERGY>  (1) 
27.703

>  <PUBCHEM_FEATURE_SELFOVERLAP>  (1) 
20.304

>  <PUBCHEM_SHAPE_FINGERPRINT>  (1) 
1 1 18341895246296525836
12423570 1 14784678253943690752
12532896 13 17768530843201326292
14252887 29 18262252126577174939
14817 1 14510265161187252672
15906896 17 17179126717572905600
16945 1 18117025262866751700
17990270 104 18337953394289982093
18534176 82 16973640647389227782
20600515 1 17467609526127489920
20645477 70 18334009532534727711
20711985 344 17330823626490209761
21061003 4 16124692438037367858
21452121 199 18048030779285825866
21524375 3 17900542590157251181
22344851 341 18129662053152879886
23419403 2 15868519581707509770
23526113 38 17532115854446402954
23557571 272 17837207070065139382
276578 36 17489310853507452321
568465 68 17200784493763785015
7364860 26 18343868826803080649
81228 2 17049082559412763472
81539 233 18116714204234667813

>  <PUBCHEM_SHAPE_MULTIPOLES>  (1) 
306.42
4.57
2.72
1.87
7
0.48
0.85
0.99
0.41
-2.38
-0.37
-0.73
0.04
0.34

>  <PUBCHEM_SHAPE_SELFOVERLAP>  (1) 
565.129

>  <PUBCHEM_SHAPE_VOLUME>  (1) 
191.6

>  <PUBCHEM_COORDINATE_TYPE>  (1) 
2
5
10

$$$$
