24127
     RDKit          3D

 16 17  0  0  0  0  0  0  0  0999 V2000
    0.7646   -1.4346   -0.7557 O   0  0  0  0  0  0  0  0  0  0  0  0
   -1.3450   -2.7569    0.5262 O   0  0  0  0  0  0  0  0  0  0  0  0
    0.7102    0.8351    0.0337 C   0  0  0  0  0  0  0  0  0  0  0  0
   -0.7362    0.8609    0.0049 C   0  0  0  0  0  0  0  0  0  0  0  0
    1.4152   -0.3081   -0.3469 C   0  0  0  0  0  0  0  0  0  0  0  0
    1.4041    1.9731    0.4489 C   0  0  0  0  0  0  0  0  0  0  0  0
    2.8096   -0.3132   -0.3125 C   0  0  0  0  0  0  0  0  0  0  0  0
   -1.4037    1.2711   -1.1492 C   0  0  0  0  0  0  0  0  0  0  0  0
   -1.4631    0.4753    1.1311 C   0  0  0  0  0  0  0  0  0  0  0  0
    2.7986    1.9677    0.4834 C   0  0  0  0  0  0  0  0  0  0  0  0
    0.9870   -2.6211    0.0026 C   0  0  0  0  0  0  0  0  0  0  0  0
    3.5014    0.8246    0.1028 C   0  0  0  0  0  0  0  0  0  0  0  0
   -2.7981    1.2959   -1.1769 C   0  0  0  0  0  0  0  0  0  0  0  0
   -2.8575    0.4999    1.1034 C   0  0  0  0  0  0  0  0  0  0  0  0
   -0.2618   -3.4803   -0.0452 C   0  0  0  0  0  0  0  0  0  0  0  0
   -3.5250    0.9103   -0.0507 C   0  0  0  0  0  0  0  0  0  0  0  0
  1  5  1  0
  1 11  1  0
  2 15  1  0
  3  4  1  0
  3  5  2  0
  3  6  1  0
  4  8  2  0
  4  9  1  0
  5  7  1  0
  6 10  2  0
  7 12  2  0
  8 13  1  0
  9 14  2  0
 10 12  1  0
 11 15  1  0
 13 16  2  0
 14 16  1  0
M  END
>  <PUBCHEM_COMPOUND_CID>  (1) 
24127

>  <PUBCHEM_CONFORMER_RMSD>  (1) 
0.6

>  <PUBCHEM_CONFORMER_DIVERSEORDER>  (1) 
2
9
19
16
14
12
25
23
8
24
10
22
26
1
13
7
17
20
21
15
5
11
3
18
6
4

>  <PUBCHEM_MMFF94_PARTIAL_CHARGES>  (1) 
24
1 -0.36
10 -0.15
11 0.28
12 -0.15
13 -0.15
14 -0.15
15 0.28
16 -0.15
17 0.15
18 0.15
19 0.15
2 -0.68
20 0.15
23 0.15
24 0.15
25 0.15
26 0.15
29 0.15
30 0.4
5 0.08
6 -0.15
7 -0.15
8 -0.15
9 -0.15

>  <PUBCHEM_EFFECTIVE_ROTOR_COUNT>  (1) 
4

>  <PUBCHEM_PHARMACOPHORE_FEATURES>  (1) 
5
1 1 acceptor
1 2 acceptor
1 2 donor
6 3 5 6 7 10 12 rings
6 4 8 9 13 14 16 rings

>  <PUBCHEM_HEAVY_ATOM_COUNT>  (1) 
16

>  <PUBCHEM_ATOM_DEF_STEREO_COUNT>  (1) 
0

>  <PUBCHEM_ATOM_UDEF_STEREO_COUNT>  (1) 
0

>  <PUBCHEM_BOND_DEF_STEREO_COUNT>  (1) 
0

>  <PUBCHEM_BOND_UDEF_STEREO_COUNT>  (1) 
0

>  <PUBCHEM_ISOTOPIC_ATOM_COUNT>  (1) 
0

>  <PUBCHEM_COMPONENT_COUNT>  (1) 
1

>  <PUBCHEM_CACTVS_TAUTO_COUNT>  (1) 
1

>  <PUBCHEM_CONFORMER_ID>  (1) 
00005E3F00000002

>  <PUBCHEM_MMFF94_ENERGY>  (1) 
54.7589

>  <PUBCHEM_FEATURE_SELFOVERLAP>  (1) 
25.375

>  <PUBCHEM_SHAPE_FINGERPRINT>  (1) 
104564 63 17620203460576225582
11578080 2 12150404704616648369
11680611 10 17900235779668959152
12326174 3 18057889039268348820
12553582 1 17259350964206956267
12730499 353 18263359205948311021
13132413 78 15963437504266668997
13140716 1 18341327894497297056
15207287 21 18040715844474017905
15219456 202 18188772743102272461
15309172 13 18410858767269193889
15502708 68 18411983516161386624
15852999 172 17967812696019236081
16945 1 18340207388626545520
17357779 13 17695054892307257191
18186145 218 18272934916553572012
19049666 15 17900823743269741157
19930374 2 18261957478366243395
20388701 513 17693093385116749026
20645477 70 18055907706873436469
20871998 184 18115880761730876089
21160774 45 18193273220325017351
2334 1 18196654214311743924
23557571 272 17386018208942064245
23598291 2 17556865719801983425
238 59 18119502398387528807
25 1 18340767048503207876
257057 1 17112963076927165294
2748010 2 18339937020540621022
2871803 45 18269538577107256463
33824 294 18409730625869171763
350125 39 17476078403098936760
4340502 62 18271816739551296225
495365 180 18194096561398323853
6338986 31 17258483453711291103
7364860 26 18121776123655896507
77492 1 17203605960817511829
81228 2 17831857224167015042
8272917 22 18198628722805885749

>  <PUBCHEM_SHAPE_MULTIPOLES>  (1) 
317.53
5.03
3.23
1.02
0.55
4.06
-0.02
-2.85
0.09
-0.61
0.14
0.64
-0.25
0.67

>  <PUBCHEM_SHAPE_SELFOVERLAP>  (1) 
678.121

>  <PUBCHEM_SHAPE_VOLUME>  (1) 
176.5

>  <PUBCHEM_COORDINATE_TYPE>  (1) 
2
5
10

$$$$
