24122
     RDKit          3D

 21 25  0  0  0  0  0  0  0  0999 V2000
    1.7585   -0.7981   -0.0379 C   0  0  0  0  0  0  0  0  0  0  0  0
   -0.5074    0.1412   -0.0012 C   0  0  0  0  0  0  0  0  0  0  0  0
    0.3429   -0.9919   -0.0527 C   0  0  0  0  0  0  0  0  0  0  0  0
    2.3069    0.5077   -0.0312 C   0  0  0  0  0  0  0  0  0  0  0  0
    2.7098   -1.9792   -0.1175 C   0  0  0  0  0  0  0  0  0  0  0  0
   -1.9226   -0.0079    0.0032 C   0  0  0  0  0  0  0  0  0  0  0  0
    0.0448    1.4396    0.0396 C   0  0  0  0  0  0  0  0  0  0  0  0
    4.0870   -1.7025    0.4833 C   0  0  0  0  0  0  0  0  0  0  0  0
    1.4351    1.6044    0.0145 C   0  0  0  0  0  0  0  0  0  0  0  0
    3.7794    0.7071   -0.0841 C   0  0  0  0  0  0  0  0  0  0  0  0
   -2.5015   -1.2943   -0.0544 C   0  0  0  0  0  0  0  0  0  0  0  0
   -2.7636    1.1297    0.0621 C   0  0  0  0  0  0  0  0  0  0  0  0
   -0.2767   -2.2592   -0.1244 C   0  0  0  0  0  0  0  0  0  0  0  0
    4.5906   -0.3339    0.1674 C   0  0  0  0  0  0  0  0  0  0  0  0
   -0.8030    2.5546    0.0963 C   0  0  0  0  0  0  0  0  0  0  0  0
   -1.6658   -2.4093   -0.1221 C   0  0  0  0  0  0  0  0  0  0  0  0
   -2.1884    2.4028    0.1103 C   0  0  0  0  0  0  0  0  0  0  0  0
    4.3472    2.0643   -0.3869 C   0  0  0  0  0  0  0  0  0  0  0  0
   -3.8978   -1.4312   -0.0479 C   0  0  0  0  0  0  0  0  0  0  0  0
   -4.1564    0.9644    0.0689 C   0  0  0  0  0  0  0  0  0  0  0  0
   -4.7190   -0.3083    0.0147 C   0  0  0  0  0  0  0  0  0  0  0  0
  1  3  1  0
  1  4  2  0
  1  5  1  0
  2  3  2  0
  2  6  1  0
  2  7  1  0
  3 13  1  0
  4  9  1  0
  4 10  1  0
  5  8  1  0
  6 11  2  0
  6 12  1  0
  7  9  2  0
  7 15  1  0
  8 14  1  0
 10 14  2  0
 10 18  1  0
 11 16  1  0
 11 19  1  0
 12 17  1  0
 12 20  2  0
 13 16  2  0
 15 17  2  0
 19 21  2  0
 20 21  1  0
M  END
>  <PUBCHEM_COMPOUND_CID>  (1) 
24122

>  <PUBCHEM_CONFORMER_RMSD>  (1) 
0.6

>  <PUBCHEM_CONFORMER_DIVERSEORDER>  (1) 
1

>  <PUBCHEM_MMFF94_PARTIAL_CHARGES>  (1) 
24
1 -0.14
10 -0.17
13 -0.15
14 -0.29
15 -0.15
16 -0.15
17 -0.15
18 0.14
19 -0.15
20 -0.15
21 -0.15
26 0.15
27 0.15
28 0.15
29 0.15
30 0.15
31 0.15
35 0.15
36 0.15
37 0.15
4 0.03
5 0.14
8 0.14
9 -0.15

>  <PUBCHEM_EFFECTIVE_ROTOR_COUNT>  (1) 
0.4

>  <PUBCHEM_PHARMACOPHORE_FEATURES>  (1) 
5
6 1 2 3 4 7 9 rings
6 1 4 5 8 10 14 rings
6 2 3 6 11 13 16 rings
6 2 6 7 12 15 17 rings
6 6 11 12 19 20 21 rings

>  <PUBCHEM_HEAVY_ATOM_COUNT>  (1) 
21

>  <PUBCHEM_ATOM_DEF_STEREO_COUNT>  (1) 
0

>  <PUBCHEM_ATOM_UDEF_STEREO_COUNT>  (1) 
0

>  <PUBCHEM_BOND_DEF_STEREO_COUNT>  (1) 
0

>  <PUBCHEM_BOND_UDEF_STEREO_COUNT>  (1) 
0

>  <PUBCHEM_ISOTOPIC_ATOM_COUNT>  (1) 
0

>  <PUBCHEM_COMPONENT_COUNT>  (1) 
1

>  <PUBCHEM_CACTVS_TAUTO_COUNT>  (1) 
1

>  <PUBCHEM_CONFORMER_ID>  (1) 
00005E3A00000001

>  <PUBCHEM_MMFF94_ENERGY>  (1) 
70.3455

>  <PUBCHEM_FEATURE_SELFOVERLAP>  (1) 
25.523

>  <PUBCHEM_SHAPE_FINGERPRINT>  (1) 
10062212 137 18412256246669357919
10411042 1 16897647390641426262
10616163 171 18411703226986215198
10759866 29 18260275174362926396
10906281 52 18341348725257448405
10967382 1 18411419518183145485
11578080 2 17314211294643439148
12011746 2 18412261744380205053
12107183 9 17760363293300151184
12236239 1 17894911824171382554
12403259 226 18339073800818160712
12403260 363 18339354150275627763
12403814 3 17749103405089280293
12553582 1 18340199816445929582
12788726 201 17917442998709406264
13140716 1 18338524036482351571
13224815 77 18411421695947913852
138480 1 15384718681624291849
13862211 1 18411695500387671783
14787075 74 18262518203384070051
14790565 3 18340495443910365937
15042514 8 18410576231810432203
15196674 1 18410573989467517447
15256400 18 18339922598093240506
15442244 35 18337670802780296378
15536298 74 18413671301181029878
16945 1 18267580393472686561
17492 89 18409730621353470482
17804303 29 18342176678212774097
1813 80 17313104159206041316
19591789 44 18338797810282266666
200 152 18130781270512232717
20028762 73 17987235711233911871
20510252 161 18271807874032181817
20715895 44 18046619011025255997
21029758 11 18342452673338742201
21267235 1 18410301293736704434
21421861 104 18115019689360182562
21501502 16 18410856542860873000
2334 1 18411419505351004127
23402539 116 18343012298850326687
23463225 33 18409449184793159620
23559900 14 18198622142894908870
2748010 2 18411417328282613549
3004659 81 18260829289521179310
335352 9 18266740181879105143
34934 24 18339639061453080486
350125 39 18410011018762095552
4214541 1 18338234864813664712
4409770 3 16527212534339012550
474 4 17531535398902609092
5104073 3 18410576179900858849
6034566 193 15941786853775551956
69090 78 18412260618866801027
7097593 13 17754443557061906858
9709674 26 18340493278988171518
9981440 41 17324365593859281344

>  <PUBCHEM_SHAPE_MULTIPOLES>  (1) 
432.17
8.7
2.88
0.64
2.19
0.21
0
-0.12
0.15
0.01
-0.04
0.08
-0.01
-0.42

>  <PUBCHEM_SHAPE_SELFOVERLAP>  (1) 
1001.771

>  <PUBCHEM_SHAPE_VOLUME>  (1) 
202.1

>  <PUBCHEM_COORDINATE_TYPE>  (1) 
2
5
10

$$$$
