24129
     RDKit          3D

 10  9  0  0  0  0  0  0  0  0999 V2000
    3.1363    0.1621   -1.1893 O   0  0  0  0  0  0  0  0  0  0  0  0
    1.8200    0.1175    0.7316 N   0  0  0  0  0  0  0  0  0  0  0  0
   -1.1684    0.3085    0.4492 C   0  0  0  0  0  0  0  0  0  0  0  0
   -2.4768    0.2274   -0.3412 C   0  0  0  0  0  0  0  0  0  0  0  0
   -0.1544    1.2186   -0.2522 C   0  0  0  0  0  0  0  0  0  0  0  0
   -3.5381   -0.6465    0.3305 C   0  0  0  0  0  0  0  0  0  0  0  0
    1.1410    1.3695    0.5394 C   0  0  0  0  0  0  0  0  0  0  0  0
   -4.8638   -0.6735   -0.4144 C   0  0  0  0  0  0  0  0  0  0  0  0
    2.7655   -0.3838   -0.1534 C   0  0  0  0  0  0  0  0  0  0  0  0
    3.3387   -1.6998    0.3000 C   0  0  0  0  0  0  0  0  0  0  0  0
  1  9  2  0
  2  7  1  0
  2  9  1  0
  3  4  1  0
  3  5  1  0
  4  6  1  0
  5  7  1  0
  6  8  1  0
  9 10  1  0
M  END
>  <PUBCHEM_COMPOUND_CID>  (1) 
24129

>  <PUBCHEM_CONFORMER_RMSD>  (1) 
0.6

>  <PUBCHEM_CONFORMER_DIVERSEORDER>  (1) 
1
93
10
78
88
37
25
91
22
86
21
96
38
97
4
85
70
73
63
15
83
89
40
28
87
95
6
42
62
9
77
56
92
36
58
3
66
17
98
7
51
53
26
71
43
23
75
41
47
50
5
2
46
48
54
61
79
14
44
90
57
24
33
11
94
45
64
29
18
8
59
68
39
31
84
30
27
72
60
55
69
49
74
52
35
13
76
67
20
81
32
80
82
19
34
12
65
16

>  <PUBCHEM_MMFF94_PARTIAL_CHARGES>  (1) 
6
1 -0.57
10 0.06
2 -0.73
24 0.37
7 0.3
9 0.57

>  <PUBCHEM_EFFECTIVE_ROTOR_COUNT>  (1) 
6

>  <PUBCHEM_PHARMACOPHORE_FEATURES>  (1) 
4
1 1 acceptor
1 2 donor
1 8 hydrophobe
4 3 4 5 6 hydrophobe

>  <PUBCHEM_HEAVY_ATOM_COUNT>  (1) 
10

>  <PUBCHEM_ATOM_DEF_STEREO_COUNT>  (1) 
0

>  <PUBCHEM_ATOM_UDEF_STEREO_COUNT>  (1) 
0

>  <PUBCHEM_BOND_DEF_STEREO_COUNT>  (1) 
0

>  <PUBCHEM_BOND_UDEF_STEREO_COUNT>  (1) 
0

>  <PUBCHEM_ISOTOPIC_ATOM_COUNT>  (1) 
0

>  <PUBCHEM_COMPONENT_COUNT>  (1) 
1

>  <PUBCHEM_CACTVS_TAUTO_COUNT>  (1) 
2

>  <PUBCHEM_CONFORMER_ID>  (1) 
00005E4100000001

>  <PUBCHEM_MMFF94_ENERGY>  (1) 
-0.0781

>  <PUBCHEM_FEATURE_SELFOVERLAP>  (1) 
20.297

>  <PUBCHEM_SHAPE_FINGERPRINT>  (1) 
10149128 111 8286195071878854518
122479 349 9871451136969958108
14251717 144 18412261722937555967
14252887 29 17489872626734916470
14390081 3 8430322341945497489
177051 138 17561366205625199213
18186145 218 15357987741175781773
20281407 28 18410294718088702065
20645477 70 18412541037592832383
20671657 53 18411700984876292481
20724930 37 11815904439705097909
20767249 442 10881405339387649558
20871998 22 17846222103281933172
21119208 17 15936411130298346267
21293036 1 17022904574977390641
22485316 2 18411978074617125095
42 15 15482678974352618391
94968 8 18410857667915672162

>  <PUBCHEM_SHAPE_MULTIPOLES>  (1) 
194.94
8.32
1.38
0.86
6.34
0.1
-0.08
4.3
-1.14
-0.89
0.13
-0.32
-0.05
-0.12

>  <PUBCHEM_SHAPE_SELFOVERLAP>  (1) 
348.951

>  <PUBCHEM_SHAPE_VOLUME>  (1) 
126.3

>  <PUBCHEM_COORDINATE_TYPE>  (1) 
2
5
10

$$$$
