24135
     RDKit          3D

 13 13  0  0  0  0  0  0  0  0999 V2000
   -3.2222    0.4916   -0.0355 O   0  0  0  0  0  0  0  0  0  0  0  0
    1.1524    2.3753    0.0249 O   0  0  0  0  0  0  0  0  0  0  0  0
    0.5714   -2.3888    0.0426 O   0  0  0  0  0  0  0  0  0  0  0  0
    2.9705   -0.2587    1.1322 O   0  0  0  0  0  0  0  0  0  0  0  0
    0.8977   -0.0113    0.0341 C   0  0  0  0  0  0  0  0  0  0  0  0
    0.3517    1.2723    0.0181 C   0  0  0  0  0  0  0  0  0  0  0  0
    0.0590   -1.1260    0.0270 C   0  0  0  0  0  0  0  0  0  0  0  0
   -1.8714    0.3266   -0.0121 C   0  0  0  0  0  0  0  0  0  0  0  0
   -1.0328    1.4411   -0.0050 C   0  0  0  0  0  0  0  0  0  0  0  0
   -1.3255   -0.9569    0.0040 C   0  0  0  0  0  0  0  0  0  0  0  0
    2.3452   -0.1874    0.0578 C   0  0  0  0  0  0  0  0  0  0  0  0
    3.1247   -0.2871   -1.2464 C   0  0  0  0  0  0  0  0  0  0  0  0
   -4.0207   -0.6907   -0.0416 C   0  0  0  0  0  0  0  0  0  0  0  0
  1  8  1  0
  1 13  1  0
  2  6  1  0
  3  7  1  0
  4 11  2  0
  5  6  2  0
  5  7  1  0
  5 11  1  0
  6  9  1  0
  7 10  2  0
  8  9  2  0
  8 10  1  0
 11 12  1  0
M  END
>  <PUBCHEM_COMPOUND_CID>  (1) 
24135

>  <PUBCHEM_CONFORMER_RMSD>  (1) 
0.6

>  <PUBCHEM_CONFORMER_DIVERSEORDER>  (1) 
1
2
3

>  <PUBCHEM_MMFF94_PARTIAL_CHARGES>  (1) 
17
1 -0.36
10 -0.15
11 0.42
12 0.06
13 0.28
14 0.15
15 0.15
19 0.45
2 -0.53
20 0.45
3 -0.53
4 -0.57
5 0.09
6 0.08
7 0.08
8 0.08
9 -0.15

>  <PUBCHEM_EFFECTIVE_ROTOR_COUNT>  (1) 
2

>  <PUBCHEM_PHARMACOPHORE_FEATURES>  (1) 
5
1 1 acceptor
1 2 donor
1 3 donor
1 4 acceptor
6 5 6 7 8 9 10 rings

>  <PUBCHEM_HEAVY_ATOM_COUNT>  (1) 
13

>  <PUBCHEM_ATOM_DEF_STEREO_COUNT>  (1) 
0

>  <PUBCHEM_ATOM_UDEF_STEREO_COUNT>  (1) 
0

>  <PUBCHEM_BOND_DEF_STEREO_COUNT>  (1) 
0

>  <PUBCHEM_BOND_UDEF_STEREO_COUNT>  (1) 
0

>  <PUBCHEM_ISOTOPIC_ATOM_COUNT>  (1) 
0

>  <PUBCHEM_COMPONENT_COUNT>  (1) 
1

>  <PUBCHEM_CACTVS_TAUTO_COUNT>  (1) 
12

>  <PUBCHEM_CONFORMER_ID>  (1) 
00005E4700000001

>  <PUBCHEM_MMFF94_ENERGY>  (1) 
47.293

>  <PUBCHEM_FEATURE_SELFOVERLAP>  (1) 
25.371

>  <PUBCHEM_SHAPE_FINGERPRINT>  (1) 
10219947 1 18410854356448219371
10353120 184 18411705369736942221
11206711 2 18335701598724155581
11543360 7 15791738554647362731
12032990 46 18412833464477704351
13380535 76 18053095417705968904
13380536 305 18337958994600457364
14911166 2 18410016545778285959
14993402 34 18335990825952967180
16945 1 18410573968208965289
19026448 4 16415478233819674105
19026448 5 16298385743035499717
193761 8 17762055845021316435
20201158 50 18335137579550555115
20511035 2 18119534490019244959
20645476 183 17676783066400885886
20645477 70 18341608278768787335
21293036 1 18336555974961331580
21501502 16 18051969522009424775
2334 1 17978228584449203859
23402539 116 18343012273207006542
23402655 69 18195227933805665269
23463225 33 18261950735235946602
23552423 10 17972319787233647620
23559900 14 18341905095711343406
2748010 2 18121218937727850055
5084963 1 18059862765571696073
528886 8 18410853274005762475
53812653 11 18340208582537646927
53812653 166 18270391694565956889
7364860 26 18057326291300281088

>  <PUBCHEM_SHAPE_MULTIPOLES>  (1) 
244.06
5.11
1.84
0.79
2.48
0.21
0.05
-0.82
0.43
-0.22
-0.05
-0.61
-0.06
0.03

>  <PUBCHEM_SHAPE_SELFOVERLAP>  (1) 
511.247

>  <PUBCHEM_SHAPE_VOLUME>  (1) 
139.6

>  <PUBCHEM_COORDINATE_TYPE>  (1) 
2
5
10

$$$$
