24136
     RDKit          3D

 25 26  0  0  0  0  0  0  0  0999 V2000
    0.1857   -1.5478    2.4403 S   0  0  0  0  0  0  0  0  0  0  0  0
    0.0279   -1.6618    0.4977 P   0  0  0  0  0  0  0  0  0  0  0  0
   -1.4824   -1.8165   -0.0888 O   0  0  0  0  0  0  0  0  0  0  0  0
    0.5897   -0.4171   -0.3764 O   0  0  0  0  0  0  0  0  0  0  0  0
    0.7649   -2.9244   -0.2197 O   0  0  0  0  0  0  0  0  0  0  0  0
   -5.2663    3.1537    0.5127 O   0  0  0  0  0  0  0  0  0  0  0  0
    6.6295    1.1393    0.3156 O   0  0  0  0  0  0  0  0  0  0  0  0
   -6.6232    1.7590   -0.5037 O   0  0  0  0  0  0  0  0  0  0  0  0
    5.8004    3.0792   -0.2914 O   0  0  0  0  0  0  0  0  0  0  0  0
   -5.5055    2.0360   -0.0051 N   0  0  0  0  0  0  0  0  0  0  0  0
    5.6615    1.8606   -0.0265 N   0  0  0  0  0  0  0  0  0  0  0  0
   -2.4656   -0.8754   -0.0680 C   0  0  0  0  0  0  0  0  0  0  0  0
    1.8354    0.1425   -0.2900 C   0  0  0  0  0  0  0  0  0  0  0  0
    0.2995   -4.2421    0.0186 C   0  0  0  0  0  0  0  0  0  0  0  0
   -2.2221    0.3751    0.5001 C   0  0  0  0  0  0  0  0  0  0  0  0
    2.9204   -0.6431    0.0854 C   0  0  0  0  0  0  0  0  0  0  0  0
   -3.7160   -1.1610   -0.6159 C   0  0  0  0  0  0  0  0  0  0  0  0
    2.0071    1.4923   -0.5797 C   0  0  0  0  0  0  0  0  0  0  0  0
   -4.4796    1.0545   -0.0277 C   0  0  0  0  0  0  0  0  0  0  0  0
    4.3689    1.2797   -0.1172 C   0  0  0  0  0  0  0  0  0  0  0  0
   -3.2292    1.3400    0.5202 C   0  0  0  0  0  0  0  0  0  0  0  0
    4.1905   -0.0730    0.1721 C   0  0  0  0  0  0  0  0  0  0  0  0
   -4.7231   -0.1961   -0.5959 C   0  0  0  0  0  0  0  0  0  0  0  0
    3.2772    2.0625   -0.4931 C   0  0  0  0  0  0  0  0  0  0  0  0
    1.1545   -5.2161   -0.7636 C   0  0  0  0  0  0  0  0  0  0  0  0
  1  2  2  0
  2  3  1  0
  2  4  1  0
  2  5  1  0
  3 12  1  0
  4 13  1  0
  5 14  1  0
  6 10  1  0
  7 11  1  0
  8 10  2  0
  9 11  2  0
 10 19  1  0
 11 20  1  0
 12 15  2  0
 12 17  1  0
 13 16  2  0
 13 18  1  0
 14 25  1  0
 15 21  1  0
 16 22  1  0
 17 23  2  0
 18 24  2  0
 19 21  2  0
 19 23  1  0
 20 22  2  0
 20 24  1  0
M  CHG  4   6  -1   7  -1  10   1  11   1
M  END
>  <PUBCHEM_COMPOUND_CID>  (1) 
24136

>  <PUBCHEM_CONFORMER_RMSD>  (1) 
0.8

>  <PUBCHEM_CONFORMER_DIVERSEORDER>  (1) 
1
27
3
19
25
26
24
16
18
21
13
31
11
2
10
17
20
8
15
7
12
23
29
9
22
14
5
6
4
28
30

>  <PUBCHEM_MMFF94_PARTIAL_CHARGES>  (1) 
32
1 -0.68
10 0.91
11 0.91
12 0.08
13 0.08
14 0.28
15 -0.15
16 -0.15
17 -0.15
18 -0.15
19 0.13
2 1.49
20 0.13
21 -0.15
22 -0.15
23 -0.15
24 -0.15
28 0.15
29 0.15
3 -0.35
30 0.15
31 0.15
32 0.15
33 0.15
34 0.15
35 0.15
4 -0.35
5 -0.55
6 -0.52
7 -0.52
8 -0.52
9 -0.52

>  <PUBCHEM_EFFECTIVE_ROTOR_COUNT>  (1) 
8

>  <PUBCHEM_PHARMACOPHORE_FEATURES>  (1) 
8
1 6 acceptor
1 6 anion
1 7 acceptor
1 7 anion
1 8 acceptor
1 9 acceptor
6 12 15 17 19 21 23 rings
6 13 16 18 20 22 24 rings

>  <PUBCHEM_HEAVY_ATOM_COUNT>  (1) 
25

>  <PUBCHEM_ATOM_DEF_STEREO_COUNT>  (1) 
0

>  <PUBCHEM_ATOM_UDEF_STEREO_COUNT>  (1) 
0

>  <PUBCHEM_BOND_DEF_STEREO_COUNT>  (1) 
0

>  <PUBCHEM_BOND_UDEF_STEREO_COUNT>  (1) 
0

>  <PUBCHEM_ISOTOPIC_ATOM_COUNT>  (1) 
0

>  <PUBCHEM_COMPONENT_COUNT>  (1) 
1

>  <PUBCHEM_CACTVS_TAUTO_COUNT>  (1) 
1

>  <PUBCHEM_CONFORMER_ID>  (1) 
00005E4800000001

>  <PUBCHEM_MMFF94_ENERGY>  (1) 
67.3004

>  <PUBCHEM_FEATURE_SELFOVERLAP>  (1) 
40.761

>  <PUBCHEM_SHAPE_FINGERPRINT>  (1) 
10382601 240 17894908469332582107
10411042 1 17473544642449916831
10906281 52 17968388935176763732
11763715 3 16892879890779516926
12107183 9 18334846222281338714
12293681 160 17918278666279719584
12633257 1 15068632607942655065
12788726 201 17830443243798756674
13103583 49 11098125631311202567
13590594 115 17402063192609555547
14251764 30 9295291633768011336
14790565 3 18410013268961325772
15238133 3 17967822686614755700
15420108 30 18337659880467888286
15439362 3 18339925896607414742
15664445 248 17840879473172752550
167882 2 18411422774402274566
20238998 120 17546163005008972630
20554085 129 18130488782828023066
21033648 144 18040988549328191127
21033648 29 18270954769274098104
22950370 63 9151179761496124014
23522609 53 17559404561740661121
23559900 14 18123468272790204163
244849 19 17898882096093095395
2838139 119 18341046414925412668
3380486 145 17183917306920750627
38695281 34 18410854352064152879
4017518 198 17988926653170562566
474 4 18335139756972354251
5104073 3 18040152915890042419
5385378 56 18338804394556581547
59755656 215 18266183833290489334
59755656 520 18335695096196364934
6328613 192 18042974358066236476
77188 2 17546165199452599830
9981440 41 18409172146755595259

>  <PUBCHEM_SHAPE_MULTIPOLES>  (1) 
471.14
13.63
4.79
1.05
0.83
6.31
0.7
-17.48
-1.36
-1.54
-0.9
0.1
0.56
-0.5

>  <PUBCHEM_SHAPE_SELFOVERLAP>  (1) 
968.19

>  <PUBCHEM_SHAPE_VOLUME>  (1) 
273.7

>  <PUBCHEM_COORDINATE_TYPE>  (1) 
2
5
10

$$$$
