24131
     RDKit          3D

 22 23  0  0  0  0  0  0  0  0999 V2000
   -0.8754    0.6113    0.6786 O   0  0  0  0  0  0  0  0  0  0  0  0
   -3.8752   -2.0655    1.4440 O   0  0  0  0  0  0  0  0  0  0  0  0
    2.2640    3.1999    0.4044 O   0  0  0  0  0  0  0  0  0  0  0  0
    0.1186    2.8701    0.7318 O   0  0  0  0  0  0  0  0  0  0  0  0
   -2.7270   -0.3880    2.4611 O   0  0  0  0  0  0  0  0  0  0  0  0
    4.4085   -2.5525   -0.5127 O   0  0  0  0  0  0  0  0  0  0  0  0
    5.2029   -0.5072   -0.4484 O   0  0  0  0  0  0  0  0  0  0  0  0
    1.2721    2.4387    0.4969 N   0  0  0  0  0  0  0  0  0  0  0  0
    4.2480   -1.3168   -0.3662 N   0  0  0  0  0  0  0  0  0  0  0  0
    0.4040    0.1509    0.4208 C   0  0  0  0  0  0  0  0  0  0  0  0
    1.4617    1.0393    0.3293 C   0  0  0  0  0  0  0  0  0  0  0  0
   -1.8391    0.3535   -0.2501 C   0  0  0  0  0  0  0  0  0  0  0  0
    0.5882   -1.2123    0.2578 C   0  0  0  0  0  0  0  0  0  0  0  0
    2.7417    0.5508    0.0673 C   0  0  0  0  0  0  0  0  0  0  0  0
    2.9449   -0.8191   -0.0995 C   0  0  0  0  0  0  0  0  0  0  0  0
   -2.9724   -0.3892    0.0812 C   0  0  0  0  0  0  0  0  0  0  0  0
    1.8682   -1.7006   -0.0042 C   0  0  0  0  0  0  0  0  0  0  0  0
   -1.6813    0.8443   -1.5464 C   0  0  0  0  0  0  0  0  0  0  0  0
   -3.9479   -0.6408   -0.8836 C   0  0  0  0  0  0  0  0  0  0  0  0
   -2.6569    0.5928   -2.5110 C   0  0  0  0  0  0  0  0  0  0  0  0
   -3.7901   -0.1498   -2.1797 C   0  0  0  0  0  0  0  0  0  0  0  0
   -3.1574   -0.9098    1.4286 C   0  0  0  0  0  0  0  0  0  0  0  0
  1 10  1  0
  1 12  1  0
  2 22  1  0
  3  8  1  0
  4  8  2  0
  5 22  2  0
  6  9  1  0
  7  9  2  0
  8 11  1  0
  9 15  1  0
 10 11  2  0
 10 13  1  0
 11 14  1  0
 12 16  2  0
 12 18  1  0
 13 17  2  0
 14 15  2  0
 15 17  1  0
 16 19  1  0
 16 22  1  0
 18 20  2  0
 19 21  2  0
 20 21  1  0
M  CHG  4   3  -1   6  -1   8   1   9   1
M  END
>  <PUBCHEM_COMPOUND_CID>  (1) 
24131

>  <PUBCHEM_CONFORMER_RMSD>  (1) 
0.8

>  <PUBCHEM_CONFORMER_DIVERSEORDER>  (1) 
2
8
3
4
7
5
6
1

>  <PUBCHEM_MMFF94_PARTIAL_CHARGES>  (1) 
30
1 -0.17
10 0.08
11 0.13
12 0.08
13 -0.15
14 -0.15
15 0.13
16 0.09
17 -0.15
18 -0.15
19 -0.15
2 -0.65
20 -0.15
21 -0.15
22 0.63
23 0.15
24 0.15
25 0.15
26 0.15
27 0.15
28 0.15
29 0.15
3 -0.52
30 0.5
4 -0.52
5 -0.57
6 -0.52
7 -0.52
8 0.91
9 0.91

>  <PUBCHEM_EFFECTIVE_ROTOR_COUNT>  (1) 
5

>  <PUBCHEM_PHARMACOPHORE_FEATURES>  (1) 
12
1 1 acceptor
1 2 acceptor
1 3 acceptor
1 3 anion
1 4 acceptor
1 5 acceptor
1 6 acceptor
1 6 anion
1 7 acceptor
3 2 5 22 anion
6 10 11 13 14 15 17 rings
6 12 16 18 19 20 21 rings

>  <PUBCHEM_HEAVY_ATOM_COUNT>  (1) 
22

>  <PUBCHEM_ATOM_DEF_STEREO_COUNT>  (1) 
0

>  <PUBCHEM_ATOM_UDEF_STEREO_COUNT>  (1) 
0

>  <PUBCHEM_BOND_DEF_STEREO_COUNT>  (1) 
0

>  <PUBCHEM_BOND_UDEF_STEREO_COUNT>  (1) 
0

>  <PUBCHEM_ISOTOPIC_ATOM_COUNT>  (1) 
0

>  <PUBCHEM_COMPONENT_COUNT>  (1) 
1

>  <PUBCHEM_CACTVS_TAUTO_COUNT>  (1) 
1

>  <PUBCHEM_CONFORMER_ID>  (1) 
00005E4300000002

>  <PUBCHEM_MMFF94_ENERGY>  (1) 
84.5401

>  <PUBCHEM_FEATURE_SELFOVERLAP>  (1) 
61.15

>  <PUBCHEM_SHAPE_FINGERPRINT>  (1) 
10366900 7 18040705961944485575
11543360 7 16515979111558279582
11582403 64 16243135425743468893
12236239 1 17275102864376030365
12363563 72 18341603764251665878
12553582 1 18341047402588490890
12596599 1 17632301210986380767
12623949 98 17978256042244731915
12707595 3 18408597050586856346
12714826 92 17748837293004826571
12788726 201 17836916802889655304
12892183 10 13398618442750975982
13009979 54 16916780846519960999
13134695 92 18342731927727904652
13544653 18 18340488872541129702
13583140 156 17750494304530806402
13911987 19 18408892845506810798
15534591 1 13695876874260076785
15842332 3 17202488964646639409
17357779 13 18410004408406688996
1813 80 17846228726137393220
18915476 22 18266173027248061952
18927931 339 18126572211168613262
19784866 240 17561072627509848399
200 152 18201712938451787351
20645477 70 18339346578295764325
20693207 138 18114466750832881887
21041028 32 18200888313199921865
22112679 90 16845293886258781185
221490 88 18266456688326235510
22182313 1 18042395996883387677
23175994 123 18411141298818077558
23402539 116 18201435810351284390
23557571 272 17313945350284391821
23559900 14 17458332048643390950
23598288 3 17274835661760410529
23598291 2 17561091344513424877
2748010 2 18042393798034179453
2838139 119 15502958397434466206
3286 77 18337969989990990043
458136 41 17905902713605783136
4921388 177 17095812031558793583
6049 1 18113898303453183949
621550 5 17750819764273168641
6992083 37 17203613653267125025
7615 1 17274821410768973257
77492 1 17274825817473925561
81228 2 17765418860375708464
88987 49 16298925629157154861

>  <PUBCHEM_SHAPE_MULTIPOLES>  (1) 
401.7
8.39
2.44
1.79
4.16
1.31
-0.22
-4.46
-2.26
2.09
0.68
-2.75
-0.02
1.92

>  <PUBCHEM_SHAPE_SELFOVERLAP>  (1) 
879.13

>  <PUBCHEM_SHAPE_VOLUME>  (1) 
217.1

>  <PUBCHEM_COORDINATE_TYPE>  (1) 
2
5
10

$$$$
