24130
     RDKit          3D

 19 20  0  0  0  0  0  0  0  0999 V2000
   -1.3045   -0.6523    1.0217 O   0  0  0  0  0  0  0  0  0  0  0  0
    4.3242   -1.7472   -0.4971 O   0  0  0  0  0  0  0  0  0  0  0  0
    3.1433    2.9390   -0.5617 O   0  0  0  0  0  0  0  0  0  0  0  0
    2.8240   -3.2485    0.0638 O   0  0  0  0  0  0  0  0  0  0  0  0
    1.1061    3.5639   -0.0342 O   0  0  0  0  0  0  0  0  0  0  0  0
    3.1629   -2.0572   -0.1367 N   0  0  0  0  0  0  0  0  0  0  0  0
    1.9711    2.6707   -0.2035 N   0  0  0  0  0  0  0  0  0  0  0  0
   -2.3578   -0.2743    0.1420 C   0  0  0  0  0  0  0  0  0  0  0  0
   -3.1042   -1.5214   -0.3302 C   0  0  0  0  0  0  0  0  0  0  0  0
   -3.2916    0.7056    0.8510 C   0  0  0  0  0  0  0  0  0  0  0  0
   -4.3047   -1.1616   -1.1993 C   0  0  0  0  0  0  0  0  0  0  0  0
   -4.4921    1.0656   -0.0180 C   0  0  0  0  0  0  0  0  0  0  0  0
   -5.2366   -0.1806   -0.4918 C   0  0  0  0  0  0  0  0  0  0  0  0
   -0.0309   -0.3368    0.6290 C   0  0  0  0  0  0  0  0  0  0  0  0
    0.3147    0.9932    0.4151 C   0  0  0  0  0  0  0  0  0  0  0  0
    0.9054   -1.3494    0.4490 C   0  0  0  0  0  0  0  0  0  0  0  0
    2.2028   -1.0278    0.0504 C   0  0  0  0  0  0  0  0  0  0  0  0
    1.6120    1.3147    0.0163 C   0  0  0  0  0  0  0  0  0  0  0  0
    2.5560    0.3043   -0.1660 C   0  0  0  0  0  0  0  0  0  0  0  0
  1  8  1  0
  1 14  1  0
  2  6  1  0
  3  7  1  0
  4  6  2  0
  5  7  2  0
  6 17  1  0
  7 18  1  0
  8  9  1  0
  8 10  1  0
  9 11  1  0
 10 12  1  0
 11 13  1  0
 12 13  1  0
 14 15  2  0
 14 16  1  0
 15 18  1  0
 16 17  2  0
 17 19  1  0
 18 19  2  0
M  CHG  4   2  -1   3  -1   6   1   7   1
M  END
>  <PUBCHEM_COMPOUND_CID>  (1) 
24130

>  <PUBCHEM_CONFORMER_RMSD>  (1) 
0.8

>  <PUBCHEM_CONFORMER_DIVERSEORDER>  (1) 
1
7
5
8
2
6
3
4

>  <PUBCHEM_MMFF94_PARTIAL_CHARGES>  (1) 
17
1 -0.36
14 0.08
15 -0.15
16 -0.15
17 0.13
18 0.13
19 -0.15
2 -0.52
3 -0.52
31 0.15
32 0.15
33 0.15
4 -0.52
5 -0.52
6 0.91
7 0.91
8 0.28

>  <PUBCHEM_EFFECTIVE_ROTOR_COUNT>  (1) 
5.2

>  <PUBCHEM_PHARMACOPHORE_FEATURES>  (1) 
9
1 1 acceptor
1 2 acceptor
1 2 anion
1 3 acceptor
1 3 anion
1 4 acceptor
1 5 acceptor
6 14 15 16 17 18 19 rings
6 8 9 10 11 12 13 rings

>  <PUBCHEM_HEAVY_ATOM_COUNT>  (1) 
19

>  <PUBCHEM_ATOM_DEF_STEREO_COUNT>  (1) 
0

>  <PUBCHEM_ATOM_UDEF_STEREO_COUNT>  (1) 
0

>  <PUBCHEM_BOND_DEF_STEREO_COUNT>  (1) 
0

>  <PUBCHEM_BOND_UDEF_STEREO_COUNT>  (1) 
0

>  <PUBCHEM_ISOTOPIC_ATOM_COUNT>  (1) 
0

>  <PUBCHEM_COMPONENT_COUNT>  (1) 
1

>  <PUBCHEM_CACTVS_TAUTO_COUNT>  (1) 
1

>  <PUBCHEM_CONFORMER_ID>  (1) 
00005E4200000001

>  <PUBCHEM_MMFF94_ENERGY>  (1) 
55.1201

>  <PUBCHEM_FEATURE_SELFOVERLAP>  (1) 
45.837

>  <PUBCHEM_SHAPE_FINGERPRINT>  (1) 
10693767 8 18202292411672080414
10756046 5 18341047514684518511
10759866 29 18200028594096613415
10906281 52 18261686930282154096
11265709 11 18192711151161989450
11471102 20 18408323284960196010
11578080 2 17773574062504371632
116883 192 18196938755789693460
12553582 1 18265057929263350170
12730499 353 18191876832152436611
12916754 54 18410574003249328611
13004483 165 18050275982330346914
13009979 54 17845385370416663307
13134695 92 18335984177433341742
14115302 16 17703787007775964627
14178000 15 18412261697093678424
14178000 29 18271528585399754430
14250199 8 18408886261110721489
15042514 8 17472699131303645354
15442244 35 18341052904641855705
15502722 9 18338800142491647931
15842332 3 17916605196998185097
15848700 24 18338795607333237554
167882 2 18263650722505669140
17492 89 18339922722922222383
17539 30 17833266416148600252
17818456 19 17630053663417269369
1813 80 18128827343470504686
18186145 218 17676483952225339251
18335252 114 18120925124202330645
18335252 98 18190744340188648019
20612939 158 18408887347436877533
20645477 70 18335698386051629547
20671657 53 18340769226120101175
21029758 11 18336551517075350586
21478907 32 17760365492107693538
21524375 3 17827914354111265200
21618674 54 18267019643043914647
21634736 98 18413388739451090227
221357 26 18262511490946493557
221490 88 18336553814725066211
2255824 54 18410291419374847418
23402539 116 18197494030652744686
23402655 69 18412825811320807957
23557571 272 14189304724921767075
23559900 14 18342448257790680315
23598291 2 18201167580737034537
2748010 2 17759263060260235290
3082319 5 18271805769983262729
312423 11 18201166524523278459
474 4 18042682999926275829
5281201 14 18408037421038534063
53777708 50 18271247218124020235
543358 83 18411986840529461609
58051976 100 18411419514511131911
59027123 10 18412538804584241949
633830 44 18187076257354204035
67856867 119 18270389607006064297
7364860 26 18410856594289847280
7471813 234 18272928297824183672
7615 1 17917160441722209681
81228 2 17834693608011309554
84936 182 18128537256789167881
9709674 26 18336546135534608923
9971528 1 18341044138618671506
9981440 41 17834387204607109041

>  <PUBCHEM_SHAPE_MULTIPOLES>  (1) 
351.7
9.06
3.22
0.84
8.01
1.53
-0.01
-2.04
2.25
-4.56
0.44
0.49
-0.07
-0.69

>  <PUBCHEM_SHAPE_SELFOVERLAP>  (1) 
739.372

>  <PUBCHEM_SHAPE_VOLUME>  (1) 
197.6

>  <PUBCHEM_COORDINATE_TYPE>  (1) 
2
5
10

$$$$
