2413
     RDKit          3D

 20 23  0  0  1  0  0  0  0  0999 V2000
   -0.0062   -1.2195   -2.1947 S   0  0  0  0  0  0  0  0  0  0  0  0
   -2.8900   -1.6513    1.4282 O   0  0  0  0  0  0  0  0  0  0  0  0
   -0.8605   -1.5000    0.2318 N   0  0  0  0  0  0  0  0  0  0  0  0
   -0.1161   -0.4727   -0.5101 C   0  0  0  0  0  0  0  0  0  0  0  0
   -1.0659    0.6935   -0.4059 C   0  0  0  0  0  0  0  0  0  0  0  0
   -0.6198   -2.8660   -0.1843 C   0  0  0  0  0  0  0  0  0  0  0  0
   -0.6896   -2.8417   -1.7034 C   0  0  0  0  0  0  0  0  0  0  0  0
    1.2565   -0.1682    0.0935 C   0  0  0  0  0  0  0  0  0  0  0  0
   -2.1489    0.3680    0.4197 C   0  0  0  0  0  0  0  0  0  0  0  0
   -2.0389   -1.0425    0.8066 C   0  0  0  0  0  0  0  0  0  0  0  0
   -0.9847    1.9601   -0.9616 C   0  0  0  0  0  0  0  0  0  0  0  0
    2.2665    0.3775   -0.7015 C   0  0  0  0  0  0  0  0  0  0  0  0
   -3.1634    1.2586    0.7155 C   0  0  0  0  0  0  0  0  0  0  0  0
    1.5036   -0.4353    1.4418 C   0  0  0  0  0  0  0  0  0  0  0  0
   -1.9965    2.8823   -0.6721 C   0  0  0  0  0  0  0  0  0  0  0  0
    3.5176    0.6551   -0.1509 C   0  0  0  0  0  0  0  0  0  0  0  0
   -3.0745    2.5350    0.1608 C   0  0  0  0  0  0  0  0  0  0  0  0
    2.7546   -0.1578    1.9924 C   0  0  0  0  0  0  0  0  0  0  0  0
    3.7617    0.3873    1.1961 C   0  0  0  0  0  0  0  0  0  0  0  0
    4.5948    1.2377   -1.0019 C   0  0  0  0  0  0  0  0  0  0  0  0
  1  4  1  0
  1  7  1  0
  2 10  2  0
  3  4  1  0
  3  6  1  0
  3 10  1  0
  4  5  1  0
  4  8  1  0
  5  9  2  0
  5 11  1  0
  6  7  1  0
  8 12  2  0
  8 14  1  0
  9 10  1  0
  9 13  1  0
 11 15  2  0
 12 16  1  0
 13 17  2  0
 14 18  2  0
 15 17  1  0
 16 19  2  0
 16 20  1  0
 18 19  1  0
M  END
>  <PUBCHEM_COMPOUND_CID>  (1) 
2413

>  <PUBCHEM_CONFORMER_RMSD>  (1) 
0.6

>  <PUBCHEM_CONFORMER_DIVERSEORDER>  (1) 
2
7
10
1
8
6
4
9
5
3

>  <PUBCHEM_MMFF94_PARTIAL_CHARGES>  (1) 
28
1 -0.46
10 0.54
11 -0.15
12 -0.15
13 -0.15
14 -0.15
15 -0.15
16 -0.14
17 -0.15
18 -0.15
19 -0.15
2 -0.57
20 0.14
25 0.15
26 0.15
27 0.15
28 0.15
29 0.15
3 -0.66
30 0.15
31 0.15
32 0.15
4 0.82
5 -0.14
6 0.3
7 0.23
8 -0.14
9 0.09

>  <PUBCHEM_EFFECTIVE_ROTOR_COUNT>  (1) 
1.6

>  <PUBCHEM_PHARMACOPHORE_FEATURES>  (1) 
5
1 2 acceptor
5 1 3 4 6 7 rings
5 3 4 5 9 10 rings
6 5 9 11 13 15 17 rings
6 8 12 14 16 18 19 rings

>  <PUBCHEM_HEAVY_ATOM_COUNT>  (1) 
20

>  <PUBCHEM_ATOM_DEF_STEREO_COUNT>  (1) 
0

>  <PUBCHEM_ATOM_UDEF_STEREO_COUNT>  (1) 
1

>  <PUBCHEM_BOND_DEF_STEREO_COUNT>  (1) 
0

>  <PUBCHEM_BOND_UDEF_STEREO_COUNT>  (1) 
0

>  <PUBCHEM_ISOTOPIC_ATOM_COUNT>  (1) 
0

>  <PUBCHEM_COMPONENT_COUNT>  (1) 
1

>  <PUBCHEM_CACTVS_TAUTO_COUNT>  (1) 
1

>  <PUBCHEM_CONFORMER_ID>  (1) 
0000096D00000002

>  <PUBCHEM_MMFF94_ENERGY>  (1) 
62.7482

>  <PUBCHEM_FEATURE_SELFOVERLAP>  (1) 
25.761

>  <PUBCHEM_SHAPE_FINGERPRINT>  (1) 
10165383 225 17845116063029502304
10906281 52 18335155167842753633
11578080 2 17626426404780106993
12173636 292 18408595968334115020
12788726 201 18266443485591480047
13004483 165 17767375222226745142
13464514 151 17552653451795143884
13538477 17 18040991856363253392
13681431 1 17257906716907458167
13764800 53 18342738490000070185
14787075 74 16885004015552702594
14817 1 14543978850458920767
15309172 13 18272083860014411545
15906896 17 18338220631234238023
16752209 62 18339348751528117015
16945 1 18271243949084332179
1813 80 17480845854898087382
18186145 218 16774076254669278568
20510252 161 18411991272930566585
20511035 2 18122891045690030506
21296965 12 18270952454054174719
21486144 27 17131550652002359392
21524375 3 18269260275499323689
21731228 192 18266165141587639552
21756936 100 17895205449932846924
22112679 90 17836938067282994975
22149856 69 17395317732916319577
23402539 116 18341611581435308871
23419403 2 17269239061274920791
23493267 7 18337962203336666504
23559900 14 18048322145513599463
23566358 27 17386290887878455154
23598288 3 18260257564575136378
238 59 17417242105096819012
25 1 17203053971678204040
2748010 2 18196395666029013927
34934 24 17761502782304390685
3729539 64 17697629622607291502
392239 28 17244725681572983600
458136 41 18056211171792480361
495365 180 17841986685686594517
633830 44 16630526193905554281
6442390 28 18131354090116013695
7097593 13 17605259693432688944
7364860 26 17552068503193149983
81228 2 17913188030390858503
84936 31 17196267648578307303
90525 40 18407754841917838790

>  <PUBCHEM_SHAPE_MULTIPOLES>  (1) 
404.59
6
2.97
1.74
5.26
0.78
0.05
-4.01
-1.29
-2.75
1.12
0.63
0.6
0.08

>  <PUBCHEM_SHAPE_SELFOVERLAP>  (1) 
889.891

>  <PUBCHEM_SHAPE_VOLUME>  (1) 
221.8

>  <PUBCHEM_COORDINATE_TYPE>  (1) 
2
5
10

$$$$
