24133
     RDKit          3D

 21 20  0  0  0  0  0  0  0  0999 V2000
   -4.9348   -0.0098    0.1786 O   0  0  0  0  0  0  0  0  0  0  0  0
    4.9259   -0.0167   -0.1762 O   0  0  0  0  0  0  0  0  0  0  0  0
   -3.6029   -1.8916    0.0432 O   0  0  0  0  0  0  0  0  0  0  0  0
    3.6438   -1.9323   -0.2705 O   0  0  0  0  0  0  0  0  0  0  0  0
   -0.0662    2.1761   -2.0368 N   0  0  0  0  0  0  0  0  0  0  0  0
    0.0940    1.7106    2.3088 N   0  0  0  0  0  0  0  0  0  0  0  0
   -0.0034    0.4690   -0.0213 C   0  0  0  0  0  0  0  0  0  0  0  0
   -1.2709   -0.4338   -0.0706 C   0  0  0  0  0  0  0  0  0  0  0  0
    1.2411   -0.4561   -0.1667 C   0  0  0  0  0  0  0  0  0  0  0  0
   -2.6046    0.3058    0.0823 C   0  0  0  0  0  0  0  0  0  0  0  0
    2.5995    0.2611   -0.1168 C   0  0  0  0  0  0  0  0  0  0  0  0
   -0.0385    1.4268   -1.1508 C   0  0  0  0  0  0  0  0  0  0  0  0
    0.0514    1.1658    1.2848 C   0  0  0  0  0  0  0  0  0  0  0  0
   -3.7487   -0.6768    0.0893 C   0  0  0  0  0  0  0  0  0  0  0  0
    3.7522   -0.7161   -0.1975 C   0  0  0  0  0  0  0  0  0  0  0  0
   -6.1033   -0.8347    0.2206 C   0  0  0  0  0  0  0  0  0  0  0  0
    6.1162   -0.8084   -0.2470 C   0  0  0  0  0  0  0  0  0  0  0  0
   -7.3069    0.0429    0.3175 C   0  0  0  0  0  0  0  0  0  0  0  0
    7.2997    0.1006   -0.2129 C   0  0  0  0  0  0  0  0  0  0  0  0
   -8.2926    0.0615   -0.5864 C   0  0  0  0  0  0  0  0  0  0  0  0
    8.2491    0.0560    0.7283 C   0  0  0  0  0  0  0  0  0  0  0  0
  1 14  1  0
  1 16  1  0
  2 15  1  0
  2 17  1  0
  3 14  2  0
  4 15  2  0
  5 12  3  0
  6 13  3  0
  7  8  1  0
  7  9  1  0
  7 12  1  0
  7 13  1  0
  8 10  1  0
  9 11  1  0
 10 14  1  0
 11 15  1  0
 16 18  1  0
 17 19  1  0
 18 20  2  0
 19 21  2  0
M  END
>  <PUBCHEM_COMPOUND_CID>  (1) 
24133

>  <PUBCHEM_CONFORMER_RMSD>  (1) 
1

>  <PUBCHEM_CONFORMER_DIVERSEORDER>  (1) 
1
20
7
12
10
22
15
9
5
21
11
18
8
14
16
6
4
13
19
2
3
17

>  <PUBCHEM_MMFF94_PARTIAL_CHARGES>  (1) 
25
1 -0.43
10 0.06
11 0.06
12 0.36
13 0.36
14 0.66
15 0.66
16 0.42
17 0.42
18 -0.29
19 -0.29
2 -0.43
20 -0.3
21 -0.3
3 -0.57
34 0.15
35 0.15
36 0.15
37 0.15
38 0.15
39 0.15
4 -0.57
5 -0.56
6 -0.56
7 0.4

>  <PUBCHEM_EFFECTIVE_ROTOR_COUNT>  (1) 
12

>  <PUBCHEM_PHARMACOPHORE_FEATURES>  (1) 
7
1 20 hydrophobe
1 21 hydrophobe
1 3 acceptor
1 4 acceptor
1 5 acceptor
1 6 acceptor
5 7 8 9 10 11 hydrophobe

>  <PUBCHEM_HEAVY_ATOM_COUNT>  (1) 
21

>  <PUBCHEM_ATOM_DEF_STEREO_COUNT>  (1) 
0

>  <PUBCHEM_ATOM_UDEF_STEREO_COUNT>  (1) 
0

>  <PUBCHEM_BOND_DEF_STEREO_COUNT>  (1) 
0

>  <PUBCHEM_BOND_UDEF_STEREO_COUNT>  (1) 
0

>  <PUBCHEM_ISOTOPIC_ATOM_COUNT>  (1) 
0

>  <PUBCHEM_COMPONENT_COUNT>  (1) 
1

>  <PUBCHEM_CACTVS_TAUTO_COUNT>  (1) 
1

>  <PUBCHEM_CONFORMER_ID>  (1) 
00005E4500000001

>  <PUBCHEM_MMFF94_ENERGY>  (1) 
22.9253

>  <PUBCHEM_FEATURE_SELFOVERLAP>  (1) 
35.524

>  <PUBCHEM_SHAPE_FINGERPRINT>  (1) 
10165383 225 13183020718419756356
106641 1 15626220234216962290
11315181 36 17703513263893380835
12516196 113 17704072888856163234
12838862 33 18338220626839160759
13968360 50 13334729124511208945
14123256 10 18335420166823581530
14251764 18 18202848738305525251
14251764 46 18411138038916917666
15849732 13 18410856573068290351
16120349 18 18338514244163138605
167882 2 17461175510884628764
18006028 8 17775567533003960441
187816 3 16008751312073426900
20238998 120 18260829297626831317
20735858 18 13398631649943969125
22224240 67 17275101739005396230
23402539 116 17240199920251364686
23521765 1 18341895190345847767
23559900 14 18269832171769597656
23622692 88 16702300165983932461
2838139 119 8358255917333951147
3009799 131 17022904557628749061
335352 9 18060135462284139311
33684 2 17894347774126299170
347723 3 16008749112722993803
4325135 7 18412546514119090486
5283156 175 17313100831133900682
5486654 2 18202006542848912030
59682541 35 15697995258024855691
8209 1 18412545413832126007

>  <PUBCHEM_SHAPE_MULTIPOLES>  (1) 
398.73
22.09
1.5
1.18
0.36
0.21
-0.19
-5.29
-0.49
-0.02
0.18
-0.09
0.89
0.3

>  <PUBCHEM_SHAPE_SELFOVERLAP>  (1) 
776.684

>  <PUBCHEM_SHAPE_VOLUME>  (1) 
235.2

>  <PUBCHEM_COORDINATE_TYPE>  (1) 
2
5
10

$$$$
