24140
     RDKit          3D

 28 27  0  0  1  0  0  0  0  0999 V2000
   -2.9830    2.4083   -0.5309 S   0  0  0  0  0  0  0  0  0  0  0  0
    2.1405    1.8533   -1.2045 S   0  0  0  0  0  0  0  0  0  0  0  0
   -3.3372   -3.2452   -0.4216 S   0  0  0  0  0  0  0  0  0  0  0  0
    4.7757   -1.5859   -0.0558 S   0  0  0  0  0  0  0  0  0  0  0  0
   -3.0024    0.9712    0.2318 O   0  0  0  0  0  0  0  0  0  0  0  0
    1.6184    1.5804    0.3122 O   0  0  0  0  0  0  0  0  0  0  0  0
   -1.7880    0.9898    2.7213 O   0  0  0  0  0  0  0  0  0  0  0  0
    0.9459    0.9263    2.9953 O   0  0  0  0  0  0  0  0  0  0  0  0
   -2.8457   -1.6905   -0.4494 O   0  0  0  0  0  0  0  0  0  0  0  0
    3.3203   -0.8582   -0.1632 O   0  0  0  0  0  0  0  0  0  0  0  0
   -2.2183    2.2964   -1.7564 O   0  0  0  0  0  0  0  0  0  0  0  0
   -2.7422    3.4648    0.4310 O   0  0  0  0  0  0  0  0  0  0  0  0
    1.2936    1.1459   -2.1433 O   0  0  0  0  0  0  0  0  0  0  0  0
    3.5852    1.7520   -1.2459 O   0  0  0  0  0  0  0  0  0  0  0  0
   -4.3429   -3.4149    0.6075 O   0  0  0  0  0  0  0  0  0  0  0  0
   -2.1850   -4.1179   -0.5211 O   0  0  0  0  0  0  0  0  0  0  0  0
    4.6253   -2.8722    0.5937 O   0  0  0  0  0  0  0  0  0  0  0  0
    5.7678   -0.6207    0.3720 O   0  0  0  0  0  0  0  0  0  0  0  0
   -0.9813    0.9542    1.5445 C   0  0  0  0  0  0  0  0  0  0  0  0
    0.3500    0.2618    1.8816 C   0  0  0  0  0  0  0  0  0  0  0  0
   -1.7610    0.2748    0.4008 C   0  0  0  0  0  0  0  0  0  0  0  0
    1.3450    0.2292    0.7040 C   0  0  0  0  0  0  0  0  0  0  0  0
   -2.1028   -1.1909    0.6597 C   0  0  0  0  0  0  0  0  0  0  0  0
    2.6880   -0.4193    1.0369 C   0  0  0  0  0  0  0  0  0  0  0  0
   -4.7063    2.4279   -0.9542 C   0  0  0  0  0  0  0  0  0  0  0  0
    1.7051    3.5731   -1.2545 C   0  0  0  0  0  0  0  0  0  0  0  0
   -4.1552   -3.2276   -1.9964 C   0  0  0  0  0  0  0  0  0  0  0  0
    4.9907   -1.8664   -1.7949 C   0  0  0  0  0  0  0  0  0  0  0  0
  1  5  1  0
  1 11  2  0
  1 12  2  0
  1 25  1  0
  2  6  1  0
  2 13  2  0
  2 14  2  0
  2 26  1  0
  3  9  1  0
  3 15  2  0
  3 16  2  0
  3 27  1  0
  4 10  1  0
  4 17  2  0
  4 18  2  0
  4 28  1  0
  5 21  1  0
  6 22  1  0
  7 19  1  0
  8 20  1  0
  9 23  1  0
 10 24  1  0
 19 20  1  0
 19 21  1  0
 20 22  1  0
 21 23  1  0
 22 24  1  0
M  END
>  <PUBCHEM_COMPOUND_CID>  (1) 
24140

>  <PUBCHEM_CONFORMER_RMSD>  (1) 
1.4

>  <PUBCHEM_CONFORMER_DIVERSEORDER>  (1) 
1
44
121
109
77
7
70
141
14
28
102
139
23
2
41
45
54
75
76
22
43
92
112
138
136
33
78
133
101
4
98
10
63
19
38
5
13
94
114
58
111
131
16
113
117
140
8
46
85
64
72
11
71
66
73
55
107
122
6
61
116
57
91
135
125
86
144
95
81
25
74
17
24
110
118
65
126
142
106
132
40
124
128
105
134
69
21
36
129
88
137
93
47
56
27
60
89
99
12
15
83
82
18
30
103
51
123
100
108
68
62
35
130
84
32
97
59
34
67
42
29
115
49
127
90
31
80
50
26
120
119
3
9
143
39
87
104
53
20
52
96
37
79
48

>  <PUBCHEM_MMFF94_PARTIAL_CHARGES>  (1) 
30
1 1.38
10 -0.46
11 -0.65
12 -0.65
13 -0.65
14 -0.65
15 -0.65
16 -0.65
17 -0.65
18 -0.65
19 0.28
2 1.38
20 0.28
21 0.28
22 0.28
23 0.28
24 0.28
25 0.11
26 0.11
27 0.11
28 0.11
3 1.38
37 0.4
38 0.4
4 1.38
5 -0.46
6 -0.46
7 -0.68
8 -0.68
9 -0.46

>  <PUBCHEM_EFFECTIVE_ROTOR_COUNT>  (1) 
13

>  <PUBCHEM_PHARMACOPHORE_FEATURES>  (1) 
12
1 11 acceptor
1 12 acceptor
1 13 acceptor
1 14 acceptor
1 15 acceptor
1 16 acceptor
1 17 acceptor
1 18 acceptor
1 7 acceptor
1 7 donor
1 8 acceptor
1 8 donor

>  <PUBCHEM_HEAVY_ATOM_COUNT>  (1) 
28

>  <PUBCHEM_ATOM_DEF_STEREO_COUNT>  (1) 
0

>  <PUBCHEM_ATOM_UDEF_STEREO_COUNT>  (1) 
4

>  <PUBCHEM_BOND_DEF_STEREO_COUNT>  (1) 
0

>  <PUBCHEM_BOND_UDEF_STEREO_COUNT>  (1) 
0

>  <PUBCHEM_ISOTOPIC_ATOM_COUNT>  (1) 
0

>  <PUBCHEM_COMPONENT_COUNT>  (1) 
1

>  <PUBCHEM_CACTVS_TAUTO_COUNT>  (1) 
1

>  <PUBCHEM_CONFORMER_ID>  (1) 
00005E4C00000001

>  <PUBCHEM_MMFF94_ENERGY>  (1) 
39.4666

>  <PUBCHEM_FEATURE_SELFOVERLAP>  (1) 
60.986

>  <PUBCHEM_SHAPE_FINGERPRINT>  (1) 
11578080 2 18271796969211048536
12293681 25 17557104528710498539
13583140 156 17845641651600986296
14787075 74 10229741281863376560
15664445 248 17762620994446834417
20775438 99 17693895925969397157
20775530 9 18342458187697448838
23557571 272 18195219308899242641
340366 18 18335425621083946653
44062 13 18410858724346044126
633830 44 17023192625797152832
70251023 43 18187929546611727099
7164475 11 18336824320228377293

>  <PUBCHEM_SHAPE_MULTIPOLES>  (1) 
509.45
10.33
5.03
2.18
7.34
2.22
-0.73
7
3.5
-5.41
2.31
0.08
-0.6
-0.94

>  <PUBCHEM_SHAPE_SELFOVERLAP>  (1) 
948.467

>  <PUBCHEM_SHAPE_VOLUME>  (1) 
320.2

>  <PUBCHEM_COORDINATE_TYPE>  (1) 
2
5
10

$$$$
