24141
     RDKit          3D

 10 10  0  0  1  0  0  0  0  0999 V2000
    2.7144   -0.3944    0.3388 O   0  0  0  0  0  0  0  0  0  0  0  0
    1.1764   -1.5181   -0.9133 O   0  0  0  0  0  0  0  0  0  0  0  0
   -2.1859   -1.6565   -0.1445 O   0  0  0  0  0  0  0  0  0  0  0  0
   -0.8618   -0.0596    0.0400 N   0  0  0  0  0  0  0  0  0  0  0  0
   -1.5614   -0.9688    0.6692 N   0  0  0  0  0  0  0  0  0  0  0  0
    0.4634    0.2243    0.6035 C   0  0  0  0  0  0  0  0  0  0  0  0
    0.7358    1.6998    0.3017 C   0  0  0  0  0  0  0  0  0  0  0  0
   -0.3977    2.1198   -0.6197 C   0  0  0  0  0  0  0  0  0  0  0  0
   -1.5387    1.2176   -0.1909 C   0  0  0  0  0  0  0  0  0  0  0  0
    1.4554   -0.6642   -0.0849 C   0  0  0  0  0  0  0  0  0  0  0  0
  1 10  1  0
  2 10  2  0
  3  5  2  0
  4  5  1  0
  4  6  1  0
  4  9  1  0
  6  7  1  0
  6 10  1  0
  7  8  1  0
  8  9  1  0
M  END
>  <PUBCHEM_COMPOUND_CID>  (1) 
24141

>  <PUBCHEM_CONFORMER_RMSD>  (1) 
0.6

>  <PUBCHEM_CONFORMER_DIVERSEORDER>  (1) 
1
5
15
4
11
3
12
13
8
9
14
7
10
2
16
6

>  <PUBCHEM_MMFF94_PARTIAL_CHARGES>  (1) 
9
1 -0.65
10 0.66
18 0.5
2 -0.57
3 -0.16
4 -0.36
5 -0.01
6 0.33
9 0.27

>  <PUBCHEM_EFFECTIVE_ROTOR_COUNT>  (1) 
3

>  <PUBCHEM_PHARMACOPHORE_FEATURES>  (1) 
4
1 1 acceptor
1 2 acceptor
3 1 2 10 anion
5 4 6 7 8 9 rings

>  <PUBCHEM_HEAVY_ATOM_COUNT>  (1) 
10

>  <PUBCHEM_ATOM_DEF_STEREO_COUNT>  (1) 
0

>  <PUBCHEM_ATOM_UDEF_STEREO_COUNT>  (1) 
1

>  <PUBCHEM_BOND_DEF_STEREO_COUNT>  (1) 
0

>  <PUBCHEM_BOND_UDEF_STEREO_COUNT>  (1) 
0

>  <PUBCHEM_ISOTOPIC_ATOM_COUNT>  (1) 
0

>  <PUBCHEM_COMPONENT_COUNT>  (1) 
1

>  <PUBCHEM_CACTVS_TAUTO_COUNT>  (1) 
1

>  <PUBCHEM_CONFORMER_ID>  (1) 
00005E4D00000001

>  <PUBCHEM_MMFF94_ENERGY>  (1) 
15.8215

>  <PUBCHEM_FEATURE_SELFOVERLAP>  (1) 
20.353

>  <PUBCHEM_SHAPE_FINGERPRINT>  (1) 
1 1 17326897781837548805
12138202 97 18118394047495478718
12423570 1 11855716561619377384
12716758 59 17976537217759333554
16945 1 18338517413432115508
21040471 1 17758677750258885800
23552423 10 18114181972957703304
23552449 1 18337387145722686040
241688 4 18334856138538035145
2748010 2 18338508763294167388
29004967 10 18131350765542197450

>  <PUBCHEM_SHAPE_MULTIPOLES>  (1) 
178.23
2.6
2.13
0.79
0.95
0.25
-0.04
-0.86
0
-0.91
-0.27
0.06
-0.02
0.37

>  <PUBCHEM_SHAPE_SELFOVERLAP>  (1) 
359.803

>  <PUBCHEM_SHAPE_VOLUME>  (1) 
105.8

>  <PUBCHEM_COORDINATE_TYPE>  (1) 
2
5
10

$$$$
