24151
     RDKit          3D

 10  9  0  0  0  0  0  0  0  0999 V2000
    1.7927   -0.1462    0.2537 O   0  0  0  0  0  0  0  0  0  0  0  0
   -1.7941    0.1633   -0.2377 O   0  0  0  0  0  0  0  0  0  0  0  0
    0.5789    0.4694   -0.1563 C   0  0  0  0  0  0  0  0  0  0  0  0
   -0.5775   -0.4614    0.1540 C   0  0  0  0  0  0  0  0  0  0  0  0
    2.9168    0.6736   -0.0332 C   0  0  0  0  0  0  0  0  0  0  0  0
   -2.9134   -0.6758    0.0105 C   0  0  0  0  0  0  0  0  0  0  0  0
    4.1523   -0.0301    0.4211 C   0  0  0  0  0  0  0  0  0  0  0  0
   -4.1521    0.0366   -0.4212 C   0  0  0  0  0  0  0  0  0  0  0  0
    5.1611   -0.3671   -0.3898 C   0  0  0  0  0  0  0  0  0  0  0  0
   -5.1648    0.3379    0.3989 C   0  0  0  0  0  0  0  0  0  0  0  0
  1  3  1  0
  1  5  1  0
  2  4  1  0
  2  6  1  0
  3  4  1  0
  5  7  1  0
  6  8  1  0
  7  9  2  0
  8 10  2  0
M  END
>  <PUBCHEM_COMPOUND_CID>  (1) 
24151

>  <PUBCHEM_CONFORMER_RMSD>  (1) 
0.6

>  <PUBCHEM_CONFORMER_DIVERSEORDER>  (1) 
4
43
110
117
34
1
49
53
112
77
3
68
56
21
2
114
51
79
103
84
17
61
80
57
15
72
113
88
91
47
65
74
104
73
18
86
58
13
31
78
5
27
25
100
109
71
48
32
6
70
54
67
95
106
107
10
69
89
36
55
75
87
11
82
115
99
8
111
40
22
93
101
30
60
23
37
9
98
41
39
52
76
59
28
35
16
92
97
64
42
45
63
90
94
116
24
108
62
14
83
85
96
26
66
7
102
19
105
12
20
29
46
81
44
50
38
33

>  <PUBCHEM_MMFF94_PARTIAL_CHARGES>  (1) 
16
1 -0.56
10 -0.3
19 0.15
2 -0.56
20 0.15
21 0.15
22 0.15
23 0.15
24 0.15
3 0.28
4 0.28
5 0.42
6 0.42
7 -0.29
8 -0.29
9 -0.3

>  <PUBCHEM_EFFECTIVE_ROTOR_COUNT>  (1) 
7

>  <PUBCHEM_PHARMACOPHORE_FEATURES>  (1) 
4
1 1 acceptor
1 10 hydrophobe
1 2 acceptor
1 9 hydrophobe

>  <PUBCHEM_HEAVY_ATOM_COUNT>  (1) 
10

>  <PUBCHEM_ATOM_DEF_STEREO_COUNT>  (1) 
0

>  <PUBCHEM_ATOM_UDEF_STEREO_COUNT>  (1) 
0

>  <PUBCHEM_BOND_DEF_STEREO_COUNT>  (1) 
0

>  <PUBCHEM_BOND_UDEF_STEREO_COUNT>  (1) 
0

>  <PUBCHEM_ISOTOPIC_ATOM_COUNT>  (1) 
0

>  <PUBCHEM_COMPONENT_COUNT>  (1) 
1

>  <PUBCHEM_CACTVS_TAUTO_COUNT>  (1) 
1

>  <PUBCHEM_CONFORMER_ID>  (1) 
00005E5700000004

>  <PUBCHEM_MMFF94_ENERGY>  (1) 
12.1587

>  <PUBCHEM_FEATURE_SELFOVERLAP>  (1) 
20.297

>  <PUBCHEM_SHAPE_FINGERPRINT>  (1) 
11062470 55 17561082522908697873
11401426 45 13830130589970216145
114248 4 12035449441034454828
14123238 8 11386367045143638771
14251718 22 11819282165126844705
17834072 33 12685103595740714634
17834076 25 18410012139015200387
20279233 1 13830137225473285684
20645477 70 18201159841364742798
20719005 15 18410011039493003621
20724930 37 15626224619890190052
20767249 13 13254796836768771477
22485316 2 14261352453140253621
23218964 4 18341612590103373933
23402539 116 16415193469056543077
366044 4 18408322198302308915
42788 4 17989205949373902449
522135 26 17603302648898291506

>  <PUBCHEM_SHAPE_MULTIPOLES>  (1) 
194.06
12.27
0.77
0.68
0.02
0
0
0.06
0.02
-0.01
0
0
0
0

>  <PUBCHEM_SHAPE_SELFOVERLAP>  (1) 
349.372

>  <PUBCHEM_SHAPE_VOLUME>  (1) 
125

>  <PUBCHEM_COORDINATE_TYPE>  (1) 
2
5
10

$$$$
