24164
     RDKit          3D

 17 19  0  0  1  0  0  0  0  0999 V2000
   -0.3459    0.0381    0.0360 O   0  0  0  0  0  0  0  0  0  0  0  0
   -0.8622   -2.2518    0.0807 O   0  0  0  0  0  0  0  0  0  0  0  0
    3.2463   -0.8625    0.1552 N   0  0  0  0  0  0  0  0  0  0  0  0
   -1.4158   -0.9252    0.0340 C   0  0  0  0  0  0  0  0  0  0  0  0
    0.8206   -0.7139    0.3788 C   0  0  0  0  0  0  0  0  0  0  0  0
   -2.2964   -0.7185    1.2692 C   0  0  0  0  0  0  0  0  0  0  0  0
   -2.2267   -0.7609   -1.2544 C   0  0  0  0  0  0  0  0  0  0  0  0
    2.0725   -0.0530   -0.1952 C   0  0  0  0  0  0  0  0  0  0  0  0
   -3.8597    0.7649   -0.0614 C   0  0  0  0  0  0  0  0  0  0  0  0
   -3.0420    0.6146    1.2287 C   0  0  0  0  0  0  0  0  0  0  0  0
   -2.9743    0.5711   -1.2999 C   0  0  0  0  0  0  0  0  0  0  0  0
    0.5268   -2.0762   -0.1989 C   0  0  0  0  0  0  0  0  0  0  0  0
    2.2191    1.3781    0.3396 C   0  0  0  0  0  0  0  0  0  0  0  0
    3.5072    2.0260   -0.1610 C   0  0  0  0  0  0  0  0  0  0  0  0
    4.4793   -0.2868   -0.3826 C   0  0  0  0  0  0  0  0  0  0  0  0
    4.7061    1.1316    0.1348 C   0  0  0  0  0  0  0  0  0  0  0  0
   -4.5550    2.1245   -0.1034 C   0  0  0  0  0  0  0  0  0  0  0  0
  1  4  1  0
  1  5  1  0
  2  4  1  0
  2 12  1  0
  3  8  1  0
  3 15  1  0
  4  6  1  0
  4  7  1  0
  5  8  1  0
  5 12  1  0
  6 10  1  0
  7 11  1  0
  8 13  1  0
  9 10  1  0
  9 11  1  0
  9 17  1  0
 13 14  1  0
 14 16  1  0
 15 16  1  0
M  END
>  <PUBCHEM_COMPOUND_CID>  (1) 
24164

>  <PUBCHEM_CONFORMER_RMSD>  (1) 
0.6

>  <PUBCHEM_CONFORMER_DIVERSEORDER>  (1) 
1
47
42
36
54
41
52
31
33
53
40
37
27
49
3
26
48
9
35
46
34
44
32
17
13
39
6
30
21
45
10
5
18
43
23
28
25
20
7
38
29
24
2
50
11
4
51
14
16
8
12
15
19
22

>  <PUBCHEM_MMFF94_PARTIAL_CHARGES>  (1) 
9
1 -0.56
12 0.28
15 0.27
2 -0.56
3 -0.9
33 0.36
4 0.56
5 0.28
8 0.27

>  <PUBCHEM_EFFECTIVE_ROTOR_COUNT>  (1) 
4

>  <PUBCHEM_PHARMACOPHORE_FEATURES>  (1) 
7
1 1 acceptor
1 2 acceptor
1 3 cation
1 3 donor
5 1 2 4 5 12 rings
6 3 8 13 14 15 16 rings
6 4 6 7 9 10 11 rings

>  <PUBCHEM_HEAVY_ATOM_COUNT>  (1) 
17

>  <PUBCHEM_ATOM_DEF_STEREO_COUNT>  (1) 
0

>  <PUBCHEM_ATOM_UDEF_STEREO_COUNT>  (1) 
2

>  <PUBCHEM_BOND_DEF_STEREO_COUNT>  (1) 
0

>  <PUBCHEM_BOND_UDEF_STEREO_COUNT>  (1) 
0

>  <PUBCHEM_ISOTOPIC_ATOM_COUNT>  (1) 
0

>  <PUBCHEM_COMPONENT_COUNT>  (1) 
1

>  <PUBCHEM_CACTVS_TAUTO_COUNT>  (1) 
1

>  <PUBCHEM_CONFORMER_ID>  (1) 
00005E6400000001

>  <PUBCHEM_MMFF94_ENERGY>  (1) 
20.7328

>  <PUBCHEM_FEATURE_SELFOVERLAP>  (1) 
35.571

>  <PUBCHEM_SHAPE_FINGERPRINT>  (1) 
10014705 185 18342454871934690904
10608611 8 18267019651623215256
11046707 91 8430323436956410116
11543360 7 15410893002683929344
12173636 292 18339641264634231559
122479 349 18333734632250633419
12363563 72 10375870800736795445
12500047 106 18341891961057780026
12596602 18 13840279073457260861
128620 24 10303814272235839856
13214271 11 18260552225449488359
13544653 18 10375870792278645162
13583140 156 17023171768987434296
13675066 3 18040441009780562170
14004511 7 18411701006366595916
14123255 52 18410573972393260289
14123260 362 18060424628982937009
1420 369 8718823206263084329
14252887 29 12179846070086122304
14289901 80 16081089294376826850
15342168 16 18335426772435940325
15775835 57 18343017774864953165
17834072 32 18410577275212853697
17834072 8 18271816696432889516
1813 80 8213858244805671811
18186145 218 18342183284384028846
18219364 16 18409739481785761833
19862831 5 17489585658046517971
200 152 8646768876616118025
20112054 13 18260551121173446885
20300324 65 17489866072509340725
20374829 77 11743833639033215741
20645476 183 17774992458975132343
20645477 56 18334012834699641396
20645477 70 18272938194025082358
21524375 3 18412262852376596839
22485316 2 9367355837607237334
22646028 28 9007061261763359464
231179 274 18261392208908676084
23402539 116 18131066039602538092
23402655 69 18272651264339464364
23403322 49 10591767571209581517
23500284 214 18187364333147041841
23559900 14 18202284719691250098
25 1 18410852127260108815
27216 239 18187368782917828985
2838139 119 18192138297230664453
4028521 119 18202282498301984921
474 4 18340486673296217539
5104073 3 18188483688040736328
5283173 99 11095342758760212227
633830 44 18334293180369128014
6430166 295 18408884049112977712
74978 22 18269552896201036666
76465 3 10231763266630524716
83771 10 8790880787515999391
9882013 296 11746934282997674152
9971528 1 18060136506235407598

>  <PUBCHEM_SHAPE_MULTIPOLES>  (1) 
333.13
9.2
2.09
1.03
3.83
0.02
-0.02
5.64
-0.42
-0.12
-0.04
-0.96
-0.03
0.13

>  <PUBCHEM_SHAPE_SELFOVERLAP>  (1) 
684.767

>  <PUBCHEM_SHAPE_VOLUME>  (1) 
191

>  <PUBCHEM_COORDINATE_TYPE>  (1) 
2
5
10

$$$$
