24166
     RDKit          3D

 17 19  0  0  1  0  0  0  0  0999 V2000
   -0.3637    0.0948   -0.1780 O   0  0  0  0  0  0  0  0  0  0  0  0
   -1.0092   -2.0806    0.4241 O   0  0  0  0  0  0  0  0  0  0  0  0
    3.1513   -0.8552    0.5096 N   0  0  0  0  0  0  0  0  0  0  0  0
   -1.4824   -0.7980   -0.0232 C   0  0  0  0  0  0  0  0  0  0  0  0
    0.7274   -0.5745    0.4586 C   0  0  0  0  0  0  0  0  0  0  0  0
   -2.4462   -0.2385    1.0289 C   0  0  0  0  0  0  0  0  0  0  0  0
   -2.1766   -0.9609   -1.3784 C   0  0  0  0  0  0  0  0  0  0  0  0
   -3.1121    1.0673    0.5701 C   0  0  0  0  0  0  0  0  0  0  0  0
    2.0567   -0.1331   -0.1511 C   0  0  0  0  0  0  0  0  0  0  0  0
   -2.8449    0.3316   -1.8412 C   0  0  0  0  0  0  0  0  0  0  0  0
   -3.8046    0.8765   -0.7861 C   0  0  0  0  0  0  0  0  0  0  0  0
    0.4055   -2.0316    0.2378 C   0  0  0  0  0  0  0  0  0  0  0  0
    2.2390    1.3838   -0.0045 C   0  0  0  0  0  0  0  0  0  0  0  0
    3.5976    1.8313   -0.5368 C   0  0  0  0  0  0  0  0  0  0  0  0
   -4.1084    1.5604    1.6183 C   0  0  0  0  0  0  0  0  0  0  0  0
    4.4539   -0.4854   -0.0445 C   0  0  0  0  0  0  0  0  0  0  0  0
    4.7167    1.0120    0.0963 C   0  0  0  0  0  0  0  0  0  0  0  0
  1  4  1  0
  1  5  1  0
  2  4  1  0
  2 12  1  0
  3  9  1  0
  3 16  1  0
  4  6  1  0
  4  7  1  0
  5  9  1  0
  5 12  1  0
  6  8  1  0
  7 10  1  0
  8 11  1  0
  8 15  1  0
  9 13  1  0
 10 11  1  0
 13 14  1  0
 14 17  1  0
 16 17  1  0
M  END
>  <PUBCHEM_COMPOUND_CID>  (1) 
24166

>  <PUBCHEM_CONFORMER_RMSD>  (1) 
0.6

>  <PUBCHEM_CONFORMER_DIVERSEORDER>  (1) 
1
131
142
138
84
99
8
116
77
18
24
89
82
28
118
139
33
78
50
94
19
143
145
122
86
31
10
71
128
80
17
91
52
68
132
112
4
62
79
92
133
37
100
49
144
5
55
129
87
44
57
114
101
73
20
7
103
29
85
127
46
61
11
121
43
111
32
126
26
27
96
47
110
63
72
88
106
56
113
25
53
107
134
38
76
14
65
98
93
15
75
51
60
105
6
41
39
115
81
117
58
13
108
141
140
2
69
102
83
74
59
124
119
30
36
66
23
97
109
67
42
45
95
123
9
137
34
70
135
12
64
35
120
125
104
54
3
21
16
40
136
22
90
48
130

>  <PUBCHEM_MMFF94_PARTIAL_CHARGES>  (1) 
9
1 -0.56
12 0.28
16 0.27
2 -0.56
3 -0.9
33 0.36
4 0.56
5 0.28
9 0.27

>  <PUBCHEM_EFFECTIVE_ROTOR_COUNT>  (1) 
4

>  <PUBCHEM_PHARMACOPHORE_FEATURES>  (1) 
7
1 1 acceptor
1 2 acceptor
1 3 cation
1 3 donor
5 1 2 4 5 12 rings
6 3 9 13 14 16 17 rings
6 4 6 7 8 10 11 rings

>  <PUBCHEM_HEAVY_ATOM_COUNT>  (1) 
17

>  <PUBCHEM_ATOM_DEF_STEREO_COUNT>  (1) 
0

>  <PUBCHEM_ATOM_UDEF_STEREO_COUNT>  (1) 
4

>  <PUBCHEM_BOND_DEF_STEREO_COUNT>  (1) 
0

>  <PUBCHEM_BOND_UDEF_STEREO_COUNT>  (1) 
0

>  <PUBCHEM_ISOTOPIC_ATOM_COUNT>  (1) 
0

>  <PUBCHEM_COMPONENT_COUNT>  (1) 
1

>  <PUBCHEM_CACTVS_TAUTO_COUNT>  (1) 
1

>  <PUBCHEM_CONFORMER_ID>  (1) 
00005E6600000001

>  <PUBCHEM_MMFF94_ENERGY>  (1) 
20.7266

>  <PUBCHEM_FEATURE_SELFOVERLAP>  (1) 
35.571

>  <PUBCHEM_SHAPE_FINGERPRINT>  (1) 
10062212 137 18059848454899239694
10366900 7 15574712516997731681
10608611 8 18189330354769748740
11046707 91 11169912800996205025
11127187 94 14405182880942767253
11543360 7 16415191330109919728
12173636 292 18270686479488003543
12236239 1 18131064905736303805
12824470 246 11386953115592206697
13296909 8 14490189410525600607
13544653 18 10592042462006448946
13583140 156 16298655157517560264
13675066 3 17022902337515629370
14004511 7 18412826889072502768
14123260 362 18273498983071623385
14251764 38 17559659828004219928
14289901 80 15719114664702195938
15239191 94 10737276953146454816
15309172 13 18186519899553245675
15342168 16 18335713732122849981
15534591 1 18131356293450041427
15653759 3 16442783518273748796
15880784 105 11963392946935734636
1741750 31 18339081591956998362
17834072 14 12031788045971012578
1813 80 17480018588383771902
18186145 218 18407761434903517886
18219364 16 18040712567488077261
19433438 15 17917993871383166996
19868273 293 17060340704040926757
20112054 13 17967813842527564829
20300324 65 17774714355215361237
204376 136 18334297560935089491
20645477 56 17895191129915321934
20645477 70 18411980235497930310
20671657 53 14333407865403412474
20871999 31 16343696626170255549
21033648 29 17749374967055053756
21524375 3 18410854369412534755
22079108 93 18410303523124976691
22182937 141 18336552723555121931
22646028 1 8430317926713920360
22646028 28 9079118851617089928
231179 274 17895185576432930718
23402539 116 17988923362560032704
23402655 69 18272934942734579116
23559900 14 18342738529788606906
25 1 18409446960148014162
27216 239 17749107820378950701
474 4 18411700954621260067
4921388 177 15626224654128576981
5104073 3 18261951955560313536
5283173 99 11887410036056910947
602551 16 14707219828773134720
633830 44 18342746186892454014
74978 22 18337949112207600946
76465 3 8935003629323985464
81228 2 17317051569027061363
83771 10 9079114466376242503
9882013 296 11530481125445207272
9971528 1 18272645715615978322
9981440 41 17337846667151041832

>  <PUBCHEM_SHAPE_MULTIPOLES>  (1) 
333.13
8.96
1.88
1.27
5.34
0.2
0.25
-4.49
-0.2
0.13
-0.25
-1.7
-0.19
-0.92

>  <PUBCHEM_SHAPE_SELFOVERLAP>  (1) 
684.712

>  <PUBCHEM_SHAPE_VOLUME>  (1) 
190.9

>  <PUBCHEM_COORDINATE_TYPE>  (1) 
2
5
10

$$$$
