24170
     RDKit          3D

 17 19  0  0  1  0  0  0  0  0999 V2000
   -0.4902   -0.2685   -0.0137 O   0  0  0  0  0  0  0  0  0  0  0  0
   -1.2623    1.8646   -0.6134 O   0  0  0  0  0  0  0  0  0  0  0  0
    2.9835    0.9324   -0.4742 N   0  0  0  0  0  0  0  0  0  0  0  0
   -1.6614    0.5187   -0.2961 C   0  0  0  0  0  0  0  0  0  0  0  0
   -2.6119    0.5126    0.9225 C   0  0  0  0  0  0  0  0  0  0  0  0
    0.5890    0.4735   -0.5849 C   0  0  0  0  0  0  0  0  0  0  0  0
   -2.3708   -0.0598   -1.5312 C   0  0  0  0  0  0  0  0  0  0  0  0
    1.9028    0.1324    0.1158 C   0  0  0  0  0  0  0  0  0  0  0  0
   -3.1735   -0.8959    1.1791 C   0  0  0  0  0  0  0  0  0  0  0  0
    0.1499    1.9049   -0.3986 C   0  0  0  0  0  0  0  0  0  0  0  0
   -2.9331   -1.4550   -1.2736 C   0  0  0  0  0  0  0  0  0  0  0  0
   -3.8569   -1.4672   -0.0608 C   0  0  0  0  0  0  0  0  0  0  0  0
    2.2057   -1.3671   -0.0087 C   0  0  0  0  0  0  0  0  0  0  0  0
   -1.9448    1.0397    2.1972 C   0  0  0  0  0  0  0  0  0  0  0  0
    3.5544   -1.7124    0.6168 C   0  0  0  0  0  0  0  0  0  0  0  0
    4.2693    0.6606    0.1686 C   0  0  0  0  0  0  0  0  0  0  0  0
    4.6506   -0.8135    0.0553 C   0  0  0  0  0  0  0  0  0  0  0  0
  1  4  1  0
  1  6  1  0
  2  4  1  0
  2 10  1  0
  3  8  1  0
  3 16  1  0
  4  5  1  0
  4  7  1  0
  5  9  1  0
  5 14  1  0
  6  8  1  0
  6 10  1  0
  7 11  1  0
  8 13  1  0
  9 12  1  0
 11 12  1  0
 13 15  1  0
 15 17  1  0
 16 17  1  0
M  END
>  <PUBCHEM_COMPOUND_CID>  (1) 
24170

>  <PUBCHEM_CONFORMER_RMSD>  (1) 
0.6

>  <PUBCHEM_CONFORMER_DIVERSEORDER>  (1) 
1
126
93
82
63
81
66
111
2
94
14
85
52
65
90
28
53
102
95
31
17
98
88
4
125
105
101
12
127
3
76
57
10
36
115
123
113
8
32
56
49
79
78
58
104
91
100
83
20
23
38
124
128
99
122
21
62
118
67
41
89
50
6
75
110
34
117
19
87
107
103
44
96
26
16
69
108
84
48
77
5
121
15
116
80
27
46
43
61
64
42
71
35
120
40
74
47
25
70
9
55
7
92
112
114
51
86
13
37
18
22
29
106
45
73
97
72
39
68
11
33
30
109
60
24
59
119
54

>  <PUBCHEM_MMFF94_PARTIAL_CHARGES>  (1) 
9
1 -0.56
10 0.28
16 0.27
2 -0.56
3 -0.9
36 0.36
4 0.56
6 0.28
8 0.27

>  <PUBCHEM_EFFECTIVE_ROTOR_COUNT>  (1) 
4

>  <PUBCHEM_PHARMACOPHORE_FEATURES>  (1) 
7
1 1 acceptor
1 2 acceptor
1 3 cation
1 3 donor
5 1 2 4 6 10 rings
6 3 8 13 15 16 17 rings
6 4 5 7 9 11 12 rings

>  <PUBCHEM_HEAVY_ATOM_COUNT>  (1) 
17

>  <PUBCHEM_ATOM_DEF_STEREO_COUNT>  (1) 
0

>  <PUBCHEM_ATOM_UDEF_STEREO_COUNT>  (1) 
4

>  <PUBCHEM_BOND_DEF_STEREO_COUNT>  (1) 
0

>  <PUBCHEM_BOND_UDEF_STEREO_COUNT>  (1) 
0

>  <PUBCHEM_ISOTOPIC_ATOM_COUNT>  (1) 
0

>  <PUBCHEM_COMPONENT_COUNT>  (1) 
1

>  <PUBCHEM_CACTVS_TAUTO_COUNT>  (1) 
1

>  <PUBCHEM_CONFORMER_ID>  (1) 
00005E6A00000001

>  <PUBCHEM_MMFF94_ENERGY>  (1) 
21.2943

>  <PUBCHEM_FEATURE_SELFOVERLAP>  (1) 
35.571

>  <PUBCHEM_SHAPE_FINGERPRINT>  (1) 
11046707 91 18342173366972298014
11127187 94 16370727054207819835
11137873 295 17894348869564369295
11543360 7 14418145032096787134
11578080 2 18058144259348245961
11615757 297 18342739620087801432
12251169 10 17917997165411910913
12633257 1 16271934847762513307
12916754 54 18412543189434647094
13024252 1 16443070457034415901
13032168 30 18270394018038119682
13224815 77 18409446981923433550
13296908 3 17895193277393668918
13296909 8 17275106119898132265
13544653 18 18113338613342835246
13583140 156 15482382054679065254
13693222 15 18334577923578431010
13764800 53 15769500828642950001
14289901 80 18334856091725852888
15239191 94 18342737403779428438
15309172 13 18202563956177830870
15375462 189 18272090542951570338
16945 1 18194674002613190853
17780758 139 17630601220456100658
18186145 218 15068347808661069052
19050596 39 18412262805400572850
19422 9 18202285797121373470
19433438 48 18341611477907538434
19868273 293 12757146883390103707
200 152 18411412938615170463
20112054 13 12175627286508516347
20279233 1 17095240324077261650
20281475 54 18342175527726015214
20645476 183 11819265698691828177
20645477 70 17749669709396244316
20871999 31 14923942366795589023
21524375 3 9151178657705515749
21650355 55 17060054900037940091
22646028 28 18408319990789105118
2306618 200 18200869578652588737
23402539 116 18040994021306137490
23559900 14 15068617211012322108
27216 239 12967123926250957715
2871803 45 18113893858125291178
312423 11 18341624711086756292
4028521 119 8286206032693676007
4921388 177 15140689059402874131
5104073 3 18337664223096050056
90316 7 17203618085894927809
9709674 26 18259988137309121954
9882013 296 18273216408757364690

>  <PUBCHEM_SHAPE_MULTIPOLES>  (1) 
333.13
8.13
1.81
1.37
6.61
0.03
0.39
-3.33
0.9
-0.17
-0.05
-1.42
0.19
-0.8

>  <PUBCHEM_SHAPE_SELFOVERLAP>  (1) 
685.457

>  <PUBCHEM_SHAPE_VOLUME>  (1) 
190.6

>  <PUBCHEM_COORDINATE_TYPE>  (1) 
2
5
10

$$$$
