24173
     RDKit          3D

 12 12  0  0  0  0  0  0  0  0999 V2000
    4.1211    0.6438   -0.0004 O   0  0  0  0  0  0  0  0  0  0  0  0
   -2.3019    0.0867   -0.0001 N   0  0  0  0  0  0  0  0  0  0  0  0
   -0.7755   -0.0273    0.0005 C   0  0  0  0  0  0  0  0  0  0  0  0
   -2.8455   -0.5982    1.2507 C   0  0  0  0  0  0  0  0  0  0  0  0
   -2.8435   -0.5786   -1.2623 C   0  0  0  0  0  0  0  0  0  0  0  0
   -2.7724    1.5396    0.0105 C   0  0  0  0  0  0  0  0  0  0  0  0
   -0.2545   -1.2776   -0.0001 C   0  0  0  0  0  0  0  0  0  0  0  0
   -0.0746    1.1318    0.0008 C   0  0  0  0  0  0  0  0  0  0  0  0
    1.1365   -1.3815   -0.0001 C   0  0  0  0  0  0  0  0  0  0  0  0
    1.3165    1.0277    0.0006 C   0  0  0  0  0  0  0  0  0  0  0  0
    1.9219   -0.2291    0.0002 C   0  0  0  0  0  0  0  0  0  0  0  0
    3.3720   -0.3372   -0.0002 C   0  0  0  0  0  0  0  0  0  0  0  0
  1 12  2  0
  2  3  1  0
  2  4  1  0
  2  5  1  0
  2  6  1  0
  3  7  2  0
  3  8  1  0
  7  9  1  0
  8 10  2  0
  9 11  2  0
 10 11  1  0
 11 12  1  0
M  CHG  1   2   1
M  END
>  <PUBCHEM_COMPOUND_CID>  (1) 
24173

>  <PUBCHEM_CONFORMER_RMSD>  (1) 
0.6

>  <PUBCHEM_CONFORMER_DIVERSEORDER>  (1) 
1

>  <PUBCHEM_MMFF94_PARTIAL_CHARGES>  (1) 
17
1 -0.57
10 -0.15
11 0.09
12 0.42
2 -0.87
22 0.15
23 0.15
24 0.15
25 0.15
26 0.06
3 0.36
4 0.5
5 0.5
6 0.5
7 -0.15
8 -0.15
9 -0.15

>  <PUBCHEM_EFFECTIVE_ROTOR_COUNT>  (1) 
2

>  <PUBCHEM_PHARMACOPHORE_FEATURES>  (1) 
3
1 1 acceptor
1 2 cation
6 3 7 8 9 10 11 rings

>  <PUBCHEM_HEAVY_ATOM_COUNT>  (1) 
12

>  <PUBCHEM_ATOM_DEF_STEREO_COUNT>  (1) 
0

>  <PUBCHEM_ATOM_UDEF_STEREO_COUNT>  (1) 
0

>  <PUBCHEM_BOND_DEF_STEREO_COUNT>  (1) 
0

>  <PUBCHEM_BOND_UDEF_STEREO_COUNT>  (1) 
0

>  <PUBCHEM_ISOTOPIC_ATOM_COUNT>  (1) 
0

>  <PUBCHEM_COMPONENT_COUNT>  (1) 
1

>  <PUBCHEM_CACTVS_TAUTO_COUNT>  (1) 
1

>  <PUBCHEM_CONFORMER_ID>  (1) 
00005E6D00000001

>  <PUBCHEM_MMFF94_ENERGY>  (1) 
50.6272

>  <PUBCHEM_FEATURE_SELFOVERLAP>  (1) 
15.223

>  <PUBCHEM_SHAPE_FINGERPRINT>  (1) 
10219947 1 18411139134481620878
11132069 177 18201430368474473160
12032990 46 18409177592905734986
12138202 97 17168411723594846383
124424 183 17676757713045010922
12932764 1 17918269844253407962
13214271 11 18335424556090104589
14144814 61 18408322177022151082
14325111 11 18410856538492046176
14993402 34 18272925046560093774
15775835 57 18202283576417579021
16945 1 18410856589773281830
17844478 74 18186813486480026001
18186145 218 17458629978082937166
19026448 4 16008745805993814770
19026448 5 16056883524569475830
193761 8 17617941773900662628
200 152 18343013433080401783
20201158 50 18260829284872953107
20645477 70 18199464363916189079
23235685 24 18409726257655212674
23402539 116 18201147785649420884
23402655 69 18196638624145423613
2748010 2 18194685860754060086
3248919 1 17967251983464214111
5084963 1 17988636445527188795
528886 8 18410288077884568201
63268167 104 18271807873968722243

>  <PUBCHEM_SHAPE_MULTIPOLES>  (1) 
236.1
5.72
1.42
0.88
2.68
0.12
0
0.62
0
-0.29
0
-0.78
-0.17
0

>  <PUBCHEM_SHAPE_SELFOVERLAP>  (1) 
483.476

>  <PUBCHEM_SHAPE_VOLUME>  (1) 
139.3

>  <PUBCHEM_COORDINATE_TYPE>  (1) 
2
5
10

$$$$
