24188
     RDKit          3D

 16 16  0  0  1  0  0  0  0  0999 V2000
   -4.3083   -0.5801    0.1099 Br  0  0  0  0  0  0  0  0  0  0  0  0
   -0.4289   -1.4984   -2.0947 O   0  0  0  0  0  0  0  0  0  0  0  0
   -0.1283    1.0462    1.8404 O   0  0  0  0  0  0  0  0  0  0  0  0
    3.2584   -1.7994    0.6202 O   0  0  0  0  0  0  0  0  0  0  0  0
    1.4554   -1.5729   -0.7882 N   0  0  0  0  0  0  0  0  0  0  0  0
    1.6052   -0.3023    1.1778 N   0  0  0  0  0  0  0  0  0  0  0  0
   -0.1366    0.2638   -0.4549 C   0  0  0  0  0  0  0  0  0  0  0  0
   -1.6656    0.4035   -0.4284 C   0  0  0  0  0  0  0  0  0  0  0  0
    0.4670    1.4315   -1.2557 C   0  0  0  0  0  0  0  0  0  0  0  0
   -2.3615   -0.8016    0.1948 C   0  0  0  0  0  0  0  0  0  0  0  0
    0.2454   -1.0214   -1.1823 C   0  0  0  0  0  0  0  0  0  0  0  0
    0.4093    0.3674    0.9658 C   0  0  0  0  0  0  0  0  0  0  0  0
    0.2040    2.7329   -0.5740 C   0  0  0  0  0  0  0  0  0  0  0  0
   -1.9739   -0.9673    1.6574 C   0  0  0  0  0  0  0  0  0  0  0  0
    2.1896   -1.2505    0.3467 C   0  0  0  0  0  0  0  0  0  0  0  0
    1.1690    3.5486   -0.1349 C   0  0  0  0  0  0  0  0  0  0  0  0
  1 10  1  0
  2 11  2  0
  3 12  2  0
  4 15  2  0
  5 11  1  0
  5 15  1  0
  6 12  1  0
  6 15  1  0
  7  8  1  0
  7  9  1  0
  7 11  1  0
  7 12  1  0
  8 10  1  0
  9 13  1  0
 10 14  1  0
 13 16  2  0
M  END
>  <PUBCHEM_COMPOUND_CID>  (1) 
24188

>  <PUBCHEM_CONFORMER_RMSD>  (1) 
0.6

>  <PUBCHEM_CONFORMER_DIVERSEORDER>  (1) 
1
6
8
5
7
4
2
3

>  <PUBCHEM_MMFF94_PARTIAL_CHARGES>  (1) 
19
1 -0.23
10 0.23
11 0.57
12 0.57
13 -0.29
15 0.69
16 -0.3
2 -0.57
22 0.37
23 0.37
24 0.15
28 0.15
29 0.15
3 -0.57
4 -0.57
5 -0.49
6 -0.49
7 0.12
9 0.14

>  <PUBCHEM_EFFECTIVE_ROTOR_COUNT>  (1) 
4.6

>  <PUBCHEM_PHARMACOPHORE_FEATURES>  (1) 
9
1 1 hydrophobe
1 16 hydrophobe
1 2 acceptor
1 3 acceptor
1 4 acceptor
1 5 donor
1 6 donor
3 1 10 14 hydrophobe
6 5 6 7 11 12 15 rings

>  <PUBCHEM_HEAVY_ATOM_COUNT>  (1) 
16

>  <PUBCHEM_ATOM_DEF_STEREO_COUNT>  (1) 
0

>  <PUBCHEM_ATOM_UDEF_STEREO_COUNT>  (1) 
1

>  <PUBCHEM_BOND_DEF_STEREO_COUNT>  (1) 
0

>  <PUBCHEM_BOND_UDEF_STEREO_COUNT>  (1) 
0

>  <PUBCHEM_ISOTOPIC_ATOM_COUNT>  (1) 
0

>  <PUBCHEM_COMPONENT_COUNT>  (1) 
1

>  <PUBCHEM_CACTVS_TAUTO_COUNT>  (1) 
5

>  <PUBCHEM_CONFORMER_ID>  (1) 
00005E7C00000001

>  <PUBCHEM_MMFF94_ENERGY>  (1) 
48.5924

>  <PUBCHEM_FEATURE_SELFOVERLAP>  (1) 
46.657

>  <PUBCHEM_SHAPE_FINGERPRINT>  (1) 
1 1 17975701897838304069
10702982 57 17401489745597839284
11578080 2 16227421067571260196
12423570 1 14377131864894929217
12592029 89 18120944068179083000
13024252 1 17316199129972453290
13134695 92 18408878542949177741
141345 1 16604645618575015384
14817 1 9004190385347661588
16945 1 18192445266383429833
20511035 2 18057317490970047451
20711985 344 17759827856538215679
21524375 3 17549841309453228085
22344851 341 17763762270040788518
23419403 2 18056168359485043305
2748010 2 18125412290414082916
305870 269 17904205072084555853
430814 3 17763465414817995221
5845 1 14314895714512517917
6442390 28 16972247561688450961
68419 9 17481129524660380813
7364860 26 18263647432070057937
81228 2 17829624863195963193
81539 233 17899418876625788549

>  <PUBCHEM_SHAPE_MULTIPOLES>  (1) 
307.64
4.22
2.82
1.59
5.02
2.2
0.03
-1.28
-0.77
-3.07
0.25
0.08
-0.39
-0.14

>  <PUBCHEM_SHAPE_SELFOVERLAP>  (1) 
618.272

>  <PUBCHEM_SHAPE_VOLUME>  (1) 
182.9

>  <PUBCHEM_COORDINATE_TYPE>  (1) 
2
5
10

$$$$
