24190
     RDKit          3D

 18 18  0  0  1  0  0  0  0  0999 V2000
   -1.3312   -1.6191   -0.3827 O   0  0  0  0  0  0  0  0  0  0  0  0
    0.3855   -1.3479   -2.0183 O   0  0  0  0  0  0  0  0  0  0  0  0
    0.4413    1.5952    1.6402 O   0  0  0  0  0  0  0  0  0  0  0  0
    3.8426   -1.4172    0.9984 O   0  0  0  0  0  0  0  0  0  0  0  0
    2.1604   -1.3130   -0.5653 N   0  0  0  0  0  0  0  0  0  0  0  0
    2.1879    0.1567    1.2627 N   0  0  0  0  0  0  0  0  0  0  0  0
   -1.7555   -0.3313    0.0923 C   0  0  0  0  0  0  0  0  0  0  0  0
    0.5922    0.5737   -0.5538 C   0  0  0  0  0  0  0  0  0  0  0  0
   -0.9304    0.7397   -0.6641 C   0  0  0  0  0  0  0  0  0  0  0  0
   -3.2910   -0.2322   -0.1640 C   0  0  0  0  0  0  0  0  0  0  0  0
    1.2841    1.6400   -1.4219 C   0  0  0  0  0  0  0  0  0  0  0  0
   -1.3963   -0.2636    1.5854 C   0  0  0  0  0  0  0  0  0  0  0  0
    0.9983   -0.7874   -1.1099 C   0  0  0  0  0  0  0  0  0  0  0  0
    1.0286    0.8190    0.8872 C   0  0  0  0  0  0  0  0  0  0  0  0
   -3.9234    1.0664    0.3468 C   0  0  0  0  0  0  0  0  0  0  0  0
   -4.0711   -1.4275    0.4068 C   0  0  0  0  0  0  0  0  0  0  0  0
    0.9661    3.0321   -0.9246 C   0  0  0  0  0  0  0  0  0  0  0  0
    2.8119   -0.8836    0.5848 C   0  0  0  0  0  0  0  0  0  0  0  0
  1  7  1  0
  2 13  2  0
  3 14  2  0
  4 18  2  0
  5 13  1  0
  5 18  1  0
  6 14  1  0
  6 18  1  0
  7  9  1  0
  7 10  1  0
  7 12  1  0
  8  9  1  0
  8 11  1  0
  8 13  1  0
  8 14  1  0
 10 15  1  0
 10 16  1  0
 11 17  1  0
M  END
>  <PUBCHEM_COMPOUND_CID>  (1) 
24190

>  <PUBCHEM_CONFORMER_RMSD>  (1) 
0.6

>  <PUBCHEM_CONFORMER_DIVERSEORDER>  (1) 
4
7
2
8
9
6
3
5
1

>  <PUBCHEM_MMFF94_PARTIAL_CHARGES>  (1) 
14
1 -0.68
13 0.57
14 0.57
18 0.69
2 -0.57
3 -0.57
33 0.4
37 0.37
38 0.37
4 -0.57
5 -0.49
6 -0.49
7 0.28
8 0.12

>  <PUBCHEM_EFFECTIVE_ROTOR_COUNT>  (1) 
4.6

>  <PUBCHEM_PHARMACOPHORE_FEATURES>  (1) 
10
1 1 acceptor
1 1 donor
1 17 hydrophobe
1 2 acceptor
1 3 acceptor
1 4 acceptor
1 5 donor
1 6 donor
3 10 15 16 hydrophobe
6 5 6 8 13 14 18 rings

>  <PUBCHEM_HEAVY_ATOM_COUNT>  (1) 
18

>  <PUBCHEM_ATOM_DEF_STEREO_COUNT>  (1) 
0

>  <PUBCHEM_ATOM_UDEF_STEREO_COUNT>  (1) 
1

>  <PUBCHEM_BOND_DEF_STEREO_COUNT>  (1) 
0

>  <PUBCHEM_BOND_UDEF_STEREO_COUNT>  (1) 
0

>  <PUBCHEM_ISOTOPIC_ATOM_COUNT>  (1) 
0

>  <PUBCHEM_COMPONENT_COUNT>  (1) 
1

>  <PUBCHEM_CACTVS_TAUTO_COUNT>  (1) 
5

>  <PUBCHEM_CONFORMER_ID>  (1) 
00005E7E00000004

>  <PUBCHEM_MMFF94_ENERGY>  (1) 
70.9939

>  <PUBCHEM_FEATURE_SELFOVERLAP>  (1) 
50.822

>  <PUBCHEM_SHAPE_FINGERPRINT>  (1) 
10863032 1 17896049904004154898
12011746 2 17417810595979908526
12423570 1 14180285795958476028
12592029 89 18045792440210622700
12932764 1 17488756695752967229
13134695 92 18341878710762386165
13464514 151 17822874076597737276
13581323 91 18271803570817842291
14181834 199 18337120054396414132
14817 1 15222333608898470724
16945 1 18341034230039396652
17041 49 18261681385141855437
17834072 14 17846495873002847521
18186145 218 16733255850886201359
20233049 118 17988091083296500752
20511035 2 18199744928375344998
20559304 39 18339646766745839209
20600515 1 18339365167072405502
21501502 16 18335991968794147429
21524375 3 17690861359079923861
230 275 16415208896388893497
23419403 2 18124847167065129248
2748010 2 17344081675379369135
296302 2 18201717357746054417
3286 77 18200866379286620241
3323516 105 12685389430235688537
430814 3 17687467175301008308
5845 1 14528821086142716028
68419 9 17622429967496368556
7364860 26 18116434928070352324
74978 22 17968384536797631331
81228 2 17835260959778980448

>  <PUBCHEM_SHAPE_MULTIPOLES>  (1) 
336.99
5.51
2.18
1.54
4.16
1.41
-0.01
-2.29
-1.21
-1.03
0.4
-0.6
-0.06
-0.4

>  <PUBCHEM_SHAPE_SELFOVERLAP>  (1) 
693.03

>  <PUBCHEM_SHAPE_VOLUME>  (1) 
191.3

>  <PUBCHEM_COORDINATE_TYPE>  (1) 
2
5
10

$$$$
