242
     RDKit          3D

  9  9  0  0  0  0  0  0  0  0999 V2000
    2.3933   -1.1289    0.0003 O   0  0  0  0  0  0  0  0  0  0  0  0
    2.3932    1.1290   -0.0004 O   0  0  0  0  0  0  0  0  0  0  0  0
    0.3016   -0.0001    0.0002 C   0  0  0  0  0  0  0  0  0  0  0  0
   -0.3960    1.2079    0.0002 C   0  0  0  0  0  0  0  0  0  0  0  0
   -0.3959   -1.2081    0.0000 C   0  0  0  0  0  0  0  0  0  0  0  0
   -1.7908    1.2080    0.0001 C   0  0  0  0  0  0  0  0  0  0  0  0
   -1.7908   -1.2080   -0.0002 C   0  0  0  0  0  0  0  0  0  0  0  0
   -2.4882    0.0001   -0.0001 C   0  0  0  0  0  0  0  0  0  0  0  0
    1.7736    0.0000   -0.0001 C   0  0  0  0  0  0  0  0  0  0  0  0
  1  9  1  0
  2  9  2  0
  3  4  2  0
  3  5  1  0
  3  9  1  0
  4  6  1  0
  5  7  2  0
  6  8  2  0
  7  8  1  0
M  CHG  1   1  -1
M  END
>  <PUBCHEM_COMPOUND_CID>  (1) 
242

>  <PUBCHEM_CONFORMER_RMSD>  (1) 
0.4

>  <PUBCHEM_CONFORMER_DIVERSEORDER>  (1) 
1

>  <PUBCHEM_MMFF94_PARTIAL_CHARGES>  (1) 
14
1 -0.9
10 0.15
11 0.15
12 0.15
13 0.15
14 0.15
2 -0.9
3 -0.18
4 -0.15
5 -0.15
6 -0.15
7 -0.15
8 -0.15
9 0.98

>  <PUBCHEM_EFFECTIVE_ROTOR_COUNT>  (1) 
1

>  <PUBCHEM_PHARMACOPHORE_FEATURES>  (1) 
4
1 1 acceptor
1 2 acceptor
3 1 2 9 anion
6 3 4 5 6 7 8 rings

>  <PUBCHEM_HEAVY_ATOM_COUNT>  (1) 
9

>  <PUBCHEM_ATOM_DEF_STEREO_COUNT>  (1) 
0

>  <PUBCHEM_ATOM_UDEF_STEREO_COUNT>  (1) 
0

>  <PUBCHEM_BOND_DEF_STEREO_COUNT>  (1) 
0

>  <PUBCHEM_BOND_UDEF_STEREO_COUNT>  (1) 
0

>  <PUBCHEM_ISOTOPIC_ATOM_COUNT>  (1) 
0

>  <PUBCHEM_COMPONENT_COUNT>  (1) 
1

>  <PUBCHEM_CACTVS_TAUTO_COUNT>  (1) 
1

>  <PUBCHEM_CONFORMER_ID>  (1) 
000000F200000001

>  <PUBCHEM_MMFF94_ENERGY>  (1) 
21.0832

>  <PUBCHEM_FEATURE_SELFOVERLAP>  (1) 
20.359

>  <PUBCHEM_SHAPE_FINGERPRINT>  (1) 
10857977 72 18267013041241149177
12897270 3 18339081600441398884
14325111 11 18410855438901459525
16714656 1 18410856564209043999
16945 1 18410855460281129607
18185500 45 18265052629157070983
19973954 147 18411421704469445536
21040471 1 18338516318246902145
23552423 10 18260550030346894086
2748010 2 18410293609770770967
29004967 10 18262522627063131011
369184 2 18411698789989326395
5084963 1 18271803467300588953

>  <PUBCHEM_SHAPE_MULTIPOLES>  (1) 
173.48
3.46
1.5
0.6
1.02
0
0
0
0
-0.15
0
-0.05
0
0

>  <PUBCHEM_SHAPE_SELFOVERLAP>  (1) 
363.343

>  <PUBCHEM_SHAPE_VOLUME>  (1) 
98

>  <PUBCHEM_COORDINATE_TYPE>  (1) 
2
5
10

$$$$
