24213
     RDKit          3D

 18 19  0  0  0  0  0  0  0  0999 V2000
    4.2150    2.6899   -0.3372 N   0  0  0  0  0  0  0  0  0  0  0  0
   -5.1459    1.3344   -0.2178 N   0  0  0  0  0  0  0  0  0  0  0  0
    2.3849   -3.6326    0.0335 N   0  0  0  0  0  0  0  0  0  0  0  0
   -0.0140   -1.0455    0.4076 C   0  0  0  0  0  0  0  0  0  0  0  0
    1.0937   -0.0662    0.2128 C   0  0  0  0  0  0  0  0  0  0  0  0
   -1.4013   -0.4030    0.2388 C   0  0  0  0  0  0  0  0  0  0  0  0
    0.1289   -2.3559   -0.4321 C   0  0  0  0  0  0  0  0  0  0  0  0
    1.9500    0.2378    1.2708 C   0  0  0  0  0  0  0  0  0  0  0  0
   -1.9885    0.1748    1.3359 C   0  0  0  0  0  0  0  0  0  0  0  0
    1.2739    0.5450   -1.0281 C   0  0  0  0  0  0  0  0  0  0  0  0
   -1.9871   -0.4365   -1.0015 C   0  0  0  0  0  0  0  0  0  0  0  0
    2.9866    1.1530    1.0882 C   0  0  0  0  0  0  0  0  0  0  0  0
   -3.2461    0.7582    1.1826 C   0  0  0  0  0  0  0  0  0  0  0  0
    2.3105    1.4602   -1.2109 C   0  0  0  0  0  0  0  0  0  0  0  0
   -3.2448    0.1470   -1.1549 C   0  0  0  0  0  0  0  0  0  0  0  0
    3.1670    1.7643   -0.1527 C   0  0  0  0  0  0  0  0  0  0  0  0
   -3.8743    0.7446   -0.0629 C   0  0  0  0  0  0  0  0  0  0  0  0
    1.3913   -3.0696   -0.1720 C   0  0  0  0  0  0  0  0  0  0  0  0
  1 16  1  0
  2 17  1  0
  3 18  3  0
  4  5  1  0
  4  6  1  0
  4  7  1  0
  5  8  2  0
  5 10  1  0
  6  9  2  0
  6 11  1  0
  7 18  1  0
  8 12  1  0
  9 13  1  0
 10 14  2  0
 11 15  2  0
 12 16  2  0
 13 17  2  0
 14 16  1  0
 15 17  1  0
M  END
>  <PUBCHEM_COMPOUND_CID>  (1) 
24213

>  <PUBCHEM_CONFORMER_RMSD>  (1) 
0.6

>  <PUBCHEM_CONFORMER_DIVERSEORDER>  (1) 
2
4
3
6
5
1
8
7

>  <PUBCHEM_MMFF94_PARTIAL_CHARGES>  (1) 
30
1 -0.9
10 -0.15
11 -0.15
12 -0.15
13 -0.15
14 -0.15
15 -0.15
16 0.1
17 0.1
18 0.36
2 -0.9
22 0.15
23 0.15
24 0.15
25 0.15
26 0.15
27 0.15
28 0.15
29 0.15
3 -0.56
30 0.4
31 0.4
32 0.4
33 0.4
4 0.29
5 -0.14
6 -0.14
7 0.2
8 -0.15
9 -0.15

>  <PUBCHEM_EFFECTIVE_ROTOR_COUNT>  (1) 
3

>  <PUBCHEM_PHARMACOPHORE_FEATURES>  (1) 
7
1 1 cation
1 1 donor
1 2 cation
1 2 donor
1 3 acceptor
6 5 8 10 12 14 16 rings
6 6 9 11 13 15 17 rings

>  <PUBCHEM_HEAVY_ATOM_COUNT>  (1) 
18

>  <PUBCHEM_ATOM_DEF_STEREO_COUNT>  (1) 
0

>  <PUBCHEM_ATOM_UDEF_STEREO_COUNT>  (1) 
0

>  <PUBCHEM_BOND_DEF_STEREO_COUNT>  (1) 
0

>  <PUBCHEM_BOND_UDEF_STEREO_COUNT>  (1) 
0

>  <PUBCHEM_ISOTOPIC_ATOM_COUNT>  (1) 
0

>  <PUBCHEM_COMPONENT_COUNT>  (1) 
1

>  <PUBCHEM_CACTVS_TAUTO_COUNT>  (1) 
1

>  <PUBCHEM_CONFORMER_ID>  (1) 
00005E9500000002

>  <PUBCHEM_MMFF94_ENERGY>  (1) 
71.293

>  <PUBCHEM_FEATURE_SELFOVERLAP>  (1) 
35.52

>  <PUBCHEM_SHAPE_FINGERPRINT>  (1) 
10465860 228 18339361864237312449
10498660 4 18202282532909961497
11640471 11 18272083907374927401
121448 382 17986386913234975526
12173636 292 18123465252673223692
12251169 10 15574710339375530921
12500047 106 18125160687457018764
12633257 1 15357974628683286281
12788726 201 17691393535946116446
13132413 78 17766851528590374554
13134695 92 18047752598548823582
13294875 104 18060128847886830066
13681431 1 18053676771663085374
14170010 4 18268425737547224403
14181834 199 18199750237029029310
15309172 13 18335703904910382148
15342168 16 18408040723831851165
15775835 57 18262513805279776885
15906896 17 17754740755855722850
16752209 62 17907565175450815414
16945 1 18337956684203672082
1741750 31 18194400215627952968
1813 80 17697043539432784918
18186145 218 18200611279266484388
18785283 64 18334019376045934202
19765921 60 18131634516777877891
200 152 11959465508275343052
204376 136 18337392754665209457
20510252 161 17838057357251064562
20671657 1 18339368461228295807
21499 59 18411418453215982829
21524375 3 18115867580064794314
21713013 43 13973967627527691853
2255824 54 18269557139397227175
23175994 123 17829901931779386487
23402539 116 18131348661230352988
23419403 2 17825933837485715798
23557571 272 17263840785948376656
23559900 14 18191305983997114939
305870 269 18412547621556059918
312423 11 17845380951433333651
4028521 119 17775007924772959329
474 4 18411699889469442137
59755656 520 17843709839070863099
6049 1 17678190299824344167
633830 44 18130521793820344756
7364860 26 18340767022780798818
7615 1 17702665415768500705
81228 2 17405433685480780290
84936 182 18201717336245162688
90316 7 8285108763059732710

>  <PUBCHEM_SHAPE_MULTIPOLES>  (1) 
355.49
7.36
3
1.27
4.99
3.14
0.1
-5.87
-0.28
-3.79
-0.36
0.14
-0.31
-0.38

>  <PUBCHEM_SHAPE_SELFOVERLAP>  (1) 
760.565

>  <PUBCHEM_SHAPE_VOLUME>  (1) 
194.8

>  <PUBCHEM_COORDINATE_TYPE>  (1) 
2
5
10

$$$$
