24210
     RDKit          3D

 14 15  0  0  0  0  0  0  0  0999 V2000
   -0.0123    0.9517    0.3457 N   0  0  0  0  0  0  0  0  0  0  0  0
    1.1511    0.0678    0.3877 C   0  0  0  0  0  0  0  0  0  0  0  0
   -1.1866    0.2291   -0.1391 C   0  0  0  0  0  0  0  0  0  0  0  0
    1.4481   -0.4693   -1.0168 C   0  0  0  0  0  0  0  0  0  0  0  0
    2.3577    0.8216    0.9577 C   0  0  0  0  0  0  0  0  0  0  0  0
   -1.4952   -0.9480    0.7928 C   0  0  0  0  0  0  0  0  0  0  0  0
   -2.3815    1.1835   -0.2382 C   0  0  0  0  0  0  0  0  0  0  0  0
    2.7053   -1.3373   -1.0264 C   0  0  0  0  0  0  0  0  0  0  0  0
    3.6134   -0.0484    0.9462 C   0  0  0  0  0  0  0  0  0  0  0  0
   -2.7632   -1.6825    0.3606 C   0  0  0  0  0  0  0  0  0  0  0  0
   -3.6481    0.4463   -0.6698 C   0  0  0  0  0  0  0  0  0  0  0  0
    3.9066   -0.5946   -0.4483 C   0  0  0  0  0  0  0  0  0  0  0  0
   -3.9531   -0.7334    0.2489 C   0  0  0  0  0  0  0  0  0  0  0  0
    0.2578    2.1135   -0.5011 C   0  0  0  0  0  0  0  0  0  0  0  0
  1  2  1  0
  1  3  1  0
  1 14  1  0
  2  4  1  0
  2  5  1  0
  3  6  1  0
  3  7  1  0
  4  8  1  0
  5  9  1  0
  6 10  1  0
  7 11  1  0
  8 12  1  0
  9 12  1  0
 10 13  1  0
 11 13  1  0
M  END
>  <PUBCHEM_COMPOUND_CID>  (1) 
24210

>  <PUBCHEM_CONFORMER_RMSD>  (1) 
0.6

>  <PUBCHEM_CONFORMER_DIVERSEORDER>  (1) 
3
2
4
1

>  <PUBCHEM_MMFF94_PARTIAL_CHARGES>  (1) 
4
1 -0.81
14 0.27
2 0.27
3 0.27

>  <PUBCHEM_EFFECTIVE_ROTOR_COUNT>  (1) 
4.4

>  <PUBCHEM_PHARMACOPHORE_FEATURES>  (1) 
3
1 1 cation
6 2 4 5 8 9 12 rings
6 3 6 7 10 11 13 rings

>  <PUBCHEM_HEAVY_ATOM_COUNT>  (1) 
14

>  <PUBCHEM_ATOM_DEF_STEREO_COUNT>  (1) 
0

>  <PUBCHEM_ATOM_UDEF_STEREO_COUNT>  (1) 
0

>  <PUBCHEM_BOND_DEF_STEREO_COUNT>  (1) 
0

>  <PUBCHEM_BOND_UDEF_STEREO_COUNT>  (1) 
0

>  <PUBCHEM_ISOTOPIC_ATOM_COUNT>  (1) 
0

>  <PUBCHEM_COMPONENT_COUNT>  (1) 
1

>  <PUBCHEM_CACTVS_TAUTO_COUNT>  (1) 
1

>  <PUBCHEM_CONFORMER_ID>  (1) 
00005E9200000003

>  <PUBCHEM_MMFF94_ENERGY>  (1) 
22.2646

>  <PUBCHEM_FEATURE_SELFOVERLAP>  (1) 
15.223

>  <PUBCHEM_SHAPE_FINGERPRINT>  (1) 
10219947 1 17846495954496533984
10465860 250 18261384542566243152
10465860 71 18114194024683266092
10751810 167 17458067066583748507
10922523 26 18412544344738625791
11471102 22 17704353264595383600
11543360 7 14562534019895050899
11615757 297 16272206396847801698
12032990 46 18411983559074097251
12236239 1 16732700532651730770
12932764 1 17167857569359758133
13296908 3 18412545413800425486
14115302 16 17168146775383116155
14252887 29 18343587351805323234
14289901 80 17203601597066909697
14350558 41 18343309192379652644
14386348 63 18341896285578436510
14911166 2 18260541213316917485
14943859 89 9151173147156869396
15219456 202 18273210902456141616
15309172 13 16773795879135578774
15375358 24 18341604914981004683
15501101 241 17988924483266896200
16945 1 18187929426173294125
17834072 14 18412258449945129413
18175812 5 18272365382467656692
18186145 218 18113613482691726973
19107657 162 18341894108035285635
19141452 34 18201161052972748791
200 152 16988555797576783759
20201158 50 18342739598106764015
20279233 1 18343018891240049303
20281407 28 18341337725297759034
20281475 54 18341623568351096806
204376 136 17202469178016903328
20528008 55 17917989485989494558
20645476 183 16732989738496143803
20645477 70 17488737874504760639
20715346 28 18272086119071951833
20871999 31 18187089433665080349
21119208 17 15936408931338368194
21249577 43 18413108363870131767
21501502 16 18190466163071249637
21501925 9 18411415154496444224
21730867 7 17775567563263916562
22485316 2 18409445882090169354
23048698 100 15626220225795793978
232386 152 17968093157141130235
23402539 116 18335408050288102220
23532345 42 18410289237805364800
23557571 272 18335983082570485868
23559900 14 18337107853011497958
2748010 2 18410854394992096695
3082319 5 16081371864322355959
474 4 14978235207461763242
57812782 119 18272366473125579755
581208 293 17774998012040648366
5902787 121 18187926239201805866
69090 78 18130781278939046327
7364860 26 18194405721359762629
74978 22 16878233068330067811
77492 1 16660362554358377200
81228 2 18264499377229780816
8809292 202 18334298703428162291

>  <PUBCHEM_SHAPE_MULTIPOLES>  (1) 
283.13
7.19
1.64
1.04
0.42
0.31
0.02
-2.01
0.01
0.46
0.15
-0.56
-0.09
0.88

>  <PUBCHEM_SHAPE_SELFOVERLAP>  (1) 
563.999

>  <PUBCHEM_SHAPE_VOLUME>  (1) 
166.4

>  <PUBCHEM_COORDINATE_TYPE>  (1) 
2
5
10

$$$$
