24212
     RDKit          2D

 20 21  0  0  1  0  0  0  0  0999 V2000
    0.0000    0.0000    0.0000 O   0  0  0  0  0  0  0  0  0  0  0  0
    0.0000    0.0000    0.0000 O   0  0  0  0  0  0  0  0  0  0  0  0
    0.0000    0.0000    0.0000 O   0  0  0  0  0  0  0  0  0  0  0  0
    0.0000    0.0000    0.0000 O   0  0  0  0  0  0  0  0  0  0  0  0
    0.0000    0.0000    0.0000 N   0  0  0  0  0  0  0  0  0  0  0  0
    0.0000    0.0000    0.0000 C   0  0  0  0  0  0  0  0  0  0  0  0
    0.0000    0.0000    0.0000 C   0  0  0  0  0  0  0  0  0  0  0  0
    0.0000    0.0000    0.0000 C   0  0  0  0  0  0  0  0  0  0  0  0
    0.0000    0.0000    0.0000 C   0  0  0  0  0  0  0  0  0  0  0  0
    0.0000    0.0000    0.0000 C   0  0  0  0  0  0  0  0  0  0  0  0
    0.0000    0.0000    0.0000 C   0  0  0  0  0  0  0  0  0  0  0  0
    0.0000    0.0000    0.0000 C   0  0  0  0  0  0  0  0  0  0  0  0
    0.0000    0.0000    0.0000 C   0  0  0  0  0  0  0  0  0  0  0  0
    0.0000    0.0000    0.0000 C   0  0  0  0  0  0  0  0  0  0  0  0
    0.0000    0.0000    0.0000 C   0  0  0  0  0  0  0  0  0  0  0  0
    0.0000    0.0000    0.0000 C   0  0  0  0  0  0  0  0  0  0  0  0
    0.0000    0.0000    0.0000 C   0  0  0  0  0  0  0  0  0  0  0  0
    0.0000    0.0000    0.0000 C   0  0  0  0  0  0  0  0  0  0  0  0
    0.0000    0.0000    0.0000 C   0  0  0  0  0  0  0  0  0  0  0  0
    0.0000    0.0000    0.0000 C   0  0  0  0  0  0  0  0  0  0  0  0
  1  8  1  0
  1 12  1  0
  2  6  1  0
  3  9  1  0
  3 14  1  0
  4 15  1  0
  4 20  1  0
  5  7  1  0
  5 11  1  0
  6  7  1  0
  6  8  1  0
  7 10  1  0
  8  9  1  0
 11 13  1  0
 12 14  2  0
 12 16  1  0
 13 15  1  0
 14 17  1  0
 16 18  2  0
 17 19  2  0
 18 19  1  0
M  END
>  <PUBCHEM_COMPOUND_CID>  (1) 
24212

>  <PUBCHEM_CONFORMER_RMSD>  (1) 
0.8

>  <PUBCHEM_CONFORMER_DIVERSEORDER>  (1) 
28
260
224
137
345
348
29
272
315
233
218
109
14
326
391
116
3
274
289
220
437
322
360
214
188
51
54
50
30
344
451
403
1
149
43
17
93
37
381
77
414
227
373
397
2
464
36
125
92
363
115
351
425
319
182
147
156
268
411
8
45
264
133
429
186
179
123
410
44
122
102
16
248
285
131
85
398
59
78
34
439
13
339
311
178
75
321
199
468
271
314
176
231
89
20
145
101
267
327
313
452
155
73
138
234
456
318
232
191
203
392
270
132
302
118
420
148
240
430
90
443
216
144
333
281
74
303
195
183
206
434
367
406
461
323
236
49
152
99
222
81
94
444
104
301
252
38
357
142
63
458
459
305
72
64
130
316
446
52
366
325
330
119
48
213
265
251
171
190
110
254
312
56
247
256
10
168
121
235
22
445
205
223
435
42
417
292
219
432
88
79
135
250
97
320
107
263
405
427
290
193
242
460
470
124
249
167
310
126
117
331
389
106
296
407
139
128
370
368
76
96
150
418
358
24
278
154
466
342
436
394
5
286
261
447
431
27
91
352
9
129
66
448
465
26
177
71
35
421
328
408
212
243
187
82
343
329
294
170
55
416
276
69
15
31
158
257
141
120
7
12
365
163
455
215
297
287
335
57
23
140
228
442
53
208
340
198
253
279
70
11
288
241
209
354
100
412
449
337
185
98
62
299
162
377
61
175
19
114
304
469
359
87
471
433
174
136
438
173
65
426
369
33
415
246
157
160
211
21
58
393
362
423
143
134
419
424
284
217
402
194
25
258
390
277
159
18
166
336
189
111
372
380
395
46
399
244
95
103
409
225
353
457
422
127
306
181
338
108
283
388
161
192
441
346
462
355
413
197
239
201
230
349
210
196
401
84
385
221
86
347
376
428
80
112
384
383
282
332
153
364
308
226
32
341
450
207
60
184
40
379
307
378
6
165
169
151
324
67
463
453
309
404
361
262
350
113
146
4
280
291
334
105
245
41
374
259
202
386
400
454
39
204
396
255
273
382
440
298
266
275
300
295
317
172
467
269
237
200
83
68
229
371
293
356
375
387
238
180
47
164

>  <PUBCHEM_MMFF94_PARTIAL_CHARGES>  (1) 
24
1 -0.36
11 0.27
12 0.08
14 0.08
15 0.28
16 -0.15
17 -0.15
18 -0.15
19 -0.15
2 -0.68
20 0.28
26 0.36
3 -0.36
34 0.4
37 0.15
38 0.15
39 0.15
4 -0.56
40 0.15
5 -0.9
6 0.28
7 0.27
8 0.28
9 0.28

>  <PUBCHEM_EFFECTIVE_ROTOR_COUNT>  (1) 
7.8

>  <PUBCHEM_PHARMACOPHORE_FEATURES>  (1) 
9
1 1 acceptor
1 2 acceptor
1 2 donor
1 3 acceptor
1 4 acceptor
1 5 cation
1 5 donor
6 1 3 8 9 12 14 rings
6 12 14 16 17 18 19 rings

>  <PUBCHEM_HEAVY_ATOM_COUNT>  (1) 
20

>  <PUBCHEM_ATOM_DEF_STEREO_COUNT>  (1) 
0

>  <PUBCHEM_ATOM_UDEF_STEREO_COUNT>  (1) 
3

>  <PUBCHEM_BOND_DEF_STEREO_COUNT>  (1) 
0

>  <PUBCHEM_BOND_UDEF_STEREO_COUNT>  (1) 
0

>  <PUBCHEM_ISOTOPIC_ATOM_COUNT>  (1) 
0

>  <PUBCHEM_COMPONENT_COUNT>  (1) 
1

>  <PUBCHEM_CACTVS_TAUTO_COUNT>  (1) 
1

$$$$
