24228
     RDKit          3D

 22 25  0  0  0  0  0  0  0  0999 V2000
   -1.2902    0.8776    2.3725 O   0  0  0  0  0  0  0  0  0  0  0  0
   -1.2909    0.8746   -2.3732 O   0  0  0  0  0  0  0  0  0  0  0  0
    1.2655    3.2473   -0.0011 O   0  0  0  0  0  0  0  0  0  0  0  0
    0.8843   -0.3829    0.0001 N   0  0  0  0  0  0  0  0  0  0  0  0
   -0.8308    1.3133   -0.0004 C   0  0  0  0  0  0  0  0  0  0  0  0
   -1.5621    0.7289    1.1958 C   0  0  0  0  0  0  0  0  0  0  0  0
   -1.5620    0.7278   -1.1963 C   0  0  0  0  0  0  0  0  0  0  0  0
   -2.6848   -0.0676    0.6961 C   0  0  0  0  0  0  0  0  0  0  0  0
   -2.6848   -0.0682   -0.6960 C   0  0  0  0  0  0  0  0  0  0  0  0
    0.6159    0.9430   -0.0001 C   0  0  0  0  0  0  0  0  0  0  0  0
    1.5822    1.9283   -0.0002 C   0  0  0  0  0  0  0  0  0  0  0  0
   -3.6374   -0.7557    1.4222 C   0  0  0  0  0  0  0  0  0  0  0  0
   -3.6373   -0.7567   -1.4216 C   0  0  0  0  0  0  0  0  0  0  0  0
    2.1735   -0.7714    0.0001 C   0  0  0  0  0  0  0  0  0  0  0  0
    3.2319    0.1611    0.0000 C   0  0  0  0  0  0  0  0  0  0  0  0
    2.9096    1.5249   -0.0001 C   0  0  0  0  0  0  0  0  0  0  0  0
   -4.6109   -1.4561    0.7047 C   0  0  0  0  0  0  0  0  0  0  0  0
   -4.6109   -1.4566   -0.7037 C   0  0  0  0  0  0  0  0  0  0  0  0
    2.4943   -2.1261    0.0002 C   0  0  0  0  0  0  0  0  0  0  0  0
    4.5661   -0.2799    0.0002 C   0  0  0  0  0  0  0  0  0  0  0  0
    3.8207   -2.5648    0.0004 C   0  0  0  0  0  0  0  0  0  0  0  0
    4.8582   -1.6408    0.0006 C   0  0  0  0  0  0  0  0  0  0  0  0
  1  6  2  0
  2  7  2  0
  3 11  1  0
  4 10  2  0
  4 14  1  0
  5  6  1  0
  5  7  1  0
  5 10  1  0
  6  8  1  0
  7  9  1  0
  8  9  2  0
  8 12  1  0
  9 13  1  0
 10 11  1  0
 11 16  2  0
 12 17  2  0
 13 18  2  0
 14 15  2  0
 14 19  1  0
 15 16  1  0
 15 20  1  0
 17 18  1  0
 19 21  2  0
 20 22  2  0
 21 22  1  0
M  END
>  <PUBCHEM_COMPOUND_CID>  (1) 
24228

>  <PUBCHEM_CONFORMER_RMSD>  (1) 
0.6

>  <PUBCHEM_CONFORMER_DIVERSEORDER>  (1) 
1
2
3
4

>  <PUBCHEM_MMFF94_PARTIAL_CHARGES>  (1) 
31
1 -0.57
10 0.17
11 0.08
12 -0.15
13 -0.15
14 0.31
16 -0.15
17 -0.15
18 -0.15
19 -0.15
2 -0.57
20 -0.15
21 -0.15
22 -0.15
24 0.15
25 0.15
26 0.15
27 0.15
28 0.15
29 0.15
3 -0.53
30 0.15
31 0.15
32 0.15
33 0.45
4 -0.62
5 0.27
6 0.42
7 0.42
8 0.09
9 0.09

>  <PUBCHEM_EFFECTIVE_ROTOR_COUNT>  (1) 
1.2

>  <PUBCHEM_PHARMACOPHORE_FEATURES>  (1) 
9
1 1 acceptor
1 2 acceptor
1 3 donor
1 4 acceptor
1 5 anion
5 5 6 7 8 9 rings
6 14 15 19 20 21 22 rings
6 4 10 11 14 15 16 rings
6 8 9 12 13 17 18 rings

>  <PUBCHEM_HEAVY_ATOM_COUNT>  (1) 
22

>  <PUBCHEM_ATOM_DEF_STEREO_COUNT>  (1) 
0

>  <PUBCHEM_ATOM_UDEF_STEREO_COUNT>  (1) 
0

>  <PUBCHEM_BOND_DEF_STEREO_COUNT>  (1) 
0

>  <PUBCHEM_BOND_UDEF_STEREO_COUNT>  (1) 
0

>  <PUBCHEM_ISOTOPIC_ATOM_COUNT>  (1) 
0

>  <PUBCHEM_COMPONENT_COUNT>  (1) 
1

>  <PUBCHEM_CACTVS_TAUTO_COUNT>  (1) 
8

>  <PUBCHEM_CONFORMER_ID>  (1) 
00005EA400000001

>  <PUBCHEM_MMFF94_ENERGY>  (1) 
63.9457

>  <PUBCHEM_FEATURE_SELFOVERLAP>  (1) 
45.785

>  <PUBCHEM_SHAPE_FINGERPRINT>  (1) 
10764073 3 15948821022110856673
11578080 2 17559081372849744097
11582403 64 16095927323963890093
12236239 1 17775289395216864529
12363563 72 18261678077927210922
12553582 1 18341897372548066942
12596599 1 17915473696295972634
12596602 18 17131832109483144538
13009979 54 17845947229849272384
13533116 47 18269839877658266699
13544592 145 18040150738969402515
13544653 18 18335423456335890303
13911987 19 17900278690809513988
14767858 380 18263382377549632918
14787075 74 17487893626006235744
15375462 189 17917993927238607067
15475509 35 17769378563263561307
15475509 8 17458617888319549599
17357779 13 17967250901174705711
1813 80 18202013109494978012
19862831 5 13767930113169407758
200 152 18342454846222798971
20028762 73 18131348643608009543
20600515 1 15865184883226520901
20645477 70 18261104239888692349
21033650 10 16154266096630753284
21475661 188 11743577456992765891
221490 88 18335138700273073886
2255824 54 18269842089255492988
23557571 272 17313098691960677621
23559900 14 18187639249672112573
23598288 3 17489870401736460169
27216 239 11311186838114605575
2871803 45 18040149608739116362
3286 77 18335987544492691725
33382 64 18194125338080069035
3411729 13 15409474718425222251
392239 28 17273673499482020674
46194498 28 17458909361120386087
4921388 177 16443357442179808995
5104073 3 18270112393380619378
7970288 3 18341611465208116902
90316 7 17060346210405512673
9709674 26 18188208809775179939

>  <PUBCHEM_SHAPE_MULTIPOLES>  (1) 
430.16
9.44
2.43
1.41
0.52
0.38
0
-6.74
0
2.14
0
-1.76
0.24
0

>  <PUBCHEM_SHAPE_SELFOVERLAP>  (1) 
983.581

>  <PUBCHEM_SHAPE_VOLUME>  (1) 
222.9

>  <PUBCHEM_COORDINATE_TYPE>  (1) 
2
5
10

$$$$
