24239
     RDKit          3D

 12 13  0  0  0  0  0  0  0  0999 V2000
   -3.4642    0.6669   -0.0023 O   0  0  0  0  0  0  0  0  0  0  0  0
   -2.9651   -1.4709   -0.0002 O   0  0  0  0  0  0  0  0  0  0  0  0
    2.2013   -1.3398   -0.0003 N   0  0  0  0  0  0  0  0  0  0  0  0
    3.3277   -0.6077   -0.0008 N   0  0  0  0  0  0  0  0  0  0  0  0
   -2.6236   -0.2640   -0.0002 N   0  0  0  0  0  0  0  0  0  0  0  0
    1.0504   -0.5986    0.0003 C   0  0  0  0  0  0  0  0  0  0  0  0
    1.4690    0.7273   -0.0001 C   0  0  0  0  0  0  0  0  0  0  0  0
   -0.2952   -0.9725    0.0013 C   0  0  0  0  0  0  0  0  0  0  0  0
   -1.2397    0.0591    0.0016 C   0  0  0  0  0  0  0  0  0  0  0  0
    0.5082    1.7522    0.0003 C   0  0  0  0  0  0  0  0  0  0  0  0
   -0.8470    1.3988    0.0012 C   0  0  0  0  0  0  0  0  0  0  0  0
    2.8782    0.6492   -0.0008 C   0  0  0  0  0  0  0  0  0  0  0  0
  1  5  1  0
  2  5  2  0
  3  4  1  0
  3  6  1  0
  4 12  2  0
  5  9  1  0
  6  7  2  0
  6  8  1  0
  7 10  1  0
  7 12  1  0
  8  9  2  0
  9 11  1  0
 10 11  2  0
M  CHG  2   1  -1   5   1
M  END
>  <PUBCHEM_COMPOUND_CID>  (1) 
24239

>  <PUBCHEM_CONFORMER_RMSD>  (1) 
0.4

>  <PUBCHEM_CONFORMER_DIVERSEORDER>  (1) 
1

>  <PUBCHEM_MMFF94_PARTIAL_CHARGES>  (1) 
16
1 -0.52
10 -0.15
11 -0.15
12 0.14
13 0.15
14 0.15
15 0.15
16 0.27
17 0.15
2 -0.52
3 0.3
4 -0.71
5 0.91
6 -0.15
8 -0.15
9 0.13

>  <PUBCHEM_EFFECTIVE_ROTOR_COUNT>  (1) 
1

>  <PUBCHEM_PHARMACOPHORE_FEATURES>  (1) 
7
1 1 acceptor
1 1 anion
1 2 acceptor
1 3 donor
1 4 acceptor
5 3 4 6 7 12 rings
6 6 7 8 9 10 11 rings

>  <PUBCHEM_HEAVY_ATOM_COUNT>  (1) 
12

>  <PUBCHEM_ATOM_DEF_STEREO_COUNT>  (1) 
0

>  <PUBCHEM_ATOM_UDEF_STEREO_COUNT>  (1) 
0

>  <PUBCHEM_BOND_DEF_STEREO_COUNT>  (1) 
0

>  <PUBCHEM_BOND_UDEF_STEREO_COUNT>  (1) 
0

>  <PUBCHEM_ISOTOPIC_ATOM_COUNT>  (1) 
0

>  <PUBCHEM_COMPONENT_COUNT>  (1) 
1

>  <PUBCHEM_CACTVS_TAUTO_COUNT>  (1) 
2

>  <PUBCHEM_CONFORMER_ID>  (1) 
00005EAF00000001

>  <PUBCHEM_MMFF94_ENERGY>  (1) 
26.4604

>  <PUBCHEM_FEATURE_SELFOVERLAP>  (1) 
35.693

>  <PUBCHEM_SHAPE_FINGERPRINT>  (1) 
10130415 120 18335416842091496880
10219947 1 18273497870521970054
10857977 72 18339913887625108424
11471102 20 18410005537872149125
11769659 78 18410005546235360154
12032990 46 18411144640403081374
12897270 3 18410011013839237966
12932764 1 17240754082327190633
14128692 85 18411421743023801085
14325111 11 18410575110469870913
16945 1 18410856576999182212
17844478 74 17967257490008075901
193761 8 17617940227411807686
20201158 50 18408884027253129771
21501925 9 18338786931156336907
23402655 69 18268413673865201349
23463225 33 18409449150618128486
23552423 10 18260551134005581740
2748010 2 18267299837830129964
3312278 4 18410578387640648737
5084963 1 18341895164829167304
528886 8 18411975853950260611
63268167 104 18411986879200082729
8809292 202 18260554428361938875

>  <PUBCHEM_SHAPE_MULTIPOLES>  (1) 
220.27
4.89
1.59
0.58
1.31
0.2
0
-0.95
0
0.05
0
-0.04
0.03
0

>  <PUBCHEM_SHAPE_SELFOVERLAP>  (1) 
486.723

>  <PUBCHEM_SHAPE_VOLUME>  (1) 
120.3

>  <PUBCHEM_COORDINATE_TYPE>  (1) 
2
5
10

$$$$
