24245
     RDKit          3D

 12 11  0  0  0  0  0  0  0  0999 V2000
   -0.4549   -1.6470   -1.4342 O   0  0  0  0  0  0  0  0  0  0  0  0
    0.4546   -1.6448    1.4363 O   0  0  0  0  0  0  0  0  0  0  0  0
   -2.5530    1.5894    1.1102 O   0  0  0  0  0  0  0  0  0  0  0  0
    2.5535    1.5875   -1.1123 O   0  0  0  0  0  0  0  0  0  0  0  0
   -1.6193   -0.0050   -0.2288 N   0  0  0  0  0  0  0  0  0  0  0  0
    1.6192   -0.0047    0.2288 N   0  0  0  0  0  0  0  0  0  0  0  0
   -1.5608    0.8653    0.9762 N   0  0  0  0  0  0  0  0  0  0  0  0
    1.5611    0.8636   -0.9775 N   0  0  0  0  0  0  0  0  0  0  0  0
   -0.5639   -0.8680   -0.4948 C   0  0  0  0  0  0  0  0  0  0  0  0
    0.5639   -0.8674    0.4958 C   0  0  0  0  0  0  0  0  0  0  0  0
   -2.7814    0.0648   -1.1000 C   0  0  0  0  0  0  0  0  0  0  0  0
    2.7810    0.0663    1.1002 C   0  0  0  0  0  0  0  0  0  0  0  0
  1  9  2  0
  2 10  2  0
  3  7  2  0
  4  8  2  0
  5  7  1  0
  5  9  1  0
  5 11  1  0
  6  8  1  0
  6 10  1  0
  6 12  1  0
  9 10  1  0
M  END
>  <PUBCHEM_COMPOUND_CID>  (1) 
24245

>  <PUBCHEM_CONFORMER_RMSD>  (1) 
0.6

>  <PUBCHEM_CONFORMER_DIVERSEORDER>  (1) 
1
49
22
33
16
26
46
51
15
28
41
30
56
53
27
25
45
57
20
18
19
9
37
52
23
29
24
50
43
40
10
11
34
54
5
3
55
17
6
38
48
21
7
47
35
4
42
2
8
31
32
58
44
12
14
39
13
36

>  <PUBCHEM_MMFF94_PARTIAL_CHARGES>  (1) 
12
1 -0.57
10 0.63
11 0.3
12 0.3
2 -0.57
3 -0.16
4 -0.16
5 -0.18
6 -0.18
7 -0.02
8 -0.02
9 0.63

>  <PUBCHEM_EFFECTIVE_ROTOR_COUNT>  (1) 
5

>  <PUBCHEM_PHARMACOPHORE_FEATURES>  (1) 
2
1 1 acceptor
1 2 acceptor

>  <PUBCHEM_HEAVY_ATOM_COUNT>  (1) 
12

>  <PUBCHEM_ATOM_DEF_STEREO_COUNT>  (1) 
0

>  <PUBCHEM_ATOM_UDEF_STEREO_COUNT>  (1) 
0

>  <PUBCHEM_BOND_DEF_STEREO_COUNT>  (1) 
0

>  <PUBCHEM_BOND_UDEF_STEREO_COUNT>  (1) 
0

>  <PUBCHEM_ISOTOPIC_ATOM_COUNT>  (1) 
0

>  <PUBCHEM_COMPONENT_COUNT>  (1) 
1

>  <PUBCHEM_CACTVS_TAUTO_COUNT>  (1) 
1

>  <PUBCHEM_CONFORMER_ID>  (1) 
00005EB500000001

>  <PUBCHEM_MMFF94_ENERGY>  (1) 
20.5052

>  <PUBCHEM_FEATURE_SELFOVERLAP>  (1) 
10.15

>  <PUBCHEM_SHAPE_FINGERPRINT>  (1) 
10857977 72 14056725663967295287
12423570 1 15688688162763054654
12716758 59 17632297895340147446
14817 1 10291667249628724850
15775835 57 18410570686617080996
16945 1 17987797543682438839
17357990 137 18341060626871825448
17834069 17 17386019402283381512
19837323 101 17846788420289280491
20653085 51 18128559170017746940
21040471 1 17988925548081129935
21061003 4 17096638799920446746
22802520 49 16630259021169685605
23402539 116 17130397229554830148
23557571 272 17128725005692303910
430814 3 18337405880074632088
5084963 1 18335410266475454422

>  <PUBCHEM_SHAPE_MULTIPOLES>  (1) 
203.55
3.94
1.57
1.46
0
0.03
0
-1.77
0
0
0
0
-0.07
-1.15

>  <PUBCHEM_SHAPE_SELFOVERLAP>  (1) 
388.045

>  <PUBCHEM_SHAPE_VOLUME>  (1) 
125.2

>  <PUBCHEM_COORDINATE_TYPE>  (1) 
2
5
10

$$$$
