2424
     RDKit          3D

 28 30  0  0  1  0  0  0  0  0999 V2000
   -1.0532   -2.0815    0.4294 O   0  0  0  0  0  0  0  0  0  0  0  0
    0.2189   -2.2453    2.3409 O   0  0  0  0  0  0  0  0  0  0  0  0
   -4.0424    0.0930    0.5657 N   0  0  0  0  0  0  0  0  0  0  0  0
    3.6158    3.0309    0.1185 N   0  0  0  0  0  0  0  0  0  0  0  0
   -1.8674   -1.0342    0.9580 C   0  0  0  0  0  0  0  0  0  0  0  0
   -5.2063    0.1980   -0.3039 C   0  0  0  0  0  0  0  0  0  0  0  0
   -1.0504    0.2668    1.0349 C   0  0  0  0  0  0  0  0  0  0  0  0
   -3.1091   -0.9084    0.0681 C   0  0  0  0  0  0  0  0  0  0  0  0
   -0.5723    0.7851   -0.3297 C   0  0  0  0  0  0  0  0  0  0  0  0
    0.2211    2.0648   -0.2487 C   0  0  0  0  0  0  0  0  0  0  0  0
   -5.9250   -1.1553   -0.3573 C   0  0  0  0  0  0  0  0  0  0  0  0
   -4.7338    0.5991   -1.7053 C   0  0  0  0  0  0  0  0  0  0  0  0
   -6.1437    1.2700    0.2619 C   0  0  0  0  0  0  0  0  0  0  0  0
    1.6152    2.0670   -0.0960 C   0  0  0  0  0  0  0  0  0  0  0  0
    2.2732    3.2970   -0.0297 C   0  0  0  0  0  0  0  0  0  0  0  0
   -0.4742    3.2702   -0.3300 C   0  0  0  0  0  0  0  0  0  0  0  0
    2.6094    1.0551    0.0171 C   0  0  0  0  0  0  0  0  0  0  0  0
    3.8288    1.6789    0.1477 C   0  0  0  0  0  0  0  0  0  0  0  0
    1.5978    4.5200   -0.1091 C   0  0  0  0  0  0  0  0  0  0  0  0
    0.2088    4.4829   -0.2606 C   0  0  0  0  0  0  0  0  0  0  0  0
    0.0717   -2.3700    1.1350 C   0  0  0  0  0  0  0  0  0  0  0  0
    5.1850    1.1200    0.2983 C   0  0  0  0  0  0  0  0  0  0  0  0
    1.1383   -2.8713    0.2319 C   0  0  0  0  0  0  0  0  0  0  0  0
    2.3608   -3.2164    0.7709 C   0  0  0  0  0  0  0  0  0  0  0  0
    0.8739   -2.9769   -1.1183 C   0  0  0  0  0  0  0  0  0  0  0  0
    3.3628   -3.6876   -0.0773 C   0  0  0  0  0  0  0  0  0  0  0  0
    1.8760   -3.4483   -1.9665 C   0  0  0  0  0  0  0  0  0  0  0  0
    3.1204   -3.8036   -1.4459 C   0  0  0  0  0  0  0  0  0  0  0  0
  1  5  1  0
  1 21  1  0
  2 21  2  0
  3  6  1  0
  3  8  1  0
  4 15  1  0
  4 18  1  0
  5  7  1  0
  5  8  1  0
  6 11  1  0
  6 12  1  0
  6 13  1  0
  7  9  1  0
  9 10  1  0
 10 14  1  0
 10 16  2  0
 14 15  2  0
 14 17  1  0
 15 19  1  0
 16 20  1  0
 17 18  2  0
 18 22  1  0
 19 20  2  0
 21 23  1  0
 23 24  2  0
 23 25  1  0
 24 26  1  0
 25 27  2  0
 26 28  2  0
 27 28  1  0
M  END
>  <PUBCHEM_COMPOUND_CID>  (1) 
2424

>  <PUBCHEM_CONFORMER_RMSD>  (1) 
1

>  <PUBCHEM_CONFORMER_DIVERSEORDER>  (1) 
1
156
120
21
53
223
148
47
76
10
19
27
131
216
136
190
78
117
221
125
22
146
41
160
48
157
164
62
219
181
218
42
118
106
130
61
172
226
202
64
123
207
44
209
4
70
201
152
187
46
142
220
230
54
192
45
93
155
105
92
103
77
97
222
13
243
213
178
195
68
96
94
191
60
43
52
210
40
113
177
51
224
59
114
6
69
212
129
228
184
151
17
110
34
215
133
150
189
173
197
66
112
194
55
128
208
132
12
143
107
49
58
141
168
71
188
145
174
203
162
139
227
31
36
124
72
2
238
115
225
25
158
186
176
185
23
88
98
89
235
38
101
26
35
24
153
81
240
175
83
63
166
3
193
15
242
74
241
11
198
126
135
161
119
121
138
127
39
56
95
200
137
57
29
30
140
86
116
108
234
102
67
196
7
28
65
82
163
79
211
217
16
147
237
149
199
99
37
90
33
32
50
9
229
134
154
214
180
167
206
183
205
85
5
91
84
231
104
100
80
14
232
170
109
87
144
122
75
204
20
18
8
233
182
236
171
169
73
111
165
239
159
179

>  <PUBCHEM_MMFF94_PARTIAL_CHARGES>  (1) 
34
1 -0.43
10 -0.14
15 -0.15
16 -0.15
17 -0.15
18 -0.33
19 -0.15
2 -0.57
20 -0.15
21 0.63
22 0.18
23 0.09
24 -0.15
25 -0.15
26 -0.15
27 -0.15
28 -0.15
3 -0.9
36 0.36
4 0.03
46 0.15
47 0.15
48 0.27
49 0.15
5 0.28
50 0.15
54 0.15
55 0.15
56 0.15
57 0.15
58 0.15
6 0.27
8 0.27
9 0.14

>  <PUBCHEM_EFFECTIVE_ROTOR_COUNT>  (1) 
9

>  <PUBCHEM_PHARMACOPHORE_FEATURES>  (1) 
9
1 2 acceptor
1 3 cation
1 3 donor
1 4 cation
1 4 donor
4 6 11 12 13 hydrophobe
5 4 14 15 17 18 rings
6 10 14 15 16 19 20 rings
6 23 24 25 26 27 28 rings

>  <PUBCHEM_HEAVY_ATOM_COUNT>  (1) 
28

>  <PUBCHEM_ATOM_DEF_STEREO_COUNT>  (1) 
0

>  <PUBCHEM_ATOM_UDEF_STEREO_COUNT>  (1) 
1

>  <PUBCHEM_BOND_DEF_STEREO_COUNT>  (1) 
0

>  <PUBCHEM_BOND_UDEF_STEREO_COUNT>  (1) 
0

>  <PUBCHEM_ISOTOPIC_ATOM_COUNT>  (1) 
0

>  <PUBCHEM_COMPONENT_COUNT>  (1) 
1

>  <PUBCHEM_CACTVS_TAUTO_COUNT>  (1) 
1

>  <PUBCHEM_CONFORMER_ID>  (1) 
0000097800000001

>  <PUBCHEM_MMFF94_ENERGY>  (1) 
62.3268

>  <PUBCHEM_FEATURE_SELFOVERLAP>  (1) 
45.762

>  <PUBCHEM_SHAPE_FINGERPRINT>  (1) 
10050765 1 18410294719180790059
10411042 1 18121499055458634667
10556698 54 17319814350639388341
10675989 125 18411423937995670089
10940486 97 17541664254278659444
12156800 1 15503481635513483686
12788726 201 17612879188875801019
13590594 115 18049736113794645953
1361 2 18341611559543649854
138480 1 18338235959824590435
14117953 113 18411981386533101148
14681490 219 18337957774840333996
14725015 67 18265044753084128674
15081414 286 18409733932962575153
15775530 1 17824571740306003395
1813 80 18055630621358933775
20028762 73 18268986660698153237
20642791 35 18048035169195602321
20775438 99 17402857078580401141
21344244 246 18341327881417826983
21860390 5 18411136922320710974
23559900 14 18196090169253348232
3298306 158 18336551628301577182
38695281 34 18341891960910483311
4017518 198 18058172903148787534
5171179 24 18126004858672571232
5265222 85 17974583686345291788
532947 4 18410016541562660539
57527358 35 15768679489731960432
59755656 215 18335422344398153694
6138700 20 18408885152951084970
6443956 14 18336267846911610661
6700243 42 17339293216120546270

>  <PUBCHEM_SHAPE_MULTIPOLES>  (1) 
554.53
9.93
6.85
1.31
15.83
2.14
0.05
-0.43
1.37
-8.72
1.26
0.03
-1.36
1.07

>  <PUBCHEM_SHAPE_SELFOVERLAP>  (1) 
1179.411

>  <PUBCHEM_SHAPE_VOLUME>  (1) 
311.9

>  <PUBCHEM_COORDINATE_TYPE>  (1) 
2
5
10

$$$$
