24254
     RDKit          3D

 16 17  0  0  1  0  0  0  0  0999 V2000
    1.2882    1.2080   -0.7233 C   0  0  0  0  0  0  0  0  0  0  0  0
    2.3896    0.2713   -0.2537 C   0  0  0  0  0  0  0  0  0  0  0  0
   -0.0489    0.8285   -0.1268 C   0  0  0  0  0  0  0  0  0  0  0  0
    1.5976    2.6793   -0.4218 C   0  0  0  0  0  0  0  0  0  0  0  0
    3.0893    0.5840    0.8950 C   0  0  0  0  0  0  0  0  0  0  0  0
    2.6596   -0.8658   -0.9893 C   0  0  0  0  0  0  0  0  0  0  0  0
   -1.1249    0.4585   -0.8588 C   0  0  0  0  0  0  0  0  0  0  0  0
   -2.4233    0.0771   -0.3258 C   0  0  0  0  0  0  0  0  0  0  0  0
    4.1000   -0.2754    1.3257 C   0  0  0  0  0  0  0  0  0  0  0  0
    3.6702   -1.7253   -0.5584 C   0  0  0  0  0  0  0  0  0  0  0  0
    4.3904   -1.4301    0.5990 C   0  0  0  0  0  0  0  0  0  0  0  0
   -2.7855    0.4566    0.9667 C   0  0  0  0  0  0  0  0  0  0  0  0
   -3.3063   -0.6685   -1.1070 C   0  0  0  0  0  0  0  0  0  0  0  0
   -4.0307    0.0906    1.4778 C   0  0  0  0  0  0  0  0  0  0  0  0
   -4.5515   -1.0342   -0.5959 C   0  0  0  0  0  0  0  0  0  0  0  0
   -4.9138   -0.6547    0.6965 C   0  0  0  0  0  0  0  0  0  0  0  0
  1  2  1  0
  1  3  1  0
  1  4  1  0
  2  5  2  0
  2  6  1  0
  3  7  2  0
  5  9  1  0
  6 10  2  0
  7  8  1  0
  8 12  2  0
  8 13  1  0
  9 11  2  0
 10 11  1  0
 12 14  1  0
 13 15  2  0
 14 16  2  0
 15 16  1  0
M  END
>  <PUBCHEM_COMPOUND_CID>  (1) 
24254

>  <PUBCHEM_CONFORMER_RMSD>  (1) 
0.6

>  <PUBCHEM_CONFORMER_DIVERSEORDER>  (1) 
3
2
13
5
7
11
1
12
9
8
6
4
10

>  <PUBCHEM_MMFF94_PARTIAL_CHARGES>  (1) 
27
1 0.28
10 -0.15
11 -0.15
12 -0.15
13 -0.15
14 -0.15
15 -0.15
16 -0.15
18 0.15
2 -0.14
22 0.15
23 0.15
24 0.15
25 0.15
26 0.15
27 0.15
28 0.15
29 0.15
3 -0.29
30 0.15
31 0.15
32 0.15
5 -0.15
6 -0.15
7 -0.18
8 0.03
9 -0.15

>  <PUBCHEM_EFFECTIVE_ROTOR_COUNT>  (1) 
3

>  <PUBCHEM_PHARMACOPHORE_FEATURES>  (1) 
3
1 4 hydrophobe
6 2 5 6 9 10 11 rings
6 8 12 13 14 15 16 rings

>  <PUBCHEM_HEAVY_ATOM_COUNT>  (1) 
16

>  <PUBCHEM_ATOM_DEF_STEREO_COUNT>  (1) 
0

>  <PUBCHEM_ATOM_UDEF_STEREO_COUNT>  (1) 
1

>  <PUBCHEM_BOND_DEF_STEREO_COUNT>  (1) 
0

>  <PUBCHEM_BOND_UDEF_STEREO_COUNT>  (1) 
1

>  <PUBCHEM_ISOTOPIC_ATOM_COUNT>  (1) 
0

>  <PUBCHEM_COMPONENT_COUNT>  (1) 
1

>  <PUBCHEM_CACTVS_TAUTO_COUNT>  (1) 
1

>  <PUBCHEM_CONFORMER_ID>  (1) 
00005EBE00000003

>  <PUBCHEM_MMFF94_ENERGY>  (1) 
44.2232

>  <PUBCHEM_FEATURE_SELFOVERLAP>  (1) 
15.223

>  <PUBCHEM_SHAPE_FINGERPRINT>  (1) 
11128504 68 12251905901685960203
11543360 7 13767934519684462574
11796584 16 16877937209402628634
12363563 72 18113339686958182036
12553582 1 18410580569563215222
12596602 18 17489303105117873754
12644460 14 18336834203254418444
12670546 177 13190341261893850547
12707595 3 17894632556359638044
12892183 10 17346876728326333178
13464513 79 18410292502360512794
13533116 47 18339366383044074475
13583140 156 16916770856352365649
13675066 3 17917435298106746285
1420 369 18410293605539431843
14251758 9 18340211778600132237
14252887 29 18410569574831916096
14341114 328 16558742447182723266
14366163 111 12107786311062897775
15188451 53 17917136282758379967
15210252 30 10303812098962276334
15239191 94 17749112201023897211
15342168 16 10952051173712685563
15885798 251 18408326562099805793
17870717 6 16081088147900419563
1798214 55 10952044563547007266
1813 80 18336554832637408380
18186145 218 16805324413885747781
19050596 39 17632858646243867959
193927 3 18041006106874811506
19862831 5 12973602231307443477
20281475 54 18410295851933623197
20325693 3 14490190497442437747
20369508 70 17676481774402620136
20432913 95 18410855455938923563
20645477 70 18114174289287435333
20671657 53 17821445759432393501
20871999 31 14490194903656792853
21065198 48 17561082514139441339
21065199 12 17203328879502284530
21501925 9 18341890805279249228
21756936 100 15121789670709280360
2215653 11 17168135759367014767
2255824 54 18338242690339244820
22646028 1 18341895203589348399
22646028 28 18409449184872391311
23402655 69 12179847173876970822
23503953 91 18131072658073054255
23557571 272 15502642849769909700
23559900 14 16153423991062088829
312423 11 18114756983337969885
32948 21 15647323122540038911
341906 21 15841562863909203185
4028521 119 8862942771079263971
42 15 17989489610605050275
4990 188 12973604421919988978
5104073 3 18271536402756724163
5374978 207 16917073269653060995
573450 72 17703793626468039859
5924683 9 16845279580155287279
7808743 9 12606531430280025346
90316 7 17846511309448242649
960060 61 16226048907230126039
9841814 1 18333733528971864204

>  <PUBCHEM_SHAPE_MULTIPOLES>  (1) 
329.27
10.81
1.74
1.3
5.04
0.72
-0.24
-5.26
-2.81
-1.71
0.36
0.28
-0.08
-0.32

>  <PUBCHEM_SHAPE_SELFOVERLAP>  (1) 
697.835

>  <PUBCHEM_SHAPE_VOLUME>  (1) 
175.6

>  <PUBCHEM_COORDINATE_TYPE>  (1) 
2
5
10

$$$$
