24259
     RDKit          3D

 10 10  0  0  0  0  0  0  0  0999 V2000
    1.9028    1.6847    0.5587 O   0  0  0  0  0  0  0  0  0  0  0  0
    1.9032   -1.6847    0.5581 O   0  0  0  0  0  0  0  0  0  0  0  0
    1.2763    1.4236   -0.4768 N   0  0  0  0  0  0  0  0  0  0  0  0
    1.2763   -1.4233   -0.4771 N   0  0  0  0  0  0  0  0  0  0  0  0
    0.1264    0.6978   -0.2550 C   0  0  0  0  0  0  0  0  0  0  0  0
    0.1269   -0.6971   -0.2547 C   0  0  0  0  0  0  0  0  0  0  0  0
   -1.0602    1.3948   -0.0273 C   0  0  0  0  0  0  0  0  0  0  0  0
   -1.0593   -1.3949   -0.0269 C   0  0  0  0  0  0  0  0  0  0  0  0
   -2.2463    0.6969    0.2004 C   0  0  0  0  0  0  0  0  0  0  0  0
   -2.2459   -0.6979    0.2006 C   0  0  0  0  0  0  0  0  0  0  0  0
  1  3  2  0
  2  4  2  0
  3  5  1  0
  4  6  1  0
  5  6  2  0
  5  7  1  0
  6  8  1  0
  7  9  2  0
  8 10  2  0
  9 10  1  0
M  END
>  <PUBCHEM_COMPOUND_CID>  (1) 
24259

>  <PUBCHEM_CONFORMER_RMSD>  (1) 
0.4

>  <PUBCHEM_CONFORMER_DIVERSEORDER>  (1) 
1
4
7
6
2
3
5

>  <PUBCHEM_MMFF94_PARTIAL_CHARGES>  (1) 
14
1 -0.16
10 -0.15
11 0.15
12 0.15
13 0.15
14 0.15
2 -0.16
3 -0.14
4 -0.14
5 0.3
6 0.3
7 -0.15
8 -0.15
9 -0.15

>  <PUBCHEM_EFFECTIVE_ROTOR_COUNT>  (1) 
2

>  <PUBCHEM_PHARMACOPHORE_FEATURES>  (1) 
1
6 5 6 7 8 9 10 rings

>  <PUBCHEM_HEAVY_ATOM_COUNT>  (1) 
10

>  <PUBCHEM_ATOM_DEF_STEREO_COUNT>  (1) 
0

>  <PUBCHEM_ATOM_UDEF_STEREO_COUNT>  (1) 
0

>  <PUBCHEM_BOND_DEF_STEREO_COUNT>  (1) 
0

>  <PUBCHEM_BOND_UDEF_STEREO_COUNT>  (1) 
0

>  <PUBCHEM_ISOTOPIC_ATOM_COUNT>  (1) 
0

>  <PUBCHEM_COMPONENT_COUNT>  (1) 
1

>  <PUBCHEM_CACTVS_TAUTO_COUNT>  (1) 
1

>  <PUBCHEM_CONFORMER_ID>  (1) 
00005EC300000001

>  <PUBCHEM_MMFF94_ENERGY>  (1) 
28.2682

>  <PUBCHEM_FEATURE_SELFOVERLAP>  (1) 
5.074

>  <PUBCHEM_SHAPE_FINGERPRINT>  (1) 
12423570 1 15303620572454268429
16945 1 18410857659251637703
18185500 45 18124597745576470071
21040471 1 18267313212284508045
23552423 10 18261402190444340199
241688 4 18261959527007562793
2748010 2 18409173207812405405
5084963 1 17769393938359549065

>  <PUBCHEM_SHAPE_MULTIPOLES>  (1) 
184.09
2.78
2.03
0.69
0.3
0
0.01
0
0.41
-0.82
0.1
-0.09
0
0

>  <PUBCHEM_SHAPE_SELFOVERLAP>  (1) 
387.589

>  <PUBCHEM_SHAPE_VOLUME>  (1) 
103.9

>  <PUBCHEM_COORDINATE_TYPE>  (1) 
2
5
10

$$$$
