24260
     RDKit          3D

 17 19  0  0  0  0  0  0  0  0999 V2000
   -0.5570    0.9474   -0.1774 N   0  0  0  0  0  0  0  0  0  0  0  0
   -0.4537   -1.2346    0.2331 N   0  0  0  0  0  0  0  0  0  0  0  0
   -5.4971    1.0722   -0.2083 N   0  0  0  0  0  0  0  0  0  0  0  0
    5.8745    0.2383   -0.0409 N   0  0  0  0  0  0  0  0  0  0  0  0
   -1.8600    0.5274   -0.1004 C   0  0  0  0  0  0  0  0  0  0  0  0
    0.2451   -0.1406    0.0280 C   0  0  0  0  0  0  0  0  0  0  0  0
   -1.7691   -0.8378    0.1564 C   0  0  0  0  0  0  0  0  0  0  0  0
    1.6845   -0.0430    0.0099 C   0  0  0  0  0  0  0  0  0  0  0  0
   -3.0735    1.2039   -0.2293 C   0  0  0  0  0  0  0  0  0  0  0  0
   -2.9486   -1.5886    0.2960 C   0  0  0  0  0  0  0  0  0  0  0  0
   -4.2375    0.4412   -0.0878 C   0  0  0  0  0  0  0  0  0  0  0  0
   -4.1784   -0.9304    0.1705 C   0  0  0  0  0  0  0  0  0  0  0  0
    2.4514   -1.1333   -0.4001 C   0  0  0  0  0  0  0  0  0  0  0  0
    2.3085    1.1406    0.4034 C   0  0  0  0  0  0  0  0  0  0  0  0
    3.8430   -1.0400   -0.4166 C   0  0  0  0  0  0  0  0  0  0  0  0
    3.7002    1.2339    0.3868 C   0  0  0  0  0  0  0  0  0  0  0  0
    4.4675    0.1435   -0.0232 C   0  0  0  0  0  0  0  0  0  0  0  0
  1  5  1  0
  1  6  1  0
  2  6  2  0
  2  7  1  0
  3 11  1  0
  4 17  1  0
  5  7  2  0
  5  9  1  0
  6  8  1  0
  7 10  1  0
  8 13  2  0
  8 14  1  0
  9 11  2  0
 10 12  2  0
 11 12  1  0
 13 15  1  0
 14 16  2  0
 15 17  2  0
 16 17  1  0
M  END
>  <PUBCHEM_COMPOUND_CID>  (1) 
24260

>  <PUBCHEM_CONFORMER_RMSD>  (1) 
0.6

>  <PUBCHEM_CONFORMER_DIVERSEORDER>  (1) 
1

>  <PUBCHEM_MMFF94_PARTIAL_CHARGES>  (1) 
29
1 0.03
10 -0.15
11 0.1
12 -0.15
13 -0.15
14 -0.15
15 -0.15
16 -0.15
17 0.1
18 0.27
19 0.15
2 -0.57
20 0.15
21 0.15
22 0.15
23 0.15
24 0.15
25 0.15
26 0.4
27 0.4
28 0.4
29 0.4
3 -0.9
4 -0.9
5 -0.15
6 0.13
7 0.23
8 0.05
9 -0.15

>  <PUBCHEM_EFFECTIVE_ROTOR_COUNT>  (1) 
1

>  <PUBCHEM_PHARMACOPHORE_FEATURES>  (1) 
9
1 1 donor
1 3 cation
1 3 donor
1 4 cation
1 4 donor
3 1 2 6 cation
5 1 2 5 6 7 rings
6 5 7 9 10 11 12 rings
6 8 13 14 15 16 17 rings

>  <PUBCHEM_HEAVY_ATOM_COUNT>  (1) 
17

>  <PUBCHEM_ATOM_DEF_STEREO_COUNT>  (1) 
0

>  <PUBCHEM_ATOM_UDEF_STEREO_COUNT>  (1) 
0

>  <PUBCHEM_BOND_DEF_STEREO_COUNT>  (1) 
0

>  <PUBCHEM_BOND_UDEF_STEREO_COUNT>  (1) 
0

>  <PUBCHEM_ISOTOPIC_ATOM_COUNT>  (1) 
0

>  <PUBCHEM_COMPONENT_COUNT>  (1) 
1

>  <PUBCHEM_CACTVS_TAUTO_COUNT>  (1) 
5

>  <PUBCHEM_CONFORMER_ID>  (1) 
00005EC400000001

>  <PUBCHEM_MMFF94_ENERGY>  (1) 
59.3767

>  <PUBCHEM_FEATURE_SELFOVERLAP>  (1) 
45.779

>  <PUBCHEM_SHAPE_FINGERPRINT>  (1) 
10014705 185 18334010597343530997
10608611 8 18411979182613491280
11132069 177 18260830406101971461
11315181 36 18202288013403723720
11401426 45 18407759235737830999
11471102 20 18273496767253321606
11615757 297 17346603001365090714
12107183 9 17688869735525872376
12236239 1 16805041822138055012
13214271 11 18411418432068298191
13675066 3 18261680349980689299
15196674 1 18410293652662466976
15219456 202 18342177773450488102
15242439 84 18413671305185853332
15375358 24 18412546513322843206
15536298 74 18413389843194232362
17834072 33 18059571429318405886
18186145 218 18113891667491139927
200 152 17561081406138131603
20279233 1 18341620316834162894
20645477 56 18334294254131985933
20645477 70 17988646233916406222
21065198 57 18411701010450566658
21267235 1 18409739485896300850
23402539 116 18412257358944315183
23402655 69 18273214188095580076
23559900 14 18412823599196190888
26918003 58 18343581845725594090
300161 21 18334006185852903178
3004659 81 18261396590767549622
34934 24 18409443674424387583
351380 180 18413668010919537572
3545911 37 18411139129833173709
4214541 1 18410856572746283049
42788 4 18410575093258301260
474 4 16227185897322802444
4990 188 18342461430597639366
5104073 3 18410574002378885018
542803 24 17022905661693670550
633830 44 17967530215793532678
69090 78 18343298184531759255
77779 3 18411702101314211506
9709674 26 18411706508019891694

>  <PUBCHEM_SHAPE_MULTIPOLES>  (1) 
329.93
11.34
1.47
0.66
2.25
0.12
0
-1.55
0.38
-0.48
-0.04
0.06
0.01
0.64

>  <PUBCHEM_SHAPE_SELFOVERLAP>  (1) 
738.74

>  <PUBCHEM_SHAPE_VOLUME>  (1) 
176.4

>  <PUBCHEM_COORDINATE_TYPE>  (1) 
2
5
10

$$$$
