24278
     RDKit          3D

 12 13  0  0  0  0  0  0  0  0999 V2000
   -0.0004    0.7716   -0.4957 C   0  0  0  0  0  0  0  0  0  0  0  0
    0.0004   -0.7711   -0.4960 C   0  0  0  0  0  0  0  0  0  0  0  0
    1.2957    0.6746    0.2816 C   0  0  0  0  0  0  0  0  0  0  0  0
   -1.2965    0.6732    0.2815 C   0  0  0  0  0  0  0  0  0  0  0  0
    1.2964   -0.6730    0.2814 C   0  0  0  0  0  0  0  0  0  0  0  0
   -1.2954   -0.6744    0.2817 C   0  0  0  0  0  0  0  0  0  0  0  0
   -0.0012    1.5301   -1.7904 C   0  0  0  0  0  0  0  0  0  0  0  0
    0.0006   -1.5306   -1.7896 C   0  0  0  0  0  0  0  0  0  0  0  0
    2.2525    1.7284    0.8621 C   0  0  0  0  0  0  0  0  0  0  0  0
   -2.2558    1.7255    0.8609 C   0  0  0  0  0  0  0  0  0  0  0  0
    2.2558   -1.7257    0.8604 C   0  0  0  0  0  0  0  0  0  0  0  0
   -2.2522   -1.7286    0.8621 C   0  0  0  0  0  0  0  0  0  0  0  0
  1  2  1  0
  1  3  1  0
  1  4  1  0
  1  7  1  0
  2  5  1  0
  2  6  1  0
  2  8  1  0
  3  5  2  0
  3  9  1  0
  4  6  2  0
  4 10  1  0
  5 11  1  0
  6 12  1  0
M  END
>  <PUBCHEM_COMPOUND_CID>  (1) 
24278

>  <PUBCHEM_CONFORMER_RMSD>  (1) 
0.4

>  <PUBCHEM_CONFORMER_DIVERSEORDER>  (1) 
1

>  <PUBCHEM_MMFF94_PARTIAL_CHARGES>  (1) 
10
1 0.28
10 0.17
11 0.17
12 0.17
2 0.28
3 -0.3
4 -0.3
5 -0.3
6 -0.3
9 0.17

>  <PUBCHEM_EFFECTIVE_ROTOR_COUNT>  (1) 
0

>  <PUBCHEM_PHARMACOPHORE_FEATURES>  (1) 
1
6 1 2 3 4 5 6 rings

>  <PUBCHEM_HEAVY_ATOM_COUNT>  (1) 
12

>  <PUBCHEM_ATOM_DEF_STEREO_COUNT>  (1) 
0

>  <PUBCHEM_ATOM_UDEF_STEREO_COUNT>  (1) 
0

>  <PUBCHEM_BOND_DEF_STEREO_COUNT>  (1) 
0

>  <PUBCHEM_BOND_UDEF_STEREO_COUNT>  (1) 
0

>  <PUBCHEM_ISOTOPIC_ATOM_COUNT>  (1) 
0

>  <PUBCHEM_COMPONENT_COUNT>  (1) 
1

>  <PUBCHEM_CACTVS_TAUTO_COUNT>  (1) 
1

>  <PUBCHEM_CONFORMER_ID>  (1) 
00005ED600000001

>  <PUBCHEM_MMFF94_ENERGY>  (1) 
14.618

>  <PUBCHEM_FEATURE_SELFOVERLAP>  (1) 
5.074

>  <PUBCHEM_SHAPE_FINGERPRINT>  (1) 
12423570 1 12580337248768552950
13024252 1 17027955516747476418
137420 1 15334008672595326838
16945 1 18410855455833194752
20344682 10 17906172102491243082
20511035 2 18412265016897455369
21922407 69 17679611057477936233
241688 4 17967530142720910827
2748010 2 18410856568229724285
369184 2 16301441367474924312
5084963 1 18050820278881520797
54276843 12 17976274739222331374
68250623 7 18335436654991988882

>  <PUBCHEM_SHAPE_MULTIPOLES>  (1) 
246.95
2.87
2.25
1.47
0
0
0.76
0
-1.62
0
-0.15
0
0
0

>  <PUBCHEM_SHAPE_SELFOVERLAP>  (1) 
513.088

>  <PUBCHEM_SHAPE_VOLUME>  (1) 
150.1

>  <PUBCHEM_COORDINATE_TYPE>  (1) 
2
5
10

$$$$
