24274
     RDKit          3D

 11 12  0  0  0  0  0  0  0  0999 V2000
   -3.3957   -0.6221    0.0303 O   0  0  0  0  0  0  0  0  0  0  0  0
   -1.3345   -0.1092    0.0112 N   0  0  0  0  0  0  0  0  0  0  0  0
   -2.2489   -1.0802    0.0257 N   0  0  0  0  0  0  0  0  0  0  0  0
   -0.2099    2.0519    0.0860 C   0  0  0  0  0  0  0  0  0  0  0  0
   -1.5534    1.3353   -0.1461 C   0  0  0  0  0  0  0  0  0  0  0  0
    0.7568    0.9204    0.0139 C   0  0  0  0  0  0  0  0  0  0  0  0
    0.0653   -0.2946    0.0026 C   0  0  0  0  0  0  0  0  0  0  0  0
    2.1408    0.9739    0.0125 C   0  0  0  0  0  0  0  0  0  0  0  0
    0.7674   -1.4930   -0.0093 C   0  0  0  0  0  0  0  0  0  0  0  0
    2.8471   -0.2286   -0.0085 C   0  0  0  0  0  0  0  0  0  0  0  0
    2.1651   -1.4539   -0.0182 C   0  0  0  0  0  0  0  0  0  0  0  0
  1  3  2  0
  2  3  1  0
  2  5  1  0
  2  7  1  0
  4  5  1  0
  4  6  1  0
  6  7  2  0
  6  8  1  0
  7  9  1  0
  8 10  2  0
  9 11  2  0
 10 11  1  0
M  END
>  <PUBCHEM_COMPOUND_CID>  (1) 
24274

>  <PUBCHEM_CONFORMER_RMSD>  (1) 
0.4

>  <PUBCHEM_CONFORMER_DIVERSEORDER>  (1) 
1
2

>  <PUBCHEM_MMFF94_PARTIAL_CHARGES>  (1) 
14
1 -0.16
10 -0.15
11 -0.15
16 0.15
17 0.15
18 0.15
19 0.15
2 -0.3
4 0.14
5 0.37
6 -0.14
7 0.1
8 -0.15
9 -0.15

>  <PUBCHEM_EFFECTIVE_ROTOR_COUNT>  (1) 
1.6

>  <PUBCHEM_PHARMACOPHORE_FEATURES>  (1) 
2
5 2 4 5 6 7 rings
6 6 7 8 9 10 11 rings

>  <PUBCHEM_HEAVY_ATOM_COUNT>  (1) 
11

>  <PUBCHEM_ATOM_DEF_STEREO_COUNT>  (1) 
0

>  <PUBCHEM_ATOM_UDEF_STEREO_COUNT>  (1) 
0

>  <PUBCHEM_BOND_DEF_STEREO_COUNT>  (1) 
0

>  <PUBCHEM_BOND_UDEF_STEREO_COUNT>  (1) 
0

>  <PUBCHEM_ISOTOPIC_ATOM_COUNT>  (1) 
0

>  <PUBCHEM_COMPONENT_COUNT>  (1) 
1

>  <PUBCHEM_CACTVS_TAUTO_COUNT>  (1) 
1

>  <PUBCHEM_CONFORMER_ID>  (1) 
00005ED200000001

>  <PUBCHEM_MMFF94_ENERGY>  (1) 
30.8067

>  <PUBCHEM_FEATURE_SELFOVERLAP>  (1) 
10.237

>  <PUBCHEM_SHAPE_FINGERPRINT>  (1) 
10219947 1 18340771541186471587
10857977 72 18339911671553800552
11206711 2 18335988575416569012
12423570 1 16045030496858397660
12897270 3 18410011018144800302
14128692 85 18411144597611371764
161256 15 18413106177810736908
16945 1 18338515343331459036
193761 8 18050568434952769962
19973954 147 18267304240219041964
20201158 50 18334856134253649555
20871998 184 18129938953735959462
20871998 22 18270973348938558279
21040471 1 18410574011475162348
21501502 16 18337956671096996728
23402655 69 18268131094992211893
23552423 10 18260834739533971582
23559900 14 17334497104468768430
241688 4 18336266717504120928
2748010 2 18411413969280720956
29004967 10 18409731789377917752
5084963 1 18272373057584653786
528886 8 18339920527681536170

>  <PUBCHEM_SHAPE_MULTIPOLES>  (1) 
210.54
3.93
1.9
0.6
1.22
0.37
0
-1.22
0.01
0.09
-0.02
-0.06
0.02
0.05

>  <PUBCHEM_SHAPE_SELFOVERLAP>  (1) 
452.92

>  <PUBCHEM_SHAPE_VOLUME>  (1) 
117.2

>  <PUBCHEM_COORDINATE_TYPE>  (1) 
2
5
10

$$$$
