2428
     RDKit          3D

 21 24  0  0  0  0  0  0  0  0999 V2000
    5.2509   -0.9926   -2.2257 Br  0  0  0  0  0  0  0  0  0  0  0  0
   -3.7898    2.2174   -0.3420 N   0  0  0  0  0  0  0  0  0  0  0  0
    1.1106    0.5240    0.6794 N   0  0  0  0  0  0  0  0  0  0  0  0
   -5.1213    0.4490   -0.5393 N   0  0  0  0  0  0  0  0  0  0  0  0
   -1.4645   -2.6886    0.2904 N   0  0  0  0  0  0  0  0  0  0  0  0
    0.7351   -1.7959    0.6915 N   0  0  0  0  0  0  0  0  0  0  0  0
   -1.1288   -0.3130    0.2709 C   0  0  0  0  0  0  0  0  0  0  0  0
   -2.9840    1.1261   -0.1449 C   0  0  0  0  0  0  0  0  0  0  0  0
   -1.9550   -1.4456    0.1493 C   0  0  0  0  0  0  0  0  0  0  0  0
   -3.8360    0.0372   -0.2728 C   0  0  0  0  0  0  0  0  0  0  0  0
   -1.6244    0.9978    0.1265 C   0  0  0  0  0  0  0  0  0  0  0  0
    0.2121   -0.5640    0.5438 C   0  0  0  0  0  0  0  0  0  0  0  0
   -3.3115   -1.2595   -0.1235 C   0  0  0  0  0  0  0  0  0  0  0  0
    2.4825    0.6575    0.4148 C   0  0  0  0  0  0  0  0  0  0  0  0
   -5.0578    1.7614   -0.5741 C   0  0  0  0  0  0  0  0  0  0  0  0
   -0.1471   -2.7973    0.5539 C   0  0  0  0  0  0  0  0  0  0  0  0
    3.0829   -0.0992   -0.5961 C   0  0  0  0  0  0  0  0  0  0  0  0
    3.2595    1.5481    1.1622 C   0  0  0  0  0  0  0  0  0  0  0  0
    4.4467    0.0332   -0.8572 C   0  0  0  0  0  0  0  0  0  0  0  0
    4.6231    1.6806    0.9013 C   0  0  0  0  0  0  0  0  0  0  0  0
    5.2168    0.9232   -0.1085 C   0  0  0  0  0  0  0  0  0  0  0  0
  1 19  1  0
  2  8  1  0
  2 15  1  0
  3 12  1  0
  3 14  1  0
  4 10  1  0
  4 15  2  0
  5  9  1  0
  5 16  2  0
  6 12  2  0
  6 16  1  0
  7  9  1  0
  7 11  2  0
  7 12  1  0
  8 10  2  0
  8 11  1  0
  9 13  2  0
 10 13  1  0
 14 17  2  0
 14 18  1  0
 17 19  1  0
 18 20  2  0
 19 21  2  0
 20 21  1  0
M  END
>  <PUBCHEM_COMPOUND_CID>  (1) 
2428

>  <PUBCHEM_CONFORMER_RMSD>  (1) 
0.6

>  <PUBCHEM_CONFORMER_DIVERSEORDER>  (1) 
1
11
8
12
2
7
6
14
4
13
17
3
16
15
5
10
9
18

>  <PUBCHEM_MMFF94_PARTIAL_CHARGES>  (1) 
30
1 -0.11
10 0.23
11 -0.15
12 0.41
13 -0.15
14 0.1
15 0.04
16 0.47
17 -0.15
18 -0.15
19 0.11
2 0.03
20 -0.15
21 -0.15
22 0.15
23 0.15
24 0.27
25 0.4
26 0.15
27 0.15
28 0.15
29 0.15
3 -0.6
30 0.15
31 0.15
4 -0.57
5 -0.62
6 -0.62
8 -0.15
9 0.31

>  <PUBCHEM_EFFECTIVE_ROTOR_COUNT>  (1) 
2

>  <PUBCHEM_PHARMACOPHORE_FEATURES>  (1) 
10
1 1 hydrophobe
1 2 donor
1 3 donor
3 2 4 15 cation
3 3 6 12 cation
3 5 6 16 cation
5 2 4 8 10 15 rings
6 14 17 18 19 20 21 rings
6 5 6 7 9 12 16 rings
6 7 8 9 10 11 13 rings

>  <PUBCHEM_HEAVY_ATOM_COUNT>  (1) 
21

>  <PUBCHEM_ATOM_DEF_STEREO_COUNT>  (1) 
0

>  <PUBCHEM_ATOM_UDEF_STEREO_COUNT>  (1) 
0

>  <PUBCHEM_BOND_DEF_STEREO_COUNT>  (1) 
0

>  <PUBCHEM_BOND_UDEF_STEREO_COUNT>  (1) 
0

>  <PUBCHEM_ISOTOPIC_ATOM_COUNT>  (1) 
0

>  <PUBCHEM_COMPONENT_COUNT>  (1) 
1

>  <PUBCHEM_CACTVS_TAUTO_COUNT>  (1) 
13

>  <PUBCHEM_CONFORMER_ID>  (1) 
0000097C00000001

>  <PUBCHEM_MMFF94_ENERGY>  (1) 
67.5993

>  <PUBCHEM_FEATURE_SELFOVERLAP>  (1) 
51.027

>  <PUBCHEM_SHAPE_FINGERPRINT>  (1) 
10411042 1 17543347615244552347
10498660 4 18408315571257461337
10591671 39 18040721389841468127
10670039 82 18041566832283451324
11796584 16 18335144198749669234
12173636 292 18336538387149577087
12236239 1 17168139074881222832
12390115 104 18340496573697306793
12403259 415 18411990177697834802
12596602 18 15285651996508314308
12892183 10 12540693704162437935
12916748 109 18335702779554987321
13544592 145 18342182159181621284
14251757 17 18273218594985201056
14573314 32 18342461447840844716
14840074 17 16950293905015752653
15042514 8 18046630289762460043
15183329 4 18340211787231966086
15575132 122 17458347399110189677
17349148 13 14261361253897475868
18186145 218 18272376377515259048
200 152 16128662950613040928
20645477 56 18409728507986220728
20645477 70 17346609577666824878
21033648 29 18340480157599312697
21065201 7 18337109068344818074
21279426 13 18341054021496883030
21521239 73 17774994683398874647
221357 26 17988923344821397185
2215653 11 18131637768490016964
22182313 1 18337129911636917827
22393880 68 18342740723873817422
23227448 37 18266735960047910101
23366157 5 17679576744974302475
23402539 116 18340476859243419588
23557571 272 18267869561105115600
23559900 14 18272092717012240976
3004659 81 18262243214778998502
32948 21 18410016520556991348
3298306 158 18343588412979289398
3472631 163 18115026415442478684
350125 39 18044930178148967512
3729539 64 18123483682784800462
3759504 43 17894916251919084043
4028521 119 18342455954218931321
474 4 17530686493667297011
495365 180 17704060820731226130
4990 188 18202282498423011772
5104073 3 18188207590336557185
5161694 15 18271815639781244342
5281201 14 18201164338258519020
5283173 99 18341894108483880104
56616090 163 18336272253838355927
59682541 52 17703505476410778892
633830 44 18342448244736869404
7399639 24 17051038002588711810
9709674 26 18200035182782179830
9981440 41 18260261958575081547

>  <PUBCHEM_SHAPE_MULTIPOLES>  (1) 
413.21
12.13
2.45
1.2
3.75
1.02
0.45
-5.27
4.9
-1.04
-0.44
1.73
0.17
2.12

>  <PUBCHEM_SHAPE_SELFOVERLAP>  (1) 
919.661

>  <PUBCHEM_SHAPE_VOLUME>  (1) 
226.8

>  <PUBCHEM_COORDINATE_TYPE>  (1) 
2
5
10

$$$$
