24319
     RDKit          3D

 11 11  0  0  0  0  0  0  0  0999 V2000
    1.7461   -2.3660    1.1487 Cl  0  0  0  0  0  0  0  0  0  0  0  0
    1.2773   -1.7841   -0.7411 S   0  0  0  0  0  0  0  0  0  0  0  0
    1.2441    2.4853    0.1953 O   0  0  0  0  0  0  0  0  0  0  0  0
    2.2489    0.6089   -0.3419 O   0  0  0  0  0  0  0  0  0  0  0  0
    1.2148    1.2609   -0.0683 N   0  0  0  0  0  0  0  0  0  0  0  0
   -0.0392    0.5860   -0.0558 C   0  0  0  0  0  0  0  0  0  0  0  0
   -0.1475   -0.7755   -0.3393 C   0  0  0  0  0  0  0  0  0  0  0  0
   -1.1803    1.3273    0.2513 C   0  0  0  0  0  0  0  0  0  0  0  0
   -1.3969   -1.3956   -0.3155 C   0  0  0  0  0  0  0  0  0  0  0  0
   -2.4295    0.7071    0.2750 C   0  0  0  0  0  0  0  0  0  0  0  0
   -2.5378   -0.6543   -0.0084 C   0  0  0  0  0  0  0  0  0  0  0  0
  1  2  1  0
  2  7  1  0
  3  5  1  0
  4  5  2  0
  5  6  1  0
  6  7  2  0
  6  8  1  0
  7  9  1  0
  8 10  2  0
  9 11  2  0
 10 11  1  0
M  CHG  2   3  -1   5   1
M  END
>  <PUBCHEM_COMPOUND_CID>  (1) 
24319

>  <PUBCHEM_CONFORMER_RMSD>  (1) 
0.4

>  <PUBCHEM_CONFORMER_DIVERSEORDER>  (1) 
2
3
1
4

>  <PUBCHEM_MMFF94_PARTIAL_CHARGES>  (1) 
15
1 -0.07
10 -0.15
11 -0.15
12 0.15
13 0.15
14 0.15
15 0.15
2 -0.03
3 -0.52
4 -0.52
5 0.91
6 0.13
7 0.1
8 -0.15
9 -0.15

>  <PUBCHEM_EFFECTIVE_ROTOR_COUNT>  (1) 
2

>  <PUBCHEM_PHARMACOPHORE_FEATURES>  (1) 
4
1 3 acceptor
1 3 anion
1 4 acceptor
6 6 7 8 9 10 11 rings

>  <PUBCHEM_HEAVY_ATOM_COUNT>  (1) 
11

>  <PUBCHEM_ATOM_DEF_STEREO_COUNT>  (1) 
0

>  <PUBCHEM_ATOM_UDEF_STEREO_COUNT>  (1) 
0

>  <PUBCHEM_BOND_DEF_STEREO_COUNT>  (1) 
0

>  <PUBCHEM_BOND_UDEF_STEREO_COUNT>  (1) 
0

>  <PUBCHEM_ISOTOPIC_ATOM_COUNT>  (1) 
0

>  <PUBCHEM_COMPONENT_COUNT>  (1) 
1

>  <PUBCHEM_CACTVS_TAUTO_COUNT>  (1) 
1

>  <PUBCHEM_CONFORMER_ID>  (1) 
00005EFF00000002

>  <PUBCHEM_MMFF94_ENERGY>  (1) 
40.0182

>  <PUBCHEM_FEATURE_SELFOVERLAP>  (1) 
20.379

>  <PUBCHEM_SHAPE_FINGERPRINT>  (1) 
12423570 1 17125943279949920095
12524768 44 18055636114031079887
15076042 46 16965472375253707482
16945 1 18342184405027536863
193761 8 18412831257159724917
20645476 183 17465106333308978716
20871998 184 16902444546338813854
21040471 1 17837212940821176876
23552423 10 18336550498883310295
241688 4 17908994209600721827
2748010 2 18124882252662909261
5084963 1 17844257430268544113
528862 383 18409164402707689155
54338 74 17686895021095365474
66348 1 18340491174200475647

>  <PUBCHEM_SHAPE_MULTIPOLES>  (1) 
215.37
3.26
2.52
0.85
0.07
1.32
0.1
-1.36
0.58
0.66
0.11
0.44
-0.31
-0.39

>  <PUBCHEM_SHAPE_SELFOVERLAP>  (1) 
427.85

>  <PUBCHEM_SHAPE_VOLUME>  (1) 
130.2

>  <PUBCHEM_COORDINATE_TYPE>  (1) 
2
5
10

$$$$
