24314
     RDKit          3D

  9  9  0  0  1  0  0  0  0  0999 V2000
   -2.9709   -0.3187   -0.4835 O   0  0  0  0  0  0  0  0  0  0  0  0
    0.3100    0.3611    0.4075 O   0  0  0  0  0  0  0  0  0  0  0  0
   -1.9825   -0.2954    0.5362 C   0  0  0  0  0  0  0  0  0  0  0  0
   -2.6293    0.9578    0.0721 C   0  0  0  0  0  0  0  0  0  0  0  0
   -0.5996   -0.6650    0.0437 C   0  0  0  0  0  0  0  0  0  0  0  0
    1.6342    0.0608   -0.0351 C   0  0  0  0  0  0  0  0  0  0  0  0
    1.6190   -0.0752   -1.5569 C   0  0  0  0  0  0  0  0  0  0  0  0
    2.5355    1.2173    0.3921 C   0  0  0  0  0  0  0  0  0  0  0  0
    2.0836   -1.2425    0.6239 C   0  0  0  0  0  0  0  0  0  0  0  0
  1  3  1  0
  1  4  1  0
  2  5  1  0
  2  6  1  0
  3  4  1  0
  3  5  1  0
  6  7  1  0
  6  8  1  0
  6  9  1  0
M  END
>  <PUBCHEM_COMPOUND_CID>  (1) 
24314

>  <PUBCHEM_CONFORMER_RMSD>  (1) 
0.6

>  <PUBCHEM_CONFORMER_DIVERSEORDER>  (1) 
2
4
1
3

>  <PUBCHEM_MMFF94_PARTIAL_CHARGES>  (1) 
9
1 -0.3
10 0.1
11 0.1
12 0.1
2 -0.56
3 -0.05
4 -0.05
5 0.38
6 0.28

>  <PUBCHEM_EFFECTIVE_ROTOR_COUNT>  (1) 
3.6

>  <PUBCHEM_PHARMACOPHORE_FEATURES>  (1) 
3
1 1 acceptor
1 2 acceptor
4 6 7 8 9 hydrophobe

>  <PUBCHEM_HEAVY_ATOM_COUNT>  (1) 
9

>  <PUBCHEM_ATOM_DEF_STEREO_COUNT>  (1) 
0

>  <PUBCHEM_ATOM_UDEF_STEREO_COUNT>  (1) 
1

>  <PUBCHEM_BOND_DEF_STEREO_COUNT>  (1) 
0

>  <PUBCHEM_BOND_UDEF_STEREO_COUNT>  (1) 
0

>  <PUBCHEM_ISOTOPIC_ATOM_COUNT>  (1) 
0

>  <PUBCHEM_COMPONENT_COUNT>  (1) 
1

>  <PUBCHEM_CACTVS_TAUTO_COUNT>  (1) 
1

>  <PUBCHEM_CONFORMER_ID>  (1) 
00005EFA00000002

>  <PUBCHEM_MMFF94_ENERGY>  (1) 
26.6055

>  <PUBCHEM_FEATURE_SELFOVERLAP>  (1) 
15.223

>  <PUBCHEM_SHAPE_FINGERPRINT>  (1) 
10219947 1 16805315617950669288
10857977 72 7781221207212491927
12897270 3 15985105227664472953
12932764 1 18411145727182541227
14325111 11 18410008836517678771
14390081 3 18410012152116562113
170605 34 18129943506786492744
20653085 51 17844826810241740537
21040471 1 18041851721642850762
230 275 18334580178357315468
23552423 10 17676210143369723627
29004967 10 16153423939532900488
3248919 1 17240205451784256283
5084963 1 17676488306958017987
8030462 33 18333739004717225239

>  <PUBCHEM_SHAPE_MULTIPOLES>  (1) 
173.48
4.58
1.15
1.01
2.31
0.02
0.38
0.64
-0.08
-0.46
-0.21
-0.48
0
-0.03

>  <PUBCHEM_SHAPE_SELFOVERLAP>  (1) 
327.829

>  <PUBCHEM_SHAPE_VOLUME>  (1) 
110.7

>  <PUBCHEM_COORDINATE_TYPE>  (1) 
2
5
10

$$$$
