24329
     RDKit          3D

 27 30  0  0  1  0  0  0  0  0999 V2000
   -4.6433   -1.3761    0.3439 O   0  0  0  0  0  0  0  0  0  0  0  0
    5.9630    0.3010   -0.7148 O   0  0  0  0  0  0  0  0  0  0  0  0
    6.2498    0.4743    1.6018 O   0  0  0  0  0  0  0  0  0  0  0  0
   -2.5506   -0.4025   -0.5195 C   0  0  0  0  0  0  0  0  0  0  0  0
   -1.7885   -0.9399    0.7223 C   0  0  0  0  0  0  0  0  0  0  0  0
   -0.2448   -0.9166    0.6709 C   0  0  0  0  0  0  0  0  0  0  0  0
   -3.9678   -0.1363    0.0882 C   0  0  0  0  0  0  0  0  0  0  0  0
   -2.3282   -0.0931    1.8970 C   0  0  0  0  0  0  0  0  0  0  0  0
   -1.8909    0.8916   -1.0545 C   0  0  0  0  0  0  0  0  0  0  0  0
    0.3262    0.3912    0.0748 C   0  0  0  0  0  0  0  0  0  0  0  0
   -3.6750    0.4854    1.4579 C   0  0  0  0  0  0  0  0  0  0  0  0
   -0.3782    0.7798   -1.2361 C   0  0  0  0  0  0  0  0  0  0  0  0
    0.3338   -2.1347   -0.0663 C   0  0  0  0  0  0  0  0  0  0  0  0
   -2.6219   -1.4475   -1.6504 C   0  0  0  0  0  0  0  0  0  0  0  0
   -4.9041    0.7389   -0.7422 C   0  0  0  0  0  0  0  0  0  0  0  0
    1.8331    0.3332   -0.1270 C   0  0  0  0  0  0  0  0  0  0  0  0
    1.8474   -2.2007    0.1204 C   0  0  0  0  0  0  0  0  0  0  0  0
    2.5354   -0.8861   -0.1388 C   0  0  0  0  0  0  0  0  0  0  0  0
   -6.2372    0.9577   -0.0737 C   0  0  0  0  0  0  0  0  0  0  0  0
    2.5448    1.5310   -0.3172 C   0  0  0  0  0  0  0  0  0  0  0  0
    3.9264   -0.8816   -0.3317 C   0  0  0  0  0  0  0  0  0  0  0  0
    3.9248    1.5211   -0.5173 C   0  0  0  0  0  0  0  0  0  0  0  0
   -7.3217   -0.0393   -0.3649 C   0  0  0  0  0  0  0  0  0  0  0  0
    4.6157    0.3143   -0.5255 C   0  0  0  0  0  0  0  0  0  0  0  0
   -6.4357    1.9792    0.7739 C   0  0  0  0  0  0  0  0  0  0  0  0
    6.7105    0.3890    0.4712 C   0  0  0  0  0  0  0  0  0  0  0  0
    8.1770    0.3665    0.1575 C   0  0  0  0  0  0  0  0  0  0  0  0
  1  7  1  0
  2 24  1  0
  2 26  1  0
  3 26  2  0
  4  5  1  0
  4  7  1  0
  4  9  1  0
  4 14  1  0
  5  6  1  0
  5  8  1  0
  6 10  1  0
  6 13  1  0
  7 11  1  0
  7 15  1  0
  8 11  1  0
  9 12  1  0
 10 12  1  0
 10 16  1  0
 13 17  1  0
 15 19  1  0
 16 18  2  0
 16 20  1  0
 17 18  1  0
 18 21  1  0
 19 23  1  0
 19 25  2  0
 20 22  2  0
 21 24  2  0
 22 24  1  0
 26 27  1  0
M  END
>  <PUBCHEM_COMPOUND_CID>  (1) 
24329

>  <PUBCHEM_CONFORMER_RMSD>  (1) 
0.8

>  <PUBCHEM_CONFORMER_DIVERSEORDER>  (1) 
1
40
111
59
157
75
99
103
202
28
117
39
100
194
175
138
200
72
166
186
101
92
52
55
112
105
82
81
67
190
213
149
136
144
109
96
57
201
177
95
154
123
169
176
121
54
156
13
180
118
161
87
192
205
41
173
204
33
31
51
19
131
64
162
70
184
170
3
124
174
153
2
185
20
196
212
129
46
11
127
90
89
34
203
35
77
42
182
21
187
88
171
164
60
155
61
151
65
18
160
110
94
211
139
128
14
73
86
207
188
26
181
22
197
122
24
62
68
53
199
125
137
206
191
107
114
147
148
98
152
133
165
120
50
158
143
104
30
58
93
130
45
36
85
79
12
106
141
76
25
91
132
66
134
115
23
32
172
97
116
63
102
80
71
48
135
163
159
208
9
146
56
209
142
178
183
167
126
195
140
16
10
145
15
69
113
84
189
27
179
119
49
198
74
5
210
83
108
168
150
38
47
4
8
44
193
43
78
6
17
7
37
29

>  <PUBCHEM_MMFF94_PARTIAL_CHARGES>  (1) 
24
1 -0.68
10 0.14
15 0.14
16 -0.14
17 0.14
18 -0.14
19 -0.28
2 -0.23
20 -0.15
21 -0.15
22 -0.15
23 0.14
24 0.08
25 -0.3
26 0.66
27 0.06
3 -0.57
48 0.4
49 0.15
50 0.15
51 0.15
55 0.15
56 0.15
7 0.28

>  <PUBCHEM_EFFECTIVE_ROTOR_COUNT>  (1) 
5.4

>  <PUBCHEM_PHARMACOPHORE_FEATURES>  (1) 
7
1 1 acceptor
1 1 donor
1 3 acceptor
5 4 5 7 8 11 rings
6 16 18 20 21 22 24 rings
6 4 5 6 9 10 12 rings
6 6 10 13 16 17 18 rings

>  <PUBCHEM_HEAVY_ATOM_COUNT>  (1) 
27

>  <PUBCHEM_ATOM_DEF_STEREO_COUNT>  (1) 
1

>  <PUBCHEM_ATOM_UDEF_STEREO_COUNT>  (1) 
4

>  <PUBCHEM_BOND_DEF_STEREO_COUNT>  (1) 
0

>  <PUBCHEM_BOND_UDEF_STEREO_COUNT>  (1) 
0

>  <PUBCHEM_ISOTOPIC_ATOM_COUNT>  (1) 
0

>  <PUBCHEM_COMPONENT_COUNT>  (1) 
1

>  <PUBCHEM_CACTVS_TAUTO_COUNT>  (1) 
1

>  <PUBCHEM_CONFORMER_ID>  (1) 
00005F0900000001

>  <PUBCHEM_MMFF94_ENERGY>  (1) 
93.3253

>  <PUBCHEM_FEATURE_SELFOVERLAP>  (1) 
35.748

>  <PUBCHEM_SHAPE_FINGERPRINT>  (1) 
10 15 17531252768089111076
10076449 9 12967125034383863297
10906281 52 17749974192502145301
11089746 13 18059855077701964661
11315181 36 17489872664983356016
11719270 70 18409445869738465770
12035758 1 17023483966704015761
12236239 1 17988925535702623775
12516196 113 18343582936684658553
12633257 1 16153715361907056925
12788726 201 17131275641310060771
12838862 33 18337655473899676684
13533116 47 16415202208940646246
13685833 64 8286199448946108948
13914758 101 17988926639277266464
14028597 1 17313376773718630704
14123256 10 11312057651914621728
14251764 18 18113053839609695121
14251764 46 14345793842415478761
14350574 20 11095881557885089683
15048467 5 18342458115041051273
15183329 4 18334296456959858209
15461852 350 16630242592946483820
15849732 13 17060337431160251220
18681886 176 16845281765697301043
19489759 90 16200156482290565653
20511986 3 18130214982715386875
20554085 129 17846484929933313938
21033648 29 18261389013922948240
21130935 74 18408882949939512738
21150785 3 15769772459618090261
21267235 1 8790885194321191658
21298829 104 18342743974800115553
21792961 116 12967138211876498588
22224240 67 18334292080477678954
23035841 295 15140680288995558208
23198884 109 17060623278413155799
23402539 116 17967810578452776726
23559900 14 18341609351788093657
2838139 119 18409164411952141517
300161 21 17846778507631400918
3009799 131 16988842778348419648
335352 9 18334577966907873596
34797466 226 15554450721385191200
350125 39 18333731325685439620
3633792 109 17488752159655631487
4072396 5 18260823792258615178
4073 2 17894919580297166482
4093350 32 18059575733387872094
5104073 3 17968379082168430544
5385378 56 18261391097103555698
57724786 102 17750237074898325972
59755656 215 18336268964056736422
59755656 520 17240197764004183219

>  <PUBCHEM_SHAPE_MULTIPOLES>  (1) 
538.04
18.41
1.71
1.26
10.92
0.43
-0.21
-6.92
-1.93
-0.42
0.09
-0.63
-0.03
-0.38

>  <PUBCHEM_SHAPE_SELFOVERLAP>  (1) 
1154.135

>  <PUBCHEM_SHAPE_VOLUME>  (1) 
294.8

>  <PUBCHEM_COORDINATE_TYPE>  (1) 
2
5
10

$$$$
