24352
     RDKit          3D

 24 26  0  0  0  0  0  0  0  0999 V2000
    2.2975   -2.8710    0.1291 S   0  0  0  0  0  0  0  0  0  0  0  0
   -4.4140   -2.5050   -0.3242 O   0  0  0  0  0  0  0  0  0  0  0  0
    1.0628   -0.0504    0.5591 N   0  0  0  0  0  0  0  0  0  0  0  0
   -0.8449    4.4057   -0.4129 N   0  0  0  0  0  0  0  0  0  0  0  0
    0.5420    1.1765    1.1759 C   0  0  0  0  0  0  0  0  0  0  0  0
    0.1064    2.1768    0.1058 C   0  0  0  0  0  0  0  0  0  0  0  0
    0.1382   -1.0931    0.2982 C   0  0  0  0  0  0  0  0  0  0  0  0
    2.4373   -0.0736    0.2118 C   0  0  0  0  0  0  0  0  0  0  0  0
   -0.4014    3.5147    0.6524 C   0  0  0  0  0  0  0  0  0  0  0  0
    0.5773   -2.4112    0.0633 C   0  0  0  0  0  0  0  0  0  0  0  0
    3.1043   -1.2905   -0.0316 C   0  0  0  0  0  0  0  0  0  0  0  0
   -1.2525   -0.8587    0.2257 C   0  0  0  0  0  0  0  0  0  0  0  0
   -2.1630   -1.8842   -0.0432 C   0  0  0  0  0  0  0  0  0  0  0  0
    3.1900    1.1114    0.0586 C   0  0  0  0  0  0  0  0  0  0  0  0
   -0.3435   -3.4402   -0.2022 C   0  0  0  0  0  0  0  0  0  0  0  0
   -1.7084   -3.1770   -0.2541 C   0  0  0  0  0  0  0  0  0  0  0  0
    4.4659   -1.3074   -0.3829 C   0  0  0  0  0  0  0  0  0  0  0  0
    4.5417    1.0891   -0.2956 C   0  0  0  0  0  0  0  0  0  0  0  0
   -1.8502    3.7484   -1.2500 C   0  0  0  0  0  0  0  0  0  0  0  0
   -1.3825    5.6481    0.1446 C   0  0  0  0  0  0  0  0  0  0  0  0
    5.1812   -0.1217   -0.5133 C   0  0  0  0  0  0  0  0  0  0  0  0
   -3.5882   -1.5982   -0.0934 C   0  0  0  0  0  0  0  0  0  0  0  0
   -4.0923   -0.1630    0.1408 C   0  0  0  0  0  0  0  0  0  0  0  0
   -5.6034   -0.0256    0.0382 C   0  0  0  0  0  0  0  0  0  0  0  0
  1 10  1  0
  1 11  1  0
  2 22  2  0
  3  5  1  0
  3  7  1  0
  3  8  1  0
  4  9  1  0
  4 19  1  0
  4 20  1  0
  5  6  1  0
  6  9  1  0
  7 10  2  0
  7 12  1  0
  8 11  2  0
  8 14  1  0
 10 15  1  0
 11 17  1  0
 12 13  2  0
 13 16  1  0
 13 22  1  0
 14 18  2  0
 15 16  2  0
 17 21  2  0
 18 21  1  0
 22 23  1  0
 23 24  1  0
M  END
>  <PUBCHEM_COMPOUND_CID>  (1) 
24352

>  <PUBCHEM_CONFORMER_RMSD>  (1) 
0.8

>  <PUBCHEM_CONFORMER_DIVERSEORDER>  (1) 
1
12
38
24
17
33
13
47
44
51
34
6
49
57
14
43
42
36
20
53
28
22
4
52
35
55
25
9
7
2
45
54
37
31
41
48
21
30
39
18
32
23
27
46
26
15
11
19
56
5
16
3
40
29
50
8
10

>  <PUBCHEM_MMFF94_PARTIAL_CHARGES>  (1) 
29
1 -0.2
10 0.1
11 0.1
12 -0.15
13 0.09
14 -0.15
15 -0.15
16 -0.15
17 -0.15
18 -0.15
19 0.27
2 -0.57
20 0.27
21 -0.15
22 0.42
23 0.06
3 -0.57
31 0.15
32 0.15
33 0.15
34 0.15
35 0.15
36 0.15
4 -0.81
43 0.15
5 0.37
7 0.1
8 0.1
9 0.27

>  <PUBCHEM_EFFECTIVE_ROTOR_COUNT>  (1) 
6.4

>  <PUBCHEM_PHARMACOPHORE_FEATURES>  (1) 
7
1 2 acceptor
1 24 hydrophobe
1 3 cation
1 4 cation
6 1 3 7 8 10 11 rings
6 7 10 12 13 15 16 rings
6 8 11 14 17 18 21 rings

>  <PUBCHEM_HEAVY_ATOM_COUNT>  (1) 
24

>  <PUBCHEM_ATOM_DEF_STEREO_COUNT>  (1) 
0

>  <PUBCHEM_ATOM_UDEF_STEREO_COUNT>  (1) 
0

>  <PUBCHEM_BOND_DEF_STEREO_COUNT>  (1) 
0

>  <PUBCHEM_BOND_UDEF_STEREO_COUNT>  (1) 
0

>  <PUBCHEM_ISOTOPIC_ATOM_COUNT>  (1) 
0

>  <PUBCHEM_COMPONENT_COUNT>  (1) 
1

>  <PUBCHEM_CACTVS_TAUTO_COUNT>  (1) 
2

>  <PUBCHEM_CONFORMER_ID>  (1) 
00005F2000000001

>  <PUBCHEM_MMFF94_ENERGY>  (1) 
80.9739

>  <PUBCHEM_FEATURE_SELFOVERLAP>  (1) 
35.551

>  <PUBCHEM_SHAPE_FINGERPRINT>  (1) 
12788726 201 18334011683959623328
13140716 1 18336819909819775818
138480 1 15744725198016443853
14363568 33 17975147735841638161
14790565 3 18412271614183604041
14955137 171 18191324843040074283
15196674 1 18340769337747579042
15210252 30 18188212125453275756
15483637 11 17977947878736479937
1601671 61 18412544340148577795
16087824 20 18410859833212646873
16988056 13 18122326137727440325
17138139 8 17479692111187880437
18785283 64 17543918257098518874
19591789 44 18411417327897582649
20600515 1 18128837397772536380
20642791 105 18122612861132821306
21285901 2 18059868228944475750
21641784 216 18188507786580358580
23366157 5 17325757575515904098
23402539 116 18273213127244433006
23558518 356 18117283545231190362
23559900 14 17979908634249084675
23566358 2 18055357942258772950
266924 87 18339080376470860030
283562 15 18408324376324942576
3084891 8 18341052904378260855
335352 9 18412265039074483878
34934 24 18341327907335349554
350125 39 18266744571847527210
57307002 19 17623275483945247696
653340 110 18268139877678072984
7164475 11 18337673019141488254

>  <PUBCHEM_SHAPE_MULTIPOLES>  (1) 
481.93
8.78
6.37
0.81
0.4
8.76
-0.01
-2.46
-1.37
-5.42
-0.64
-0.03
0.37
0.13

>  <PUBCHEM_SHAPE_SELFOVERLAP>  (1) 
1005.735

>  <PUBCHEM_SHAPE_VOLUME>  (1) 
275

>  <PUBCHEM_COORDINATE_TYPE>  (1) 
2
5
10

$$$$
