24389
     RDKit          3D

 13 13  0  0  0  0  0  0  0  0999 V2000
    0.8561    2.8153    0.2345 Cl  0  0  0  0  0  0  0  0  0  0  0  0
    4.6524   -0.9693    0.4883 Cl  0  0  0  0  0  0  0  0  0  0  0  0
   -1.3172    0.5683   -0.8166 S   0  0  0  0  0  0  0  0  0  0  0  0
   -4.3685   -0.5515    1.3223 O   0  0  0  0  0  0  0  0  0  0  0  0
   -4.2085   -0.0289   -0.8838 O   0  0  0  0  0  0  0  0  0  0  0  0
    0.3918    0.1920   -0.4302 C   0  0  0  0  0  0  0  0  0  0  0  0
    1.2968    1.1564    0.0133 C   0  0  0  0  0  0  0  0  0  0  0  0
    0.8041   -1.1310   -0.5890 C   0  0  0  0  0  0  0  0  0  0  0  0
    2.6144    0.7977    0.2980 C   0  0  0  0  0  0  0  0  0  0  0  0
    2.1216   -1.4896   -0.3043 C   0  0  0  0  0  0  0  0  0  0  0  0
   -2.1944   -0.5057    0.3514 C   0  0  0  0  0  0  0  0  0  0  0  0
    3.0268   -0.5254    0.1392 C   0  0  0  0  0  0  0  0  0  0  0  0
   -3.6754   -0.3284    0.1770 C   0  0  0  0  0  0  0  0  0  0  0  0
  1  7  1  0
  2 12  1  0
  3  6  1  0
  3 11  1  0
  4 13  1  0
  5 13  2  0
  6  7  2  0
  6  8  1  0
  7  9  1  0
  8 10  2  0
  9 12  2  0
 10 12  1  0
 11 13  1  0
M  END
>  <PUBCHEM_COMPOUND_CID>  (1) 
24389

>  <PUBCHEM_CONFORMER_RMSD>  (1) 
0.6

>  <PUBCHEM_CONFORMER_DIVERSEORDER>  (1) 
2
17
21
4
5
19
25
15
23
26
20
24
6
18
16
8
22
7
3
1
11
13
10
14
9
12

>  <PUBCHEM_MMFF94_PARTIAL_CHARGES>  (1) 
17
1 -0.18
10 -0.15
11 0.29
12 0.18
13 0.66
14 0.15
17 0.15
18 0.15
19 0.5
2 -0.18
3 -0.33
4 -0.65
5 -0.57
6 0.1
7 0.18
8 -0.15
9 -0.15

>  <PUBCHEM_EFFECTIVE_ROTOR_COUNT>  (1) 
3

>  <PUBCHEM_PHARMACOPHORE_FEATURES>  (1) 
4
1 4 acceptor
1 5 acceptor
3 4 5 13 anion
6 6 7 8 9 10 12 rings

>  <PUBCHEM_HEAVY_ATOM_COUNT>  (1) 
13

>  <PUBCHEM_ATOM_DEF_STEREO_COUNT>  (1) 
0

>  <PUBCHEM_ATOM_UDEF_STEREO_COUNT>  (1) 
0

>  <PUBCHEM_BOND_DEF_STEREO_COUNT>  (1) 
0

>  <PUBCHEM_BOND_UDEF_STEREO_COUNT>  (1) 
0

>  <PUBCHEM_ISOTOPIC_ATOM_COUNT>  (1) 
0

>  <PUBCHEM_COMPONENT_COUNT>  (1) 
1

>  <PUBCHEM_CACTVS_TAUTO_COUNT>  (1) 
1

>  <PUBCHEM_CONFORMER_ID>  (1) 
00005F4500000002

>  <PUBCHEM_MMFF94_ENERGY>  (1) 
26.6544

>  <PUBCHEM_FEATURE_SELFOVERLAP>  (1) 
20.355

>  <PUBCHEM_SHAPE_FINGERPRINT>  (1) 
10219947 1 18343018900009124206
10465860 250 18188201018640974066
11471102 20 18411975888352326980
11796584 16 17023174977470708994
12032990 46 18339360760805348358
12251169 10 18343586256741617367
124424 183 18259698991340991775
13296908 3 17676488388963232333
13922767 16 18411415120368736501
14251717 144 18342171185239785559
14252887 29 18201722812803322358
14943859 89 12751230407147581646
15501101 241 18334576879738068981
16945 1 18130490960824795428
200 152 18059281107331505861
20201158 50 18335420149369457755
20279233 1 18259704489142081127
20645477 70 18410847746789307599
20671657 1 18126847324686666204
20871998 22 18200319797274424118
21041028 32 18341613698443014696
21061003 4 18412819179321564852
21501502 16 18124030388723053934
23402539 116 18272358742189773847
26918003 58 18410295809363888315
2748010 2 17697306327549316966
8809292 202 18114184159043550051

>  <PUBCHEM_SHAPE_MULTIPOLES>  (1) 
263.38
7.92
1.9
0.91
4.79
1.57
-0.05
-3.33
-1.91
-1.23
-0.1
0.6
-0.08
0.32

>  <PUBCHEM_SHAPE_SELFOVERLAP>  (1) 
510.305

>  <PUBCHEM_SHAPE_VOLUME>  (1) 
161.9

>  <PUBCHEM_COORDINATE_TYPE>  (1) 
2
5
10

$$$$
