24399
     RDKit          3D

  8  7  0  0  0  0  0  0  0  0999 V2000
   -1.4076    0.0107   -0.0032 N   0  0  0  0  0  0  0  0  0  0  0  0
   -0.1131   -0.7895    0.0099 C   0  0  0  0  0  0  0  0  0  0  0  0
    1.0665    0.1712    0.0320 C   0  0  0  0  0  0  0  0  0  0  0  0
   -2.5937   -0.9429    0.0075 C   0  0  0  0  0  0  0  0  0  0  0  0
   -1.4638    0.9043    1.2275 C   0  0  0  0  0  0  0  0  0  0  0  0
   -1.4598    0.8710   -1.2576 C   0  0  0  0  0  0  0  0  0  0  0  0
    2.3925   -0.5877   -0.0006 C   0  0  0  0  0  0  0  0  0  0  0  0
    3.5789    0.3629   -0.0155 C   0  0  0  0  0  0  0  0  0  0  0  0
  1  2  1  0
  1  4  1  0
  1  5  1  0
  1  6  1  0
  2  3  1  0
  3  7  1  0
  7  8  1  0
M  CHG  1   1   1
M  END
>  <PUBCHEM_COMPOUND_CID>  (1) 
24399

>  <PUBCHEM_CONFORMER_RMSD>  (1) 
0.6

>  <PUBCHEM_CONFORMER_DIVERSEORDER>  (1) 
1
3
2

>  <PUBCHEM_MMFF94_PARTIAL_CHARGES>  (1) 
5
1 -1.01
2 0.5
4 0.5
5 0.5
6 0.5

>  <PUBCHEM_EFFECTIVE_ROTOR_COUNT>  (1) 
3

>  <PUBCHEM_PHARMACOPHORE_FEATURES>  (1) 
2
1 1 cation
1 8 hydrophobe

>  <PUBCHEM_HEAVY_ATOM_COUNT>  (1) 
8

>  <PUBCHEM_ATOM_DEF_STEREO_COUNT>  (1) 
0

>  <PUBCHEM_ATOM_UDEF_STEREO_COUNT>  (1) 
0

>  <PUBCHEM_BOND_DEF_STEREO_COUNT>  (1) 
0

>  <PUBCHEM_BOND_UDEF_STEREO_COUNT>  (1) 
0

>  <PUBCHEM_ISOTOPIC_ATOM_COUNT>  (1) 
0

>  <PUBCHEM_COMPONENT_COUNT>  (1) 
1

>  <PUBCHEM_CACTVS_TAUTO_COUNT>  (1) 
1

>  <PUBCHEM_CONFORMER_ID>  (1) 
00005F4F00000001

>  <PUBCHEM_MMFF94_ENERGY>  (1) 
19.5269

>  <PUBCHEM_FEATURE_SELFOVERLAP>  (1) 
10.148

>  <PUBCHEM_SHAPE_FINGERPRINT>  (1) 
11062470 55 15791726425343175359
12932764 1 18041284266516584234
14325111 11 18410856547182324490
14390081 3 17749102266912267164
15310529 11 18041270006914003074
20653085 51 17898282806035811869
23552423 10 18057332690780271350
29004967 10 17275107232052068626
3248919 1 18131063788965750438
369184 2 18113334189304967698
5084963 1 18334575763088516330
5460574 1 9295291638252564362

>  <PUBCHEM_SHAPE_MULTIPOLES>  (1) 
159.66
4.75
1.07
1
4
0.01
0.02
0.14
0.02
-0.44
-0.01
-0.58
-0.35
0

>  <PUBCHEM_SHAPE_SELFOVERLAP>  (1) 
277.448

>  <PUBCHEM_SHAPE_VOLUME>  (1) 
108.6

>  <PUBCHEM_COORDINATE_TYPE>  (1) 
2
5
10

$$$$
