244
     RDKit          3D

  8  8  0  0  0  0  0  0  0  0999 V2000
    2.7427    0.0002   -0.7083 O   0  0  0  0  0  0  0  0  0  0  0  0
    0.5758   -0.0002    0.2720 C   0  0  0  0  0  0  0  0  0  0  0  0
    2.0447   -0.0001    0.5309 C   0  0  0  0  0  0  0  0  0  0  0  0
   -0.1110    1.2079    0.1508 C   0  0  0  0  0  0  0  0  0  0  0  0
   -0.1111   -1.2082    0.1507 C   0  0  0  0  0  0  0  0  0  0  0  0
   -1.4847    1.2081   -0.0915 C   0  0  0  0  0  0  0  0  0  0  0  0
   -1.4848   -1.2079   -0.0917 C   0  0  0  0  0  0  0  0  0  0  0  0
   -2.1715    0.0002   -0.2128 C   0  0  0  0  0  0  0  0  0  0  0  0
  1  3  1  0
  2  3  1  0
  2  4  2  0
  2  5  1  0
  4  6  1  0
  5  7  2  0
  6  8  2  0
  7  8  1  0
M  END
>  <PUBCHEM_COMPOUND_CID>  (1) 
244

>  <PUBCHEM_CONFORMER_RMSD>  (1) 
0.4

>  <PUBCHEM_CONFORMER_DIVERSEORDER>  (1) 
1

>  <PUBCHEM_MMFF94_PARTIAL_CHARGES>  (1) 
14
1 -0.68
11 0.15
12 0.15
13 0.15
14 0.15
15 0.15
16 0.4
2 -0.14
3 0.42
4 -0.15
5 -0.15
6 -0.15
7 -0.15
8 -0.15

>  <PUBCHEM_EFFECTIVE_ROTOR_COUNT>  (1) 
1

>  <PUBCHEM_PHARMACOPHORE_FEATURES>  (1) 
3
1 1 acceptor
1 1 donor
6 2 4 5 6 7 8 rings

>  <PUBCHEM_HEAVY_ATOM_COUNT>  (1) 
8

>  <PUBCHEM_ATOM_DEF_STEREO_COUNT>  (1) 
0

>  <PUBCHEM_ATOM_UDEF_STEREO_COUNT>  (1) 
0

>  <PUBCHEM_BOND_DEF_STEREO_COUNT>  (1) 
0

>  <PUBCHEM_BOND_UDEF_STEREO_COUNT>  (1) 
0

>  <PUBCHEM_ISOTOPIC_ATOM_COUNT>  (1) 
0

>  <PUBCHEM_COMPONENT_COUNT>  (1) 
1

>  <PUBCHEM_CACTVS_TAUTO_COUNT>  (1) 
1

>  <PUBCHEM_CONFORMER_ID>  (1) 
000000F400000001

>  <PUBCHEM_MMFF94_ENERGY>  (1) 
18.7456

>  <PUBCHEM_FEATURE_SELFOVERLAP>  (1) 
15.223

>  <PUBCHEM_SHAPE_FINGERPRINT>  (1) 
15310529 11 16732976518407068417
16714656 1 18410576184216904725
18185500 45 18261101989336378835
20645464 45 17916850405191731970
21040471 1 18267012856562888449
23552423 10 18188207581251275778
29004967 10 16343701045279990650
369184 2 18412252939581138634
5084963 1 18272369775913199944

>  <PUBCHEM_SHAPE_MULTIPOLES>  (1) 
158.77
3.06
1.36
0.71
1.48
0
0.01
0
0.45
-0.56
-0.03
0.19
0
0

>  <PUBCHEM_SHAPE_SELFOVERLAP>  (1) 
324.495

>  <PUBCHEM_SHAPE_VOLUME>  (1) 
92.4

>  <PUBCHEM_COORDINATE_TYPE>  (1) 
2
5
10

$$$$
