24415
     RDKit          3D

 15 15  0  0  0  0  0  0  0  0999 V2000
    1.1084    0.0015   -1.3878 O   0  0  0  0  0  0  0  0  0  0  0  0
   -0.0091    0.0049    0.6811 N   0  0  0  0  0  0  0  0  0  0  0  0
    3.5405    0.0078   -0.2476 N   0  0  0  0  0  0  0  0  0  0  0  0
   -1.3606    0.0006    0.3188 C   0  0  0  0  0  0  0  0  0  0  0  0
   -2.0379    1.2066    0.1372 C   0  0  0  0  0  0  0  0  0  0  0  0
   -2.0310   -1.2095    0.1400 C   0  0  0  0  0  0  0  0  0  0  0  0
    2.3962    0.0119    0.6525 C   0  0  0  0  0  0  0  0  0  0  0  0
    1.1134    0.0075   -0.1610 C   0  0  0  0  0  0  0  0  0  0  0  0
   -3.3854    1.2024   -0.2229 C   0  0  0  0  0  0  0  0  0  0  0  0
   -3.3786   -1.2136   -0.2202 C   0  0  0  0  0  0  0  0  0  0  0  0
   -4.0557   -0.0076   -0.4017 C   0  0  0  0  0  0  0  0  0  0  0  0
   -1.3474    2.5191    0.3222 C   0  0  0  0  0  0  0  0  0  0  0  0
   -1.3330   -2.5176    0.3270 C   0  0  0  0  0  0  0  0  0  0  0  0
    4.7915    0.0012    0.4989 C   0  0  0  0  0  0  0  0  0  0  0  0
    5.9888   -0.0151   -0.4364 C   0  0  0  0  0  0  0  0  0  0  0  0
  1  8  2  0
  2  4  1  0
  2  8  1  0
  3  7  1  0
  3 14  1  0
  4  5  2  0
  4  6  1  0
  5  9  1  0
  5 12  1  0
  6 10  2  0
  6 13  1  0
  7  8  1  0
  9 11  2  0
 10 11  1  0
 14 15  1  0
M  END
>  <PUBCHEM_COMPOUND_CID>  (1) 
24415

>  <PUBCHEM_CONFORMER_RMSD>  (1) 
0.6

>  <PUBCHEM_CONFORMER_DIVERSEORDER>  (1) 
1
5
2
3
4

>  <PUBCHEM_MMFF94_PARTIAL_CHARGES>  (1) 
19
1 -0.57
10 -0.15
11 -0.15
12 0.14
13 0.14
14 0.27
16 0.37
19 0.15
2 -0.55
20 0.15
21 0.36
24 0.15
3 -0.9
4 0.12
5 -0.14
6 -0.14
7 0.33
8 0.57
9 -0.15

>  <PUBCHEM_EFFECTIVE_ROTOR_COUNT>  (1) 
5

>  <PUBCHEM_PHARMACOPHORE_FEATURES>  (1) 
5
1 1 acceptor
1 2 donor
1 3 cation
1 3 donor
6 4 5 6 9 10 11 rings

>  <PUBCHEM_HEAVY_ATOM_COUNT>  (1) 
15

>  <PUBCHEM_ATOM_DEF_STEREO_COUNT>  (1) 
0

>  <PUBCHEM_ATOM_UDEF_STEREO_COUNT>  (1) 
0

>  <PUBCHEM_BOND_DEF_STEREO_COUNT>  (1) 
0

>  <PUBCHEM_BOND_UDEF_STEREO_COUNT>  (1) 
0

>  <PUBCHEM_ISOTOPIC_ATOM_COUNT>  (1) 
0

>  <PUBCHEM_COMPONENT_COUNT>  (1) 
1

>  <PUBCHEM_CACTVS_TAUTO_COUNT>  (1) 
2

>  <PUBCHEM_CONFORMER_ID>  (1) 
00005F5F00000001

>  <PUBCHEM_MMFF94_ENERGY>  (1) 
50.1474

>  <PUBCHEM_FEATURE_SELFOVERLAP>  (1) 
25.371

>  <PUBCHEM_SHAPE_FINGERPRINT>  (1) 
10680689 15 18409738369763700538
11315181 36 18186522124947587712
12107183 9 17614837414953004736
12236239 1 17676203559021016633
12500047 106 18410849962870989146
13024252 1 11530481134462221371
13288520 33 18412263951756076551
14573314 32 18342745079239271750
14614273 12 18116709621979375109
16945 1 18410570691834616753
17834072 33 18260832631264367532
17870717 6 18272384057096379246
187816 3 18410849967413583991
19489759 90 18342454825180440216
200 152 18187361051586273342
20279233 1 17918000481501365950
20300324 65 18411700984702056792
20510252 161 18270963440659912297
20645476 183 17748819735616597659
20645477 56 18410295774376584104
20645477 70 16845018901621058094
21267235 1 18336834177347217699
21339142 51 18410570725640662029
2297311 6 18343029899626181996
2306618 200 18131078120986690305
23175994 123 17060340738279521920
23402539 116 18341604919587273645
23557571 272 18130796629020397108
23559900 14 18341325678357664216
2748010 2 17976243958099075375
4214541 1 18410292489327722984
573450 72 18261944172794801106
9709674 26 18342182150339174222

>  <PUBCHEM_SHAPE_MULTIPOLES>  (1) 
292.86
9.67
1.9
0.83
16.63
0
0.09
0.03
1.17
-2.22
-0.26
0.25
0
0

>  <PUBCHEM_SHAPE_SELFOVERLAP>  (1) 
589.708

>  <PUBCHEM_SHAPE_VOLUME>  (1) 
173

>  <PUBCHEM_COORDINATE_TYPE>  (1) 
2
5
10

$$$$
