24420
     RDKit          3D

 36 39  0  0  1  0  0  0  0  0999 V2000
   -5.0680    0.2473   -0.1903 O   0  0  0  0  0  0  0  0  0  0  0  0
   -6.7874    1.6394   -0.8437 O   0  0  0  0  0  0  0  0  0  0  0  0
    5.6508    0.5884    1.2000 O   0  0  0  0  0  0  0  0  0  0  0  0
    6.0636   -0.4592   -0.8484 O   0  0  0  0  0  0  0  0  0  0  0  0
   -2.8115    1.0916    0.2649 C   0  0  0  0  0  0  0  0  0  0  0  0
   -2.1274   -0.0970   -0.4516 C   0  0  0  0  0  0  0  0  0  0  0  0
   -0.6102   -0.2704   -0.2198 C   0  0  0  0  0  0  0  0  0  0  0  0
    0.1727    1.0639   -0.2734 C   0  0  0  0  0  0  0  0  0  0  0  0
   -4.1159    1.2443   -0.5574 C   0  0  0  0  0  0  0  0  0  0  0  0
   -1.9568    2.3750    0.1649 C   0  0  0  0  0  0  0  0  0  0  0  0
   -2.4531    0.1252   -1.9452 C   0  0  0  0  0  0  0  0  0  0  0  0
   -0.4995    2.1626    0.5696 C   0  0  0  0  0  0  0  0  0  0  0  0
   -3.7029    1.0056   -2.0071 C   0  0  0  0  0  0  0  0  0  0  0  0
   -0.3039   -1.0136    1.0901 C   0  0  0  0  0  0  0  0  0  0  0  0
   -3.1392    0.7943    1.7384 C   0  0  0  0  0  0  0  0  0  0  0  0
    1.6313    0.9029    0.1284 C   0  0  0  0  0  0  0  0  0  0  0  0
    1.1763   -1.3791    1.1618 C   0  0  0  0  0  0  0  0  0  0  0  0
    2.0887   -0.2269    0.8314 C   0  0  0  0  0  0  0  0  0  0  0  0
    2.5484    1.9165   -0.2023 C   0  0  0  0  0  0  0  0  0  0  0  0
    3.4455   -0.3222    1.1807 C   0  0  0  0  0  0  0  0  0  0  0  0
   -6.3803    0.5796   -0.3878 C   0  0  0  0  0  0  0  0  0  0  0  0
    3.8916    1.8139    0.1586 C   0  0  0  0  0  0  0  0  0  0  0  0
    4.3399    0.6949    0.8515 C   0  0  0  0  0  0  0  0  0  0  0  0
   -7.2533   -0.5878    0.0167 C   0  0  0  0  0  0  0  0  0  0  0  0
   -8.7392   -0.3501   -0.2517 C   0  0  0  0  0  0  0  0  0  0  0  0
   -9.6077   -1.5385    0.1723 C   0  0  0  0  0  0  0  0  0  0  0  0
    6.4553   -0.0466    0.2351 C   0  0  0  0  0  0  0  0  0  0  0  0
  -11.0905   -1.2604   -0.0821 C   0  0  0  0  0  0  0  0  0  0  0  0
    7.8848   -0.1076    0.7295 C   0  0  0  0  0  0  0  0  0  0  0  0
  -11.9613   -2.4338    0.3666 C   0  0  0  0  0  0  0  0  0  0  0  0
    8.8487   -0.7020   -0.2971 C   0  0  0  0  0  0  0  0  0  0  0  0
   10.3009   -0.6924    0.1907 C   0  0  0  0  0  0  0  0  0  0  0  0
  -13.4328   -2.1750    0.0855 C   0  0  0  0  0  0  0  0  0  0  0  0
   11.2375   -1.3187   -0.8445 C   0  0  0  0  0  0  0  0  0  0  0  0
   12.6827   -1.3362   -0.3477 C   0  0  0  0  0  0  0  0  0  0  0  0
   13.6218   -1.9278   -1.3867 C   0  0  0  0  0  0  0  0  0  0  0  0
  1  9  1  0
  1 21  1  0
  2 21  2  0
  3 23  1  0
  3 27  1  0
  4 27  2  0
  5  6  1  0
  5  9  1  0
  5 10  1  0
  5 15  1  0
  6  7  1  0
  6 11  1  0
  7  8  1  0
  7 14  1  0
  8 12  1  0
  8 16  1  0
  9 13  1  0
 10 12  1  0
 11 13  1  0
 14 17  1  0
 16 18  2  0
 16 19  1  0
 17 18  1  0
 18 20  1  0
 19 22  2  0
 20 23  2  0
 21 24  1  0
 22 23  1  0
 24 25  1  0
 25 26  1  0
 26 28  1  0
 27 29  1  0
 28 30  1  0
 29 31  1  0
 30 33  1  0
 31 32  1  0
 32 34  1  0
 34 35  1  0
 35 36  1  0
M  END
>  <PUBCHEM_COMPOUND_CID>  (1) 
24420

>  <PUBCHEM_CONFORMER_RMSD>  (1) 
1.8

>  <PUBCHEM_CONFORMER_DIVERSEORDER>  (1) 
2
36
63
60
91
42
35
52
102
7
39
22
10
85
71
81
67
58
77
4
61
94
47
88
32
101
51
70
31
50
23
56
3
34
33
17
44
26
64
37
46
62
16
9
96
12
72
30
89
99
21
15
38
18
5
28
57
55
11
93
76
90
75
6
92
43
98
95
49
29
27
100
1
66
8
20
74
97
68
65
79
86
45
14
73
69
82
87
19
83
40
13
48
41
24
59
84
25
54
80
53
78

>  <PUBCHEM_MMFF94_PARTIAL_CHARGES>  (1) 
20
1 -0.43
16 -0.14
17 0.14
18 -0.14
19 -0.15
2 -0.57
20 -0.15
21 0.66
22 -0.15
23 0.08
24 0.06
27 0.66
29 0.06
3 -0.23
4 -0.57
56 0.15
57 0.15
58 0.15
8 0.14
9 0.28

>  <PUBCHEM_EFFECTIVE_ROTOR_COUNT>  (1) 
15.4

>  <PUBCHEM_PHARMACOPHORE_FEATURES>  (1) 
10
1 2 acceptor
1 33 hydrophobe
1 36 hydrophobe
1 4 acceptor
5 24 25 26 28 30 hydrophobe
5 29 31 32 34 35 hydrophobe
5 5 6 9 11 13 rings
6 16 18 19 20 22 23 rings
6 5 6 7 8 10 12 rings
6 7 8 14 16 17 18 rings

>  <PUBCHEM_HEAVY_ATOM_COUNT>  (1) 
36

>  <PUBCHEM_ATOM_DEF_STEREO_COUNT>  (1) 
0

>  <PUBCHEM_ATOM_UDEF_STEREO_COUNT>  (1) 
5

>  <PUBCHEM_BOND_DEF_STEREO_COUNT>  (1) 
0

>  <PUBCHEM_BOND_UDEF_STEREO_COUNT>  (1) 
0

>  <PUBCHEM_ISOTOPIC_ATOM_COUNT>  (1) 
0

>  <PUBCHEM_COMPONENT_COUNT>  (1) 
1

>  <PUBCHEM_CACTVS_TAUTO_COUNT>  (1) 
1

>  <PUBCHEM_CONFORMER_ID>  (1) 
00005F6400000002

>  <PUBCHEM_MMFF94_ENERGY>  (1) 
77.3118

>  <PUBCHEM_FEATURE_SELFOVERLAP>  (1) 
50.979

>  <PUBCHEM_SHAPE_FINGERPRINT>  (1) 
10076449 9 17603585206186207780
10674148 151 13830128399479353759
11315181 36 13767931195670387124
12013929 94 18334576854632818907
12498461 61 15697706078013752949
12664476 115 13623531260659551430
12741549 16 14692566616014087898
15183329 4 18337387155277842186
15247644 1 18341896294169137830
155225 1 8935002572624731155
16067689 302 18341613668663424814
18335252 98 18413106156911030319
20105231 36 18413109459065758286
21026386 39 16702293574037419575
21057603 11 11167934767364212109
21057603 43 18341893056259798704
21267235 1 18412259536751729616
232437 2 18410009935707598618
23559900 14 18340759464635845192
306946 40 8142086455292982598
335352 9 17967253092520552240
44389302 135 17917711327645960943
54039377 194 18413387631497416076
57828716 72 12251902611704634102
57828716 8 17346311645320305583
59521660 218 16806165433793025370
636775 8 18335140894711315686

>  <PUBCHEM_SHAPE_MULTIPOLES>  (1) 
717.39
49.21
2.13
1.27
22.97
0.08
-0.21
-50.32
-10.05
-2.36
-0.03
0.48
0.04
2.4

>  <PUBCHEM_SHAPE_SELFOVERLAP>  (1) 
1479.237

>  <PUBCHEM_SHAPE_VOLUME>  (1) 
408.7

>  <PUBCHEM_COORDINATE_TYPE>  (1) 
2
5
10

$$$$
