24428
     RDKit          3D

 15 15  0  0  0  0  0  0  0  0999 V2000
    4.5642   -1.9692    0.3740 Cl  0  0  0  0  0  0  0  0  0  0  0  0
    1.1902    4.0402   -0.2271 Cl  0  0  0  0  0  0  0  0  0  0  0  0
   -1.1203   -1.1141   -2.0848 O   0  0  0  0  0  0  0  0  0  0  0  0
   -2.0412    0.0319    2.2793 O   0  0  0  0  0  0  0  0  0  0  0  0
    1.0901    0.0128   -0.1273 N   0  0  0  0  0  0  0  0  0  0  0  0
   -1.1838   -0.6243    0.2000 N   0  0  0  0  0  0  0  0  0  0  0  0
   -3.3384   -0.0318    0.3426 N   0  0  0  0  0  0  0  0  0  0  0  0
    0.1796   -0.9060    0.5598 C   0  0  0  0  0  0  0  0  0  0  0  0
    2.4862   -0.2302    0.2472 C   0  0  0  0  0  0  0  0  0  0  0  0
    0.7301    1.3985    0.1818 C   0  0  0  0  0  0  0  0  0  0  0  0
   -1.7080   -0.7514   -1.0745 C   0  0  0  0  0  0  0  0  0  0  0  0
   -3.1698   -0.3640   -1.0448 C   0  0  0  0  0  0  0  0  0  0  0  0
   -2.1625   -0.1859    1.0809 C   0  0  0  0  0  0  0  0  0  0  0  0
    2.8755   -1.6599   -0.0955 C   0  0  0  0  0  0  0  0  0  0  0  0
    1.6083    2.3535   -0.6116 C   0  0  0  0  0  0  0  0  0  0  0  0
  1 14  1  0
  2 15  1  0
  3 11  2  0
  4 13  2  0
  5  8  1  0
  5  9  1  0
  5 10  1  0
  6  8  1  0
  6 11  1  0
  6 13  1  0
  7 12  1  0
  7 13  1  0
  9 14  1  0
 10 15  1  0
 11 12  1  0
M  END
>  <PUBCHEM_COMPOUND_CID>  (1) 
24428

>  <PUBCHEM_CONFORMER_RMSD>  (1) 
0.8

>  <PUBCHEM_CONFORMER_DIVERSEORDER>  (1) 
1
19
21
10
4
8
26
13
18
22
9
7
2
25
3
16
17
12
14
15
20
11
23
24
5
6

>  <PUBCHEM_MMFF94_PARTIAL_CHARGES>  (1) 
16
1 -0.29
10 0.27
11 0.57
12 0.36
13 0.69
14 0.29
15 0.29
2 -0.29
24 0.37
3 -0.57
4 -0.57
5 -0.81
6 -0.42
7 -0.73
8 0.57
9 0.27

>  <PUBCHEM_EFFECTIVE_ROTOR_COUNT>  (1) 
6.6

>  <PUBCHEM_PHARMACOPHORE_FEATURES>  (1) 
5
1 3 acceptor
1 4 acceptor
1 5 cation
1 7 donor
5 6 7 11 12 13 rings

>  <PUBCHEM_HEAVY_ATOM_COUNT>  (1) 
15

>  <PUBCHEM_ATOM_DEF_STEREO_COUNT>  (1) 
0

>  <PUBCHEM_ATOM_UDEF_STEREO_COUNT>  (1) 
0

>  <PUBCHEM_BOND_DEF_STEREO_COUNT>  (1) 
0

>  <PUBCHEM_BOND_UDEF_STEREO_COUNT>  (1) 
0

>  <PUBCHEM_ISOTOPIC_ATOM_COUNT>  (1) 
0

>  <PUBCHEM_COMPONENT_COUNT>  (1) 
1

>  <PUBCHEM_CACTVS_TAUTO_COUNT>  (1) 
2

>  <PUBCHEM_CONFORMER_ID>  (1) 
00005F6C00000001

>  <PUBCHEM_MMFF94_ENERGY>  (1) 
20.879

>  <PUBCHEM_FEATURE_SELFOVERLAP>  (1) 
25.371

>  <PUBCHEM_SHAPE_FINGERPRINT>  (1) 
11578080 2 17700661061642461336
13296909 8 16988274266449182442
14115302 16 17632285826614044735
14817 1 15626216952835639717
16945 1 18339094751446532417
17357990 137 17701288942763438633
1813 80 18270695160170810118
20361792 2 18411131403598770270
20645476 183 17986958642381008431
20671657 1 18266462190384764876
20711985 327 18341896268904833102
20711985 344 17901935358331141584
21041028 32 18335712589318846168
21061003 4 18113909233986696962
21339142 126 18125149447306202038
23175994 123 18114750326064404946
232386 152 16845285081401640486
23419403 2 12629529807122619796
23526113 38 17968089850274645640
23598291 2 18130796667574421534
3250762 1 17827085305238023130
3286 77 18113908186236346131
4175511 71 18338811030407920540
6992083 37 18131072593200294878
77492 1 17988929997751612235
81228 2 17900818254580929792
88987 49 16200169693541474681

>  <PUBCHEM_SHAPE_MULTIPOLES>  (1) 
285.75
5.88
3.12
1.41
2.78
5.25
0.12
-4.36
0.31
3.36
-0.45
-1.39
-0.38
-0.51

>  <PUBCHEM_SHAPE_SELFOVERLAP>  (1) 
548.705

>  <PUBCHEM_SHAPE_VOLUME>  (1) 
178.4

>  <PUBCHEM_COORDINATE_TYPE>  (1) 
2
5
10

$$$$
