24431
     RDKit          3D

 27 30  0  0  0  0  0  0  0  0999 V2000
   -6.4658   -0.6505   -0.4017 O   0  0  0  0  0  0  0  0  0  0  0  0
   -5.1330    0.9578   -1.0769 O   0  0  0  0  0  0  0  0  0  0  0  0
   -0.3855    0.8416    0.2023 N   0  0  0  0  0  0  0  0  0  0  0  0
    0.5209   -1.3773    0.0917 N   0  0  0  0  0  0  0  0  0  0  0  0
    1.9802    0.5228   -0.0422 N   0  0  0  0  0  0  0  0  0  0  0  0
   -5.3203   -0.1541   -0.5264 N   0  0  0  0  0  0  0  0  0  0  0  0
   -1.8120   -1.0450    0.3326 C   0  0  0  0  0  0  0  0  0  0  0  0
   -0.4872   -0.4974    0.2018 C   0  0  0  0  0  0  0  0  0  0  0  0
    0.8765    1.2724    0.0767 C   0  0  0  0  0  0  0  0  0  0  0  0
    1.7253   -0.7955   -0.0270 C   0  0  0  0  0  0  0  0  0  0  0  0
    1.0690    2.7065    0.0685 C   0  0  0  0  0  0  0  0  0  0  0  0
    2.8585   -1.6745   -0.1503 C   0  0  0  0  0  0  0  0  0  0  0  0
   -2.9177   -0.3414   -0.1558 C   0  0  0  0  0  0  0  0  0  0  0  0
   -2.0034   -2.2857    0.9493 C   0  0  0  0  0  0  0  0  0  0  0  0
   -4.2011   -0.8727   -0.0288 C   0  0  0  0  0  0  0  0  0  0  0  0
   -3.2868   -2.8169    1.0763 C   0  0  0  0  0  0  0  0  0  0  0  0
    2.2545    3.2539    0.5588 C   0  0  0  0  0  0  0  0  0  0  0  0
    0.0690    3.5414   -0.4299 C   0  0  0  0  0  0  0  0  0  0  0  0
    4.1112   -1.2816    0.3317 C   0  0  0  0  0  0  0  0  0  0  0  0
    2.7155   -2.9284   -0.7530 C   0  0  0  0  0  0  0  0  0  0  0  0
   -4.3856   -2.1104    0.5873 C   0  0  0  0  0  0  0  0  0  0  0  0
    2.4401    4.6365    0.5507 C   0  0  0  0  0  0  0  0  0  0  0  0
    0.2545    4.9239   -0.4381 C   0  0  0  0  0  0  0  0  0  0  0  0
    5.2093   -2.1334    0.2123 C   0  0  0  0  0  0  0  0  0  0  0  0
    3.8136   -3.7804   -0.8723 C   0  0  0  0  0  0  0  0  0  0  0  0
    1.4401    5.4713    0.0523 C   0  0  0  0  0  0  0  0  0  0  0  0
    5.0604   -3.3828   -0.3897 C   0  0  0  0  0  0  0  0  0  0  0  0
  1  6  1  0
  2  6  2  0
  3  8  2  0
  3  9  1  0
  4  8  1  0
  4 10  2  0
  5  9  2  0
  5 10  1  0
  6 15  1  0
  7  8  1  0
  7 13  2  0
  7 14  1  0
  9 11  1  0
 10 12  1  0
 11 17  2  0
 11 18  1  0
 12 19  2  0
 12 20  1  0
 13 15  1  0
 14 16  2  0
 15 21  2  0
 16 21  1  0
 17 22  1  0
 18 23  2  0
 19 24  1  0
 20 25  2  0
 22 26  2  0
 23 26  1  0
 24 27  2  0
 25 27  1  0
M  CHG  2   1  -1   6   1
M  END
>  <PUBCHEM_COMPOUND_CID>  (1) 
24431

>  <PUBCHEM_CONFORMER_RMSD>  (1) 
0.8

>  <PUBCHEM_CONFORMER_DIVERSEORDER>  (1) 
2
1
3

>  <PUBCHEM_MMFF94_PARTIAL_CHARGES>  (1) 
38
1 -0.52
10 0.62
13 -0.15
14 -0.15
15 0.13
16 -0.15
17 -0.15
18 -0.15
19 -0.15
2 -0.52
20 -0.15
21 -0.15
22 -0.15
23 -0.15
24 -0.15
25 -0.15
26 -0.15
27 -0.15
28 0.15
29 0.15
3 -0.62
30 0.15
31 0.15
32 0.15
33 0.15
34 0.15
35 0.15
36 0.15
37 0.15
38 0.15
39 0.15
4 -0.62
40 0.15
41 0.15
5 -0.62
6 0.91
8 0.62
9 0.62

>  <PUBCHEM_EFFECTIVE_ROTOR_COUNT>  (1) 
4

>  <PUBCHEM_PHARMACOPHORE_FEATURES>  (1) 
10
1 1 acceptor
1 1 anion
1 2 acceptor
3 3 4 8 cation
3 3 5 9 cation
3 4 5 10 cation
6 11 17 18 22 23 26 rings
6 12 19 20 24 25 27 rings
6 3 4 5 8 9 10 rings
6 7 13 14 15 16 21 rings

>  <PUBCHEM_HEAVY_ATOM_COUNT>  (1) 
27

>  <PUBCHEM_ATOM_DEF_STEREO_COUNT>  (1) 
0

>  <PUBCHEM_ATOM_UDEF_STEREO_COUNT>  (1) 
0

>  <PUBCHEM_BOND_DEF_STEREO_COUNT>  (1) 
0

>  <PUBCHEM_BOND_UDEF_STEREO_COUNT>  (1) 
0

>  <PUBCHEM_ISOTOPIC_ATOM_COUNT>  (1) 
0

>  <PUBCHEM_COMPONENT_COUNT>  (1) 
1

>  <PUBCHEM_CACTVS_TAUTO_COUNT>  (1) 
1

>  <PUBCHEM_CONFORMER_ID>  (1) 
00005F6F00000002

>  <PUBCHEM_MMFF94_ENERGY>  (1) 
86.9937

>  <PUBCHEM_FEATURE_SELFOVERLAP>  (1) 
53.611

>  <PUBCHEM_SHAPE_FINGERPRINT>  (1) 
10050765 1 18266177426270798547
10411042 1 18339361855637107686
10815517 723 17912094845793488793
1100329 8 18194406597855019969
11056379 131 17907031582099990014
12166972 35 18273213093422440339
12342043 65 17606428637718823307
12516196 113 18411135797192474206
12788726 201 18045220432134316394
13540713 4 18042405906317412699
13590594 115 18266187136611457113
138480 1 18410859892967044952
13911987 19 16752106139899232079
13955234 65 18122355823902950370
140371 6 18411987953026120930
14508225 48 18340767022706809485
14790565 3 16681195808518186120
14866123 147 17617663154766591443
15081414 286 18410862074451689968
15198563 99 18123472674582797372
15230672 131 17543073829124666316
15351339 4 17682666338731089395
15420108 30 17763724887083729536
15705408 1 18267025140380294380
15775530 1 17609517251157826619
15927050 60 17476082797319231812
16087824 20 17978513036377236753
17492 89 18267021842241919059
17980427 23 17775014444606576881
1813 80 18129956580508881534
18365409 1 17689440377734955988
19319366 153 17624421170290518883
20238998 120 18341327795502565768
20286276 3 18265338498519003859
21049683 271 18189913065820259028
21120745 212 18124904290831377124
21133410 127 17751913864728501893
21307412 95 16329643458998523686
21478907 32 18194683653246585626
21703447 108 18045216296176249747
23536364 44 17975118860765639949
23559900 14 18410570729888390763
23929065 36 17905590126598059242
24771750 20 17972894832105359300
249057 25 17775298171037843891
255183 313 17550687516473243153
283562 15 18046348531180445802
3004659 81 18040721320990785102
3091708 16 8851505651374882664
3103668 31 17902511493877230429
3421961 26 18412263964809751114
38695281 34 17835238222696986144
4015057 19 18409722993876206911
4409770 3 17831022321037252144
5385378 56 18123762103854796657
57124632 79 18053099815831647136
5969126 39 18197490728345159902
6004065 56 18411972581349432383
6443956 14 18408887347595074494
6679774 75 17828471807434697024
6695519 79 17333671855991840851
7164475 11 18121791534726717574
7399639 24 17542518574876289963
77188 2 18411421679026702476
7808743 9 16464459634244592289
79837 15 16970547201679012192
9709674 26 18191306177249797539
9981440 41 17617657000320679569

>  <PUBCHEM_SHAPE_MULTIPOLES>  (1) 
523.98
10.59
7.46
0.85
10.72
11.9
-0.01
-11.98
1.42
-8.58
0.13
0.26
-0.21
1.99

>  <PUBCHEM_SHAPE_SELFOVERLAP>  (1) 
1172.631

>  <PUBCHEM_SHAPE_VOLUME>  (1) 
273

>  <PUBCHEM_COORDINATE_TYPE>  (1) 
2
5
10

$$$$
