2444
     RDKit          3D

 20 21  0  0  1  0  0  0  0  0999 V2000
    5.9624   -1.7391   -0.4779 Br  0  0  0  0  0  0  0  0  0  0  0  0
   -0.8007   -0.9885   -0.0454 O   0  0  0  0  0  0  0  0  0  0  0  0
   -4.4594   -1.4346   -0.0465 N   0  0  0  0  0  0  0  0  0  0  0  0
    0.1093   -0.0993    0.5876 C   0  0  0  0  0  0  0  0  0  0  0  0
    1.5473   -0.5035    0.3262 C   0  0  0  0  0  0  0  0  0  0  0  0
   -0.1859    1.3298    0.1819 C   0  0  0  0  0  0  0  0  0  0  0  0
   -2.1461   -0.6993    0.3111 C   0  0  0  0  0  0  0  0  0  0  0  0
   -3.0619   -1.6839   -0.3982 C   0  0  0  0  0  0  0  0  0  0  0  0
    2.5098   -0.2156    1.2759 C   0  0  0  0  0  0  0  0  0  0  0  0
    1.8603   -1.1490   -0.8558 C   0  0  0  0  0  0  0  0  0  0  0  0
    0.0941    2.3540    1.0689 C   0  0  0  0  0  0  0  0  0  0  0  0
   -0.7280    1.5783   -1.0664 C   0  0  0  0  0  0  0  0  0  0  0  0
   -5.3375   -2.3730   -0.7446 C   0  0  0  0  0  0  0  0  0  0  0  0
   -4.6484   -1.5373    1.4000 C   0  0  0  0  0  0  0  0  0  0  0  0
    3.8328   -0.5862    1.0350 C   0  0  0  0  0  0  0  0  0  0  0  0
    3.1832   -1.5197   -1.0967 C   0  0  0  0  0  0  0  0  0  0  0  0
   -0.1775    3.6702    0.6953 C   0  0  0  0  0  0  0  0  0  0  0  0
   -0.9995    2.8946   -1.4399 C   0  0  0  0  0  0  0  0  0  0  0  0
    4.1696   -1.2384   -0.1513 C   0  0  0  0  0  0  0  0  0  0  0  0
   -0.7241    3.9405   -0.5590 C   0  0  0  0  0  0  0  0  0  0  0  0
  1 19  1  0
  2  4  1  0
  2  7  1  0
  3  8  1  0
  3 13  1  0
  3 14  1  0
  4  5  1  0
  4  6  1  0
  5  9  2  0
  5 10  1  0
  6 11  2  0
  6 12  1  0
  7  8  1  0
  9 15  1  0
 10 16  2  0
 11 17  1  0
 12 18  2  0
 15 19  2  0
 16 19  1  0
 17 20  2  0
 18 20  1  0
M  END
>  <PUBCHEM_COMPOUND_CID>  (1) 
2444

>  <PUBCHEM_CONFORMER_RMSD>  (1) 
0.8

>  <PUBCHEM_CONFORMER_DIVERSEORDER>  (1) 
1
17
16
9
11
6
15
3
5
10
22
19
14
8
21
13
2
18
7
23
20
12
4

>  <PUBCHEM_MMFF94_PARTIAL_CHARGES>  (1) 
29
1 -0.11
10 -0.15
11 -0.15
12 -0.15
13 0.27
14 0.27
15 -0.15
16 -0.15
17 -0.15
18 -0.15
19 0.11
2 -0.56
20 -0.15
26 0.15
27 0.15
28 0.15
29 0.15
3 -0.81
36 0.15
37 0.15
38 0.15
39 0.15
4 0.57
40 0.15
5 -0.14
6 -0.14
7 0.28
8 0.27
9 -0.15

>  <PUBCHEM_EFFECTIVE_ROTOR_COUNT>  (1) 
6

>  <PUBCHEM_PHARMACOPHORE_FEATURES>  (1) 
5
1 1 hydrophobe
1 2 acceptor
1 3 cation
6 5 9 10 15 16 19 rings
6 6 11 12 17 18 20 rings

>  <PUBCHEM_HEAVY_ATOM_COUNT>  (1) 
20

>  <PUBCHEM_ATOM_DEF_STEREO_COUNT>  (1) 
0

>  <PUBCHEM_ATOM_UDEF_STEREO_COUNT>  (1) 
1

>  <PUBCHEM_BOND_DEF_STEREO_COUNT>  (1) 
0

>  <PUBCHEM_BOND_UDEF_STEREO_COUNT>  (1) 
0

>  <PUBCHEM_ISOTOPIC_ATOM_COUNT>  (1) 
0

>  <PUBCHEM_COMPONENT_COUNT>  (1) 
1

>  <PUBCHEM_CACTVS_TAUTO_COUNT>  (1) 
1

>  <PUBCHEM_CONFORMER_ID>  (1) 
0000098C00000001

>  <PUBCHEM_MMFF94_ENERGY>  (1) 
59.8475

>  <PUBCHEM_FEATURE_SELFOVERLAP>  (1) 
25.371

>  <PUBCHEM_SHAPE_FINGERPRINT>  (1) 
10764073 3 15980638839818293353
11101153 10 18261971712695075276
11265709 11 18409738369257388963
11809386 21 18118405043156043314
12553582 1 18336254712976031283
12788726 201 18187923937416424858
13009979 54 18130240362389237627
13134695 92 18265332983579866765
13149001 5 17824550905044922027
13681431 1 18191879022337948073
13899415 180 18338218471166310319
14347329 18 16010964569562859543
14347332 77 18337390418963142870
15420108 30 17407095026017361376
15885798 251 18411419518347007291
17357779 13 18269254846956113045
17539 30 18337668590550437749
1813 80 18412269466705243687
18222031 100 18340482356643614699
20097449 115 18335980960597788905
20600515 1 18189639239774431991
21049683 271 18117851116179162172
21202864 24 18053960462990607745
21304303 282 17324035332000395884
21426921 1 18265617581071550462
21641784 216 18188510007399989676
22182313 1 18194374853487763576
22849341 161 18267889296690779323
22907989 373 18339925888217687332
23402539 116 18261116235996535910
23419403 2 17900507315516847212
23557571 272 18339362968276094262
23559900 14 17552073997390985630
23845131 108 17405440896905249561
283562 15 18334577889298242994
314173 85 18410854373623151771
4409770 3 18191299373973653805
5486654 2 18048872997051329749
57262259 84 18339923710247092716
59755656 520 17759522170925900692
6049 1 18059001788602490200
621550 34 18130495414732391650
621550 5 18131913754303383656
6442390 28 17549837581279573841
68521 5 18335417928765675805
70251023 43 18408610253664601154
7164475 11 18263086531053413894
7364860 26 18052257590093426009
7399639 24 18201423784622132330
77188 2 18341050808481907585
81228 2 18263657172760285097
9841814 1 18115575097392833771
9925002 15 18116734944379130637
9971528 1 18270959163072893387

>  <PUBCHEM_SHAPE_MULTIPOLES>  (1) 
406.68
9.81
4.17
1.29
2.75
5.32
0.04
-13.18
-0.5
-3.92
-0.71
-0.08
0.24
0.78

>  <PUBCHEM_SHAPE_SELFOVERLAP>  (1) 
836.921

>  <PUBCHEM_SHAPE_VOLUME>  (1) 
240.7

>  <PUBCHEM_COORDINATE_TYPE>  (1) 
2
5
10

$$$$
