2445
     RDKit          3D

 19 21  0  0  1  0  0  0  0  0999 V2000
    5.4159    0.6548    1.9448 Br  0  0  0  0  0  0  0  0  0  0  0  0
    2.8485   -0.3984   -1.1163 O   0  0  0  0  0  0  0  0  0  0  0  0
    1.2379   -0.7279   -2.6575 O   0  0  0  0  0  0  0  0  0  0  0  0
    0.6095    0.5780   -0.7471 C   0  0  0  0  0  0  0  0  0  0  0  0
    1.2825    1.4329    0.3263 C   0  0  0  0  0  0  0  0  0  0  0  0
   -0.5163   -0.2771   -0.1885 C   0  0  0  0  0  0  0  0  0  0  0  0
    2.3204    0.6376    1.0923 C   0  0  0  0  0  0  0  0  0  0  0  0
   -1.8228    0.2163   -0.0404 C   0  0  0  0  0  0  0  0  0  0  0  0
    1.5834   -0.2248   -1.5890 C   0  0  0  0  0  0  0  0  0  0  0  0
    3.3184    0.0817    0.1320 C   0  0  0  0  0  0  0  0  0  0  0  0
   -0.2039   -1.5867    0.1774 C   0  0  0  0  0  0  0  0  0  0  0  0
   -2.8267   -0.6309    0.4861 C   0  0  0  0  0  0  0  0  0  0  0  0
   -2.1551    1.5318   -0.4034 C   0  0  0  0  0  0  0  0  0  0  0  0
   -1.1913   -2.4199    0.6948 C   0  0  0  0  0  0  0  0  0  0  0  0
   -2.4947   -1.9465    0.8488 C   0  0  0  0  0  0  0  0  0  0  0  0
   -4.1334   -0.1379    0.6342 C   0  0  0  0  0  0  0  0  0  0  0  0
   -3.4585    2.0050   -0.2490 C   0  0  0  0  0  0  0  0  0  0  0  0
   -4.4457    1.1719    0.2688 C   0  0  0  0  0  0  0  0  0  0  0  0
    4.6319    0.0400    0.3858 C   0  0  0  0  0  0  0  0  0  0  0  0
  1 19  1  0
  2  9  1  0
  2 10  1  0
  3  9  2  0
  4  5  1  0
  4  6  1  0
  4  9  1  0
  5  7  1  0
  6  8  1  0
  6 11  2  0
  7 10  1  0
  8 12  2  0
  8 13  1  0
 10 19  2  0
 11 14  1  0
 12 15  1  0
 12 16  1  0
 13 17  2  0
 14 15  2  0
 16 18  2  0
 17 18  1  0
M  END
>  <PUBCHEM_COMPOUND_CID>  (1) 
2445

>  <PUBCHEM_CONFORMER_RMSD>  (1) 
0.6

>  <PUBCHEM_CONFORMER_DIVERSEORDER>  (1) 
2
10
3
5
8
9
4
1
6
7

>  <PUBCHEM_MMFF94_PARTIAL_CHARGES>  (1) 
24
1 -0.11
10 -0.06
11 -0.15
13 -0.15
14 -0.15
15 -0.15
16 -0.15
17 -0.15
18 -0.15
19 -0.04
2 -0.23
25 0.15
26 0.15
27 0.15
28 0.15
29 0.15
3 -0.57
30 0.15
31 0.15
32 0.15
4 0.2
6 -0.14
7 0.14
9 0.66

>  <PUBCHEM_EFFECTIVE_ROTOR_COUNT>  (1) 
1.8

>  <PUBCHEM_PHARMACOPHORE_FEATURES>  (1) 
5
1 1 hydrophobe
1 3 acceptor
6 2 4 5 7 9 10 rings
6 6 8 11 12 14 15 rings
6 8 12 13 16 17 18 rings

>  <PUBCHEM_HEAVY_ATOM_COUNT>  (1) 
19

>  <PUBCHEM_ATOM_DEF_STEREO_COUNT>  (1) 
0

>  <PUBCHEM_ATOM_UDEF_STEREO_COUNT>  (1) 
1

>  <PUBCHEM_BOND_DEF_STEREO_COUNT>  (1) 
0

>  <PUBCHEM_BOND_UDEF_STEREO_COUNT>  (1) 
1

>  <PUBCHEM_ISOTOPIC_ATOM_COUNT>  (1) 
0

>  <PUBCHEM_COMPONENT_COUNT>  (1) 
1

>  <PUBCHEM_CACTVS_TAUTO_COUNT>  (1) 
1

>  <PUBCHEM_CONFORMER_ID>  (1) 
0000098D00000002

>  <PUBCHEM_MMFF94_ENERGY>  (1) 
60.4853

>  <PUBCHEM_FEATURE_SELFOVERLAP>  (1) 
25.398

>  <PUBCHEM_SHAPE_FINGERPRINT>  (1) 
11132069 177 18336554849996339405
11725454 13 17988345001709883496
12077114 3 18343300396408034146
12119455 92 17418086616406065180
12236239 1 17022904557612937640
12403260 363 18336542815571939509
12422481 6 17315610938833824986
12553582 1 15430303738316956344
12633257 1 18409727395737585752
13004483 165 17552624168698350119
13140716 1 18118135877512528081
13538477 17 17459484405817919159
13583140 156 18130212865839855354
13675066 3 18343018900357244816
13862211 1 18189341337529106883
14178342 30 18187927321708313458
14420673 8 18115582618298073650
15042514 8 18188781681488631995
15375358 24 18131351908056336608
16945 1 18261408770872463551
17804303 29 18334862752666098112
17980427 23 18340761662683050884
1813 80 16081368502033103542
18186145 218 18129681694227864511
19049666 15 18128835044109131943
19422 9 16878236353811283202
200 152 15769774641545775201
20600515 1 18335426767814289197
20645477 70 17203053976289741510
21033648 29 17489291019564959512
212916 134 18409159987428353826
22112679 90 17386013908988484062
23366157 5 17389110241297147820
23402539 116 18411128156740417405
23419403 2 13899341694406853399
23557571 272 18270978923805874671
23559900 14 18340219488192964758
2748010 2 18048334524337275031
2916195 48 18130499769291523577
296302 2 16702302351515669840
474 4 15195283174997791514
5104073 3 18191311481633979497
58807428 26 18114184082092737763
5924683 9 18269544108313411858
69090 78 18060419123262157615
7364860 26 18050289163769406083
77492 1 17022914483356075559
9862522 239 17604978231235495349

>  <PUBCHEM_SHAPE_MULTIPOLES>  (1) 
385.21
9.16
1.91
1.54
6.57
0.55
0.72
-2.72
-4.57
-2.09
-0.33
1.75
0.17
0.85

>  <PUBCHEM_SHAPE_SELFOVERLAP>  (1) 
829.315

>  <PUBCHEM_SHAPE_VOLUME>  (1) 
216.6

>  <PUBCHEM_COORDINATE_TYPE>  (1) 
2
5
10

$$$$
