24468
     RDKit          3D

 19 20  0  0  1  0  0  0  0  0999 V2000
    1.6969   -0.2611   -0.8318 O   0  0  0  0  0  0  0  0  0  0  0  0
    4.4539    0.0269   -1.2201 O   0  0  0  0  0  0  0  0  0  0  0  0
   -4.0966   -1.3672    1.5075 O   0  0  0  0  0  0  0  0  0  0  0  0
    3.9192   -0.0843    0.0988 C   0  0  0  0  0  0  0  0  0  0  0  0
   -0.4545    0.6801   -0.2654 C   0  0  0  0  0  0  0  0  0  0  0  0
    2.6292   -0.8979    0.0371 C   0  0  0  0  0  0  0  0  0  0  0  0
   -1.8212    0.4628    0.0312 C   0  0  0  0  0  0  0  0  0  0  0  0
    0.3722   -0.4213   -0.5410 C   0  0  0  0  0  0  0  0  0  0  0  0
    4.9568   -0.7611    0.9964 C   0  0  0  0  0  0  0  0  0  0  0  0
   -2.3209   -0.8496    0.0436 C   0  0  0  0  0  0  0  0  0  0  0  0
   -0.1414   -1.7185   -0.5245 C   0  0  0  0  0  0  0  0  0  0  0  0
   -1.4853   -1.9321   -0.2326 C   0  0  0  0  0  0  0  0  0  0  0  0
    0.0453    1.9924   -0.2777 C   0  0  0  0  0  0  0  0  0  0  0  0
   -2.6477    1.5643    0.3070 C   0  0  0  0  0  0  0  0  0  0  0  0
    6.2789   -0.0052    1.0229 C   0  0  0  0  0  0  0  0  0  0  0  0
   -0.7903    3.0750   -0.0015 C   0  0  0  0  0  0  0  0  0  0  0  0
   -2.1343    2.8614    0.2903 C   0  0  0  0  0  0  0  0  0  0  0  0
   -3.7178   -1.1527    0.3419 C   0  0  0  0  0  0  0  0  0  0  0  0
   -4.7423   -1.2119   -0.7820 C   0  0  0  0  0  0  0  0  0  0  0  0
  1  6  1  0
  1  8  1  0
  2  4  1  0
  3 18  2  0
  4  6  1  0
  4  9  1  0
  5  7  1  0
  5  8  2  0
  5 13  1  0
  7 10  2  0
  7 14  1  0
  8 11  1  0
  9 15  1  0
 10 12  1  0
 10 18  1  0
 11 12  2  0
 13 16  2  0
 14 17  2  0
 16 17  1  0
 18 19  1  0
M  END
>  <PUBCHEM_COMPOUND_CID>  (1) 
24468

>  <PUBCHEM_CONFORMER_RMSD>  (1) 
0.6

>  <PUBCHEM_CONFORMER_DIVERSEORDER>  (1) 
1
112
171
141
145
172
144
155
82
85
65
64
113
157
102
156
143
99
175
92
146
163
79
174
162
173
121
177
91
115
136
71
126
124
167
140
176
118
60
148
125
75
61
150
114
130
164
47
63
137
149
107
109
101
72
54
123
34
81
46
89
83
151
74
7
100
135
68
119
131
134
117
154
147
104
12
98
105
153
84
166
108
111
13
26
160
139
53
138
158
120
165
56
97
41
122
87
40
27
57
20
116
96
80
58
50
11
44
159
129
43
132
17
103
23
152
67
66
14
70
38
76
78
128
36
86
110
31
170
4
29
9
51
25
52
48
90
59
2
169
18
42
28
93
32
35
133
73
30
161
39
62
3
142
49
168
69
77
55
37
10
22
127
33
16
45
8
106
24
95
15
94
6
21
19
88
5

>  <PUBCHEM_MMFF94_PARTIAL_CHARGES>  (1) 
22
1 -0.36
10 0.09
11 -0.15
12 -0.15
13 -0.15
14 -0.15
16 -0.15
17 -0.15
18 0.42
19 0.06
2 -0.68
25 0.15
26 0.15
27 0.15
28 0.15
3 -0.57
32 0.15
33 0.15
34 0.4
4 0.28
6 0.28
8 0.08

>  <PUBCHEM_EFFECTIVE_ROTOR_COUNT>  (1) 
5

>  <PUBCHEM_PHARMACOPHORE_FEATURES>  (1) 
7
1 1 acceptor
1 15 hydrophobe
1 2 acceptor
1 2 donor
1 3 acceptor
6 5 7 13 14 16 17 rings
6 5 7 8 10 11 12 rings

>  <PUBCHEM_HEAVY_ATOM_COUNT>  (1) 
19

>  <PUBCHEM_ATOM_DEF_STEREO_COUNT>  (1) 
0

>  <PUBCHEM_ATOM_UDEF_STEREO_COUNT>  (1) 
1

>  <PUBCHEM_BOND_DEF_STEREO_COUNT>  (1) 
0

>  <PUBCHEM_BOND_UDEF_STEREO_COUNT>  (1) 
0

>  <PUBCHEM_ISOTOPIC_ATOM_COUNT>  (1) 
0

>  <PUBCHEM_COMPONENT_COUNT>  (1) 
1

>  <PUBCHEM_CACTVS_TAUTO_COUNT>  (1) 
2

>  <PUBCHEM_CONFORMER_ID>  (1) 
00005F9400000001

>  <PUBCHEM_MMFF94_ENERGY>  (1) 
63.4197

>  <PUBCHEM_FEATURE_SELFOVERLAP>  (1) 
35.551

>  <PUBCHEM_SHAPE_FINGERPRINT>  (1) 
10319926 262 18197761247282175090
10493431 412 18055080861187022185
10670039 82 18336842913943545372
10906281 52 18339099124430063063
11132069 177 18271533000304049828
11315181 36 17894349982472536994
12107183 9 17614552645789404962
12236239 1 17822008714318760686
12390115 104 18059024877993498800
12403259 415 17774729667185150262
12553582 1 18268166386311136903
12596602 18 17749381573500244992
12788726 201 18335433378174476704
13140716 1 18124322854980153851
13214271 11 18271801285420506860
13862211 1 18339639040136896007
14420673 8 17760925139938652882
15099037 37 18411702054027431756
15209294 21 17631752473401573139
16945 1 18340785822432947831
200 152 15502372322907279354
20510252 161 18271811172482519546
20600515 1 18129678511509528551
20645477 56 17775278370679400414
21029758 11 18412823625155801349
21029758 27 18335431213421288837
21065198 48 18187922834210715962
21065199 12 18341326687849175338
22182313 1 18127992818640216287
2297311 6 18342186557449782542
23366157 5 17684370941972492325
23402539 116 18343575257414892103
23419403 2 18118660314046307389
23557571 272 18129399154162588084
23558518 356 18118409440600686738
23559900 14 18410845573446236608
23845131 108 17478627710875687729
26918003 58 17821725056950342882
2748010 2 18054246344772283167
3009799 131 18336529582846253255
312423 11 18040729043499297166
314173 85 18342463659385004983
34934 24 18338799988674464161
5104073 3 18267862792616771282
53917941 68 18118953699426401949
633830 44 14620800384051844622
69474 34 18201153359873613880
7097593 13 17609767609587036026
81228 2 18194424220337281189
90316 7 17969221140603425684
9925002 15 17628904926820862102

>  <PUBCHEM_SHAPE_MULTIPOLES>  (1) 
373.4
10.21
2.69
0.98
15.35
2.28
0.1
-3.69
2.77
-2.9
0.06
0.25
-0.22
-0.08

>  <PUBCHEM_SHAPE_SELFOVERLAP>  (1) 
791.179

>  <PUBCHEM_SHAPE_VOLUME>  (1) 
210.8

>  <PUBCHEM_COORDINATE_TYPE>  (1) 
2
5
10

$$$$
