24472
     RDKit          3D

  4  4  0  0  1  0  0  0  0  0999 V2000
   -1.7364    0.0303   -0.2087 Cl  0  0  0  0  0  0  0  0  0  0  0  0
    0.8969   -0.7241   -0.1581 O   0  0  0  0  0  0  0  0  0  0  0  0
   -0.1519   -0.0124    0.5111 C   0  0  0  0  0  0  0  0  0  0  0  0
    0.9915    0.7062   -0.1442 C   0  0  0  0  0  0  0  0  0  0  0  0
  1  3  1  0
  2  3  1  0
  2  4  1  0
  3  4  1  0
M  END
>  <PUBCHEM_COMPOUND_CID>  (1) 
24472

>  <PUBCHEM_CONFORMER_RMSD>  (1) 
0.4

>  <PUBCHEM_CONFORMER_DIVERSEORDER>  (1) 
1
2

>  <PUBCHEM_MMFF94_PARTIAL_CHARGES>  (1) 
7
1 -0.23
2 -0.3
3 0.28
4 -0.05
5 0.1
6 0.1
7 0.1

>  <PUBCHEM_EFFECTIVE_ROTOR_COUNT>  (1) 
0.6

>  <PUBCHEM_PHARMACOPHORE_FEATURES>  (1) 
1
1 2 acceptor

>  <PUBCHEM_HEAVY_ATOM_COUNT>  (1) 
4

>  <PUBCHEM_ATOM_DEF_STEREO_COUNT>  (1) 
0

>  <PUBCHEM_ATOM_UDEF_STEREO_COUNT>  (1) 
1

>  <PUBCHEM_BOND_DEF_STEREO_COUNT>  (1) 
0

>  <PUBCHEM_BOND_UDEF_STEREO_COUNT>  (1) 
0

>  <PUBCHEM_ISOTOPIC_ATOM_COUNT>  (1) 
0

>  <PUBCHEM_COMPONENT_COUNT>  (1) 
1

>  <PUBCHEM_CACTVS_TAUTO_COUNT>  (1) 
1

>  <PUBCHEM_CONFORMER_ID>  (1) 
00005F9800000001

>  <PUBCHEM_MMFF94_ENERGY>  (1) 
3.0162

>  <PUBCHEM_FEATURE_SELFOVERLAP>  (1) 
5.074

>  <PUBCHEM_SHAPE_FINGERPRINT>  (1) 
139733 1 10954041272172941319
20096714 4 18188492492090819533
21015797 1 8357957923822816400
5943 1 16747554006824307384

>  <PUBCHEM_SHAPE_MULTIPOLES>  (1) 
78.32
1.87
0.83
0.69
0.82
0.02
-0.04
0.14
0.22
-0.19
0.04
0.04
0.01
0.02

>  <PUBCHEM_SHAPE_SELFOVERLAP>  (1) 
132.133

>  <PUBCHEM_SHAPE_VOLUME>  (1) 
54.4

>  <PUBCHEM_COORDINATE_TYPE>  (1) 
2
5
10

$$$$
