24522
     RDKit          3D

 12 12  0  0  0  0  0  0  0  0999 V2000
   -2.1195    0.2161   -0.0004 O   0  0  0  0  0  0  0  0  0  0  0  0
    3.7156   -1.0941    0.0001 O   0  0  0  0  0  0  0  0  0  0  0  0
   -1.3265   -1.9449   -0.0004 O   0  0  0  0  0  0  0  0  0  0  0  0
    0.1926   -0.1073   -0.0001 C   0  0  0  0  0  0  0  0  0  0  0  0
    1.3362   -0.9061    0.0005 C   0  0  0  0  0  0  0  0  0  0  0  0
    0.3126    1.2825   -0.0005 C   0  0  0  0  0  0  0  0  0  0  0  0
   -1.1248   -0.7233   -0.0008 C   0  0  0  0  0  0  0  0  0  0  0  0
    2.5997   -0.3150    0.0006 C   0  0  0  0  0  0  0  0  0  0  0  0
   -3.4667   -0.2682    0.0005 C   0  0  0  0  0  0  0  0  0  0  0  0
    1.5760    1.8735   -0.0003 C   0  0  0  0  0  0  0  0  0  0  0  0
    2.7195    1.0748    0.0002 C   0  0  0  0  0  0  0  0  0  0  0  0
   -4.4149    0.9120    0.0007 C   0  0  0  0  0  0  0  0  0  0  0  0
  1  7  1  0
  1  9  1  0
  2  8  1  0
  3  7  2  0
  4  5  2  0
  4  6  1  0
  4  7  1  0
  5  8  1  0
  6 10  2  0
  8 11  2  0
  9 12  1  0
 10 11  1  0
M  END
>  <PUBCHEM_COMPOUND_CID>  (1) 
24522

>  <PUBCHEM_CONFORMER_RMSD>  (1) 
0.6

>  <PUBCHEM_CONFORMER_DIVERSEORDER>  (1) 
1
7
9
12
3
4
14
16
10
13
6
15
8
2
11
5

>  <PUBCHEM_MMFF94_PARTIAL_CHARGES>  (1) 
16
1 -0.43
10 -0.15
11 -0.15
13 0.15
14 0.15
17 0.15
18 0.15
2 -0.53
22 0.45
3 -0.57
4 0.09
5 -0.15
6 -0.15
7 0.63
8 0.08
9 0.28

>  <PUBCHEM_EFFECTIVE_ROTOR_COUNT>  (1) 
3

>  <PUBCHEM_PHARMACOPHORE_FEATURES>  (1) 
3
1 2 donor
1 3 acceptor
6 4 5 6 8 10 11 rings

>  <PUBCHEM_HEAVY_ATOM_COUNT>  (1) 
12

>  <PUBCHEM_ATOM_DEF_STEREO_COUNT>  (1) 
0

>  <PUBCHEM_ATOM_UDEF_STEREO_COUNT>  (1) 
0

>  <PUBCHEM_BOND_DEF_STEREO_COUNT>  (1) 
0

>  <PUBCHEM_BOND_UDEF_STEREO_COUNT>  (1) 
0

>  <PUBCHEM_ISOTOPIC_ATOM_COUNT>  (1) 
0

>  <PUBCHEM_COMPONENT_COUNT>  (1) 
1

>  <PUBCHEM_CACTVS_TAUTO_COUNT>  (1) 
3

>  <PUBCHEM_CONFORMER_ID>  (1) 
00005FCA00000001

>  <PUBCHEM_MMFF94_ENERGY>  (1) 
27.4367

>  <PUBCHEM_FEATURE_SELFOVERLAP>  (1) 
15.223

>  <PUBCHEM_SHAPE_FINGERPRINT>  (1) 
10130415 120 18409163299122413000
10219947 1 18272091582265142607
10608611 8 18338232794781995809
11062470 55 17346878944476638883
11471102 20 18410289207440023933
12932764 1 17559117807109198723
13380535 21 18191033497721868063
13690532 89 18411981321449104427
13922767 16 18412823564773213937
14144814 61 18411702101535816217
14325111 11 18410855499273484353
14648413 74 18192433184698637032
14897335 6 18341326816012216417
14911166 2 18411144610543863534
14993402 34 18341336616974520742
15442244 35 18411981351492594649
16945 1 18410573981151934916
17844478 74 17748826306715925085
18186145 218 18410289199224505813
18511873 20 18411698781357284731
20201158 50 18412265016966183134
20645477 70 18412825772165059591
20871998 22 18198909098218260270
21501502 16 18265892651687799783
23402539 116 18131060507521020277
23402655 69 18343015593253863949
23552423 10 18190180285605192078
2748010 2 18266744773436650982
528886 8 18339639040009704264

>  <PUBCHEM_SHAPE_MULTIPOLES>  (1) 
229.35
6.49
1.69
0.59
4.98
0.12
0
0.56
0
-0.49
0
0
0.02
0

>  <PUBCHEM_SHAPE_SELFOVERLAP>  (1) 
472.928

>  <PUBCHEM_SHAPE_VOLUME>  (1) 
132.3

>  <PUBCHEM_COORDINATE_TYPE>  (1) 
2
5
10

$$$$
