2452
     RDKit          3D

 27 31  0  0  1  0  0  0  0  0999 V2000
   -5.8412    0.0684    0.8506 Br  0  0  0  0  0  0  0  0  0  0  0  0
   -0.4916   -1.8694    1.6544 O   0  0  0  0  0  0  0  0  0  0  0  0
   -0.6145   -2.3141   -1.8699 O   0  0  0  0  0  0  0  0  0  0  0  0
   -1.7467   -3.3320   -0.1323 O   0  0  0  0  0  0  0  0  0  0  0  0
    2.6537    1.7080   -0.3228 N   0  0  0  0  0  0  0  0  0  0  0  0
   -0.5137   -0.1938    0.0473 N   0  0  0  0  0  0  0  0  0  0  0  0
    2.3183   -0.6848    0.3705 C   0  0  0  0  0  0  0  0  0  0  0  0
    1.8391    0.4867   -0.5134 C   0  0  0  0  0  0  0  0  0  0  0  0
    1.3725   -1.8875    0.0707 C   0  0  0  0  0  0  0  0  0  0  0  0
    0.4070    0.7630   -0.2621 C   0  0  0  0  0  0  0  0  0  0  0  0
    3.7720   -1.0012   -0.0567 C   0  0  0  0  0  0  0  0  0  0  0  0
   -0.1406   -1.5880    0.3060 C   0  0  0  0  0  0  0  0  0  0  0  0
    2.2956   -0.3604    1.8848 C   0  0  0  0  0  0  0  0  0  0  0  0
    4.6593    0.2533   -0.0418 C   0  0  0  0  0  0  0  0  0  0  0  0
    4.0280    1.4447   -0.7793 C   0  0  0  0  0  0  0  0  0  0  0  0
   -0.1842    1.9970   -0.2955 C   0  0  0  0  0  0  0  0  0  0  0  0
    2.0565    2.8619   -1.0413 C   0  0  0  0  0  0  0  0  0  0  0  0
    0.6334    3.2214   -0.5249 C   0  0  0  0  0  0  0  0  0  0  0  0
   -1.7563    0.4094    0.1533 C   0  0  0  0  0  0  0  0  0  0  0  0
   -1.5672    1.7915   -0.0492 C   0  0  0  0  0  0  0  0  0  0  0  0
    2.8326   -1.5212    2.6850 C   0  0  0  0  0  0  0  0  0  0  0  0
   -0.9377   -2.5204   -0.5614 C   0  0  0  0  0  0  0  0  0  0  0  0
   -3.0285   -0.1219    0.4220 C   0  0  0  0  0  0  0  0  0  0  0  0
   -2.6806    2.6532    0.0310 C   0  0  0  0  0  0  0  0  0  0  0  0
   -4.1149    0.7553    0.4886 C   0  0  0  0  0  0  0  0  0  0  0  0
   -3.9457    2.1225    0.2979 C   0  0  0  0  0  0  0  0  0  0  0  0
   -1.3046   -3.1418   -2.8116 C   0  0  0  0  0  0  0  0  0  0  0  0
  1 25  1  0
  2 12  1  0
  3 22  1  0
  3 27  1  0
  4 22  2  0
  5  8  1  0
  5 15  1  0
  5 17  1  0
  6 10  1  0
  6 12  1  0
  6 19  1  0
  7  8  1  0
  7  9  1  0
  7 11  1  0
  7 13  1  0
  8 10  1  0
  9 12  1  0
 10 16  2  0
 11 14  1  0
 12 22  1  0
 13 21  1  0
 14 15  1  0
 16 18  1  0
 16 20  1  0
 17 18  1  0
 19 20  2  0
 19 23  1  0
 20 24  1  0
 23 25  2  0
 24 26  2  0
 25 26  1  0
M  END
>  <PUBCHEM_COMPOUND_CID>  (1) 
2452

>  <PUBCHEM_CONFORMER_RMSD>  (1) 
0.8

>  <PUBCHEM_CONFORMER_DIVERSEORDER>  (1) 
6
7
17
16
19
13
15
12
1
20
18
4
14
2
10
8
9
11
3
5

>  <PUBCHEM_MMFF94_PARTIAL_CHARGES>  (1) 
24
1 -0.11
10 -0.33
12 0.6
15 0.27
16 -0.18
17 0.27
18 0.18
19 -0.15
2 -0.68
22 0.66
23 -0.15
24 -0.15
25 0.11
26 -0.15
27 0.28
3 -0.43
4 -0.57
46 0.4
47 0.15
48 0.15
49 0.15
5 -0.81
6 0.05
8 0.45

>  <PUBCHEM_EFFECTIVE_ROTOR_COUNT>  (1) 
4.4

>  <PUBCHEM_PHARMACOPHORE_FEATURES>  (1) 
12
1 1 hydrophobe
1 2 acceptor
1 2 donor
1 21 hydrophobe
1 4 acceptor
1 5 cation
1 6 cation
5 6 10 16 19 20 rings
6 19 20 23 24 25 26 rings
6 5 7 8 11 14 15 rings
6 5 8 10 16 17 18 rings
6 6 7 8 9 10 12 rings

>  <PUBCHEM_HEAVY_ATOM_COUNT>  (1) 
27

>  <PUBCHEM_ATOM_DEF_STEREO_COUNT>  (1) 
0

>  <PUBCHEM_ATOM_UDEF_STEREO_COUNT>  (1) 
3

>  <PUBCHEM_BOND_DEF_STEREO_COUNT>  (1) 
0

>  <PUBCHEM_BOND_UDEF_STEREO_COUNT>  (1) 
0

>  <PUBCHEM_ISOTOPIC_ATOM_COUNT>  (1) 
0

>  <PUBCHEM_COMPONENT_COUNT>  (1) 
1

>  <PUBCHEM_CACTVS_TAUTO_COUNT>  (1) 
1

>  <PUBCHEM_CONFORMER_ID>  (1) 
0000099400000006

>  <PUBCHEM_MMFF94_ENERGY>  (1) 
66.1757

>  <PUBCHEM_FEATURE_SELFOVERLAP>  (1) 
61.236

>  <PUBCHEM_SHAPE_FINGERPRINT>  (1) 
10675989 125 16898200440726216589
10906281 52 18264227828755843641
10967382 1 18335707113303953124
1100329 8 18264211477066228928
11488393 25 17698741215788543087
11578080 2 17129860775470845368
12035759 4 18195230338158682119
12156800 1 11444898829589508068
12633257 1 17825387367316657593
12788726 201 18196361735703317067
13140716 1 17974009749575337584
13583140 156 17385715894530513961
14178342 30 18121768698053639544
14223421 5 17617940227644234577
14787075 74 17967821578059265747
14790565 3 18337121072504759788
15131766 46 15649609175055780836
15196674 1 18334862662503920513
1601671 61 18337958861435677569
16752209 62 18059004124553535431
16945 1 18335412413975030658
18681886 176 18341895181867118432
19319366 153 17822584892702842856
19591789 44 18336832974540025516
20028762 73 18272652364057171607
20261772 1 18412263934808303083
20602899 9 17346332487076756975
20739085 24 18047779016871893385
20905425 154 17908995639993902804
21033648 29 17773580659584408280
21197605 99 18120956129365284883
21267235 1 18334871480177046896
22112679 90 18265026163974956930
229495 10 17168408390446894062
2334 1 17399243434805378700
23558518 356 17684091666309284616
23559900 14 17761772871317310291
25222932 49 17751659847471627427
2748010 2 17545866145384872662
335352 9 18336272313804322764
34934 24 18335424616457231428
350125 39 18408329878247406321
4340502 62 16732710462468628033
465052 167 18260278438564451795
5104073 3 18261117310097401281
5171179 24 17196293358379843440
59554788 248 18195513818980000565
6287921 2 17842576049894374131
6438718 38 18129942406953300343
70251023 43 17766837604269880870
7471813 234 17766538524301052950
7832392 63 18410013282072645644
81228 2 18053348193558467210
84936 31 17054976019331930135
9925002 15 18055044778912787671

>  <PUBCHEM_SHAPE_MULTIPOLES>  (1) 
534.02
7.93
3.82
1.67
5.05
0.48
0
-2.27
2.28
0.66
-1.83
-0.64
1.7
-1.6

>  <PUBCHEM_SHAPE_SELFOVERLAP>  (1) 
1166.48

>  <PUBCHEM_SHAPE_VOLUME>  (1) 
299.2

>  <PUBCHEM_COORDINATE_TYPE>  (1) 
2
5
10

$$$$
