24536
     RDKit          3D

  8  7  0  0  0  0  0  0  0  0999 V2000
    1.0959   -0.0693   -0.0538 P   0  0  0  0  0  0  0  0  0  0  0  0
   -1.1007   -0.0716    0.0472 P   0  0  0  0  0  0  0  0  0  0  0  0
    1.7194    0.0451    1.4395 O   0  0  0  0  0  0  0  0  0  0  0  0
    1.6197    1.3134   -0.7214 O   0  0  0  0  0  0  0  0  0  0  0  0
   -1.7294    0.0699   -1.4405 O   0  0  0  0  0  0  0  0  0  0  0  0
   -1.6179    1.2967    0.7487 O   0  0  0  0  0  0  0  0  0  0  0  0
    1.5950   -1.2834   -0.7890 O   0  0  0  0  0  0  0  0  0  0  0  0
   -1.5822   -1.3007    0.7692 O   0  0  0  0  0  0  0  0  0  0  0  0
  1  2  1  0
  1  3  1  0
  1  4  1  0
  1  7  2  0
  2  5  1  0
  2  6  1  0
  2  8  2  0
M  END
>  <PUBCHEM_COMPOUND_CID>  (1) 
24536

>  <PUBCHEM_CONFORMER_RMSD>  (1) 
0.4

>  <PUBCHEM_CONFORMER_DIVERSEORDER>  (1) 
1

>  <PUBCHEM_MMFF94_PARTIAL_CHARGES>  (1) 
12
1 1.24
10 0.5
11 0.5
12 0.5
2 1.24
3 -0.77
4 -0.77
5 -0.77
6 -0.77
7 -0.7
8 -0.7
9 0.5

>  <PUBCHEM_EFFECTIVE_ROTOR_COUNT>  (1) 
1

>  <PUBCHEM_PHARMACOPHORE_FEATURES>  (1) 
8
1 3 acceptor
1 4 acceptor
1 5 acceptor
1 6 acceptor
1 7 acceptor
1 8 acceptor
4 1 3 4 7 anion
4 2 5 6 8 anion

>  <PUBCHEM_HEAVY_ATOM_COUNT>  (1) 
8

>  <PUBCHEM_ATOM_DEF_STEREO_COUNT>  (1) 
0

>  <PUBCHEM_ATOM_UDEF_STEREO_COUNT>  (1) 
0

>  <PUBCHEM_BOND_DEF_STEREO_COUNT>  (1) 
0

>  <PUBCHEM_BOND_UDEF_STEREO_COUNT>  (1) 
0

>  <PUBCHEM_ISOTOPIC_ATOM_COUNT>  (1) 
0

>  <PUBCHEM_COMPONENT_COUNT>  (1) 
1

>  <PUBCHEM_CACTVS_TAUTO_COUNT>  (1) 
1

>  <PUBCHEM_CONFORMER_ID>  (1) 
00005FD800000001

>  <PUBCHEM_MMFF94_ENERGY>  (1) 
-54.6176

>  <PUBCHEM_FEATURE_SELFOVERLAP>  (1) 
40.684

>  <PUBCHEM_SHAPE_FINGERPRINT>  (1) 
24536 1 18410575088958046209
5084963 1 17983870986123482497

>  <PUBCHEM_SHAPE_MULTIPOLES>  (1) 
137.12
2.74
1.29
1.26
0
0.02
0
0.06
-0.01
0
0
0
0.01
0.04

>  <PUBCHEM_SHAPE_SELFOVERLAP>  (1) 
222.547

>  <PUBCHEM_SHAPE_VOLUME>  (1) 
95.9

>  <PUBCHEM_COORDINATE_TYPE>  (1) 
2
5
10

$$$$
