2455
     RDKit          3D

 28 30  0  0  0  0  0  0  0  0999 V2000
    5.7381    0.2294   -1.6769 S   0  0  0  0  0  0  0  0  0  0  0  0
   -3.7166   -3.4173    0.2570 F   0  0  0  0  0  0  0  0  0  0  0  0
   -2.0616   -2.8143   -1.0171 F   0  0  0  0  0  0  0  0  0  0  0  0
   -1.8855   -2.6398    1.1486 F   0  0  0  0  0  0  0  0  0  0  0  0
   -6.7962    1.1731    0.2082 F   0  0  0  0  0  0  0  0  0  0  0  0
   -5.4531    2.6400    1.0857 F   0  0  0  0  0  0  0  0  0  0  0  0
   -5.6161    2.4754   -1.0818 F   0  0  0  0  0  0  0  0  0  0  0  0
    3.7430    0.2951    1.6444 O   0  0  0  0  0  0  0  0  0  0  0  0
   -2.5019    0.0141   -0.0799 N   0  0  0  0  0  0  0  0  0  0  0  0
   -3.2108    1.1629   -0.0963 N   0  0  0  0  0  0  0  0  0  0  0  0
    3.0429    0.1357   -0.5725 N   0  0  0  0  0  0  0  0  0  0  0  0
    7.6941    0.3916   -0.1195 N   0  0  0  0  0  0  0  0  0  0  0  0
    7.3884    0.3236   -1.4054 N   0  0  0  0  0  0  0  0  0  0  0  0
   -3.2896   -1.0992    0.0618 C   0  0  0  0  0  0  0  0  0  0  0  0
   -1.1246    0.0442   -0.2020 C   0  0  0  0  0  0  0  0  0  0  0  0
   -4.5841   -0.6468    0.1424 C   0  0  0  0  0  0  0  0  0  0  0  0
   -4.4748    0.7529    0.0392 C   0  0  0  0  0  0  0  0  0  0  0  0
   -0.5352   -0.0194   -1.4646 C   0  0  0  0  0  0  0  0  0  0  0  0
   -0.3250    0.1382    0.9371 C   0  0  0  0  0  0  0  0  0  0  0  0
    1.6535    0.1050   -0.4490 C   0  0  0  0  0  0  0  0  0  0  0  0
   -2.7476   -2.4715    0.1089 C   0  0  0  0  0  0  0  0  0  0  0  0
    0.8539    0.0109   -1.5880 C   0  0  0  0  0  0  0  0  0  0  0  0
    1.0641    0.1687    0.8135 C   0  0  0  0  0  0  0  0  0  0  0  0
   -5.5653    1.7422    0.0655 C   0  0  0  0  0  0  0  0  0  0  0  0
    4.0122    0.2269    0.4470 C   0  0  0  0  0  0  0  0  0  0  0  0
    5.4080    0.2787   -0.0206 C   0  0  0  0  0  0  0  0  0  0  0  0
    6.5588    0.3658    0.6746 C   0  0  0  0  0  0  0  0  0  0  0  0
    6.7309    0.4339    2.1397 C   0  0  0  0  0  0  0  0  0  0  0  0
  1 13  1  0
  1 26  1  0
  2 21  1  0
  3 21  1  0
  4 21  1  0
  5 24  1  0
  6 24  1  0
  7 24  1  0
  8 25  2  0
  9 10  1  0
  9 14  1  0
  9 15  1  0
 10 17  2  0
 11 20  1  0
 11 25  1  0
 12 13  2  0
 12 27  1  0
 14 16  2  0
 14 21  1  0
 15 18  2  0
 15 19  1  0
 16 17  1  0
 17 24  1  0
 18 22  1  0
 19 23  2  0
 20 22  2  0
 20 23  1  0
 25 26  1  0
 26 27  2  0
 27 28  1  0
M  END
>  <PUBCHEM_COMPOUND_CID>  (1) 
2455

>  <PUBCHEM_CONFORMER_RMSD>  (1) 
0.8

>  <PUBCHEM_CONFORMER_DIVERSEORDER>  (1) 
2
7
8
1
6
5
4
3

>  <PUBCHEM_MMFF94_PARTIAL_CHARGES>  (1) 
34
1 0.18
10 -0.71
11 -0.55
12 -0.23
13 -0.22
14 -0.33
15 -0.02
16 -0.15
17 0.11
18 -0.15
19 -0.15
2 -0.34
20 0.12
21 1.2
22 -0.15
23 -0.15
24 1.2
25 0.71
26 -0.05
27 0.05
28 0.18
29 0.15
3 -0.34
30 0.15
31 0.15
32 0.15
33 0.15
34 0.37
4 -0.34
5 -0.34
6 -0.34
7 -0.34
8 -0.57
9 0.59

>  <PUBCHEM_EFFECTIVE_ROTOR_COUNT>  (1) 
6

>  <PUBCHEM_PHARMACOPHORE_FEATURES>  (1) 
6
1 10 acceptor
1 11 donor
1 8 acceptor
5 1 12 13 26 27 rings
5 9 10 14 16 17 rings
6 15 18 19 20 22 23 rings

>  <PUBCHEM_HEAVY_ATOM_COUNT>  (1) 
28

>  <PUBCHEM_ATOM_DEF_STEREO_COUNT>  (1) 
0

>  <PUBCHEM_ATOM_UDEF_STEREO_COUNT>  (1) 
0

>  <PUBCHEM_BOND_DEF_STEREO_COUNT>  (1) 
0

>  <PUBCHEM_BOND_UDEF_STEREO_COUNT>  (1) 
0

>  <PUBCHEM_ISOTOPIC_ATOM_COUNT>  (1) 
0

>  <PUBCHEM_COMPONENT_COUNT>  (1) 
1

>  <PUBCHEM_CACTVS_TAUTO_COUNT>  (1) 
2

>  <PUBCHEM_CONFORMER_ID>  (1) 
0000099700000002

>  <PUBCHEM_MMFF94_ENERGY>  (1) 
66.7917

>  <PUBCHEM_FEATURE_SELFOVERLAP>  (1) 
30.447

>  <PUBCHEM_SHAPE_FINGERPRINT>  (1) 
10165383 225 18411984621049773729
10299344 5 17603586331461838088
10319926 262 18340481270211639192
10411042 1 17977949317904302851
10763959 59 17418370303412915752
10835480 77 18060415842123694232
11045977 3 18059572533520665912
11135609 99 15286791147480886497
11315181 36 18187082909625568847
11545043 162 18201720716801097498
11796584 16 18343304777950292574
12166972 35 8214139673297585598
12236239 1 17603586335324321080
12616971 3 17022900164515378814
13533116 47 18129662977024678502
13583140 156 17846777450895599966
13914758 101 15051741854207664683
14251764 18 17530967994524659145
14840074 17 16660360398691392170
14856354 85 18187931715327689775
15021287 119 17022626381545689853
15183329 4 17603861247981724870
15537594 2 17167857565354779026
1577012 14 17676487268367145142
17093844 174 18201996664207541634
17844677 252 18270122447767313248
19489759 90 18343864437325275199
20554085 129 18129365043379530827
21033648 29 17632001031780419824
21150785 3 14117509948343565900
21424621 283 18129109914049095201
21623969 137 14707209894561186776
21792961 116 17203059509115005724
220451 1 17821726144309927994
23081809 10 17603584166814145082
23516275 137 17969798380192889538
23522609 53 17531547429090512852
23559900 14 18273215304971745360
24771293 8 17604993797067999180
249057 3 18409449206458426533
397830 11 17915454111661432034
4015057 19 16343694482643939523
4073 2 18334861662557145682
4144715 1 18269557311396002840
5104073 3 17968376874608020240
5265222 85 18267875063248684078
5364581 5 18055341698703256184
58260988 114 16009326417269691203
59755656 215 18059861623711749788
59755656 520 18412537696456448975
6009941 240 18343021095117318106
6691757 9 18408326597187349875
7226269 152 18343584014890235865

>  <PUBCHEM_SHAPE_MULTIPOLES>  (1) 
505.66
19.59
2.19
1.47
20.32
1.47
-0.01
-8.21
-1.35
-6.2
-0.2
2.41
-0.12
0.29

>  <PUBCHEM_SHAPE_SELFOVERLAP>  (1) 
1095.312

>  <PUBCHEM_SHAPE_VOLUME>  (1) 
281.8

>  <PUBCHEM_COORDINATE_TYPE>  (1) 
2
5
10

$$$$
