24578
     RDKit          3D

 17 16  0  0  0  0  0  0  0  0999 V2000
    1.2237    0.8908    0.3600 O   0  0  0  0  0  0  0  0  0  0  0  0
    3.1979    1.8909   -0.2756 O   0  0  0  0  0  0  0  0  0  0  0  0
   -3.3480    1.5629    0.3884 C   0  0  0  0  0  0  0  0  0  0  0  0
   -3.9620    0.2013    0.0373 C   0  0  0  0  0  0  0  0  0  0  0  0
   -1.9167    1.7254   -0.0789 C   0  0  0  0  0  0  0  0  0  0  0  0
   -3.1990   -0.9484    0.6351 C   0  0  0  0  0  0  0  0  0  0  0  0
   -0.8632    1.9488    0.7308 C   0  0  0  0  0  0  0  0  0  0  0  0
   -1.7185    1.6559   -1.5716 C   0  0  0  0  0  0  0  0  0  0  0  0
   -2.6840   -2.0212    0.0054 C   0  0  0  0  0  0  0  0  0  0  0  0
    0.5674    2.1514    0.3446 C   0  0  0  0  0  0  0  0  0  0  0  0
   -1.9526   -3.0815    0.7849 C   0  0  0  0  0  0  0  0  0  0  0  0
   -2.7537   -2.2778   -1.4730 C   0  0  0  0  0  0  0  0  0  0  0  0
    2.5484    0.9002    0.0277 C   0  0  0  0  0  0  0  0  0  0  0  0
    3.0942   -0.4900    0.0827 C   0  0  0  0  0  0  0  0  0  0  0  0
    2.1767   -1.5986    0.5062 C   0  0  0  0  0  0  0  0  0  0  0  0
    4.3965   -0.6223   -0.2300 C   0  0  0  0  0  0  0  0  0  0  0  0
    5.1928   -1.8879   -0.2739 C   0  0  0  0  0  0  0  0  0  0  0  0
  1 10  1  0
  1 13  1  0
  2 13  2  0
  3  4  1  0
  3  5  1  0
  4  6  1  0
  5  7  2  0
  5  8  1  0
  6  9  2  3
  7 10  1  0
  9 11  1  0
  9 12  1  0
 13 14  1  0
 14 15  1  0
 14 16  2  0
 16 17  1  0
M  END
>  <PUBCHEM_COMPOUND_CID>  (1) 
24578

>  <PUBCHEM_CONFORMER_RMSD>  (1) 
1

>  <PUBCHEM_CONFORMER_DIVERSEORDER>  (1) 
1
96
19
111
147
103
133
136
159
48
42
150
104
114
149
95
18
65
29
56
68
151
44
87
76
12
3
102
162
156
145
122
45
77
73
98
36
89
109
115
49
155
2
139
27
37
55
78
80
38
119
51
7
134
13
14
69
164
43
58
74
88
93
92
161
22
5
123
4
112
47
168
110
113
35
105
124
59
135
163
57
85
81
20
6
143
86
99
130
53
141
79
26
132
39
165
67
40
24
28
33
167
142
160
32
107
52
46
169
146
106
131
125
138
126
21
117
15
137
90
91
140
16
60
34
64
10
144
154
17
82
94
62
9
11
83
8
66
121
100
50
54
70
148
127
41
108
166
23
158
152
120
63
61
30
128
71
97
153
72
116
25
129
75
157
31
101
84
118

>  <PUBCHEM_MMFF94_PARTIAL_CHARGES>  (1) 
20
1 -0.43
10 0.42
11 0.14
12 0.14
13 0.71
14 -0.12
15 0.14
16 -0.29
17 0.14
2 -0.57
22 0.15
23 0.15
3 0.14
38 0.15
4 0.14
5 -0.28
6 -0.29
7 -0.29
8 0.14
9 -0.28

>  <PUBCHEM_EFFECTIVE_ROTOR_COUNT>  (1) 
7

>  <PUBCHEM_PHARMACOPHORE_FEATURES>  (1) 
6
1 15 hydrophobe
1 17 hydrophobe
1 2 acceptor
1 8 hydrophobe
3 9 11 12 hydrophobe
4 3 4 5 6 hydrophobe

>  <PUBCHEM_HEAVY_ATOM_COUNT>  (1) 
17

>  <PUBCHEM_ATOM_DEF_STEREO_COUNT>  (1) 
0

>  <PUBCHEM_ATOM_UDEF_STEREO_COUNT>  (1) 
0

>  <PUBCHEM_BOND_DEF_STEREO_COUNT>  (1) 
0

>  <PUBCHEM_BOND_UDEF_STEREO_COUNT>  (1) 
2

>  <PUBCHEM_ISOTOPIC_ATOM_COUNT>  (1) 
0

>  <PUBCHEM_COMPONENT_COUNT>  (1) 
1

>  <PUBCHEM_CACTVS_TAUTO_COUNT>  (1) 
1

>  <PUBCHEM_CONFORMER_ID>  (1) 
0000600200000001

>  <PUBCHEM_MMFF94_ENERGY>  (1) 
20.6565

>  <PUBCHEM_FEATURE_SELFOVERLAP>  (1) 
30.469

>  <PUBCHEM_SHAPE_FINGERPRINT>  (1) 
10616163 171 18412830183033058375
107951 10 17168710709490534817
10803635 8 17969216729444704420
11458722 379 18335985272402381171
12553582 1 18335974324725630227
12555020 224 18339351986276781685
12596599 1 17845394260846361382
12596602 18 13686002177658511942
12633257 1 18200888309067951843
12757275 245 18411141294649775760
14251705 54 17470451098123732651
14251731 5 18339364183514663435
14251740 79 18339366249425653106
14251745 187 18265327498473996425
14251751 93 18187923911556436482
14251757 5 18337129911863842902
14863182 85 16751564084966570441
14916288 52 18267025153123198979
15196674 1 18410857689443054883
15880784 105 16486956398130496782
17834074 16 18409730668370581768
17859628 97 18336549292345815891
19107657 46 18411700946057770616
20291156 8 18411419552553459361
20442098 301 18342453781012926225
20621476 51 17917139623821073423
21354914 83 18265899231830729481
21403212 168 18056771936320042945
21634736 98 18335706052773753928
221490 88 18337398239923892168
23466295 7 18115605853575097371
23559900 14 18412538834264586360
238078 22 18340497698662330832
57210444 14 17755846538315287509
574716 61 17169293574685159518
57583515 115 18343023242147454279
58051976 100 18187085001454340629
8809292 202 18410294704934794306
9709674 26 18337673130240854504

>  <PUBCHEM_SHAPE_MULTIPOLES>  (1) 
338.11
9.06
3.46
1.03
9.05
1.23
0.35
3.84
0.66
-1.71
-0.06
-0.73
0.13
-0.02

>  <PUBCHEM_SHAPE_SELFOVERLAP>  (1) 
645.154

>  <PUBCHEM_SHAPE_VOLUME>  (1) 
208

>  <PUBCHEM_COORDINATE_TYPE>  (1) 
2
5
10

$$$$
