24624
     RDKit          3D

 12 11  0  0  0  0  0  0  0  0999 V2000
    1.1024   -0.9701   -0.6670 O   0  0  0  0  0  0  0  0  0  0  0  0
    1.9643    1.0825    0.2315 O   0  0  0  0  0  0  0  0  0  0  0  0
   -2.7987    0.5390    0.2537 O   0  0  0  0  0  0  0  0  0  0  0  0
   -0.4153    0.7616    0.2292 C   0  0  0  0  0  0  0  0  0  0  0  0
    0.9029    0.4362   -0.4827 C   0  0  0  0  0  0  0  0  0  0  0  0
   -1.6348    0.1996   -0.4883 C   0  0  0  0  0  0  0  0  0  0  0  0
    1.1414   -1.7318    0.5321 C   0  0  0  0  0  0  0  0  0  0  0  0
    3.2379    0.8412   -0.3528 C   0  0  0  0  0  0  0  0  0  0  0  0
   -3.9763    0.0410   -0.3666 C   0  0  0  0  0  0  0  0  0  0  0  0
    1.3565   -3.1892    0.1836 C   0  0  0  0  0  0  0  0  0  0  0  0
    4.2965    1.5564    0.4594 C   0  0  0  0  0  0  0  0  0  0  0  0
   -5.1769    0.4336    0.4679 C   0  0  0  0  0  0  0  0  0  0  0  0
  1  5  1  0
  1  7  1  0
  2  5  1  0
  2  8  1  0
  3  6  1  0
  3  9  1  0
  4  5  1  0
  4  6  1  0
  7 10  1  0
  8 11  1  0
  9 12  1  0
M  END
>  <PUBCHEM_COMPOUND_CID>  (1) 
24624

>  <PUBCHEM_CONFORMER_RMSD>  (1) 
0.8

>  <PUBCHEM_CONFORMER_DIVERSEORDER>  (1) 
1
5
47
54
45
31
6
50
63
39
59
18
32
23
48
46
14
20
51
42
10
37
56
36
44
58
41
43
38
21
16
8
25
55
11
27
34
17
28
9
52
29
35
62
60
57
53
22
30
26
24
15
61
19
7
40
49
12
33
3
2
13
4

>  <PUBCHEM_MMFF94_PARTIAL_CHARGES>  (1) 
8
1 -0.56
2 -0.56
3 -0.56
5 0.56
6 0.28
7 0.28
8 0.28
9 0.28

>  <PUBCHEM_EFFECTIVE_ROTOR_COUNT>  (1) 
8

>  <PUBCHEM_PHARMACOPHORE_FEATURES>  (1) 
3
1 1 acceptor
1 2 acceptor
1 3 acceptor

>  <PUBCHEM_HEAVY_ATOM_COUNT>  (1) 
12

>  <PUBCHEM_ATOM_DEF_STEREO_COUNT>  (1) 
0

>  <PUBCHEM_ATOM_UDEF_STEREO_COUNT>  (1) 
0

>  <PUBCHEM_BOND_DEF_STEREO_COUNT>  (1) 
0

>  <PUBCHEM_BOND_UDEF_STEREO_COUNT>  (1) 
0

>  <PUBCHEM_ISOTOPIC_ATOM_COUNT>  (1) 
0

>  <PUBCHEM_COMPONENT_COUNT>  (1) 
1

>  <PUBCHEM_CACTVS_TAUTO_COUNT>  (1) 
1

>  <PUBCHEM_CONFORMER_ID>  (1) 
0000603000000001

>  <PUBCHEM_MMFF94_ENERGY>  (1) 
15.6511

>  <PUBCHEM_FEATURE_SELFOVERLAP>  (1) 
15.255

>  <PUBCHEM_SHAPE_FINGERPRINT>  (1) 
10219947 1 18114180856419395188
12932764 1 17774988078008373445
13380535 76 18260267477238537779
14251717 144 18409728422181937122
14252887 29 17968106291715539545
170605 34 18202285805352683572
20279233 1 17821736035482369769
204376 136 18336266854937669460
20645477 70 18337102351227067703
21054139 6 18197202849424479079
22485316 2 18409729543954034173
23402539 116 18200587120334102244
23532345 1 18407763629663701473
23557571 272 17023183760968628869
3071541 37 18334582321672544958
3250762 1 17755847629067883284
33824 294 18335421248960310827
366044 4 18337670914507273464
42630746 31 18412823564836582366
449060 50 18335423478401674413
449060 62 18342176661191069457
68521 5 9942987567171297194
7364860 26 18340205172439381526
81228 2 17470430198833631338
81539 233 18261108573711245230

>  <PUBCHEM_SHAPE_MULTIPOLES>  (1) 
229.35
8.45
2.3
0.77
8.55
2.86
-0.01
-4.43
1.18
-2.74
0.31
0
0
0.01

>  <PUBCHEM_SHAPE_SELFOVERLAP>  (1) 
410.612

>  <PUBCHEM_SHAPE_VOLUME>  (1) 
148

>  <PUBCHEM_COORDINATE_TYPE>  (1) 
2
5
10

$$$$
