24625
     RDKit          3D

 10  9  0  0  1  0  0  0  0  0999 V2000
    1.0734   -0.1548   -0.2897 O   0  0  0  0  0  0  0  0  0  0  0  0
    2.7270    0.6216    1.1244 O   0  0  0  0  0  0  0  0  0  0  0  0
   -1.0062   -1.2357    0.3660 C   0  0  0  0  0  0  0  0  0  0  0  0
   -1.9382   -0.2630   -0.3851 C   0  0  0  0  0  0  0  0  0  0  0  0
   -2.3486    0.9530    0.4486 C   0  0  0  0  0  0  0  0  0  0  0  0
    0.3080   -0.5901    0.8250 C   0  0  0  0  0  0  0  0  0  0  0  0
   -0.7182   -2.4487   -0.5265 C   0  0  0  0  0  0  0  0  0  0  0  0
   -3.3319    1.8357   -0.3054 C   0  0  0  0  0  0  0  0  0  0  0  0
    2.2705    0.4387    0.0040 C   0  0  0  0  0  0  0  0  0  0  0  0
    2.9642    0.8433   -1.2613 C   0  0  0  0  0  0  0  0  0  0  0  0
  1  6  1  0
  1  9  1  0
  2  9  2  0
  3  4  1  0
  3  6  1  0
  3  7  1  0
  4  5  1  0
  5  8  1  0
  9 10  1  0
M  END
>  <PUBCHEM_COMPOUND_CID>  (1) 
24625

>  <PUBCHEM_CONFORMER_RMSD>  (1) 
0.6

>  <PUBCHEM_CONFORMER_DIVERSEORDER>  (1) 
1
49
62
77
100
60
85
5
98
21
95
41
47
66
74
73
102
54
67
40
101
84
15
97
53
30
72
12
48
36
13
55
57
20
33
14
81
83
46
78
44
22
29
70
93
88
27
35
16
43
19
8
63
96
79
23
80
86
18
90
82
50
31
56
99
3
58
52
10
59
87
24
28
25
39
42
71
26
64
91
51
2
45
6
94
34
89
75
65
32
76
38
4
11
17
9
7
68
92
61
37
69

>  <PUBCHEM_MMFF94_PARTIAL_CHARGES>  (1) 
5
1 -0.43
10 0.06
2 -0.57
6 0.28
9 0.66

>  <PUBCHEM_EFFECTIVE_ROTOR_COUNT>  (1) 
5

>  <PUBCHEM_PHARMACOPHORE_FEATURES>  (1) 
3
1 2 acceptor
1 7 hydrophobe
1 8 hydrophobe

>  <PUBCHEM_HEAVY_ATOM_COUNT>  (1) 
10

>  <PUBCHEM_ATOM_DEF_STEREO_COUNT>  (1) 
0

>  <PUBCHEM_ATOM_UDEF_STEREO_COUNT>  (1) 
1

>  <PUBCHEM_BOND_DEF_STEREO_COUNT>  (1) 
0

>  <PUBCHEM_BOND_UDEF_STEREO_COUNT>  (1) 
0

>  <PUBCHEM_ISOTOPIC_ATOM_COUNT>  (1) 
0

>  <PUBCHEM_COMPONENT_COUNT>  (1) 
1

>  <PUBCHEM_CACTVS_TAUTO_COUNT>  (1) 
1

>  <PUBCHEM_CONFORMER_ID>  (1) 
0000603100000001

>  <PUBCHEM_MMFF94_ENERGY>  (1) 
7.2611

>  <PUBCHEM_FEATURE_SELFOVERLAP>  (1) 
15.223

>  <PUBCHEM_SHAPE_FINGERPRINT>  (1) 
1 1 18196648489099590263
100427 49 17256816018789982547
10149128 111 18186527596008234621
12716758 59 18272653484436675178
12932741 1 17488754505013710450
12932764 1 18128546040450565690
14390081 3 18342734100812310905
15775835 57 18187087238894912133
170605 34 18189056391685486089
18186145 218 17775008963991034041
19837323 101 18342455971678472747
20645477 56 18270690886404037200
20653085 51 18334590043817819826
21028194 46 18410295770376697691
21040471 1 18411698785552174762
21524375 3 18335696092665421203
305870 269 18264763277199965467
3248919 1 17677604431799064866
81228 2 18054226811023884259
88987 49 18341045341341363448

>  <PUBCHEM_SHAPE_MULTIPOLES>  (1) 
194.06
5.05
2.02
1.03
0.71
0.94
0
-3.83
0.62
-1.42
0.41
0.61
-0.09
-0.16

>  <PUBCHEM_SHAPE_SELFOVERLAP>  (1) 
352.746

>  <PUBCHEM_SHAPE_VOLUME>  (1) 
124.7

>  <PUBCHEM_COORDINATE_TYPE>  (1) 
2
5
10

$$$$
