24652
     RDKit          3D

 25 26  0  0  1  0  0  0  0  0999 V2000
   -2.1394    0.8673    1.8231 S   0  0  0  0  0  0  0  0  0  0  0  0
    4.5506    2.3927    0.5597 S   0  0  0  0  0  0  0  0  0  0  0  0
   -5.1734    2.1685   -0.5209 N   0  0  0  0  0  0  0  0  0  0  0  0
   -1.1364    0.2764    0.3943 C   0  0  0  0  0  0  0  0  0  0  0  0
    0.2606    0.7968    0.4349 C   0  0  0  0  0  0  0  0  0  0  0  0
   -1.2382   -1.2363    0.1802 C   0  0  0  0  0  0  0  0  0  0  0  0
   -3.7396    0.8956    0.9914 C   0  0  0  0  0  0  0  0  0  0  0  0
   -3.8752    2.1563    0.1466 C   0  0  0  0  0  0  0  0  0  0  0  0
    1.1389    0.3588    1.4261 C   0  0  0  0  0  0  0  0  0  0  0  0
    0.6891    1.7212   -0.5178 C   0  0  0  0  0  0  0  0  0  0  0  0
   -1.2599   -2.0959    1.2785 C   0  0  0  0  0  0  0  0  0  0  0  0
   -1.3104   -1.7546   -1.1128 C   0  0  0  0  0  0  0  0  0  0  0  0
    2.8742    1.7694    0.5118 C   0  0  0  0  0  0  0  0  0  0  0  0
    2.4458    0.8450    1.4645 C   0  0  0  0  0  0  0  0  0  0  0  0
    1.9958    2.2075   -0.4794 C   0  0  0  0  0  0  0  0  0  0  0  0
   -1.4258   -3.9922   -0.2091 C   0  0  0  0  0  0  0  0  0  0  0  0
    5.1353    0.3479   -1.2528 C   0  0  0  0  0  0  0  0  0  0  0  0
   -1.3538   -3.4738    1.0838 C   0  0  0  0  0  0  0  0  0  0  0  0
   -1.4041   -3.1325   -1.3075 C   0  0  0  0  0  0  0  0  0  0  0  0
    5.1765    1.8640   -1.0621 C   0  0  0  0  0  0  0  0  0  0  0  0
    6.0050   -0.4214   -0.2549 C   0  0  0  0  0  0  0  0  0  0  0  0
   -5.5356    3.5303   -0.9153 C   0  0  0  0  0  0  0  0  0  0  0  0
   -5.1585    1.2873   -1.6891 C   0  0  0  0  0  0  0  0  0  0  0  0
   -1.5263   -5.4656   -0.4170 C   0  0  0  0  0  0  0  0  0  0  0  0
    6.0047   -1.9126   -0.5560 C   0  0  0  0  0  0  0  0  0  0  0  0
  1  4  1  0
  1  7  1  0
  2 13  1  0
  2 20  1  0
  3  8  1  0
  3 22  1  0
  3 23  1  0
  4  5  1  0
  4  6  1  0
  5  9  2  0
  5 10  1  0
  6 11  2  0
  6 12  1  0
  7  8  1  0
  9 14  1  0
 10 15  2  0
 11 18  1  0
 12 19  2  0
 13 14  2  0
 13 15  1  0
 16 18  2  0
 16 19  1  0
 16 24  1  0
 17 20  1  0
 17 21  1  0
 21 25  1  0
M  END
>  <PUBCHEM_COMPOUND_CID>  (1) 
24652

>  <PUBCHEM_CONFORMER_RMSD>  (1) 
1

>  <PUBCHEM_CONFORMER_DIVERSEORDER>  (1) 
4
18
90
102
78
53
47
33
74
52
55
69
97
61
95
93
106
73
44
25
101
59
76
11
39
37
3
84
38
104
86
72
66
54
9
15
89
41
19
31
30
105
71
81
29
43
60
1
49
48
64
56
79
50
45
27
46
91
58
75
34
100
16
98
35
87
82
20
94
96
63
28
42
5
65
68
77
99
51
83
85
22
107
24
67
13
88
17
6
70
21
40
12
57
80
103
32
92
10
62
8
23
36
26
2
14
7

>  <PUBCHEM_MMFF94_PARTIAL_CHARGES>  (1) 
30
1 -0.46
10 -0.15
11 -0.15
12 -0.15
13 0.1
14 -0.15
15 -0.15
16 -0.14
18 -0.15
19 -0.15
2 -0.33
20 0.23
22 0.27
23 0.27
24 0.14
3 -0.81
31 0.15
32 0.15
33 0.15
34 0.15
35 0.15
36 0.15
39 0.15
4 0.52
40 0.15
5 -0.14
6 -0.14
7 0.23
8 0.27
9 -0.15

>  <PUBCHEM_EFFECTIVE_ROTOR_COUNT>  (1) 
10

>  <PUBCHEM_PHARMACOPHORE_FEATURES>  (1) 
5
1 25 hydrophobe
1 3 cation
4 2 17 20 21 hydrophobe
6 5 9 10 13 14 15 rings
6 6 11 12 16 18 19 rings

>  <PUBCHEM_HEAVY_ATOM_COUNT>  (1) 
25

>  <PUBCHEM_ATOM_DEF_STEREO_COUNT>  (1) 
0

>  <PUBCHEM_ATOM_UDEF_STEREO_COUNT>  (1) 
1

>  <PUBCHEM_BOND_DEF_STEREO_COUNT>  (1) 
0

>  <PUBCHEM_BOND_UDEF_STEREO_COUNT>  (1) 
0

>  <PUBCHEM_ISOTOPIC_ATOM_COUNT>  (1) 
0

>  <PUBCHEM_COMPONENT_COUNT>  (1) 
1

>  <PUBCHEM_CACTVS_TAUTO_COUNT>  (1) 
1

>  <PUBCHEM_CONFORMER_ID>  (1) 
0000604C00000004

>  <PUBCHEM_MMFF94_ENERGY>  (1) 
60.5944

>  <PUBCHEM_FEATURE_SELFOVERLAP>  (1) 
25.372

>  <PUBCHEM_SHAPE_FINGERPRINT>  (1) 
10254770 206 18048869707639455866
105312 117 18408044022139952725
11796584 16 18270977816727672852
11991303 11 18334298703691971415
12549972 3 17703216447055813712
12643181 29 18411989036276017678
12788726 201 17974550684032620147
13135754 10 17387150847104098747
13257819 37 18409729586734869663
133893 2 17910965634687926361
13583140 156 17201922750887650592
13690498 29 17980219783059268156
13944108 23 17614557043335619621
14068700 686 17692808603322039712
14117953 113 18196092128327900654
14856354 85 16226056608122533280
15131766 46 14780406707247093476
15439362 3 18049439250050528333
17349148 13 13542473093773815536
1813 80 17047410730745406879
19141452 34 18411427224061648720
19315092 285 13541623021251256182
19958102 18 18340197591911418095
20775438 99 17553728005859106461
21033648 29 18412537726163381697
21307412 95 18200610094499206470
21344244 246 18057603166472435431
21703447 108 17696185190471471112
22121540 332 16662316296242194406
23559900 14 18059581334473716760
249057 3 18336831897310141412
340366 18 18335431170588037460
4015057 19 17131835403939494648
4058900 60 18264493871630184273
44062 13 18341061808546845158
4409770 3 18266454502978977851
463206 1 18410582748024750730
513202 73 18190756421235605931
532947 4 18125732187930892246
57307002 29 18193306064499392374
59755656 520 18201451289476677641
633830 44 17168713054506189880
70251023 43 17618224348199415739
7164475 11 17832990820476215693
7970288 3 17263007360488245958

>  <PUBCHEM_SHAPE_MULTIPOLES>  (1) 
517.21
12.41
5.69
1.56
11
8.05
-0.16
-9.58
5.13
-6.34
1.27
-0.65
-0.14
1.21

>  <PUBCHEM_SHAPE_SELFOVERLAP>  (1) 
1025.472

>  <PUBCHEM_SHAPE_VOLUME>  (1) 
311.6

>  <PUBCHEM_COORDINATE_TYPE>  (1) 
2
5
10

$$$$
