24651
     RDKit          3D

 25 26  0  0  1  0  0  0  0  0999 V2000
    3.8726    1.3965   -0.3669 S   0  0  0  0  0  0  0  0  0  0  0  0
   -2.4401   -0.9928   -0.0709 O   0  0  0  0  0  0  0  0  0  0  0  0
   -1.8894   -4.5935    0.3993 N   0  0  0  0  0  0  0  0  0  0  0  0
   -1.9970    0.1974    0.6074 C   0  0  0  0  0  0  0  0  0  0  0  0
   -0.5563    0.4879    0.3546 C   0  0  0  0  0  0  0  0  0  0  0  0
   -2.9288    1.3517    0.2557 C   0  0  0  0  0  0  0  0  0  0  0  0
    0.0059    0.2026   -0.8898 C   0  0  0  0  0  0  0  0  0  0  0  0
   -1.9196   -2.1507    0.5531 C   0  0  0  0  0  0  0  0  0  0  0  0
    1.3543    0.4722   -1.1242 C   0  0  0  0  0  0  0  0  0  0  0  0
    0.2299    1.0429    1.3644 C   0  0  0  0  0  0  0  0  0  0  0  0
    2.1402    1.0274   -0.1143 C   0  0  0  0  0  0  0  0  0  0  0  0
   -2.4156   -3.3756   -0.1989 C   0  0  0  0  0  0  0  0  0  0  0  0
    1.5781    1.3126    1.1300 C   0  0  0  0  0  0  0  0  0  0  0  0
    4.6495    0.3627    0.9095 C   0  0  0  0  0  0  0  0  0  0  0  0
    6.1734    0.4802    0.9273 C   0  0  0  0  0  0  0  0  0  0  0  0
   -3.5689    1.3790   -0.9833 C   0  0  0  0  0  0  0  0  0  0  0  0
   -3.1409    2.3811    1.1730 C   0  0  0  0  0  0  0  0  0  0  0  0
    1.9099    0.1520   -2.4749 C   0  0  0  0  0  0  0  0  0  0  0  0
    6.8409    0.0228   -0.3725 C   0  0  0  0  0  0  0  0  0  0  0  0
   -4.4211    2.4354   -1.3050 C   0  0  0  0  0  0  0  0  0  0  0  0
   -3.9933    3.4373    0.8514 C   0  0  0  0  0  0  0  0  0  0  0  0
   -2.7098   -5.7493    0.0287 C   0  0  0  0  0  0  0  0  0  0  0  0
   -0.4983   -4.8106   -0.0057 C   0  0  0  0  0  0  0  0  0  0  0  0
   -4.6333    3.4645   -0.3875 C   0  0  0  0  0  0  0  0  0  0  0  0
    8.3575    0.0662   -0.2602 C   0  0  0  0  0  0  0  0  0  0  0  0
  1 11  1  0
  1 14  1  0
  2  4  1  0
  2  8  1  0
  3 12  1  0
  3 22  1  0
  3 23  1  0
  4  5  1  0
  4  6  1  0
  5  7  2  0
  5 10  1  0
  6 16  2  0
  6 17  1  0
  7  9  1  0
  8 12  1  0
  9 11  2  0
  9 18  1  0
 10 13  2  0
 11 13  1  0
 14 15  1  0
 15 19  1  0
 16 20  1  0
 17 21  2  0
 19 25  1  0
 20 24  2  0
 21 24  1  0
M  END
>  <PUBCHEM_COMPOUND_CID>  (1) 
24651

>  <PUBCHEM_CONFORMER_RMSD>  (1) 
1

>  <PUBCHEM_CONFORMER_DIVERSEORDER>  (1) 
1
64
123
160
172
136
59
140
120
142
159
28
118
152
30
148
149
78
52
67
119
154
71
8
13
97
177
115
169
112
91
81
16
101
73
22
51
144
111
62
68
102
179
36
99
48
76
39
161
155
23
87
147
143
178
158
27
21
66
6
11
110
107
124
63
34
75
31
26
126
108
41
65
32
182
141
70
49
80
106
151
86
25
93
43
50
174
29
163
134
185
53
122
9
96
116
77
167
100
95
139
104
89
19
57
15
44
7
127
183
180
10
37
175
74
98
38
145
54
4
162
94
20
129
135
146
92
55
168
181
150
131
105
2
24
46
164
137
42
56
88
45
72
113
184
5
125
166
128
3
83
173
157
130
156
12
60
153
121
103
133
47
132
109
35
82
138
85
33
171
114
176
79
61
170
17
14
18
84
165
40
69
90
117
58

>  <PUBCHEM_MMFF94_PARTIAL_CHARGES>  (1) 
30
1 -0.33
10 -0.15
11 0.1
12 0.27
13 -0.15
14 0.23
16 -0.15
17 -0.15
18 0.14
2 -0.56
20 -0.15
21 -0.15
22 0.27
23 0.27
24 -0.15
27 0.15
3 -0.81
30 0.15
33 0.15
38 0.15
39 0.15
4 0.57
45 0.15
46 0.15
5 -0.14
53 0.15
6 -0.14
7 -0.15
8 0.28
9 -0.14

>  <PUBCHEM_EFFECTIVE_ROTOR_COUNT>  (1) 
10

>  <PUBCHEM_PHARMACOPHORE_FEATURES>  (1) 
6
1 2 acceptor
1 25 hydrophobe
1 3 cation
4 1 14 15 19 hydrophobe
6 5 7 9 10 11 13 rings
6 6 16 17 20 21 24 rings

>  <PUBCHEM_HEAVY_ATOM_COUNT>  (1) 
25

>  <PUBCHEM_ATOM_DEF_STEREO_COUNT>  (1) 
0

>  <PUBCHEM_ATOM_UDEF_STEREO_COUNT>  (1) 
1

>  <PUBCHEM_BOND_DEF_STEREO_COUNT>  (1) 
0

>  <PUBCHEM_BOND_UDEF_STEREO_COUNT>  (1) 
0

>  <PUBCHEM_ISOTOPIC_ATOM_COUNT>  (1) 
0

>  <PUBCHEM_COMPONENT_COUNT>  (1) 
1

>  <PUBCHEM_CACTVS_TAUTO_COUNT>  (1) 
1

>  <PUBCHEM_CONFORMER_ID>  (1) 
0000604B00000001

>  <PUBCHEM_MMFF94_ENERGY>  (1) 
61.5247

>  <PUBCHEM_FEATURE_SELFOVERLAP>  (1) 
30.446

>  <PUBCHEM_SHAPE_FINGERPRINT>  (1) 
10319688 77 17266076058306245702
10940486 97 18261397788572860764
11796584 16 18411702076567696730
121448 382 18343017775308331093
12643181 29 18411417268797039354
12788726 201 18044953504253696931
13009979 54 17898858116979230382
13583140 156 18059568144270012640
14844126 61 18336267967376703171
15042514 8 18194122047982171931
15230672 131 18336545994344325458
15439362 3 17832420900445059085
15927050 60 18341328890640462143
17980427 26 17837481960851750157
19489759 90 18060414690698165552
20771845 165 17826226298545599572
23559900 14 18196362852357650728
23598288 3 18042135399879541225
255183 313 18269010803178654051
38695281 34 18263923241694768226
4015057 19 16773784927037994480
4073 2 18413106183049742122
4144715 1 18341332301392874856
4409770 3 18336823195606536635
45266715 3 18198055885426007277
56616090 46 18342456993986450540
57527585 103 17987258753215827409
59755656 520 18410565163711027941
6669772 16 18269839705479916311
77188 2 17618221050181379803
9981440 41 17775566416254408934

>  <PUBCHEM_SHAPE_MULTIPOLES>  (1) 
507.49
13.72
6.09
1.4
33.99
13.61
0.5
-8.23
0.37
-12.73
-0.6
0.22
-0.65
0.42

>  <PUBCHEM_SHAPE_SELFOVERLAP>  (1) 
1022.476

>  <PUBCHEM_SHAPE_VOLUME>  (1) 
300.8

>  <PUBCHEM_COORDINATE_TYPE>  (1) 
2
5
10

$$$$
