2465
     RDKit          3D

 23 24  0  0  1  0  0  0  0  0999 V2000
   -0.5808   -2.3745   -0.2128 O   0  0  0  0  0  0  0  0  0  0  0  0
   -1.7533   -0.2148    1.1827 O   0  0  0  0  0  0  0  0  0  0  0  0
    0.0446    1.2898   -0.3198 O   0  0  0  0  0  0  0  0  0  0  0  0
    0.8398   -0.4282   -2.6305 O   0  0  0  0  0  0  0  0  0  0  0  0
    3.2139    0.9758   -0.1600 N   0  0  0  0  0  0  0  0  0  0  0  0
   -1.6493   -2.5583    0.7312 C   0  0  0  0  0  0  0  0  0  0  0  0
   -2.3829   -3.8166    0.3002 C   0  0  0  0  0  0  0  0  0  0  0  0
   -1.2535   -4.6473   -0.2554 C   0  0  0  0  0  0  0  0  0  0  0  0
    3.9716    0.3578    0.9196 C   0  0  0  0  0  0  0  0  0  0  0  0
   -0.4012   -3.5995   -0.9391 C   0  0  0  0  0  0  0  0  0  0  0  0
   -2.5298   -1.3241    0.7591 C   0  0  0  0  0  0  0  0  0  0  0  0
    2.4242   -0.0167   -0.8765 C   0  0  0  0  0  0  0  0  0  0  0  0
    1.6086    0.6072   -2.0114 C   0  0  0  0  0  0  0  0  0  0  0  0
    4.9223   -0.6943    0.3367 C   0  0  0  0  0  0  0  0  0  0  0  0
    2.9873   -0.3024    1.8909 C   0  0  0  0  0  0  0  0  0  0  0  0
    4.7712    1.4477    1.6413 C   0  0  0  0  0  0  0  0  0  0  0  0
    0.6565    1.7040   -1.5398 C   0  0  0  0  0  0  0  0  0  0  0  0
   -2.1086    1.0155    0.6909 C   0  0  0  0  0  0  0  0  0  0  0  0
   -1.2048    1.7665   -0.0608 C   0  0  0  0  0  0  0  0  0  0  0  0
   -3.3853    1.5148    0.9489 C   0  0  0  0  0  0  0  0  0  0  0  0
   -1.5779    3.0167   -0.5545 C   0  0  0  0  0  0  0  0  0  0  0  0
   -3.7581    2.7650    0.4553 C   0  0  0  0  0  0  0  0  0  0  0  0
   -2.8545    3.5159   -0.2963 C   0  0  0  0  0  0  0  0  0  0  0  0
  1  6  1  0
  1 10  1  0
  2 11  1  0
  2 18  1  0
  3 17  1  0
  3 19  1  0
  4 13  1  0
  5  9  1  0
  5 12  1  0
  6  7  1  0
  6 11  1  0
  7  8  1  0
  8 10  1  0
  9 14  1  0
  9 15  1  0
  9 16  1  0
 12 13  1  0
 13 17  1  0
 18 19  2  0
 18 20  1  0
 19 21  1  0
 20 22  2  0
 21 23  2  0
 22 23  1  0
M  END
>  <PUBCHEM_COMPOUND_CID>  (1) 
2465

>  <PUBCHEM_CONFORMER_RMSD>  (1) 
1

>  <PUBCHEM_CONFORMER_DIVERSEORDER>  (1) 
1
22
20
82
24
100
79
76
8
69
61
57
23
77
75
95
56
7
49
113
50
65
94
31
39
78
109
85
19
30
96
99
53
21
47
37
51
90
14
105
3
66
2
54
103
25
106
10
67
16
70
88
29
59
64
27
84
32
91
62
93
18
35
44
101
46
40
80
52
58
26
102
86
45
43
17
74
107
71
5
36
108
11
110
33
89
104
34
63
68
13
4
81
38
112
12
41
73
15
42
6
72
28
98
87
111
92
48
55
9
60
97
83

>  <PUBCHEM_MMFF94_PARTIAL_CHARGES>  (1) 
24
1 -0.56
10 0.28
11 0.28
12 0.27
13 0.28
17 0.28
18 0.08
19 0.08
2 -0.36
20 -0.15
21 -0.15
22 -0.15
23 -0.15
3 -0.36
33 0.36
4 -0.68
48 0.4
49 0.15
5 -0.9
50 0.15
51 0.15
52 0.15
6 0.28
9 0.27

>  <PUBCHEM_EFFECTIVE_ROTOR_COUNT>  (1) 
10

>  <PUBCHEM_PHARMACOPHORE_FEATURES>  (1) 
10
1 1 acceptor
1 2 acceptor
1 3 acceptor
1 4 acceptor
1 4 donor
1 5 cation
1 5 donor
4 9 14 15 16 hydrophobe
5 1 6 7 8 10 rings
6 18 19 20 21 22 23 rings

>  <PUBCHEM_HEAVY_ATOM_COUNT>  (1) 
23

>  <PUBCHEM_ATOM_DEF_STEREO_COUNT>  (1) 
0

>  <PUBCHEM_ATOM_UDEF_STEREO_COUNT>  (1) 
2

>  <PUBCHEM_BOND_DEF_STEREO_COUNT>  (1) 
0

>  <PUBCHEM_BOND_UDEF_STEREO_COUNT>  (1) 
0

>  <PUBCHEM_ISOTOPIC_ATOM_COUNT>  (1) 
0

>  <PUBCHEM_COMPONENT_COUNT>  (1) 
1

>  <PUBCHEM_CACTVS_TAUTO_COUNT>  (1) 
1

>  <PUBCHEM_CONFORMER_ID>  (1) 
000009A100000001

>  <PUBCHEM_MMFF94_ENERGY>  (1) 
64.4431

>  <PUBCHEM_FEATURE_SELFOVERLAP>  (1) 
50.754

>  <PUBCHEM_SHAPE_FINGERPRINT>  (1) 
11370993 70 18267582403654667792
11524674 6 18055621833961406278
11552529 35 18337944692992345184
11582403 64 17773017671081717485
12553582 1 17834421268214187991
12633257 1 18059307555355188112
12788726 201 18118138084450595139
12839892 36 18335712589977898225
13004483 165 18122333850955596331
13083527 12 17690838282194080032
13402501 40 17615693929889858054
13583140 156 17916857037080218472
13931106 250 18336541715881002725
14081887 123 18196360640644340920
14100547 121 18336532838183959482
14844126 61 18335696204049890954
15230672 131 18193000319143175694
15338160 23 18195794384004516768
19026451 147 17329425559149583298
20600515 1 17911810372749984211
21421861 104 17329160572583535515
21452121 199 17548419658002995659
22182313 1 17029952204606014845
23559900 14 17903371307263421988
23598288 3 18042140897601353515
23598291 2 17531827829929402804
23728640 28 18407763633726242251
35225 105 17915716812882852634
469060 322 16190813060358931968
484985 159 18044346458140527666
5265222 85 18048346399927358110
532947 4 17689997838856445175
84936 31 17406247964071826155
90316 7 18123763207592845515

>  <PUBCHEM_SHAPE_MULTIPOLES>  (1) 
444.87
7.54
5.46
1.73
8.98
6.22
0.63
-4.33
-3.92
-6.9
0.64
1.36
-0.25
0.37

>  <PUBCHEM_SHAPE_SELFOVERLAP>  (1) 
905.084

>  <PUBCHEM_SHAPE_VOLUME>  (1) 
261.6

>  <PUBCHEM_COORDINATE_TYPE>  (1) 
2
5
10

$$$$
