24663
     RDKit          2D

 50 56  0  0  1  0  0  0  0  0999 V2000
    0.0000    0.0000    0.0000 O   0  0  0  0  0  0  0  0  0  0  0  0
    0.0000    0.0000    0.0000 O   0  0  0  0  0  0  0  0  0  0  0  0
    0.0000    0.0000    0.0000 O   0  0  0  0  0  0  0  0  0  0  0  0
    0.0000    0.0000    0.0000 O   0  0  0  0  0  0  0  0  0  0  0  0
    0.0000    0.0000    0.0000 O   0  0  0  0  0  0  0  0  0  0  0  0
    0.0000    0.0000    0.0000 O   0  0  0  0  0  0  0  0  0  0  0  0
    0.0000    0.0000    0.0000 O   0  0  0  0  0  0  0  0  0  0  0  0
    0.0000    0.0000    0.0000 O   0  0  0  0  0  0  0  0  0  0  0  0
    0.0000    0.0000    0.0000 O   0  0  0  0  0  0  0  0  0  0  0  0
    0.0000    0.0000    0.0000 O   0  0  0  0  0  0  0  0  0  0  0  0
    0.0000    0.0000    0.0000 O   0  0  0  0  0  0  0  0  0  0  0  0
    0.0000    0.0000    0.0000 O   0  0  0  0  0  0  0  0  0  0  0  0
    0.0000    0.0000    0.0000 O   0  0  0  0  0  0  0  0  0  0  0  0
    0.0000    0.0000    0.0000 O   0  0  0  0  0  0  0  0  0  0  0  0
    0.0000    0.0000    0.0000 C   0  0  0  0  0  0  0  0  0  0  0  0
    0.0000    0.0000    0.0000 C   0  0  0  0  0  0  0  0  0  0  0  0
    0.0000    0.0000    0.0000 C   0  0  0  0  0  0  0  0  0  0  0  0
    0.0000    0.0000    0.0000 C   0  0  0  0  0  0  0  0  0  0  0  0
    0.0000    0.0000    0.0000 C   0  0  0  0  0  0  0  0  0  0  0  0
    0.0000    0.0000    0.0000 C   0  0  0  0  0  0  0  0  0  0  0  0
    0.0000    0.0000    0.0000 C   0  0  0  0  0  0  0  0  0  0  0  0
    0.0000    0.0000    0.0000 C   0  0  0  0  0  0  0  0  0  0  0  0
    0.0000    0.0000    0.0000 C   0  0  0  0  0  0  0  0  0  0  0  0
    0.0000    0.0000    0.0000 C   0  0  0  0  0  0  0  0  0  0  0  0
    0.0000    0.0000    0.0000 C   0  0  0  0  0  0  0  0  0  0  0  0
    0.0000    0.0000    0.0000 C   0  0  0  0  0  0  0  0  0  0  0  0
    0.0000    0.0000    0.0000 C   0  0  0  0  0  0  0  0  0  0  0  0
    0.0000    0.0000    0.0000 C   0  0  0  0  0  0  0  0  0  0  0  0
    0.0000    0.0000    0.0000 C   0  0  0  0  0  0  0  0  0  0  0  0
    0.0000    0.0000    0.0000 C   0  0  0  0  0  0  0  0  0  0  0  0
    0.0000    0.0000    0.0000 C   0  0  0  0  0  0  0  0  0  0  0  0
    0.0000    0.0000    0.0000 C   0  0  0  0  0  0  0  0  0  0  0  0
    0.0000    0.0000    0.0000 C   0  0  0  0  0  0  0  0  0  0  0  0
    0.0000    0.0000    0.0000 C   0  0  0  0  0  0  0  0  0  0  0  0
    0.0000    0.0000    0.0000 C   0  0  0  0  0  0  0  0  0  0  0  0
    0.0000    0.0000    0.0000 C   0  0  0  0  0  0  0  0  0  0  0  0
    0.0000    0.0000    0.0000 C   0  0  0  0  0  0  0  0  0  0  0  0
    0.0000    0.0000    0.0000 C   0  0  0  0  0  0  0  0  0  0  0  0
    0.0000    0.0000    0.0000 C   0  0  0  0  0  0  0  0  0  0  0  0
    0.0000    0.0000    0.0000 C   0  0  0  0  0  0  0  0  0  0  0  0
    0.0000    0.0000    0.0000 C   0  0  0  0  0  0  0  0  0  0  0  0
    0.0000    0.0000    0.0000 C   0  0  0  0  0  0  0  0  0  0  0  0
    0.0000    0.0000    0.0000 C   0  0  0  0  0  0  0  0  0  0  0  0
    0.0000    0.0000    0.0000 C   0  0  0  0  0  0  0  0  0  0  0  0
    0.0000    0.0000    0.0000 C   0  0  0  0  0  0  0  0  0  0  0  0
    0.0000    0.0000    0.0000 C   0  0  0  0  0  0  0  0  0  0  0  0
    0.0000    0.0000    0.0000 C   0  0  0  0  0  0  0  0  0  0  0  0
    0.0000    0.0000    0.0000 C   0  0  0  0  0  0  0  0  0  0  0  0
    0.0000    0.0000    0.0000 C   0  0  0  0  0  0  0  0  0  0  0  0
    0.0000    0.0000    0.0000 C   0  0  0  0  0  0  0  0  0  0  0  0
  1 15  1  0
  2 26  1  0
  3 33  1  0
  3 37  1  0
  4 35  1  0
  4 38  1  0
  5 37  1  0
  5 41  1  0
  6 38  2  0
  7 39  1  0
  8 40  1  0
  8 45  1  0
  9 42  1  0
  9 44  1  0
 10 44  1  0
 10 48  1  0
 11 46  1  0
 12 47  1  0
 13 49  1  0
 14 50  1  0
 15 16  1  0
 15 18  1  0
 15 24  1  0
 16 17  1  0
 16 25  1  0
 17 19  1  0
 17 22  1  0
 18 21  1  0
 18 23  1  0
 18 29  1  0
 19 20  1  0
 19 28  1  0
 19 31  1  0
 20 27  1  0
 20 30  1  0
 21 26  1  0
 21 34  1  0
 22 23  1  0
 24 26  1  0
 25 27  1  0
 28 32  1  0
 30 33  1  0
 32 33  1  0
 34 35  1  0
 34 36  2  0
 36 38  1  0
 37 39  1  0
 39 40  1  0
 40 42  1  0
 41 42  1  0
 41 43  1  0
 44 46  1  0
 46 47  1  0
 47 49  1  0
 48 49  1  0
 48 50  1  0
M  END
>  <PUBCHEM_COMPOUND_CID>  (1) 
24663

>  <PUBCHEM_CONFORMER_RMSD>  (1) 
1.2

>  <PUBCHEM_CONFORMER_DIVERSEORDER>  (1) 
15
234
126
317
161
131
103
289
369
208
238
148
296
342
302
89
273
44
232
188
371
135
259
347
321
350
324
214
366
381
117
225
311
354
267
382
357
140
258
290
185
268
372
123
330
53
346
226
144
86
309
243
129
356
277
67
288
360
332
244
384
162
186
286
250
98
272
64
274
216
150
132
87
301
91
166
305
163
46
253
345
310
315
33
242
151
179
81
54
344
291
376
61
183
206
370
280
213
155
70
307
218
77
334
189
319
122
113
255
383
365
336
105
338
361
297
75
358
380
375
312
198
146
168
149
368
236
318
362
283
167
323
203
264
237
313
72
378
262
228
68
353
194
63
156
93
224
348
322
187
193
281
240
314
266
343
287
172
104
35
56
215
85
245
153
74
92
200
108
207
79
279
239
385
173
379
298
134
217
327
20
204
165
83
265
147
219
99
154
329
170
136
377
127
175
249
306
373
284
171
90
282
158
174
326
3
47
351
73
29
300
270
260
221
26
278
257
202
94
337
340
223
190
192
169
125
137
164
133
320
261
252
121
6
102
78
177
8
160
100
101
263
335
2
276
152
333
95
88
229
96
292
114
341
112
55
130
211
22
45
271
66
48
111
23
269
303
222
256
363
196
367
38
120
201
246
295
71
128
328
205
294
17
349
21
12
19
275
304
43
32
331
254
339
227
139
247
355
210
293
31
52
50
181
235
359
25
59
212
180
37
248
176
157
14
13
119
159
18
184
118
199
197
49
364
308
51
27
325
107
141
80
109
182
82
34
352
58
65
116
62
145
230
143
36
42
191
231
60
124
10
115
76
106
299
84
97
1
209
39
178
316
110
24
57
233
5
69
374
138
251
41
195
30
4
241
7
16
28
220
285
142
9
11
40

>  <PUBCHEM_MMFF94_PARTIAL_CHARGES>  (1) 
42
1 -0.68
10 -0.56
101 0.4
104 0.4
105 0.4
106 0.4
11 -0.68
12 -0.68
13 -0.68
14 -0.68
15 0.28
2 -0.68
21 0.14
26 0.28
3 -0.56
33 0.28
34 -0.28
35 0.42
36 -0.14
37 0.56
38 0.71
39 0.28
4 -0.43
40 0.28
41 0.28
42 0.28
44 0.56
45 0.28
46 0.28
47 0.28
48 0.28
49 0.28
5 -0.56
50 0.28
6 -0.57
7 -0.68
79 0.4
8 -0.56
80 0.4
83 0.15
89 0.4
9 -0.56

>  <PUBCHEM_EFFECTIVE_ROTOR_COUNT>  (1) 
12

>  <PUBCHEM_PHARMACOPHORE_FEATURES>  (1) 
27
1 1 acceptor
1 1 donor
1 10 acceptor
1 11 acceptor
1 11 donor
1 12 acceptor
1 12 donor
1 13 acceptor
1 13 donor
1 14 acceptor
1 14 donor
1 2 acceptor
1 2 donor
1 3 acceptor
1 5 acceptor
1 6 acceptor
1 7 acceptor
1 7 donor
1 8 acceptor
1 9 acceptor
5 15 18 21 24 26 rings
5 4 34 35 36 38 rings
6 10 44 46 47 48 49 rings
6 15 16 17 18 22 23 rings
6 16 17 19 20 25 27 rings
6 19 20 28 30 32 33 rings
6 5 37 39 40 41 42 rings

>  <PUBCHEM_HEAVY_ATOM_COUNT>  (1) 
50

>  <PUBCHEM_ATOM_DEF_STEREO_COUNT>  (1) 
17

>  <PUBCHEM_ATOM_UDEF_STEREO_COUNT>  (1) 
2

>  <PUBCHEM_BOND_DEF_STEREO_COUNT>  (1) 
0

>  <PUBCHEM_BOND_UDEF_STEREO_COUNT>  (1) 
0

>  <PUBCHEM_ISOTOPIC_ATOM_COUNT>  (1) 
0

>  <PUBCHEM_COMPONENT_COUNT>  (1) 
1

>  <PUBCHEM_CACTVS_TAUTO_COUNT>  (1) 
1

$$$$
