24688
     RDKit          3D

  8  7  0  0  1  0  0  0  0  0999 V2000
   -1.0108   -0.1174    0.1592 O   0  0  0  0  0  0  0  0  0  0  0  0
   -3.2012    0.3339    0.5702 O   0  0  0  0  0  0  0  0  0  0  0  0
   -2.2782    0.2254   -0.3898 N   0  0  0  0  0  0  0  0  0  0  0  0
    1.3204   -0.5894   -0.3576 C   0  0  0  0  0  0  0  0  0  0  0  0
    1.9027    0.4698    0.5980 C   0  0  0  0  0  0  0  0  0  0  0  0
   -0.0676   -0.2203   -0.8982 C   0  0  0  0  0  0  0  0  0  0  0  0
    1.2702   -1.9437    0.3591 C   0  0  0  0  0  0  0  0  0  0  0  0
    2.0644    1.8417   -0.0410 C   0  0  0  0  0  0  0  0  0  0  0  0
  1  3  1  0
  1  6  1  0
  2  3  2  0
  4  5  1  0
  4  6  1  0
  4  7  1  0
  5  8  1  0
M  END
>  <PUBCHEM_COMPOUND_CID>  (1) 
24688

>  <PUBCHEM_CONFORMER_RMSD>  (1) 
0.6

>  <PUBCHEM_CONFORMER_DIVERSEORDER>  (1) 
3
18
34
5
9
46
7
13
24
22
23
2
16
48
27
49
8
15
17
47
4
1
26
20
29
25
21
6
38
40
12
37
32
39
41
36
45
44
11
35
28
19
14
33
10
42
30
43
31

>  <PUBCHEM_MMFF94_PARTIAL_CHARGES>  (1) 
4
1 -0.09
2 -0.3
3 0.12
6 0.28

>  <PUBCHEM_EFFECTIVE_ROTOR_COUNT>  (1) 
4

>  <PUBCHEM_PHARMACOPHORE_FEATURES>  (1) 
2
1 7 hydrophobe
1 8 hydrophobe

>  <PUBCHEM_HEAVY_ATOM_COUNT>  (1) 
8

>  <PUBCHEM_ATOM_DEF_STEREO_COUNT>  (1) 
0

>  <PUBCHEM_ATOM_UDEF_STEREO_COUNT>  (1) 
1

>  <PUBCHEM_BOND_DEF_STEREO_COUNT>  (1) 
0

>  <PUBCHEM_BOND_UDEF_STEREO_COUNT>  (1) 
0

>  <PUBCHEM_ISOTOPIC_ATOM_COUNT>  (1) 
0

>  <PUBCHEM_COMPONENT_COUNT>  (1) 
1

>  <PUBCHEM_CACTVS_TAUTO_COUNT>  (1) 
1

>  <PUBCHEM_CONFORMER_ID>  (1) 
0000607000000003

>  <PUBCHEM_MMFF94_ENERGY>  (1) 
5.6502

>  <PUBCHEM_FEATURE_SELFOVERLAP>  (1) 
10.149

>  <PUBCHEM_SHAPE_FINGERPRINT>  (1) 
10857977 72 16950567700891422469
12932764 1 18336551525702299519
14390081 3 17917990620087688129
20096714 4 18200024174596162996
20653085 51 17558559259850924128
20653091 64 18268998587526636290
21040471 1 18195521730436366316
23552449 11 18263355902316457531
29004967 10 18187362073841328246

>  <PUBCHEM_SHAPE_MULTIPOLES>  (1) 
147.92
3.76
1.68
0.83
3.75
0.26
-0.06
-1.4
0.75
-1.46
0.16
0.01
0.03
-0.1

>  <PUBCHEM_SHAPE_SELFOVERLAP>  (1) 
258.997

>  <PUBCHEM_SHAPE_VOLUME>  (1) 
98.3

>  <PUBCHEM_COORDINATE_TYPE>  (1) 
2
5
10

$$$$
