24744
     RDKit          3D

 22 23  0  0  0  0  0  0  0  0999 V2000
   -0.0299   -1.0897   -1.0791 O   0  0  0  0  0  0  0  0  0  0  0  0
   -0.7199   -0.6595    1.0900 O   0  0  0  0  0  0  0  0  0  0  0  0
    5.5475    2.1113    0.2533 O   0  0  0  0  0  0  0  0  0  0  0  0
    3.3982    2.1324   -0.5280 O   0  0  0  0  0  0  0  0  0  0  0  0
   -2.1595   -0.3764   -0.7405 N   0  0  0  0  0  0  0  0  0  0  0  0
    4.4105    0.1662    0.2531 N   0  0  0  0  0  0  0  0  0  0  0  0
   -3.3532    0.0605   -0.1652 C   0  0  0  0  0  0  0  0  0  0  0  0
   -5.6504    0.7727   -0.3955 C   0  0  0  0  0  0  0  0  0  0  0  0
   -4.4575    0.3359   -0.9718 C   0  0  0  0  0  0  0  0  0  0  0  0
    3.4215   -0.8060    0.1011 C   0  0  0  0  0  0  0  0  0  0  0  0
    1.2197   -1.4387   -0.5565 C   0  0  0  0  0  0  0  0  0  0  0  0
   -3.4419    0.2223    1.2176 C   0  0  0  0  0  0  0  0  0  0  0  0
   -5.7389    0.9342    0.9872 C   0  0  0  0  0  0  0  0  0  0  0  0
    2.1756   -0.4576   -0.4203 C   0  0  0  0  0  0  0  0  0  0  0  0
   -4.6348    0.6589    1.7937 C   0  0  0  0  0  0  0  0  0  0  0  0
   -6.8314    1.0665   -1.2577 C   0  0  0  0  0  0  0  0  0  0  0  0
    3.6779   -2.1260    0.4722 C   0  0  0  0  0  0  0  0  0  0  0  0
    1.4427   -2.7492   -0.1997 C   0  0  0  0  0  0  0  0  0  0  0  0
    2.6886   -3.0976    0.3218 C   0  0  0  0  0  0  0  0  0  0  0  0
   -0.9590   -0.6994   -0.1116 C   0  0  0  0  0  0  0  0  0  0  0  0
    4.3499    1.5231   -0.0550 C   0  0  0  0  0  0  0  0  0  0  0  0
    5.6441    3.5161   -0.0091 C   0  0  0  0  0  0  0  0  0  0  0  0
  1 11  1  0
  1 20  1  0
  2 20  2  0
  3 21  1  0
  3 22  1  0
  4 21  2  0
  5  7  1  0
  5 20  1  0
  6 10  1  0
  6 21  1  0
  7  9  1  0
  7 12  2  0
  8  9  2  0
  8 13  1  0
  8 16  1  0
 10 14  2  0
 10 17  1  0
 11 14  1  0
 11 18  2  0
 12 15  1  0
 13 15  2  0
 17 19  2  0
 18 19  1  0
M  END
>  <PUBCHEM_COMPOUND_CID>  (1) 
24744

>  <PUBCHEM_CONFORMER_RMSD>  (1) 
0.8

>  <PUBCHEM_CONFORMER_DIVERSEORDER>  (1) 
4
171
251
158
233
200
21
215
78
224
292
137
196
257
231
119
236
174
155
221
102
143
239
154
125
147
183
192
210
195
26
164
181
76
208
272
284
144
127
247
166
156
69
19
168
234
111
285
36
249
170
89
123
77
238
66
212
229
241
227
10
173
142
153
112
109
201
148
172
223
205
240
52
222
75
204
27
228
15
182
209
149
49
150
65
145
44
51
175
186
13
50
95
140
232
131
267
255
14
263
67
146
115
73
306
261
105
185
96
163
177
256
188
55
248
103
160
216
230
300
20
291
217
206
64
86
47
152
132
80
139
157
297
135
167
243
198
290
126
273
93
211
271
176
202
220
266
197
253
141
295
242
235
100
43
22
101
28
296
8
48
79
286
161
133
60
165
23
178
117
68
225
259
72
159
57
269
88
276
31
281
85
288
214
118
24
124
94
120
91
279
218
106
199
45
193
136
121
213
250
237
104
37
270
98
151
191
260
46
81
110
39
113
74
54
294
1
275
258
252
84
70
38
207
107
122
130
162
298
134
254
307
32
17
262
9
282
61
129
303
58
280
289
82
83
283
33
299
293
41
278
40
304
274
309
18
30
308
34
87
189
246
99
114
108
5
184
97
16
3
128
264
203
301
25
268
169
2
219
7
287
90
187
244
190
116
62
53
277
179
305
63
11
35
59
302
71
245
92
42
138
6
265
180
12
194
226
56
29

>  <PUBCHEM_MMFF94_PARTIAL_CHARGES>  (1) 
32
1 -0.23
10 0.12
11 0.08
12 -0.15
13 -0.15
14 -0.15
15 -0.15
16 0.14
17 -0.15
18 -0.15
19 -0.15
2 -0.57
20 0.78
21 0.78
22 0.28
23 0.15
24 0.15
25 0.15
26 0.15
27 0.15
28 0.37
29 0.15
3 -0.43
30 0.15
34 0.15
35 0.37
4 -0.57
5 -0.55
6 -0.55
7 0.12
8 -0.14
9 -0.15

>  <PUBCHEM_EFFECTIVE_ROTOR_COUNT>  (1) 
7

>  <PUBCHEM_PHARMACOPHORE_FEATURES>  (1) 
6
1 2 acceptor
1 4 acceptor
1 5 donor
1 6 donor
6 10 11 14 17 18 19 rings
6 7 8 9 12 13 15 rings

>  <PUBCHEM_HEAVY_ATOM_COUNT>  (1) 
22

>  <PUBCHEM_ATOM_DEF_STEREO_COUNT>  (1) 
0

>  <PUBCHEM_ATOM_UDEF_STEREO_COUNT>  (1) 
0

>  <PUBCHEM_BOND_DEF_STEREO_COUNT>  (1) 
0

>  <PUBCHEM_BOND_UDEF_STEREO_COUNT>  (1) 
0

>  <PUBCHEM_ISOTOPIC_ATOM_COUNT>  (1) 
0

>  <PUBCHEM_COMPONENT_COUNT>  (1) 
1

>  <PUBCHEM_CACTVS_TAUTO_COUNT>  (1) 
4

>  <PUBCHEM_CONFORMER_ID>  (1) 
000060A800000004

>  <PUBCHEM_MMFF94_ENERGY>  (1) 
69.1652

>  <PUBCHEM_FEATURE_SELFOVERLAP>  (1) 
30.447

>  <PUBCHEM_SHAPE_FINGERPRINT>  (1) 
10411042 1 17905885878268224422
10554248 39 17559106563644701157
10595046 47 18342734114235211623
10670039 82 16558761074202750048
10906281 52 17417541224880427475
10912923 1 17917146101201148963
11823591 26 18341889745134405592
12236239 1 17703784761270880247
12390115 104 18194413414399979278
13533116 47 17096923569237592723
13540713 5 18195786652984509294
13631057 29 18127685153322816767
13675066 3 17603593993478142583
13878862 14 18263623126654958228
13955234 65 18262800662267650570
14251764 38 18194965136792645057
14251764 75 18266185122324691648
14429380 56 18337376185293246997
14528608 73 17846776308550051457
14774955 27 18412826901783259924
15142526 21 18337952419401127546
15188451 53 15430605077512091017
15342168 16 18411136974171139070
15348495 7 18040722450424064531
15475509 35 16154255110911636178
16079462 125 17603861166424338813
17844677 252 18266179427176224309
18335252 114 18341609305250192132
19427546 62 18409164415725064022
1979834 28 18041006154304296004
20157964 124 18409727335787079575
20612939 158 18342738485725935163
21033648 29 17386001741931664429
21033650 10 15410629064095975675
22122407 14 18269567048403698849
22849339 104 15625931106167772061
23559900 14 17386300778592441095
23845131 108 18261953058987846978
268830 7 18268998592248832697
270888 7 18267301113968679828
2748736 6 18198334246958447824
2916195 48 18113616781590399209
3472631 163 18131071592884631916
34797466 226 18059581265452890599
38570 142 18271259299909092420
397830 11 18114194063939423675
44555599 121 18129101109635449513
474 4 18412263947730271122
5104073 3 18260269654913837275
531348 171 8142089733191403651
543368 44 18060137674145064209
6327066 14 18266457797161170524
633830 44 18272371984054366022
6712543 237 16009293414303587104
77188 2 17905606597919373934
8272917 22 18411983529547844742

>  <PUBCHEM_SHAPE_MULTIPOLES>  (1) 
419.31
16.15
3.07
1.16
12.19
0.65
-0.24
12.74
0.09
-8.1
-0.01
1.94
0.11
-0.22

>  <PUBCHEM_SHAPE_SELFOVERLAP>  (1) 
890.31

>  <PUBCHEM_SHAPE_VOLUME>  (1) 
232.5

>  <PUBCHEM_COORDINATE_TYPE>  (1) 
2
5
10

$$$$
