24743
     RDKit          3D

 22 23  0  0  0  0  0  0  0  0999 V2000
   -1.1040   -1.1334    1.0504 O   0  0  0  0  0  0  0  0  0  0  0  0
    5.3577    1.4778    0.2579 O   0  0  0  0  0  0  0  0  0  0  0  0
   -1.6850   -0.1164   -0.9482 O   0  0  0  0  0  0  0  0  0  0  0  0
    5.2594   -0.5590   -0.7775 O   0  0  0  0  0  0  0  0  0  0  0  0
    3.4030    0.3592    0.3232 N   0  0  0  0  0  0  0  0  0  0  0  0
   -3.2114   -0.3180    0.8217 N   0  0  0  0  0  0  0  0  0  0  0  0
    2.4027   -0.5986    0.1543 C   0  0  0  0  0  0  0  0  0  0  0  0
    0.1685   -1.3480    0.5107 C   0  0  0  0  0  0  0  0  0  0  0  0
    1.1338   -0.3839    0.6926 C   0  0  0  0  0  0  0  0  0  0  0  0
    2.6719   -1.7715   -0.5511 C   0  0  0  0  0  0  0  0  0  0  0  0
    0.4033   -2.5151   -0.1803 C   0  0  0  0  0  0  0  0  0  0  0  0
    1.6723   -2.7297   -0.7184 C   0  0  0  0  0  0  0  0  0  0  0  0
   -4.3736    0.2800    0.3333 C   0  0  0  0  0  0  0  0  0  0  0  0
   -5.5146    0.3431    1.1334 C   0  0  0  0  0  0  0  0  0  0  0  0
   -4.3946    0.8155   -0.9546 C   0  0  0  0  0  0  0  0  0  0  0  0
   -1.9828   -0.4778    0.1846 C   0  0  0  0  0  0  0  0  0  0  0  0
    4.7192    0.3304   -0.1312 C   0  0  0  0  0  0  0  0  0  0  0  0
   -6.6764    0.9412    0.6456 C   0  0  0  0  0  0  0  0  0  0  0  0
   -5.5564    1.4137   -1.4423 C   0  0  0  0  0  0  0  0  0  0  0  0
   -6.6974    1.4766   -0.6422 C   0  0  0  0  0  0  0  0  0  0  0  0
    6.7296    1.5984   -0.1356 C   0  0  0  0  0  0  0  0  0  0  0  0
    7.2747    2.9156    0.3737 C   0  0  0  0  0  0  0  0  0  0  0  0
  1  8  1  0
  1 16  1  0
  2 17  1  0
  2 21  1  0
  3 16  2  0
  4 17  2  0
  5  7  1  0
  5 17  1  0
  6 13  1  0
  6 16  1  0
  7  9  2  0
  7 10  1  0
  8  9  1  0
  8 11  2  0
 10 12  2  0
 11 12  1  0
 13 14  2  0
 13 15  1  0
 14 18  1  0
 15 19  2  0
 18 20  2  0
 19 20  1  0
 21 22  1  0
M  END
>  <PUBCHEM_COMPOUND_CID>  (1) 
24743

>  <PUBCHEM_CONFORMER_RMSD>  (1) 
0.8

>  <PUBCHEM_CONFORMER_DIVERSEORDER>  (1) 
1
152
63
15
170
218
237
133
169
131
98
55
161
201
234
10
64
147
68
60
185
196
120
3
187
106
200
159
17
78
128
143
95
107
231
227
61
242
190
205
33
59
171
224
192
212
88
150
122
225
136
184
92
142
188
248
53
126
238
194
132
86
49
115
73
207
209
193
108
37
30
139
229
244
164
75
206
21
138
130
251
80
157
176
117
124
175
46
70
42
52
12
226
76
77
109
123
228
191
104
232
24
9
39
202
154
199
50
247
137
105
127
179
189
250
41
217
249
239
145
214
102
85
35
58
56
235
13
165
166
111
236
215
54
153
129
47
29
181
135
149
151
112
219
18
110
160
213
174
119
210
43
211
14
146
180
6
11
45
197
140
163
8
103
44
243
89
233
246
223
67
62
177
241
51
114
87
172
222
93
74
245
113
38
167
32
155
182
19
57
230
183
203
173
83
116
91
162
99
96
25
20
204
240
82
252
144
27
121
148
79
221
22
158
178
220
69
84
125
2
26
141
168
97
72
90
195
208
16
28
186
7
216
71
134
40
101
4
65
156
66
23
100
118
5
81
198
48
36
31
34
94

>  <PUBCHEM_MMFF94_PARTIAL_CHARGES>  (1) 
32
1 -0.23
10 -0.15
11 -0.15
12 -0.15
13 0.12
14 -0.15
15 -0.15
16 0.78
17 0.78
18 -0.15
19 -0.15
2 -0.43
20 -0.15
21 0.28
23 0.15
24 0.15
25 0.15
26 0.15
27 0.37
28 0.37
29 0.15
3 -0.57
30 0.15
31 0.15
32 0.15
33 0.15
4 -0.57
5 -0.55
6 -0.55
7 0.12
8 0.08
9 -0.15

>  <PUBCHEM_EFFECTIVE_ROTOR_COUNT>  (1) 
8

>  <PUBCHEM_PHARMACOPHORE_FEATURES>  (1) 
6
1 3 acceptor
1 4 acceptor
1 5 donor
1 6 donor
6 13 14 15 18 19 20 rings
6 7 8 9 10 11 12 rings

>  <PUBCHEM_HEAVY_ATOM_COUNT>  (1) 
22

>  <PUBCHEM_ATOM_DEF_STEREO_COUNT>  (1) 
0

>  <PUBCHEM_ATOM_UDEF_STEREO_COUNT>  (1) 
0

>  <PUBCHEM_BOND_DEF_STEREO_COUNT>  (1) 
0

>  <PUBCHEM_BOND_UDEF_STEREO_COUNT>  (1) 
0

>  <PUBCHEM_ISOTOPIC_ATOM_COUNT>  (1) 
0

>  <PUBCHEM_COMPONENT_COUNT>  (1) 
1

>  <PUBCHEM_CACTVS_TAUTO_COUNT>  (1) 
4

>  <PUBCHEM_CONFORMER_ID>  (1) 
000060A700000001

>  <PUBCHEM_MMFF94_ENERGY>  (1) 
64.316

>  <PUBCHEM_FEATURE_SELFOVERLAP>  (1) 
30.447

>  <PUBCHEM_SHAPE_FINGERPRINT>  (1) 
10 15 17894631469580100480
11796584 16 12679456465413049295
11823591 26 18342730841201190882
12403259 118 17750241472691180710
12730499 353 18337679620000404707
12760667 363 9223237346880820389
13257819 101 18333724715234515878
13402501 40 18187081745705808149
13668630 136 11527943457082791141
13690498 29 17130412705050473071
13862211 1 8430321233870458504
13911852 28 8430331129332845968
13955234 65 18117278051647103763
14123256 34 9799697012716078804
14598715 104 18040703762927024573
14931854 50 17703799115347061032
15183329 4 15913332381241877504
1768 4 18339933705000351697
17980427 23 17749955586503807702
18335252 114 18272086089730231204
19427546 20 18128814329714628391
20281389 69 18040715857190276896
20554085 129 17775271786816601650
20612939 158 18201722786580032734
21033648 29 17894636945679110099
21033650 10 15051468089240907267
21150785 3 17917987283488663717
21307412 95 12247676093629452229
22224240 67 18040997358274479499
22288116 15 17489018383461943991
22765269 38 18409446994613052696
23522609 53 16844468054474020443
23559900 14 17024604274347791211
270888 7 18411135883518542336
2838139 119 18334848429335287996
2916195 48 18113618971823260195
34797466 226 18201160945455732711
3627633 1 17473545128361528458
4340502 62 16660361476769979538
5104073 3 13407664146566873269
5283384 27 18259977184873368605
543368 44 18344148077677874009
59682541 35 18040725783803995913
59682541 52 17131847430380082436
6327066 14 18340768251806018908
77188 2 17615965505109727354

>  <PUBCHEM_SHAPE_MULTIPOLES>  (1) 
419.31
19.75
2.53
1.06
2.7
0.29
0.09
-19.97
0.78
4.24
0.33
-1.27
-0.07
1.45

>  <PUBCHEM_SHAPE_SELFOVERLAP>  (1) 
885.963

>  <PUBCHEM_SHAPE_VOLUME>  (1) 
232.6

>  <PUBCHEM_COORDINATE_TYPE>  (1) 
2
5
10

$$$$
