24764
     RDKit          3D

  9  8  0  0  0  0  0  0  0  0999 V2000
   -1.5844    0.0027   -0.0860 Si  0  0  0  0  0  4  0  0  0  0  0  0
    1.5843   -0.0024   -0.0858 Si  0  0  0  0  0  4  0  0  0  0  0  0
    0.0000    0.0012   -0.6240 O   0  0  0  0  0  0  0  0  0  0  0  0
   -1.9405    1.5207    0.9653 C   0  0  0  0  0  0  0  0  0  0  0  0
   -2.7876   -0.0155   -1.5314 C   0  0  0  0  0  0  0  0  0  0  0  0
   -1.9073   -1.5262    0.9641 C   0  0  0  0  0  0  0  0  0  0  0  0
    2.7877   -0.0016   -1.5311 C   0  0  0  0  0  0  0  0  0  0  0  0
    1.9136    1.5341    0.9507 C   0  0  0  0  0  0  0  0  0  0  0  0
    1.9341   -1.5129    0.9782 C   0  0  0  0  0  0  0  0  0  0  0  0
  1  3  1  0
  1  4  1  0
  1  5  1  0
  1  6  1  0
  2  3  1  0
  2  7  1  0
  2  8  1  0
  2  9  1  0
M  END
>  <PUBCHEM_COMPOUND_CID>  (1) 
24764

>  <PUBCHEM_CONFORMER_RMSD>  (1) 
0.4

>  <PUBCHEM_CONFORMER_DIVERSEORDER>  (1) 
1

>  <PUBCHEM_MMFF94_PARTIAL_CHARGES>  (1) 
9
1 0.54
2 0.54
3 -0.59
4 -0.08
5 -0.08
6 -0.08
7 -0.08
8 -0.08
9 -0.08

>  <PUBCHEM_EFFECTIVE_ROTOR_COUNT>  (1) 
2

>  <PUBCHEM_PHARMACOPHORE_FEATURES>  (1) 
0

>  <PUBCHEM_HEAVY_ATOM_COUNT>  (1) 
9

>  <PUBCHEM_ATOM_DEF_STEREO_COUNT>  (1) 
0

>  <PUBCHEM_ATOM_UDEF_STEREO_COUNT>  (1) 
0

>  <PUBCHEM_BOND_DEF_STEREO_COUNT>  (1) 
0

>  <PUBCHEM_BOND_UDEF_STEREO_COUNT>  (1) 
0

>  <PUBCHEM_ISOTOPIC_ATOM_COUNT>  (1) 
0

>  <PUBCHEM_COMPONENT_COUNT>  (1) 
1

>  <PUBCHEM_CACTVS_TAUTO_COUNT>  (1) 
1

>  <PUBCHEM_CONFORMER_ID>  (1) 
000060BC00000001

>  <PUBCHEM_MMFF94_ENERGY>  (1) 
-0.273

>  <PUBCHEM_FEATURE_SELFOVERLAP>  (1) 
0

>  <PUBCHEM_SHAPE_FINGERPRINT>  (1) 
12932741 1 18410575136202686614
12932764 1 18410291415237661559
14648413 74 17775298135660168680
14817 1 9383117779157162328
15775835 57 18260838055053668689
15852999 172 17824230848197396059
16945 1 18410573989446425106
18186145 218 18339347609684118525
18342897 137 16806155558592189251
19973954 147 17632578244766661089
20082192 1 17313103059546538008
20653085 51 17489314031878398417
20653091 64 18271796917876473752
20711985 344 18129108818204602240
23235687 12 16343156799682446117
23552423 10 17203609285047813719
3248919 1 18408324363118430110
5084963 1 17967247576907052155
8030462 33 18410854352037155573

>  <PUBCHEM_SHAPE_MULTIPOLES>  (1) 
215.77
4.52
1.61
1.56
0
0.01
0.38
0
1
0
-0.85
0
-0.01
-0.02

>  <PUBCHEM_SHAPE_SELFOVERLAP>  (1) 
354.533

>  <PUBCHEM_SHAPE_VOLUME>  (1) 
149.4

>  <PUBCHEM_COORDINATE_TYPE>  (1) 
2
5
10

$$$$
