24773
     RDKit          3D

 22 22  0  0  0  0  0  0  0  0999 V2000
    4.4485   -1.0890   -0.0100 O   0  0  0  0  0  0  0  0  0  0  0  0
    5.8015    1.2685    0.5909 O   0  0  0  0  0  0  0  0  0  0  0  0
    6.0340    3.0977   -1.5135 O   0  0  0  0  0  0  0  0  0  0  0  0
   -4.3613    0.0341    0.1162 C   0  0  0  0  0  0  0  0  0  0  0  0
   -5.8534   -0.2117   -0.1185 C   0  0  0  0  0  0  0  0  0  0  0  0
   -3.4744   -1.1253   -0.3490 C   0  0  0  0  0  0  0  0  0  0  0  0
   -6.6914    0.9846    0.3417 C   0  0  0  0  0  0  0  0  0  0  0  0
   -1.9766   -0.8473   -0.1820 C   0  0  0  0  0  0  0  0  0  0  0  0
   -8.1800    0.7542    0.0715 C   0  0  0  0  0  0  0  0  0  0  0  0
   -1.0978   -2.0176   -0.6404 C   0  0  0  0  0  0  0  0  0  0  0  0
   -9.0672    1.9091    0.5410 C   0  0  0  0  0  0  0  0  0  0  0  0
    0.3803   -1.7701   -0.4729 C   0  0  0  0  0  0  0  0  0  0  0  0
  -10.5395    1.7168    0.2108 C   0  0  0  0  0  0  0  0  0  0  0  0
    1.0162   -2.1266    0.7163 C   0  0  0  0  0  0  0  0  0  0  0  0
    1.1116   -1.1848   -1.5065 C   0  0  0  0  0  0  0  0  0  0  0  0
    2.3834   -1.8980    0.8718 C   0  0  0  0  0  0  0  0  0  0  0  0
    2.4788   -0.9561   -1.3510 C   0  0  0  0  0  0  0  0  0  0  0  0
    3.1146   -1.3128   -0.1617 C   0  0  0  0  0  0  0  0  0  0  0  0
    4.9181   -0.8359    1.3133 C   0  0  0  0  0  0  0  0  0  0  0  0
    6.1459    0.0514    1.2415 C   0  0  0  0  0  0  0  0  0  0  0  0
    6.9182    2.1417    0.4953 C   0  0  0  0  0  0  0  0  0  0  0  0
    6.4905    3.4172   -0.2047 C   0  0  0  0  0  0  0  0  0  0  0  0
  1 18  1  0
  1 19  1  0
  2 20  1  0
  2 21  1  0
  3 22  1  0
  4  5  1  0
  4  6  1  0
  5  7  1  0
  6  8  1  0
  7  9  1  0
  8 10  1  0
  9 11  1  0
 10 12  1  0
 11 13  1  0
 12 14  2  0
 12 15  1  0
 14 16  1  0
 15 17  2  0
 16 18  2  0
 17 18  1  0
 19 20  1  0
 21 22  1  0
M  END
>  <PUBCHEM_COMPOUND_CID>  (1) 
24773

>  <PUBCHEM_CONFORMER_RMSD>  (1) 
1.2

>  <PUBCHEM_CONFORMER_DIVERSEORDER>  (1) 
1
55
17
56
80
63
93
48
59
82
19
81
5
87
49
61
83
51
45
43
68
28
88
89
16
9
84
26
60
76
50
18
74
4
90
85
86
21
77
52
42
37
47
24
39
69
11
31
67
34
12
62
44
64
36
25
65
70
10
13
35
94
33
2
66
32
71
79
75
72
30
29
92
3
73
91
57
23
27
38
14
41
22
53
46
58
20
15
7
40
8
78
54
6

>  <PUBCHEM_MMFF94_PARTIAL_CHARGES>  (1) 
19
1 -0.36
10 0.14
12 -0.14
14 -0.15
15 -0.15
16 -0.15
17 -0.15
18 0.08
19 0.28
2 -0.56
20 0.28
21 0.28
22 0.28
3 -0.68
42 0.15
43 0.15
44 0.15
45 0.15
54 0.4

>  <PUBCHEM_EFFECTIVE_ROTOR_COUNT>  (1) 
14

>  <PUBCHEM_PHARMACOPHORE_FEATURES>  (1) 
6
1 1 acceptor
1 13 hydrophobe
1 2 acceptor
1 3 acceptor
1 3 donor
6 12 14 15 16 17 18 rings

>  <PUBCHEM_HEAVY_ATOM_COUNT>  (1) 
22

>  <PUBCHEM_ATOM_DEF_STEREO_COUNT>  (1) 
0

>  <PUBCHEM_ATOM_UDEF_STEREO_COUNT>  (1) 
0

>  <PUBCHEM_BOND_DEF_STEREO_COUNT>  (1) 
0

>  <PUBCHEM_BOND_UDEF_STEREO_COUNT>  (1) 
0

>  <PUBCHEM_ISOTOPIC_ATOM_COUNT>  (1) 
0

>  <PUBCHEM_COMPONENT_COUNT>  (1) 
1

>  <PUBCHEM_CACTVS_TAUTO_COUNT>  (1) 
1

>  <PUBCHEM_CONFORMER_ID>  (1) 
000060C500000001

>  <PUBCHEM_MMFF94_ENERGY>  (1) 
36.4466

>  <PUBCHEM_FEATURE_SELFOVERLAP>  (1) 
30.454

>  <PUBCHEM_SHAPE_FINGERPRINT>  (1) 
10066227 49 9583517621101411177
10693767 8 11239731768534127804
125118 31 18413389830372777121
12661589 4 9151174225616024836
12838863 1 12175082990875468548
13627175 4 11170202003642948769
13668630 136 10303803281963213947
13944108 23 18340208605026138456
14251757 52 18412263938844846441
14565420 104 18186235130600864010
14617042 71 18342179947738415177
15475509 35 11674869027318326284
15840311 113 18408042896800135102
20526848 3 18342737437790851338
21150785 3 15697709330327374595
21344244 78 16008751290292857326
21521239 73 11600012063537815302
21637258 2 7997699692388135026
21792934 111 17168142313640038053
22224240 67 18333731283173746283
23524908 199 17489316266031409364
33532 11 8214138560763399081
406291 66 8646499508889081249
444735 82 18411983529542732265
5104073 3 16154003463691673395
5470011 282 12175609711834598979
5718773 13 8718836387570080152
57676310 78 17488472876183608614
59682541 35 17967820440604841825
59682541 52 16487268655702256012
6438161 24 8718826479033055445

>  <PUBCHEM_SHAPE_MULTIPOLES>  (1) 
435.14
29.67
3.22
1.17
63.53
2.69
0.16
33.9
-5.75
-5.87
0.53
-1.81
-0.08
-1.89

>  <PUBCHEM_SHAPE_SELFOVERLAP>  (1) 
841.906

>  <PUBCHEM_SHAPE_VOLUME>  (1) 
264.8

>  <PUBCHEM_COORDINATE_TYPE>  (1) 
2
5
10

$$$$
