24772
     RDKit          3D

  9  9  0  0  0  0  0  0  0  0999 V2000
    0.1508    2.2079   -0.0003 O   0  0  0  0  0  0  0  0  0  0  0  0
   -0.3098    1.0171   -0.0053 N   0  0  0  0  0  0  0  0  0  0  0  0
    0.5226   -0.0812   -0.1032 C   0  0  0  0  0  0  0  0  0  0  0  0
    0.0080   -1.3735   -0.1090 C   0  0  0  0  0  0  0  0  0  0  0  0
   -1.6736    0.8172    0.0882 C   0  0  0  0  0  0  0  0  0  0  0  0
   -1.3662   -1.5632   -0.0145 C   0  0  0  0  0  0  0  0  0  0  0  0
   -2.2132   -0.4648    0.0846 C   0  0  0  0  0  0  0  0  0  0  0  0
    1.9597    0.1315   -0.2022 C   0  0  0  0  0  0  0  0  0  0  0  0
    2.9217   -0.6910    0.2617 C   0  0  0  0  0  0  0  0  0  0  0  0
  1  2  1  0
  2  3  2  0
  2  5  1  0
  3  4  1  0
  3  8  1  0
  4  6  2  0
  5  7  2  0
  6  7  1  0
  8  9  2  0
M  CHG  2   1  -1   2   1
M  END
>  <PUBCHEM_COMPOUND_CID>  (1) 
24772

>  <PUBCHEM_CONFORMER_RMSD>  (1) 
0.4

>  <PUBCHEM_CONFORMER_DIVERSEORDER>  (1) 
1
3
2

>  <PUBCHEM_MMFF94_PARTIAL_CHARGES>  (1) 
16
1 -0.75
10 0.15
11 0.15
12 0.15
13 0.15
14 0.15
15 0.15
16 0.15
2 0.57
3 0.12
4 -0.15
5 -0.06
6 -0.15
7 -0.15
8 -0.18
9 -0.3

>  <PUBCHEM_EFFECTIVE_ROTOR_COUNT>  (1) 
1

>  <PUBCHEM_PHARMACOPHORE_FEATURES>  (1) 
3
1 1 anion
1 9 hydrophobe
6 2 3 4 5 6 7 rings

>  <PUBCHEM_HEAVY_ATOM_COUNT>  (1) 
9

>  <PUBCHEM_ATOM_DEF_STEREO_COUNT>  (1) 
0

>  <PUBCHEM_ATOM_UDEF_STEREO_COUNT>  (1) 
0

>  <PUBCHEM_BOND_DEF_STEREO_COUNT>  (1) 
0

>  <PUBCHEM_BOND_UDEF_STEREO_COUNT>  (1) 
0

>  <PUBCHEM_ISOTOPIC_ATOM_COUNT>  (1) 
0

>  <PUBCHEM_COMPONENT_COUNT>  (1) 
1

>  <PUBCHEM_CACTVS_TAUTO_COUNT>  (1) 
1

>  <PUBCHEM_CONFORMER_ID>  (1) 
000060C400000001

>  <PUBCHEM_MMFF94_ENERGY>  (1) 
24.318

>  <PUBCHEM_FEATURE_SELFOVERLAP>  (1) 
15.223

>  <PUBCHEM_SHAPE_FINGERPRINT>  (1) 
10857977 72 18340758329903914690
16714656 1 18411420587693435630
16945 1 18411704265961949935
18185500 45 18336265733835206090
20871998 184 18273215317651302350
21040471 1 18194970629807097804
23552423 10 17902233643255902212
241688 4 18338230574088452417
2748010 2 18339359785267348028
29004967 10 18338521940322240962
369184 2 18412257329095925634

>  <PUBCHEM_SHAPE_MULTIPOLES>  (1) 
174.37
3.23
1.76
0.61
1.69
0.52
0
-0.73
0.24
-0.38
-0.01
0.03
-0.04
-0.07

>  <PUBCHEM_SHAPE_SELFOVERLAP>  (1) 
358.183

>  <PUBCHEM_SHAPE_VOLUME>  (1) 
100.3

>  <PUBCHEM_COORDINATE_TYPE>  (1) 
2
5
10

$$$$
