24782
     RDKit          3D

 15 15  0  0  0  0  0  0  0  0999 V2000
    0.8938    0.0669    0.1093 O   0  0  0  0  0  0  0  0  0  0  0  0
    0.1638    2.2274   -0.2039 O   0  0  0  0  0  0  0  0  0  0  0  0
    4.5572   -0.2942    0.2960 N   0  0  0  0  0  0  0  0  0  0  0  0
   -5.2436   -1.2004    0.0181 N   0  0  0  0  0  0  0  0  0  0  0  0
    3.1516   -0.6981    0.3061 C   0  0  0  0  0  0  0  0  0  0  0  0
    2.2456    0.5070    0.1100 C   0  0  0  0  0  0  0  0  0  0  0  0
    4.8881    0.3738   -0.9622 C   0  0  0  0  0  0  0  0  0  0  0  0
    5.4238   -1.4540    0.5021 C   0  0  0  0  0  0  0  0  0  0  0  0
   -1.4140    0.4475   -0.0381 C   0  0  0  0  0  0  0  0  0  0  0  0
   -0.0501    1.0341   -0.0575 C   0  0  0  0  0  0  0  0  0  0  0  0
   -2.4627    1.2134    0.4279 C   0  0  0  0  0  0  0  0  0  0  0  0
   -1.5902   -0.8456   -0.4862 C   0  0  0  0  0  0  0  0  0  0  0  0
   -3.9483   -0.6430   -0.0010 C   0  0  0  0  0  0  0  0  0  0  0  0
   -3.7438    0.6622    0.4468 C   0  0  0  0  0  0  0  0  0  0  0  0
   -2.8713   -1.3970   -0.4674 C   0  0  0  0  0  0  0  0  0  0  0  0
  1  6  1  0
  1 10  1  0
  2 10  2  0
  3  5  1  0
  3  7  1  0
  3  8  1  0
  4 13  1  0
  5  6  1  0
  9 10  1  0
  9 11  2  0
  9 12  1  0
 11 14  1  0
 12 15  2  0
 13 14  2  0
 13 15  1  0
M  END
>  <PUBCHEM_COMPOUND_CID>  (1) 
24782

>  <PUBCHEM_CONFORMER_RMSD>  (1) 
0.6

>  <PUBCHEM_CONFORMER_DIVERSEORDER>  (1) 
1
54
71
49
68
60
74
75
65
40
59
61
28
19
10
84
67
56
22
16
57
23
47
6
76
8
41
63
58
20
7
48
72
11
14
31
3
36
86
18
35
17
32
33
24
5
29
55
39
2
30
37
4
15
52
70
38
13
12
26
81
34
79
27
73
45
78
46
53
66
85
42
21
83
50
51
9
64
25
77
69
62
80
82
43
44

>  <PUBCHEM_MMFF94_PARTIAL_CHARGES>  (1) 
21
1 -0.43
10 0.63
11 -0.15
12 -0.15
13 0.1
14 -0.15
15 -0.15
2 -0.57
26 0.15
27 0.15
28 0.15
29 0.15
3 -0.81
30 0.4
31 0.4
4 -0.9
5 0.27
6 0.28
7 0.27
8 0.27
9 0.09

>  <PUBCHEM_EFFECTIVE_ROTOR_COUNT>  (1) 
5

>  <PUBCHEM_PHARMACOPHORE_FEATURES>  (1) 
5
1 2 acceptor
1 3 cation
1 4 cation
1 4 donor
6 9 11 12 13 14 15 rings

>  <PUBCHEM_HEAVY_ATOM_COUNT>  (1) 
15

>  <PUBCHEM_ATOM_DEF_STEREO_COUNT>  (1) 
0

>  <PUBCHEM_ATOM_UDEF_STEREO_COUNT>  (1) 
0

>  <PUBCHEM_BOND_DEF_STEREO_COUNT>  (1) 
0

>  <PUBCHEM_BOND_UDEF_STEREO_COUNT>  (1) 
0

>  <PUBCHEM_ISOTOPIC_ATOM_COUNT>  (1) 
0

>  <PUBCHEM_COMPONENT_COUNT>  (1) 
1

>  <PUBCHEM_CACTVS_TAUTO_COUNT>  (1) 
2

>  <PUBCHEM_CONFORMER_ID>  (1) 
000060CE00000001

>  <PUBCHEM_MMFF94_ENERGY>  (1) 
49.2179

>  <PUBCHEM_FEATURE_SELFOVERLAP>  (1) 
25.371

>  <PUBCHEM_SHAPE_FINGERPRINT>  (1) 
10465860 250 17561361777139559536
10912923 1 18335426742545125504
10968037 39 18408606989172626446
11046707 91 18411980256291868865
11128504 68 17894639162615256718
11287383 113 15575002809589526900
114248 4 15285358435593417550
12236239 1 18259706691890325380
13167823 11 18335700508039806434
13288520 33 18411700989371323567
13551218 46 18271807869732498294
13675066 3 15913326879873964200
13690532 89 18410574015727886147
13760787 5 17894356570456646284
13862211 1 18342452673333740487
14251752 14 17749378222977302445
14252887 29 16845298215986436806
15242433 33 18335140903691685910
15536298 74 18271804691693809688
17804303 29 18202846569278644345
17834072 33 18409450318944243628
1813 80 18113628858700793708
18186145 218 15502378932767203828
200 152 17894910707316413800
20281475 54 18410572851807683720
20645477 56 10809343330223418681
20645477 70 14707477046138184416
20767249 213 10159699097045015723
20871999 31 18113892741391531549
21267235 1 18411144648987767203
212847 35 9367347025051959206
22485316 2 18409727344376994552
22646028 1 18335138683246146442
2297311 6 17846229847087096204
23402539 116 18410569557061365581
23559900 14 18200584912378144345
351380 180 10953460743314133366
351380 3 18409164419924728546
42 15 18343865515182679506
4214541 1 18340768152394159992
5104073 3 18272656796077857881
559249 180 18335977558683204955
573450 72 18339075995567048064
83771 10 18408038511559553652

>  <PUBCHEM_SHAPE_MULTIPOLES>  (1) 
286.99
11.63
1.59
0.75
9.23
0.25
-0.05
-4.98
0.43
-0.44
-0.02
0.33
-0.02
-0.82

>  <PUBCHEM_SHAPE_SELFOVERLAP>  (1) 
583.554

>  <PUBCHEM_SHAPE_VOLUME>  (1) 
168.8

>  <PUBCHEM_COORDINATE_TYPE>  (1) 
2
5
10

$$$$
