24786
     RDKit          3D

 22 24  0  0  0  0  0  0  0  0999 V2000
   -3.9319    3.2668   -0.4380 F   0  0  0  0  0  0  0  0  0  0  0  0
   -3.9093    0.7275    0.0434 O   0  0  0  0  0  0  0  0  0  0  0  0
   -1.6049    0.4478   -0.4828 N   0  0  0  0  0  0  0  0  0  0  0  0
    0.7146    0.8977    0.1101 C   0  0  0  0  0  0  0  0  0  0  0  0
   -0.3737    1.0595   -0.9060 C   0  0  0  0  0  0  0  0  0  0  0  0
    2.0183    0.5184   -0.2493 C   0  0  0  0  0  0  0  0  0  0  0  0
    3.0021    0.3826    0.7590 C   0  0  0  0  0  0  0  0  0  0  0  0
    0.3856    1.1393    1.4442 C   0  0  0  0  0  0  0  0  0  0  0  0
   -1.6130   -0.9909   -0.2123 C   0  0  0  0  0  0  0  0  0  0  0  0
    2.3672    0.2709   -1.5869 C   0  0  0  0  0  0  0  0  0  0  0  0
    2.6534    0.6304    2.0968 C   0  0  0  0  0  0  0  0  0  0  0  0
    1.3532    1.0063    2.4357 C   0  0  0  0  0  0  0  0  0  0  0  0
    4.3058    0.0035    0.4000 C   0  0  0  0  0  0  0  0  0  0  0  0
   -2.8186    1.1787   -0.3146 C   0  0  0  0  0  0  0  0  0  0  0  0
    3.6674   -0.1052   -1.9255 C   0  0  0  0  0  0  0  0  0  0  0  0
    4.6348   -0.2386   -0.9340 C   0  0  0  0  0  0  0  0  0  0  0  0
   -2.4876   -1.4494    0.7257 C   0  0  0  0  0  0  0  0  0  0  0  0
   -0.7460   -1.7686   -0.9182 C   0  0  0  0  0  0  0  0  0  0  0  0
   -2.7381    2.6483   -0.6602 C   0  0  0  0  0  0  0  0  0  0  0  0
   -2.4957   -2.8202    0.9833 C   0  0  0  0  0  0  0  0  0  0  0  0
   -0.7543   -3.1395   -0.6606 C   0  0  0  0  0  0  0  0  0  0  0  0
   -1.6292   -3.6652    0.2902 C   0  0  0  0  0  0  0  0  0  0  0  0
  1 19  1  0
  2 14  2  0
  3  5  1  0
  3  9  1  0
  3 14  1  0
  4  5  1  0
  4  6  1  0
  4  8  2  0
  6  7  2  0
  6 10  1  0
  7 11  1  0
  7 13  1  0
  8 12  1  0
  9 17  2  0
  9 18  1  0
 10 15  2  0
 11 12  2  0
 13 16  2  0
 14 19  1  0
 15 16  1  0
 17 20  1  0
 18 21  2  0
 20 22  2  0
 21 22  1  0
M  END
>  <PUBCHEM_COMPOUND_CID>  (1) 
24786

>  <PUBCHEM_CONFORMER_RMSD>  (1) 
0.8

>  <PUBCHEM_CONFORMER_DIVERSEORDER>  (1) 
1
14
23
10
28
26
43
33
25
53
46
45
30
31
15
13
9
41
29
48
51
8
11
24
21
6
47
49
37
7
34
54
4
5
20
22
44
19
52
39
12
42
27
17
40
35
36
16
3
2
32
56
38
55
50
18

>  <PUBCHEM_MMFF94_PARTIAL_CHARGES>  (1) 
32
1 -0.34
10 -0.15
11 -0.15
12 -0.15
13 -0.15
14 0.57
15 -0.15
16 -0.15
17 -0.15
18 -0.15
19 0.4
2 -0.57
20 -0.15
21 -0.15
22 -0.15
25 0.15
26 0.15
27 0.15
28 0.15
29 0.15
3 -0.48
30 0.15
31 0.15
32 0.15
33 0.15
36 0.15
37 0.15
38 0.15
4 -0.14
5 0.44
8 -0.15
9 0.12

>  <PUBCHEM_EFFECTIVE_ROTOR_COUNT>  (1) 
5

>  <PUBCHEM_PHARMACOPHORE_FEATURES>  (1) 
4
1 2 acceptor
6 4 6 7 8 11 12 rings
6 6 7 10 13 15 16 rings
6 9 17 18 20 21 22 rings

>  <PUBCHEM_HEAVY_ATOM_COUNT>  (1) 
22

>  <PUBCHEM_ATOM_DEF_STEREO_COUNT>  (1) 
0

>  <PUBCHEM_ATOM_UDEF_STEREO_COUNT>  (1) 
0

>  <PUBCHEM_BOND_DEF_STEREO_COUNT>  (1) 
0

>  <PUBCHEM_BOND_UDEF_STEREO_COUNT>  (1) 
0

>  <PUBCHEM_ISOTOPIC_ATOM_COUNT>  (1) 
0

>  <PUBCHEM_COMPONENT_COUNT>  (1) 
1

>  <PUBCHEM_CACTVS_TAUTO_COUNT>  (1) 
1

>  <PUBCHEM_CONFORMER_ID>  (1) 
000060D200000001

>  <PUBCHEM_MMFF94_ENERGY>  (1) 
87.5748

>  <PUBCHEM_FEATURE_SELFOVERLAP>  (1) 
20.324

>  <PUBCHEM_SHAPE_FINGERPRINT>  (1) 
10165383 225 18196109775910461729
107951 10 17750251217582111770
11578080 2 18128546048851103296
11582403 64 16189943101389718225
11796584 16 18338801114141135782
12156800 1 14904232293348719107
12236239 1 17385443206688035140
12500047 106 18411974741864986684
12553582 1 17902796597499691487
12633257 1 17057828457279245090
12714826 92 18270134533457124494
12716301 132 18411973676386114818
12788726 201 17969796361061828283
133893 2 17324327768234318519
14178342 30 18190158235317077818
14251751 93 18113907069228266506
15664445 248 17256533444333318765
16752209 62 18261943146229272471
16945 1 18336264630128714511
18219364 16 17489595609660251430
19049666 15 18060704995926611474
19784866 135 18263370350539228538
20600515 1 17540774667813836725
20645476 183 18260831466557915037
21731516 1 17827350291476490426
22112679 90 17604132818394423492
22907989 373 18261674904083452055
23175994 123 17417828226857646956
23493267 7 18335425634068854128
23526113 38 17846219916900901990
23557571 272 18119800571949451864
23559900 14 18273218574196069334
23598291 2 17530683221129006038
484985 159 17556339157049338782
57527295 17 17416126066582678805
59755656 215 18271237232609829133
602551 16 18409727382978920312
6049 1 17987237909660074096
633830 44 17845354575723495453
81228 2 18124861615788111479
84936 182 17767119809422537089

>  <PUBCHEM_SHAPE_MULTIPOLES>  (1) 
434.63
7.18
3.35
1.78
3.96
1.37
-0.66
-1.02
1.06
-5.61
0.23
1.69
-0.33
1.49

>  <PUBCHEM_SHAPE_SELFOVERLAP>  (1) 
955.056

>  <PUBCHEM_SHAPE_VOLUME>  (1) 
234.9

>  <PUBCHEM_COORDINATE_TYPE>  (1) 
2
5
10

$$$$
