24795
     RDKit          3D

 19 20  0  0  1  0  0  0  0  0999 V2000
    2.6527   -3.3761   -0.4446 F   0  0  0  0  0  0  0  0  0  0  0  0
    2.9554    1.9948   -1.4285 O   0  0  0  0  0  0  0  0  0  0  0  0
    3.6712   -1.1772    0.4538 O   0  0  0  0  0  0  0  0  0  0  0  0
    1.7038    0.1146    0.2862 N   0  0  0  0  0  0  0  0  0  0  0  0
    2.3822    1.3378    0.8162 C   0  0  0  0  0  0  0  0  0  0  0  0
    0.3553    0.1419   -0.0716 C   0  0  0  0  0  0  0  0  0  0  0  0
    2.3565    2.4566   -0.2229 C   0  0  0  0  0  0  0  0  0  0  0  0
    1.7186    1.7790    2.1145 C   0  0  0  0  0  0  0  0  0  0  0  0
   -0.6235   -0.1636    0.8745 C   0  0  0  0  0  0  0  0  0  0  0  0
   -1.9848   -0.1410    0.5300 C   0  0  0  0  0  0  0  0  0  0  0  0
   -2.3586    0.1960   -0.7927 C   0  0  0  0  0  0  0  0  0  0  0  0
   -0.0122    0.4732   -1.3724 C   0  0  0  0  0  0  0  0  0  0  0  0
    2.4777   -1.0901    0.1549 C   0  0  0  0  0  0  0  0  0  0  0  0
   -1.3599    0.5004   -1.7320 C   0  0  0  0  0  0  0  0  0  0  0  0
   -2.9834   -0.4455    1.4693 C   0  0  0  0  0  0  0  0  0  0  0  0
   -3.7199    0.2185   -1.1373 C   0  0  0  0  0  0  0  0  0  0  0  0
    1.7986   -2.3145   -0.4159 C   0  0  0  0  0  0  0  0  0  0  0  0
   -4.3311   -0.4181    1.1096 C   0  0  0  0  0  0  0  0  0  0  0  0
   -4.6988   -0.0867   -0.1912 C   0  0  0  0  0  0  0  0  0  0  0  0
  1 17  1  0
  2  7  1  0
  3 13  2  0
  4  5  1  0
  4  6  1  0
  4 13  1  0
  5  7  1  0
  5  8  1  0
  6  9  2  0
  6 12  1  0
  9 10  1  0
 10 11  2  0
 10 15  1  0
 11 14  1  0
 11 16  1  0
 12 14  2  0
 13 17  1  0
 15 18  2  0
 16 19  2  0
 18 19  1  0
M  END
>  <PUBCHEM_COMPOUND_CID>  (1) 
24795

>  <PUBCHEM_CONFORMER_RMSD>  (1) 
0.6

>  <PUBCHEM_CONFORMER_DIVERSEORDER>  (1) 
1
55
42
51
75
10
89
90
45
92
18
96
39
54
47
95
98
17
33
80
53
69
30
52
74
46
76
88
94
78
73
67
31
58
49
86
84
21
83
65
24
7
70
25
81
50
48
68
41
29
16
87
20
22
72
71
97
19
43
62
60
35
23
26
85
59
37
6
61
82
40
2
93
36
8
28
57
15
13
27
44
32
38
63
5
34
12
9
56
14
3
91
64
4
79
66
11
77

>  <PUBCHEM_MMFF94_PARTIAL_CHARGES>  (1) 
24
1 -0.34
12 -0.15
13 0.57
14 -0.15
15 -0.15
16 -0.15
17 0.4
18 -0.15
19 -0.15
2 -0.68
26 0.15
27 0.15
28 0.15
29 0.15
3 -0.57
30 0.15
33 0.15
34 0.15
35 0.4
4 -0.48
5 0.3
6 0.12
7 0.28
9 -0.15

>  <PUBCHEM_EFFECTIVE_ROTOR_COUNT>  (1) 
5

>  <PUBCHEM_PHARMACOPHORE_FEATURES>  (1) 
5
1 2 acceptor
1 2 donor
1 3 acceptor
6 10 11 15 16 18 19 rings
6 6 9 10 11 12 14 rings

>  <PUBCHEM_HEAVY_ATOM_COUNT>  (1) 
19

>  <PUBCHEM_ATOM_DEF_STEREO_COUNT>  (1) 
0

>  <PUBCHEM_ATOM_UDEF_STEREO_COUNT>  (1) 
1

>  <PUBCHEM_BOND_DEF_STEREO_COUNT>  (1) 
0

>  <PUBCHEM_BOND_UDEF_STEREO_COUNT>  (1) 
0

>  <PUBCHEM_ISOTOPIC_ATOM_COUNT>  (1) 
0

>  <PUBCHEM_COMPONENT_COUNT>  (1) 
1

>  <PUBCHEM_CACTVS_TAUTO_COUNT>  (1) 
1

>  <PUBCHEM_CONFORMER_ID>  (1) 
000060DB00000001

>  <PUBCHEM_MMFF94_ENERGY>  (1) 
71.6763

>  <PUBCHEM_FEATURE_SELFOVERLAP>  (1) 
25.398

>  <PUBCHEM_SHAPE_FINGERPRINT>  (1) 
10465860 71 16588605105747239023
11582403 64 16239193568677047804
12236239 1 17131827672818473970
13134695 92 18058434431443144536
13296908 3 17603585244560779521
13533116 47 18343586244463604387
13538477 17 17131539660933109527
13583140 156 18059567049190190235
14252887 29 17386299795297728905
14289901 80 18338514244252523361
14787075 74 16406447124587504501
15219456 202 18040714796359721973
16945 1 18341896285609857598
17357990 137 16774080691112032392
17980427 23 14619639325236957120
1813 80 17773047354038589262
18186145 218 17560802186230559777
19078846 21 17561092358215326041
19765921 60 17056943384641038920
19786989 88 18335137652037367952
20559304 39 17775566420697062608
20645476 183 17202758340726727957
20645477 70 18335696139836552759
2255824 54 18201437012678084256
22854114 111 18059851804952514793
23493267 7 16916238800425615783
23526113 38 17970057855687173442
23557571 272 17313108596128829589
23559900 14 17168139022829860526
23598291 2 17561089102640567361
2748010 2 17313107475284614951
31174 14 18410572864186280871
3286 77 18411136896719445499
3729539 64 18118153392790160012
458136 41 18339090400781928550
474 4 17485627558016080032
495365 180 18338782477623371457
6049 1 18114178593008371701
633830 44 17701835481594353617
7097593 13 17845376548696651215
7364860 26 18334580165583151188
77492 1 17203321221907801115
81228 2 17260466973151886242
8272917 22 18342463629494144847
84936 31 18410855481777201926
9981440 41 15548226592282391216

>  <PUBCHEM_SHAPE_MULTIPOLES>  (1) 
367.02
7.39
2.26
1.63
5.73
1.23
0.1
0.44
0.67
-3.98
-0.16
0.37
-0.65
0.45

>  <PUBCHEM_SHAPE_SELFOVERLAP>  (1) 
779.505

>  <PUBCHEM_SHAPE_VOLUME>  (1) 
205.3

>  <PUBCHEM_COORDINATE_TYPE>  (1) 
2
5
10

$$$$
