24806
     RDKit          3D

 12 12  0  0  0  0  0  0  0  0999 V2000
   -2.9011   -0.4930    0.3567 O   0  0  0  0  0  0  0  0  0  0  0  0
    3.1905    1.2119   -0.2070 O   0  0  0  0  0  0  0  0  0  0  0  0
   -0.9875    0.9329    0.1278 C   0  0  0  0  0  0  0  0  0  0  0  0
    1.2140   -0.0561    0.0155 C   0  0  0  0  0  0  0  0  0  0  0  0
   -1.5521   -0.3374    0.2442 C   0  0  0  0  0  0  0  0  0  0  0  0
    0.3956    1.0735    0.0134 C   0  0  0  0  0  0  0  0  0  0  0  0
    0.6496   -1.3262    0.1320 C   0  0  0  0  0  0  0  0  0  0  0  0
   -0.7335   -1.4669    0.2463 C   0  0  0  0  0  0  0  0  0  0  0  0
   -1.8487    2.1527    0.1230 C   0  0  0  0  0  0  0  0  0  0  0  0
    2.6562    0.0898   -0.1010 C   0  0  0  0  0  0  0  0  0  0  0  0
    3.5563   -1.1412   -0.0964 C   0  0  0  0  0  0  0  0  0  0  0  0
   -3.6394   -0.6400   -0.8545 C   0  0  0  0  0  0  0  0  0  0  0  0
  1  5  1  0
  1 12  1  0
  2 10  2  0
  3  5  2  0
  3  6  1  0
  3  9  1  0
  4  6  2  0
  4  7  1  0
  4 10  1  0
  5  8  1  0
  7  8  2  0
 10 11  1  0
M  END
>  <PUBCHEM_COMPOUND_CID>  (1) 
24806

>  <PUBCHEM_CONFORMER_RMSD>  (1) 
0.6

>  <PUBCHEM_CONFORMER_DIVERSEORDER>  (1) 
2
8
1
7
5
4
6
3

>  <PUBCHEM_MMFF94_PARTIAL_CHARGES>  (1) 
15
1 -0.36
10 0.42
11 0.06
12 0.28
13 0.15
14 0.15
15 0.15
2 -0.57
3 -0.14
4 0.09
5 0.08
6 -0.15
7 -0.15
8 -0.15
9 0.14

>  <PUBCHEM_EFFECTIVE_ROTOR_COUNT>  (1) 
2

>  <PUBCHEM_PHARMACOPHORE_FEATURES>  (1) 
3
1 1 acceptor
1 2 acceptor
6 3 4 5 6 7 8 rings

>  <PUBCHEM_HEAVY_ATOM_COUNT>  (1) 
12

>  <PUBCHEM_ATOM_DEF_STEREO_COUNT>  (1) 
0

>  <PUBCHEM_ATOM_UDEF_STEREO_COUNT>  (1) 
0

>  <PUBCHEM_BOND_DEF_STEREO_COUNT>  (1) 
0

>  <PUBCHEM_BOND_UDEF_STEREO_COUNT>  (1) 
0

>  <PUBCHEM_ISOTOPIC_ATOM_COUNT>  (1) 
0

>  <PUBCHEM_COMPONENT_COUNT>  (1) 
1

>  <PUBCHEM_CACTVS_TAUTO_COUNT>  (1) 
2

>  <PUBCHEM_CONFORMER_ID>  (1) 
000060E600000002

>  <PUBCHEM_MMFF94_ENERGY>  (1) 
42.728

>  <PUBCHEM_FEATURE_SELFOVERLAP>  (1) 
15.223

>  <PUBCHEM_SHAPE_FINGERPRINT>  (1) 
11206711 2 18409167684257888925
12032990 46 18336834190205934235
12897270 3 18408886230534253943
12932764 1 17489863847710857200
13380535 76 18194119603770688201
14325111 11 18410295779003743776
14993402 34 18131067194706017983
16945 1 18409455816212173634
193761 8 17905608796272001891
20510252 161 18343865498229995416
21293036 1 18335696195644533023
21501502 16 18265614269108608722
21501925 9 18337380574786733274
23402539 116 18341884190939812838
23463225 33 18335422305685627018
23552423 10 18190746340614525938
23559900 14 18339639049137910376
2748010 2 18266182733784077436
353137 74 18334288764921091033
369184 2 18342741818852509616
5084963 1 18272934903594388514
7364860 26 18342178903907861416
8030462 33 18260558813802804430

>  <PUBCHEM_SHAPE_MULTIPOLES>  (1) 
235.22
5.47
1.79
0.69
1.21
0.53
-0.04
-0.76
-0.96
-0.39
0.06
-0.23
-0.06
-0.22

>  <PUBCHEM_SHAPE_SELFOVERLAP>  (1) 
485.391

>  <PUBCHEM_SHAPE_VOLUME>  (1) 
136.8

>  <PUBCHEM_COORDINATE_TYPE>  (1) 
2
5
10

$$$$
