24838
     RDKit          3D

 13 12  0  0  1  0  0  0  0  0999 V2000
    0.9309   -0.1539   -0.3237 O   0  0  0  0  0  0  0  0  0  0  0  0
    2.2385   -0.9006    1.4241 O   0  0  0  0  0  0  0  0  0  0  0  0
   -2.7544   -0.1725    0.4079 C   0  0  0  0  0  0  0  0  0  0  0  0
   -1.4575    0.0222   -0.3760 C   0  0  0  0  0  0  0  0  0  0  0  0
   -4.0100    0.1788   -0.3951 C   0  0  0  0  0  0  0  0  0  0  0  0
    3.2763   -0.1530   -0.6454 C   0  0  0  0  0  0  0  0  0  0  0  0
   -0.2404   -0.3704    0.4511 C   0  0  0  0  0  0  0  0  0  0  0  0
   -5.3063    0.0074    0.3976 C   0  0  0  0  0  0  0  0  0  0  0  0
    4.2046    0.9172   -0.0530 C   0  0  0  0  0  0  0  0  0  0  0  0
    2.1175   -0.4626    0.2872 C   0  0  0  0  0  0  0  0  0  0  0  0
    4.0387   -1.4481   -0.9107 C   0  0  0  0  0  0  0  0  0  0  0  0
   -6.5256    0.2983   -0.4645 C   0  0  0  0  0  0  0  0  0  0  0  0
    3.4877    2.2372    0.2005 C   0  0  0  0  0  0  0  0  0  0  0  0
  1  7  1  0
  1 10  1  0
  2 10  2  0
  3  4  1  0
  3  5  1  0
  4  7  1  0
  5  8  1  0
  6  9  1  0
  6 10  1  0
  6 11  1  0
  8 12  1  0
  9 13  1  0
M  END
>  <PUBCHEM_COMPOUND_CID>  (1) 
24838

>  <PUBCHEM_CONFORMER_RMSD>  (1) 
1

>  <PUBCHEM_CONFORMER_DIVERSEORDER>  (1) 
3
622
502
62
14
512
687
521
65
513
93
242
6
374
115
551
466
151
51
246
201
37
432
137
25
202
66
112
383
43
379
100
720
280
410
634
7
170
287
612
150
525
132
475
23
228
528
272
11
266
15
127
268
520
1
544
30
541
98
45
17
625
658
58
39
390
458
4
192
486
185
405
74
265
155
179
21
64
12
340
95
580
13
109
319
54
8
40
210
698
2
35

>  <PUBCHEM_MMFF94_PARTIAL_CHARGES>  (1) 
5
1 -0.43
10 0.66
2 -0.57
6 0.06
7 0.28

>  <PUBCHEM_EFFECTIVE_ROTOR_COUNT>  (1) 
8

>  <PUBCHEM_PHARMACOPHORE_FEATURES>  (1) 
5
1 11 hydrophobe
1 12 hydrophobe
1 13 hydrophobe
1 2 acceptor
4 3 4 5 8 hydrophobe

>  <PUBCHEM_HEAVY_ATOM_COUNT>  (1) 
13

>  <PUBCHEM_ATOM_DEF_STEREO_COUNT>  (1) 
0

>  <PUBCHEM_ATOM_UDEF_STEREO_COUNT>  (1) 
1

>  <PUBCHEM_BOND_DEF_STEREO_COUNT>  (1) 
0

>  <PUBCHEM_BOND_UDEF_STEREO_COUNT>  (1) 
0

>  <PUBCHEM_ISOTOPIC_ATOM_COUNT>  (1) 
0

>  <PUBCHEM_COMPONENT_COUNT>  (1) 
1

>  <PUBCHEM_CACTVS_TAUTO_COUNT>  (1) 
1

>  <PUBCHEM_CONFORMER_ID>  (1) 
0000610600000003

>  <PUBCHEM_MMFF94_ENERGY>  (1) 
4.2704

>  <PUBCHEM_FEATURE_SELFOVERLAP>  (1) 
25.374

>  <PUBCHEM_SHAPE_FINGERPRINT>  (1) 
11287383 113 18411703222738564691
12616999 72 15913340099799262356
13081056 2 18407760322285630661
13533116 47 17604422995101490043
13836976 161 17561087994997934998
13955234 65 18336262358260372690
14123238 8 15068344514642614423
14251718 22 18340485660137720231
15242439 84 18187372020932961691
17834072 33 18201999967084683117
17834076 25 16443349766936126751
17844677 252 18342465807385760513
18186145 218 18187362129675838214
20281389 69 7997699714485490183
20645477 70 18130511838249832670
212847 35 17131834256918903763
23402539 116 12179842827897562067
23402655 69 18201722889954146852
23532345 1 18341617057291367928
23557571 272 17023185964250110359
300161 21 17894905244392475827
4047638 21 18408605881340050330
42788 4 18411138026775580517
522135 26 17846499227340715350
5374978 207 17531238452799609321
542803 24 18202285797295446793
57483677 66 9151173143373962249
90127 26 18335991887179420769

>  <PUBCHEM_SHAPE_MULTIPOLES>  (1) 
255.8
13.64
1.33
0.92
19.69
0.6
-0.13
1.85
2.08
-2.53
0.06
-0.3
-0.19
0.36

>  <PUBCHEM_SHAPE_SELFOVERLAP>  (1) 
467.206

>  <PUBCHEM_SHAPE_VOLUME>  (1) 
163.8

>  <PUBCHEM_COORDINATE_TYPE>  (1) 
2
5
10

$$$$
