2486
     RDKit          3D

 22 21  0  0  1  0  0  0  0  0999 V2000
   -0.5802   -1.8902    0.5006 O   0  0  0  0  0  0  0  0  0  0  0  0
    3.4102   -1.3930   -0.2425 O   0  0  0  0  0  0  0  0  0  0  0  0
   -1.4237   -1.6354   -1.6308 O   0  0  0  0  0  0  0  0  0  0  0  0
   -5.5195    1.3502   -0.7466 O   0  0  0  0  0  0  0  0  0  0  0  0
   -4.4970    1.0913    1.2657 O   0  0  0  0  0  0  0  0  0  0  0  0
    2.1569   -0.3486    1.4124 N   0  0  0  0  0  0  0  0  0  0  0  0
    1.8305    2.0861    0.9858 C   0  0  0  0  0  0  0  0  0  0  0  0
    1.2086    1.9468   -0.4243 C   0  0  0  0  0  0  0  0  0  0  0  0
    2.7919    0.9392    1.3437 C   0  0  0  0  0  0  0  0  0  0  0  0
    0.6917    2.2593    2.0179 C   0  0  0  0  0  0  0  0  0  0  0  0
    2.1942    1.8344   -1.5933 C   0  0  0  0  0  0  0  0  0  0  0  0
    1.5147    1.7886   -2.9621 C   0  0  0  0  0  0  0  0  0  0  0  0
    1.1765    2.4078    3.4533 C   0  0  0  0  0  0  0  0  0  0  0  0
    2.5219   -1.4213    0.6048 C   0  0  0  0  0  0  0  0  0  0  0  0
    1.6788   -2.6554    0.8898 C   0  0  0  0  0  0  0  0  0  0  0  0
    2.5279    1.5770   -4.0768 C   0  0  0  0  0  0  0  0  0  0  0  0
    0.4399   -2.7511   -0.0018 C   0  0  0  0  0  0  0  0  0  0  0  0
   -0.1207   -4.1663   -0.0127 C   0  0  0  0  0  0  0  0  0  0  0  0
   -1.4536   -1.3976   -0.4314 C   0  0  0  0  0  0  0  0  0  0  0  0
   -2.4625   -0.5075    0.2621 C   0  0  0  0  0  0  0  0  0  0  0  0
   -3.5366    0.0253   -0.6785 C   0  0  0  0  0  0  0  0  0  0  0  0
   -4.5499    0.8604    0.0646 C   0  0  0  0  0  0  0  0  0  0  0  0
  1 17  1  0
  1 19  1  0
  2 14  2  0
  3 19  2  0
  4 22  1  0
  5 22  2  0
  6  9  1  0
  6 14  1  0
  7  8  1  0
  7  9  1  0
  7 10  1  0
  8 11  1  0
 10 13  1  0
 11 12  1  0
 12 16  1  0
 14 15  1  0
 15 17  1  0
 17 18  1  0
 19 20  1  0
 20 21  1  0
 21 22  1  0
M  END
>  <PUBCHEM_COMPOUND_CID>  (1) 
2486

>  <PUBCHEM_CONFORMER_RMSD>  (1) 
1.4

>  <PUBCHEM_CONFORMER_DIVERSEORDER>  (1) 
1
66
84
56
50
44
98
40
45
100
69
94
20
86
91
22
88
59
81
68
54
61
71
19
27
57
87
25
92
74
13
103
42
89
105
2
29
37
41
58
11
3
64
51
93
7
63
30
43
26
85
79
47
15
34
101
99
97
83
78
18
35
31
73
17
10
48
55
23
102
62
82
67
14
46
65
96
8
80
12
53
36
90
77
9
75
24
16
28
21
39
72
4
76
38
60
52
49
95
33
32
106
5
104
70
6

>  <PUBCHEM_MMFF94_PARTIAL_CHARGES>  (1) 
16
1 -0.43
14 0.57
15 0.06
17 0.28
19 0.66
2 -0.57
20 0.06
21 0.06
22 0.66
3 -0.57
34 0.37
4 -0.65
5 -0.57
51 0.5
6 -0.73
9 0.3

>  <PUBCHEM_EFFECTIVE_ROTOR_COUNT>  (1) 
14

>  <PUBCHEM_PHARMACOPHORE_FEATURES>  (1) 
9
1 13 hydrophobe
1 16 hydrophobe
1 2 acceptor
1 3 acceptor
1 4 acceptor
1 5 acceptor
1 6 donor
3 4 5 22 anion
5 7 8 10 11 12 hydrophobe

>  <PUBCHEM_HEAVY_ATOM_COUNT>  (1) 
22

>  <PUBCHEM_ATOM_DEF_STEREO_COUNT>  (1) 
0

>  <PUBCHEM_ATOM_UDEF_STEREO_COUNT>  (1) 
2

>  <PUBCHEM_BOND_DEF_STEREO_COUNT>  (1) 
0

>  <PUBCHEM_BOND_UDEF_STEREO_COUNT>  (1) 
0

>  <PUBCHEM_ISOTOPIC_ATOM_COUNT>  (1) 
0

>  <PUBCHEM_COMPONENT_COUNT>  (1) 
1

>  <PUBCHEM_CACTVS_TAUTO_COUNT>  (1) 
2

>  <PUBCHEM_CONFORMER_ID>  (1) 
000009B600000001

>  <PUBCHEM_MMFF94_ENERGY>  (1) 
16.755

>  <PUBCHEM_FEATURE_SELFOVERLAP>  (1) 
45.73

>  <PUBCHEM_SHAPE_FINGERPRINT>  (1) 
10064457 181 18266728263492720544
10688039 33 17463123548708899154
11244481 83 16443357480660499565
11582403 64 16483283079963905128
13965767 371 17975373002301401514
14713325 29 16306581760929225988
15119646 57 13991188359119854854
20600515 1 18337098043512045666
23526113 38 17269508665109672556
23558518 356 18190731136478453131
3524813 1 18192412092019079846
3797600 57 14861440933299623266
469060 322 17392499696786029118
474 4 18340754971603875859
513532 50 16917067728660219029
550186 7 16904115799909042136
57100710 29 17825659221223220454
6786 2 15215300952549974252

>  <PUBCHEM_SHAPE_MULTIPOLES>  (1) 
418.42
6.92
4.22
3.24
11.94
3.99
-1.74
-4.3
-1.1
-1.1
0.54
-3.86
-3.81
-0.98

>  <PUBCHEM_SHAPE_SELFOVERLAP>  (1) 
794.389

>  <PUBCHEM_SHAPE_VOLUME>  (1) 
256.6

>  <PUBCHEM_COORDINATE_TYPE>  (1) 
2
5
10

$$$$
