2488
     RDKit          3D

 33 36  0  0  1  0  0  0  0  0999 V2000
   -2.5025    0.4656   -0.7307 O   0  0  0  0  0  0  0  0  0  0  0  0
   -4.2678   -0.9866   -0.4504 O   0  0  0  0  0  0  0  0  0  0  0  0
    6.9120    0.3676    0.7995 O   0  0  0  0  0  0  0  0  0  0  0  0
   -4.7323    3.4701    1.0225 O   0  0  0  0  0  0  0  0  0  0  0  0
    0.8604   -1.6794    0.3408 N   0  0  0  0  0  0  0  0  0  0  0  0
   -0.4326   -2.5206    0.3053 C   0  0  0  0  0  0  0  0  0  0  0  0
    0.8789   -1.1580   -1.1111 C   0  0  0  0  0  0  0  0  0  0  0  0
   -0.2927   -3.3045   -1.0102 C   0  0  0  0  0  0  0  0  0  0  0  0
    0.5587   -2.4195   -1.9300 C   0  0  0  0  0  0  0  0  0  0  0  0
   -1.6544   -1.5864    0.2456 C   0  0  0  0  0  0  0  0  0  0  0  0
   -0.2279   -0.1042   -1.2950 C   0  0  0  0  0  0  0  0  0  0  0  0
   -1.6300   -0.6358   -0.9602 C   0  0  0  0  0  0  0  0  0  0  0  0
    2.0917   -2.5597    0.6345 C   0  0  0  0  0  0  0  0  0  0  0  0
    0.8882   -0.5920    1.4131 C   0  0  0  0  0  0  0  0  0  0  0  0
    3.3737   -1.7814    0.6783 C   0  0  0  0  0  0  0  0  0  0  0  0
    3.8101   -1.2414    1.8827 C   0  0  0  0  0  0  0  0  0  0  0  0
    4.1132   -1.6073   -0.4861 C   0  0  0  0  0  0  0  0  0  0  0  0
   -3.8128    0.1495   -0.4846 C   0  0  0  0  0  0  0  0  0  0  0  0
   -4.6199    1.4260   -0.2658 C   0  0  0  0  0  0  0  0  0  0  0  0
    5.0018   -0.5177    1.9233 C   0  0  0  0  0  0  0  0  0  0  0  0
    5.3051   -0.8836   -0.4455 C   0  0  0  0  0  0  0  0  0  0  0  0
    5.7494   -0.3388    0.7593 C   0  0  0  0  0  0  0  0  0  0  0  0
   -4.0337    2.2349    0.9002 C   0  0  0  0  0  0  0  0  0  0  0  0
   -6.0945    1.1123   -0.0677 C   0  0  0  0  0  0  0  0  0  0  0  0
   -6.5635    0.8834    1.2105 C   0  0  0  0  0  0  0  0  0  0  0  0
   -6.9219    1.0647   -1.1720 C   0  0  0  0  0  0  0  0  0  0  0  0
    7.2848    1.0725   -0.3837 C   0  0  0  0  0  0  0  0  0  0  0  0
   -7.9163    0.5952    1.3919 C   0  0  0  0  0  0  0  0  0  0  0  0
   -8.2746    0.7766   -0.9905 C   0  0  0  0  0  0  0  0  0  0  0  0
    8.1007    2.2958    0.0092 C   0  0  0  0  0  0  0  0  0  0  0  0
   -8.7717    0.5418    0.2913 C   0  0  0  0  0  0  0  0  0  0  0  0
    8.5215    3.1086   -1.2120 C   0  0  0  0  0  0  0  0  0  0  0  0
    9.2990    4.3523   -0.8126 C   0  0  0  0  0  0  0  0  0  0  0  0
  1 12  1  0
  1 18  1  0
  2 18  2  0
  3 22  1  0
  3 27  1  0
  4 23  1  0
  5  6  1  0
  5  7  1  0
  5 13  1  0
  5 14  1  0
  6  8  1  0
  6 10  1  0
  7  9  1  0
  7 11  1  0
  8  9  1  0
 10 12  1  0
 11 12  1  0
 13 15  1  0
 15 16  2  0
 15 17  1  0
 16 20  1  0
 17 21  2  0
 18 19  1  0
 19 23  1  0
 19 24  1  0
 20 22  2  0
 21 22  1  0
 24 25  2  0
 24 26  1  0
 25 28  1  0
 26 29  2  0
 27 30  1  0
 28 31  2  0
 29 31  1  0
 30 32  1  0
 32 33  1  0
M  CHG  1   5   1
M  END
>  <PUBCHEM_COMPOUND_CID>  (1) 
2488

>  <PUBCHEM_CONFORMER_RMSD>  (1) 
1.2

>  <PUBCHEM_CONFORMER_DIVERSEORDER>  (1) 
1
188
228
55
83
223
32
171
115
9
224
108
234
215
6
95
68
179
230
63
70
199
161
71
150
111
153
233
80
124
43
85
201
222
5
114
138
175
19
12
168
45
210
52
226
149
44
97
165
76
194
78
152
219
235
2
74
173
169
11
232
213
25
197
36
125
67
206
229
133
221
147
117
181
17
225
61
212
93
96
160
3
191
30
193
141
103
186
220
24
136
189
131
217
87
123
146
49
183
94
56
205
65
218
104
157
16
209
13
159
113
64
144
81
237
57
128
23
216
22
98
37
33
127
106
203
58
236
8
88
69
176
50
195
92
119
46
53
107
73
231
102
130
120
59
207
28
185
145
109
208
227
47
31
172
84
214
126
112
42
177
4
21
51
54
158
38
163
18
110
15
211
10
174
190
14
170
60
122
142
86
139
62
26
204
155
132
79
40
7
118
82
75
148
140
89
200
90
29
166
100
202
66
91
39
143
156
198
137
48
167
72
20
182
34
154
99
105
27
187
77
134
178
135
192
162
121
151
196
180
101
41
116
35
184
164
129

>  <PUBCHEM_MMFF94_PARTIAL_CHARGES>  (1) 
36
1 -0.43
12 0.28
13 0.65
14 0.5
15 -0.14
16 -0.15
17 -0.15
18 0.66
19 0.2
2 -0.57
20 -0.15
21 -0.15
22 0.08
23 0.28
24 -0.14
25 -0.15
26 -0.15
27 0.28
28 -0.15
29 -0.15
3 -0.36
31 -0.15
4 -0.68
5 -1.01
50 0.15
51 0.15
53 0.15
54 0.15
57 0.15
58 0.15
59 0.4
6 0.5
62 0.15
63 0.15
66 0.15
7 0.5

>  <PUBCHEM_EFFECTIVE_ROTOR_COUNT>  (1) 
12.2

>  <PUBCHEM_PHARMACOPHORE_FEATURES>  (1) 
9
1 2 acceptor
1 3 acceptor
1 33 hydrophobe
1 4 acceptor
1 4 donor
1 5 cation
6 15 16 17 20 21 22 rings
6 24 25 26 28 29 31 rings
8 5 6 7 8 9 10 11 12 rings

>  <PUBCHEM_HEAVY_ATOM_COUNT>  (1) 
33

>  <PUBCHEM_ATOM_DEF_STEREO_COUNT>  (1) 
0

>  <PUBCHEM_ATOM_UDEF_STEREO_COUNT>  (1) 
3

>  <PUBCHEM_BOND_DEF_STEREO_COUNT>  (1) 
0

>  <PUBCHEM_BOND_UDEF_STEREO_COUNT>  (1) 
0

>  <PUBCHEM_ISOTOPIC_ATOM_COUNT>  (1) 
0

>  <PUBCHEM_COMPONENT_COUNT>  (1) 
1

>  <PUBCHEM_CACTVS_TAUTO_COUNT>  (1) 
1

>  <PUBCHEM_CONFORMER_ID>  (1) 
000009B800000001

>  <PUBCHEM_MMFF94_ENERGY>  (1) 
112.6341

>  <PUBCHEM_FEATURE_SELFOVERLAP>  (1) 
45.671

>  <PUBCHEM_SHAPE_FINGERPRINT>  (1) 
10 15 18040997319698894979
10055352 69 18268151031539205736
10280341 67 18268981159605313120
10533779 1 18263634217131701164
106641 1 17894914019021204715
10670039 82 11743839150051698739
10794284 68 18198903806871968775
10842051 180 18412820266381184065
10930396 42 16008742545787018589
10939801 23 18335138704937988516
11135609 201 18187362147404236360
11146346 178 9727095147743137761
11273773 46 11959731590094683093
11374522 155 18408609170943160301
11973864 47 18267861873298357200
11991303 11 15984521391543503333
1200032 147 18260266383129549632
12013929 112 13542473021133736681
12120059 9 13118544282287318619
12895837 130 18265616675297655622
13383665 225 18201720699247059358
14359421 15 13254812217880863092
14394314 77 18043529615865158180
14617042 71 18408888442437896812
14664723 55 18341060674913135116
14849402 71 18413108372782229217
15064981 194 17773878777606784970
15183329 4 14836119948873439139
15188451 53 8070029978373813002
15326923 82 18334853923574275709
15357212 105 16627450757499880001
15419008 91 17023732421739962471
15685185 35 18337111293243762004
15840311 113 18259987050766428766
16126227 98 18410293648916106348
16992610 120 18272094916104010510
16992752 21 18129091411488506295
16993427 108 7997698575748853262
18393751 57 17531240673988979954
18603816 31 13551483596448888097
19302320 297 18040431132211005868
20105231 36 11455882590912884429
20691028 202 18191021404281379404
21033648 29 17774139293433612370
21307412 95 13830133936018921788
21344244 78 14996283596569551926
22224240 67 18187363199634930579
23576562 1 16342557613628180961
24771293 8 18114741637546051950
32027 91 10881985877569660799
34797466 226 17274821307710935319
3633792 109 13254789158111642722
3986486 107 16343714227136379304
4098825 35 15625944175958954991
4112364 45 17676494986070072716
4173938 188 17894919555692972995
4258327 124 18341897423902778762
4403749 210 18113901593836502795
474113 269 9439413415056419272
54076057 255 18343015610723916408
5758199 1 18059570261915891947
57676310 78 9511186201402369569
5776283 40 18272367624599432736
5911458 16 18411140247253313988
59682541 35 17240485805568767880
6201320 82 18118981428442724860
6703917 75 18060144241007751895

>  <PUBCHEM_SHAPE_MULTIPOLES>  (1) 
650.67
28.29
3.79
1.58
6.03
2.23
0.19
34.13
0.12
7.56
-0.78
0.28
-0.28
-3.03

>  <PUBCHEM_SHAPE_SELFOVERLAP>  (1) 
1372.65

>  <PUBCHEM_SHAPE_VOLUME>  (1) 
365.2

>  <PUBCHEM_COORDINATE_TYPE>  (1) 
2
5
10

$$$$
