24881
     RDKit          3D

 32 36  0  0  0  0  0  0  0  0999 V2000
    2.6846    1.3516    1.2787 O   0  0  0  0  0  0  0  0  0  0  0  0
   -6.8236    3.6476   -0.3883 O   0  0  0  0  0  0  0  0  0  0  0  0
    6.0793    0.4819    0.1200 N   0  0  0  0  0  0  0  0  0  0  0  0
    6.3004    1.5851   -0.8255 C   0  0  0  0  0  0  0  0  0  0  0  0
    7.3138    0.1470    0.8437 C   0  0  0  0  0  0  0  0  0  0  0  0
    7.3816    1.2282   -1.8467 C   0  0  0  0  0  0  0  0  0  0  0  0
    8.4280   -0.2571   -0.1231 C   0  0  0  0  0  0  0  0  0  0  0  0
    8.6834    0.8304   -1.1603 C   0  0  0  0  0  0  0  0  0  0  0  0
    5.0108    0.8201    1.0599 C   0  0  0  0  0  0  0  0  0  0  0  0
    3.6991    1.0420    0.3241 C   0  0  0  0  0  0  0  0  0  0  0  0
   -4.2720   -1.8741   -0.6431 C   0  0  0  0  0  0  0  0  0  0  0  0
   -5.3581   -1.0128   -0.0033 C   0  0  0  0  0  0  0  0  0  0  0  0
   -2.8809   -1.4136   -0.2668 C   0  0  0  0  0  0  0  0  0  0  0  0
   -2.5884   -0.1095   -0.0234 C   0  0  0  0  0  0  0  0  0  0  0  0
   -5.0431    0.4512   -0.1436 C   0  0  0  0  0  0  0  0  0  0  0  0
   -3.7016    0.8828   -0.1394 C   0  0  0  0  0  0  0  0  0  0  0  0
   -1.1965    0.2765    0.3210 C   0  0  0  0  0  0  0  0  0  0  0  0
   -1.8863   -2.5058   -0.2007 C   0  0  0  0  0  0  0  0  0  0  0  0
   -6.0862    1.3856   -0.2170 C   0  0  0  0  0  0  0  0  0  0  0  0
   -3.4412    2.2602   -0.2327 C   0  0  0  0  0  0  0  0  0  0  0  0
    1.4088    0.9983    0.9634 C   0  0  0  0  0  0  0  0  0  0  0  0
   -0.8026    0.3115    1.6528 C   0  0  0  0  0  0  0  0  0  0  0  0
   -0.3034    0.5982   -0.6936 C   0  0  0  0  0  0  0  0  0  0  0  0
   -5.8070    2.7465   -0.3106 C   0  0  0  0  0  0  0  0  0  0  0  0
   -4.4862    3.1828   -0.3207 C   0  0  0  0  0  0  0  0  0  0  0  0
    0.5051    0.6740    1.9753 C   0  0  0  0  0  0  0  0  0  0  0  0
    1.0045    0.9605   -0.3711 C   0  0  0  0  0  0  0  0  0  0  0  0
   -1.6762   -3.1778    1.0001 C   0  0  0  0  0  0  0  0  0  0  0  0
   -1.1663   -2.8556   -1.3395 C   0  0  0  0  0  0  0  0  0  0  0  0
   -0.7379   -4.2080    1.0628 C   0  0  0  0  0  0  0  0  0  0  0  0
   -0.2281   -3.8858   -1.2767 C   0  0  0  0  0  0  0  0  0  0  0  0
   -0.0139   -4.5620   -0.0756 C   0  0  0  0  0  0  0  0  0  0  0  0
  1 10  1  0
  1 21  1  0
  2 24  1  0
  3  4  1  0
  3  5  1  0
  3  9  1  0
  4  6  1  0
  5  7  1  0
  6  8  1  0
  7  8  1  0
  9 10  1  0
 11 12  1  0
 11 13  1  0
 12 15  1  0
 13 14  2  0
 13 18  1  0
 14 16  1  0
 14 17  1  0
 15 16  2  0
 15 19  1  0
 16 20  1  0
 17 22  2  0
 17 23  1  0
 18 28  2  0
 18 29  1  0
 19 24  2  0
 20 25  2  0
 21 26  2  0
 21 27  1  0
 22 26  1  0
 23 27  2  0
 24 25  1  0
 28 30  1  0
 29 31  2  0
 30 32  2  0
 31 32  1  0
M  END
>  <PUBCHEM_COMPOUND_CID>  (1) 
24881

>  <PUBCHEM_CONFORMER_RMSD>  (1) 
1

>  <PUBCHEM_CONFORMER_DIVERSEORDER>  (1) 
1
10
13
3
14
5
9
7
12
6
8
2
11
4

>  <PUBCHEM_MMFF94_PARTIAL_CHARGES>  (1) 
42
1 -0.36
10 0.28
11 0.14
12 0.14
13 -0.17
14 -0.06
15 -0.14
16 0.03
17 0.03
18 0.03
19 -0.15
2 -0.53
20 -0.15
21 0.08
22 -0.15
23 -0.15
24 0.08
25 -0.15
26 -0.15
27 -0.15
28 -0.15
29 -0.15
3 -0.81
30 -0.15
31 -0.15
32 -0.15
4 0.27
5 0.27
51 0.15
52 0.15
53 0.15
54 0.15
55 0.15
56 0.15
57 0.15
58 0.15
59 0.15
60 0.15
61 0.15
62 0.15
63 0.45
9 0.27

>  <PUBCHEM_EFFECTIVE_ROTOR_COUNT>  (1) 
7.6

>  <PUBCHEM_PHARMACOPHORE_FEATURES>  (1) 
8
1 1 acceptor
1 2 donor
1 3 cation
6 11 12 13 14 15 16 rings
6 15 16 19 20 24 25 rings
6 17 21 22 23 26 27 rings
6 18 28 29 30 31 32 rings
6 3 4 5 6 7 8 rings

>  <PUBCHEM_HEAVY_ATOM_COUNT>  (1) 
32

>  <PUBCHEM_ATOM_DEF_STEREO_COUNT>  (1) 
0

>  <PUBCHEM_ATOM_UDEF_STEREO_COUNT>  (1) 
0

>  <PUBCHEM_BOND_DEF_STEREO_COUNT>  (1) 
0

>  <PUBCHEM_BOND_UDEF_STEREO_COUNT>  (1) 
0

>  <PUBCHEM_ISOTOPIC_ATOM_COUNT>  (1) 
0

>  <PUBCHEM_COMPONENT_COUNT>  (1) 
1

>  <PUBCHEM_CACTVS_TAUTO_COUNT>  (1) 
9

>  <PUBCHEM_CONFORMER_ID>  (1) 
0000613100000001

>  <PUBCHEM_MMFF94_ENERGY>  (1) 
94.0664

>  <PUBCHEM_FEATURE_SELFOVERLAP>  (1) 
40.622

>  <PUBCHEM_SHAPE_FINGERPRINT>  (1) 
10165383 225 18272373041217726857
10369192 42 18334010563084435557
10864689 126 18343864425432241330
10940486 97 18263363758075594412
11007060 377 18340203102106571641
11200772 48 18412546526613621874
11524674 6 17775286097098986174
11578080 2 17752744876638473319
11991303 11 18411135865943015310
12643181 29 18341893026758581498
13757389 114 18336266829283910613
13761468 95 17968927600699785629
13782708 43 17559106799065892806
14840074 17 17313376860065888182
15160629 178 17824246125945221202
15183329 4 18410012126790233848
15230672 131 18410007711796079002
15297060 5 18341614785449653201
15361156 5 18124878117094732630
15419008 91 17988343945977072560
15439362 3 18120653535812553705
15444296 121 18187651352868730276
15927050 60 18341886386064610399
18603816 31 17774711057102673222
20771845 165 18119532033520076365
21133410 127 17683523936132214669
21133665 82 18412545401886734318
21315764 119 18411425003832432764
21772528 278 16660649579071300970
21781055 127 18129123193850668777
23516275 137 18117292363163599194
23559900 14 17986104335005733912
24771750 20 18196650697008400623
249057 3 18410572924806790612
3298306 158 18201149984293244839
3383291 50 17131553929184258438
3411729 13 18193268603762772955
4015057 19 16558461014992162464
4017518 198 18272370863099751878
4058900 60 18339085869470073378
4107672 100 18409731789488856420
44062 13 18269274741561340290
5085150 59 18202842154569599134
5265222 85 18340206418248461456
559249 180 18412542137188732682
58902169 19 17967818276073544612
59521270 166 18335420141586502140
6371380 46 18271799134100996400
70634741 139 18198630024450093136
9896288 288 18335142012273472147

>  <PUBCHEM_SHAPE_MULTIPOLES>  (1) 
641.83
20.39
4.8
1.36
46.52
5.43
-0.18
-17.01
6.07
-7.47
0.61
1.47
0.16
-0.05

>  <PUBCHEM_SHAPE_SELFOVERLAP>  (1) 
1399.105

>  <PUBCHEM_SHAPE_VOLUME>  (1) 
348.1

>  <PUBCHEM_COORDINATE_TYPE>  (1) 
2
5
10

$$$$
