24891
     RDKit          3D

 36 38  0  0  0  0  0  0  0  0999 V2000
    3.4718    0.0299    0.4166 O   0  0  0  0  0  0  0  0  0  0  0  0
   -3.4767   -0.0277    0.4376 O   0  0  0  0  0  0  0  0  0  0  0  0
    2.4281   -0.0036    2.4632 O   0  0  0  0  0  0  0  0  0  0  0  0
   -2.4168    0.0129    2.4756 O   0  0  0  0  0  0  0  0  0  0  0  0
    8.2527    0.0280   -0.3943 N   0  0  0  0  0  0  0  0  0  0  0  0
   -8.2779   -0.0405   -0.3910 N   0  0  0  0  0  0  0  0  0  0  0  0
   -0.0143    1.0691    0.7632 C   0  0  0  0  0  0  0  0  0  0  0  0
    0.0159   -1.0579    0.7699 C   0  0  0  0  0  0  0  0  0  0  0  0
    1.0625    0.0195    0.4171 C   0  0  0  0  0  0  0  0  0  0  0  0
   -1.0646   -0.0106    0.4295 C   0  0  0  0  0  0  0  0  0  0  0  0
   -0.0535    2.3896   -0.0254 C   0  0  0  0  0  0  0  0  0  0  0  0
    0.0537   -2.3845   -0.0223 C   0  0  0  0  0  0  0  0  0  0  0  0
    2.3736    0.0141    1.2336 C   0  0  0  0  0  0  0  0  0  0  0  0
   -2.3663   -0.0071    1.2459 C   0  0  0  0  0  0  0  0  0  0  0  0
   -1.2667    2.8742   -0.5144 C   0  0  0  0  0  0  0  0  0  0  0  0
   -1.1252   -2.9224   -0.5387 C   0  0  0  0  0  0  0  0  0  0  0  0
    1.1241    3.1023   -0.2513 C   0  0  0  0  0  0  0  0  0  0  0  0
    1.2668   -3.0438   -0.2211 C   0  0  0  0  0  0  0  0  0  0  0  0
   -1.3022    4.0716   -1.2291 C   0  0  0  0  0  0  0  0  0  0  0  0
   -1.0909   -4.1194   -1.2540 C   0  0  0  0  0  0  0  0  0  0  0  0
    1.0884    4.2997   -0.9660 C   0  0  0  0  0  0  0  0  0  0  0  0
    1.3011   -4.2407   -0.9366 C   0  0  0  0  0  0  0  0  0  0  0  0
    4.7421    0.0249    1.0774 C   0  0  0  0  0  0  0  0  0  0  0  0
   -4.7351   -0.0250    1.0974 C   0  0  0  0  0  0  0  0  0  0  0  0
   -0.1246    4.7842   -1.4549 C   0  0  0  0  0  0  0  0  0  0  0  0
    0.1224   -4.7786   -1.4528 C   0  0  0  0  0  0  0  0  0  0  0  0
    5.8435    0.0442    0.0275 C   0  0  0  0  0  0  0  0  0  0  0  0
   -5.8399   -0.0495    0.0510 C   0  0  0  0  0  0  0  0  0  0  0  0
    7.2203    0.0551    0.6695 C   0  0  0  0  0  0  0  0  0  0  0  0
   -7.2146   -0.0630    0.6976 C   0  0  0  0  0  0  0  0  0  0  0  0
    9.6630    0.0709    0.2113 C   0  0  0  0  0  0  0  0  0  0  0  0
    8.1356   -1.2501   -1.2372 C   0  0  0  0  0  0  0  0  0  0  0  0
    8.1011    1.2331   -1.3335 C   0  0  0  0  0  0  0  0  0  0  0  0
   -8.0988   -1.2476   -1.3004 C   0  0  0  0  0  0  0  0  0  0  0  0
   -9.6585   -0.0867    0.2477 C   0  0  0  0  0  0  0  0  0  0  0  0
   -8.1398    1.2355   -1.2090 C   0  0  0  0  0  0  0  0  0  0  0  0
  1 13  1  0
  1 23  1  0
  2 14  1  0
  2 24  1  0
  3 13  2  0
  4 14  2  0
  5 29  1  0
  5 31  1  0
  5 32  1  0
  5 33  1  0
  6 30  1  0
  6 34  1  0
  6 35  1  0
  6 36  1  0
  7  9  1  0
  7 10  1  0
  7 11  1  0
  8  9  1  0
  8 10  1  0
  8 12  1  0
  9 13  1  0
 10 14  1  0
 11 15  2  0
 11 17  1  0
 12 16  2  0
 12 18  1  0
 15 19  1  0
 16 20  1  0
 17 21  2  0
 18 22  2  0
 19 25  2  0
 20 26  2  0
 21 25  1  0
 22 26  1  0
 23 27  1  0
 24 28  1  0
 27 29  1  0
 28 30  1  0
M  CHG  2   5   1   6   1
M  END
>  <PUBCHEM_COMPOUND_CID>  (1) 
24891

>  <PUBCHEM_CONFORMER_RMSD>  (1) 
1.4

>  <PUBCHEM_CONFORMER_DIVERSEORDER>  (1) 
1
15
10
23
22
5
19
9
13
21
11
12
4
20
17
14
8
18
6
16
3
2
7

>  <PUBCHEM_MMFF94_PARTIAL_CHARGES>  (1) 
44
1 -0.43
10 0.05
11 -0.11
12 -0.11
13 0.67
14 0.67
15 -0.15
16 -0.15
17 -0.15
18 -0.15
19 -0.15
2 -0.43
20 -0.15
21 -0.15
22 -0.15
23 0.28
24 0.28
25 -0.15
26 -0.15
29 0.5
3 -0.57
30 0.5
31 0.5
32 0.5
33 0.5
34 0.5
35 0.5
36 0.5
4 -0.57
41 0.15
42 0.15
43 0.15
44 0.15
49 0.15
5 -1.01
50 0.15
51 0.15
52 0.15
53 0.15
54 0.15
6 -1.01
7 0.11
8 0.11
9 0.05

>  <PUBCHEM_EFFECTIVE_ROTOR_COUNT>  (1) 
14.8

>  <PUBCHEM_PHARMACOPHORE_FEATURES>  (1) 
7
1 3 acceptor
1 4 acceptor
1 5 cation
1 6 cation
4 7 8 9 10 rings
6 11 15 17 19 21 25 rings
6 12 16 18 20 22 26 rings

>  <PUBCHEM_HEAVY_ATOM_COUNT>  (1) 
36

>  <PUBCHEM_ATOM_DEF_STEREO_COUNT>  (1) 
0

>  <PUBCHEM_ATOM_UDEF_STEREO_COUNT>  (1) 
0

>  <PUBCHEM_BOND_DEF_STEREO_COUNT>  (1) 
0

>  <PUBCHEM_BOND_UDEF_STEREO_COUNT>  (1) 
0

>  <PUBCHEM_ISOTOPIC_ATOM_COUNT>  (1) 
0

>  <PUBCHEM_COMPONENT_COUNT>  (1) 
1

>  <PUBCHEM_CACTVS_TAUTO_COUNT>  (1) 
1

>  <PUBCHEM_CONFORMER_ID>  (1) 
0000613B00000001

>  <PUBCHEM_MMFF94_ENERGY>  (1) 
101.5139

>  <PUBCHEM_FEATURE_SELFOVERLAP>  (1) 
35.522

>  <PUBCHEM_SHAPE_FINGERPRINT>  (1) 
10076449 9 18187082849512357457
10165383 225 18202003218375264362
102385 1 17762055436978318136
12202916 173 18259983760616076659
13617811 41 18335431149371332740
14117953 113 18411420617731742445
1454969 45 18410573976656494825
15198563 99 18115314367219894204
15406563 228 18195518410927794055
15420108 30 17977652440436078953
15775530 1 17762056536489913592
15849732 13 18410856589709835483
16087824 20 18334573513159227645
16628084 112 18338790097191786742
17899979 19 18409452479202133989
18365409 1 17916576695896428415
18681886 176 18339918316195430937
23576562 1 18116995696607304821
24771293 8 18342464703457729601
249057 3 18411418457347335632
25019877 29 17917439713433542710
4017518 198 17988929985310582726
57035037 87 15719393923306957447
57527306 92 17821446872319130656

>  <PUBCHEM_SHAPE_MULTIPOLES>  (1) 
707.42
24.51
5.58
1.57
0.04
0.05
-0.36
-0.13
4.1
-0.17
4.53
0.05
0
0.08

>  <PUBCHEM_SHAPE_SELFOVERLAP>  (1) 
1445.22

>  <PUBCHEM_SHAPE_VOLUME>  (1) 
413.2

>  <PUBCHEM_COORDINATE_TYPE>  (1) 
2
5
10

$$$$
