249
     RDKit          3D

  7  6  0  0  0  0  0  0  0  0999 V2000
    2.6112    0.2983   -0.0001 O   0  0  0  0  0  0  0  0  0  0  0  0
   -0.8454    0.0241    0.0000 N   0  0  0  0  0  0  0  0  0  0  0  0
    0.4000   -0.1898    0.8481 C   0  0  0  0  0  0  0  0  0  0  0  0
   -1.0885   -1.2052   -0.8637 C   0  0  0  0  0  0  0  0  0  0  0  0
   -2.0450    0.2509    0.9087 C   0  0  0  0  0  0  0  0  0  0  0  0
   -0.6485    1.2405   -0.8931 C   0  0  0  0  0  0  0  0  0  0  0  0
    1.6162   -0.4189    0.0000 C   0  0  0  0  0  0  0  0  0  0  0  0
  1  7  2  0
  2  3  1  0
  2  4  1  0
  2  5  1  0
  2  6  1  0
  3  7  1  0
M  CHG  1   2   1
M  END
>  <PUBCHEM_COMPOUND_CID>  (1) 
249

>  <PUBCHEM_CONFORMER_RMSD>  (1) 
0.4

>  <PUBCHEM_CONFORMER_DIVERSEORDER>  (1) 
1
3
2

>  <PUBCHEM_MMFF94_PARTIAL_CHARGES>  (1) 
8
1 -0.57
19 0.06
2 -1.01
3 0.56
4 0.5
5 0.5
6 0.5
7 0.45

>  <PUBCHEM_EFFECTIVE_ROTOR_COUNT>  (1) 
2

>  <PUBCHEM_PHARMACOPHORE_FEATURES>  (1) 
2
1 1 acceptor
1 2 cation

>  <PUBCHEM_HEAVY_ATOM_COUNT>  (1) 
7

>  <PUBCHEM_ATOM_DEF_STEREO_COUNT>  (1) 
0

>  <PUBCHEM_ATOM_UDEF_STEREO_COUNT>  (1) 
0

>  <PUBCHEM_BOND_DEF_STEREO_COUNT>  (1) 
0

>  <PUBCHEM_BOND_UDEF_STEREO_COUNT>  (1) 
0

>  <PUBCHEM_ISOTOPIC_ATOM_COUNT>  (1) 
0

>  <PUBCHEM_COMPONENT_COUNT>  (1) 
1

>  <PUBCHEM_CACTVS_TAUTO_COUNT>  (1) 
2

>  <PUBCHEM_CONFORMER_ID>  (1) 
000000F900000001

>  <PUBCHEM_MMFF94_ENERGY>  (1) 
20.5377

>  <PUBCHEM_FEATURE_SELFOVERLAP>  (1) 
10.148

>  <PUBCHEM_SHAPE_FINGERPRINT>  (1) 
16714656 1 18411982451009471191
20096714 4 17461709602493325244
21040471 1 17417532401973194259
24536 1 17130963478217104210
29004967 10 17676497154406038169
5943 1 14421275221331048973

>  <PUBCHEM_SHAPE_MULTIPOLES>  (1) 
133.21
2.74
1.1
1.07
1.44
0
0
0.14
0.4
-0.33
-0.4
-0.41
0.02
-0.13

>  <PUBCHEM_SHAPE_SELFOVERLAP>  (1) 
234.767

>  <PUBCHEM_SHAPE_VOLUME>  (1) 
89.8

>  <PUBCHEM_COORDINATE_TYPE>  (1) 
2
5
10

$$$$
