24912
     RDKit          3D

 25 27  0  0  0  0  0  0  0  0999 V2000
    0.0745    0.6790    0.2604 O   0  0  0  0  0  0  0  0  0  0  0  0
    1.0126   -1.0495    1.4466 O   0  0  0  0  0  0  0  0  0  0  0  0
    2.3113    0.5731    0.4157 N   0  0  0  0  0  0  0  0  0  0  0  0
    3.6131    0.0727    0.7981 C   0  0  0  0  0  0  0  0  0  0  0  0
    4.1302   -0.9506   -0.2186 C   0  0  0  0  0  0  0  0  0  0  0  0
    4.6107    1.2205    0.9874 C   0  0  0  0  0  0  0  0  0  0  0  0
    4.5415   -0.3045   -1.5414 C   0  0  0  0  0  0  0  0  0  0  0  0
    5.0211    1.8632   -0.3375 C   0  0  0  0  0  0  0  0  0  0  0  0
    5.5427    0.8268   -1.3282 C   0  0  0  0  0  0  0  0  0  0  0  0
    1.1239   -0.0307    0.7727 C   0  0  0  0  0  0  0  0  0  0  0  0
   -1.2295    0.1646    0.5536 C   0  0  0  0  0  0  0  0  0  0  0  0
   -1.3482   -1.2443   -0.0475 C   0  0  0  0  0  0  0  0  0  0  0  0
   -2.2870    1.0929   -0.0594 C   0  0  0  0  0  0  0  0  0  0  0  0
   -2.0994   -2.1782    0.6223 C   0  0  0  0  0  0  0  0  0  0  0  0
   -3.6115    0.8369    0.2005 C   0  0  0  0  0  0  0  0  0  0  0  0
   -0.6984   -1.5072   -1.2281 C   0  0  0  0  0  0  0  0  0  0  0  0
   -1.8640    2.1402   -0.8413 C   0  0  0  0  0  0  0  0  0  0  0  0
   -1.3164    0.1785    2.0366 C   0  0  0  0  0  0  0  0  0  0  0  0
   -2.2076   -3.4574    0.0766 C   0  0  0  0  0  0  0  0  0  0  0  0
   -4.5726    1.6806   -0.3563 C   0  0  0  0  0  0  0  0  0  0  0  0
   -0.8068   -2.7864   -1.7738 C   0  0  0  0  0  0  0  0  0  0  0  0
   -2.8253    2.9839   -1.3980 C   0  0  0  0  0  0  0  0  0  0  0  0
   -1.5614   -3.7614   -1.1214 C   0  0  0  0  0  0  0  0  0  0  0  0
   -4.1797    2.7539   -1.1554 C   0  0  0  0  0  0  0  0  0  0  0  0
   -1.3736    0.2035    3.2363 C   0  0  0  0  0  0  0  0  0  0  0  0
  1 10  1  0
  1 11  1  0
  2 10  2  0
  3  4  1  0
  3 10  1  0
  4  5  1  0
  4  6  1  0
  5  7  1  0
  6  8  1  0
  7  9  1  0
  8  9  1  0
 11 12  1  0
 11 13  1  0
 11 18  1  0
 12 14  2  0
 12 16  1  0
 13 15  2  0
 13 17  1  0
 14 19  1  0
 15 20  1  0
 16 21  2  0
 17 22  2  0
 18 25  3  0
 19 23  2  0
 20 24  2  0
 21 23  1  0
 22 24  1  0
M  END
>  <PUBCHEM_COMPOUND_CID>  (1) 
24912

>  <PUBCHEM_CONFORMER_RMSD>  (1) 
0.8

>  <PUBCHEM_CONFORMER_DIVERSEORDER>  (1) 
1
15
26
24
23
21
10
22
36
33
42
30
45
25
16
40
29
13
18
31
44
20
11
4
43
39
46
17
6
8
28
3
38
35
5
7
32
34
14
19
37
27
12
9
2
41

>  <PUBCHEM_MMFF94_PARTIAL_CHARGES>  (1) 
32
1 -0.43
10 0.78
11 0.77
12 -0.14
13 -0.14
14 -0.15
15 -0.15
16 -0.15
17 -0.15
18 -0.2
19 -0.15
2 -0.57
20 -0.15
21 -0.15
22 -0.15
23 -0.15
24 -0.15
25 -0.18
3 -0.73
37 0.37
38 0.15
39 0.15
4 0.3
40 0.15
41 0.15
42 0.15
43 0.15
44 0.15
45 0.15
46 0.15
47 0.15
48 0.18

>  <PUBCHEM_EFFECTIVE_ROTOR_COUNT>  (1) 
7.2

>  <PUBCHEM_PHARMACOPHORE_FEATURES>  (1) 
6
1 2 acceptor
1 25 hydrophobe
1 3 donor
6 12 14 16 19 21 23 rings
6 13 15 17 20 22 24 rings
6 4 5 6 7 8 9 rings

>  <PUBCHEM_HEAVY_ATOM_COUNT>  (1) 
25

>  <PUBCHEM_ATOM_DEF_STEREO_COUNT>  (1) 
0

>  <PUBCHEM_ATOM_UDEF_STEREO_COUNT>  (1) 
0

>  <PUBCHEM_BOND_DEF_STEREO_COUNT>  (1) 
0

>  <PUBCHEM_BOND_UDEF_STEREO_COUNT>  (1) 
0

>  <PUBCHEM_ISOTOPIC_ATOM_COUNT>  (1) 
0

>  <PUBCHEM_COMPONENT_COUNT>  (1) 
1

>  <PUBCHEM_CACTVS_TAUTO_COUNT>  (1) 
2

>  <PUBCHEM_CONFORMER_ID>  (1) 
0000615000000001

>  <PUBCHEM_MMFF94_ENERGY>  (1) 
61.7757

>  <PUBCHEM_FEATURE_SELFOVERLAP>  (1) 
30.447

>  <PUBCHEM_SHAPE_FINGERPRINT>  (1) 
105312 117 18411699854993711613
107951 10 18334582321340891478
11101153 10 17756983785742276460
11135926 11 17773060613319992078
11578080 2 17909851842463085921
12173636 292 17313109657033010538
12592029 89 18194398892546151323
12714826 92 18057882639756846498
12788726 201 18189601903782009859
12969540 114 18338506444196593645
13149001 5 17559085844237090545
13257819 37 18410572864703220159
133893 2 17552087199217918875
13583140 156 18187379718094339090
14468879 13 18188217506793667658
14713325 29 18408323311268485675
15163728 17 18122070801605227125
15463212 79 18261662749073062594
15475509 35 10948052331743972501
15775530 1 17268875337874847913
17492 54 18189314858781004781
17980427 23 17168435870238530461
17980427 26 16879895362534395139
1813 80 17907584979297052086
19958102 18 18343295976770993471
20101258 96 17972891529085220945
20602899 9 18059572438852115115
21033648 29 18341601586529972768
21756936 100 17603872221617722744
21864079 5 17750244745846910364
22393880 68 18341900719002726438
22620623 9 18200021979541100143
22907989 373 18271526506355670756
23227448 37 18335699481168225892
23419403 2 17629232380082320343
23559900 14 18060419115146716690
25265897 201 18194713456119566836
255183 451 17475513258464901583
268830 7 16805316730627183052
2838139 119 18042954390061501333
298252 57 18263067839197362993
3298306 158 18198056989143346998
340366 18 18337107844495591990
3729539 64 17911811171587748902
376196 1 17680979704736931101
4015057 19 16845563245301340904
44062 13 18412546539783431814
44249763 50 18339917242823514684
44802255 64 18337119990473194998
469060 322 18118698848318904602
497634 4 17771930447777452680
531348 171 18408045109362621318
59755656 520 17845672373237823379
81228 2 17765112397869807763

>  <PUBCHEM_SHAPE_MULTIPOLES>  (1) 
497.77
9.78
3.76
1.99
14.51
2.54
-1.2
-7.01
3.1
-4.77
2.16
-0.38
0.02
0.87

>  <PUBCHEM_SHAPE_SELFOVERLAP>  (1) 
1069.948

>  <PUBCHEM_SHAPE_VOLUME>  (1) 
271

>  <PUBCHEM_COORDINATE_TYPE>  (1) 
2
5
10

$$$$
