24915
     RDKit          3D

 16 16  0  0  0  0  0  0  0  0999 V2000
   -1.5864   -1.1088   -0.0919 O   0  0  0  0  0  0  0  0  0  0  0  0
   -1.9302    1.1516   -0.4000 O   0  0  0  0  0  0  0  0  0  0  0  0
   -0.2069   -0.9475   -0.4377 C   0  0  0  0  0  0  0  0  0  0  0  0
    0.4559   -0.0059    0.5920 C   0  0  0  0  0  0  0  0  0  0  0  0
    0.4513   -2.3303   -0.3526 C   0  0  0  0  0  0  0  0  0  0  0  0
   -0.1192   -0.4215   -1.8729 C   0  0  0  0  0  0  0  0  0  0  0  0
    1.9411    0.2095    0.4091 C   0  0  0  0  0  0  0  0  0  0  0  0
   -2.3357    0.0334   -0.1148 C   0  0  0  0  0  0  0  0  0  0  0  0
   -3.7570   -0.3065    0.2724 C   0  0  0  0  0  0  0  0  0  0  0  0
    2.8320   -0.6381    1.0461 C   0  0  0  0  0  0  0  0  0  0  0  0
    2.3809    1.2505   -0.3913 C   0  0  0  0  0  0  0  0  0  0  0  0
   -4.6541    0.9284    0.2949 C   0  0  0  0  0  0  0  0  0  0  0  0
    4.2023   -0.4391    0.8778 C   0  0  0  0  0  0  0  0  0  0  0  0
    3.7512    1.4496   -0.5597 C   0  0  0  0  0  0  0  0  0  0  0  0
    4.6619    0.6047    0.0749 C   0  0  0  0  0  0  0  0  0  0  0  0
   -6.0871    0.5700    0.6536 C   0  0  0  0  0  0  0  0  0  0  0  0
  1  3  1  0
  1  8  1  0
  2  8  2  0
  3  4  1  0
  3  5  1  0
  3  6  1  0
  4  7  1  0
  7 10  2  0
  7 11  1  0
  8  9  1  0
  9 12  1  0
 10 13  1  0
 11 14  2  0
 12 16  1  0
 13 15  2  0
 14 15  1  0
M  END
>  <PUBCHEM_COMPOUND_CID>  (1) 
24915

>  <PUBCHEM_CONFORMER_RMSD>  (1) 
0.8

>  <PUBCHEM_CONFORMER_DIVERSEORDER>  (1) 
2
33
34
41
43
37
19
21
12
22
8
23
24
15
28
26
16
1
5
20
29
36
17
9
30
40
25
7
31
3
11
42
35
6
27
14
18
38
39
10
4
13
32

>  <PUBCHEM_MMFF94_PARTIAL_CHARGES>  (1) 
17
1 -0.43
10 -0.15
11 -0.15
13 -0.15
14 -0.15
15 -0.15
2 -0.57
27 0.15
28 0.15
3 0.28
31 0.15
32 0.15
36 0.15
4 0.14
7 -0.14
8 0.66
9 0.06

>  <PUBCHEM_EFFECTIVE_ROTOR_COUNT>  (1) 
6

>  <PUBCHEM_PHARMACOPHORE_FEATURES>  (1) 
4
1 16 hydrophobe
1 2 acceptor
3 3 5 6 hydrophobe
6 7 10 11 13 14 15 rings

>  <PUBCHEM_HEAVY_ATOM_COUNT>  (1) 
16

>  <PUBCHEM_ATOM_DEF_STEREO_COUNT>  (1) 
0

>  <PUBCHEM_ATOM_UDEF_STEREO_COUNT>  (1) 
0

>  <PUBCHEM_BOND_DEF_STEREO_COUNT>  (1) 
0

>  <PUBCHEM_BOND_UDEF_STEREO_COUNT>  (1) 
0

>  <PUBCHEM_ISOTOPIC_ATOM_COUNT>  (1) 
0

>  <PUBCHEM_COMPONENT_COUNT>  (1) 
1

>  <PUBCHEM_CACTVS_TAUTO_COUNT>  (1) 
1

>  <PUBCHEM_CONFORMER_ID>  (1) 
0000615300000002

>  <PUBCHEM_MMFF94_ENERGY>  (1) 
38.1307

>  <PUBCHEM_FEATURE_SELFOVERLAP>  (1) 
20.297

>  <PUBCHEM_SHAPE_FINGERPRINT>  (1) 
100836 57 18273219694512802385
10354089 29 18186523211015313472
10922049 32 18413393145903049662
11045977 3 17458070395368214593
12236239 1 18411135861943381840
12251169 10 17967812755864013022
12507560 40 17385998443054051909
12592029 89 18337110077409152554
12815109 37 7853572405162221753
12916748 109 15985107414135116771
14252887 29 15430034331507309320
14341114 176 17821732714866222289
14943859 89 17988924500251489018
15342168 16 16806740679625950084
15775835 57 18409729599150428888
17834072 8 17917721184310198054
17844478 74 16443332175045306356
18186145 218 15195570116919444763
18222031 100 12685094778225493219
187816 3 13110965339904490511
19784866 170 18408890620565817403
19784866 9 18342174427781754187
20279233 1 15267065891281749452
20374829 77 8070024455061460849
20671657 53 8286198361919008615
20711983 171 18341047514362823790
21033648 29 17096068278103615709
21267235 1 18114464466506165178
212847 35 18344144795594911872
21524375 3 18202563977547087655
22854114 59 16443059508714314064
231179 274 17988645168684985645
23402539 116 17774996907981001789
23559900 14 18270971145810584046
2871803 45 11167947961085811244
2916195 48 17346023576027983048
3060560 45 15841547453455872485
347723 3 16630529509667571282
351380 3 11314030184285912433
42 15 17749106686159217136
42630746 31 18272934877724741239
449060 50 17385723625139395804
449060 62 18202286870868459147
465052 167 17967537856492912315
4990 188 15339117948674381149
5104073 3 18116143545073264216
633830 44 18272651268059263223
81539 233 18201439138497388335
8272917 22 18339082592473745434
9999458 23 18260270728882325574

>  <PUBCHEM_SHAPE_MULTIPOLES>  (1) 
317.53
10.59
1.53
1.08
10.19
0.5
-0.29
-4.35
3.04
-0.45
-0.24
-0.31
0.12
-0.64

>  <PUBCHEM_SHAPE_SELFOVERLAP>  (1) 
642

>  <PUBCHEM_SHAPE_VOLUME>  (1) 
185.4

>  <PUBCHEM_COORDINATE_TYPE>  (1) 
2
5
10

$$$$
