24954
     RDKit          3D

 14 15  0  0  0  0  0  0  0  0999 V2000
    2.9535   -1.8587    0.3727 O   0  0  0  0  0  0  0  0  0  0  0  0
    3.2272    0.2116   -0.3043 O   0  0  0  0  0  0  0  0  0  0  0  0
    0.4513    0.6296    0.2511 N   0  0  0  0  0  0  0  0  0  0  0  0
    0.2231   -1.5317   -0.2143 N   0  0  0  0  0  0  0  0  0  0  0  0
    2.4672   -0.7426    0.0298 N   0  0  0  0  0  0  0  0  0  0  0  0
   -0.9000    0.4156    0.1598 C   0  0  0  0  0  0  0  0  0  0  0  0
    1.0909    1.8937    0.5409 C   0  0  0  0  0  0  0  0  0  0  0  0
   -1.0168   -0.9407   -0.1314 C   0  0  0  0  0  0  0  0  0  0  0  0
    1.0793   -0.5625    0.0196 C   0  0  0  0  0  0  0  0  0  0  0  0
   -1.9968    1.2661    0.3027 C   0  0  0  0  0  0  0  0  0  0  0  0
    1.3917    2.6880   -0.7184 C   0  0  0  0  0  0  0  0  0  0  0  0
   -2.2961   -1.4988   -0.2929 C   0  0  0  0  0  0  0  0  0  0  0  0
   -3.2626    0.6940    0.1385 C   0  0  0  0  0  0  0  0  0  0  0  0
   -3.4119   -0.6638   -0.1539 C   0  0  0  0  0  0  0  0  0  0  0  0
  1  5  1  0
  2  5  2  0
  3  6  1  0
  3  7  1  0
  3  9  1  0
  4  8  1  0
  4  9  2  0
  5  9  1  0
  6  8  2  0
  6 10  1  0
  7 11  1  0
  8 12  1  0
 10 13  2  0
 12 14  2  0
 13 14  1  0
M  CHG  2   1  -1   5   1
M  END
>  <PUBCHEM_COMPOUND_CID>  (1) 
24954

>  <PUBCHEM_CONFORMER_RMSD>  (1) 
0.6

>  <PUBCHEM_CONFORMER_DIVERSEORDER>  (1) 
1
3
2
4

>  <PUBCHEM_MMFF94_PARTIAL_CHARGES>  (1) 
17
1 -0.52
10 -0.15
12 -0.15
13 -0.15
14 -0.15
17 0.15
2 -0.52
21 0.15
22 0.15
23 0.15
3 0.05
4 -0.57
5 0.96
6 -0.15
7 0.26
8 0.23
9 0.27

>  <PUBCHEM_EFFECTIVE_ROTOR_COUNT>  (1) 
2

>  <PUBCHEM_PHARMACOPHORE_FEATURES>  (1) 
5
1 1 acceptor
1 2 acceptor
4 3 4 5 9 cation
5 3 4 6 8 9 rings
6 6 8 10 12 13 14 rings

>  <PUBCHEM_HEAVY_ATOM_COUNT>  (1) 
14

>  <PUBCHEM_ATOM_DEF_STEREO_COUNT>  (1) 
0

>  <PUBCHEM_ATOM_UDEF_STEREO_COUNT>  (1) 
0

>  <PUBCHEM_BOND_DEF_STEREO_COUNT>  (1) 
0

>  <PUBCHEM_BOND_UDEF_STEREO_COUNT>  (1) 
0

>  <PUBCHEM_ISOTOPIC_ATOM_COUNT>  (1) 
0

>  <PUBCHEM_COMPONENT_COUNT>  (1) 
1

>  <PUBCHEM_CACTVS_TAUTO_COUNT>  (1) 
1

>  <PUBCHEM_CONFORMER_ID>  (1) 
0000617A00000001

>  <PUBCHEM_MMFF94_ENERGY>  (1) 
28.8792

>  <PUBCHEM_FEATURE_SELFOVERLAP>  (1) 
25.561

>  <PUBCHEM_SHAPE_FINGERPRINT>  (1) 
10130415 120 18262513698042666874
10465860 71 18200335263404080580
10967382 1 18339642342707698939
11132069 177 18269548356204418026
12032990 46 18269280075219852750
12932764 1 17241031180943268787
13380535 21 18121791787633629761
13380535 76 18048591813799299632
14128692 85 18272089426260131753
14144814 61 18412825772212304859
14325111 11 18412544284318952739
14648413 74 18335703904884015049
14993402 34 18411984628542085622
15442244 35 18339924814011372816
15536298 74 18200877391424901392
16945 1 18412829062405101803
193761 8 18051130590242419427
19973954 147 18339079401571117537
20511035 2 18201151169408436207
20559304 39 18411420647838704632
207724 885 18337955593128666953
21501502 16 18341334504293709677
2334 1 18196933498971152153
23402539 116 18127395761924190231
23463225 33 18338797788992215402
23552423 10 18265612263506444543
23559900 14 18200309897902535038
2748010 2 17693102864178169029
3071541 158 18407757032103441508
5084963 1 18273213123133542865
57177213 63 17975980082959632877
63268167 104 18409450271493881569
7364860 26 18199466739243963520
81228 2 17979647731827585784
90316 7 17974275539594714344

>  <PUBCHEM_SHAPE_MULTIPOLES>  (1) 
261.43
4.98
2.3
0.69
0.68
0.81
0.02
-0.86
0.13
-1.26
0.17
-0.04
0.15
-0.46

>  <PUBCHEM_SHAPE_SELFOVERLAP>  (1) 
564.895

>  <PUBCHEM_SHAPE_VOLUME>  (1) 
145.3

>  <PUBCHEM_COORDINATE_TYPE>  (1) 
2
5
10

$$$$
