24974
     RDKit          3D

 26 30  0  0  1  0  0  0  0  0999 V2000
    1.7028    1.6561    1.7738 O   0  0  0  0  0  0  0  0  0  0  0  0
   -5.1142   -2.0583    0.4876 O   0  0  0  0  0  0  0  0  0  0  0  0
   -6.2309   -0.0317   -0.1817 O   0  0  0  0  0  0  0  0  0  0  0  0
    4.3088    1.3214    0.2226 O   0  0  0  0  0  0  0  0  0  0  0  0
    5.7186   -0.9721   -0.3507 O   0  0  0  0  0  0  0  0  0  0  0  0
    0.0189    1.2587    0.1318 N   0  0  0  0  0  0  0  0  0  0  0  0
   -0.7518    2.5044    0.2081 C   0  0  0  0  0  0  0  0  0  0  0  0
   -0.6071    0.0099    0.0027 C   0  0  0  0  0  0  0  0  0  0  0  0
    1.4621    1.3794    0.3947 C   0  0  0  0  0  0  0  0  0  0  0  0
   -1.9652    2.4326   -0.7125 C   0  0  0  0  0  0  0  0  0  0  0  0
   -2.0992    0.0008   -0.0338 C   0  0  0  0  0  0  0  0  0  0  0  0
   -2.7744    1.2018   -0.3917 C   0  0  0  0  0  0  0  0  0  0  0  0
    2.2321    0.1251    0.0461 C   0  0  0  0  0  0  0  0  0  0  0  0
    1.5615   -1.0867   -0.1907 C   0  0  0  0  0  0  0  0  0  0  0  0
    0.0959   -1.1295   -0.1507 C   0  0  0  0  0  0  0  0  0  0  0  0
   -2.8624   -1.1351    0.2928 C   0  0  0  0  0  0  0  0  0  0  0  0
   -4.1750    1.2471   -0.4766 C   0  0  0  0  0  0  0  0  0  0  0  0
    3.6339    0.1571   -0.0086 C   0  0  0  0  0  0  0  0  0  0  0  0
   -4.2396   -1.0514    0.2136 C   0  0  0  0  0  0  0  0  0  0  0  0
   -4.8771    0.1039   -0.1658 C   0  0  0  0  0  0  0  0  0  0  0  0
    2.2959   -2.2452   -0.4747 C   0  0  0  0  0  0  0  0  0  0  0  0
    4.3576   -0.9998   -0.2961 C   0  0  0  0  0  0  0  0  0  0  0  0
    3.6892   -2.1996   -0.5274 C   0  0  0  0  0  0  0  0  0  0  0  0
   -6.3742   -1.4057    0.2313 C   0  0  0  0  0  0  0  0  0  0  0  0
    4.5728    2.1490   -0.9068 C   0  0  0  0  0  0  0  0  0  0  0  0
    6.4211   -1.2324    0.8628 C   0  0  0  0  0  0  0  0  0  0  0  0
  1  9  1  0
  2 19  1  0
  2 24  1  0
  3 20  1  0
  3 24  1  0
  4 18  1  0
  4 25  1  0
  5 22  1  0
  5 26  1  0
  6  7  1  0
  6  8  1  0
  6  9  1  0
  7 10  1  0
  8 11  1  0
  8 15  2  0
  9 13  1  0
 10 12  1  0
 11 12  2  0
 11 16  1  0
 12 17  1  0
 13 14  2  0
 13 18  1  0
 14 15  1  0
 14 21  1  0
 16 19  2  0
 17 20  2  0
 18 22  2  0
 19 20  1  0
 21 23  2  0
 22 23  1  0
M  END
>  <PUBCHEM_COMPOUND_CID>  (1) 
24974

>  <PUBCHEM_CONFORMER_RMSD>  (1) 
0.6

>  <PUBCHEM_CONFORMER_DIVERSEORDER>  (1) 
2
1

>  <PUBCHEM_MMFF94_PARTIAL_CHARGES>  (1) 
32
1 -0.68
10 0.14
11 0.03
12 -0.14
13 -0.14
14 0.03
15 -0.18
16 -0.15
17 -0.15
18 0.08
19 0.08
2 -0.36
20 0.08
21 -0.15
22 0.08
23 -0.15
24 0.56
25 0.28
26 0.28
3 -0.36
32 0.15
33 0.15
34 0.15
35 0.15
36 0.4
37 0.15
4 -0.36
5 -0.36
6 -0.84
7 0.37
8 0.07
9 0.79

>  <PUBCHEM_EFFECTIVE_ROTOR_COUNT>  (1) 
3.2

>  <PUBCHEM_PHARMACOPHORE_FEATURES>  (1) 
12
1 1 acceptor
1 1 donor
1 2 acceptor
1 3 acceptor
1 4 acceptor
1 5 acceptor
1 6 cation
5 2 3 19 20 24 rings
6 11 12 16 17 19 20 rings
6 13 14 18 21 22 23 rings
6 6 7 8 10 11 12 rings
6 6 8 9 13 14 15 rings

>  <PUBCHEM_HEAVY_ATOM_COUNT>  (1) 
26

>  <PUBCHEM_ATOM_DEF_STEREO_COUNT>  (1) 
0

>  <PUBCHEM_ATOM_UDEF_STEREO_COUNT>  (1) 
1

>  <PUBCHEM_BOND_DEF_STEREO_COUNT>  (1) 
0

>  <PUBCHEM_BOND_UDEF_STEREO_COUNT>  (1) 
0

>  <PUBCHEM_ISOTOPIC_ATOM_COUNT>  (1) 
0

>  <PUBCHEM_COMPONENT_COUNT>  (1) 
1

>  <PUBCHEM_CACTVS_TAUTO_COUNT>  (1) 
1

>  <PUBCHEM_CONFORMER_ID>  (1) 
0000618E00000002

>  <PUBCHEM_MMFF94_ENERGY>  (1) 
98.1482

>  <PUBCHEM_FEATURE_SELFOVERLAP>  (1) 
61.132

>  <PUBCHEM_SHAPE_FINGERPRINT>  (1) 
10 15 18340757214109255866
10835480 77 18408877439222275621
11578080 2 13480570636532351724
11646440 116 17704348862702519602
11719270 70 18341326726303830054
11963148 33 18410004451093683094
12035758 1 17845351346366460434
12166972 35 17676491652885482220
12236239 1 17167864136327778422
12516196 113 18201719548501336483
13140716 1 18055341694418240322
13288520 33 18408886226919703781
13402501 40 18410857668100522315
13685833 64 18408890663726772971
13862211 1 18411416219733028479
14341114 176 18411706499898792803
14787075 74 18335422412806517307
15196674 1 18410576175864554901
15352361 1 18410294709778322775
15537594 2 17988643042517828277
15927050 60 17550669250209376268
15961568 22 17676492795537239620
17492 89 18196091036894666654
17844677 252 18336272275181336789
1813 80 17530684320883467637
18681886 176 18410853249232886850
19141452 34 18202282541810879199
200 152 17917427588366104499
21033650 10 16878502320168003685
21236236 1 18341051814168659201
21267235 1 18341337712724236582
21315763 129 18334011658026451364
21623969 137 18130788949428909670
21792934 111 18341603811623244681
221357 26 18341331115153024111
221490 88 18340488868140550366
22149856 69 18341346560483175129
22182313 1 18268406028074516009
23402539 116 18187362108164195543
23522609 53 18125753229508990601
23559900 14 18337382751818356325
239999 70 18411984646350131006
2871803 45 18335138678529348483
3004659 81 18259703393845974442
314194 84 18060133232858743047
329604 57 18410296899958501108
350125 39 18411138026686104652
4073 2 18187089494259184099
4093350 32 15554168173173422808
4214541 1 18337110064397396461
465052 167 18202006546447365407
484989 97 18338247054406013746
5104073 3 18270960141850508400
5283173 99 18115302276918084349
59755656 215 18408605833684687654
7495541 125 18272930544213210496
9709674 26 18197501709974980166

>  <PUBCHEM_SHAPE_MULTIPOLES>  (1) 
500.74
14.28
2.61
0.84
3.23
0.63
-0.14
-5.91
-0.28
-0.58
0.18
-0.47
0.19
0.57

>  <PUBCHEM_SHAPE_SELFOVERLAP>  (1) 
1123.948

>  <PUBCHEM_SHAPE_VOLUME>  (1) 
263.2

>  <PUBCHEM_COORDINATE_TYPE>  (1) 
2
5
10

$$$$
