25003
     RDKit          3D

  7  6  0  0  1  0  0  0  0  0999 V2000
    1.3513   -1.6751    0.5014 Cl  0  0  0  0  0  0  0  0  0  0  0  0
   -2.4220    0.4554    0.0580 Cl  0  0  0  0  0  0  0  0  0  0  0  0
    1.0813    1.8617    0.0490 O   0  0  0  0  0  0  0  0  0  0  0  0
    0.2046   -0.4074   -0.0640 C   0  0  0  0  0  0  0  0  0  0  0  0
   -1.2001   -0.7982    0.4087 C   0  0  0  0  0  0  0  0  0  0  0  0
    0.3197   -0.3009   -1.5843 C   0  0  0  0  0  0  0  0  0  0  0  0
    0.6653    0.8645    0.6313 C   0  0  0  0  0  0  0  0  0  0  0  0
  1  4  1  0
  2  5  1  0
  3  7  2  0
  4  5  1  0
  4  6  1  0
  4  7  1  0
M  END
>  <PUBCHEM_COMPOUND_CID>  (1) 
25003

>  <PUBCHEM_CONFORMER_RMSD>  (1) 
0.4

>  <PUBCHEM_CONFORMER_DIVERSEORDER>  (1) 
1
4
9
5
10
3
2
6
7
8

>  <PUBCHEM_MMFF94_PARTIAL_CHARGES>  (1) 
7
1 -0.29
13 0.06
2 -0.29
3 -0.57
4 0.35
5 0.29
7 0.45

>  <PUBCHEM_EFFECTIVE_ROTOR_COUNT>  (1) 
2

>  <PUBCHEM_PHARMACOPHORE_FEATURES>  (1) 
1
1 3 acceptor

>  <PUBCHEM_HEAVY_ATOM_COUNT>  (1) 
7

>  <PUBCHEM_ATOM_DEF_STEREO_COUNT>  (1) 
0

>  <PUBCHEM_ATOM_UDEF_STEREO_COUNT>  (1) 
1

>  <PUBCHEM_BOND_DEF_STEREO_COUNT>  (1) 
0

>  <PUBCHEM_BOND_UDEF_STEREO_COUNT>  (1) 
0

>  <PUBCHEM_ISOTOPIC_ATOM_COUNT>  (1) 
0

>  <PUBCHEM_COMPONENT_COUNT>  (1) 
1

>  <PUBCHEM_CACTVS_TAUTO_COUNT>  (1) 
1

>  <PUBCHEM_CONFORMER_ID>  (1) 
000061AB00000001

>  <PUBCHEM_MMFF94_ENERGY>  (1) 
11.5619

>  <PUBCHEM_FEATURE_SELFOVERLAP>  (1) 
5.074

>  <PUBCHEM_SHAPE_FINGERPRINT>  (1) 
137420 1 12496940730689634154
20096714 4 18198624526153170369
20653091 64 18341059540339779107
21040471 1 17978790438927625456
24536 1 16950854716423567211
29004967 10 18266449902203964066
5084963 1 17769102576399661321
5943 1 12060091790183648790

>  <PUBCHEM_SHAPE_MULTIPOLES>  (1) 
141.93
2.27
1.65
1.1
1.54
0.68
0.52
-0.59
-0.32
-0.7
-0.31
-0.2
-0.06
-0.03

>  <PUBCHEM_SHAPE_SELFOVERLAP>  (1) 
244.077

>  <PUBCHEM_SHAPE_VOLUME>  (1) 
95.8

>  <PUBCHEM_COORDINATE_TYPE>  (1) 
2
5
10

$$$$
