25017
     RDKit          3D

 19 20  0  0  0  0  0  0  0  0999 V2000
   -0.1336   -0.0760   -0.4019 N   0  0  0  0  0  0  0  0  0  0  0  0
    1.7265   -1.6594   -0.6333 N   0  0  0  0  0  0  0  0  0  0  0  0
   -0.2363   -2.1373   -1.6235 N   0  0  0  0  0  0  0  0  0  0  0  0
    3.2509   -2.7799    0.7271 N   0  0  0  0  0  0  0  0  0  0  0  0
    1.0558   -2.8472    1.3489 N   0  0  0  0  0  0  0  0  0  0  0  0
   -1.5468   -0.0011   -0.1376 C   0  0  0  0  0  0  0  0  0  0  0  0
    0.7297    1.0530   -0.1656 C   0  0  0  0  0  0  0  0  0  0  0  0
   -2.3935    0.4162   -1.1450 C   0  0  0  0  0  0  0  0  0  0  0  0
    0.4037    1.9436    0.8370 C   0  0  0  0  0  0  0  0  0  0  0  0
   -2.0124   -0.3496    1.1143 C   0  0  0  0  0  0  0  0  0  0  0  0
    1.8557    1.2079   -0.9483 C   0  0  0  0  0  0  0  0  0  0  0  0
    0.4179   -1.2852   -0.8844 C   0  0  0  0  0  0  0  0  0  0  0  0
   -3.7629    0.4879   -0.8897 C   0  0  0  0  0  0  0  0  0  0  0  0
    1.2398    3.0360    1.0668 C   0  0  0  0  0  0  0  0  0  0  0  0
   -3.3818   -0.2780    1.3696 C   0  0  0  0  0  0  0  0  0  0  0  0
    2.6918    2.3005   -0.7185 C   0  0  0  0  0  0  0  0  0  0  0  0
   -4.2572    0.1407    0.3676 C   0  0  0  0  0  0  0  0  0  0  0  0
    2.3839    3.2146    0.2891 C   0  0  0  0  0  0  0  0  0  0  0  0
    1.9688   -2.3865    0.4271 C   0  0  0  0  0  0  0  0  0  0  0  0
  1  6  1  0
  1  7  1  0
  1 12  1  0
  2 12  1  0
  2 19  2  3
  3 12  2  0
  4 19  1  0
  5 19  1  0
  6  8  2  0
  6 10  1  0
  7  9  2  0
  7 11  1  0
  8 13  1  0
  9 14  1  0
 10 15  2  0
 11 16  2  0
 13 17  2  0
 14 18  2  0
 15 17  1  0
 16 18  1  0
M  END
>  <PUBCHEM_COMPOUND_CID>  (1) 
25017

>  <PUBCHEM_CONFORMER_RMSD>  (1) 
0.6

>  <PUBCHEM_CONFORMER_DIVERSEORDER>  (1) 
1
11
20
13
22
5
15
18
14
23
12
2
8
21
9
10
16
19
24
17
7
3
6
4

>  <PUBCHEM_MMFF94_PARTIAL_CHARGES>  (1) 
34
1 -0.25
10 -0.15
11 -0.15
12 0.71
13 -0.15
14 -0.15
15 -0.15
16 -0.15
17 -0.15
18 -0.15
19 0.55
2 -0.66
20 0.15
21 0.15
22 0.15
23 0.15
24 0.15
25 0.15
26 0.15
27 0.15
28 0.15
29 0.15
3 -0.85
30 0.4
31 0.4
32 0.4
33 0.4
34 0.4
4 -0.85
5 -0.85
6 0.1
7 0.1
8 -0.15
9 -0.15

>  <PUBCHEM_EFFECTIVE_ROTOR_COUNT>  (1) 
4

>  <PUBCHEM_PHARMACOPHORE_FEATURES>  (1) 
7
1 3 donor
1 4 donor
1 5 donor
4 1 2 3 12 cation
4 2 4 5 19 cation
6 6 8 10 13 15 17 rings
6 7 9 11 14 16 18 rings

>  <PUBCHEM_HEAVY_ATOM_COUNT>  (1) 
19

>  <PUBCHEM_ATOM_DEF_STEREO_COUNT>  (1) 
0

>  <PUBCHEM_ATOM_UDEF_STEREO_COUNT>  (1) 
0

>  <PUBCHEM_BOND_DEF_STEREO_COUNT>  (1) 
0

>  <PUBCHEM_BOND_UDEF_STEREO_COUNT>  (1) 
0

>  <PUBCHEM_ISOTOPIC_ATOM_COUNT>  (1) 
0

>  <PUBCHEM_COMPONENT_COUNT>  (1) 
1

>  <PUBCHEM_CACTVS_TAUTO_COUNT>  (1) 
3

>  <PUBCHEM_CONFORMER_ID>  (1) 
000061B900000001

>  <PUBCHEM_MMFF94_ENERGY>  (1) 
85.4738

>  <PUBCHEM_FEATURE_SELFOVERLAP>  (1) 
35.616

>  <PUBCHEM_SHAPE_FINGERPRINT>  (1) 
10382601 240 18198651932461254065
1100329 8 18411418449422435330
12532896 13 17908141328064879532
12549972 3 17822582607949404497
12592029 89 18338515364690303305
12644460 14 18200051602536838483
12730499 353 18338523053531056433
12759256 9 18271243824757030231
12788726 201 17253983156913686930
13004483 165 17688575075089772499
13134695 92 18266445525753342445
13140716 1 18196931299916605608
13294875 104 18058155293002703960
133893 2 17754979233893545438
136203 1 17329986893967687954
13681431 1 18267590117320862428
14181834 199 18411975853892264790
14787075 74 18187092741212521346
14955137 171 18272941492206609046
15309172 13 18121782991578102389
15490181 7 18125721437695906453
16945 1 18407761425849405132
1813 80 17771921440930443998
18186145 218 17915476092692831013
19049666 15 18114743737927633213
20600515 1 18055637217800913971
21041028 32 18196096547121007305
21524375 3 18126290988940319165
21731228 192 18049159165999390248
22112679 90 17841452344251823640
23175994 123 18119530929765903535
23388829 49 18129660781668246340
23419403 2 17899948600701587356
23558518 356 17621597641346664940
23559900 14 17676210156671181599
25 1 18057901326990967133
2748010 2 16908077301712282740
298252 57 16772409510705234532
31174 14 18336559252411826835
3759504 43 17902241335996503780
495365 180 18260817195030397925
5895379 119 17056982666923962529
633830 44 17986693647152179173
7364860 26 18409728452125044561
7471813 234 18128518398051578685
81228 2 17332250792619966685

>  <PUBCHEM_SHAPE_MULTIPOLES>  (1) 
366.11
5.65
3.74
1.38
5
1.49
0.01
-1.93
0.37
-5.11
1.03
0.38
0.25
-0.2

>  <PUBCHEM_SHAPE_SELFOVERLAP>  (1) 
784.681

>  <PUBCHEM_SHAPE_VOLUME>  (1) 
197.3

>  <PUBCHEM_COORDINATE_TYPE>  (1) 
2
5
10

$$$$
