25021
     RDKit          3D

 19 21  0  0  0  0  0  0  0  0999 V2000
    4.3261    0.2436    0.2664 O   0  0  0  0  0  0  0  0  0  0  0  0
   -0.2711    2.4557    0.0907 O   0  0  0  0  0  0  0  0  0  0  0  0
   -1.2182   -2.8021   -0.0323 O   0  0  0  0  0  0  0  0  0  0  0  0
    2.3006    2.1106    0.2053 N   0  0  0  0  0  0  0  0  0  0  0  0
    0.6551    0.2728    0.1005 C   0  0  0  0  0  0  0  0  0  0  0  0
    0.3967   -1.0991    0.0668 C   0  0  0  0  0  0  0  0  0  0  0  0
   -1.8445    0.7459   -0.0046 C   0  0  0  0  0  0  0  0  0  0  0  0
   -2.1028   -0.6259   -0.0377 C   0  0  0  0  0  0  0  0  0  0  0  0
   -0.4561    1.2454    0.0653 C   0  0  0  0  0  0  0  0  0  0  0  0
   -0.9916   -1.5986   -0.0038 C   0  0  0  0  0  0  0  0  0  0  0  0
    1.9754    0.7333    0.1678 C   0  0  0  0  0  0  0  0  0  0  0  0
    1.4589   -2.0106    0.1003 C   0  0  0  0  0  0  0  0  0  0  0  0
    3.0309   -0.1785    0.2011 C   0  0  0  0  0  0  0  0  0  0  0  0
    2.7732   -1.5475    0.1672 C   0  0  0  0  0  0  0  0  0  0  0  0
   -2.9067    1.6575   -0.0376 C   0  0  0  0  0  0  0  0  0  0  0  0
   -3.4234   -1.0864   -0.1039 C   0  0  0  0  0  0  0  0  0  0  0  0
   -4.2211    1.1944   -0.1033 C   0  0  0  0  0  0  0  0  0  0  0  0
   -4.4789   -0.1746   -0.1363 C   0  0  0  0  0  0  0  0  0  0  0  0
    4.9976    0.4639   -0.9717 C   0  0  0  0  0  0  0  0  0  0  0  0
  1 13  1  0
  1 19  1  0
  2  9  2  0
  3 10  2  0
  4 11  1  0
  5  6  2  0
  5  9  1  0
  5 11  1  0
  6 10  1  0
  6 12  1  0
  7  8  2  0
  7  9  1  0
  7 15  1  0
  8 10  1  0
  8 16  1  0
 11 13  2  0
 12 14  2  0
 13 14  1  0
 15 17  2  0
 16 18  2  0
 17 18  1  0
M  END
>  <PUBCHEM_COMPOUND_CID>  (1) 
25021

>  <PUBCHEM_CONFORMER_RMSD>  (1) 
0.6

>  <PUBCHEM_CONFORMER_DIVERSEORDER>  (1) 
1

>  <PUBCHEM_MMFF94_PARTIAL_CHARGES>  (1) 
27
1 -0.36
10 0.4
11 0.1
12 -0.15
13 0.08
14 -0.15
15 -0.15
16 -0.15
17 -0.15
18 -0.15
19 0.28
2 -0.57
20 0.15
21 0.15
22 0.15
23 0.15
24 0.15
25 0.15
26 0.4
27 0.4
3 -0.57
4 -0.9
5 0.09
6 0.09
7 0.09
8 0.09
9 0.4

>  <PUBCHEM_EFFECTIVE_ROTOR_COUNT>  (1) 
1

>  <PUBCHEM_PHARMACOPHORE_FEATURES>  (1) 
8
1 1 acceptor
1 2 acceptor
1 3 acceptor
1 4 cation
1 4 donor
6 5 6 11 12 13 14 rings
6 5 6 7 8 9 10 rings
6 7 8 15 16 17 18 rings

>  <PUBCHEM_HEAVY_ATOM_COUNT>  (1) 
19

>  <PUBCHEM_ATOM_DEF_STEREO_COUNT>  (1) 
0

>  <PUBCHEM_ATOM_UDEF_STEREO_COUNT>  (1) 
0

>  <PUBCHEM_BOND_DEF_STEREO_COUNT>  (1) 
0

>  <PUBCHEM_BOND_UDEF_STEREO_COUNT>  (1) 
0

>  <PUBCHEM_ISOTOPIC_ATOM_COUNT>  (1) 
0

>  <PUBCHEM_COMPONENT_COUNT>  (1) 
1

>  <PUBCHEM_CACTVS_TAUTO_COUNT>  (1) 
4

>  <PUBCHEM_CONFORMER_ID>  (1) 
000061BD00000001

>  <PUBCHEM_MMFF94_ENERGY>  (1) 
81.3871

>  <PUBCHEM_FEATURE_SELFOVERLAP>  (1) 
40.637

>  <PUBCHEM_SHAPE_FINGERPRINT>  (1) 
10411042 1 16681754361317243999
10498660 4 18337391543568821764
10608611 8 18410569587379422081
10616163 171 18339924917212361935
10759866 29 18113902628738530130
10967382 1 18410853226782169147
11132069 177 18412818084162647385
11458722 379 18411141333388793006
11471102 20 18410568448975659871
11578080 2 16770971405636698795
11680986 33 18123747827283050305
12011746 2 18411982455262253749
12236239 1 17821728351901902044
12403814 3 17530679905240193373
12954195 1 17914634777967413164
13140716 1 18266731566570367776
13221675 6 18411135827077351506
13380535 76 18411698781267958179
13862211 1 18411412908503095354
14790565 3 18410304591976610916
15196674 1 18410572838506147803
15442244 35 18122904231112879290
15536298 74 18270961250020791118
16945 1 18410848897439388522
17804303 29 18341051912224822313
18186145 218 18271527494430250377
193761 8 17978507864718692827
19591789 44 18410574011153746811
200 152 17988637498063221141
20510252 161 18272369715915780273
21029758 27 18187935018500307981
21267235 1 18411426137086763055
21501502 16 18266739078109485050
2334 1 17257650548257726899
23402539 116 18271516554942864959
23402655 69 18341888546442839253
23463225 33 18409445852125352233
23493267 7 17967534605276366618
23559900 14 18270397166813481030
2748010 2 18410291376757081055
296302 2 17313107440434298447
3004659 81 18334864875546059038
335352 9 18194962946163496006
34934 24 18410848871833238418
350125 39 18410296908970747145
474 4 17313394473710698188
4990 188 17988650670759527892
5104073 3 18337952294430286570
537710 114 18410294696334420565
69090 78 18413101771285132479
7364860 26 18342453746853622008
8809292 202 18262519315701647491
9709674 26 18412547621466856991

>  <PUBCHEM_SHAPE_MULTIPOLES>  (1) 
368.42
8.08
2.4
0.66
1.8
0.33
0.05
-1.52
1.16
-0.27
-0.08
0.25
-0.03
-0.15

>  <PUBCHEM_SHAPE_SELFOVERLAP>  (1) 
829.022

>  <PUBCHEM_SHAPE_VOLUME>  (1) 
193.2

>  <PUBCHEM_COORDINATE_TYPE>  (1) 
2
5
10

$$$$
