25028
     RDKit          3D

 24 27  0  0  1  0  0  0  0  0999 V2000
    1.3573   -0.8563   -2.0822 O   0  0  0  0  0  0  0  0  0  0  0  0
    2.5653    1.4999    0.7408 O   0  0  0  0  0  0  0  0  0  0  0  0
   -2.8261   -2.4485    0.0877 O   0  0  0  0  0  0  0  0  0  0  0  0
   -1.6206    2.7516   -0.2692 O   0  0  0  0  0  0  0  0  0  0  0  0
    2.2423    3.6055   -0.1320 O   0  0  0  0  0  0  0  0  0  0  0  0
    2.7271   -2.6579   -0.2134 N   0  0  0  0  0  0  0  0  0  0  0  0
   -0.0849   -1.5642   -0.3143 N   0  0  0  0  0  0  0  0  0  0  0  0
   -4.2273    2.1497    0.1691 N   0  0  0  0  0  0  0  0  0  0  0  0
    4.3546    2.7280    0.1028 N   0  0  0  0  0  0  0  0  0  0  0  0
    2.2141   -1.3257    0.1084 C   0  0  0  0  0  0  0  0  0  0  0  0
    1.7087   -2.5422    0.8150 C   0  0  0  0  0  0  0  0  0  0  0  0
    1.0885   -0.7353   -0.6858 C   0  0  0  0  0  0  0  0  0  0  0  0
    0.2584   -2.7368    0.4842 C   0  0  0  0  0  0  0  0  0  0  0  0
    0.6027    0.7221   -0.3773 C   0  0  0  0  0  0  0  0  0  0  0  0
   -1.2001   -0.7706   -0.1787 C   0  0  0  0  0  0  0  0  0  0  0  0
   -0.8946    0.5234   -0.2465 C   0  0  0  0  0  0  0  0  0  0  0  0
    4.0369   -2.8632    0.3827 C   0  0  0  0  0  0  0  0  0  0  0  0
    1.1677    1.3414    0.8993 C   0  0  0  0  0  0  0  0  0  0  0  0
   -2.5667   -1.2515    0.0324 C   0  0  0  0  0  0  0  0  0  0  0  0
   -1.9174    1.5661   -0.1582 C   0  0  0  0  0  0  0  0  0  0  0  0
   -3.6279   -0.1974    0.1631 C   0  0  0  0  0  0  0  0  0  0  0  0
   -3.3337    1.1183    0.0717 C   0  0  0  0  0  0  0  0  0  0  0  0
   -5.0106   -0.7477    0.3927 C   0  0  0  0  0  0  0  0  0  0  0  0
    2.9861    2.6914    0.2076 C   0  0  0  0  0  0  0  0  0  0  0  0
  1 12  1  0
  2 18  1  0
  2 24  1  0
  3 19  2  0
  4 20  2  0
  5 24  2  0
  6 10  1  0
  6 11  1  0
  6 17  1  0
  7 12  1  0
  7 13  1  0
  7 15  1  0
  8 22  1  0
  9 24  1  0
 10 11  1  0
 10 12  1  0
 11 13  1  0
 12 14  1  0
 14 16  1  0
 14 18  1  0
 15 16  2  0
 15 19  1  0
 16 20  1  0
 19 21  1  0
 20 22  1  0
 21 22  2  0
 21 23  1  0
M  END
>  <PUBCHEM_COMPOUND_CID>  (1) 
25028

>  <PUBCHEM_CONFORMER_RMSD>  (1) 
0.6

>  <PUBCHEM_CONFORMER_DIVERSEORDER>  (1) 
1
7
8
4
2
3
10
5
9
11
6

>  <PUBCHEM_MMFF94_PARTIAL_CHARGES>  (1) 
31
1 -0.68
10 -0.04
11 -0.04
12 0.74
13 0.46
14 0.14
15 0.11
16 -0.12
17 0.27
18 0.28
19 0.54
2 -0.43
20 0.54
21 -0.12
22 0.11
23 0.14
24 0.78
25 0.1
26 0.1
3 -0.57
33 0.4
39 0.4
4 -0.57
40 0.4
41 0.37
42 0.37
5 -0.57
6 -0.59
7 -0.84
8 -0.9
9 -0.8

>  <PUBCHEM_EFFECTIVE_ROTOR_COUNT>  (1) 
3.6

>  <PUBCHEM_PHARMACOPHORE_FEATURES>  (1) 
13
1 1 acceptor
1 1 donor
1 3 acceptor
1 4 acceptor
1 5 acceptor
1 6 cation
1 7 cation
1 8 cation
1 8 donor
1 9 donor
5 7 12 14 15 16 rings
6 15 16 19 20 21 22 rings
6 6 7 10 11 12 13 rings

>  <PUBCHEM_HEAVY_ATOM_COUNT>  (1) 
24

>  <PUBCHEM_ATOM_DEF_STEREO_COUNT>  (1) 
2

>  <PUBCHEM_ATOM_UDEF_STEREO_COUNT>  (1) 
2

>  <PUBCHEM_BOND_DEF_STEREO_COUNT>  (1) 
0

>  <PUBCHEM_BOND_UDEF_STEREO_COUNT>  (1) 
0

>  <PUBCHEM_ISOTOPIC_ATOM_COUNT>  (1) 
0

>  <PUBCHEM_COMPONENT_COUNT>  (1) 
1

>  <PUBCHEM_CACTVS_TAUTO_COUNT>  (1) 
42

>  <PUBCHEM_CONFORMER_ID>  (1) 
000061C400000001

>  <PUBCHEM_MMFF94_ENERGY>  (1) 
85.8349

>  <PUBCHEM_FEATURE_SELFOVERLAP>  (1) 
66.14

>  <PUBCHEM_SHAPE_FINGERPRINT>  (1) 
107951 10 18050018984894002404
10967382 1 18338515343484368379
1100329 8 18266460893030211490
11578080 2 17532072934959430220
12173636 292 17762612194037752596
12403259 226 18263641766981626013
12403260 363 18270952450265784895
12422481 6 17908943740373782202
12553582 1 17977091367024253850
12592029 89 18339081596399808432
12633257 1 18127419943133489737
12788726 201 17469328032990413594
13132413 78 18124026828421765390
13140716 1 18338807706641167497
138480 1 18338515214746138896
14022347 108 17622744019594414215
14223421 5 18408881849820612323
14466204 15 17546446679014207449
14787075 74 17984704682488987993
14790565 3 17115795415076661064
14955137 171 17906761118807405675
15196674 1 18337673001634824803
16945 1 18265322907317824567
17804303 29 18265618680303986679
18785283 64 18335137609668112784
19591789 44 18051129499484315096
19784866 170 18264773340630093329
20028762 73 16974498833094889694
20510252 161 17909835671067106441
20600515 1 17625544488864137368
20691752 17 17895195480880800833
20905425 154 18271247217475076471
21267235 1 18263937531526261019
21421861 104 18333726923063997035
21501502 16 18342733018596388853
21524375 3 17985269818164070548
2334 1 18339363079961029087
23366157 5 18187364333394929178
23419403 2 17969480668038492438
23559900 14 18339634530104171891
25147074 1 18059851766983448725
2748010 2 18338243755733597247
335352 9 18194682553998358005
350125 39 18409452449052888957
43471831 8 18193551388166269562
5104073 3 18337685152703694683
59755656 215 18337674221168010924
6138700 20 18412833478417452988
7364860 26 18411700980522997534
9709674 26 18409165515526329075
9981440 41 18120931969356184216

>  <PUBCHEM_SHAPE_MULTIPOLES>  (1) 
444.64
7.46
4.19
0.88
3.77
1.49
0.24
0.66
-1.07
-4.2
-0.47
-0.35
-0.16
0.15

>  <PUBCHEM_SHAPE_SELFOVERLAP>  (1) 
977.16

>  <PUBCHEM_SHAPE_VOLUME>  (1) 
242.9

>  <PUBCHEM_COORDINATE_TYPE>  (1) 
2
5
10

$$$$
