25033
     RDKit          3D

 18 19  0  0  0  0  0  0  0  0999 V2000
    2.2961    0.4405    0.0009 O   0  0  0  0  0  0  0  0  0  0  0  0
   -3.8093   -2.1161    0.0005 O   0  0  0  0  0  0  0  0  0  0  0  0
    5.6084   -0.6738   -0.0008 O   0  0  0  0  0  0  0  0  0  0  0  0
    4.7441    1.3488    0.0002 O   0  0  0  0  0  0  0  0  0  0  0  0
   -1.7410    1.6917   -0.0005 N   0  0  0  0  0  0  0  0  0  0  0  0
   -0.4007    1.6321    0.0006 N   0  0  0  0  0  0  0  0  0  0  0  0
   -1.3357   -0.4556    0.0009 N   0  0  0  0  0  0  0  0  0  0  0  0
   -3.6444    0.2415   -0.0014 N   0  0  0  0  0  0  0  0  0  0  0  0
    4.6000    0.0912    0.0000 N   0  0  0  0  0  0  0  0  0  0  0  0
   -0.2066    0.3119    0.0011 C   0  0  0  0  0  0  0  0  0  0  0  0
   -2.2891    0.4469   -0.0006 C   0  0  0  0  0  0  0  0  0  0  0  0
    1.1440   -0.2800    0.0006 C   0  0  0  0  0  0  0  0  0  0  0  0
    1.4170   -1.6280   -0.0003 C   0  0  0  0  0  0  0  0  0  0  0  0
   -2.4109    2.9694   -0.0005 C   0  0  0  0  0  0  0  0  0  0  0  0
    3.3160   -0.4573    0.0000 C   0  0  0  0  0  0  0  0  0  0  0  0
    2.8276   -1.7432   -0.0008 C   0  0  0  0  0  0  0  0  0  0  0  0
   -4.3084   -0.9959   -0.0008 C   0  0  0  0  0  0  0  0  0  0  0  0
   -5.8073   -0.8243    0.0009 C   0  0  0  0  0  0  0  0  0  0  0  0
  1 12  1  0
  1 15  1  0
  2 17  2  0
  3  9  1  0
  4  9  2  0
  5  6  1  0
  5 11  1  0
  5 14  1  0
  6 10  2  0
  7 10  1  0
  7 11  2  0
  8 11  1  0
  8 17  1  0
  9 15  1  0
 10 12  1  0
 12 13  2  0
 13 16  1  0
 15 16  2  0
 17 18  1  0
M  CHG  2   3  -1   9   1
M  END
>  <PUBCHEM_COMPOUND_CID>  (1) 
25033

>  <PUBCHEM_CONFORMER_RMSD>  (1) 
0.6

>  <PUBCHEM_CONFORMER_DIVERSEORDER>  (1) 
1
8
7
9
10
4
11
3
6
12
5
2

>  <PUBCHEM_MMFF94_PARTIAL_CHARGES>  (1) 
21
1 -0.28
10 0.52
11 0.25
12 0.14
13 -0.15
14 0.26
15 0.22
16 -0.15
17 0.57
18 0.06
19 0.15
2 -0.57
23 0.37
24 0.15
3 -0.52
4 -0.52
5 0.31
6 -0.71
7 -0.57
8 -0.49
9 0.96

>  <PUBCHEM_EFFECTIVE_ROTOR_COUNT>  (1) 
4

>  <PUBCHEM_PHARMACOPHORE_FEATURES>  (1) 
9
1 1 acceptor
1 2 acceptor
1 3 acceptor
1 3 anion
1 4 acceptor
1 8 donor
3 6 7 10 cation
5 1 12 13 15 16 rings
5 5 6 7 10 11 rings

>  <PUBCHEM_HEAVY_ATOM_COUNT>  (1) 
18

>  <PUBCHEM_ATOM_DEF_STEREO_COUNT>  (1) 
0

>  <PUBCHEM_ATOM_UDEF_STEREO_COUNT>  (1) 
0

>  <PUBCHEM_BOND_DEF_STEREO_COUNT>  (1) 
0

>  <PUBCHEM_BOND_UDEF_STEREO_COUNT>  (1) 
0

>  <PUBCHEM_ISOTOPIC_ATOM_COUNT>  (1) 
0

>  <PUBCHEM_COMPONENT_COUNT>  (1) 
1

>  <PUBCHEM_CACTVS_TAUTO_COUNT>  (1) 
4

>  <PUBCHEM_CONFORMER_ID>  (1) 
000061C900000001

>  <PUBCHEM_MMFF94_ENERGY>  (1) 
23.6994

>  <PUBCHEM_FEATURE_SELFOVERLAP>  (1) 
45.762

>  <PUBCHEM_SHAPE_FINGERPRINT>  (1) 
10447042 23 18335690642252222191
10616163 171 18412264999992263199
10968037 39 18409449215507063087
11045515 52 18040149630667854885
11806522 49 18335139808137317852
12107183 9 17542780911377976962
124424 183 12468643819648867494
12553582 1 18340753927910972463
12815109 37 18409448103020849487
12916754 54 18270686342191520394
13533116 47 17313373497027342386
13740256 8 18263085573534364555
1420 363 18410578396172918178
14251764 18 18201726163568455083
14787075 74 18335701701592087938
15196674 1 18338797810329654950
17492 89 18266457603218008322
187816 3 17603585240281727723
200 152 18334292072151404023
20510252 161 18271527490135387401
21267235 1 18410582781329200742
21426921 1 18337953381474210637
21618674 54 18265331707615883406
221490 88 18046069530331621011
2297311 6 18272943708277377836
23402539 116 18261106378903900567
23557571 272 18272657805047174500
23559900 14 18053658071723547090
26918003 58 17967816072058989027
2871803 45 18408038494337681323
4214541 1 18338516322584171392
4325135 7 18408325510043367060
4463277 17 18411139139167010777
474229 33 18411136961128429502
5104073 3 18270113492565206034
5283173 99 18041548149460641085
5486654 2 18337957890899558814
58051976 378 18411700976070028334
7495541 125 17846211189933538690
77779 3 18340207375962890900
9709674 26 18337679611394593850

>  <PUBCHEM_SHAPE_MULTIPOLES>  (1) 
322.05
11.31
2.23
0.57
1.7
1.11
0
-3.19
0
-1.62
0
-0.04
-0.01
0

>  <PUBCHEM_SHAPE_SELFOVERLAP>  (1) 
686.7

>  <PUBCHEM_SHAPE_VOLUME>  (1) 
178.8

>  <PUBCHEM_COORDINATE_TYPE>  (1) 
2
5
10

$$$$
