25058
     RDKit          3D

 14 15  0  0  0  0  0  0  0  0999 V2000
   -1.9348   -1.3581   -0.2117 S   0  0  0  0  0  0  0  0  0  0  0  0
    1.0129   -2.0639   -0.1262 S   0  0  0  0  0  0  0  0  0  0  0  0
   -4.1909    0.2497   -0.2383 N   0  0  0  0  0  0  0  0  0  0  0  0
    0.1166    0.3535   -0.0575 N   0  0  0  0  0  0  0  0  0  0  0  0
   -2.7214    0.2944   -0.1716 C   0  0  0  0  0  0  0  0  0  0  0  0
    2.1709   -0.7902   -0.0260 C   0  0  0  0  0  0  0  0  0  0  0  0
    1.5001    0.4363    0.0004 C   0  0  0  0  0  0  0  0  0  0  0  0
   -0.2461   -0.9061   -0.1260 C   0  0  0  0  0  0  0  0  0  0  0  0
   -4.7645   -0.4469    0.9176 C   0  0  0  0  0  0  0  0  0  0  0  0
   -4.7321    1.6101   -0.3053 C   0  0  0  0  0  0  0  0  0  0  0  0
    3.5717   -0.8706    0.0254 C   0  0  0  0  0  0  0  0  0  0  0  0
    2.2609    1.6229    0.0813 C   0  0  0  0  0  0  0  0  0  0  0  0
    4.3008    0.3186    0.1051 C   0  0  0  0  0  0  0  0  0  0  0  0
    3.6559    1.5503    0.1328 C   0  0  0  0  0  0  0  0  0  0  0  0
  1  5  1  0
  1  8  1  0
  2  6  1  0
  2  8  1  0
  3  5  1  0
  3  9  1  0
  3 10  1  0
  4  7  1  0
  4  8  2  0
  6  7  2  0
  6 11  1  0
  7 12  1  0
 11 13  2  0
 12 14  2  0
 13 14  1  0
M  END
>  <PUBCHEM_COMPOUND_CID>  (1) 
25058

>  <PUBCHEM_CONFORMER_RMSD>  (1) 
0.6

>  <PUBCHEM_CONFORMER_DIVERSEORDER>  (1) 
1
9
19
2
17
4
10
15
13
6
12
5
11
14
8
18
3
16
7

>  <PUBCHEM_MMFF94_PARTIAL_CHARGES>  (1) 
18
1 -0.29
10 0.27
11 -0.15
12 -0.15
13 -0.15
14 -0.15
2 -0.08
23 0.15
24 0.15
25 0.15
26 0.15
3 -0.81
4 -0.57
5 0.5
6 0.04
7 0.23
8 0.43
9 0.27

>  <PUBCHEM_EFFECTIVE_ROTOR_COUNT>  (1) 
3

>  <PUBCHEM_PHARMACOPHORE_FEATURES>  (1) 
4
1 3 cation
1 4 acceptor
5 2 4 6 7 8 rings
6 6 7 11 12 13 14 rings

>  <PUBCHEM_HEAVY_ATOM_COUNT>  (1) 
14

>  <PUBCHEM_ATOM_DEF_STEREO_COUNT>  (1) 
0

>  <PUBCHEM_ATOM_UDEF_STEREO_COUNT>  (1) 
0

>  <PUBCHEM_BOND_DEF_STEREO_COUNT>  (1) 
0

>  <PUBCHEM_BOND_UDEF_STEREO_COUNT>  (1) 
0

>  <PUBCHEM_ISOTOPIC_ATOM_COUNT>  (1) 
0

>  <PUBCHEM_COMPONENT_COUNT>  (1) 
1

>  <PUBCHEM_CACTVS_TAUTO_COUNT>  (1) 
1

>  <PUBCHEM_CONFORMER_ID>  (1) 
000061E200000001

>  <PUBCHEM_MMFF94_ENERGY>  (1) 
27.2343

>  <PUBCHEM_FEATURE_SELFOVERLAP>  (1) 
20.368

>  <PUBCHEM_SHAPE_FINGERPRINT>  (1) 
10608611 8 18408884027653868061
11471102 20 18412823569025846830
122479 349 18335421308926283619
13081056 2 18410576193176214925
13675066 3 18260269659261064075
13922767 16 18413666920309022352
14123255 52 18411696591193106079
14415576 193 18410857663451679124
14897335 6 18342173384178651383
15196674 1 18410573981204701973
17834072 33 18201150036091120751
17834072 8 18202008715912018262
18186145 218 18201727283536853022
19784866 9 18411133619559191738
20645477 70 18272370828149026478
212847 35 18408604760253651644
231179 274 18408884014405040847
23402539 116 18131624582682065621
23402655 69 18273211984740583437
25 1 18410006641694698318
293599 30 18339927121068349620
3545911 37 18341898514740166691
4047638 21 18413392042381089674
449060 50 18410859862918189127
4990 188 17917436431830452350
5104073 3 18408884053022856483
602551 16 16226342506973113811
633830 44 18411133666956858422
6430166 295 18411415120147216381
77779 3 18409730681498044215
8272917 22 18272092634622197447

>  <PUBCHEM_SHAPE_MULTIPOLES>  (1) 
285.85
9.85
1.9
0.7
8.61
0.08
0.05
-3.69
0.88
-0.4
-0.1
0.33
0.04
0.38

>  <PUBCHEM_SHAPE_SELFOVERLAP>  (1) 
571.315

>  <PUBCHEM_SHAPE_VOLUME>  (1) 
171.2

>  <PUBCHEM_COORDINATE_TYPE>  (1) 
2
5
10

$$$$
