25054
     RDKit          3D

 14 13  0  0  1  0  0  0  0  0999 V2000
    0.8257   -0.7348    0.4554 O   0  0  0  0  0  0  0  0  0  0  0  0
   -1.8534   -0.1378   -0.0489 O   0  0  0  0  0  0  0  0  0  0  0  0
    2.6548    1.2083   -0.2936 O   0  0  0  0  0  0  0  0  0  0  0  0
   -2.4169    2.5776   -0.1108 O   0  0  0  0  0  0  0  0  0  0  0  0
   -0.1121   -1.7693    0.1622 C   0  0  0  0  0  0  0  0  0  0  0  0
   -1.4858   -1.3206    0.6438 C   0  0  0  0  0  0  0  0  0  0  0  0
    2.1385   -1.1006    0.0592 C   0  0  0  0  0  0  0  0  0  0  0  0
    3.0923    0.0385    0.3962 C   0  0  0  0  0  0  0  0  0  0  0  0
   -3.1282    0.3393    0.3789 C   0  0  0  0  0  0  0  0  0  0  0  0
   -0.1053   -2.0290   -1.3367 C   0  0  0  0  0  0  0  0  0  0  0  0
   -3.4383    1.6231   -0.3803 C   0  0  0  0  0  0  0  0  0  0  0  0
    4.5159   -0.2822   -0.0331 C   0  0  0  0  0  0  0  0  0  0  0  0
   -4.1715   -0.7339    0.1071 C   0  0  0  0  0  0  0  0  0  0  0  0
    3.4843    2.3215    0.0005 C   0  0  0  0  0  0  0  0  0  0  0  0
  1  5  1  0
  1  7  1  0
  2  6  1  0
  2  9  1  0
  3  8  1  0
  3 14  1  0
  4 11  1  0
  5  6  1  0
  5 10  1  0
  7  8  1  0
  8 12  1  0
  9 11  1  0
  9 13  1  0
M  END
>  <PUBCHEM_COMPOUND_CID>  (1) 
25054

>  <PUBCHEM_CONFORMER_RMSD>  (1) 
0.8

>  <PUBCHEM_CONFORMER_DIVERSEORDER>  (1) 
2
337
164
98
169
125
258
208
357
353
38
119
159
193
229
302
209
7
281
322
298
234
138
196
290
33
187
244
105
308
307
13
351
14
205
263
1
306
259
58
46
346
94
195
350
113
99
200
67
335
241
145
213
228
66
104
117
217
273
183
158
333
149
88
293
16
366
109
65
216
136
144
153
55
261
358
364
188
363
328
43
179
365
21
285
349
73
190
3
247
219
248
163
27
95
243
32
227
176
202
354
329
134
107
280
301
286
352
344
89
64
325
224
210
266
133
52
215
48
303
120
174
347
291
316
103
292
19
294
81
76
143
60
82
53
240
93
23
274
11
336
334
47
230
367
356
173
111
121
112
223
361
29
56
161
276
225
305
177
78
309
68
75
304
314
262
220
154
126
59
9
326
10
86
22
180
199
287
321
100
108
345
184
118
340
237
323
128
97
300
84
189
83
327
181
362
185
74
239
368
206
299
63
256
251
218
150
62
15
57
211
253
264
332
277
110
342
221
317
231
222
30
70
272
338
269
141
249
232
123
31
54
360
207
151
79
318
283
147
37
135
315
192
341
24
275
182
122
265
212
288
102
312
85
92
50
284
96
4
140
254
157
41
313
87
282
204
69
201
17
156
139
271
116
36
268
203
90
26
279
165
355
297
320
155
91
236
28
331
127
348
343
12
235
226
45
257
132
152
330
44
167
319
359
129
137
18
238
34
267
170
242
296
6
160
49
146
252
72
131
197
295
130
194
270
20
324
8
148
51
101
71
42
260
106
311
246
35
250
61
255
168
310
233
178
214
171
114
80
339
278
77
25
124
40
172
289
5
175
245
115
186
166
162
39
191
142
198

>  <PUBCHEM_MMFF94_PARTIAL_CHARGES>  (1) 
12
1 -0.56
11 0.28
14 0.28
2 -0.56
3 -0.56
36 0.4
4 -0.68
5 0.28
6 0.28
7 0.28
8 0.28
9 0.28

>  <PUBCHEM_EFFECTIVE_ROTOR_COUNT>  (1) 
8

>  <PUBCHEM_PHARMACOPHORE_FEATURES>  (1) 
5
1 1 acceptor
1 2 acceptor
1 3 acceptor
1 4 acceptor
1 4 donor

>  <PUBCHEM_HEAVY_ATOM_COUNT>  (1) 
14

>  <PUBCHEM_ATOM_DEF_STEREO_COUNT>  (1) 
0

>  <PUBCHEM_ATOM_UDEF_STEREO_COUNT>  (1) 
3

>  <PUBCHEM_BOND_DEF_STEREO_COUNT>  (1) 
0

>  <PUBCHEM_BOND_UDEF_STEREO_COUNT>  (1) 
0

>  <PUBCHEM_ISOTOPIC_ATOM_COUNT>  (1) 
0

>  <PUBCHEM_COMPONENT_COUNT>  (1) 
1

>  <PUBCHEM_CACTVS_TAUTO_COUNT>  (1) 
1

>  <PUBCHEM_CONFORMER_ID>  (1) 
000061DE00000002

>  <PUBCHEM_MMFF94_ENERGY>  (1) 
38.2953

>  <PUBCHEM_FEATURE_SELFOVERLAP>  (1) 
25.386

>  <PUBCHEM_SHAPE_FINGERPRINT>  (1) 
10608611 8 18409167701200192643
11615756 256 18410300181029055425
12162725 195 18335420162095928787
122479 349 18335984246026354210
13081056 2 18411421730128232792
14026960 21 18337398239496617619
14252887 29 13045946768253364858
15196674 1 18408886247709309609
15775835 57 18342178928865139040
17802600 8 18410289220298591040
17834072 32 18337952273309299225
18186145 218 18059305257410650802
20281407 28 9439400237579796695
20281475 54 9583514330502237251
20449540 30 18271810073667471001
20621476 13 16605465850192688021
20645477 56 17988077928222909186
21524375 3 18343021103169578651
21652331 79 18336547217507385433
22485316 2 9367345929112599090
22959321 54 18335982064061609521
23402539 116 18408598193544341079
23557571 272 18411990143944920183
351380 180 18408600357511012747
4921388 177 15123217879909578245
6430166 295 18410008819533033874
8199 26 18264211498878707956

>  <PUBCHEM_SHAPE_MULTIPOLES>  (1) 
264.64
8.37
2.54
0.81
1.75
1.25
-0.14
3.62
0.27
-0.23
-0.44
-0.09
-0.3
0.2

>  <PUBCHEM_SHAPE_SELFOVERLAP>  (1) 
489.458

>  <PUBCHEM_SHAPE_VOLUME>  (1) 
168.7

>  <PUBCHEM_COORDINATE_TYPE>  (1) 
2
5
10

$$$$
