25065
     RDKit          3D

 10 10  0  0  1  0  0  0  0  0999 V2000
    2.2638    1.7068    0.2647 Cl  0  0  0  0  0  0  0  0  0  0  0  0
    2.8739   -1.3936   -0.8861 Cl  0  0  0  0  0  0  0  0  0  0  0  0
   -0.7756   -0.8822   -0.0543 O   0  0  0  0  0  0  0  0  0  0  0  0
   -0.6340    1.4424   -0.3601 O   0  0  0  0  0  0  0  0  0  0  0  0
    0.0957    0.2082   -0.3854 C   0  0  0  0  0  0  0  0  0  0  0  0
   -1.9816   -0.2575    0.3942 C   0  0  0  0  0  0  0  0  0  0  0  0
   -2.0031    1.0389   -0.3788 C   0  0  0  0  0  0  0  0  0  0  0  0
    1.2381    0.2780    0.6095 C   0  0  0  0  0  0  0  0  0  0  0  0
   -3.1746   -1.1511    0.1306 C   0  0  0  0  0  0  0  0  0  0  0  0
    2.0973   -0.9899    0.6657 C   0  0  0  0  0  0  0  0  0  0  0  0
  1  8  1  0
  2 10  1  0
  3  5  1  0
  3  6  1  0
  4  5  1  0
  4  7  1  0
  5  8  1  0
  6  7  1  0
  6  9  1  0
  8 10  1  0
M  END
>  <PUBCHEM_COMPOUND_CID>  (1) 
25065

>  <PUBCHEM_CONFORMER_RMSD>  (1) 
0.6

>  <PUBCHEM_CONFORMER_DIVERSEORDER>  (1) 
1
41
34
15
14
39
37
13
20
24
40
32
30
26
19
17
7
11
29
36
33
23
9
25
21
22
18
4
12
38
6
16
2
31
5
28
27
10
35
8
3

>  <PUBCHEM_MMFF94_PARTIAL_CHARGES>  (1) 
9
1 -0.29
10 0.29
2 -0.29
3 -0.56
4 -0.56
5 0.56
6 0.28
7 0.28
8 0.29

>  <PUBCHEM_EFFECTIVE_ROTOR_COUNT>  (1) 
3

>  <PUBCHEM_PHARMACOPHORE_FEATURES>  (1) 
3
1 3 acceptor
1 4 acceptor
5 3 4 5 6 7 rings

>  <PUBCHEM_HEAVY_ATOM_COUNT>  (1) 
10

>  <PUBCHEM_ATOM_DEF_STEREO_COUNT>  (1) 
0

>  <PUBCHEM_ATOM_UDEF_STEREO_COUNT>  (1) 
3

>  <PUBCHEM_BOND_DEF_STEREO_COUNT>  (1) 
0

>  <PUBCHEM_BOND_UDEF_STEREO_COUNT>  (1) 
0

>  <PUBCHEM_ISOTOPIC_ATOM_COUNT>  (1) 
0

>  <PUBCHEM_COMPONENT_COUNT>  (1) 
1

>  <PUBCHEM_CACTVS_TAUTO_COUNT>  (1) 
1

>  <PUBCHEM_CONFORMER_ID>  (1) 
000061E900000001

>  <PUBCHEM_MMFF94_ENERGY>  (1) 
18.291

>  <PUBCHEM_FEATURE_SELFOVERLAP>  (1) 
15.263

>  <PUBCHEM_SHAPE_FINGERPRINT>  (1) 
10857977 72 18188760781665559785
12524768 44 18337668719188141486
12932741 1 18335128765739554669
12932764 1 17894910681246020625
14128692 85 18335713706199714646
14252887 29 18191598651458119619
14325111 11 18410853282901658561
161256 15 18409168835309000540
16945 1 18120083996777842257
19973954 147 18411415090114490168
20645477 70 18340761628776882407
20711978 78 18201428212184781764
20711983 138 17700410282807245642
20715346 28 18130493150772826138
20871998 22 18341333301634528938
23552423 10 18186239528251072854
2748010 2 18335692845406628757
29004967 10 17968655050701440953
3248919 1 18201990010870598905
5084963 1 18202279182434011259
7364860 26 18271807968890785552
8030462 33 17530682082720157267

>  <PUBCHEM_SHAPE_MULTIPOLES>  (1) 
197.8
4.68
1.74
0.85
0.87
0.3
0.01
-1.55
0.13
-0.77
0.14
-0.32
-0.11
0.54

>  <PUBCHEM_SHAPE_SELFOVERLAP>  (1) 
366.81

>  <PUBCHEM_SHAPE_VOLUME>  (1) 
125.9

>  <PUBCHEM_COORDINATE_TYPE>  (1) 
2
5
10

$$$$
