25060
     RDKit          3D

 18 19  0  0  0  0  0  0  0  0999 V2000
    0.0058   -1.8518    0.2590 C   0  0  0  0  0  0  0  0  0  0  0  0
   -1.2437   -1.0403    0.1970 C   0  0  0  0  0  0  0  0  0  0  0  0
    1.2772   -1.0063    0.1129 C   0  0  0  0  0  0  0  0  0  0  0  0
    0.0372   -3.0743   -0.6933 C   0  0  0  0  0  0  0  0  0  0  0  0
   -1.8983   -0.8595   -1.0213 C   0  0  0  0  0  0  0  0  0  0  0  0
    2.1740   -0.9868    1.1539 C   0  0  0  0  0  0  0  0  0  0  0  0
   -1.7576   -0.4614    1.3574 C   0  0  0  0  0  0  0  0  0  0  0  0
    1.4659   -0.3032   -1.0525 C   0  0  0  0  0  0  0  0  0  0  0  0
   -3.5809    0.4786    0.0810 C   0  0  0  0  0  0  0  0  0  0  0  0
    3.5540    0.5088   -0.1483 C   0  0  0  0  0  0  0  0  0  0  0  0
   -3.0668   -0.1001   -1.0794 C   0  0  0  0  0  0  0  0  0  0  0  0
    3.3300   -0.2177    1.0212 C   0  0  0  0  0  0  0  0  0  0  0  0
   -2.9262    0.2979    1.2993 C   0  0  0  0  0  0  0  0  0  0  0  0
    2.6219    0.4661   -1.1851 C   0  0  0  0  0  0  0  0  0  0  0  0
   -4.8300    1.2908    0.0188 C   0  0  0  0  0  0  0  0  0  0  0  0
    4.7897    1.3316   -0.2900 C   0  0  0  0  0  0  0  0  0  0  0  0
   -4.5498    2.7680   -0.2452 C   0  0  0  0  0  0  0  0  0  0  0  0
    4.5976    2.7595    0.2145 C   0  0  0  0  0  0  0  0  0  0  0  0
  1  2  1  0
  1  3  1  0
  1  4  1  0
  2  5  2  0
  2  7  1  0
  3  6  2  0
  3  8  1  0
  5 11  1  0
  6 12  1  0
  7 13  2  0
  8 14  2  0
  9 11  2  0
  9 13  1  0
  9 15  1  0
 10 12  2  0
 10 14  1  0
 10 16  1  0
 15 17  1  0
 16 18  1  0
M  END
>  <PUBCHEM_COMPOUND_CID>  (1) 
25060

>  <PUBCHEM_CONFORMER_RMSD>  (1) 
0.6

>  <PUBCHEM_CONFORMER_DIVERSEORDER>  (1) 
1
14
11
8
5
9
15
12
13
10
2
6
4
7
16
3

>  <PUBCHEM_MMFF94_PARTIAL_CHARGES>  (1) 
23
1 0.29
10 -0.14
11 -0.15
12 -0.15
13 -0.15
14 -0.15
15 0.14
16 0.14
2 -0.14
23 0.15
24 0.15
25 0.15
26 0.15
27 0.15
28 0.15
29 0.15
3 -0.14
30 0.15
5 -0.15
6 -0.15
7 -0.15
8 -0.15
9 -0.14

>  <PUBCHEM_EFFECTIVE_ROTOR_COUNT>  (1) 
4

>  <PUBCHEM_PHARMACOPHORE_FEATURES>  (1) 
5
1 17 hydrophobe
1 18 hydrophobe
1 4 hydrophobe
6 2 5 7 9 11 13 rings
6 3 6 8 10 12 14 rings

>  <PUBCHEM_HEAVY_ATOM_COUNT>  (1) 
18

>  <PUBCHEM_ATOM_DEF_STEREO_COUNT>  (1) 
0

>  <PUBCHEM_ATOM_UDEF_STEREO_COUNT>  (1) 
0

>  <PUBCHEM_BOND_DEF_STEREO_COUNT>  (1) 
0

>  <PUBCHEM_BOND_UDEF_STEREO_COUNT>  (1) 
0

>  <PUBCHEM_ISOTOPIC_ATOM_COUNT>  (1) 
0

>  <PUBCHEM_COMPONENT_COUNT>  (1) 
1

>  <PUBCHEM_CACTVS_TAUTO_COUNT>  (1) 
1

>  <PUBCHEM_CONFORMER_ID>  (1) 
000061E400000001

>  <PUBCHEM_MMFF94_ENERGY>  (1) 
46.3944

>  <PUBCHEM_FEATURE_SELFOVERLAP>  (1) 
25.373

>  <PUBCHEM_SHAPE_FINGERPRINT>  (1) 
10498660 4 18131633378574809649
10968037 57 9799691506789733389
11046707 91 8790614697117404798
11089746 13 18409160035337807388
11640471 11 18342451521865656683
12251169 10 16008753523696890635
12363563 72 9079116665351966758
12633257 1 15647340774565702120
12892183 10 16950278486035432945
13103583 49 11819272205356324045
13590594 115 17115521636242566251
13675066 3 17676768777434646850
13965767 371 18041555849872330740
14123255 352 18409448076866138317
14123255 52 18411421712932591268
1420 369 8790892886565791160
14251764 38 17903914453492217933
14341114 328 16370736953717248260
14576447 43 12031794656400714276
14739800 52 18054766641711768392
15061688 2 18410013230047767311
15188451 53 14129637596611834417
15209294 21 18043523022852240552
15342168 16 18409729543410715391
15352361 1 9367345933418434165
15775835 57 18409164428482761134
1741750 31 18338799030438211050
17834072 32 18412265059937143456
1813 80 17552927226281544078
18186145 218 18059871544569569950
18915474 69 10735872885187252848
193927 3 10591770908557452020
19784866 240 9727636111569020889
20112054 13 18187367640108271030
20291156 8 9295290529818575680
20388580 30 10807930483599282738
20645477 56 18127708225490958818
20645477 70 11743832564932474960
20671657 53 13038916516606687970
20871999 31 16917056794417132839
21713013 43 12751236974131543401
21756936 100 17171263985954093380
21864079 5 18410575088995326764
23227448 37 18270682086063624461
23379529 103 10015580636078142332
23402539 116 18060133250249244742
23403322 49 10303824167460778993
23503958 8 10809334533993506717
23559900 14 18048880689437769227
270888 7 18410855464429170389
27216 239 18187932849388589547
2838139 119 18411975858272160356
2871803 45 13470684836844434317
314194 84 8718527424871506641
3472631 163 18344145891080818589
4028521 119 17917713500075888345
4259306 186 10735875075562714073
463206 1 10159692495517414453
465052 167 8934417658826081065
474 4 18411699842335695147
5104073 3 17821726134907675856
57724786 102 18186240611057949180
633830 44 18340764862359618854
76465 3 9295279543724866169
7808743 9 18339641260508179520
960060 61 12822998816932419809

>  <PUBCHEM_SHAPE_MULTIPOLES>  (1) 
370.43
9.85
2.65
1.25
0.09
0.43
0.1
9.9
0.04
0.11
-0.31
-0.09
-0.21
-0.14

>  <PUBCHEM_SHAPE_SELFOVERLAP>  (1) 
778.782

>  <PUBCHEM_SHAPE_VOLUME>  (1) 
199.6

>  <PUBCHEM_COORDINATE_TYPE>  (1) 
2
5
10

$$$$
