25074
     RDKit          3D

 15 15  0  0  0  0  0  0  0  0999 V2000
    2.0630    0.0018   -0.9601 O   0  0  0  0  0  0  0  0  0  0  0  0
    2.5323    0.3000    1.2975 O   0  0  0  0  0  0  0  0  0  0  0  0
   -4.0648    1.9546    0.1795 O   0  0  0  0  0  0  0  0  0  0  0  0
   -3.3297   -0.2910    0.3089 N   0  0  0  0  0  0  0  0  0  0  0  0
    4.2371    0.2645   -0.2756 N   0  0  0  0  0  0  0  0  0  0  0  0
   -1.1912   -1.3895   -0.0328 C   0  0  0  0  0  0  0  0  0  0  0  0
   -1.9703   -0.2327   -0.0083 C   0  0  0  0  0  0  0  0  0  0  0  0
    0.1643   -1.3109   -0.3525 C   0  0  0  0  0  0  0  0  0  0  0  0
    0.7406   -0.0753   -0.6477 C   0  0  0  0  0  0  0  0  0  0  0  0
   -1.3941    1.0027   -0.3035 C   0  0  0  0  0  0  0  0  0  0  0  0
   -0.0386    1.0814   -0.6232 C   0  0  0  0  0  0  0  0  0  0  0  0
   -1.7826   -2.7262    0.2780 C   0  0  0  0  0  0  0  0  0  0  0  0
    2.9224    0.1994    0.1379 C   0  0  0  0  0  0  0  0  0  0  0  0
   -4.2373    0.7600    0.3766 C   0  0  0  0  0  0  0  0  0  0  0  0
    5.3488    0.4612    0.6253 C   0  0  0  0  0  0  0  0  0  0  0  0
  1  9  1  0
  1 13  1  0
  2 13  2  0
  3 14  2  0
  4  7  1  0
  4 14  1  0
  5 13  1  0
  5 15  1  0
  6  7  2  0
  6  8  1  0
  6 12  1  0
  7 10  1  0
  8  9  2  0
  9 11  1  0
 10 11  2  0
M  END
>  <PUBCHEM_COMPOUND_CID>  (1) 
25074

>  <PUBCHEM_CONFORMER_RMSD>  (1) 
0.6

>  <PUBCHEM_CONFORMER_DIVERSEORDER>  (1) 
1
8
18
50
44
31
35
23
56
42
39
59
41
24
54
27
48
7
38
40
53
30
46
51
16
9
52
5
25
20
47
29
10
34
37
57
32
33
19
28
49
13
4
22
26
15
17
55
58
12
36
43
45
2
11
14
3
6
21

>  <PUBCHEM_MMFF94_PARTIAL_CHARGES>  (1) 
21
1 -0.23
10 -0.15
11 -0.15
12 0.14
13 0.78
14 0.57
15 0.3
16 0.15
17 0.15
18 0.15
2 -0.57
22 0.37
23 0.06
24 0.37
3 -0.57
4 -0.55
5 -0.73
6 -0.14
7 0.12
8 -0.15
9 0.08

>  <PUBCHEM_EFFECTIVE_ROTOR_COUNT>  (1) 
5

>  <PUBCHEM_PHARMACOPHORE_FEATURES>  (1) 
5
1 2 acceptor
1 3 acceptor
1 4 donor
1 5 donor
6 6 7 8 9 10 11 rings

>  <PUBCHEM_HEAVY_ATOM_COUNT>  (1) 
15

>  <PUBCHEM_ATOM_DEF_STEREO_COUNT>  (1) 
0

>  <PUBCHEM_ATOM_UDEF_STEREO_COUNT>  (1) 
0

>  <PUBCHEM_BOND_DEF_STEREO_COUNT>  (1) 
0

>  <PUBCHEM_BOND_UDEF_STEREO_COUNT>  (1) 
0

>  <PUBCHEM_ISOTOPIC_ATOM_COUNT>  (1) 
0

>  <PUBCHEM_COMPONENT_COUNT>  (1) 
1

>  <PUBCHEM_CACTVS_TAUTO_COUNT>  (1) 
4

>  <PUBCHEM_CONFORMER_ID>  (1) 
000061F200000001

>  <PUBCHEM_MMFF94_ENERGY>  (1) 
41.6291

>  <PUBCHEM_FEATURE_SELFOVERLAP>  (1) 
25.371

>  <PUBCHEM_SHAPE_FINGERPRINT>  (1) 
11132069 177 18411143532206339821
11543360 7 15841539761454411869
12119455 92 17346878931686689404
12251169 10 18334294288169970940
124424 183 17632580457180889394
12500047 106 18342173388405085818
13214271 11 18201437016630212478
13380535 76 18412548695546063879
13544592 145 18199483090474590694
15209294 21 18271247123334228369
15375358 24 18202567280534999108
15375462 189 17385714820852156040
16945 1 18336555992389224519
17846911 113 18413108342400381597
18186145 218 17916882213793417717
200 152 12823295701808540180
20510252 161 18341614750493555657
20645477 56 18410575085048382820
20645477 70 16630256814099724198
212916 134 18341600504123536203
21501502 16 18119254114554298781
23402539 116 18342730819488926005
23500284 214 18202007616199949747
23559900 14 18269855167847388182
23598291 2 17677902411928815166
2748010 2 17973449806409642943
366044 4 18410293592981428135
53812653 166 18342458114803719969
7364860 26 17982735173337461007

>  <PUBCHEM_SHAPE_MULTIPOLES>  (1) 
281.12
8.46
1.83
0.85
6.97
1.02
-0.04
-3.4
-2.29
-2.22
-0.09
0.42
-0.05
0.06

>  <PUBCHEM_SHAPE_SELFOVERLAP>  (1) 
579.311

>  <PUBCHEM_SHAPE_VOLUME>  (1) 
158.2

>  <PUBCHEM_COORDINATE_TYPE>  (1) 
2
5
10

$$$$
