25089
     RDKit          3D

 14 14  0  0  0  0  0  0  0  0999 V2000
   -5.0923    0.2612    0.0561 O   0  0  0  0  0  0  0  0  0  0  0  0
   -3.8525   -1.6419   -0.0194 O   0  0  0  0  0  0  0  0  0  0  0  0
    4.4422   -0.3294    0.0144 O   0  0  0  0  0  0  0  0  0  0  0  0
    3.1355   -2.0987    0.0067 O   0  0  0  0  0  0  0  0  0  0  0  0
   -1.5319   -0.3032   -0.0173 N   0  0  0  0  0  0  0  0  0  0  0  0
    3.3040   -0.8559    0.0075 N   0  0  0  0  0  0  0  0  0  0  0  0
   -0.2390    0.2597   -0.0106 C   0  0  0  0  0  0  0  0  0  0  0  0
    0.8828   -0.5693   -0.0053 C   0  0  0  0  0  0  0  0  0  0  0  0
    2.1616   -0.0123    0.0013 C   0  0  0  0  0  0  0  0  0  0  0  0
   -0.0821    1.6457   -0.0092 C   0  0  0  0  0  0  0  0  0  0  0  0
   -2.7236    0.4878   -0.0230 C   0  0  0  0  0  0  0  0  0  0  0  0
    2.3186    1.3736    0.0029 C   0  0  0  0  0  0  0  0  0  0  0  0
    1.1968    2.2026   -0.0024 C   0  0  0  0  0  0  0  0  0  0  0  0
   -3.9200   -0.4197   -0.0016 C   0  0  0  0  0  0  0  0  0  0  0  0
  1 14  1  0
  2 14  2  0
  3  6  1  0
  4  6  2  0
  5  7  1  0
  5 11  1  0
  6  9  1  0
  7  8  2  0
  7 10  1  0
  8  9  1  0
  9 12  2  0
 10 13  2  0
 11 14  1  0
 12 13  1  0
M  CHG  2   3  -1   6   1
M  END
>  <PUBCHEM_COMPOUND_CID>  (1) 
25089

>  <PUBCHEM_CONFORMER_RMSD>  (1) 
0.6

>  <PUBCHEM_CONFORMER_DIVERSEORDER>  (1) 
1
3
12
6
11
9
10
8
7
5
4
2

>  <PUBCHEM_MMFF94_PARTIAL_CHARGES>  (1) 
20
1 -0.65
10 -0.15
11 0.43
12 -0.15
13 -0.15
14 0.66
15 0.15
16 0.4
17 0.15
2 -0.57
20 0.15
21 0.15
22 0.5
3 -0.52
4 -0.52
5 -0.87
6 0.91
7 0.1
8 -0.15
9 0.13

>  <PUBCHEM_EFFECTIVE_ROTOR_COUNT>  (1) 
4

>  <PUBCHEM_PHARMACOPHORE_FEATURES>  (1) 
9
1 1 acceptor
1 2 acceptor
1 3 acceptor
1 3 anion
1 4 acceptor
1 5 cation
1 5 donor
3 1 2 14 anion
6 7 8 9 10 12 13 rings

>  <PUBCHEM_HEAVY_ATOM_COUNT>  (1) 
14

>  <PUBCHEM_ATOM_DEF_STEREO_COUNT>  (1) 
0

>  <PUBCHEM_ATOM_UDEF_STEREO_COUNT>  (1) 
0

>  <PUBCHEM_BOND_DEF_STEREO_COUNT>  (1) 
0

>  <PUBCHEM_BOND_UDEF_STEREO_COUNT>  (1) 
0

>  <PUBCHEM_ISOTOPIC_ATOM_COUNT>  (1) 
0

>  <PUBCHEM_COMPONENT_COUNT>  (1) 
1

>  <PUBCHEM_CACTVS_TAUTO_COUNT>  (1) 
1

>  <PUBCHEM_CONFORMER_ID>  (1) 
0000620100000001

>  <PUBCHEM_MMFF94_ENERGY>  (1) 
43.23

>  <PUBCHEM_FEATURE_SELFOVERLAP>  (1) 
45.809

>  <PUBCHEM_SHAPE_FINGERPRINT>  (1) 
11471102 20 18409727391310599901
11543360 7 15791745121272504759
11806522 49 18409449197994663512
12032990 46 18410857629234345894
12932764 1 17385989694553614867
14251717 144 18410011048135958570
14252887 29 18060425690256655470
14325111 11 18338797939706188013
15375462 478 17989207027616746829
15442244 35 18412548678350363809
15477762 27 18410575093569596118
15501101 241 18334293205664379597
18186145 218 17749380503694529097
200 152 18131345324335572021
20281475 54 18338240353908391612
20645477 70 18410571808004238247
20871998 22 18199755756335928110
21267235 1 18411709772078530782
21501925 9 18413102862127607064
221490 88 18190749823985951467
22485316 2 18410571786334060335
22959321 4 18339363080061255803
23402539 116 18341887480927011431
23402655 69 18410291432639408165
23463225 33 18413390929694364383
3071541 37 18190185766242535492
5104073 3 18339644542205702601
7364860 26 18269272525052513816
77779 3 18409450327903358729
8809292 202 18187931711449317291

>  <PUBCHEM_SHAPE_MULTIPOLES>  (1) 
254.67
8.29
1.86
0.58
6.7
0.22
0
-3.27
-0.08
-1.17
0
0
0.04
-0.01

>  <PUBCHEM_SHAPE_SELFOVERLAP>  (1) 
528.855

>  <PUBCHEM_SHAPE_VOLUME>  (1) 
144.8

>  <PUBCHEM_COORDINATE_TYPE>  (1) 
2
5
10

$$$$
