25094
     RDKit          3D

 15 15  0  0  0  0  0  0  0  0999 V2000
    3.3563    0.0060   -1.8589 Cl  0  0  0  0  0  0  0  0  0  0  0  0
    3.8783   -1.4516    0.6287 Cl  0  0  0  0  0  0  0  0  0  0  0  0
    3.9309    1.4427    0.5885 Cl  0  0  0  0  0  0  0  0  0  0  0  0
    1.2206   -0.0147    1.9011 Cl  0  0  0  0  0  0  0  0  0  0  0  0
   -3.3452   -2.5989    0.1412 Cl  0  0  0  0  0  0  0  0  0  0  0  0
   -3.3400    2.6039    0.1705 Cl  0  0  0  0  0  0  0  0  0  0  0  0
    0.7561    0.0033   -0.7302 N   0  0  0  0  0  0  0  0  0  0  0  0
   -1.1960    1.2027   -0.3001 N   0  0  0  0  0  0  0  0  0  0  0  0
   -1.1988   -1.1969   -0.3141 N   0  0  0  0  0  0  0  0  0  0  0  0
   -3.2286    0.0026    0.1318 N   0  0  0  0  0  0  0  0  0  0  0  0
    3.1385   -0.0039   -0.0934 C   0  0  0  0  0  0  0  0  0  0  0  0
    1.6512   -0.0035    0.2176 C   0  0  0  0  0  0  0  0  0  0  0  0
   -0.6080    0.0030   -0.4345 C   0  0  0  0  0  0  0  0  0  0  0  0
   -2.5090   -1.1194   -0.0306 C   0  0  0  0  0  0  0  0  0  0  0  0
   -2.5065    1.1248   -0.0176 C   0  0  0  0  0  0  0  0  0  0  0  0
  1 11  1  0
  2 11  1  0
  3 11  1  0
  4 12  1  0
  5 14  1  0
  6 15  1  0
  7 12  2  0
  7 13  1  0
  8 13  2  0
  8 15  1  0
  9 13  1  0
  9 14  2  0
 10 14  1  0
 10 15  2  0
 11 12  1  0
M  END
>  <PUBCHEM_COMPOUND_CID>  (1) 
25094

>  <PUBCHEM_CONFORMER_RMSD>  (1) 
0.6

>  <PUBCHEM_CONFORMER_DIVERSEORDER>  (1) 
1
3
2
4

>  <PUBCHEM_MMFF94_PARTIAL_CHARGES>  (1) 
15
1 -0.29
10 -0.62
11 0.93
12 0.6
13 0.8
14 0.8
15 0.8
2 -0.29
3 -0.29
4 -0.21
5 -0.18
6 -0.18
7 -0.63
8 -0.62
9 -0.62

>  <PUBCHEM_EFFECTIVE_ROTOR_COUNT>  (1) 
2

>  <PUBCHEM_PHARMACOPHORE_FEATURES>  (1) 
3
1 7 acceptor
4 7 8 9 13 cation
6 8 9 10 13 14 15 rings

>  <PUBCHEM_HEAVY_ATOM_COUNT>  (1) 
15

>  <PUBCHEM_ATOM_DEF_STEREO_COUNT>  (1) 
0

>  <PUBCHEM_ATOM_UDEF_STEREO_COUNT>  (1) 
0

>  <PUBCHEM_BOND_DEF_STEREO_COUNT>  (1) 
0

>  <PUBCHEM_BOND_UDEF_STEREO_COUNT>  (1) 
1

>  <PUBCHEM_ISOTOPIC_ATOM_COUNT>  (1) 
0

>  <PUBCHEM_COMPONENT_COUNT>  (1) 
1

>  <PUBCHEM_CACTVS_TAUTO_COUNT>  (1) 
1

>  <PUBCHEM_CONFORMER_ID>  (1) 
0000620600000001

>  <PUBCHEM_MMFF94_ENERGY>  (1) 
31.3605

>  <PUBCHEM_FEATURE_SELFOVERLAP>  (1) 
15.223

>  <PUBCHEM_SHAPE_FINGERPRINT>  (1) 
10608611 8 18272649043440594944
11405975 8 18411134697928039096
12173636 292 18410570678200739365
124424 183 17631722769085707874
12500047 106 18339073770747627673
12932764 1 18410583881104241296
13296908 3 17275111621724838798
14289901 80 18335983163916044480
15219456 202 17846504742062860436
15653759 3 18202280324874213163
18186145 218 18060148617526243696
18522853 266 18410015394875003518
19026448 4 18130793369139771380
19026448 5 18114186324028450182
19422 9 18113339704238375382
200 152 16009296708194822687
20279233 1 17060332994627365270
20281475 54 18187083966314280054
20510252 161 18343586273979275211
20645477 56 18339930311918009085
20645477 70 16486700164808571204
20871998 184 18272654597123394487
21524375 3 17984131557752871733
22094290 60 18339930410443579639
22943178 12 18060143137005497494
23503958 8 18335697243342669162
23526113 38 17561081376004801802
23557571 272 18271813453521908996
23559900 14 18058452011324509926
23598291 2 17821734922521500366
23598294 1 18335423461021052987
474 4 17387143172467195028
5104073 3 18411978057637723386
58051976 100 18410009893037773470
6049 1 17917721222463951240
7615 1 17822296815913038452
77492 1 17676490548830680926
77779 3 18410854365475906360
9709674 26 18271807873974523366

>  <PUBCHEM_SHAPE_MULTIPOLES>  (1) 
299.99
7.98
2.26
1.25
2.19
0.01
0.02
0.04
0.03
-2.92
0.26
1.38
-0.01
-0.04

>  <PUBCHEM_SHAPE_SELFOVERLAP>  (1) 
562.963

>  <PUBCHEM_SHAPE_VOLUME>  (1) 
183.1

>  <PUBCHEM_COORDINATE_TYPE>  (1) 
2
5
10

$$$$
