25108
     RDKit          3D

 29 32  0  0  0  0  0  0  0  0999 V2000
   -3.9175    1.1404   -0.6596 S   0  0  0  0  0  0  0  0  0  0  0  0
    3.6624    1.1619    0.1215 S   0  0  0  0  0  0  0  0  0  0  0  0
   -4.7583   -1.0306    0.2734 N   0  0  0  0  0  0  0  0  0  0  0  0
    4.9459   -1.1506   -0.2972 N   0  0  0  0  0  0  0  0  0  0  0  0
   -5.8561   -0.2003    0.2953 C   0  0  0  0  0  0  0  0  0  0  0  0
    5.9517   -0.1818   -0.1163 C   0  0  0  0  0  0  0  0  0  0  0  0
   -5.5791    1.0704   -0.1935 C   0  0  0  0  0  0  0  0  0  0  0  0
    5.4537    1.1193    0.1206 C   0  0  0  0  0  0  0  0  0  0  0  0
   -3.6829   -0.4728   -0.1958 C   0  0  0  0  0  0  0  0  0  0  0  0
    3.6680   -0.5965   -0.2014 C   0  0  0  0  0  0  0  0  0  0  0  0
   -4.8091   -2.4029    0.7318 C   0  0  0  0  0  0  0  0  0  0  0  0
    5.3056   -2.5326   -0.5501 C   0  0  0  0  0  0  0  0  0  0  0  0
   -6.5727    2.0577   -0.2506 C   0  0  0  0  0  0  0  0  0  0  0  0
    6.2941    2.2052    0.3233 C   0  0  0  0  0  0  0  0  0  0  0  0
   -7.1408   -0.5342    0.7471 C   0  0  0  0  0  0  0  0  0  0  0  0
    7.3290   -0.3793   -0.1478 C   0  0  0  0  0  0  0  0  0  0  0  0
   -7.8541    1.7222    0.2008 C   0  0  0  0  0  0  0  0  0  0  0  0
    7.6708    1.9912    0.2888 C   0  0  0  0  0  0  0  0  0  0  0  0
   -8.1350    0.4475    0.6918 C   0  0  0  0  0  0  0  0  0  0  0  0
    8.1843    0.7092    0.0550 C   0  0  0  0  0  0  0  0  0  0  0  0
   -5.1740   -3.3489   -0.3964 C   0  0  0  0  0  0  0  0  0  0  0  0
   -2.4098   -1.1181   -0.3254 C   0  0  0  0  0  0  0  0  0  0  0  0
    5.4681   -3.2937    0.7256 C   0  0  0  0  0  0  0  0  0  0  0  0
    2.4841   -1.2177   -0.3210 C   0  0  0  0  0  0  0  0  0  0  0  0
   -6.3223    3.4365   -0.7671 C   0  0  0  0  0  0  0  0  0  0  0  0
    5.7700    3.5781    0.5738 C   0  0  0  0  0  0  0  0  0  0  0  0
   -1.2337   -0.4814   -0.2029 C   0  0  0  0  0  0  0  0  0  0  0  0
    1.2188   -0.5353   -0.2016 C   0  0  0  0  0  0  0  0  0  0  0  0
    0.0391   -1.1628   -0.3224 C   0  0  0  0  0  0  0  0  0  0  0  0
  1  7  1  0
  1  9  1  0
  2  8  1  0
  2 10  1  0
  3  5  1  0
  3  9  2  0
  3 11  1  0
  4  6  1  0
  4 10  1  0
  4 12  1  0
  5  7  2  0
  5 15  1  0
  6  8  2  0
  6 16  1  0
  7 13  1  0
  8 14  1  0
  9 22  1  0
 10 24  2  0
 11 21  1  0
 12 23  1  0
 13 17  2  0
 13 25  1  0
 14 18  2  0
 14 26  1  0
 15 19  2  0
 16 20  2  0
 17 19  1  0
 18 20  1  0
 22 27  2  0
 24 28  1  0
 27 29  1  0
 28 29  2  0
M  CHG  1   3   1
M  END
>  <PUBCHEM_COMPOUND_CID>  (1) 
25108

>  <PUBCHEM_CONFORMER_RMSD>  (1) 
0.8

>  <PUBCHEM_CONFORMER_DIVERSEORDER>  (1) 
1
13
6
4
12
2
10
11
3
5
7
9
8

>  <PUBCHEM_MMFF94_PARTIAL_CHARGES>  (1) 
38
1 -0.08
10 0.2
11 0.51
12 0.37
13 -0.14
14 -0.14
15 -0.15
16 -0.15
17 -0.15
18 -0.15
19 -0.15
2 -0.2
20 -0.15
22 -0.11
24 -0.15
25 0.14
26 0.14
27 -0.15
28 -0.15
29 -0.15
3 -0.18
34 0.15
35 0.15
36 0.15
37 0.15
38 0.15
39 0.15
4 -0.57
43 0.15
47 0.15
5 0.33
54 0.15
55 0.15
56 0.15
6 0.1
7 0.04
8 0.1
9 0.33

>  <PUBCHEM_EFFECTIVE_ROTOR_COUNT>  (1) 
5.4

>  <PUBCHEM_PHARMACOPHORE_FEATURES>  (1) 
5
1 4 cation
5 1 3 5 7 9 rings
5 2 4 6 8 10 rings
6 5 7 13 15 17 19 rings
6 6 8 14 16 18 20 rings

>  <PUBCHEM_HEAVY_ATOM_COUNT>  (1) 
29

>  <PUBCHEM_ATOM_DEF_STEREO_COUNT>  (1) 
0

>  <PUBCHEM_ATOM_UDEF_STEREO_COUNT>  (1) 
0

>  <PUBCHEM_BOND_DEF_STEREO_COUNT>  (1) 
0

>  <PUBCHEM_BOND_UDEF_STEREO_COUNT>  (1) 
3

>  <PUBCHEM_ISOTOPIC_ATOM_COUNT>  (1) 
0

>  <PUBCHEM_COMPONENT_COUNT>  (1) 
1

>  <PUBCHEM_CACTVS_TAUTO_COUNT>  (1) 
1

>  <PUBCHEM_CONFORMER_ID>  (1) 
0000621400000001

>  <PUBCHEM_MMFF94_ENERGY>  (1) 
81.7248

>  <PUBCHEM_FEATURE_SELFOVERLAP>  (1) 
25.51

>  <PUBCHEM_SHAPE_FINGERPRINT>  (1) 
10 15 18333452041162603113
10066227 112 18342454842007108785
100830 39 18410293588940090721
10411042 1 18052540964459330574
10554248 39 17417813898524942878
10580692 12 18410012151894808058
10625338 131 18339355271310299480
10835480 77 18411980247654312143
11315181 36 17846784010207284659
11409948 8 18262250946321674545
11991303 11 17060330859844172871
125118 31 18408325510318147644
13383665 225 17896057502872454172
13740195 50 18335430063446090617
14347424 109 18337104575956966274
14556957 393 16702035178959949849
14933364 13 18410293613981348566
15183329 4 12535633760315077254
15419008 145 18261944147505688240
15461852 350 17561078142627697111
1577012 14 18272927232588041503
16989713 51 17273126024417469855
17686467 74 18335420214838095387
20157964 124 18342459232075615046
20281389 69 18408605829716111757
21033648 29 18270950349694234346
21130935 74 18260551091362734851
23576562 1 16342842382718376121
24771293 8 18114461279572068076
335507 130 18337676433102873279
3663271 9 18334855034642003122
4073 2 18187650253431306682
4098825 35 18410854377817535113
4144715 1 18335431170429703683
4169191 19 18130510756160315977
444735 82 18335425703210987020
4625314 4 18342178873595515134
504579 68 13758356669832014625
504843 32 17417808491488892991
5265222 85 18410855460988869283
5758199 1 17748827418774948802
6086070 43 16630517488096431419
636775 72 18410575081107460433
68570916 9 18338795723070910758
99344 41 18410011048441926690
9953998 17 18187085070674516055

>  <PUBCHEM_SHAPE_MULTIPOLES>  (1) 
594.54
30.55
3.68
0.79
0.72
0.24
-0.02
12.67
-3.4
-0.72
-0.09
0.36
-0.02
1.51

>  <PUBCHEM_SHAPE_SELFOVERLAP>  (1) 
1257.293

>  <PUBCHEM_SHAPE_VOLUME>  (1) 
337.5

>  <PUBCHEM_COORDINATE_TYPE>  (1) 
2
5
10

$$$$
