25102
     RDKit          3D

 27 29  0  0  0  0  0  0  0  0999 V2000
    0.8120    2.3472    0.2186 O   0  0  0  0  0  0  0  0  0  0  0  0
    2.8733   -1.9472    0.3170 O   0  0  0  0  0  0  0  0  0  0  0  0
    3.6362    1.1420    1.4574 O   0  0  0  0  0  0  0  0  0  0  0  0
   -1.7251    2.4150    0.0651 O   0  0  0  0  0  0  0  0  0  0  0  0
   -2.0497   -2.9189    0.0127 O   0  0  0  0  0  0  0  0  0  0  0  0
   -4.2681    2.6590   -0.0894 O   0  0  0  0  0  0  0  0  0  0  0  0
   -6.8249   -1.3247   -0.2713 O   0  0  0  0  0  0  0  0  0  0  0  0
    5.4311    1.1700   -0.8010 C   0  0  0  0  0  0  0  0  0  0  0  0
   -0.5748    0.3665    0.1220 C   0  0  0  0  0  0  0  0  0  0  0  0
    3.9070    1.1995   -0.9401 C   0  0  0  0  0  0  0  0  0  0  0  0
   -0.6603   -1.0273    0.1084 C   0  0  0  0  0  0  0  0  0  0  0  0
    1.8365    0.2156    0.2673 C   0  0  0  0  0  0  0  0  0  0  0  0
    5.9597   -0.2246   -0.4508 C   0  0  0  0  0  0  0  0  0  0  0  0
    0.6769    0.9884    0.2018 C   0  0  0  0  0  0  0  0  0  0  0  0
   -3.1113    0.5237   -0.0316 C   0  0  0  0  0  0  0  0  0  0  0  0
    3.1449    0.8571    0.3505 C   0  0  0  0  0  0  0  0  0  0  0  0
   -3.1969   -0.8700   -0.0451 C   0  0  0  0  0  0  0  0  0  0  0  0
   -1.7971    1.1930    0.0528 C   0  0  0  0  0  0  0  0  0  0  0  0
   -1.9746   -1.6965    0.0248 C   0  0  0  0  0  0  0  0  0  0  0  0
    1.7512   -1.1752    0.2536 C   0  0  0  0  0  0  0  0  0  0  0  0
    0.5059   -1.7991    0.1743 C   0  0  0  0  0  0  0  0  0  0  0  0
    7.4854   -0.2295   -0.3524 C   0  0  0  0  0  0  0  0  0  0  0  0
   -4.2775    1.2956   -0.0987 C   0  0  0  0  0  0  0  0  0  0  0  0
   -4.4486   -1.4920   -0.1255 C   0  0  0  0  0  0  0  0  0  0  0  0
    8.0198   -1.6202   -0.0496 C   0  0  0  0  0  0  0  0  0  0  0  0
   -5.6081   -0.7192   -0.1921 C   0  0  0  0  0  0  0  0  0  0  0  0
   -5.5228    0.6716   -0.1786 C   0  0  0  0  0  0  0  0  0  0  0  0
  1 14  1  0
  2 20  1  0
  3 16  2  0
  4 18  2  0
  5 19  2  0
  6 23  1  0
  7 26  1  0
  8 10  1  0
  8 13  1  0
  9 11  2  0
  9 14  1  0
  9 18  1  0
 10 16  1  0
 11 19  1  0
 11 21  1  0
 12 14  2  0
 12 16  1  0
 12 20  1  0
 13 22  1  0
 15 17  2  0
 15 18  1  0
 15 23  1  0
 17 19  1  0
 17 24  1  0
 20 21  2  0
 22 25  1  0
 23 27  2  0
 24 26  2  0
 26 27  1  0
M  END
>  <PUBCHEM_COMPOUND_CID>  (1) 
25102

>  <PUBCHEM_CONFORMER_RMSD>  (1) 
0.8

>  <PUBCHEM_CONFORMER_DIVERSEORDER>  (1) 
2
22
11
19
13
20
24
18
16
14
7
4
23
15
8
10
9
6
3
21
17
12
1
5

>  <PUBCHEM_MMFF94_PARTIAL_CHARGES>  (1) 
30
1 -0.53
10 0.06
11 0.09
12 0.09
14 0.08
15 0.09
16 0.42
17 0.09
18 0.4
19 0.4
2 -0.53
20 0.08
21 -0.15
23 0.08
24 -0.15
26 0.08
27 -0.15
3 -0.57
36 0.15
37 0.15
4 -0.57
41 0.15
42 0.45
43 0.45
44 0.45
45 0.45
5 -0.57
6 -0.53
7 -0.53
9 0.09

>  <PUBCHEM_EFFECTIVE_ROTOR_COUNT>  (1) 
5

>  <PUBCHEM_PHARMACOPHORE_FEATURES>  (1) 
12
1 1 donor
1 2 donor
1 25 hydrophobe
1 3 acceptor
1 4 acceptor
1 5 acceptor
1 6 donor
1 7 donor
4 8 10 13 22 hydrophobe
6 15 17 23 24 26 27 rings
6 9 11 12 14 20 21 rings
6 9 11 15 17 18 19 rings

>  <PUBCHEM_HEAVY_ATOM_COUNT>  (1) 
27

>  <PUBCHEM_ATOM_DEF_STEREO_COUNT>  (1) 
0

>  <PUBCHEM_ATOM_UDEF_STEREO_COUNT>  (1) 
0

>  <PUBCHEM_BOND_DEF_STEREO_COUNT>  (1) 
0

>  <PUBCHEM_BOND_UDEF_STEREO_COUNT>  (1) 
0

>  <PUBCHEM_ISOTOPIC_ATOM_COUNT>  (1) 
0

>  <PUBCHEM_COMPONENT_COUNT>  (1) 
1

>  <PUBCHEM_CACTVS_TAUTO_COUNT>  (1) 
327

>  <PUBCHEM_CONFORMER_ID>  (1) 
0000620E00000002

>  <PUBCHEM_MMFF94_ENERGY>  (1) 
75.5913

>  <PUBCHEM_FEATURE_SELFOVERLAP>  (1) 
60.938

>  <PUBCHEM_SHAPE_FINGERPRINT>  (1) 
10411042 1 17977667838374142531
10670039 82 18335980895931037204
10730089 173 18410576184232755101
11315181 36 17846784022121593216
11524674 6 16917349251087389918
11578080 2 17024853876086621719
11719270 70 18202283581441151302
11963148 33 18336538429963171803
12011746 2 18411416241587309453
12166972 35 18186804699262438004
12236239 1 17894914048959407636
12390115 104 18272380733155870817
12788726 201 17988365862740957513
13140716 1 17977937205452073305
13288520 33 18413672426494207453
13533116 47 16081635709001753168
13782708 43 17560518525015418502
13862211 1 18412546539139801404
14251752 14 18408887330689388598
14790565 3 18409453557217962701
15183329 4 18336273384084356262
15196674 1 18410571752475319539
15927050 60 18260264178662489946
18608769 82 18336271257733264059
18681886 176 18409445921151303904
19611394 137 17751095797652851507
21236236 1 18412547604318298393
21267235 1 18410014373010176083
21279426 13 18269277876380811222
23402539 116 18412544319100827516
23559900 14 18270394009917612232
23569917 315 18334866017185258466
3004659 81 18333169475644124136
335352 9 18410574006705441774
350125 39 18409164373106972842
3545911 37 18410292523064936619
4073 2 17968663856302224266
4325135 7 18334012791892321959
5104073 3 18339076000273388227
559249 180 18410012113846861366
59755656 215 18411421692175543494
59755656 520 17095521820291926146
6138700 20 18409731742623965742

>  <PUBCHEM_SHAPE_MULTIPOLES>  (1) 
514.56
17.09
2.49
0.75
19.11
0.02
-0.04
3.3
2.89
-1.26
-0.06
0.56
-0.13
-0.26

>  <PUBCHEM_SHAPE_SELFOVERLAP>  (1) 
1131.267

>  <PUBCHEM_SHAPE_VOLUME>  (1) 
276.2

>  <PUBCHEM_COORDINATE_TYPE>  (1) 
2
5
10

$$$$
