25115
     RDKit          3D

 22 24  0  0  0  0  0  0  0  0999 V2000
    4.1722   -1.1623   -0.6582 F   0  0  0  0  0  0  0  0  0  0  0  0
   -4.3887    0.4697    0.9015 O   0  0  0  0  0  0  0  0  0  0  0  0
   -3.0630    1.9458   -1.0402 O   0  0  0  0  0  0  0  0  0  0  0  0
    1.1633   -2.3617   -0.5651 N   0  0  0  0  0  0  0  0  0  0  0  0
   -1.3010   -1.4613    0.5622 C   0  0  0  0  0  0  0  0  0  0  0  0
   -0.6289   -0.7026   -0.4046 C   0  0  0  0  0  0  0  0  0  0  0  0
   -0.6155   -2.6647    1.1381 C   0  0  0  0  0  0  0  0  0  0  0  0
    0.7254   -1.1683   -0.7979 C   0  0  0  0  0  0  0  0  0  0  0  0
    0.2438   -3.3165    0.0627 C   0  0  0  0  0  0  0  0  0  0  0  0
    1.6503   -0.2040   -1.5008 C   0  0  0  0  0  0  0  0  0  0  0  0
   -2.5622   -1.0536    1.0052 C   0  0  0  0  0  0  0  0  0  0  0  0
   -1.2210    0.4403   -0.9451 C   0  0  0  0  0  0  0  0  0  0  0  0
   -3.1554    0.0881    0.4660 C   0  0  0  0  0  0  0  0  0  0  0  0
   -2.4877    0.8306   -0.5083 C   0  0  0  0  0  0  0  0  0  0  0  0
    2.5048    0.5208   -0.5094 C   0  0  0  0  0  0  0  0  0  0  0  0
    3.7388   -0.0061   -0.1369 C   0  0  0  0  0  0  0  0  0  0  0  0
    2.0602    1.7230    0.0354 C   0  0  0  0  0  0  0  0  0  0  0  0
    4.5334    0.6733    0.7866 C   0  0  0  0  0  0  0  0  0  0  0  0
    2.8548    2.4025    0.9588 C   0  0  0  0  0  0  0  0  0  0  0  0
    4.0914    1.8775    1.3343 C   0  0  0  0  0  0  0  0  0  0  0  0
   -5.5144   -0.0554    0.2007 C   0  0  0  0  0  0  0  0  0  0  0  0
   -2.8006    3.1849   -0.3851 C   0  0  0  0  0  0  0  0  0  0  0  0
  1 16  1  0
  2 13  1  0
  2 21  1  0
  3 14  1  0
  3 22  1  0
  4  8  2  0
  4  9  1  0
  5  6  2  0
  5  7  1  0
  5 11  1  0
  6  8  1  0
  6 12  1  0
  7  9  1  0
  8 10  1  0
 10 15  1  0
 11 13  2  0
 12 14  2  0
 13 14  1  0
 15 16  2  0
 15 17  1  0
 16 18  1  0
 17 19  2  0
 18 20  2  0
 19 20  1  0
M  END
>  <PUBCHEM_COMPOUND_CID>  (1) 
25115

>  <PUBCHEM_CONFORMER_RMSD>  (1) 
0.8

>  <PUBCHEM_CONFORMER_DIVERSEORDER>  (1) 
7
34
11
35
40
2
38
25
6
33
32
26
23
3
8
4
9
29
1
31
12
41
13
16
42
10
24
39
36
17
18
5
20
27
28
37
15
19
22
21
30
14

>  <PUBCHEM_MMFF94_PARTIAL_CHARGES>  (1) 
28
1 -0.19
10 0.2
11 -0.15
12 -0.15
13 0.08
14 0.08
15 -0.14
16 0.19
17 -0.15
18 -0.15
19 -0.15
2 -0.36
20 -0.15
21 0.28
22 0.28
29 0.15
3 -0.36
30 0.15
31 0.15
32 0.15
33 0.15
34 0.15
4 -0.7
5 -0.14
6 0.09
7 0.14
8 0.3
9 0.25

>  <PUBCHEM_EFFECTIVE_ROTOR_COUNT>  (1) 
4.4

>  <PUBCHEM_PHARMACOPHORE_FEATURES>  (1) 
6
1 2 acceptor
1 3 acceptor
1 4 acceptor
6 15 16 17 18 19 20 rings
6 4 5 6 7 8 9 rings
6 5 6 11 12 13 14 rings

>  <PUBCHEM_HEAVY_ATOM_COUNT>  (1) 
22

>  <PUBCHEM_ATOM_DEF_STEREO_COUNT>  (1) 
0

>  <PUBCHEM_ATOM_UDEF_STEREO_COUNT>  (1) 
0

>  <PUBCHEM_BOND_DEF_STEREO_COUNT>  (1) 
0

>  <PUBCHEM_BOND_UDEF_STEREO_COUNT>  (1) 
0

>  <PUBCHEM_ISOTOPIC_ATOM_COUNT>  (1) 
0

>  <PUBCHEM_COMPONENT_COUNT>  (1) 
1

>  <PUBCHEM_CACTVS_TAUTO_COUNT>  (1) 
1

>  <PUBCHEM_CONFORMER_ID>  (1) 
0000621B00000007

>  <PUBCHEM_MMFF94_ENERGY>  (1) 
82.5404

>  <PUBCHEM_FEATURE_SELFOVERLAP>  (1) 
30.477

>  <PUBCHEM_SHAPE_FINGERPRINT>  (1) 
10366900 7 18335717030467471911
11370993 70 18410004438244515768
11578080 2 16590264165877602343
11640471 11 15769785688428481500
11725454 13 18059851783430198854
12077114 3 18337946904678930280
12403259 226 18411142467123151927
12403259 415 18409168787853591333
12403260 363 18408880746008710197
12596602 18 16298957570591785752
12633257 1 18264476446910765856
12670546 177 11383828290418234666
12788726 201 17102016816034760394
13004483 165 17478598470690843606
13140716 1 18044672012302605137
13402501 40 18412543219257325425
13464514 151 18123751946088076316
14178342 30 18041850489298668325
14251764 3 18410013242837717552
14466204 15 18267575807059843352
14787075 74 18201435934905192969
15295992 7 18272091651316864058
17349148 13 17603870031142190903
1813 80 14851882505284194478
18186145 218 18060704996206095548
19049666 15 18265621987159487044
192875 21 16415205572448288234
20567600 254 18409438198594065517
21033648 29 18411688894606943832
21279426 13 18051135796486607230
21452121 103 18336547110560302195
21524375 3 18411987961542637535
21731228 192 18410852204796464346
22182313 1 17750519477782625023
23402539 116 18334570291759351287
23559900 14 18262818340062377486
351380 180 18412544327374146697
3524813 1 18412263925991878789
4072396 5 17240481416824412699
4340502 62 18411708703444207003
474 4 18059859492917386416
5104073 3 18189627034394879169
58807428 26 18187363250694477611
59755656 215 18261957341085584567
6913067 236 18187075179338408095
7097593 13 18042952359068860776
7364860 26 18193279585493443399
7808743 9 18120101838663249628
81228 2 17828758774551322422
84936 182 18122902023515435257
90316 7 17903078076797392586

>  <PUBCHEM_SHAPE_MULTIPOLES>  (1) 
428.76
8.81
3.24
1.21
0.96
0.49
0.01
-4.61
2.19
0.33
0.31
-0.32
-0.04
1.64

>  <PUBCHEM_SHAPE_SELFOVERLAP>  (1) 
929.386

>  <PUBCHEM_SHAPE_VOLUME>  (1) 
236.8

>  <PUBCHEM_COORDINATE_TYPE>  (1) 
2
5
10

$$$$
