25111
     RDKit          3D

 28 29  0  0  0  0  0  0  0  0999 V2000
    3.5664   -0.4194    0.1763 O   0  0  0  0  0  0  0  0  0  0  0  0
   -4.1383    1.8117    0.0146 O   0  0  0  0  0  0  0  0  0  0  0  0
    3.2301   -2.6961    0.1226 O   0  0  0  0  0  0  0  0  0  0  0  0
   -3.6934   -2.0526   -0.7959 O   0  0  0  0  0  0  0  0  0  0  0  0
    7.1074    0.6020    0.1116 N   0  0  0  0  0  0  0  0  0  0  0  0
   -2.6816   -0.2789    0.3693 N   0  0  0  0  0  0  0  0  0  0  0  0
    5.6527    0.7500    0.1438 C   0  0  0  0  0  0  0  0  0  0  0  0
    7.5214   -0.1197   -1.0910 C   0  0  0  0  0  0  0  0  0  0  0  0
    7.7557    1.9116    0.1705 C   0  0  0  0  0  0  0  0  0  0  0  0
    4.9743   -0.6104    0.1267 C   0  0  0  0  0  0  0  0  0  0  0  0
    9.0250   -0.3364   -1.1110 C   0  0  0  0  0  0  0  0  0  0  0  0
    7.3369    2.6761    1.4148 C   0  0  0  0  0  0  0  0  0  0  0  0
    1.3631   -1.2166    0.2215 C   0  0  0  0  0  0  0  0  0  0  0  0
    2.8086   -1.5508    0.1682 C   0  0  0  0  0  0  0  0  0  0  0  0
   -1.3235   -0.5943    0.3197 C   0  0  0  0  0  0  0  0  0  0  0  0
    0.4587   -2.0678   -0.3799 C   0  0  0  0  0  0  0  0  0  0  0  0
    0.9686   -0.0646    0.8705 C   0  0  0  0  0  0  0  0  0  0  0  0
   -0.8994   -1.7532   -0.3304 C   0  0  0  0  0  0  0  0  0  0  0  0
   -0.3896    0.2499    0.9204 C   0  0  0  0  0  0  0  0  0  0  0  0
   -5.0956   -0.3871    0.0233 C   0  0  0  0  0  0  0  0  0  0  0  0
   -3.7549   -0.9989   -0.1716 C   0  0  0  0  0  0  0  0  0  0  0  0
   -5.2178    0.9846    0.1064 C   0  0  0  0  0  0  0  0  0  0  0  0
   -6.1853   -1.2292    0.1169 C   0  0  0  0  0  0  0  0  0  0  0  0
   -6.4843    1.5390    0.2916 C   0  0  0  0  0  0  0  0  0  0  0  0
   -7.4519   -0.6749    0.3019 C   0  0  0  0  0  0  0  0  0  0  0  0
   -7.6013    0.7092    0.3894 C   0  0  0  0  0  0  0  0  0  0  0  0
   -4.1407    2.7638   -1.0470 C   0  0  0  0  0  0  0  0  0  0  0  0
   -2.7113    3.0530   -1.4531 C   0  0  0  0  0  0  0  0  0  0  0  0
  1 10  1  0
  1 14  1  0
  2 22  1  0
  2 27  1  0
  3 14  2  0
  4 21  2  0
  5  7  1  0
  5  8  1  0
  5  9  1  0
  6 15  1  0
  6 21  1  0
  7 10  1  0
  8 11  1  0
  9 12  1  0
 13 14  1  0
 13 16  2  0
 13 17  1  0
 15 18  2  0
 15 19  1  0
 16 18  1  0
 17 19  2  0
 20 21  1  0
 20 22  2  0
 20 23  1  0
 22 24  1  0
 23 25  2  0
 24 26  2  0
 25 26  1  0
 27 28  1  0
M  END
>  <PUBCHEM_COMPOUND_CID>  (1) 
25111

>  <PUBCHEM_CONFORMER_RMSD>  (1) 
1

>  <PUBCHEM_CONFORMER_DIVERSEORDER>  (1) 
1
17
49
42
44
51
20
70
61
14
23
35
16
58
52
47
63
11
67
33
73
2
55
50
9
60
32
72
13
69
24
5
38
6
41
26
71
28
65
10
12
56
27
57
31
19
25
8
43
4
40
36
15
22
68
21
7
30
53
59
34
18
54
48
64
3
62
46
39
37
29
66
45

>  <PUBCHEM_MMFF94_PARTIAL_CHARGES>  (1) 
34
1 -0.43
10 0.28
13 0.09
14 0.63
15 0.12
16 -0.15
17 -0.15
18 -0.15
19 -0.15
2 -0.36
20 0.09
21 0.54
22 0.08
23 -0.15
24 -0.15
25 -0.15
26 -0.15
27 0.28
3 -0.57
4 -0.57
43 0.15
44 0.15
45 0.15
46 0.15
47 0.37
48 0.15
49 0.15
5 -0.81
50 0.15
51 0.15
6 -0.55
7 0.27
8 0.27
9 0.27

>  <PUBCHEM_EFFECTIVE_ROTOR_COUNT>  (1) 
12

>  <PUBCHEM_PHARMACOPHORE_FEATURES>  (1) 
7
1 2 acceptor
1 3 acceptor
1 4 acceptor
1 5 cation
1 6 donor
6 13 15 16 17 18 19 rings
6 20 22 23 24 25 26 rings

>  <PUBCHEM_HEAVY_ATOM_COUNT>  (1) 
28

>  <PUBCHEM_ATOM_DEF_STEREO_COUNT>  (1) 
0

>  <PUBCHEM_ATOM_UDEF_STEREO_COUNT>  (1) 
0

>  <PUBCHEM_BOND_DEF_STEREO_COUNT>  (1) 
0

>  <PUBCHEM_BOND_UDEF_STEREO_COUNT>  (1) 
0

>  <PUBCHEM_ISOTOPIC_ATOM_COUNT>  (1) 
0

>  <PUBCHEM_COMPONENT_COUNT>  (1) 
1

>  <PUBCHEM_CACTVS_TAUTO_COUNT>  (1) 
3

>  <PUBCHEM_CONFORMER_ID>  (1) 
0000621700000001

>  <PUBCHEM_MMFF94_ENERGY>  (1) 
83.8259

>  <PUBCHEM_FEATURE_SELFOVERLAP>  (1) 
35.522

>  <PUBCHEM_SHAPE_FINGERPRINT>  (1) 
10 15 18187366510869638467
10087517 78 18040713645435360381
10369192 42 18202563969220715959
10625338 131 18340198597340493080
106641 1 11963394068381134774
10838868 160 18269263738003477488
11315181 36 18342740707468726201
11991303 11 17275097375582374966
12643181 29 11312049941931679469
13685833 64 8358263635991191746
13726171 33 18192431871125090193
13911987 19 17632857504020210375
14251764 18 17967532376246400682
14556957 393 16271941431984224224
14856354 85 18260551173230733847
14933364 13 18412546496206108594
15183329 4 17775288253093167874
15419008 145 17968925406847059984
15961568 22 18259988145466514341
16994733 274 18114178618509436136
1754911 235 18272931626550315445
17686467 74 18334012839696196323
18603816 31 7997676559873705601
18608769 82 18411133662392806953
19611394 137 17823713056247323043
20281389 69 18334292059535475616
21150785 3 17346882251490836410
21792961 116 17917718976296704626
22224240 67 15646773405275576234
23559900 14 17060048320011036322
23576562 1 17844797273799255133
249057 3 11384111942837849571
34797466 226 18060706074269351662
350125 39 18412543198283135633
4073 2 18260833717084868771
4098825 35 18336264536014337542
4325135 7 18408606954628252325
44280117 145 17986950949873392495
44317340 157 17632008741679550848
5265222 85 18202280342197143687
5758199 1 17967814959562440666
59521270 166 12607416455625501955
59682541 35 18186805802920703345
59682541 52 16845581898982584670

>  <PUBCHEM_SHAPE_MULTIPOLES>  (1) 
542.79
26.76
2.81
1
32.52
1.41
-0.09
10.8
-0.85
-0.25
-0.5
0.82
0.49
1.88

>  <PUBCHEM_SHAPE_SELFOVERLAP>  (1) 
1129.659

>  <PUBCHEM_SHAPE_VOLUME>  (1) 
309.1

>  <PUBCHEM_COORDINATE_TYPE>  (1) 
2
5
10

$$$$
