25120
     RDKit          3D

 20 22  0  0  1  0  0  0  0  0999 V2000
   -0.4006    2.3390    0.2953 O   0  0  0  0  0  0  0  0  0  0  0  0
    3.2062    0.1835   -0.3111 N   0  0  0  0  0  0  0  0  0  0  0  0
    0.7911    0.2410    0.1772 C   0  0  0  0  0  0  0  0  0  0  0  0
    2.0068    1.0206   -0.3194 C   0  0  0  0  0  0  0  0  0  0  0  0
    0.5742   -1.0050   -0.6803 C   0  0  0  0  0  0  0  0  0  0  0  0
    3.5042   -0.2742    1.0532 C   0  0  0  0  0  0  0  0  0  0  0  0
    4.3452    0.9116   -0.8878 C   0  0  0  0  0  0  0  0  0  0  0  0
    4.7279   -1.1917    1.0727 C   0  0  0  0  0  0  0  0  0  0  0  0
    5.5964    0.0331   -0.9318 C   0  0  0  0  0  0  0  0  0  0  0  0
    5.9413   -0.5106    0.4501 C   0  0  0  0  0  0  0  0  0  0  0  0
   -0.6224   -1.8007   -0.1729 C   0  0  0  0  0  0  0  0  0  0  0  0
   -0.4561    1.1187    0.1706 C   0  0  0  0  0  0  0  0  0  0  0  0
   -1.8566   -0.9447   -0.0933 C   0  0  0  0  0  0  0  0  0  0  0  0
   -1.7792    0.4461    0.0757 C   0  0  0  0  0  0  0  0  0  0  0  0
   -3.1192   -1.5529   -0.1467 C   0  0  0  0  0  0  0  0  0  0  0  0
   -2.9476    1.2139    0.1605 C   0  0  0  0  0  0  0  0  0  0  0  0
   -4.2817   -0.7867   -0.0594 C   0  0  0  0  0  0  0  0  0  0  0  0
   -4.1954    0.5950    0.0910 C   0  0  0  0  0  0  0  0  0  0  0  0
   -5.6074   -1.4710   -0.1289 C   0  0  0  0  0  0  0  0  0  0  0  0
   -5.4270    1.4350    0.1853 C   0  0  0  0  0  0  0  0  0  0  0  0
  1 12  2  0
  2  4  1  0
  2  6  1  0
  2  7  1  0
  3  4  1  0
  3  5  1  0
  3 12  1  0
  5 11  1  0
  6  8  1  0
  7  9  1  0
  8 10  1  0
  9 10  1  0
 11 13  1  0
 12 14  1  0
 13 14  2  0
 13 15  1  0
 14 16  1  0
 15 17  2  0
 16 18  2  0
 17 18  1  0
 17 19  1  0
 18 20  1  0
M  END
>  <PUBCHEM_COMPOUND_CID>  (1) 
25120

>  <PUBCHEM_CONFORMER_RMSD>  (1) 
0.6

>  <PUBCHEM_CONFORMER_DIVERSEORDER>  (1) 
5
4
9
12
8
3
10
1
11
7
2
6

>  <PUBCHEM_MMFF94_PARTIAL_CHARGES>  (1) 
18
1 -0.57
11 0.14
12 0.42
13 -0.14
14 0.09
15 -0.15
16 -0.15
17 -0.14
18 -0.14
19 0.14
2 -0.81
20 0.14
3 0.06
38 0.15
39 0.15
4 0.27
6 0.27
7 0.27

>  <PUBCHEM_EFFECTIVE_ROTOR_COUNT>  (1) 
3.8

>  <PUBCHEM_PHARMACOPHORE_FEATURES>  (1) 
5
1 1 acceptor
1 2 cation
6 13 14 15 16 17 18 rings
6 2 6 7 8 9 10 rings
6 3 5 11 12 13 14 rings

>  <PUBCHEM_HEAVY_ATOM_COUNT>  (1) 
20

>  <PUBCHEM_ATOM_DEF_STEREO_COUNT>  (1) 
0

>  <PUBCHEM_ATOM_UDEF_STEREO_COUNT>  (1) 
1

>  <PUBCHEM_BOND_DEF_STEREO_COUNT>  (1) 
0

>  <PUBCHEM_BOND_UDEF_STEREO_COUNT>  (1) 
0

>  <PUBCHEM_ISOTOPIC_ATOM_COUNT>  (1) 
0

>  <PUBCHEM_COMPONENT_COUNT>  (1) 
1

>  <PUBCHEM_CACTVS_TAUTO_COUNT>  (1) 
2

>  <PUBCHEM_CONFORMER_ID>  (1) 
0000622000000005

>  <PUBCHEM_MMFF94_ENERGY>  (1) 
36.8712

>  <PUBCHEM_FEATURE_SELFOVERLAP>  (1) 
25.393

>  <PUBCHEM_SHAPE_FINGERPRINT>  (1) 
10062212 137 18411415137675433687
11315181 36 18060425720305550480
11646440 116 17775013396914164249
11963148 33 18341607165787942671
12107183 9 17539680305851913808
12236239 1 18186521003649802668
12403259 415 17989201572823522113
12788726 201 18341340998295337424
13167823 11 18259702298497581674
13288520 33 18412828010501955351
13533116 47 17894909590983834354
13760787 5 17822010916956365165
13862211 1 18341890835750377567
14251764 18 18335421287356274190
15042514 8 18197779015135116871
15099037 51 18412827996920831733
15183329 4 18260265235244185485
15196674 1 18411981398806040449
15788980 27 18186240623615569377
17349148 13 18343303686289543149
17804303 29 18343863346372154545
17834072 33 18113900472633019558
1813 80 17386009425633815070
18681886 176 18412546544315814700
19489759 90 17418094295686388281
200 152 18187363233756733376
20028762 73 17774436226071682551
20645477 70 15430310288358354368
21033648 29 16199858480195252802
21267235 1 18339368556197481099
21279426 13 18198347260112638846
220451 1 18187370912952471872
2297311 6 18202292389970188308
23175994 123 16845574231347642633
23366157 5 17975126853315408620
23402539 116 18343297067956047109
23522609 53 18118432641951288165
23536379 177 17603302639569969541
23557571 272 17988937664220665671
23559900 14 18273213131924424688
3004659 81 18334580140298468668
335352 9 18411980265715441925
34797466 226 17703239524469528180
34934 24 18341047407494991439
4214541 1 18410012139105079085
4340502 62 14405191689488116733
465052 167 18410298050988929782
474 4 17387422461585185244
5104073 3 18341898545248167225
542803 24 17748828518544707670
559249 180 18408317766011909003
59755656 215 18272093751593379942
59755656 520 17385442133869345107
67856867 119 18263082270657262036
7226269 152 18131354081447283201

>  <PUBCHEM_SHAPE_MULTIPOLES>  (1) 
400.74
13.73
1.8
0.87
6.06
0.12
0.03
-1.54
0.23
-1.52
0.04
0.95
-0.06
-0.92

>  <PUBCHEM_SHAPE_SELFOVERLAP>  (1) 
847.285

>  <PUBCHEM_SHAPE_VOLUME>  (1) 
225.2

>  <PUBCHEM_COORDINATE_TYPE>  (1) 
2
5
10

$$$$
