25128
     RDKit          3D

  6  5  0  0  0  0  0  0  0  0999 V2000
    2.1983    0.8785    0.2366 F   0  0  0  0  0  0  0  0  0  0  0  0
   -0.4075    0.1113   -0.2274 O   0  0  0  0  0  0  0  0  0  0  0  0
   -2.6444    0.5008   -0.1164 O   0  0  0  0  0  0  0  0  0  0  0  0
   -1.6712   -0.3404    0.2451 N   0  0  0  0  0  0  0  0  0  0  0  0
    0.5904   -0.8146    0.1818 C   0  0  0  0  0  0  0  0  0  0  0  0
    1.9343   -0.3356   -0.3197 C   0  0  0  0  0  0  0  0  0  0  0  0
  1  6  1  0
  2  4  1  0
  2  5  1  0
  3  4  2  0
  5  6  1  0
M  END
>  <PUBCHEM_COMPOUND_CID>  (1) 
25128

>  <PUBCHEM_CONFORMER_RMSD>  (1) 
0.4

>  <PUBCHEM_CONFORMER_DIVERSEORDER>  (1) 
1
33
3
31
8
25
32
9
22
4
15
7
6
14
21
5
20
2
13
24
11
23
12
17
10
16
28
29
18
19
30
27
26

>  <PUBCHEM_MMFF94_PARTIAL_CHARGES>  (1) 
6
1 -0.34
2 -0.09
3 -0.3
4 0.12
5 0.28
6 0.34

>  <PUBCHEM_EFFECTIVE_ROTOR_COUNT>  (1) 
3

>  <PUBCHEM_PHARMACOPHORE_FEATURES>  (1) 
0

>  <PUBCHEM_HEAVY_ATOM_COUNT>  (1) 
6

>  <PUBCHEM_ATOM_DEF_STEREO_COUNT>  (1) 
0

>  <PUBCHEM_ATOM_UDEF_STEREO_COUNT>  (1) 
0

>  <PUBCHEM_BOND_DEF_STEREO_COUNT>  (1) 
0

>  <PUBCHEM_BOND_UDEF_STEREO_COUNT>  (1) 
0

>  <PUBCHEM_ISOTOPIC_ATOM_COUNT>  (1) 
0

>  <PUBCHEM_COMPONENT_COUNT>  (1) 
1

>  <PUBCHEM_CACTVS_TAUTO_COUNT>  (1) 
1

>  <PUBCHEM_CONFORMER_ID>  (1) 
0000622800000001

>  <PUBCHEM_MMFF94_ENERGY>  (1) 
1.1785

>  <PUBCHEM_FEATURE_SELFOVERLAP>  (1) 
0

>  <PUBCHEM_SHAPE_FINGERPRINT>  (1) 
139733 1 18334575754525111374
14390081 3 18411979156949124057
20096714 4 18341049700564370322
21040471 1 18260554462837565550
29004967 10 8790882973686001718
5460574 1 9367344829832897919

>  <PUBCHEM_SHAPE_MULTIPOLES>  (1) 
99.48
3.52
0.85
0.6
1.37
0.01
-0.01
-0.8
-0.07
-0.26
0.05
-0.08
0.02
0.14

>  <PUBCHEM_SHAPE_SELFOVERLAP>  (1) 
170.333

>  <PUBCHEM_SHAPE_VOLUME>  (1) 
66.8

>  <PUBCHEM_COORDINATE_TYPE>  (1) 
2
5
10

$$$$
