25147
     RDKit          3D

 21 22  0  0  0  0  0  0  0  0999 V2000
   -3.4246   -1.5696   -0.9514 O   0  0  0  0  0  0  0  0  0  0  0  0
    0.8264    0.5747    2.1289 O   0  0  0  0  0  0  0  0  0  0  0  0
    2.2479   -2.5027   -1.0297 O   0  0  0  0  0  0  0  0  0  0  0  0
    1.2354   -1.2518    0.6956 N   0  0  0  0  0  0  0  0  0  0  0  0
   -3.6689    0.6290   -0.2545 N   0  0  0  0  0  0  0  0  0  0  0  0
    0.2438   -2.1832    1.1588 C   0  0  0  0  0  0  0  0  0  0  0  0
   -1.0613   -2.0869    0.3751 C   0  0  0  0  0  0  0  0  0  0  0  0
   -1.7136   -0.7058    0.4896 C   0  0  0  0  0  0  0  0  0  0  0  0
   -3.0088   -0.6035   -0.3063 C   0  0  0  0  0  0  0  0  0  0  0  0
    2.5259    0.6107    0.4766 C   0  0  0  0  0  0  0  0  0  0  0  0
    2.9507   -0.3114   -0.4685 C   0  0  0  0  0  0  0  0  0  0  0  0
    1.4209    0.0149    1.2265 C   0  0  0  0  0  0  0  0  0  0  0  0
    2.1233   -1.5101   -0.3365 C   0  0  0  0  0  0  0  0  0  0  0  0
   -4.9141    0.8079   -0.9911 C   0  0  0  0  0  0  0  0  0  0  0  0
   -3.2205    1.7968    0.5004 C   0  0  0  0  0  0  0  0  0  0  0  0
    3.1150    1.8520    0.6019 C   0  0  0  0  0  0  0  0  0  0  0  0
    3.9869   -0.0407   -1.3384 C   0  0  0  0  0  0  0  0  0  0  0  0
   -6.1163    0.4388   -0.1468 C   0  0  0  0  0  0  0  0  0  0  0  0
   -2.3150    2.6813   -0.3317 C   0  0  0  0  0  0  0  0  0  0  0  0
    4.1676    2.1483   -0.2688 C   0  0  0  0  0  0  0  0  0  0  0  0
    4.5992    1.2113   -1.2297 C   0  0  0  0  0  0  0  0  0  0  0  0
  1  9  2  0
  2 12  2  0
  3 13  2  0
  4  6  1  0
  4 12  1  0
  4 13  1  0
  5  9  1  0
  5 14  1  0
  5 15  1  0
  6  7  1  0
  7  8  1  0
  8  9  1  0
 10 11  2  0
 10 12  1  0
 10 16  1  0
 11 13  1  0
 11 17  1  0
 14 18  1  0
 15 19  1  0
 16 20  2  0
 17 21  2  0
 20 21  1  0
M  END
>  <PUBCHEM_COMPOUND_CID>  (1) 
25147

>  <PUBCHEM_CONFORMER_RMSD>  (1) 
0.8

>  <PUBCHEM_CONFORMER_DIVERSEORDER>  (1) 
1
12
4
58
45
50
61
15
72
73
11
26
29
39
35
66
55
36
63
54
14
57
33
51
16
60
46
20
62
67
34
13
2
59
38
48
10
28
32
70
7
31
3
24
56
23
71
41
47
65
40
21
64
69
8
5
9
43
37
53
22
44
25
19
49
6
30
18
52
68
42
17
27

>  <PUBCHEM_MMFF94_PARTIAL_CHARGES>  (1) 
22
1 -0.57
10 0.09
11 0.09
12 0.54
13 0.54
14 0.3
15 0.3
16 -0.15
17 -0.15
2 -0.57
20 -0.15
21 -0.15
3 -0.57
32 0.15
33 0.15
4 -0.42
40 0.15
41 0.15
5 -0.66
6 0.3
8 0.06
9 0.57

>  <PUBCHEM_EFFECTIVE_ROTOR_COUNT>  (1) 
7.2

>  <PUBCHEM_PHARMACOPHORE_FEATURES>  (1) 
5
1 1 acceptor
1 2 acceptor
1 3 acceptor
5 4 10 11 12 13 rings
6 10 11 16 17 20 21 rings

>  <PUBCHEM_HEAVY_ATOM_COUNT>  (1) 
21

>  <PUBCHEM_ATOM_DEF_STEREO_COUNT>  (1) 
0

>  <PUBCHEM_ATOM_UDEF_STEREO_COUNT>  (1) 
0

>  <PUBCHEM_BOND_DEF_STEREO_COUNT>  (1) 
0

>  <PUBCHEM_BOND_UDEF_STEREO_COUNT>  (1) 
0

>  <PUBCHEM_ISOTOPIC_ATOM_COUNT>  (1) 
0

>  <PUBCHEM_COMPONENT_COUNT>  (1) 
1

>  <PUBCHEM_CACTVS_TAUTO_COUNT>  (1) 
1

>  <PUBCHEM_CONFORMER_ID>  (1) 
0000623B00000001

>  <PUBCHEM_MMFF94_ENERGY>  (1) 
37.2211

>  <PUBCHEM_FEATURE_SELFOVERLAP>  (1) 
25.464

>  <PUBCHEM_SHAPE_FINGERPRINT>  (1) 
10498660 4 18334570252925251853
10670039 82 18187654557083418036
12363563 72 11671787099771622303
12670546 177 18131354115468975869
12730499 353 18410865368903141675
12892183 10 11530751639691824094
13464514 151 18409456873328295762
13965767 371 17023450967668485839
1420 369 10807938175896161797
14931854 50 18341616988192772189
15163728 17 17751952295989110574
15210252 30 18409448124069067872
15885798 251 10807937072216225675
18186145 218 18129398149272258642
20403669 9 10231763283615188949
21864079 5 18188486874505698353
221357 26 18202004300374765005
22393880 68 18130509742548365870
23114952 82 18270971137204383286
23402655 69 18272936032991536526
23557571 272 18043264619712266219
2637199 183 18410016498528377235
2838139 119 18042686281492390940
3009799 131 18272376361142732158
4028521 119 18408886273547262949
46194498 28 18200038339113794103
474 4 17821454572720764997
5281201 14 18199190594289785015
5895379 119 18056757620576515848
6442390 28 18187369860960564371
7808743 9 18041841838727878348
8988823 20 11819288767130245903

>  <PUBCHEM_SHAPE_MULTIPOLES>  (1) 
404.6
10.77
2.7
1.31
9.28
0.05
0.23
-5.6
-4.09
-0.4
-0.01
-0.7
0.08
0.12

>  <PUBCHEM_SHAPE_SELFOVERLAP>  (1) 
847.045

>  <PUBCHEM_SHAPE_VOLUME>  (1) 
231.6

>  <PUBCHEM_COORDINATE_TYPE>  (1) 
2
5
10

$$$$
