25152
     RDKit          3D

 23 26  0  0  0  0  0  0  0  0999 V2000
    4.2575    2.4625    0.0002 Br  0  0  0  0  0  0  0  0  0  0  0  0
   -1.4113    0.8617    2.3723 O   0  0  0  0  0  0  0  0  0  0  0  0
   -1.4126    0.8584   -2.3734 O   0  0  0  0  0  0  0  0  0  0  0  0
    1.2716    3.0275   -0.0005 O   0  0  0  0  0  0  0  0  0  0  0  0
    0.6602   -0.5575   -0.0001 N   0  0  0  0  0  0  0  0  0  0  0  0
   -0.9216    1.2621   -0.0007 C   0  0  0  0  0  0  0  0  0  0  0  0
   -1.6936    0.7336    1.1957 C   0  0  0  0  0  0  0  0  0  0  0  0
   -1.6938    0.7322   -1.1964 C   0  0  0  0  0  0  0  0  0  0  0  0
    0.4941    0.7850   -0.0005 C   0  0  0  0  0  0  0  0  0  0  0  0
   -2.8725    0.0227    0.6962 C   0  0  0  0  0  0  0  0  0  0  0  0
   -2.8727    0.0220   -0.6960 C   0  0  0  0  0  0  0  0  0  0  0  0
    1.5331    1.6935   -0.0007 C   0  0  0  0  0  0  0  0  0  0  0  0
   -3.8735   -0.5925    1.4223 C   0  0  0  0  0  0  0  0  0  0  0  0
   -3.8738   -0.5939   -1.4215 C   0  0  0  0  0  0  0  0  0  0  0  0
    1.9159   -1.0437    0.0000 C   0  0  0  0  0  0  0  0  0  0  0  0
    3.0426   -0.1950   -0.0001 C   0  0  0  0  0  0  0  0  0  0  0  0
    2.8258    1.1895   -0.0005 C   0  0  0  0  0  0  0  0  0  0  0  0
   -4.8965   -1.2188    0.7050 C   0  0  0  0  0  0  0  0  0  0  0  0
   -4.8967   -1.2194   -0.7034 C   0  0  0  0  0  0  0  0  0  0  0  0
    2.1318   -2.4189    0.0005 C   0  0  0  0  0  0  0  0  0  0  0  0
    4.3392   -0.7368    0.0002 C   0  0  0  0  0  0  0  0  0  0  0  0
    3.4208   -2.9579    0.0007 C   0  0  0  0  0  0  0  0  0  0  0  0
    4.5261   -2.1161    0.0006 C   0  0  0  0  0  0  0  0  0  0  0  0
  1 17  1  0
  2  7  2  0
  3  8  2  0
  4 12  1  0
  5  9  2  0
  5 15  1  0
  6  7  1  0
  6  8  1  0
  6  9  1  0
  7 10  1  0
  8 11  1  0
  9 12  1  0
 10 11  2  0
 10 13  1  0
 11 14  1  0
 12 17  2  0
 13 18  2  0
 14 19  2  0
 15 16  2  0
 15 20  1  0
 16 17  1  0
 16 21  1  0
 18 19  1  0
 20 22  2  0
 21 23  2  0
 22 23  1  0
M  END
>  <PUBCHEM_COMPOUND_CID>  (1) 
25152

>  <PUBCHEM_CONFORMER_RMSD>  (1) 
0.6

>  <PUBCHEM_CONFORMER_DIVERSEORDER>  (1) 
1
3
2
4

>  <PUBCHEM_MMFF94_PARTIAL_CHARGES>  (1) 
31
1 -0.11
10 0.09
11 0.09
12 0.08
13 -0.15
14 -0.15
15 0.31
17 0.11
18 -0.15
19 -0.15
2 -0.57
20 -0.15
21 -0.15
22 -0.15
23 -0.15
25 0.15
26 0.15
27 0.15
28 0.15
29 0.15
3 -0.57
30 0.15
31 0.15
32 0.15
33 0.45
4 -0.53
5 -0.62
6 0.27
7 0.42
8 0.42
9 0.17

>  <PUBCHEM_EFFECTIVE_ROTOR_COUNT>  (1) 
1.2

>  <PUBCHEM_PHARMACOPHORE_FEATURES>  (1) 
10
1 1 hydrophobe
1 2 acceptor
1 3 acceptor
1 4 donor
1 5 acceptor
1 6 anion
5 6 7 8 10 11 rings
6 10 11 13 14 18 19 rings
6 15 16 20 21 22 23 rings
6 5 9 12 15 16 17 rings

>  <PUBCHEM_HEAVY_ATOM_COUNT>  (1) 
23

>  <PUBCHEM_ATOM_DEF_STEREO_COUNT>  (1) 
0

>  <PUBCHEM_ATOM_UDEF_STEREO_COUNT>  (1) 
0

>  <PUBCHEM_BOND_DEF_STEREO_COUNT>  (1) 
0

>  <PUBCHEM_BOND_UDEF_STEREO_COUNT>  (1) 
0

>  <PUBCHEM_ISOTOPIC_ATOM_COUNT>  (1) 
0

>  <PUBCHEM_COMPONENT_COUNT>  (1) 
1

>  <PUBCHEM_CACTVS_TAUTO_COUNT>  (1) 
8

>  <PUBCHEM_CONFORMER_ID>  (1) 
0000624000000001

>  <PUBCHEM_MMFF94_ENERGY>  (1) 
69.4411

>  <PUBCHEM_FEATURE_SELFOVERLAP>  (1) 
50.859

>  <PUBCHEM_SHAPE_FINGERPRINT>  (1) 
10366900 7 17676775288288822970
11582403 64 16166860096052612933
11595378 159 16845573110403272432
12107183 9 17982745082116890937
12236239 1 17703516596234211617
12363563 72 18261679160148336138
12553582 1 18342177722169596982
12596599 1 17843977939709447790
12596602 18 17203325649708230619
13009979 54 17702673138130339314
13140716 1 17909263925342526744
13533116 47 18271806860841853963
13544592 145 18040152916565294363
13544653 18 18335424551821621551
13583140 156 17917136265283209145
13911987 19 17973737053854964012
14341114 328 17703520968858929395
14386348 63 17748827444998244379
14767858 380 18263664930552845230
14787075 74 17702102680104937064
14790565 3 17759811733579692004
14844126 61 16532286750157632930
15375462 189 17917991702424455241
15961568 22 16515970384337846108
16752209 62 14634875283722504049
17138139 8 17340385413492382895
17357779 13 17967251979348725015
1813 80 18202011988445073820
19862831 5 13695876908498476478
200 152 18342735208934874731
20600515 1 15936969768289407717
20645477 70 18333725840732127248
20715895 44 11460070583078939959
21033650 10 16009026121107913957
21065198 48 18131077047608810825
221490 88 18335420136642636118
22393880 68 17821719516679985867
23557571 272 17240481416181016853
23559900 14 16515683342988163672
23598288 3 17561083562333527233
312423 11 18130518452514857088
3286 77 18408045112765986717
33824 294 18337107964511589256
392239 28 17273386501177471306
46194498 28 17531530987475148967
474 4 17556569173764536888
5104073 3 18411981338613215169
6913067 236 18042390490935683420
7970288 3 18268990886714688910
9709674 26 18259704518979849459

>  <PUBCHEM_SHAPE_MULTIPOLES>  (1) 
456.68
9.97
2.75
1.37
3.22
0.32
0
4.21
0
-4.34
0
1.8
-0.29
0

>  <PUBCHEM_SHAPE_SELFOVERLAP>  (1) 
1026.342

>  <PUBCHEM_SHAPE_VOLUME>  (1) 
247.8

>  <PUBCHEM_COORDINATE_TYPE>  (1) 
2
5
10

$$$$
