25168
     RDKit          3D

 27 30  0  0  1  0  0  0  0  0999 V2000
   -2.4171    2.4633   -1.0075 O   0  0  0  0  0  0  0  0  0  0  0  0
    7.9613   -0.8381   -0.4115 O   0  0  0  0  0  0  0  0  0  0  0  0
    1.5935    0.3952   -0.0475 N   0  0  0  0  0  0  0  0  0  0  0  0
    5.3070    0.0749    0.0608 N   0  0  0  0  0  0  0  0  0  0  0  0
   -2.3764    2.3895    0.4276 C   0  0  0  0  0  0  0  0  0  0  0  0
   -0.8910    0.3097    0.3094 C   0  0  0  0  0  0  0  0  0  0  0  0
   -1.0767    1.7484    0.8735 C   0  0  0  0  0  0  0  0  0  0  0  0
   -2.5539    3.8121    0.9295 C   0  0  0  0  0  0  0  0  0  0  0  0
   -3.4784    4.3859   -0.1147 C   0  0  0  0  0  0  0  0  0  0  0  0
    0.5091   -0.2446    0.6918 C   0  0  0  0  0  0  0  0  0  0  0  0
   -1.9682   -0.6411    0.7323 C   0  0  0  0  0  0  0  0  0  0  0  0
   -2.9603    3.7384   -1.3812 C   0  0  0  0  0  0  0  0  0  0  0  0
    2.8864   -0.1116    0.3882 C   0  0  0  0  0  0  0  0  0  0  0  0
   -2.8137   -1.2692   -0.1967 C   0  0  0  0  0  0  0  0  0  0  0  0
    4.0079    0.5708   -0.3891 C   0  0  0  0  0  0  0  0  0  0  0  0
   -2.1058   -0.8854    2.0991 C   0  0  0  0  0  0  0  0  0  0  0  0
    6.3810    1.0009   -0.3247 C   0  0  0  0  0  0  0  0  0  0  0  0
    5.5737   -1.2619   -0.4880 C   0  0  0  0  0  0  0  0  0  0  0  0
   -3.8127   -2.1579    0.2674 C   0  0  0  0  0  0  0  0  0  0  0  0
    7.7275    0.4567    0.1438 C   0  0  0  0  0  0  0  0  0  0  0  0
    6.9388   -1.7527   -0.0145 C   0  0  0  0  0  0  0  0  0  0  0  0
   -3.0879   -1.7595    2.5553 C   0  0  0  0  0  0  0  0  0  0  0  0
   -2.6897   -1.0352   -1.5759 C   0  0  0  0  0  0  0  0  0  0  0  0
   -3.9366   -2.3923    1.6466 C   0  0  0  0  0  0  0  0  0  0  0  0
   -4.6581   -2.7863   -0.6614 C   0  0  0  0  0  0  0  0  0  0  0  0
   -3.5386   -1.6680   -2.4844 C   0  0  0  0  0  0  0  0  0  0  0  0
   -4.5210   -2.5418   -2.0281 C   0  0  0  0  0  0  0  0  0  0  0  0
  1  5  1  0
  1 12  1  0
  2 20  1  0
  2 21  1  0
  3 10  1  0
  3 13  1  0
  4 15  1  0
  4 17  1  0
  4 18  1  0
  5  7  1  0
  5  8  1  0
  6  7  1  0
  6 10  1  0
  6 11  1  0
  8  9  1  0
  9 12  1  0
 11 14  1  0
 11 16  2  0
 13 15  1  0
 14 19  2  0
 14 23  1  0
 16 22  1  0
 17 20  1  0
 18 21  1  0
 19 24  1  0
 19 25  1  0
 22 24  2  0
 23 26  2  0
 25 27  2  0
 26 27  1  0
M  END
>  <PUBCHEM_COMPOUND_CID>  (1) 
25168

>  <PUBCHEM_CONFORMER_RMSD>  (1) 
1

>  <PUBCHEM_CONFORMER_DIVERSEORDER>  (1) 
1
8
120
113
19
98
73
7
135
147
130
74
32
96
126
54
142
101
15
152
141
83
109
151
13
39
112
132
146
40
27
103
117
23
22
108
21
60
148
94
52
131
10
67
70
105
47
62
140
3
79
14
123
111
91
87
11
144
66
139
138
38
85
125
77
42
81
28
59
44
49
110
51
90
80
78
12
61
53
55
43
97
29
17
104
84
128
129
92
134
119
72
9
63
68
107
2
150
50
116
71
115
24
58
20
5
36
88
35
145
64
57
127
6
122
45
86
121
26
100
4
136
18
56
25
137
154
99
76
124
65
89
33
95
34
153
75
133
48
106
37
69
30
114
46
102
82
31
93
16
41
143
118
149

>  <PUBCHEM_MMFF94_PARTIAL_CHARGES>  (1) 
30
1 -0.56
10 0.27
11 -0.14
12 0.28
13 0.27
15 0.27
16 -0.15
17 0.27
18 0.27
2 -0.56
20 0.28
21 0.28
22 -0.15
23 -0.15
24 -0.15
25 -0.15
26 -0.15
27 -0.15
3 -0.9
4 -0.81
40 0.36
45 0.15
5 0.28
54 0.15
55 0.15
56 0.15
57 0.15
58 0.15
59 0.15
6 0.14

>  <PUBCHEM_EFFECTIVE_ROTOR_COUNT>  (1) 
10.2

>  <PUBCHEM_PHARMACOPHORE_FEATURES>  (1) 
9
1 1 acceptor
1 2 acceptor
1 3 cation
1 3 donor
1 4 cation
5 1 5 8 9 12 rings
6 11 14 16 19 22 24 rings
6 14 19 23 25 26 27 rings
6 2 4 17 18 20 21 rings

>  <PUBCHEM_HEAVY_ATOM_COUNT>  (1) 
27

>  <PUBCHEM_ATOM_DEF_STEREO_COUNT>  (1) 
0

>  <PUBCHEM_ATOM_UDEF_STEREO_COUNT>  (1) 
2

>  <PUBCHEM_BOND_DEF_STEREO_COUNT>  (1) 
0

>  <PUBCHEM_BOND_UDEF_STEREO_COUNT>  (1) 
0

>  <PUBCHEM_ISOTOPIC_ATOM_COUNT>  (1) 
0

>  <PUBCHEM_COMPONENT_COUNT>  (1) 
1

>  <PUBCHEM_CACTVS_TAUTO_COUNT>  (1) 
1

>  <PUBCHEM_CONFORMER_ID>  (1) 
0000625000000001

>  <PUBCHEM_MMFF94_ENERGY>  (1) 
63.071

>  <PUBCHEM_FEATURE_SELFOVERLAP>  (1) 
45.698

>  <PUBCHEM_SHAPE_FINGERPRINT>  (1) 
11101153 10 18264494060688243316
11315181 36 17530969120486390880
11809386 21 18410568462303900922
12788726 201 18336251372186988795
13150687 139 18051128099652265141
13540713 5 17897990366076348850
13690498 29 18272363191976228974
13782708 43 18272652351435805506
13911987 19 17971479755991905655
14118638 360 18335422413803926340
14347332 77 18342457075664454884
14508225 48 18335977692254757989
14556957 393 18261682574447182620
14713325 29 18412823556457378335
15131766 46 15217009558795687837
15183329 4 15719662239163710522
15289351 153 18041849549798733028
15876981 60 18334299755901353044
16114785 44 18262526884140515353
17844677 252 18410581699857239684
1813 80 17985282999803466959
18927931 339 18337120028769190794
20101258 96 18411702123027029257
20771845 65 17557985328251644283
21236236 1 18408042888410861616
23081809 10 17968101898596842366
23522609 53 17415028977881070960
23559900 14 17459747214914084816
283562 15 18334012804677341587
3610482 184 17896341142159240708
4073 2 18260836960844557594
4409770 3 18271240535239453229
484985 159 15051438428064743213
497634 4 17749113296414611742
5080951 261 18130501955482143753
513202 73 18341617031237039423
5171179 24 18129932515665113225
5219985 13 17829892027416510413
531348 171 18342173307112002142
5969126 39 18341046406155792301
59755656 520 17822857459469190353
6431902 208 18410014364468175466
70251023 43 18269828890651765257

>  <PUBCHEM_SHAPE_MULTIPOLES>  (1) 
533.95
17.15
4.54
1.89
53.73
5.88
0.04
-7.64
-3.41
-9.52
-0.71
-3.64
-1.21
-0.08

>  <PUBCHEM_SHAPE_SELFOVERLAP>  (1) 
1125.469

>  <PUBCHEM_SHAPE_VOLUME>  (1) 
300.1

>  <PUBCHEM_COORDINATE_TYPE>  (1) 
2
5
10

$$$$
