25172
     RDKit          3D

 23 24  0  0  1  0  0  0  0  0999 V2000
   -1.1907    0.6775    0.2339 N   0  0  0  0  0  0  0  0  0  0  0  0
   -4.7915   -0.0126   -0.4314 N   0  0  0  0  0  0  0  0  0  0  0  0
    1.1177    1.5777    0.5008 C   0  0  0  0  0  0  0  0  0  0  0  0
   -0.3587    1.8722    0.1120 C   0  0  0  0  0  0  0  0  0  0  0  0
    1.7444    0.5180   -0.3522 C   0  0  0  0  0  0  0  0  0  0  0  0
    1.9152    2.9154    0.4823 C   0  0  0  0  0  0  0  0  0  0  0  0
   -2.5599    0.9584   -0.1710 C   0  0  0  0  0  0  0  0  0  0  0  0
   -3.4148   -0.2988   -0.0425 C   0  0  0  0  0  0  0  0  0  0  0  0
    2.2125   -0.6915    0.1867 C   0  0  0  0  0  0  0  0  0  0  0  0
    1.8493    0.7762   -1.7193 C   0  0  0  0  0  0  0  0  0  0  0  0
    2.7949   -1.6527   -0.6733 C   0  0  0  0  0  0  0  0  0  0  0  0
   -5.4917   -1.2464   -0.7917 C   0  0  0  0  0  0  0  0  0  0  0  0
   -5.4990    0.6762    0.6491 C   0  0  0  0  0  0  0  0  0  0  0  0
    3.3193    2.7543    0.9957 C   0  0  0  0  0  0  0  0  0  0  0  0
    2.1151   -0.9682    1.5602 C   0  0  0  0  0  0  0  0  0  0  0  0
    2.4217   -0.1692   -2.5651 C   0  0  0  0  0  0  0  0  0  0  0  0
    2.8919   -1.3763   -2.0469 C   0  0  0  0  0  0  0  0  0  0  0  0
    3.2629   -2.8624   -0.1346 C   0  0  0  0  0  0  0  0  0  0  0  0
   -5.5825   -2.1923    0.3936 C   0  0  0  0  0  0  0  0  0  0  0  0
   -6.9148    1.0391    0.2343 C   0  0  0  0  0  0  0  0  0  0  0  0
    2.5856   -2.1751    2.0782 C   0  0  0  0  0  0  0  0  0  0  0  0
    3.1584   -3.1204    1.2325 C   0  0  0  0  0  0  0  0  0  0  0  0
    4.4146    3.0011    0.2686 C   0  0  0  0  0  0  0  0  0  0  0  0
  1  4  1  0
  1  7  1  0
  2  8  1  0
  2 12  1  0
  2 13  1  0
  3  4  1  0
  3  5  1  0
  3  6  1  0
  5  9  2  0
  5 10  1  0
  6 14  1  0
  7  8  1  0
  9 11  1  0
  9 15  1  0
 10 16  2  0
 11 17  2  0
 11 18  1  0
 12 19  1  0
 13 20  1  0
 14 23  2  0
 15 21  2  0
 16 17  1  0
 18 22  2  0
 21 22  1  0
M  END
>  <PUBCHEM_COMPOUND_CID>  (1) 
25172

>  <PUBCHEM_CONFORMER_RMSD>  (1) 
1

>  <PUBCHEM_CONFORMER_DIVERSEORDER>  (1) 
1
100
15
5
46
37
82
33
34
58
104
40
90
64
55
99
77
42
9
18
76
27
73
94
62
101
30
28
87
2
83
25
12
14
13
47
88
17
21
75
7
23
51
31
20
38
86
61
93
89
70
4
59
102
43
44
36
78
72
8
48
39
80
53
45
11
52
10
57
29
6
74
32
50
103
60
49
26
96
19
71
66
24
56
3
22
98
85
54
69
35
65
84
79
95
16
91
63
97
81
92
68
41
105
67

>  <PUBCHEM_MMFF94_PARTIAL_CHARGES>  (1) 
30
1 -0.9
10 -0.15
12 0.27
13 0.27
14 -0.29
15 -0.15
16 -0.15
17 -0.15
18 -0.15
2 -0.81
21 -0.15
22 -0.15
23 -0.3
3 0.14
31 0.36
34 0.15
39 0.15
4 0.27
40 0.15
41 0.15
42 0.15
43 0.15
5 -0.14
50 0.15
51 0.15
52 0.15
53 0.15
6 0.14
7 0.27
8 0.27

>  <PUBCHEM_EFFECTIVE_ROTOR_COUNT>  (1) 
10

>  <PUBCHEM_PHARMACOPHORE_FEATURES>  (1) 
6
1 1 cation
1 1 donor
1 2 cation
1 23 hydrophobe
6 5 9 10 11 16 17 rings
6 9 11 15 18 21 22 rings

>  <PUBCHEM_HEAVY_ATOM_COUNT>  (1) 
23

>  <PUBCHEM_ATOM_DEF_STEREO_COUNT>  (1) 
0

>  <PUBCHEM_ATOM_UDEF_STEREO_COUNT>  (1) 
1

>  <PUBCHEM_BOND_DEF_STEREO_COUNT>  (1) 
0

>  <PUBCHEM_BOND_UDEF_STEREO_COUNT>  (1) 
0

>  <PUBCHEM_ISOTOPIC_ATOM_COUNT>  (1) 
0

>  <PUBCHEM_COMPONENT_COUNT>  (1) 
1

>  <PUBCHEM_CACTVS_TAUTO_COUNT>  (1) 
1

>  <PUBCHEM_CONFORMER_ID>  (1) 
0000625400000001

>  <PUBCHEM_MMFF94_ENERGY>  (1) 
51.7709

>  <PUBCHEM_FEATURE_SELFOVERLAP>  (1) 
30.472

>  <PUBCHEM_SHAPE_FINGERPRINT>  (1) 
10498660 4 11242267220598817959
10764073 3 17823675608554089170
10928967 22 18335146384503128555
12107183 9 18054514608730577353
12633257 1 15410028678891273214
13073987 5 18411419545002807089
13533116 47 18335422340382897761
14787075 74 18262529087759489518
14863182 85 17968093161852802992
15183329 4 18342740673019712989
20369508 70 18411136892281878053
20567600 347 18337955722384166320
20600515 1 17624406486003783736
20626108 58 17677889024763802598
20645477 70 18271809046827311253
20775530 9 17682948904208409715
21421861 104 18411693279525492168
23419403 2 17389345318416664900
23558518 356 16760538260186858576
23559900 14 17632304453960839701
239999 70 18272658986268637100
25222932 49 18125999601659501319
3004659 81 18115029602239659575
3411729 13 18271241720276185792
3421961 26 18411696560854022089
4073 2 18263648523450531489
5104073 3 18342464751261286017
57359948 33 17676471870698426045
59755656 215 18341898536463533780
6823239 73 17918003758144558174
960060 61 17894638037149423111
9841814 1 18342175527261707184

>  <PUBCHEM_SHAPE_MULTIPOLES>  (1) 
463.37
12.9
3.72
1.75
32.12
0.1
0.67
-1.47
-0.68
-5.23
-1.44
-2.29
-0.82
-0.21

>  <PUBCHEM_SHAPE_SELFOVERLAP>  (1) 
950.218

>  <PUBCHEM_SHAPE_VOLUME>  (1) 
266.8

>  <PUBCHEM_COORDINATE_TYPE>  (1) 
2
5
10

$$$$
