2518
     RDKit          3D

 13 13  0  0  0  0  0  0  0  0999 V2000
    3.3186   -1.7792    0.1934 O   0  0  0  0  0  0  0  0  0  0  0  0
    4.0965    0.8855    0.0510 O   0  0  0  0  0  0  0  0  0  0  0  0
   -4.5228    0.9658    0.3594 O   0  0  0  0  0  0  0  0  0  0  0  0
   -4.0903   -1.1867   -0.2595 O   0  0  0  0  0  0  0  0  0  0  0  0
    0.0726   -0.1252   -0.1074 C   0  0  0  0  0  0  0  0  0  0  0  0
    1.0351   -1.1271    0.0176 C   0  0  0  0  0  0  0  0  0  0  0  0
    0.4631    1.2120   -0.1786 C   0  0  0  0  0  0  0  0  0  0  0  0
    2.3879   -0.7918    0.0712 C   0  0  0  0  0  0  0  0  0  0  0  0
    2.7784    0.5454   -0.0001 C   0  0  0  0  0  0  0  0  0  0  0  0
    1.8160    1.5474   -0.1248 C   0  0  0  0  0  0  0  0  0  0  0  0
   -1.3381   -0.4747   -0.1632 C   0  0  0  0  0  0  0  0  0  0  0  0
   -2.3075    0.3952    0.1046 C   0  0  0  0  0  0  0  0  0  0  0  0
   -3.7095   -0.0668    0.0363 C   0  0  0  0  0  0  0  0  0  0  0  0
  1  8  1  0
  2  9  1  0
  3 13  1  0
  4 13  2  0
  5  6  2  0
  5  7  1  0
  5 11  1  0
  6  8  1  0
  7 10  2  0
  8  9  2  0
  9 10  1  0
 11 12  2  0
 12 13  1  0
M  END
>  <PUBCHEM_COMPOUND_CID>  (1) 
2518

>  <PUBCHEM_CONFORMER_RMSD>  (1) 
0.6

>  <PUBCHEM_CONFORMER_DIVERSEORDER>  (1) 
1
2

>  <PUBCHEM_MMFF94_PARTIAL_CHARGES>  (1) 
21
1 -0.53
10 -0.15
11 -0.18
12 -0.14
13 0.71
14 0.15
15 0.15
16 0.15
17 0.15
18 0.15
19 0.45
2 -0.53
20 0.45
21 0.5
3 -0.65
4 -0.57
5 0.03
6 -0.15
7 -0.15
8 0.08
9 0.08

>  <PUBCHEM_EFFECTIVE_ROTOR_COUNT>  (1) 
2

>  <PUBCHEM_PHARMACOPHORE_FEATURES>  (1) 
6
1 1 donor
1 2 donor
1 3 acceptor
1 4 acceptor
3 3 4 13 anion
6 5 6 7 8 9 10 rings

>  <PUBCHEM_HEAVY_ATOM_COUNT>  (1) 
13

>  <PUBCHEM_ATOM_DEF_STEREO_COUNT>  (1) 
0

>  <PUBCHEM_ATOM_UDEF_STEREO_COUNT>  (1) 
0

>  <PUBCHEM_BOND_DEF_STEREO_COUNT>  (1) 
0

>  <PUBCHEM_BOND_UDEF_STEREO_COUNT>  (1) 
1

>  <PUBCHEM_ISOTOPIC_ATOM_COUNT>  (1) 
0

>  <PUBCHEM_COMPONENT_COUNT>  (1) 
1

>  <PUBCHEM_CACTVS_TAUTO_COUNT>  (1) 
10

>  <PUBCHEM_CONFORMER_ID>  (1) 
000009D600000001

>  <PUBCHEM_MMFF94_ENERGY>  (1) 
32.604

>  <PUBCHEM_FEATURE_SELFOVERLAP>  (1) 
30.506

>  <PUBCHEM_SHAPE_FINGERPRINT>  (1) 
10219947 1 18412265021176552998
10980938 120 18410011044025373774
11062470 55 18272089404875005033
11471102 20 18408881823882016612
12032990 46 18337392638943783110
12346645 6 18342740710962054414
12932764 1 17346306124809762085
13380535 76 18335702796809125162
14144814 61 18413108359780516017
14251717 144 18408600379001959303
14325111 11 18411419527200354493
14576447 43 18198894997587472183
15219456 202 18187636964628010213
15442244 35 18267587905397049569
15501101 241 18260266343403952092
15536298 74 18342739606997184046
18186145 218 17967811626635825739
200 152 18272923952076597815
20279233 1 17095241436542291739
20645477 70 18410571747737786431
20871998 22 18126004858715295510
21501925 9 18337099090977423426
22485316 2 18409164407287330639
23402539 116 17274819164432577013
23402655 69 18412259528330223461
2748010 2 18192416486430175780
449060 62 18411420635455053572
4990 188 17988094356446273964
5104073 3 18411419505725655379
581208 293 18334855047668835764
77779 3 18410857663947518579

>  <PUBCHEM_SHAPE_MULTIPOLES>  (1) 
244.06
7.78
1.51
0.61
5.93
0.1
-0.01
0.08
0.47
-0.89
0
0.04
-0.01
-0.29

>  <PUBCHEM_SHAPE_SELFOVERLAP>  (1) 
513.996

>  <PUBCHEM_SHAPE_VOLUME>  (1) 
137.2

>  <PUBCHEM_COORDINATE_TYPE>  (1) 
2
5
10

$$$$
