25198
     RDKit          3D

 12 13  0  0  0  0  0  0  0  0999 V2000
    4.2029    0.3405   -0.0029 Br  0  0  0  0  0  0  0  0  0  0  0  0
   -0.9043   -2.6480    0.0002 O   0  0  0  0  0  0  0  0  0  0  0  0
   -3.2320    1.3683   -0.0008 O   0  0  0  0  0  0  0  0  0  0  0  0
    1.6034   -0.9383    0.0010 N   0  0  0  0  0  0  0  0  0  0  0  0
   -0.9269    1.4600    0.0004 N   0  0  0  0  0  0  0  0  0  0  0  0
   -2.0621   -0.6332   -0.0008 N   0  0  0  0  0  0  0  0  0  0  0  0
    1.5164    1.2956    0.0013 N   0  0  0  0  0  0  0  0  0  0  0  0
    0.2797   -0.6080    0.0002 C   0  0  0  0  0  0  0  0  0  0  0  0
    0.2611    0.7631    0.0004 C   0  0  0  0  0  0  0  0  0  0  0  0
   -0.8972   -1.4210   -0.0003 C   0  0  0  0  0  0  0  0  0  0  0  0
   -2.1487    0.7801   -0.0003 C   0  0  0  0  0  0  0  0  0  0  0  0
    2.3077    0.2409    0.0016 C   0  0  0  0  0  0  0  0  0  0  0  0
  1 12  1  0
  2 10  2  0
  3 11  2  0
  4  8  1  0
  4 12  1  0
  5  9  1  0
  5 11  1  0
  6 10  1  0
  6 11  1  0
  7  9  1  0
  7 12  2  0
  8  9  2  0
  8 10  1  0
M  END
>  <PUBCHEM_COMPOUND_CID>  (1) 
25198

>  <PUBCHEM_CONFORMER_RMSD>  (1) 
0.4

>  <PUBCHEM_CONFORMER_DIVERSEORDER>  (1) 
1

>  <PUBCHEM_MMFF94_PARTIAL_CHARGES>  (1) 
15
1 -0.06
10 0.71
11 0.69
12 0.24
13 0.27
14 0.37
15 0.37
2 -0.57
3 -0.57
4 0.03
5 -0.49
6 -0.49
7 -0.57
8 -0.24
9 0.29

>  <PUBCHEM_EFFECTIVE_ROTOR_COUNT>  (1) 
0

>  <PUBCHEM_PHARMACOPHORE_FEATURES>  (1) 
9
1 1 hydrophobe
1 2 acceptor
1 3 acceptor
1 4 donor
1 5 donor
1 6 donor
3 4 7 12 cation
5 4 7 8 9 12 rings
6 5 6 8 9 10 11 rings

>  <PUBCHEM_HEAVY_ATOM_COUNT>  (1) 
12

>  <PUBCHEM_ATOM_DEF_STEREO_COUNT>  (1) 
0

>  <PUBCHEM_ATOM_UDEF_STEREO_COUNT>  (1) 
0

>  <PUBCHEM_BOND_DEF_STEREO_COUNT>  (1) 
0

>  <PUBCHEM_BOND_UDEF_STEREO_COUNT>  (1) 
0

>  <PUBCHEM_ISOTOPIC_ATOM_COUNT>  (1) 
0

>  <PUBCHEM_COMPONENT_COUNT>  (1) 
1

>  <PUBCHEM_CACTVS_TAUTO_COUNT>  (1) 
15

>  <PUBCHEM_CONFORMER_ID>  (1) 
0000626E00000001

>  <PUBCHEM_MMFF94_ENERGY>  (1) 
16.2871

>  <PUBCHEM_FEATURE_SELFOVERLAP>  (1) 
45.821

>  <PUBCHEM_SHAPE_FINGERPRINT>  (1) 
12716758 59 18340764939874387930
13024252 1 14851598895043651245
13380535 76 18341611495140174518
14325111 11 18410575050366871424
15775835 57 18334014956186788096
16945 1 18338797917751199682
193761 8 17978228588596757413
20645476 183 17895778251945094462
20871998 184 18200599236057107638
21040471 1 18410573993788890981
21501502 16 18193277614287772012
23235685 24 18340481184075097900
23402539 116 18270952548770445263
23402655 69 18197201578420231445
23552423 10 18044092595228319092
23559900 14 18343305869251469188
241688 4 16465301181566728291
2748010 2 18265903466478650719
366044 4 18410011005360105665
528886 8 18410851032069789713
53812653 166 18342453725405269912
6333449 129 18412542136898543244
75552 356 18410574028438714734

>  <PUBCHEM_SHAPE_MULTIPOLES>  (1) 
221.23
5.12
1.88
0.58
4.04
0.92
0
-1.56
0
-1.23
0
0.1
0
0

>  <PUBCHEM_SHAPE_SELFOVERLAP>  (1) 
469.187

>  <PUBCHEM_SHAPE_VOLUME>  (1) 
127.4

>  <PUBCHEM_COORDINATE_TYPE>  (1) 
2
5
10

$$$$
