25207
     RDKit          3D

 16 17  0  0  0  0  0  0  0  0999 V2000
    0.0400    0.1192   -1.4074 S   0  0  0  0  0  0  0  0  0  0  0  0
   -0.4312   -1.4614    0.6404 O   0  0  0  0  0  0  0  0  0  0  0  0
    4.2340    0.1563    0.4120 C   0  0  0  0  0  0  0  0  0  0  0  0
    1.6760    0.1334   -0.6975 C   0  0  0  0  0  0  0  0  0  0  0  0
    3.9919   -0.5473   -0.7676 C   0  0  0  0  0  0  0  0  0  0  0  0
    3.1966    0.8484    1.0369 C   0  0  0  0  0  0  0  0  0  0  0  0
    2.7122   -0.5587   -1.3228 C   0  0  0  0  0  0  0  0  0  0  0  0
    1.9170    0.8371    0.4819 C   0  0  0  0  0  0  0  0  0  0  0  0
   -2.3284   -0.2208    0.0079 C   0  0  0  0  0  0  0  0  0  0  0  0
    5.6019    0.1677    1.0061 C   0  0  0  0  0  0  0  0  0  0  0  0
   -0.9323   -0.6100   -0.1098 C   0  0  0  0  0  0  0  0  0  0  0  0
   -3.2720   -1.1393    0.4681 C   0  0  0  0  0  0  0  0  0  0  0  0
   -2.7241    1.0711   -0.3388 C   0  0  0  0  0  0  0  0  0  0  0  0
   -4.6113   -0.7660    0.5814 C   0  0  0  0  0  0  0  0  0  0  0  0
   -4.0634    1.4444   -0.2254 C   0  0  0  0  0  0  0  0  0  0  0  0
   -5.0069    0.5257    0.2347 C   0  0  0  0  0  0  0  0  0  0  0  0
  1  4  1  0
  1 11  1  0
  2 11  2  0
  3  5  2  0
  3  6  1  0
  3 10  1  0
  4  7  2  0
  4  8  1  0
  5  7  1  0
  6  8  2  0
  9 11  1  0
  9 12  2  0
  9 13  1  0
 12 14  1  0
 13 15  2  0
 14 16  2  0
 15 16  1  0
M  END
>  <PUBCHEM_COMPOUND_CID>  (1) 
25207

>  <PUBCHEM_CONFORMER_RMSD>  (1) 
0.6

>  <PUBCHEM_CONFORMER_DIVERSEORDER>  (1) 
1
19
13
16
28
7
22
8
25
4
2
24
3
27
11
26
14
12
30
5
29
31
21
23
6
10
9
15
18
17
20

>  <PUBCHEM_MMFF94_PARTIAL_CHARGES>  (1) 
25
1 -0.24
10 0.14
11 0.62
12 -0.15
13 -0.15
14 -0.15
15 -0.15
16 -0.15
17 0.15
18 0.15
19 0.15
2 -0.57
20 0.15
24 0.15
25 0.15
26 0.15
27 0.15
28 0.15
3 -0.14
4 0.1
5 -0.15
6 -0.15
7 -0.15
8 -0.15
9 0.09

>  <PUBCHEM_EFFECTIVE_ROTOR_COUNT>  (1) 
3

>  <PUBCHEM_PHARMACOPHORE_FEATURES>  (1) 
2
6 3 4 5 6 7 8 rings
6 9 12 13 14 15 16 rings

>  <PUBCHEM_HEAVY_ATOM_COUNT>  (1) 
16

>  <PUBCHEM_ATOM_DEF_STEREO_COUNT>  (1) 
0

>  <PUBCHEM_ATOM_UDEF_STEREO_COUNT>  (1) 
0

>  <PUBCHEM_BOND_DEF_STEREO_COUNT>  (1) 
0

>  <PUBCHEM_BOND_UDEF_STEREO_COUNT>  (1) 
0

>  <PUBCHEM_ISOTOPIC_ATOM_COUNT>  (1) 
0

>  <PUBCHEM_COMPONENT_COUNT>  (1) 
1

>  <PUBCHEM_CACTVS_TAUTO_COUNT>  (1) 
1

>  <PUBCHEM_CONFORMER_ID>  (1) 
0000627700000001

>  <PUBCHEM_MMFF94_ENERGY>  (1) 
45.4344

>  <PUBCHEM_FEATURE_SELFOVERLAP>  (1) 
10.149

>  <PUBCHEM_SHAPE_FINGERPRINT>  (1) 
10912923 1 17240492424044792869
11132069 177 18260833683241081309
11287383 113 17489869358238469551
12119455 92 17632856425561101429
12236239 1 16805042921354433252
12507557 5 17704071823904714593
12596602 18 17385445457208823744
128620 24 12823297905232303501
13583140 156 17774717657797499935
13675066 3 18413393141639497087
13760787 5 15502378941014084830
14123238 8 17418375800506206743
14251764 38 17988927742926262489
15188451 53 18187922954180111011
15375358 24 18131070441790860254
15375462 189 16081082684480388428
17834072 33 15502383356345823507
17862501 102 17822013142271767747
1813 80 15647055911208221294
18186145 218 16988572302756398471
19422 9 16515692168760900118
19489759 90 18334572443542981201
20279233 1 18202006533615074407
204376 136 16702303463970261479
20645477 56 18131347531326360973
20645477 70 17203616934680233622
21033648 29 17845923061520126441
21267235 1 14996282488177227696
22646028 1 16732703865377521399
22854114 59 18131634486602187575
23402539 116 18272643567478274269
23402655 69 15339119039538129940
23557571 272 18272937154521313251
23559900 14 18339373971971893958
26918003 58 17988925582472478034
2916195 48 18201431493313072728
328317 168 14620792725787545322
351380 180 18131067130102231633
351380 3 15791727499374916128
3545911 37 17274824674885861982
42 15 17967812747469185842
4325135 7 16558743560027360309
465052 167 15864363458030426875
474 4 16271926042989352550
5104073 3 18263652762535845299
542803 24 18335423478016455124
573450 72 17676488350118674517
5924683 9 18129375068002511247
69090 78 17988923392329509015

>  <PUBCHEM_SHAPE_MULTIPOLES>  (1) 
327.25
11.73
1.22
1.16
1.01
0.1
-0.14
1.96
2.63
-0.27
0.03
0.27
-0.13
1.27

>  <PUBCHEM_SHAPE_SELFOVERLAP>  (1) 
685.75

>  <PUBCHEM_SHAPE_VOLUME>  (1) 
184.8

>  <PUBCHEM_COORDINATE_TYPE>  (1) 
2
5
10

$$$$
