25220
     RDKit          3D

 17 17  0  0  1  0  0  0  0  0999 V2000
   -0.7287   -1.7268    1.4637 O   0  0  0  0  0  0  0  0  0  0  0  0
    5.6255    0.1601   -0.9998 O   0  0  0  0  0  0  0  0  0  0  0  0
    5.2172    1.6240    0.5843 O   0  0  0  0  0  0  0  0  0  0  0  0
   -2.9009   -0.5278    0.0021 N   0  0  0  0  0  0  0  0  0  0  0  0
    4.8479    0.6928   -0.1713 N   0  0  0  0  0  0  0  0  0  0  0  0
   -0.5298   -1.1696    0.1651 C   0  0  0  0  0  0  0  0  0  0  0  0
   -1.5329   -0.0372   -0.0867 C   0  0  0  0  0  0  0  0  0  0  0  0
   -3.8559    0.5536   -0.2091 C   0  0  0  0  0  0  0  0  0  0  0  0
   -5.2859    0.0229   -0.1240 C   0  0  0  0  0  0  0  0  0  0  0  0
    0.8975   -0.6755    0.0761 C   0  0  0  0  0  0  0  0  0  0  0  0
   -6.3048    1.1458   -0.3215 C   0  0  0  0  0  0  0  0  0  0  0  0
    1.7596   -1.2612   -0.8347 C   0  0  0  0  0  0  0  0  0  0  0  0
    1.3105    0.3512    0.9073 C   0  0  0  0  0  0  0  0  0  0  0  0
   -7.7305    0.6197   -0.2733 C   0  0  0  0  0  0  0  0  0  0  0  0
    3.0756   -0.8061   -0.9168 C   0  0  0  0  0  0  0  0  0  0  0  0
    2.6266    0.8064    0.8253 C   0  0  0  0  0  0  0  0  0  0  0  0
    3.5090    0.2276   -0.0868 C   0  0  0  0  0  0  0  0  0  0  0  0
  1  6  1  0
  2  5  1  0
  3  5  2  0
  4  7  1  0
  4  8  1  0
  5 17  1  0
  6  7  1  0
  6 10  1  0
  8  9  1  0
  9 11  1  0
 10 12  2  0
 10 13  1  0
 11 14  1  0
 12 15  1  0
 13 16  2  0
 15 17  2  0
 16 17  1  0
M  CHG  2   2  -1   5   1
M  END
>  <PUBCHEM_COMPOUND_CID>  (1) 
25220

>  <PUBCHEM_CONFORMER_RMSD>  (1) 
0.8

>  <PUBCHEM_CONFORMER_DIVERSEORDER>  (1) 
1
12
22
6
17
32
16
20
26
33
21
23
28
31
15
8
19
27
4
29
24
14
30
18
7
10
25
2
3
9
13
5
11

>  <PUBCHEM_MMFF94_PARTIAL_CHARGES>  (1) 
20
1 -0.68
10 -0.14
12 -0.15
13 -0.15
15 -0.15
16 -0.15
17 0.13
2 -0.52
25 0.36
28 0.15
29 0.15
3 -0.52
33 0.4
34 0.15
35 0.15
4 -0.9
5 0.91
6 0.42
7 0.27
8 0.27

>  <PUBCHEM_EFFECTIVE_ROTOR_COUNT>  (1) 
7

>  <PUBCHEM_PHARMACOPHORE_FEATURES>  (1) 
9
1 1 acceptor
1 1 donor
1 14 hydrophobe
1 2 acceptor
1 2 anion
1 3 acceptor
1 4 cation
1 4 donor
6 10 12 13 15 16 17 rings

>  <PUBCHEM_HEAVY_ATOM_COUNT>  (1) 
17

>  <PUBCHEM_ATOM_DEF_STEREO_COUNT>  (1) 
0

>  <PUBCHEM_ATOM_UDEF_STEREO_COUNT>  (1) 
1

>  <PUBCHEM_BOND_DEF_STEREO_COUNT>  (1) 
0

>  <PUBCHEM_BOND_UDEF_STEREO_COUNT>  (1) 
0

>  <PUBCHEM_ISOTOPIC_ATOM_COUNT>  (1) 
0

>  <PUBCHEM_COMPONENT_COUNT>  (1) 
1

>  <PUBCHEM_CACTVS_TAUTO_COUNT>  (1) 
1

>  <PUBCHEM_CONFORMER_ID>  (1) 
0000628400000001

>  <PUBCHEM_MMFF94_ENERGY>  (1) 
31.3948

>  <PUBCHEM_FEATURE_SELFOVERLAP>  (1) 
45.754

>  <PUBCHEM_SHAPE_FINGERPRINT>  (1) 
100836 57 18260267451690046037
10354089 29 15430037651596098222
106641 1 11458429068152796436
12236239 1 16081088203233639515
12714333 28 18343018891630186101
12730499 353 18342744009354902443
12916748 109 17895194372468080173
13533116 47 17822566101862474298
13668630 136 13758354484142476541
13685833 64 9871745806666509397
14251752 14 14117523108671558513
14252887 29 13118271556564943760
14341114 176 12973602227065126140
15048467 5 18335702753759037101
17834072 33 17632289074067924949
17834072 8 16487254374619517605
17834076 25 18113617876923078309
18222031 100 12175619581601178323
200 152 15913334593366293474
20281389 69 18186796963841422285
20605781 2 18408602565477721661
20645477 70 17775010024758669038
21150785 3 14477239388116728928
212847 35 18335134271935016522
21637258 2 12607407658962747564
221357 26 17703507718763761961
22224240 67 13118287000856195224
22289505 5 18131631158002929360
23402539 116 18261670462602165510
23402655 69 17917992767623895207
26918003 58 11891336448219734765
2916195 48 18335417997754314361
293599 30 18334012791955696603
29717793 49 15698007327072738156
300161 21 17458339720473125643
3004659 81 14045736032758385273
351380 3 12463568465833550853
3545911 37 18272932726568104741
4047638 21 18260550022041731114
4072396 5 18201991115542545818
4340502 62 14851606570387820457
465052 167 8286199465688466248
59682541 52 17560246825067308174
59755656 520 17967246516393547723
6025842 7 18060139791031477582

>  <PUBCHEM_SHAPE_MULTIPOLES>  (1) 
322.28
16.25
1.32
0.96
24.23
0.07
0.14
-7.56
-3.85
-0.77
0.17
-0.5
0.19
0.79

>  <PUBCHEM_SHAPE_SELFOVERLAP>  (1) 
646.84

>  <PUBCHEM_SHAPE_VOLUME>  (1) 
190.5

>  <PUBCHEM_COORDINATE_TYPE>  (1) 
2
5
10

$$$$
