25234
     RDKit          3D

 25 26  0  0  1  0  0  0  0  0999 V2000
    0.3080   -1.5297   -0.9078 O   0  0  0  0  0  0  0  0  0  0  0  0
    2.9887    0.2012   -2.0742 O   0  0  0  0  0  0  0  0  0  0  0  0
   -2.9760   -0.1318    0.0170 N   0  0  0  0  0  0  0  0  0  0  0  0
   -1.7780   -0.3199   -0.7996 C   0  0  0  0  0  0  0  0  0  0  0  0
   -3.5332    1.2042   -0.1921 C   0  0  0  0  0  0  0  0  0  0  0  0
   -3.9732   -1.1555   -0.2942 C   0  0  0  0  0  0  0  0  0  0  0  0
   -0.8817   -1.3713   -0.1445 C   0  0  0  0  0  0  0  0  0  0  0  0
   -2.1702   -0.7152   -2.2236 C   0  0  0  0  0  0  0  0  0  0  0  0
   -2.7191    2.2437    0.5740 C   0  0  0  0  0  0  0  0  0  0  0  0
   -4.9417   -1.3242    0.8738 C   0  0  0  0  0  0  0  0  0  0  0  0
   -3.2915    3.6408    0.3902 C   0  0  0  0  0  0  0  0  0  0  0  0
   -5.9772   -2.3998    0.5837 C   0  0  0  0  0  0  0  0  0  0  0  0
    1.4278   -1.9329   -0.2289 C   0  0  0  0  0  0  0  0  0  0  0  0
    2.5739   -1.1381   -0.2021 C   0  0  0  0  0  0  0  0  0  0  0  0
    1.4111   -3.1554    0.4426 C   0  0  0  0  0  0  0  0  0  0  0  0
    3.7031   -1.5659    0.4961 C   0  0  0  0  0  0  0  0  0  0  0  0
    2.6122    0.1420   -0.8953 C   0  0  0  0  0  0  0  0  0  0  0  0
    2.5403   -3.5832    1.1410 C   0  0  0  0  0  0  0  0  0  0  0  0
    3.6862   -2.7886    1.1677 C   0  0  0  0  0  0  0  0  0  0  0  0
    2.2085    1.4196   -0.2364 C   0  0  0  0  0  0  0  0  0  0  0  0
    1.7764    1.4142    1.0899 C   0  0  0  0  0  0  0  0  0  0  0  0
    2.2639    2.6189   -0.9470 C   0  0  0  0  0  0  0  0  0  0  0  0
    1.3996    2.6078    1.7057 C   0  0  0  0  0  0  0  0  0  0  0  0
    1.8871    3.8124   -0.3311 C   0  0  0  0  0  0  0  0  0  0  0  0
    1.4550    3.8068    0.9952 C   0  0  0  0  0  0  0  0  0  0  0  0
  1  7  1  0
  1 13  1  0
  2 17  2  0
  3  4  1  0
  3  5  1  0
  3  6  1  0
  4  7  1  0
  4  8  1  0
  5  9  1  0
  6 10  1  0
  9 11  1  0
 10 12  1  0
 13 14  2  0
 13 15  1  0
 14 16  1  0
 14 17  1  0
 15 18  2  0
 16 19  2  0
 17 20  1  0
 18 19  1  0
 20 21  2  0
 20 22  1  0
 21 23  1  0
 22 24  2  0
 23 25  2  0
 24 25  1  0
M  END
>  <PUBCHEM_COMPOUND_CID>  (1) 
25234

>  <PUBCHEM_CONFORMER_RMSD>  (1) 
1

>  <PUBCHEM_CONFORMER_DIVERSEORDER>  (1) 
1
59
90
100
95
45
39
54
94
26
72
33
52
71
28
55
12
49
80
14
13
76
78
50
74
40
75
46
60
58
101
57
34
98
63
35
42
89
29
79
37
18
96
48
36
22
91
51
17
70
103
4
47
85
7
6
9
73
24
10
81
44
77
61
99
41
68
56
11
82
69
30
3
5
88
2
38
66
53
8
43
15
16
62
32
21
86
93
23
92
87
27
25
19
67
83
97
31
102
84
20
64
65

>  <PUBCHEM_MMFF94_PARTIAL_CHARGES>  (1) 
29
1 -0.36
13 0.08
14 0.09
15 -0.15
16 -0.15
17 0.4
18 -0.15
19 -0.15
2 -0.57
20 0.09
21 -0.15
22 -0.15
23 -0.15
24 -0.15
25 -0.15
3 -0.81
4 0.27
46 0.15
47 0.15
48 0.15
49 0.15
5 0.27
50 0.15
51 0.15
52 0.15
53 0.15
54 0.15
6 0.27
7 0.28

>  <PUBCHEM_EFFECTIVE_ROTOR_COUNT>  (1) 
10

>  <PUBCHEM_PHARMACOPHORE_FEATURES>  (1) 
7
1 1 acceptor
1 11 hydrophobe
1 12 hydrophobe
1 2 acceptor
1 3 cation
6 13 14 15 16 18 19 rings
6 20 21 22 23 24 25 rings

>  <PUBCHEM_HEAVY_ATOM_COUNT>  (1) 
25

>  <PUBCHEM_ATOM_DEF_STEREO_COUNT>  (1) 
0

>  <PUBCHEM_ATOM_UDEF_STEREO_COUNT>  (1) 
1

>  <PUBCHEM_BOND_DEF_STEREO_COUNT>  (1) 
0

>  <PUBCHEM_BOND_UDEF_STEREO_COUNT>  (1) 
0

>  <PUBCHEM_ISOTOPIC_ATOM_COUNT>  (1) 
0

>  <PUBCHEM_COMPONENT_COUNT>  (1) 
1

>  <PUBCHEM_CACTVS_TAUTO_COUNT>  (1) 
1

>  <PUBCHEM_CONFORMER_ID>  (1) 
0000629200000001

>  <PUBCHEM_MMFF94_ENERGY>  (1) 
71.1676

>  <PUBCHEM_FEATURE_SELFOVERLAP>  (1) 
35.52

>  <PUBCHEM_SHAPE_FINGERPRINT>  (1) 
10006869 2 17762892573503059582
10165383 225 17970639712429283516
10366900 7 18189633768255050971
104564 63 17836923396228632118
12035759 4 17903383432630805710
12156800 1 16318027195168352017
12422481 6 16829545241643198193
12633257 1 18197511636250880809
13004483 165 17613712618594553832
13134695 92 18193530338758795366
13140716 1 18049996998297082594
13533116 47 18334296500643027003
13583140 156 18336537262284948775
1361 2 17761775470305222859
146900 427 18197232540702292139
14790565 3 18336548304952269588
14866123 147 16030692800914171587
14955137 171 18412545384285066774
15238133 3 17976548208253453637
17868525 174 18336821979698145329
18785283 64 18262793102839794722
19078846 21 18268427932417781646
19930381 70 18193555799435331809
20465049 17 18196671785117910790
20600515 1 18051130285394485910
2132832 1 17841673462300901103
23559900 14 18260820485002129523
238 59 18264783210185137642
23845131 108 17902508521279696459
3286 77 18333730208624599399
350125 39 18118404179545382454
392239 28 18194130839690478251
57124632 79 18194949958209065336
57527573 199 17270589519473914240
6442390 28 17831023794247990498
7097593 13 18338233748196111911
8509985 295 18050288068299642109

>  <PUBCHEM_SHAPE_MULTIPOLES>  (1) 
497.77
8.9
5.47
1.48
12.77
3
0.42
-5.07
-1.59
-2.59
-2.05
-0.44
0.09
-0.76

>  <PUBCHEM_SHAPE_SELFOVERLAP>  (1) 
1027.888

>  <PUBCHEM_SHAPE_VOLUME>  (1) 
287.1

>  <PUBCHEM_COORDINATE_TYPE>  (1) 
2
5
10

$$$$
