25253
     RDKit          3D

 23 24  0  0  0  0  0  0  0  0999 V2000
   -4.1055    0.9772   -0.0009 O   0  0  0  0  0  0  0  0  0  0  0  0
   -7.4593   -0.0048   -0.0019 O   0  0  0  0  0  0  0  0  0  0  0  0
   -6.5155    1.9819   -0.0041 O   0  0  0  0  0  0  0  0  0  0  0  0
    3.2697   -2.7562    0.0046 N   0  0  0  0  0  0  0  0  0  0  0  0
    5.1370    1.5455   -0.0059 N   0  0  0  0  0  0  0  0  0  0  0  0
    4.2323   -0.6179    0.0003 N   0  0  0  0  0  0  0  0  0  0  0  0
    2.8037    1.3100   -0.0022 N   0  0  0  0  0  0  0  0  0  0  0  0
    1.8483   -0.8912    0.0036 N   0  0  0  0  0  0  0  0  0  0  0  0
    0.4781    1.0117   -0.0001 N   0  0  0  0  0  0  0  0  0  0  0  0
   -0.6069    0.2198    0.0018 N   0  0  0  0  0  0  0  0  0  0  0  0
   -6.4213    0.7195   -0.0022 N   0  0  0  0  0  0  0  0  0  0  0  0
    2.1648   -3.6632    0.0074 C   0  0  0  0  0  0  0  0  0  0  0  0
    5.0672    2.9862   -0.0090 C   0  0  0  0  0  0  0  0  0  0  0  0
    3.1090   -1.3537    0.0029 C   0  0  0  0  0  0  0  0  0  0  0  0
    4.0229    0.7202   -0.0024 C   0  0  0  0  0  0  0  0  0  0  0  0
    1.7728    0.4495    0.0007 C   0  0  0  0  0  0  0  0  0  0  0  0
    2.6646   -5.0950   -0.0138 C   0  0  0  0  0  0  0  0  0  0  0  0
    6.4639    3.5768    0.0100 C   0  0  0  0  0  0  0  0  0  0  0  0
   -3.0095    0.1974    0.0016 C   0  0  0  0  0  0  0  0  0  0  0  0
   -3.3092   -1.1247    0.0044 C   0  0  0  0  0  0  0  0  0  0  0  0
   -5.1602    0.1205    0.0007 C   0  0  0  0  0  0  0  0  0  0  0  0
   -4.7233   -1.1838    0.0039 C   0  0  0  0  0  0  0  0  0  0  0  0
   -1.7234    0.8742    0.0008 C   0  0  0  0  0  0  0  0  0  0  0  0
  1 19  1  0
  1 21  1  0
  2 11  1  0
  3 11  2  0
  4 12  1  0
  4 14  1  0
  5 13  1  0
  5 15  1  0
  6 14  2  0
  6 15  1  0
  7 15  2  0
  7 16  1  0
  8 14  1  0
  8 16  2  0
  9 10  1  0
  9 16  1  0
 10 23  2  0
 11 21  1  0
 12 17  1  0
 13 18  1  0
 19 20  2  0
 19 23  1  0
 20 22  1  0
 21 22  2  0
M  CHG  2   2  -1  11   1
M  END
>  <PUBCHEM_COMPOUND_CID>  (1) 
25253

>  <PUBCHEM_CONFORMER_RMSD>  (1) 
0.8

>  <PUBCHEM_CONFORMER_DIVERSEORDER>  (1) 
1
27
29
17
4
23
21
22
20
9
18
37
25
32
39
35
14
19
11
13
28
16
36
38
26
15
8
31
24
33
10
3
34
2
30
12
7
6
5

>  <PUBCHEM_MMFF94_PARTIAL_CHARGES>  (1) 
27
1 -0.28
10 -0.49
11 0.96
12 0.37
13 0.37
14 0.72
15 0.72
16 0.72
19 0.05
2 -0.52
20 -0.15
21 0.22
22 -0.15
23 0.47
28 0.4
29 0.4
3 -0.52
36 0.4
37 0.15
38 0.15
39 0.06
4 -0.87
5 -0.87
6 -0.62
7 -0.62
8 -0.62
9 -0.46

>  <PUBCHEM_EFFECTIVE_ROTOR_COUNT>  (1) 
8

>  <PUBCHEM_PHARMACOPHORE_FEATURES>  (1) 
13
1 1 acceptor
1 10 acceptor
1 2 acceptor
1 2 anion
1 3 acceptor
1 4 donor
1 5 donor
1 9 donor
4 4 6 8 14 cation
4 5 6 7 15 cation
4 7 8 9 16 cation
5 1 19 20 21 22 rings
6 6 7 8 14 15 16 rings

>  <PUBCHEM_HEAVY_ATOM_COUNT>  (1) 
23

>  <PUBCHEM_ATOM_DEF_STEREO_COUNT>  (1) 
0

>  <PUBCHEM_ATOM_UDEF_STEREO_COUNT>  (1) 
0

>  <PUBCHEM_BOND_DEF_STEREO_COUNT>  (1) 
0

>  <PUBCHEM_BOND_UDEF_STEREO_COUNT>  (1) 
1

>  <PUBCHEM_ISOTOPIC_ATOM_COUNT>  (1) 
0

>  <PUBCHEM_COMPONENT_COUNT>  (1) 
1

>  <PUBCHEM_CACTVS_TAUTO_COUNT>  (1) 
10

>  <PUBCHEM_CONFORMER_ID>  (1) 
000062A500000001

>  <PUBCHEM_MMFF94_ENERGY>  (1) 
48.8757

>  <PUBCHEM_FEATURE_SELFOVERLAP>  (1) 
66.19

>  <PUBCHEM_SHAPE_FINGERPRINT>  (1) 
10411042 1 17906170647331889786
10595046 47 18342174471322237937
10835480 77 18408036321559236765
11719270 70 18411694392623524938
12107183 9 17622171165799752217
12730499 353 18409175428242088146
12788726 201 17346607331056161449
13073987 5 18411986824214827369
13533116 47 18272086050911878427
13785724 45 17695917622219524447
13955234 65 18337954494007812794
14251764 18 18060421331471407497
14790565 3 18121784099848242636
15250474 111 18200295694055830335
15400415 2 18410855498793423461
16993438 75 17973729369915884978
17844677 252 18339367353290361013
17859628 70 18339361843016300742
17980427 23 17097212968465504454
19427546 62 18337111288927143452
20554085 129 17988632061120220784
20645477 70 18335137536073627794
21049683 118 18123165056830921440
220451 1 17917710215174726831
23559900 14 18410009927159797171
239999 70 18201726111538763646
300161 21 18335135419092425285
3004659 81 18261957336432063802
33824 294 18409166602232286546
3421961 26 18266737983204606482
34797466 226 18060429027024511405
4073 2 18334861658045861635
5104073 3 18260832587903290505
6025842 7 18411419492946403614
621550 34 18261386737553170060
7399639 24 18187635912878124044
77188 2 17906452126671756358
9658208 31 17984417710381432712
9777508 108 17765145464785895378

>  <PUBCHEM_SHAPE_MULTIPOLES>  (1) 
415.87
17.6
4.6
0.57
21.1
6.1
0
-13.73
-0.01
-10.3
-0.01
-0.04
0.02
0.01

>  <PUBCHEM_SHAPE_SELFOVERLAP>  (1) 
864.195

>  <PUBCHEM_SHAPE_VOLUME>  (1) 
233.3

>  <PUBCHEM_COORDINATE_TYPE>  (1) 
2
5
10

$$$$
