25255
     RDKit          3D

 18 20  0  0  0  0  0  0  0  0999 V2000
   -0.8799    2.3245    1.1786 O   0  0  0  0  0  0  0  0  0  0  0  0
    1.1260    2.9528    0.2429 N   0  0  0  0  0  0  0  0  0  0  0  0
    0.0170    0.9790   -0.5856 C   0  0  0  0  0  0  0  0  0  0  0  0
    1.2646    0.1238   -0.4560 C   0  0  0  0  0  0  0  0  0  0  0  0
   -1.2665    0.1744   -0.4880 C   0  0  0  0  0  0  0  0  0  0  0  0
    1.5253   -0.6664    0.6820 C   0  0  0  0  0  0  0  0  0  0  0  0
   -1.5871   -0.6042    0.6427 C   0  0  0  0  0  0  0  0  0  0  0  0
    0.0281    2.1356    0.3728 C   0  0  0  0  0  0  0  0  0  0  0  0
    2.2037    0.1395   -1.5046 C   0  0  0  0  0  0  0  0  0  0  0  0
   -2.1777    0.2271   -1.5598 C   0  0  0  0  0  0  0  0  0  0  0  0
    0.6231   -0.7372    1.8415 C   0  0  0  0  0  0  0  0  0  0  0  0
   -0.7179   -0.7103    1.8246 C   0  0  0  0  0  0  0  0  0  0  0  0
    2.7252   -1.3954    0.7519 C   0  0  0  0  0  0  0  0  0  0  0  0
   -2.8165   -1.2848    0.6822 C   0  0  0  0  0  0  0  0  0  0  0  0
    3.3814   -0.6026   -1.4268 C   0  0  0  0  0  0  0  0  0  0  0  0
   -3.3857   -0.4672   -1.5118 C   0  0  0  0  0  0  0  0  0  0  0  0
    3.6435   -1.3677   -0.2971 C   0  0  0  0  0  0  0  0  0  0  0  0
   -3.7065   -1.2208   -0.3895 C   0  0  0  0  0  0  0  0  0  0  0  0
  1  8  2  0
  2  8  1  0
  3  4  1  0
  3  5  1  0
  3  8  1  0
  4  6  2  0
  4  9  1  0
  5  7  2  0
  5 10  1  0
  6 11  1  0
  6 13  1  0
  7 12  1  0
  7 14  1  0
  9 15  2  0
 10 16  2  0
 11 12  2  0
 13 17  2  0
 14 18  2  0
 15 17  1  0
 16 18  1  0
M  END
>  <PUBCHEM_COMPOUND_CID>  (1) 
25255

>  <PUBCHEM_CONFORMER_RMSD>  (1) 
0.6

>  <PUBCHEM_CONFORMER_DIVERSEORDER>  (1) 
1
4
2
3

>  <PUBCHEM_MMFF94_PARTIAL_CHARGES>  (1) 
30
1 -0.57
10 -0.15
11 -0.18
12 -0.18
13 -0.15
14 -0.15
15 -0.15
16 -0.15
17 -0.15
18 -0.15
2 -0.8
20 0.15
21 0.15
22 0.15
23 0.15
24 0.15
25 0.15
26 0.15
27 0.15
28 0.15
29 0.15
3 0.35
30 0.37
31 0.37
4 -0.14
5 -0.14
6 0.03
7 0.03
8 0.57
9 -0.15

>  <PUBCHEM_EFFECTIVE_ROTOR_COUNT>  (1) 
1.2

>  <PUBCHEM_PHARMACOPHORE_FEATURES>  (1) 
5
1 1 acceptor
1 2 donor
6 4 6 9 13 15 17 rings
6 5 7 10 14 16 18 rings
7 3 4 5 6 7 11 12 rings

>  <PUBCHEM_HEAVY_ATOM_COUNT>  (1) 
18

>  <PUBCHEM_ATOM_DEF_STEREO_COUNT>  (1) 
0

>  <PUBCHEM_ATOM_UDEF_STEREO_COUNT>  (1) 
0

>  <PUBCHEM_BOND_DEF_STEREO_COUNT>  (1) 
0

>  <PUBCHEM_BOND_UDEF_STEREO_COUNT>  (1) 
0

>  <PUBCHEM_ISOTOPIC_ATOM_COUNT>  (1) 
0

>  <PUBCHEM_COMPONENT_COUNT>  (1) 
1

>  <PUBCHEM_CACTVS_TAUTO_COUNT>  (1) 
2

>  <PUBCHEM_CONFORMER_ID>  (1) 
000062A700000001

>  <PUBCHEM_MMFF94_ENERGY>  (1) 
61.4873

>  <PUBCHEM_FEATURE_SELFOVERLAP>  (1) 
25.389

>  <PUBCHEM_SHAPE_FINGERPRINT>  (1) 
10863032 1 16081089268396299306
10948715 1 12540695920339221147
11315181 36 18041570153137078958
11578080 2 17680113379900530084
12251169 10 13470685957894468439
12326174 3 18126557053600940113
12400797 245 13901903423101987670
12423570 1 14865628332612258336
12696612 119 13901904552704877195
12707595 3 18411414042290020327
13299463 15 17531258286916189255
13681431 1 18200304545397526617
14251745 187 17314797510165722119
14617773 55 18189908508590809016
14817 1 11532210614011856169
15375462 478 12895059739374771159
15906896 17 17978808808560987153
16752209 62 18192133924768593485
16945 1 17313382292566332970
1813 80 17775577441551404806
18186145 218 17240766159532861494
18981168 100 15938622265778606375
19862831 5 17894912884527515270
200 152 18334018268070972510
20361792 2 18202563986063078511
20671657 53 18341892999944103975
21296965 67 18343582940773455893
21731516 1 18272937115323236814
22112679 90 18267880396975586504
22802520 49 17314242226823798259
23382010 3 17167861997370865383
23402539 116 18340489972084607270
23419403 2 17755611538820431928
23526113 38 18042692873654766520
23557571 272 18129653102736050866
23559900 14 17821445764692354446
25 1 15357973391663698190
2748010 2 16740326981177267330
276578 36 10953732283635661132
3323516 105 17968660535506566031
4663303 62 18193833966896944801
5262128 65 18189351073613246950
549884 4 17968086556040133919
5845 1 17417795223875530176
633830 44 12685087034426157159
81228 2 18056197973020713969
84936 31 17630027493986212704
9981440 41 14349772056358618620

>  <PUBCHEM_SHAPE_MULTIPOLES>  (1) 
359.58
5.49
2.07
1.73
0.22
1.5
-0.04
-2.93
2.86
-0.35
-0.94
0.11
0.01
0.03

>  <PUBCHEM_SHAPE_SELFOVERLAP>  (1) 
798.98

>  <PUBCHEM_SHAPE_VOLUME>  (1) 
188.4

>  <PUBCHEM_COORDINATE_TYPE>  (1) 
2
5
10

$$$$
