25254
     RDKit          3D

  6  5  0  0  1  0  0  0  0  0999 V2000
    2.4922    0.8866    0.1570 Br  0  0  0  0  0  0  0  0  0  0  0  0
   -0.0719   -0.4307    0.2883 C   0  0  0  0  0  0  0  0  0  0  0  0
   -0.7272    0.8119   -0.3517 C   0  0  0  0  0  0  0  0  0  0  0  0
    1.3499   -0.6432   -0.2422 C   0  0  0  0  0  0  0  0  0  0  0  0
   -0.8953   -1.6951    0.0161 C   0  0  0  0  0  0  0  0  0  0  0  0
   -2.1479    1.0706    0.1326 C   0  0  0  0  0  0  0  0  0  0  0  0
  1  4  1  0
  2  3  1  0
  2  4  1  0
  2  5  1  0
  3  6  1  0
M  END
>  <PUBCHEM_COMPOUND_CID>  (1) 
25254

>  <PUBCHEM_CONFORMER_RMSD>  (1) 
0.4

>  <PUBCHEM_CONFORMER_DIVERSEORDER>  (1) 
1
4
10
8
7
6
5
13
9
3
12
14
2
11

>  <PUBCHEM_MMFF94_PARTIAL_CHARGES>  (1) 
2
1 -0.23
4 0.23

>  <PUBCHEM_EFFECTIVE_ROTOR_COUNT>  (1) 
2

>  <PUBCHEM_PHARMACOPHORE_FEATURES>  (1) 
3
1 1 hydrophobe
1 5 hydrophobe
1 6 hydrophobe

>  <PUBCHEM_HEAVY_ATOM_COUNT>  (1) 
6

>  <PUBCHEM_ATOM_DEF_STEREO_COUNT>  (1) 
0

>  <PUBCHEM_ATOM_UDEF_STEREO_COUNT>  (1) 
1

>  <PUBCHEM_BOND_DEF_STEREO_COUNT>  (1) 
0

>  <PUBCHEM_BOND_UDEF_STEREO_COUNT>  (1) 
0

>  <PUBCHEM_ISOTOPIC_ATOM_COUNT>  (1) 
0

>  <PUBCHEM_COMPONENT_COUNT>  (1) 
1

>  <PUBCHEM_CACTVS_TAUTO_COUNT>  (1) 
1

>  <PUBCHEM_CONFORMER_ID>  (1) 
000062A600000001

>  <PUBCHEM_MMFF94_ENERGY>  (1) 
4.7256

>  <PUBCHEM_FEATURE_SELFOVERLAP>  (1) 
15.224

>  <PUBCHEM_SHAPE_FINGERPRINT>  (1) 
14390081 3 18272929431864400368
16714656 1 18338237171089646955
20096714 4 18337953372604220416
21040471 1 18409451349562262780
23552449 1 18268145551192460744

>  <PUBCHEM_SHAPE_MULTIPOLES>  (1) 
129.42
3.14
1.63
0.69
1.39
0.36
0
-1.32
-0.18
-0.66
0
0.05
-0.02
0.07

>  <PUBCHEM_SHAPE_SELFOVERLAP>  (1) 
210.512

>  <PUBCHEM_SHAPE_VOLUME>  (1) 
91.3

>  <PUBCHEM_COORDINATE_TYPE>  (1) 
2
5
10

$$$$
