25282
     RDKit          3D

 12 12  0  0  0  0  0  0  0  0999 V2000
    3.2638    1.2265    0.0161 O   0  0  0  0  0  0  0  0  0  0  0  0
    3.2696   -0.9663    0.1185 O   0  0  0  0  0  0  0  0  0  0  0  0
   -2.9587    0.1240   -0.1681 N   0  0  0  0  0  0  0  0  0  0  0  0
    2.6591    0.1274    0.0444 N   0  0  0  0  0  0  0  0  0  0  0  0
   -0.8481   -1.0937   -0.0314 C   0  0  0  0  0  0  0  0  0  0  0  0
   -1.5477    0.1103   -0.1135 C   0  0  0  0  0  0  0  0  0  0  0  0
    0.5458   -1.0883    0.0209 C   0  0  0  0  0  0  0  0  0  0  0  0
   -0.8535    1.3197   -0.1433 C   0  0  0  0  0  0  0  0  0  0  0  0
    1.2401    0.1212   -0.0089 C   0  0  0  0  0  0  0  0  0  0  0  0
    0.5403    1.3252   -0.0910 C   0  0  0  0  0  0  0  0  0  0  0  0
   -1.5666   -2.4034    0.0014 C   0  0  0  0  0  0  0  0  0  0  0  0
   -3.7441    1.1974    0.3550 C   0  0  0  0  0  0  0  0  0  0  0  0
  1  4  1  0
  2  4  2  0
  3  6  1  0
  3 12  1  0
  4  9  1  0
  5  6  2  0
  5  7  1  0
  5 11  1  0
  6  8  1  0
  7  9  2  0
  8 10  2  0
  9 10  1  0
M  CHG  2   1  -1   4   1
M  END
>  <PUBCHEM_COMPOUND_CID>  (1) 
25282

>  <PUBCHEM_CONFORMER_RMSD>  (1) 
0.6

>  <PUBCHEM_CONFORMER_DIVERSEORDER>  (1) 
1

>  <PUBCHEM_MMFF94_PARTIAL_CHARGES>  (1) 
16
1 -0.52
10 -0.15
11 0.14
12 0.37
13 0.15
14 0.15
15 0.15
19 0.4
2 -0.52
3 -0.87
4 0.91
5 -0.14
6 0.1
7 -0.15
8 -0.15
9 0.13

>  <PUBCHEM_EFFECTIVE_ROTOR_COUNT>  (1) 
2

>  <PUBCHEM_PHARMACOPHORE_FEATURES>  (1) 
6
1 1 acceptor
1 1 anion
1 2 acceptor
1 3 cation
1 3 donor
6 5 6 7 8 9 10 rings

>  <PUBCHEM_HEAVY_ATOM_COUNT>  (1) 
12

>  <PUBCHEM_ATOM_DEF_STEREO_COUNT>  (1) 
0

>  <PUBCHEM_ATOM_UDEF_STEREO_COUNT>  (1) 
0

>  <PUBCHEM_BOND_DEF_STEREO_COUNT>  (1) 
0

>  <PUBCHEM_BOND_UDEF_STEREO_COUNT>  (1) 
0

>  <PUBCHEM_ISOTOPIC_ATOM_COUNT>  (1) 
0

>  <PUBCHEM_COMPONENT_COUNT>  (1) 
1

>  <PUBCHEM_CACTVS_TAUTO_COUNT>  (1) 
1

>  <PUBCHEM_CONFORMER_ID>  (1) 
000062C200000001

>  <PUBCHEM_MMFF94_ENERGY>  (1) 
46.1841

>  <PUBCHEM_FEATURE_SELFOVERLAP>  (1) 
30.528

>  <PUBCHEM_SHAPE_FINGERPRINT>  (1) 
10219947 1 18334861576151234837
12932764 1 17386274454900745134
13380535 21 18337680805489921478
13380535 76 18341892965785150519
14325111 11 18410855460281298517
14993402 34 18409164407297938789
16945 1 18335692823789146492
193761 8 17905890627852395341
20588541 1 18341335513178553135
20645476 183 17823158833076940766
20871998 184 18128541646461840103
21040471 1 18410575097927762999
21501502 16 18192712464941687148
23235685 24 18412257316221534221
23402539 116 18200581515005901773
23402655 69 18124297334886056573
23463225 33 18335417920339349450
23552423 10 18043811098634353694
23559900 14 18343022203746407588
2748010 2 18194962069947780973
369184 2 18409163333445253838
528886 8 18411412899897018339
53812653 166 18342172267418517865
6333449 129 18340482378070504127

>  <PUBCHEM_SHAPE_MULTIPOLES>  (1) 
225.25
5.1
1.95
0.6
0.68
0.84
0
-1.44
-0.43
-0.69
-0.01
-0.1
-0.01
-0.14

>  <PUBCHEM_SHAPE_SELFOVERLAP>  (1) 
466.082

>  <PUBCHEM_SHAPE_VOLUME>  (1) 
130.6

>  <PUBCHEM_COORDINATE_TYPE>  (1) 
2
5
10

$$$$
