2528
     RDKit          3D

 21 21  0  0  0  0  0  0  0  0999 V2000
    0.0315    3.1193   -0.8941 I   0  0  0  0  0  0  0  0  0  0  0  0
    2.8676   -2.2040    0.0526 I   0  0  0  0  0  0  0  0  0  0  0  0
   -3.2336   -1.9854   -0.1475 I   0  0  0  0  0  0  0  0  0  0  0  0
    4.1481    1.9961    0.6484 O   0  0  0  0  0  0  0  0  0  0  0  0
   -0.2803   -3.4785    1.4523 O   0  0  0  0  0  0  0  0  0  0  0  0
   -0.2299   -4.0368   -0.7505 O   0  0  0  0  0  0  0  0  0  0  0  0
   -3.0004    1.7701    1.5669 O   0  0  0  0  0  0  0  0  0  0  0  0
    2.3646    0.9349   -0.4734 N   0  0  0  0  0  0  0  0  0  0  0  0
   -2.4742    1.1083   -0.6322 N   0  0  0  0  0  0  0  0  0  0  0  0
    1.1232    0.2866   -0.4007 C   0  0  0  0  0  0  0  0  0  0  0  0
   -1.2899    0.3730   -0.4797 C   0  0  0  0  0  0  0  0  0  0  0  0
   -0.0550    1.0176   -0.5519 C   0  0  0  0  0  0  0  0  0  0  0  0
    1.0666   -1.0892   -0.1773 C   0  0  0  0  0  0  0  0  0  0  0  0
   -0.1682   -1.7338   -0.1051 C   0  0  0  0  0  0  0  0  0  0  0  0
   -1.3465   -1.0027   -0.2563 C   0  0  0  0  0  0  0  0  0  0  0  0
    3.0692    0.9629   -1.7889 C   0  0  0  0  0  0  0  0  0  0  0  0
    3.0235    1.4898    0.6729 C   0  0  0  0  0  0  0  0  0  0  0  0
   -0.2277   -3.1774    0.1294 C   0  0  0  0  0  0  0  0  0  0  0  0
    2.2788    1.4869    1.9882 C   0  0  0  0  0  0  0  0  0  0  0  0
   -3.2284    1.7361    0.3619 C   0  0  0  0  0  0  0  0  0  0  0  0
   -4.4391    2.4263   -0.2146 C   0  0  0  0  0  0  0  0  0  0  0  0
  1 12  1  0
  2 13  1  0
  3 15  1  0
  4 17  2  0
  5 18  1  0
  6 18  2  0
  7 20  2  0
  8 10  1  0
  8 16  1  0
  8 17  1  0
  9 11  1  0
  9 20  1  0
 10 12  2  0
 10 13  1  0
 11 12  1  0
 11 15  2  0
 13 14  2  0
 14 15  1  0
 14 18  1  0
 17 19  1  0
 20 21  1  0
M  END
>  <PUBCHEM_COMPOUND_CID>  (1) 
2528

>  <PUBCHEM_CONFORMER_RMSD>  (1) 
0.8

>  <PUBCHEM_CONFORMER_DIVERSEORDER>  (1) 
1
8
3
5
7
4
6
2

>  <PUBCHEM_MMFF94_PARTIAL_CHARGES>  (1) 
23
1 -0.08
10 0.12
11 0.12
12 0.08
13 0.08
14 0.09
15 0.08
16 0.3
17 0.57
18 0.63
19 0.06
2 -0.08
20 0.57
21 0.06
25 0.37
3 -0.08
32 0.5
4 -0.57
5 -0.65
6 -0.57
7 -0.57
8 -0.48
9 -0.55

>  <PUBCHEM_EFFECTIVE_ROTOR_COUNT>  (1) 
5

>  <PUBCHEM_PHARMACOPHORE_FEATURES>  (1) 
10
1 1 hydrophobe
1 2 hydrophobe
1 3 hydrophobe
1 4 acceptor
1 5 acceptor
1 6 acceptor
1 7 acceptor
1 9 donor
3 5 6 18 anion
6 10 11 12 13 14 15 rings

>  <PUBCHEM_HEAVY_ATOM_COUNT>  (1) 
21

>  <PUBCHEM_ATOM_DEF_STEREO_COUNT>  (1) 
0

>  <PUBCHEM_ATOM_UDEF_STEREO_COUNT>  (1) 
0

>  <PUBCHEM_BOND_DEF_STEREO_COUNT>  (1) 
0

>  <PUBCHEM_BOND_UDEF_STEREO_COUNT>  (1) 
0

>  <PUBCHEM_ISOTOPIC_ATOM_COUNT>  (1) 
0

>  <PUBCHEM_COMPONENT_COUNT>  (1) 
1

>  <PUBCHEM_CACTVS_TAUTO_COUNT>  (1) 
2

>  <PUBCHEM_CONFORMER_ID>  (1) 
000009E000000001

>  <PUBCHEM_MMFF94_ENERGY>  (1) 
116.7374

>  <PUBCHEM_FEATURE_SELFOVERLAP>  (1) 
50.804

>  <PUBCHEM_SHAPE_FINGERPRINT>  (1) 
10366900 7 17699846516715040544
10967382 1 18048879589461450063
1100329 8 18266737970040032370
11646440 116 17981048828113206155
12553582 1 17975420431541231431
12633257 1 18266999714585397008
12788726 201 17903643225779051717
13140716 1 18336261241325866315
13878862 14 17688018718571280701
14081887 123 18054497282025097426
14178342 30 18410567397078164777
14790565 3 18050301266987389524
14955137 171 17981332187662694170
16752209 62 18263922314308704287
16945 1 18120659290340782350
19049666 15 18130515239995318684
19591789 44 18337399240292770927
20510252 161 18198904897455154833
20600515 1 17184142637926322249
20671657 1 18197500610700508063
20691752 17 17676205745354854454
20739085 24 18189634773198107949
21041028 32 17044858218669599339
21524375 3 18270962336779223701
21731228 192 18409166606004605361
2334 1 18408605880918356239
23402539 116 18125144189859939847
23419403 2 16034307556932060207
23557571 272 17692253358354564316
23558518 356 18335138721643084311
23559900 14 18342189886508802124
2748010 2 18408323276349461543
3091708 16 9337366645222619907
350125 39 18411142428447587591
58807428 26 18263347136483132306
7364860 26 18052535469818545663
81228 2 18120654892331122903
84936 182 18056755434401699977
9981440 41 17128422593198600880

>  <PUBCHEM_SHAPE_MULTIPOLES>  (1) 
434.54
6.19
4.76
1.32
2.08
2.88
0.33
-3.63
0.8
0.62
0.01
-0.66
-0.54
0.03

>  <PUBCHEM_SHAPE_SELFOVERLAP>  (1) 
839.747

>  <PUBCHEM_SHAPE_VOLUME>  (1) 
272.9

>  <PUBCHEM_COORDINATE_TYPE>  (1) 
2
5
10

$$$$
