25295
     RDKit          3D

 20 21  0  0  1  0  0  0  0  0999 V2000
   -5.7558    0.7334   -1.2834 Cl  0  0  0  0  0  0  0  0  0  0  0  0
    0.6064    0.1547    0.5896 N   0  0  0  0  0  0  0  0  0  0  0  0
    3.4787    2.4152   -0.0686 N   0  0  0  0  0  0  0  0  0  0  0  0
    0.8042   -2.1700    1.0722 N   0  0  0  0  0  0  0  0  0  0  0  0
    1.2921    1.3154    0.0737 C   0  0  0  0  0  0  0  0  0  0  0  0
    2.7620    1.2595    0.4697 C   0  0  0  0  0  0  0  0  0  0  0  0
   -0.4791    0.3526    1.5516 C   0  0  0  0  0  0  0  0  0  0  0  0
    0.9683   -1.1421    0.1984 C   0  0  0  0  0  0  0  0  0  0  0  0
   -1.8013    0.4483    0.8422 C   0  0  0  0  0  0  0  0  0  0  0  0
    3.3589    2.4575   -1.5256 C   0  0  0  0  0  0  0  0  0  0  0  0
    4.8858    2.3740    0.3276 C   0  0  0  0  0  0  0  0  0  0  0  0
   -2.2676    1.6884    0.4255 C   0  0  0  0  0  0  0  0  0  0  0  0
   -2.5401   -0.7049    0.6115 C   0  0  0  0  0  0  0  0  0  0  0  0
    1.4847   -1.3126   -1.0833 C   0  0  0  0  0  0  0  0  0  0  0  0
   -3.4941    1.7770   -0.2330 C   0  0  0  0  0  0  0  0  0  0  0  0
   -3.7665   -0.6164   -0.0472 C   0  0  0  0  0  0  0  0  0  0  0  0
    1.8481   -2.5929   -1.4861 C   0  0  0  0  0  0  0  0  0  0  0  0
   -4.2435    0.6246   -0.4693 C   0  0  0  0  0  0  0  0  0  0  0  0
    1.1686   -3.4000    0.6456 C   0  0  0  0  0  0  0  0  0  0  0  0
    1.6901   -3.6619   -0.6110 C   0  0  0  0  0  0  0  0  0  0  0  0
  1 18  1  0
  2  5  1  0
  2  7  1  0
  2  8  1  0
  3  6  1  0
  3 10  1  0
  3 11  1  0
  4  8  2  0
  4 19  1  0
  5  6  1  0
  7  9  1  0
  8 14  1  0
  9 12  2  0
  9 13  1  0
 12 15  1  0
 13 16  2  0
 14 17  2  0
 15 18  2  0
 16 18  1  0
 17 20  1  0
 19 20  2  0
M  END
>  <PUBCHEM_COMPOUND_CID>  (1) 
25295

>  <PUBCHEM_CONFORMER_RMSD>  (1) 
0.8

>  <PUBCHEM_CONFORMER_DIVERSEORDER>  (1) 
1
57
94
37
50
85
69
58
97
39
89
51
71
42
35
60
30
68
25
92
70
12
93
95
46
40
80
76
65
43
103
36
67
27
87
83
28
98
56
63
100
101
107
3
66
78
108
102
74
73
38
82
32
99
86
15
52
90
33
10
49
61
19
81
59
53
47
88
8
16
54
24
55
84
21
26
44
48
96
29
14
106
18
79
105
34
9
11
6
23
77
75
41
5
62
104
20
22
45
72
91
2
64
17
31
4
7
13

>  <PUBCHEM_MMFF94_PARTIAL_CHARGES>  (1) 
28
1 -0.18
10 0.27
11 0.27
12 -0.15
13 -0.15
14 -0.15
15 -0.15
16 -0.15
17 -0.15
18 0.18
19 0.16
2 -0.84
20 -0.15
3 -0.81
33 0.15
34 0.15
35 0.15
36 0.15
37 0.15
38 0.15
39 0.15
4 -0.62
40 0.15
5 0.37
6 0.27
7 0.51
8 0.41
9 -0.14

>  <PUBCHEM_EFFECTIVE_ROTOR_COUNT>  (1) 
6

>  <PUBCHEM_PHARMACOPHORE_FEATURES>  (1) 
5
1 2 cation
1 3 cation
1 4 acceptor
6 4 8 14 17 19 20 rings
6 9 12 13 15 16 18 rings

>  <PUBCHEM_HEAVY_ATOM_COUNT>  (1) 
20

>  <PUBCHEM_ATOM_DEF_STEREO_COUNT>  (1) 
0

>  <PUBCHEM_ATOM_UDEF_STEREO_COUNT>  (1) 
0

>  <PUBCHEM_BOND_DEF_STEREO_COUNT>  (1) 
0

>  <PUBCHEM_BOND_UDEF_STEREO_COUNT>  (1) 
0

>  <PUBCHEM_ISOTOPIC_ATOM_COUNT>  (1) 
0

>  <PUBCHEM_COMPONENT_COUNT>  (1) 
1

>  <PUBCHEM_CACTVS_TAUTO_COUNT>  (1) 
1

>  <PUBCHEM_CONFORMER_ID>  (1) 
000062CF00000001

>  <PUBCHEM_MMFF94_ENERGY>  (1) 
65.3521

>  <PUBCHEM_FEATURE_SELFOVERLAP>  (1) 
25.372

>  <PUBCHEM_SHAPE_FINGERPRINT>  (1) 
105312 117 18118979211405214940
10764073 3 15723847937959044512
10871710 139 16099968235206736196
11370993 70 18339080500966882684
121448 382 18128538369253625628
12553582 1 17691985764396104651
12730499 353 18409456894871346905
12788726 201 17324087417601374970
13052359 8 18052255386796308706
13083527 12 18194667186468391754
13257819 101 17604410981661296732
13257819 37 18120390996998297188
133893 2 18197236770901648386
13681431 1 18054796083216274202
13968360 50 18339068363331178022
14178000 22 18267581506333654384
15163728 17 18042424541267867716
15502722 9 18412830157252451693
15842332 3 17702396043920193441
16752209 62 17909263925553289338
167882 2 18410018724054614014
20197701 30 18341045328562008592
20554085 129 17987214768487417520
20567600 347 18411419552732995814
20600515 1 17333068846640702064
20645477 70 18342171121253047911
20671657 53 17908422459380980979
21033648 29 13624350456187239869
21054139 6 18057589053219943557
21344244 246 18202289070208687830
21452121 199 17985255279604640091
21521239 73 17846784014027329812
21524375 3 18337955717967750080
22182313 1 18041862657030318515
2255824 54 18268150864056735755
22907989 373 17545908360550003092
23114952 82 18337110055918316213
23366157 5 18189338978584037826
23557571 272 17313968384404789107
23559900 14 18269546140133253091
23598288 3 17538573501659741176
23598291 2 17986402092066202721
25147074 1 17774167777898942225
26353 1 17691146841492613438
266924 1 17774454762923191265
298252 57 18263643038455703848
3060560 45 18341890839855629076
312423 11 18058734585781050401
4017518 198 18202004357385857086
4280585 95 17910398277792779646
4409770 3 17904762537275316330
474229 33 18194404626295699907
5262128 65 17842854225988412271
53777708 50 18128255593487783289
58051976 378 18411415107505109089
6025842 7 18412255117504123599
6138700 20 18340215068993506574
633830 44 17558861530901306096
7364860 26 18341331080809233514
81228 2 17118596420604795402
81539 233 18410011052525598638
9709674 26 18339078177806300539
9981440 41 18334574697831113243

>  <PUBCHEM_SHAPE_MULTIPOLES>  (1) 
398.52
8.9
4.01
1.32
8.07
2.93
-0.21
-7.09
-3.1
-5.79
-0.67
-0.12
0.14
0.31

>  <PUBCHEM_SHAPE_SELFOVERLAP>  (1) 
819.858

>  <PUBCHEM_SHAPE_VOLUME>  (1) 
230.7

>  <PUBCHEM_COORDINATE_TYPE>  (1) 
2
5
10

$$$$
