25298
     RDKit          3D

  7  6  0  0  1  0  0  0  0  0999 V2000
   -0.7989    0.5750   -0.0747 O   0  0  0  0  0  0  0  0  0  0  0  0
    1.1129   -0.7958   -0.2923 O   0  0  0  0  0  0  0  0  0  0  0  0
    0.5592    0.3643    0.3334 C   0  0  0  0  0  0  0  0  0  0  0  0
   -1.6425   -0.5134    0.2781 C   0  0  0  0  0  0  0  0  0  0  0  0
    1.3446    1.5945   -0.1029 C   0  0  0  0  0  0  0  0  0  0  0  0
   -3.0523   -0.2148   -0.1854 C   0  0  0  0  0  0  0  0  0  0  0  0
    2.4770   -1.0099    0.0438 C   0  0  0  0  0  0  0  0  0  0  0  0
  1  3  1  0
  1  4  1  0
  2  3  1  0
  2  7  1  0
  3  5  1  0
  4  6  1  0
M  END
>  <PUBCHEM_COMPOUND_CID>  (1) 
25298

>  <PUBCHEM_CONFORMER_RMSD>  (1) 
0.4

>  <PUBCHEM_CONFORMER_DIVERSEORDER>  (1) 
1
16
8
17
7
18
11
5
15
4
21
20
19
10
6
2
14
13
9
12
3

>  <PUBCHEM_MMFF94_PARTIAL_CHARGES>  (1) 
5
1 -0.56
2 -0.56
3 0.56
4 0.28
7 0.28

>  <PUBCHEM_EFFECTIVE_ROTOR_COUNT>  (1) 
3

>  <PUBCHEM_PHARMACOPHORE_FEATURES>  (1) 
2
1 1 acceptor
1 2 acceptor

>  <PUBCHEM_HEAVY_ATOM_COUNT>  (1) 
7

>  <PUBCHEM_ATOM_DEF_STEREO_COUNT>  (1) 
0

>  <PUBCHEM_ATOM_UDEF_STEREO_COUNT>  (1) 
1

>  <PUBCHEM_BOND_DEF_STEREO_COUNT>  (1) 
0

>  <PUBCHEM_BOND_UDEF_STEREO_COUNT>  (1) 
0

>  <PUBCHEM_ISOTOPIC_ATOM_COUNT>  (1) 
0

>  <PUBCHEM_COMPONENT_COUNT>  (1) 
1

>  <PUBCHEM_CACTVS_TAUTO_COUNT>  (1) 
1

>  <PUBCHEM_CONFORMER_ID>  (1) 
000062D200000001

>  <PUBCHEM_MMFF94_ENERGY>  (1) 
12.681

>  <PUBCHEM_FEATURE_SELFOVERLAP>  (1) 
10.187

>  <PUBCHEM_SHAPE_FINGERPRINT>  (1) 
12932741 1 17749108937080841331
21040471 1 17979355592347014480
23552333 60 18201445808438842897
23552423 10 18334576875595900211
23552449 11 18335691758705790096
29004967 10 18412546479158036882
5460574 1 8430313541336026819

>  <PUBCHEM_SHAPE_MULTIPOLES>  (1) 
132.32
3.95
1.32
0.64
2.2
0.35
-0.02
-1.03
0.22
-0.96
0.05
0.02
0
0.03

>  <PUBCHEM_SHAPE_SELFOVERLAP>  (1) 
229.716

>  <PUBCHEM_SHAPE_VOLUME>  (1) 
88.6

>  <PUBCHEM_COORDINATE_TYPE>  (1) 
2
5
10

$$$$
