25317
     RDKit          3D

 17 16  0  0  0  0  0  0  0  0999 V2000
    0.0013    0.0030   -0.2521 P   0  0  0  0  0  0  0  0  0  0  0  0
    2.6906   -0.7812    0.1314 Si  0  0  0  0  0  4  0  0  0  0  0  0
   -2.0202   -1.9360    0.1328 Si  0  0  0  0  0  4  0  0  0  0  0  0
   -0.6646    2.7205    0.1569 Si  0  0  0  0  0  4  0  0  0  0  0  0
    1.4365    0.2749    0.4569 O   0  0  0  0  0  0  0  0  0  0  0  0
   -0.4760   -1.3805    0.4506 O   0  0  0  0  0  0  0  0  0  0  0  0
   -0.9532    1.1032    0.4654 O   0  0  0  0  0  0  0  0  0  0  0  0
   -0.0012    0.0117   -1.7581 O   0  0  0  0  0  0  0  0  0  0  0  0
    4.2295   -0.2336    1.0787 C   0  0  0  0  0  0  0  0  0  0  0  0
    2.2634   -2.5226    0.7061 C   0  0  0  0  0  0  0  0  0  0  0  0
    3.1418   -0.8517   -1.6904 C   0  0  0  0  0  0  0  0  0  0  0  0
   -2.3219   -2.2734   -1.6899 C   0  0  0  0  0  0  0  0  0  0  0  0
   -3.3107   -0.7030    0.7314 C   0  0  0  0  0  0  0  0  0  0  0  0
   -2.3055   -3.5527    1.0658 C   0  0  0  0  0  0  0  0  0  0  0  0
   -0.8479    3.0451   -1.6942 C   0  0  0  0  0  0  0  0  0  0  0  0
   -1.9205    3.8042    1.0477 C   0  0  0  0  0  0  0  0  0  0  0  0
    1.0584    3.2721    0.6610 C   0  0  0  0  0  0  0  0  0  0  0  0
  1  5  1  0
  1  6  1  0
  1  7  1  0
  1  8  2  0
  2  5  1  0
  2  9  1  0
  2 10  1  0
  2 11  1  0
  3  6  1  0
  3 12  1  0
  3 13  1  0
  3 14  1  0
  4  7  1  0
  4 15  1  0
  4 16  1  0
  4 17  1  0
M  END
>  <PUBCHEM_COMPOUND_CID>  (1) 
25317

>  <PUBCHEM_CONFORMER_RMSD>  (1) 
0.8

>  <PUBCHEM_CONFORMER_DIVERSEORDER>  (1) 
2
1

>  <PUBCHEM_MMFF94_PARTIAL_CHARGES>  (1) 
17
1 1.51
10 -0.08
11 -0.08
12 -0.08
13 -0.08
14 -0.08
15 -0.08
16 -0.08
17 -0.08
2 0.54
3 0.54
4 0.54
5 -0.57
6 -0.57
7 -0.57
8 -0.7
9 -0.08

>  <PUBCHEM_EFFECTIVE_ROTOR_COUNT>  (1) 
6

>  <PUBCHEM_PHARMACOPHORE_FEATURES>  (1) 
1
1 8 acceptor

>  <PUBCHEM_HEAVY_ATOM_COUNT>  (1) 
17

>  <PUBCHEM_ATOM_DEF_STEREO_COUNT>  (1) 
0

>  <PUBCHEM_ATOM_UDEF_STEREO_COUNT>  (1) 
0

>  <PUBCHEM_BOND_DEF_STEREO_COUNT>  (1) 
0

>  <PUBCHEM_BOND_UDEF_STEREO_COUNT>  (1) 
0

>  <PUBCHEM_ISOTOPIC_ATOM_COUNT>  (1) 
0

>  <PUBCHEM_COMPONENT_COUNT>  (1) 
1

>  <PUBCHEM_CACTVS_TAUTO_COUNT>  (1) 
1

>  <PUBCHEM_CONFORMER_ID>  (1) 
000062E500000002

>  <PUBCHEM_MMFF94_ENERGY>  (1) 
17.1832

>  <PUBCHEM_FEATURE_SELFOVERLAP>  (1) 
5.074

>  <PUBCHEM_SHAPE_FINGERPRINT>  (1) 
11578080 2 17533474966835225293
12553582 1 18409736191677743802
12788726 201 18339345371362721603
13132413 78 18338242690323101957
13140716 1 18266459982486569458
13681431 1 18122343746443981119
14178342 30 18262790749767571762
15906896 17 18268989778448784055
16752209 62 18194964045770237839
16945 1 18409454669529986058
19591789 44 17834682599851835155
20097449 115 18264207083303713402
20510252 161 18265889164200579979
20600515 1 18189614024332420194
20645476 183 17977961089791619028
20711985 344 18340495473521112094
21041028 32 18267593588018402153
21524375 3 17619627986350339459
2334 1 18050287269092268546
23419403 2 17829293090052383020
23557571 272 18271812281327873716
23558518 356 18193555554100553874
23598291 2 17913787260439411659
23598294 1 18193288398575833368
2748010 2 18194108853203769728
352729 6 17762056532168572307
458136 41 16819690903296962507
5845 1 12940437026486966540
59755656 215 17254272844068697611
633830 44 16399461979009097549
7364860 26 17764039359798010499
81228 2 18410575054598314490
9981440 41 16910821386613746154

>  <PUBCHEM_SHAPE_MULTIPOLES>  (1) 
384.86
5.22
5.21
1.57
3.83
3.65
-0.75
-3.63
0.88
-3.8
0.93
0
-0.03
0

>  <PUBCHEM_SHAPE_SELFOVERLAP>  (1) 
660.415

>  <PUBCHEM_SHAPE_VOLUME>  (1) 
257.7

>  <PUBCHEM_COORDINATE_TYPE>  (1) 
2
5
10

$$$$
