25313
     RDKit          3D

 15 15  0  0  1  0  0  0  0  0999 V2000
    1.6177   -0.4738    0.3300 O   0  0  0  0  0  0  0  0  0  0  0  0
    0.6270    2.9016   -0.2568 O   0  0  0  0  0  0  0  0  0  0  0  0
    2.2232    1.8957    0.9797 O   0  0  0  0  0  0  0  0  0  0  0  0
    0.5864   -2.2171   -0.7808 O   0  0  0  0  0  0  0  0  0  0  0  0
    0.7914    0.4700   -0.3970 C   0  0  0  0  0  0  0  0  0  0  0  0
   -0.6479    0.2049   -0.1092 C   0  0  0  0  0  0  0  0  0  0  0  0
    1.1036    0.2757   -1.8751 C   0  0  0  0  0  0  0  0  0  0  0  0
    1.3070    1.8075    0.1680 C   0  0  0  0  0  0  0  0  0  0  0  0
   -1.0925    0.1282    1.2108 C   0  0  0  0  0  0  0  0  0  0  0  0
   -1.5494    0.0344   -1.1598 C   0  0  0  0  0  0  0  0  0  0  0  0
   -2.4385   -0.1194    1.4801 C   0  0  0  0  0  0  0  0  0  0  0  0
   -2.8955   -0.2131   -0.8904 C   0  0  0  0  0  0  0  0  0  0  0  0
   -3.3400   -0.2900    0.4296 C   0  0  0  0  0  0  0  0  0  0  0  0
    1.3944   -1.7755    0.0250 C   0  0  0  0  0  0  0  0  0  0  0  0
    2.3129   -2.6290    0.8459 C   0  0  0  0  0  0  0  0  0  0  0  0
  1  5  1  0
  1 14  1  0
  2  8  1  0
  3  8  2  0
  4 14  2  0
  5  6  1  0
  5  7  1  0
  5  8  1  0
  6  9  2  0
  6 10  1  0
  9 11  1  0
 10 12  2  0
 11 13  2  0
 12 13  1  0
 14 15  1  0
M  END
>  <PUBCHEM_COMPOUND_CID>  (1) 
25313

>  <PUBCHEM_CONFORMER_RMSD>  (1) 
0.6

>  <PUBCHEM_CONFORMER_DIVERSEORDER>  (1) 
4
2
13
20
15
1
8
14
18
12
3
7
17
9
19
6
5
16
21
10
11

>  <PUBCHEM_MMFF94_PARTIAL_CHARGES>  (1) 
20
1 -0.43
10 -0.15
11 -0.15
12 -0.15
13 -0.15
14 0.66
15 0.06
19 0.15
2 -0.65
20 0.15
21 0.15
22 0.15
23 0.15
24 0.5
3 -0.57
4 -0.57
5 0.48
6 -0.14
8 0.66
9 -0.15

>  <PUBCHEM_EFFECTIVE_ROTOR_COUNT>  (1) 
4

>  <PUBCHEM_PHARMACOPHORE_FEATURES>  (1) 
5
1 2 acceptor
1 3 acceptor
1 4 acceptor
3 2 3 8 anion
6 6 9 10 11 12 13 rings

>  <PUBCHEM_HEAVY_ATOM_COUNT>  (1) 
15

>  <PUBCHEM_ATOM_DEF_STEREO_COUNT>  (1) 
0

>  <PUBCHEM_ATOM_UDEF_STEREO_COUNT>  (1) 
1

>  <PUBCHEM_BOND_DEF_STEREO_COUNT>  (1) 
0

>  <PUBCHEM_BOND_UDEF_STEREO_COUNT>  (1) 
0

>  <PUBCHEM_ISOTOPIC_ATOM_COUNT>  (1) 
0

>  <PUBCHEM_COMPONENT_COUNT>  (1) 
1

>  <PUBCHEM_CACTVS_TAUTO_COUNT>  (1) 
1

>  <PUBCHEM_CONFORMER_ID>  (1) 
000062E100000004

>  <PUBCHEM_MMFF94_ENERGY>  (1) 
45.4123

>  <PUBCHEM_FEATURE_SELFOVERLAP>  (1) 
25.434

>  <PUBCHEM_SHAPE_FINGERPRINT>  (1) 
1 1 18264205988034396260
12202030 40 17532112577824245387
12326174 3 18271820033068674948
12423570 1 12308996165983674148
12932764 1 18340505421213599341
13538477 17 17346319336477265871
13898156 1 17275387603448797167
14817 1 16897113001486514646
15309172 13 18119808264188600896
15852999 172 17897149437439323947
16945 1 18335131037792948405
19765921 60 17700693127868006977
20361792 2 18269557126480371599
21061003 4 18265895744101461995
21296965 67 18120929512566506819
21524375 3 17771062992721184376
22802520 49 16516551914076890107
23419403 2 17682079272240785196
23559900 14 16807002127323464818
2748010 2 18194383529548165252
305870 269 18341328993518723449
528862 383 18341607152717137731
5845 1 15752645697599281982
7364860 26 18272093798510504283
81228 2 17472982796449614458

>  <PUBCHEM_SHAPE_MULTIPOLES>  (1) 
285.22
3.92
2.47
1.43
2.59
0.38
0.21
-1.34
-0.7
-2.63
-0.38
0.24
0.01
0

>  <PUBCHEM_SHAPE_SELFOVERLAP>  (1) 
598.842

>  <PUBCHEM_SHAPE_VOLUME>  (1) 
159.6

>  <PUBCHEM_COORDINATE_TYPE>  (1) 
2
5
10

$$$$
