25325
     RDKit          3D

 13 14  0  0  1  0  0  0  0  0999 V2000
    2.9227   -0.4989   -0.3846 O   0  0  0  0  0  0  0  0  0  0  0  0
    3.2634    1.5951    0.5425 O   0  0  0  0  0  0  0  0  0  0  0  0
   -0.6682    0.5031    0.1960 C   0  0  0  0  0  0  0  0  0  0  0  0
   -1.2932   -0.8494   -0.2023 C   0  0  0  0  0  0  0  0  0  0  0  0
    0.7758    0.6020   -0.3087 C   0  0  0  0  0  0  0  0  0  0  0  0
   -0.4438   -2.0164    0.3184 C   0  0  0  0  0  0  0  0  0  0  0  0
   -1.5178    1.6686   -0.3265 C   0  0  0  0  0  0  0  0  0  0  0  0
   -2.7383   -0.9491    0.3029 C   0  0  0  0  0  0  0  0  0  0  0  0
    1.6242   -0.5663    0.1948 C   0  0  0  0  0  0  0  0  0  0  0  0
    0.9992   -1.9116   -0.1669 C   0  0  0  0  0  0  0  0  0  0  0  0
   -2.9627    1.5654    0.1578 C   0  0  0  0  0  0  0  0  0  0  0  0
   -3.5855    0.2188   -0.1981 C   0  0  0  0  0  0  0  0  0  0  0  0
    3.6241    0.6386   -0.1253 C   0  0  0  0  0  0  0  0  0  0  0  0
  1  9  1  0
  1 13  1  0
  2 13  2  0
  3  4  1  0
  3  5  1  0
  3  7  1  0
  4  6  1  0
  4  8  1  0
  5  9  1  0
  6 10  1  0
  7 11  1  0
  8 12  1  0
  9 10  1  0
 11 12  1  0
M  END
>  <PUBCHEM_COMPOUND_CID>  (1) 
25325

>  <PUBCHEM_CONFORMER_RMSD>  (1) 
0.6

>  <PUBCHEM_CONFORMER_DIVERSEORDER>  (1) 
1
16
31
10
17
13
21
3
15
20
23
22
2
24
7
34
8
14
9
4
32
30
19
18
33
25
12
27
28
6
29
11
5
26

>  <PUBCHEM_MMFF94_PARTIAL_CHARGES>  (1) 
5
1 -0.43
13 0.66
2 -0.57
31 0.06
9 0.28

>  <PUBCHEM_EFFECTIVE_ROTOR_COUNT>  (1) 
3.6

>  <PUBCHEM_PHARMACOPHORE_FEATURES>  (1) 
3
1 2 acceptor
6 3 4 5 6 9 10 rings
6 3 4 7 8 11 12 rings

>  <PUBCHEM_HEAVY_ATOM_COUNT>  (1) 
13

>  <PUBCHEM_ATOM_DEF_STEREO_COUNT>  (1) 
0

>  <PUBCHEM_ATOM_UDEF_STEREO_COUNT>  (1) 
3

>  <PUBCHEM_BOND_DEF_STEREO_COUNT>  (1) 
0

>  <PUBCHEM_BOND_UDEF_STEREO_COUNT>  (1) 
0

>  <PUBCHEM_ISOTOPIC_ATOM_COUNT>  (1) 
0

>  <PUBCHEM_COMPONENT_COUNT>  (1) 
1

>  <PUBCHEM_CACTVS_TAUTO_COUNT>  (1) 
1

>  <PUBCHEM_CONFORMER_ID>  (1) 
000062ED00000001

>  <PUBCHEM_MMFF94_ENERGY>  (1) 
20.0006

>  <PUBCHEM_FEATURE_SELFOVERLAP>  (1) 
15.24

>  <PUBCHEM_SHAPE_FINGERPRINT>  (1) 
10608611 8 18338515240094228781
10967382 1 18410012126130279029
11132069 177 18409726283172023256
11543360 7 16200141140461792565
12346645 44 18410855447259090779
13380535 21 18339090267653773051
13380535 76 18409728456483614186
13897977 150 18338796719518718613
14144814 61 18408040688939070329
14325111 11 18410575058909216348
14614273 12 18187075110218219077
14897335 6 18410569561366888791
15219456 202 18343306937764616862
15536298 74 18342176605525507630
15775835 57 18341054025543722385
16945 1 18335430105056144639
17846911 113 18410848893265675648
18186145 218 18272658904701148904
20510252 161 18342461473394338273
20528008 55 18411695508581766093
20871998 184 18198912585425860007
21028194 46 18410296891336846526
21501502 16 18266736879387026667
21524375 3 18410008814985138210
23402539 116 18339631343201664606
23402655 69 18268697335022242733
23463225 33 18261108509355404866
23552423 10 18119248355356725291
23559900 14 18343303657084628046
2748010 2 18336273331753717703
43471831 8 18260827085755213491
528886 8 18409163307707183147
53812653 166 18413386535995711064
6333449 129 18410291427911664149
69090 78 18273210923794016591
7364860 26 18196371412211757534

>  <PUBCHEM_SHAPE_MULTIPOLES>  (1) 
255.8
5.8
2.05
0.68
1.71
0.33
0
-2.25
-0.08
-0.11
-0.1
0.01
-0.01
0.25

>  <PUBCHEM_SHAPE_SELFOVERLAP>  (1) 
518.67

>  <PUBCHEM_SHAPE_VOLUME>  (1) 
145.7

>  <PUBCHEM_COORDINATE_TYPE>  (1) 
2
5
10

$$$$
