25338
     RDKit          3D

  9  9  0  0  0  0  0  0  0  0999 V2000
   -0.3527   -1.6831   -0.0268 O   0  0  0  0  0  0  0  0  0  0  0  0
    2.3681   -0.9952    0.3088 O   0  0  0  0  0  0  0  0  0  0  0  0
    0.6008    0.4412   -0.2164 N   0  0  0  0  0  0  0  0  0  0  0  0
   -1.7718    0.1170   -0.5560 C   0  0  0  0  0  0  0  0  0  0  0  0
   -2.2603    1.2478    0.2827 C   0  0  0  0  0  0  0  0  0  0  0  0
   -2.8955   -0.1069    0.3969 C   0  0  0  0  0  0  0  0  0  0  0  0
   -0.4407   -0.4790   -0.2376 C   0  0  0  0  0  0  0  0  0  0  0  0
    1.9301    0.1234    0.0543 C   0  0  0  0  0  0  0  0  0  0  0  0
    2.8219    1.3348   -0.0060 C   0  0  0  0  0  0  0  0  0  0  0  0
  1  7  2  0
  2  8  2  0
  3  7  1  0
  3  8  1  0
  4  5  1  0
  4  6  1  0
  4  7  1  0
  5  6  1  0
  8  9  1  0
M  END
>  <PUBCHEM_COMPOUND_CID>  (1) 
25338

>  <PUBCHEM_CONFORMER_RMSD>  (1) 
0.6

>  <PUBCHEM_CONFORMER_DIVERSEORDER>  (1) 
1
5
7
4
3
2
8
6

>  <PUBCHEM_MMFF94_PARTIAL_CHARGES>  (1) 
15
1 -0.57
10 0.1
11 0.1
12 0.1
13 0.1
14 0.1
15 0.37
2 -0.57
3 -0.49
4 -0.1
5 -0.2
6 -0.2
7 0.63
8 0.57
9 0.06

>  <PUBCHEM_EFFECTIVE_ROTOR_COUNT>  (1) 
3.6

>  <PUBCHEM_PHARMACOPHORE_FEATURES>  (1) 
3
1 1 acceptor
1 2 acceptor
1 3 donor

>  <PUBCHEM_HEAVY_ATOM_COUNT>  (1) 
9

>  <PUBCHEM_ATOM_DEF_STEREO_COUNT>  (1) 
0

>  <PUBCHEM_ATOM_UDEF_STEREO_COUNT>  (1) 
0

>  <PUBCHEM_BOND_DEF_STEREO_COUNT>  (1) 
0

>  <PUBCHEM_BOND_UDEF_STEREO_COUNT>  (1) 
0

>  <PUBCHEM_ISOTOPIC_ATOM_COUNT>  (1) 
0

>  <PUBCHEM_COMPONENT_COUNT>  (1) 
1

>  <PUBCHEM_CACTVS_TAUTO_COUNT>  (1) 
3

>  <PUBCHEM_CONFORMER_ID>  (1) 
000062FA00000001

>  <PUBCHEM_MMFF94_ENERGY>  (1) 
16.0038

>  <PUBCHEM_FEATURE_SELFOVERLAP>  (1) 
15.226

>  <PUBCHEM_SHAPE_FINGERPRINT>  (1) 
10857977 72 16877665681728235693
12932764 1 17060614516468881830
14325111 11 18410856555534823797
14390081 3 18201154455190591776
15775835 57 18343869921972430889
20653085 51 17560256746594819921
21028194 46 18412829075015664617
21040471 1 18411981381657644486
23552423 10 18411134697490552702
29004967 10 15864067663421721996
369184 2 18411697694925705121
5084963 1 18272365347960153777

>  <PUBCHEM_SHAPE_MULTIPOLES>  (1) 
168.5
4.6
1.37
0.67
0.76
0.1
0.02
-1.29
-0.51
0.27
-0.07
-0.14
-0.02
-0.15

>  <PUBCHEM_SHAPE_SELFOVERLAP>  (1) 
328.961

>  <PUBCHEM_SHAPE_VOLUME>  (1) 
102.3

>  <PUBCHEM_COORDINATE_TYPE>  (1) 
2
5
10

$$$$
