25330
     RDKit          3D

 25 26  0  0  1  0  0  0  0  0999 V2000
    0.7764    0.0328   -1.1583 O   0  0  0  0  0  0  0  0  0  0  0  0
    0.1102    1.6868    0.2975 O   0  0  0  0  0  0  0  0  0  0  0  0
    4.1922    0.1352    0.2672 N   0  0  0  0  0  0  0  0  0  0  0  0
    2.1251    0.4921   -1.0589 C   0  0  0  0  0  0  0  0  0  0  0  0
    2.7906   -0.2318    0.1168 C   0  0  0  0  0  0  0  0  0  0  0  0
    2.8298    0.2278   -2.3955 C   0  0  0  0  0  0  0  0  0  0  0  0
    4.3187    1.4225    0.9540 C   0  0  0  0  0  0  0  0  0  0  0  0
    4.9227   -0.9025    0.9980 C   0  0  0  0  0  0  0  0  0  0  0  0
   -1.5403    0.1655   -0.6707 C   0  0  0  0  0  0  0  0  0  0  0  0
   -0.1445    0.7274   -0.4196 C   0  0  0  0  0  0  0  0  0  0  0  0
    2.1587    0.9528   -3.5557 C   0  0  0  0  0  0  0  0  0  0  0  0
   -2.6413    0.9959   -0.0231 C   0  0  0  0  0  0  0  0  0  0  0  0
   -1.6762   -1.3156   -0.3433 C   0  0  0  0  0  0  0  0  0  0  0  0
    5.7733    1.8490    1.0572 C   0  0  0  0  0  0  0  0  0  0  0  0
    4.3840   -1.0624    2.4096 C   0  0  0  0  0  0  0  0  0  0  0  0
   -3.0572    0.7098    1.2773 C   0  0  0  0  0  0  0  0  0  0  0  0
   -2.5855   -2.1050   -1.0475 C   0  0  0  0  0  0  0  0  0  0  0  0
   -3.2330    2.0427   -0.7303 C   0  0  0  0  0  0  0  0  0  0  0  0
   -0.8911   -1.8830    0.6604 C   0  0  0  0  0  0  0  0  0  0  0  0
   -4.0649    1.4702    1.8704 C   0  0  0  0  0  0  0  0  0  0  0  0
   -2.7099   -3.4616   -0.7478 C   0  0  0  0  0  0  0  0  0  0  0  0
   -4.2408    2.8031   -0.1369 C   0  0  0  0  0  0  0  0  0  0  0  0
   -1.0155   -3.2397    0.9600 C   0  0  0  0  0  0  0  0  0  0  0  0
   -4.6566    2.5168    1.1634 C   0  0  0  0  0  0  0  0  0  0  0  0
   -1.9249   -4.0289    0.2558 C   0  0  0  0  0  0  0  0  0  0  0  0
  1  4  1  0
  1 10  1  0
  2 10  2  0
  3  5  1  0
  3  7  1  0
  3  8  1  0
  4  5  1  0
  4  6  1  0
  6 11  1  0
  7 14  1  0
  8 15  1  0
  9 10  1  0
  9 12  1  0
  9 13  1  0
 12 16  2  0
 12 18  1  0
 13 17  2  0
 13 19  1  0
 16 20  1  0
 17 21  1  0
 18 22  2  0
 19 23  2  0
 20 24  2  0
 21 25  2  0
 22 24  1  0
 23 25  1  0
M  END
>  <PUBCHEM_COMPOUND_CID>  (1) 
25330

>  <PUBCHEM_CONFORMER_RMSD>  (1) 
1

>  <PUBCHEM_CONFORMER_DIVERSEORDER>  (1) 
1
86
2
38
45
19
32
107
65
106
120
27
7
80
93
66
25
58
59
36
76
116
87
117
64
28
85
94
14
22
47
24
50
74
122
95
99
35
77
51
17
52
49
48
98
31
92
34
104
39
88
109
12
43
121
9
84
110
10
33
56
102
82
113
15
96
62
71
40
75
81
20
18
21
57
5
112
26
13
37
53
11
67
68
73
63
101
23
30
69
83
54
60
61
3
72
8
118
108
100
70
46
6
103
89
4
91
123
42
44
55
97
115
124
79
111
41
119
78
90
105
16
29
114

>  <PUBCHEM_MMFF94_PARTIAL_CHARGES>  (1) 
31
1 -0.43
10 0.66
12 -0.14
13 -0.14
16 -0.15
17 -0.15
18 -0.15
19 -0.15
2 -0.57
20 -0.15
21 -0.15
22 -0.15
23 -0.15
24 -0.15
25 -0.15
3 -0.81
4 0.28
45 0.15
46 0.15
47 0.15
48 0.15
49 0.15
5 0.27
50 0.15
51 0.15
52 0.15
53 0.15
54 0.15
7 0.27
8 0.27
9 0.35

>  <PUBCHEM_EFFECTIVE_ROTOR_COUNT>  (1) 
10

>  <PUBCHEM_PHARMACOPHORE_FEATURES>  (1) 
5
1 11 hydrophobe
1 2 acceptor
1 3 cation
6 12 16 18 20 22 24 rings
6 13 17 19 21 23 25 rings

>  <PUBCHEM_HEAVY_ATOM_COUNT>  (1) 
25

>  <PUBCHEM_ATOM_DEF_STEREO_COUNT>  (1) 
0

>  <PUBCHEM_ATOM_UDEF_STEREO_COUNT>  (1) 
1

>  <PUBCHEM_BOND_DEF_STEREO_COUNT>  (1) 
0

>  <PUBCHEM_BOND_UDEF_STEREO_COUNT>  (1) 
0

>  <PUBCHEM_ISOTOPIC_ATOM_COUNT>  (1) 
0

>  <PUBCHEM_COMPONENT_COUNT>  (1) 
1

>  <PUBCHEM_CACTVS_TAUTO_COUNT>  (1) 
1

>  <PUBCHEM_CONFORMER_ID>  (1) 
000062F200000001

>  <PUBCHEM_MMFF94_ENERGY>  (1) 
56.3132

>  <PUBCHEM_FEATURE_SELFOVERLAP>  (1) 
25.372

>  <PUBCHEM_SHAPE_FINGERPRINT>  (1) 
10764073 3 15865757484403465887
10906281 52 17632303358602488536
11049842 53 18192737603749645142
11578080 2 17059240144156514946
12107183 9 18193543490249284434
121448 382 18343013373045643029
12160290 23 18269016308957552647
12403259 118 17603593989236267421
12403259 327 18271796883790931544
12422481 6 17678172681282979081
12549972 3 17559701493428898494
12553582 1 17904504130557467991
12633257 1 18266159679127717634
12788726 201 18120110617302076247
12839892 36 18261123933142108531
13004483 165 17982449601315338775
14178342 30 18337958999080203582
14468879 13 17132113532882849879
15537594 2 17458903735415237962
15842332 3 17751092498817073286
17980427 23 18041842947594507692
20600515 1 18272089370711127728
21033648 29 18192694684099647064
212916 134 18270399378283476961
23419403 2 13252221892786075175
23557571 272 17988934408867563644
23559900 14 18201174169702300476
25147074 1 17896331383539577524
283562 15 18267291205189211571
463206 1 17323793847823679730
5104073 3 18340753932574725048
58807428 26 18263927640010388931
5924683 9 18339632464330683354
633830 44 17344642430905780041
6679774 75 17752224806615902306
7615 1 17896325890223697532
81228 2 18123762100018303575
9862522 239 18041836199900042581
9981440 41 17060049324569172302

>  <PUBCHEM_SHAPE_MULTIPOLES>  (1) 
497.77
10.6
3.98
2.27
10.47
3.8
1.47
-6.67
-5.42
-5.63
-0.62
2.28
-0.58
-1.53

>  <PUBCHEM_SHAPE_SELFOVERLAP>  (1) 
1026.777

>  <PUBCHEM_SHAPE_VOLUME>  (1) 
285.8

>  <PUBCHEM_COORDINATE_TYPE>  (1) 
2
5
10

$$$$
