25344
     RDKit          3D

 27 29  0  0  1  0  0  0  0  0999 V2000
   -1.0098   -3.5686   -1.1148 O   0  0  0  0  0  0  0  0  0  0  0  0
    1.8231   -0.2367    0.3522 N   0  0  0  0  0  0  0  0  0  0  0  0
    5.3052    0.9891   -0.1593 N   0  0  0  0  0  0  0  0  0  0  0  0
   -0.5798   -0.9528    0.1696 C   0  0  0  0  0  0  0  0  0  0  0  0
   -0.0650   -3.4602   -0.0367 C   0  0  0  0  0  0  0  0  0  0  0  0
   -0.4606   -2.3203    0.8817 C   0  0  0  0  0  0  0  0  0  0  0  0
   -0.0499   -4.8147    0.6505 C   0  0  0  0  0  0  0  0  0  0  0  0
   -1.0733    0.1004    1.1934 C   0  0  0  0  0  0  0  0  0  0  0  0
    0.7157   -0.5200   -0.5542 C   0  0  0  0  0  0  0  0  0  0  0  0
   -0.2860   -5.7445   -0.5131 C   0  0  0  0  0  0  0  0  0  0  0  0
   -1.2788   -4.9599   -1.3442 C   0  0  0  0  0  0  0  0  0  0  0  0
   -1.7728    1.2861    0.5738 C   0  0  0  0  0  0  0  0  0  0  0  0
    2.9875    0.2350   -0.3835 C   0  0  0  0  0  0  0  0  0  0  0  0
   -3.1541    1.2911    0.3576 C   0  0  0  0  0  0  0  0  0  0  0  0
    4.1328    0.5333    0.5796 C   0  0  0  0  0  0  0  0  0  0  0  0
   -0.9789    2.3732    0.2280 C   0  0  0  0  0  0  0  0  0  0  0  0
   -3.7497    2.4339   -0.2273 C   0  0  0  0  0  0  0  0  0  0  0  0
   -1.5648    3.4972   -0.3468 C   0  0  0  0  0  0  0  0  0  0  0  0
   -3.9629    0.1965    0.7041 C   0  0  0  0  0  0  0  0  0  0  0  0
   -2.9410    3.5287   -0.5737 C   0  0  0  0  0  0  0  0  0  0  0  0
    6.4216    1.2430    0.7528 C   0  0  0  0  0  0  0  0  0  0  0  0
    4.9928    2.1948   -0.9279 C   0  0  0  0  0  0  0  0  0  0  0  0
   -5.1365    2.4484   -0.4484 C   0  0  0  0  0  0  0  0  0  0  0  0
   -5.3390    0.2281    0.4770 C   0  0  0  0  0  0  0  0  0  0  0  0
   -5.9248    1.3519   -0.0982 C   0  0  0  0  0  0  0  0  0  0  0  0
    6.7628    0.0029    1.5615 C   0  0  0  0  0  0  0  0  0  0  0  0
    6.1862    2.6441   -1.7538 C   0  0  0  0  0  0  0  0  0  0  0  0
  1  5  1  0
  1 11  1  0
  2  9  1  0
  2 13  1  0
  3 15  1  0
  3 21  1  0
  3 22  1  0
  4  6  1  0
  4  8  1  0
  4  9  1  0
  5  6  1  0
  5  7  1  0
  7 10  1  0
  8 12  1  0
 10 11  1  0
 12 14  1  0
 12 16  2  0
 13 15  1  0
 14 17  2  0
 14 19  1  0
 16 18  1  0
 17 20  1  0
 17 23  1  0
 18 20  2  0
 19 24  2  0
 21 26  1  0
 22 27  1  0
 23 25  2  0
 24 25  1  0
M  END
>  <PUBCHEM_COMPOUND_CID>  (1) 
25344

>  <PUBCHEM_CONFORMER_RMSD>  (1) 
1.2

>  <PUBCHEM_CONFORMER_DIVERSEORDER>  (1) 
1
201
22
93
259
20
157
95
168
19
285
206
139
197
97
246
207
158
32
266
202
9
65
234
23
212
235
255
262
121
226
275
183
245
108
258
196
214
189
204
277
240
286
165
84
230
256
194
164
159
67
163
133
271
221
211
41
228
143
151
195
186
88
257
107
161
180
101
284
288
145
58
210
254
126
103
141
273
184
192
149
4
125
29
203
127
220
111
49
218
238
217
281
272
274
117
175
114
279
199
177
33
25
216
87
276
171
81
109
232
233
253
64
16
267
40
188
237
62
94
10
178
68
179
166
185
42
223
242
181
282
59
2
45
280
86
172
30
76
110
248
260
173
252
182
208
150
249
198
35
122
239
155
278
61
236
96
193
91
156
18
241
265
24
104
224
132
269
200
244
169
152
115
79
147
130
52
31
219
28
162
247
215
63
113
264
15
120
128
129
140
80
90
229
77
261
72
85
153
146
100
251
137
89
6
105
287
135
160
46
17
78
148
71
144
174
13
73
231
270
118
99
56
112
70
26
44
57
12
39
116
136
14
268
102
134
66
167
47
74
209
37
187
38
34
138
21
225
176
92
227
53
191
51
43
55
263
106
3
36
170
75
5
48
8
190
54
154
283
243
289
50
119
83
11
60
124
142
69
222
123
250
205
98
131
213
7
82
27

>  <PUBCHEM_MMFF94_PARTIAL_CHARGES>  (1) 
27
1 -0.56
11 0.28
12 -0.14
13 0.27
15 0.27
16 -0.15
18 -0.15
19 -0.15
2 -0.9
20 -0.15
21 0.27
22 0.27
23 -0.15
24 -0.15
25 -0.15
3 -0.81
42 0.36
47 0.15
48 0.15
49 0.15
5 0.28
50 0.15
55 0.15
56 0.15
57 0.15
8 0.14
9 0.27

>  <PUBCHEM_EFFECTIVE_ROTOR_COUNT>  (1) 
12

>  <PUBCHEM_PHARMACOPHORE_FEATURES>  (1) 
7
1 1 acceptor
1 2 cation
1 2 donor
1 3 cation
5 1 5 7 10 11 rings
6 12 14 16 17 18 20 rings
6 14 17 19 23 24 25 rings

>  <PUBCHEM_HEAVY_ATOM_COUNT>  (1) 
27

>  <PUBCHEM_ATOM_DEF_STEREO_COUNT>  (1) 
0

>  <PUBCHEM_ATOM_UDEF_STEREO_COUNT>  (1) 
2

>  <PUBCHEM_BOND_DEF_STEREO_COUNT>  (1) 
0

>  <PUBCHEM_BOND_UDEF_STEREO_COUNT>  (1) 
0

>  <PUBCHEM_ISOTOPIC_ATOM_COUNT>  (1) 
0

>  <PUBCHEM_COMPONENT_COUNT>  (1) 
1

>  <PUBCHEM_CACTVS_TAUTO_COUNT>  (1) 
1

>  <PUBCHEM_CONFORMER_ID>  (1) 
0000630000000001

>  <PUBCHEM_MMFF94_ENERGY>  (1) 
59.2255

>  <PUBCHEM_FEATURE_SELFOVERLAP>  (1) 
35.548

>  <PUBCHEM_SHAPE_FINGERPRINT>  (1) 
10074138 170 18267283504222770314
11135926 11 18337946780562988781
11991303 11 18340772632293074094
12107183 9 18261663785104218946
12596602 18 16950568813235952216
12788726 201 18192141827356126010
13590594 115 17832989725776981475
13757389 114 18267033927667135687
13911987 19 18410857659690156845
14556957 393 17613733921753623108
15131766 46 15431747517491036876
15775530 1 17697582647974792968
16728300 4 17606659354576058394
17539 30 18054503879137419238
17980427 23 17676215675641191509
19427546 20 18122353647071799892
20101258 96 17688323690674835370
20197701 30 18337110068581762858
20511986 3 17604141623236181596
23559900 14 17618214006434930051
25019877 29 18413392029390706679
255183 313 18270976755217143035
4017518 198 18341614764354754766
44249763 50 18057603381864598728
5219985 13 18409730638374376132
5486654 2 18412268354219303053
59755656 520 18410565193833665366
6669772 16 18130225952436817078
6673363 416 16973939715112783214
6700243 42 17406877267402551846
9709674 26 17761212116756965059
9981440 41 18335987467272808881

>  <PUBCHEM_SHAPE_MULTIPOLES>  (1) 
539.82
13.93
7.1
1.19
19.4
13.72
0.1
-16.7
-0.8
-3.12
2.82
1.29
0.17
-1.18

>  <PUBCHEM_SHAPE_SELFOVERLAP>  (1) 
1113.818

>  <PUBCHEM_SHAPE_VOLUME>  (1) 
311.4

>  <PUBCHEM_COORDINATE_TYPE>  (1) 
2
5
10

$$$$
