2536
     RDKit          3D

 29 30  0  0  0  0  0  0  0  0999 V2000
   -5.7363    0.4781   -0.1121 O   0  0  0  0  0  0  0  0  0  0  0  0
    1.9661    1.0985    0.1168 O   0  0  0  0  0  0  0  0  0  0  0  0
   -3.8411   -0.8032    0.1835 O   0  0  0  0  0  0  0  0  0  0  0  0
   -8.2885    0.9074   -0.2899 O   0  0  0  0  0  0  0  0  0  0  0  0
    1.7100   -1.1992    0.4148 O   0  0  0  0  0  0  0  0  0  0  0  0
   -8.9487   -1.3103   -0.0968 N   0  0  0  0  0  0  0  0  0  0  0  0
    8.0836   -0.4047    0.5275 N   0  0  0  0  0  0  0  0  0  0  0  0
    8.2454   -0.7424   -1.8539 N   0  0  0  0  0  0  0  0  0  0  0  0
   10.1308   -0.6390   -0.5722 N   0  0  0  0  0  0  0  0  0  0  0  0
   -2.1636    1.4673   -0.0766 C   0  0  0  0  0  0  0  0  0  0  0  0
   -3.6629    1.6008   -0.1474 C   0  0  0  0  0  0  0  0  0  0  0  0
   -1.4274    1.2515   -1.2416 C   0  0  0  0  0  0  0  0  0  0  0  0
   -1.5119    1.5592    1.1533 C   0  0  0  0  0  0  0  0  0  0  0  0
    0.6120    1.2197    0.0531 C   0  0  0  0  0  0  0  0  0  0  0  0
   -0.0397    1.1277   -1.1767 C   0  0  0  0  0  0  0  0  0  0  0  0
   -0.1242    1.4354    1.2182 C   0  0  0  0  0  0  0  0  0  0  0  0
   -4.3798    0.2794   -0.0031 C   0  0  0  0  0  0  0  0  0  0  0  0
   -6.5468   -0.6717    0.0037 C   0  0  0  0  0  0  0  0  0  0  0  0
    3.9012   -0.2614    0.3598 C   0  0  0  0  0  0  0  0  0  0  0  0
   -8.0038   -0.2845   -0.1383 C   0  0  0  0  0  0  0  0  0  0  0  0
    2.4184   -0.2103    0.3006 C   0  0  0  0  0  0  0  0  0  0  0  0
    4.6454    0.9102    0.2212 C   0  0  0  0  0  0  0  0  0  0  0  0
    4.5500   -1.4809    0.5541 C   0  0  0  0  0  0  0  0  0  0  0  0
    6.6870   -0.3570    0.4714 C   0  0  0  0  0  0  0  0  0  0  0  0
    6.0382    0.8624    0.2771 C   0  0  0  0  0  0  0  0  0  0  0  0
    5.9428   -1.5287    0.6098 C   0  0  0  0  0  0  0  0  0  0  0  0
   -8.6499   -2.7309    0.0657 C   0  0  0  0  0  0  0  0  0  0  0  0
  -10.3632   -0.9874   -0.2381 C   0  0  0  0  0  0  0  0  0  0  0  0
    8.7568   -0.5861   -0.5837 C   0  0  0  0  0  0  0  0  0  0  0  0
  1 17  1  0
  1 18  1  0
  2 14  1  0
  2 21  1  0
  3 17  2  0
  4 20  2  0
  5 21  2  0
  6 20  1  0
  6 27  1  0
  6 28  1  0
  7 24  1  0
  7 29  2  3
  8 29  1  0
  9 29  1  0
 10 11  1  0
 10 12  2  0
 10 13  1  0
 11 17  1  0
 12 15  1  0
 13 16  2  0
 14 15  2  0
 14 16  1  0
 18 20  1  0
 19 21  1  0
 19 22  2  0
 19 23  1  0
 22 25  1  0
 23 26  2  0
 24 25  2  0
 24 26  1  0
M  END
>  <PUBCHEM_COMPOUND_CID>  (1) 
2536

>  <PUBCHEM_CONFORMER_RMSD>  (1) 
1

>  <PUBCHEM_CONFORMER_DIVERSEORDER>  (1) 
1
137
30
133
61
107
9
164
37
117
94
147
25
122
45
10
52
145
85
79
87
58
131
59
22
70
142
102
50
127
56
103
26
15
151
28
153
119
36
124
64
40
60
62
81
92
98
160
12
48
130
44
16
140
71
111
108
123
109
144
135
74
152
18
49
95
63
156
128
114
97
83
82
141
23
157
126
57
99
113
65
161
132
143
68
112
148
51
158
69
66
32
41
100
38
162
35
31
86
149
77
78
125
150
8
47
104
139
138
6
120
21
116
91
29
84
115
4
146
163
72
159
80
129
90
110
105
53
43
136
67
20
24
42
155
7
34
154
88
75
134
55
89
27
106
46
93
96
73
13
121
54
39
11
118
76
14
2
3
19
17
101
5
33

>  <PUBCHEM_MMFF94_PARTIAL_CHARGES>  (1) 
41
1 -0.43
10 -0.14
11 0.2
12 -0.15
13 -0.15
14 0.08
15 -0.15
16 -0.15
17 0.66
18 0.34
19 0.09
2 -0.23
20 0.57
21 0.63
22 -0.15
23 -0.15
24 0.18
25 -0.15
26 -0.15
27 0.3
28 0.3
29 0.55
3 -0.57
32 0.15
33 0.15
34 0.15
35 0.15
38 0.15
39 0.15
4 -0.57
40 0.15
41 0.15
48 0.4
49 0.4
5 -0.57
50 0.4
51 0.4
6 -0.66
7 -0.63
8 -0.85
9 -0.85

>  <PUBCHEM_EFFECTIVE_ROTOR_COUNT>  (1) 
10

>  <PUBCHEM_PHARMACOPHORE_FEATURES>  (1) 
8
1 3 acceptor
1 4 acceptor
1 5 acceptor
1 8 donor
1 9 donor
4 7 8 9 29 cation
6 10 12 13 14 15 16 rings
6 19 22 23 24 25 26 rings

>  <PUBCHEM_HEAVY_ATOM_COUNT>  (1) 
29

>  <PUBCHEM_ATOM_DEF_STEREO_COUNT>  (1) 
0

>  <PUBCHEM_ATOM_UDEF_STEREO_COUNT>  (1) 
0

>  <PUBCHEM_BOND_DEF_STEREO_COUNT>  (1) 
0

>  <PUBCHEM_BOND_UDEF_STEREO_COUNT>  (1) 
0

>  <PUBCHEM_ISOTOPIC_ATOM_COUNT>  (1) 
0

>  <PUBCHEM_COMPONENT_COUNT>  (1) 
1

>  <PUBCHEM_CACTVS_TAUTO_COUNT>  (1) 
3

>  <PUBCHEM_CONFORMER_ID>  (1) 
000009E800000001

>  <PUBCHEM_MMFF94_ENERGY>  (1) 
88.2615

>  <PUBCHEM_FEATURE_SELFOVERLAP>  (1) 
40.65

>  <PUBCHEM_SHAPE_FINGERPRINT>  (1) 
10076449 9 17748825211689162453
10162869 55 17603868914708909772
10299344 5 18410573977052289561
106641 1 16630522955927259769
11135609 127 12035747426736409286
11135609 99 18341050830636881983
11456790 92 12175617395320698823
11463208 3 18202006478868060518
12013929 94 18341896316075685283
12498461 61 17489300928545576495
12539745 222 17988927739406443473
13540713 4 15911944707948973525
13540713 5 15767497686404861381
13685833 64 18410008849930166305
13885169 127 18336261263734697557
14178184 131 18128815434386743911
14202775 3 18343588409011584022
14251764 46 18410573980856483851
14251920 17 18411138079107160900
14344974 52 13045952330615613085
14428016 86 9007063478562316801
14429380 56 16225774034599013638
15247644 1 17775567537236424022
15461852 350 18114183007955378661
155225 1 8502660307813144855
1818759 1 18272934920705867847
18335252 114 10665224865414843107
18335252 98 18131351882729858982
18643901 69 18407759240333433501
20105231 36 17917717873202136654
21095086 128 18131633366243522750
21150785 3 17240485793427631884
21267235 1 18272932721566768992
21403212 168 11024108750180633317
22224240 67 14908177560644988005
232437 2 18410573985156738891
23569917 315 18268430123949452706
23576562 1 14201976691237819167
246663 6 18131070428879610580
249057 3 15647058187783026251
306946 40 13623533498189767822
335352 9 17967534583754102291
3633792 109 11746929859466520912
4325135 7 18334295357970151588
4760202 170 14490480820031102654
5385378 56 13470415452348855764
54039377 194 18409730677698890847
57828716 72 15647338576454953790
5937810 71 12540956480176291255
59682541 35 17846492651445118179
636775 8 18413674608036842199
67123 10 18335137600524205569
9953998 17 14333404571960023061

>  <PUBCHEM_SHAPE_MULTIPOLES>  (1) 
547.54
34.99
1.88
0.99
19.76
0.43
-0.18
21.6
-5.62
2.48
0.14
-1.14
-0.15
0.24

>  <PUBCHEM_SHAPE_SELFOVERLAP>  (1) 
1152.911

>  <PUBCHEM_SHAPE_VOLUME>  (1) 
304.5

>  <PUBCHEM_COORDINATE_TYPE>  (1) 
2
5
10

$$$$
