25378
     RDKit          3D

 12 11  0  0  0  0  0  0  0  0999 V2000
   -1.8265    0.3653   -0.0071 N   0  0  0  0  0  0  0  0  0  0  0  0
    1.8282   -0.3659   -0.0215 N   0  0  0  0  0  0  0  0  0  0  0  0
   -6.7548    0.3444    0.0178 N   0  0  0  0  0  0  0  0  0  0  0  0
    6.7547   -0.3434    0.0201 N   0  0  0  0  0  0  0  0  0  0  0  0
   -0.6180   -0.4471   -0.0104 C   0  0  0  0  0  0  0  0  0  0  0  0
    0.6174    0.4478   -0.0361 C   0  0  0  0  0  0  0  0  0  0  0  0
   -3.0180   -0.4747   -0.0094 C   0  0  0  0  0  0  0  0  0  0  0  0
    3.0175    0.4736   -0.0090 C   0  0  0  0  0  0  0  0  0  0  0  0
   -4.3037    0.3550    0.0047 C   0  0  0  0  0  0  0  0  0  0  0  0
    4.3037   -0.3553   -0.0013 C   0  0  0  0  0  0  0  0  0  0  0  0
   -5.5687   -0.5049    0.0215 C   0  0  0  0  0  0  0  0  0  0  0  0
    5.5681    0.5051    0.0308 C   0  0  0  0  0  0  0  0  0  0  0  0
  1  5  1  0
  1  7  1  0
  2  6  1  0
  2  8  1  0
  3 11  1  0
  4 12  1  0
  5  6  1  0
  7  9  1  0
  8 10  1  0
  9 11  1  0
 10 12  1  0
M  END
>  <PUBCHEM_COMPOUND_CID>  (1) 
25378

>  <PUBCHEM_CONFORMER_RMSD>  (1) 
0.8

>  <PUBCHEM_CONFORMER_DIVERSEORDER>  (1) 
1
153
126
103
125
4
119
137
148
5
210
6
96
134
135
37
152
14
146
85
34
51
73
186
17
107
120
3
139
164
31
213
227
124
52
56
212
86
226
9
70
188
190
61
217
45
180
206
13
2
115
95
158
35
136
218
54
132
161
76
214
99
66
178
147
84
209
172
46
16
221
234
185
177
123
127
105
193
18
157
104
48
232
197
79
194
53
92
42
199
11
187
191
231
77
63
102
8
170
15
24
74
184
12
236
72
140
40
195
57
228
169
49
43
223
133
68
219
143
154
196
207
80
179
94
65
90
32
168
131
142
233
47
75
129
98
33
165
128
36
67
235
26
155
203
91
64
150
39
20
58
200
81
192
163
230
116
88
23
181
10
22
149
176
29
21
145
106
216
101
97
111
87
121
62
229
109
82
175
160
30
201
100
110
141
78
174
112
108
38
89
7
222
159
173
171
144
211
25
225
215
183
202
182
224
113
41
151
55
208
166
93
83
220
27
156
44
28
198
19
167
189
130
71
118
59
50
69
138
162
117
122
114
60
205
204

>  <PUBCHEM_MMFF94_PARTIAL_CHARGES>  (1) 
16
1 -0.9
11 0.27
12 0.27
2 -0.9
21 0.36
22 0.36
3 -0.99
31 0.36
32 0.36
33 0.36
34 0.36
4 -0.99
5 0.27
6 0.27
7 0.27
8 0.27

>  <PUBCHEM_EFFECTIVE_ROTOR_COUNT>  (1) 
9

>  <PUBCHEM_PHARMACOPHORE_FEATURES>  (1) 
8
1 1 cation
1 1 donor
1 2 cation
1 2 donor
1 3 cation
1 3 donor
1 4 cation
1 4 donor

>  <PUBCHEM_HEAVY_ATOM_COUNT>  (1) 
12

>  <PUBCHEM_ATOM_DEF_STEREO_COUNT>  (1) 
0

>  <PUBCHEM_ATOM_UDEF_STEREO_COUNT>  (1) 
0

>  <PUBCHEM_BOND_DEF_STEREO_COUNT>  (1) 
0

>  <PUBCHEM_BOND_UDEF_STEREO_COUNT>  (1) 
0

>  <PUBCHEM_ISOTOPIC_ATOM_COUNT>  (1) 
0

>  <PUBCHEM_COMPONENT_COUNT>  (1) 
1

>  <PUBCHEM_CACTVS_TAUTO_COUNT>  (1) 
1

>  <PUBCHEM_CONFORMER_ID>  (1) 
0000632200000001

>  <PUBCHEM_MMFF94_ENERGY>  (1) 
-13.8635

>  <PUBCHEM_FEATURE_SELFOVERLAP>  (1) 
40.6

>  <PUBCHEM_SHAPE_FINGERPRINT>  (1) 
12091667 2 18334013896210593611
13533116 47 18339356371423067002
14123238 8 18410575088958046208
1420 363 18260270749977048506
14251764 46 17489587861665453566
17834076 25 18410855464428416842
187816 3 15554449604319322999
20621476 8 18261674779376399469
20645477 70 18201160932086008374
20767249 213 18410575101842954597
23402539 116 17917705820816671165
23521765 1 18341895194640646149
42788 4 18410855464692238884
8209 1 18410855464428410357

>  <PUBCHEM_SHAPE_MULTIPOLES>  (1) 
227.03
18.02
0.77
0.59
0
0
0
0
0.25
0
0
0
0
0

>  <PUBCHEM_SHAPE_SELFOVERLAP>  (1) 
400.36

>  <PUBCHEM_SHAPE_VOLUME>  (1) 
145.2

>  <PUBCHEM_COORDINATE_TYPE>  (1) 
2
5
10

$$$$
