25399
     RDKit          3D

 20 23  0  0  0  0  0  0  0  0999 V2000
   -0.7487   -1.2792   -0.0012 N   0  0  0  0  0  0  0  0  0  0  0  0
   -0.0822    1.0195   -0.0006 C   0  0  0  0  0  0  0  0  0  0  0  0
    0.2358   -0.3509   -0.0009 C   0  0  0  0  0  0  0  0  0  0  0  0
    1.5980   -0.7247   -0.0006 C   0  0  0  0  0  0  0  0  0  0  0  0
   -1.4307    1.3928   -0.0002 C   0  0  0  0  0  0  0  0  0  0  0  0
    2.6163    0.2634   -0.0001 C   0  0  0  0  0  0  0  0  0  0  0  0
    2.2654    1.6147   -0.0001 C   0  0  0  0  0  0  0  0  0  0  0  0
   -2.4389    0.4263    0.0000 C   0  0  0  0  0  0  0  0  0  0  0  0
    0.9274    1.9899   -0.0005 C   0  0  0  0  0  0  0  0  0  0  0  0
   -2.0465   -0.9193   -0.0007 C   0  0  0  0  0  0  0  0  0  0  0  0
    1.9986   -2.0782   -0.0004 C   0  0  0  0  0  0  0  0  0  0  0  0
   -1.8062    2.8494   -0.0001 C   0  0  0  0  0  0  0  0  0  0  0  0
    3.9685   -0.1177    0.0007 C   0  0  0  0  0  0  0  0  0  0  0  0
    3.2861    2.7104    0.0004 C   0  0  0  0  0  0  0  0  0  0  0  0
   -3.8016    0.7727    0.0009 C   0  0  0  0  0  0  0  0  0  0  0  0
   -3.0425   -1.8923   -0.0005 C   0  0  0  0  0  0  0  0  0  0  0  0
    3.3468   -2.4424    0.0005 C   0  0  0  0  0  0  0  0  0  0  0  0
    4.3309   -1.4627    0.0012 C   0  0  0  0  0  0  0  0  0  0  0  0
   -4.7788   -0.2180    0.0014 C   0  0  0  0  0  0  0  0  0  0  0  0
   -4.3979   -1.5537    0.0006 C   0  0  0  0  0  0  0  0  0  0  0  0
  1  3  2  0
  1 10  1  0
  2  3  1  0
  2  5  2  0
  2  9  1  0
  3  4  1  0
  4  6  2  0
  4 11  1  0
  5  8  1  0
  5 12  1  0
  6  7  1  0
  6 13  1  0
  7  9  2  0
  7 14  1  0
  8 10  2  0
  8 15  1  0
 10 16  1  0
 11 17  2  0
 13 18  2  0
 15 19  2  0
 16 20  2  0
 17 18  1  0
 19 20  1  0
M  END
>  <PUBCHEM_COMPOUND_CID>  (1) 
25399

>  <PUBCHEM_CONFORMER_RMSD>  (1) 
0.6

>  <PUBCHEM_CONFORMER_DIVERSEORDER>  (1) 
1

>  <PUBCHEM_MMFF94_PARTIAL_CHARGES>  (1) 
25
1 -0.62
10 0.31
11 -0.15
12 0.14
13 -0.15
14 0.14
15 -0.15
16 -0.15
17 -0.15
18 -0.15
19 -0.15
20 -0.15
21 0.15
22 0.15
26 0.15
3 0.31
30 0.15
31 0.15
32 0.15
33 0.15
34 0.15
35 0.15
5 -0.14
7 -0.14
9 -0.15

>  <PUBCHEM_EFFECTIVE_ROTOR_COUNT>  (1) 
0

>  <PUBCHEM_PHARMACOPHORE_FEATURES>  (1) 
5
1 1 acceptor
6 1 2 3 5 8 10 rings
6 2 3 4 6 7 9 rings
6 4 6 11 13 17 18 rings
6 8 10 15 16 19 20 rings

>  <PUBCHEM_HEAVY_ATOM_COUNT>  (1) 
20

>  <PUBCHEM_ATOM_DEF_STEREO_COUNT>  (1) 
0

>  <PUBCHEM_ATOM_UDEF_STEREO_COUNT>  (1) 
0

>  <PUBCHEM_BOND_DEF_STEREO_COUNT>  (1) 
0

>  <PUBCHEM_BOND_UDEF_STEREO_COUNT>  (1) 
0

>  <PUBCHEM_ISOTOPIC_ATOM_COUNT>  (1) 
0

>  <PUBCHEM_COMPONENT_COUNT>  (1) 
1

>  <PUBCHEM_CACTVS_TAUTO_COUNT>  (1) 
1

>  <PUBCHEM_CONFORMER_ID>  (1) 
0000633700000001

>  <PUBCHEM_MMFF94_ENERGY>  (1) 
78.7958

>  <PUBCHEM_FEATURE_SELFOVERLAP>  (1) 
25.458

>  <PUBCHEM_SHAPE_FINGERPRINT>  (1) 
10411042 1 18266459789625335278
10616163 171 18413110567241128223
10967382 1 18266740366567973188
1100329 8 17038661371304629355
11471102 20 18410290354106452260
11578080 2 17314209099952061164
116883 192 18339927017324249452
11806522 49 18408323272291643374
12107183 9 17981614766825126569
12403259 226 18409724024167230460
12553582 1 18411129221386274655
13140716 1 18410865356329034515
138480 1 18338799017205532740
14178342 30 18266726988298871080
14223421 5 18410007732458129348
14790565 3 17760937637396704676
14866123 147 17045989616235048162
15042514 8 17761489193328845234
15196674 1 18410574024275687685
15352361 1 18410855417379319182
15375462 6 18338517542196563068
15442244 35 18339362954953231920
15536298 74 18341331179604017680
16945 1 18410573968082605092
17492 89 18410856559756685155
17804303 29 18340209596139288133
1813 80 17458063767869602045
18186145 218 17676199191377172363
19141452 34 18343022177618037519
19591789 44 18339079410008506535
200 152 18202559588396433719
20645477 70 18336542806422985135
21267235 1 18411146826473019151
21421861 104 18260259724853990162
21501502 16 18411987948530992113
221490 88 18336271218582341746
23184049 29 18411703144959616060
2334 1 18194683906385600133
23366157 5 18113619006288649412
23402539 116 18271517616411625847
23463225 33 18411700984591033655
23557571 272 18129104407826863038
23558518 356 18334865978361175937
23559900 14 18411974746059798752
2748010 2 17905335378864740242
2871803 45 18334571343477673359
335352 9 18266741286213363797
33824 294 18338233890061628592
34934 24 18268987760140864743
350125 39 18410856577410918196
4214541 1 18338798914368332613
4409770 3 17177420877144025644
46194498 28 17461421805994876839
5104073 3 18411139160293604089
59755656 215 18338237171796814788
7364860 26 18412825815573408344
8809292 202 18333454248359419219
9709674 26 18408889554929053675
9981440 41 17688025731693102040

>  <PUBCHEM_SHAPE_MULTIPOLES>  (1) 
406.61
8.59
2.99
0.61
2.74
0.9
0
-3.01
0
-1.39
0
0
0.01
0

>  <PUBCHEM_SHAPE_SELFOVERLAP>  (1) 
932.231

>  <PUBCHEM_SHAPE_VOLUME>  (1) 
211.2

>  <PUBCHEM_COORDINATE_TYPE>  (1) 
2
5
10

$$$$
