25398
     RDKit          3D

  8  7  0  0  0  0  0  0  0  0999 V2000
    2.7708    0.9899    0.0004 O   0  0  0  0  0  0  0  0  0  0  0  0
    2.2743   -1.2366    0.0002 O   0  0  0  0  0  0  0  0  0  0  0  0
   -2.2949    1.3013    0.0001 N   0  0  0  0  0  0  0  0  0  0  0  0
   -2.8281   -0.9564    0.0003 N   0  0  0  0  0  0  0  0  0  0  0  0
   -0.4723   -0.4439   -0.0004 C   0  0  0  0  0  0  0  0  0  0  0  0
   -1.9135   -0.0205    0.0000 C   0  0  0  0  0  0  0  0  0  0  0  0
    0.5374    0.4342   -0.0006 C   0  0  0  0  0  0  0  0  0  0  0  0
    1.9263   -0.0680   -0.0001 C   0  0  0  0  0  0  0  0  0  0  0  0
  1  8  1  0
  2  8  2  0
  3  6  1  0
  4  6  2  0
  5  6  1  0
  5  7  2  0
  7  8  1  0
M  END
>  <PUBCHEM_COMPOUND_CID>  (1) 
25398

>  <PUBCHEM_CONFORMER_RMSD>  (1) 
0.4

>  <PUBCHEM_CONFORMER_DIVERSEORDER>  (1) 
1
2

>  <PUBCHEM_MMFF94_PARTIAL_CHARGES>  (1) 
14
1 -0.65
10 0.15
11 0.4
12 0.4
13 0.4
14 0.5
2 -0.57
3 -0.85
4 -0.85
5 -0.14
6 0.49
7 -0.14
8 0.71
9 0.15

>  <PUBCHEM_EFFECTIVE_ROTOR_COUNT>  (1) 
2

>  <PUBCHEM_PHARMACOPHORE_FEATURES>  (1) 
6
1 1 acceptor
1 2 acceptor
1 3 donor
1 4 donor
3 1 2 8 anion
3 3 4 6 cation

>  <PUBCHEM_HEAVY_ATOM_COUNT>  (1) 
8

>  <PUBCHEM_ATOM_DEF_STEREO_COUNT>  (1) 
0

>  <PUBCHEM_ATOM_UDEF_STEREO_COUNT>  (1) 
0

>  <PUBCHEM_BOND_DEF_STEREO_COUNT>  (1) 
0

>  <PUBCHEM_BOND_UDEF_STEREO_COUNT>  (1) 
1

>  <PUBCHEM_ISOTOPIC_ATOM_COUNT>  (1) 
0

>  <PUBCHEM_COMPONENT_COUNT>  (1) 
1

>  <PUBCHEM_CACTVS_TAUTO_COUNT>  (1) 
1

>  <PUBCHEM_CONFORMER_ID>  (1) 
0000633600000001

>  <PUBCHEM_MMFF94_ENERGY>  (1) 
16.376

>  <PUBCHEM_FEATURE_SELFOVERLAP>  (1) 
30.548

>  <PUBCHEM_SHAPE_FINGERPRINT>  (1) 
12932764 1 17561358508637629391
14325111 11 18410575080415590883
14390081 3 18413106186311098232
15310529 11 18343581862768345607
19973954 147 18411139116964511821
21040471 1 18410575132298180742
23552423 10 18261395507422700754
29004967 10 18333734636756558328
3248919 1 17385730213534779810
5460574 1 9295296035940255907

>  <PUBCHEM_SHAPE_MULTIPOLES>  (1) 
142.94
4.47
1.17
0.57
0.05
0.05
0
0
0
0.06
0
0.01
0
0

>  <PUBCHEM_SHAPE_SELFOVERLAP>  (1) 
272.089

>  <PUBCHEM_SHAPE_VOLUME>  (1) 
86.4

>  <PUBCHEM_COORDINATE_TYPE>  (1) 
2
5
10

$$$$
