25397
     RDKit          3D

 22 24  0  0  0  0  0  0  0  0999 V2000
    3.6736   -1.6697    0.2284 N   0  0  0  0  0  0  0  0  0  0  0  0
   -1.4958    0.9404    1.0251 C   0  0  0  0  0  0  0  0  0  0  0  0
   -0.1144   -0.2665   -1.3648 C   0  0  0  0  0  0  0  0  0  0  0  0
   -0.4345    1.7098    0.2141 C   0  0  0  0  0  0  0  0  0  0  0  0
   -2.0328   -0.3174    0.3139 C   0  0  0  0  0  0  0  0  0  0  0  0
    0.1656    1.1524   -0.9276 C   0  0  0  0  0  0  0  0  0  0  0  0
   -1.4055   -0.8404   -0.8294 C   0  0  0  0  0  0  0  0  0  0  0  0
    1.0623   -1.1749   -0.9721 C   0  0  0  0  0  0  0  0  0  0  0  0
   -0.8611    0.5058    2.3641 C   0  0  0  0  0  0  0  0  0  0  0  0
   -2.6906    1.8966    1.3072 C   0  0  0  0  0  0  0  0  0  0  0  0
    1.3008   -1.1358    0.5316 C   0  0  0  0  0  0  0  0  0  0  0  0
   -0.0161    2.9986    0.6123 C   0  0  0  0  0  0  0  0  0  0  0  0
   -3.1668   -0.9980    0.8094 C   0  0  0  0  0  0  0  0  0  0  0  0
    1.1027    1.9034   -1.6672 C   0  0  0  0  0  0  0  0  0  0  0  0
   -1.9503   -1.9689   -1.4764 C   0  0  0  0  0  0  0  0  0  0  0  0
    2.4507   -2.0645    0.9174 C   0  0  0  0  0  0  0  0  0  0  0  0
    0.9187    3.7294   -0.1233 C   0  0  0  0  0  0  0  0  0  0  0  0
   -3.6922   -2.1196    0.1651 C   0  0  0  0  0  0  0  0  0  0  0  0
    1.4715    3.1852   -1.2721 C   0  0  0  0  0  0  0  0  0  0  0  0
   -3.0893   -2.5999   -0.9870 C   0  0  0  0  0  0  0  0  0  0  0  0
    4.7721   -2.5759    0.5679 C   0  0  0  0  0  0  0  0  0  0  0  0
    4.0316   -0.2903    0.5633 C   0  0  0  0  0  0  0  0  0  0  0  0
  1 16  1  0
  1 21  1  0
  1 22  1  0
  2  4  1  0
  2  5  1  0
  2  9  1  0
  2 10  1  0
  3  6  1  0
  3  7  1  0
  3  8  1  0
  4  6  2  0
  4 12  1  0
  5  7  2  0
  5 13  1  0
  6 14  1  0
  7 15  1  0
  8 11  1  0
 11 16  1  0
 12 17  2  0
 13 18  2  0
 14 19  2  0
 15 20  2  0
 17 19  1  0
 18 20  1  0
M  END
>  <PUBCHEM_COMPOUND_CID>  (1) 
25397

>  <PUBCHEM_CONFORMER_RMSD>  (1) 
0.8

>  <PUBCHEM_CONFORMER_DIVERSEORDER>  (1) 
1
6
4
5
2
3

>  <PUBCHEM_MMFF94_PARTIAL_CHARGES>  (1) 
26
1 -0.81
12 -0.15
13 -0.15
14 -0.15
15 -0.15
16 0.27
17 -0.15
18 -0.15
19 -0.15
2 0.29
20 -0.15
21 0.27
22 0.27
3 0.29
34 0.15
35 0.15
36 0.15
37 0.15
4 -0.14
40 0.15
41 0.15
42 0.15
43 0.15
5 -0.14
6 -0.14
7 -0.14

>  <PUBCHEM_EFFECTIVE_ROTOR_COUNT>  (1) 
4.4

>  <PUBCHEM_PHARMACOPHORE_FEATURES>  (1) 
5
1 1 cation
3 2 9 10 hydrophobe
6 2 3 4 5 6 7 rings
6 4 6 12 14 17 19 rings
6 5 7 13 15 18 20 rings

>  <PUBCHEM_HEAVY_ATOM_COUNT>  (1) 
22

>  <PUBCHEM_ATOM_DEF_STEREO_COUNT>  (1) 
0

>  <PUBCHEM_ATOM_UDEF_STEREO_COUNT>  (1) 
0

>  <PUBCHEM_BOND_DEF_STEREO_COUNT>  (1) 
0

>  <PUBCHEM_BOND_UDEF_STEREO_COUNT>  (1) 
0

>  <PUBCHEM_ISOTOPIC_ATOM_COUNT>  (1) 
0

>  <PUBCHEM_COMPONENT_COUNT>  (1) 
1

>  <PUBCHEM_CACTVS_TAUTO_COUNT>  (1) 
1

>  <PUBCHEM_CONFORMER_ID>  (1) 
0000633500000001

>  <PUBCHEM_MMFF94_ENERGY>  (1) 
78.8254

>  <PUBCHEM_FEATURE_SELFOVERLAP>  (1) 
25.409

>  <PUBCHEM_SHAPE_FINGERPRINT>  (1) 
10165383 225 16616771080398838076
11045515 52 18187354420452284678
11578080 2 18198599186036599625
12592029 89 17903075882111204905
12633257 1 17843123602168513498
12788726 201 17756400695921565955
13004483 165 18191853540307796867
13140716 1 18339642239855363128
133893 2 17823146789983250908
13965767 371 17334806100676987969
14142880 1 18197771107492955411
14251740 79 9942647792461393936
14787075 74 18041841839392639882
16945 1 17412217569350470125
17980427 23 17988641857471253629
1813 80 18263347213755931874
19765921 60 17548990300216541861
20600515 1 18200317610798395301
20691752 17 17262149745733795869
21421861 104 18196115415202157995
21452121 71 18334019427232081366
21731228 192 17039504692543846692
22112679 90 18339378382618216654
23388829 49 18341331201094587548
23419403 2 17840826868317455365
25147074 1 17986961954413093063
394222 165 17910700952600598627
4340502 62 17612605823003385347
53917941 68 9583218523626198982
59554788 191 18412829049984274349
59554788 281 17475801321620399620
6287921 2 18200868591347778322
6786 2 17116065894514295360
7471813 234 18128803313297223679
81228 2 18195801860650704111
90316 7 18265620870652580220
9981440 41 15326736687236602585

>  <PUBCHEM_SHAPE_MULTIPOLES>  (1) 
447.77
5.94
4.21
1.68
3.55
2.55
0.14
-6.61
1.41
1.83
-0.45
-0.4
0.32
-2.07

>  <PUBCHEM_SHAPE_SELFOVERLAP>  (1) 
957.157

>  <PUBCHEM_SHAPE_VOLUME>  (1) 
246.8

>  <PUBCHEM_COORDINATE_TYPE>  (1) 
2
5
10

$$$$
