25395
     RDKit          3D

 23 25  0  0  1  0  0  0  0  0999 V2000
    0.9324    0.0811   -2.7578 O   0  0  0  0  0  0  0  0  0  0  0  0
    0.6756   -1.8700   -1.4578 N   0  0  0  0  0  0  0  0  0  0  0  0
   -3.7933    1.5157    0.1717 N   0  0  0  0  0  0  0  0  0  0  0  0
    0.3499    0.2230   -0.3605 C   0  0  0  0  0  0  0  0  0  0  0  0
   -0.9355    1.0305   -0.5157 C   0  0  0  0  0  0  0  0  0  0  0  0
    0.1765   -0.9576    0.5765 C   0  0  0  0  0  0  0  0  0  0  0  0
    0.6942   -0.4887   -1.7015 C   0  0  0  0  0  0  0  0  0  0  0  0
    1.4870    1.1051    0.0471 C   0  0  0  0  0  0  0  0  0  0  0  0
    0.3753   -2.1518   -0.1188 C   0  0  0  0  0  0  0  0  0  0  0  0
   -2.0955    0.1431   -0.9666 C   0  0  0  0  0  0  0  0  0  0  0  0
   -0.1357   -0.9685    1.9271 C   0  0  0  0  0  0  0  0  0  0  0  0
   -3.4082    0.9120   -1.0739 C   0  0  0  0  0  0  0  0  0  0  0  0
    0.2730   -3.3837    0.5046 C   0  0  0  0  0  0  0  0  0  0  0  0
    2.7776    0.5862    0.1138 C   0  0  0  0  0  0  0  0  0  0  0  0
    1.2501    2.4418    0.3585 C   0  0  0  0  0  0  0  0  0  0  0  0
    0.9395   -2.8931   -2.4420 C   0  0  0  0  0  0  0  0  0  0  0  0
   -0.2423   -2.2032    2.5714 C   0  0  0  0  0  0  0  0  0  0  0  0
   -0.0394   -3.4008    1.8657 C   0  0  0  0  0  0  0  0  0  0  0  0
    3.8379    1.4088    0.4942 C   0  0  0  0  0  0  0  0  0  0  0  0
    2.3104    3.2644    0.7389 C   0  0  0  0  0  0  0  0  0  0  0  0
    3.6043    2.7480    0.8066 C   0  0  0  0  0  0  0  0  0  0  0  0
   -4.0448    0.4991    1.2057 C   0  0  0  0  0  0  0  0  0  0  0  0
   -4.9890    2.3588    0.0128 C   0  0  0  0  0  0  0  0  0  0  0  0
  1  7  2  0
  2  7  1  0
  2  9  1  0
  2 16  1  0
  3 12  1  0
  3 22  1  0
  3 23  1  0
  4  5  1  0
  4  6  1  0
  4  7  1  0
  4  8  1  0
  5 10  1  0
  6  9  2  0
  6 11  1  0
  8 14  2  0
  8 15  1  0
  9 13  1  0
 10 12  1  0
 11 17  2  0
 13 18  2  0
 14 19  1  0
 15 20  2  0
 17 18  1  0
 19 21  2  0
 20 21  1  0
M  END
>  <PUBCHEM_COMPOUND_CID>  (1) 
25395

>  <PUBCHEM_CONFORMER_RMSD>  (1) 
0.8

>  <PUBCHEM_CONFORMER_DIVERSEORDER>  (1) 
2
7
12
6
4
10
11
14
9
5
8
1
3
13

>  <PUBCHEM_MMFF94_PARTIAL_CHARGES>  (1) 
30
1 -0.57
11 -0.15
12 0.27
13 -0.15
14 -0.15
15 -0.15
16 0.3
17 -0.15
18 -0.15
19 -0.15
2 -0.48
20 -0.15
21 -0.15
22 0.27
23 0.27
28 0.15
3 -0.81
31 0.15
32 0.15
33 0.15
37 0.15
38 0.15
39 0.15
4 0.35
40 0.15
41 0.15
6 -0.14
7 0.57
8 -0.14
9 0.12

>  <PUBCHEM_EFFECTIVE_ROTOR_COUNT>  (1) 
5.4

>  <PUBCHEM_PHARMACOPHORE_FEATURES>  (1) 
5
1 1 acceptor
1 3 cation
5 2 4 6 7 9 rings
6 6 9 11 13 17 18 rings
6 8 14 15 19 20 21 rings

>  <PUBCHEM_HEAVY_ATOM_COUNT>  (1) 
23

>  <PUBCHEM_ATOM_DEF_STEREO_COUNT>  (1) 
0

>  <PUBCHEM_ATOM_UDEF_STEREO_COUNT>  (1) 
1

>  <PUBCHEM_BOND_DEF_STEREO_COUNT>  (1) 
0

>  <PUBCHEM_BOND_UDEF_STEREO_COUNT>  (1) 
0

>  <PUBCHEM_ISOTOPIC_ATOM_COUNT>  (1) 
0

>  <PUBCHEM_COMPONENT_COUNT>  (1) 
1

>  <PUBCHEM_CACTVS_TAUTO_COUNT>  (1) 
1

>  <PUBCHEM_CONFORMER_ID>  (1) 
0000633300000002

>  <PUBCHEM_MMFF94_ENERGY>  (1) 
73.2838

>  <PUBCHEM_FEATURE_SELFOVERLAP>  (1) 
25.456

>  <PUBCHEM_SHAPE_FINGERPRINT>  (1) 
10382601 240 18338513024234281185
10764073 3 17098593709808566432
10948715 1 18342451594790157100
11578080 2 17547343124329434380
12716301 132 17825981330869837026
12788726 201 17619040159993897098
14178342 30 17968104123031530401
14787075 74 17901681375356203070
14817 1 11250502622408841382
15906896 17 18051401070287286926
16945 1 18191284010453694558
1813 80 17411337616234789311
20567600 347 18335136518656677171
20600515 1 15949327896717474966
21421861 104 17975412417412046561
21524375 3 18267849739557140861
21731228 192 18262513805406306209
229495 10 17480309306593385528
23352939 185 16986038873801179142
23419403 2 17909312144687066678
23558518 356 18120644992494731364
266924 78 16340652116731842343
298252 57 17774147032742665452
376196 1 18201991174891879321
394222 165 18269257024451804121
427121 178 18186809071285450289
469060 322 15896141882204146952
474 4 18343863325066506305
5895379 119 17054144762935551993
633830 44 18341323448605350252
7364860 26 18191298269961109363
81228 2 17392746373293791648
9841814 1 17905603307683573305
9981440 41 17052708109170271400

>  <PUBCHEM_SHAPE_MULTIPOLES>  (1) 
457.5
5.84
4.33
2.21
5.23
1.99
-0.53
-8.35
1.11
-0.97
1.22
-0.06
2.06
1.16

>  <PUBCHEM_SHAPE_SELFOVERLAP>  (1) 
986.188

>  <PUBCHEM_SHAPE_VOLUME>  (1) 
255.6

>  <PUBCHEM_COORDINATE_TYPE>  (1) 
2
5
10

$$$$
