25405
     RDKit          3D

 11 12  0  0  1  0  0  0  0  0999 V2000
   -4.1117    0.9326   -0.1931 O   0  0  0  0  0  0  0  0  0  0  0  0
    4.1118    0.9325    0.1927 O   0  0  0  0  0  0  0  0  0  0  0  0
    0.0001   -0.3737    0.0001 O   0  0  0  0  0  0  0  0  0  0  0  0
   -2.7394    0.6123    0.0239 C   0  0  0  0  0  0  0  0  0  0  0  0
    2.7394    0.6123   -0.0242 C   0  0  0  0  0  0  0  0  0  0  0  0
   -3.8067    0.0895    0.9253 C   0  0  0  0  0  0  0  0  0  0  0  0
    3.8067    0.0890   -0.9253 C   0  0  0  0  0  0  0  0  0  0  0  0
   -2.1665   -0.2742   -1.0413 C   0  0  0  0  0  0  0  0  0  0  0  0
    2.1664   -0.2736    1.0414 C   0  0  0  0  0  0  0  0  0  0  0  0
   -1.0591   -1.1736   -0.5088 C   0  0  0  0  0  0  0  0  0  0  0  0
    1.0589   -1.1732    0.5093 C   0  0  0  0  0  0  0  0  0  0  0  0
  1  4  1  0
  1  6  1  0
  2  5  1  0
  2  7  1  0
  3 10  1  0
  3 11  1  0
  4  6  1  0
  4  8  1  0
  5  7  1  0
  5  9  1  0
  8 10  1  0
  9 11  1  0
M  END
>  <PUBCHEM_COMPOUND_CID>  (1) 
25405

>  <PUBCHEM_CONFORMER_RMSD>  (1) 
0.8

>  <PUBCHEM_CONFORMER_DIVERSEORDER>  (1) 
2
78
15
80
69
60
77
17
71
18
94
33
89
7
68
81
16
93
44
28
54
22
13
47
51
37
11
53
72
19
5
70
74
14
10
85
4
84
95
45
8
61
59
83
90
30
76
12
64
66
57
91
26
9
24
32
40
41
49
27
62
29
48
87
52
86
67
25
50
55
82
56
92
42
23
63
21
79
75
58
65
39
34
1
73
46
38
20
43
3
35
31
88
36
6

>  <PUBCHEM_MMFF94_PARTIAL_CHARGES>  (1) 
17
1 -0.3
10 0.28
11 0.28
12 0.1
13 0.1
14 0.1
15 0.1
16 0.1
17 0.1
2 -0.3
3 -0.56
4 -0.05
5 -0.05
6 -0.05
7 -0.05
8 0.09
9 0.09

>  <PUBCHEM_EFFECTIVE_ROTOR_COUNT>  (1) 
7.2

>  <PUBCHEM_PHARMACOPHORE_FEATURES>  (1) 
3
1 1 acceptor
1 2 acceptor
1 3 acceptor

>  <PUBCHEM_HEAVY_ATOM_COUNT>  (1) 
11

>  <PUBCHEM_ATOM_DEF_STEREO_COUNT>  (1) 
0

>  <PUBCHEM_ATOM_UDEF_STEREO_COUNT>  (1) 
2

>  <PUBCHEM_BOND_DEF_STEREO_COUNT>  (1) 
0

>  <PUBCHEM_BOND_UDEF_STEREO_COUNT>  (1) 
0

>  <PUBCHEM_ISOTOPIC_ATOM_COUNT>  (1) 
0

>  <PUBCHEM_COMPONENT_COUNT>  (1) 
1

>  <PUBCHEM_CACTVS_TAUTO_COUNT>  (1) 
1

>  <PUBCHEM_CONFORMER_ID>  (1) 
0000633D00000002

>  <PUBCHEM_MMFF94_ENERGY>  (1) 
14.2057

>  <PUBCHEM_FEATURE_SELFOVERLAP>  (1) 
15.223

>  <PUBCHEM_SHAPE_FINGERPRINT>  (1) 
10149128 111 18410857659151488805
12932764 1 18338782477222431779
13549 16 15698005114990299430
15775835 57 18410570686616645760
170605 34 18260267425820210514
177051 138 10665223744196062216
17834072 14 9295289400210918082
18186145 218 18060134349428595608
1986462 14 16702299079161982319
20201158 50 13470694754076966732
20211469 26 11097849705052319274
20653085 51 16845286185450932675
20671657 53 11240001156919044122
20711985 327 10665228129263148150
20742870 56 14908181932652455238
21119208 17 17060341820642818004
21501925 9 11169916091009887846
22959321 28 17168137936245209492
23402539 116 18131342038727905500
251288 83 12829495865442488558
42627469 27 18334288782232841986
449060 50 18040158405211641267
58999712 48 15697726925642464710
93112 12 15697710497392512041
9882013 296 15719114673075878475

>  <PUBCHEM_SHAPE_MULTIPOLES>  (1) 
208.77
8.46
1.08
1.03
0
0.15
0
-3.19
0
0
0
0
0.1
-0.19

>  <PUBCHEM_SHAPE_SELFOVERLAP>  (1) 
400.004

>  <PUBCHEM_SHAPE_VOLUME>  (1) 
129.7

>  <PUBCHEM_COORDINATE_TYPE>  (1) 
2
5
10

$$$$
