25401
     RDKit          3D

 24 26  0  0  1  0  0  0  0  0999 V2000
   -0.5973    1.6129    0.3733 O   0  0  0  0  0  0  0  0  0  0  0  0
   -1.6745   -0.9116    2.3712 O   0  0  0  0  0  0  0  0  0  0  0  0
    2.2358    1.4373    0.0494 N   0  0  0  0  0  0  0  0  0  0  0  0
    2.2845    0.8536   -1.2985 C   0  0  0  0  0  0  0  0  0  0  0  0
    3.5864    1.6116    0.6019 C   0  0  0  0  0  0  0  0  0  0  0  0
    2.9842   -0.5063   -1.2859 C   0  0  0  0  0  0  0  0  0  0  0  0
    4.3287    0.2764    0.6769 C   0  0  0  0  0  0  0  0  0  0  0  0
    1.5229    2.7143    0.0283 C   0  0  0  0  0  0  0  0  0  0  0  0
    4.3820   -0.4054   -0.6855 C   0  0  0  0  0  0  0  0  0  0  0  0
    0.1047    2.4910   -0.4981 C   0  0  0  0  0  0  0  0  0  0  0  0
    1.5191    3.3365    1.4249 C   0  0  0  0  0  0  0  0  0  0  0  0
   -1.8767    1.2796    0.0140 C   0  0  0  0  0  0  0  0  0  0  0  0
   -2.4149    0.0474    0.3705 C   0  0  0  0  0  0  0  0  0  0  0  0
   -2.6296    2.1952   -0.7144 C   0  0  0  0  0  0  0  0  0  0  0  0
   -3.7195   -0.2729   -0.0053 C   0  0  0  0  0  0  0  0  0  0  0  0
   -1.6392   -0.9212    1.1328 C   0  0  0  0  0  0  0  0  0  0  0  0
   -3.9342    1.8750   -1.0902 C   0  0  0  0  0  0  0  0  0  0  0  0
   -4.4792    0.6409   -0.7356 C   0  0  0  0  0  0  0  0  0  0  0  0
   -0.7816   -1.9521    0.4764 C   0  0  0  0  0  0  0  0  0  0  0  0
   -0.7230   -1.9840   -0.8979 C   0  0  0  0  0  0  0  0  0  0  0  0
   -0.0817   -2.8295    1.2725 C   0  0  0  0  0  0  0  0  0  0  0  0
    0.0799   -2.9464   -1.5100 C   0  0  0  0  0  0  0  0  0  0  0  0
    0.7212   -3.7919    0.6603 C   0  0  0  0  0  0  0  0  0  0  0  0
    0.8021   -3.8504   -0.7310 C   0  0  0  0  0  0  0  0  0  0  0  0
  1 10  1  0
  1 12  1  0
  2 16  2  0
  3  4  1  0
  3  5  1  0
  3  8  1  0
  4  6  1  0
  5  7  1  0
  6  9  1  0
  7  9  1  0
  8 10  1  0
  8 11  1  0
 12 13  1  0
 12 14  2  0
 13 15  2  0
 13 16  1  0
 14 17  1  0
 15 18  1  0
 16 19  1  0
 17 18  2  0
 19 20  2  0
 19 21  1  0
 20 22  1  0
 21 23  2  0
 22 24  2  0
 23 24  1  0
M  END
>  <PUBCHEM_COMPOUND_CID>  (1) 
25401

>  <PUBCHEM_CONFORMER_RMSD>  (1) 
0.8

>  <PUBCHEM_CONFORMER_DIVERSEORDER>  (1) 
14
35
51
121
65
76
44
13
113
119
42
101
84
123
77
82
43
107
38
86
21
74
58
103
29
63
102
116
104
33
96
105
97
40
20
93
88
69
85
32
81
45
24
11
106
37
100
2
52
78
36
115
98
10
39
31
46
87
41
50
90
79
64
30
73
112
34
61
26
95
49
67
109
19
70
53
15
111
68
124
28
22
48
1
17
83
94
114
23
3
8
59
5
47
118
4
62
12
122
75
9
120
125
7
25
117
56
27
80
110
18
60
71
72
54
6
55
66
16
99
108
57
92
91
89

>  <PUBCHEM_MMFF94_PARTIAL_CHARGES>  (1) 
29
1 -0.36
10 0.28
12 0.08
13 0.09
14 -0.15
15 -0.15
16 0.4
17 -0.15
18 -0.15
19 0.09
2 -0.57
20 -0.15
21 -0.15
22 -0.15
23 -0.15
24 -0.15
3 -0.81
4 0.27
41 0.15
42 0.15
43 0.15
44 0.15
45 0.15
46 0.15
47 0.15
48 0.15
49 0.15
5 0.27
8 0.27

>  <PUBCHEM_EFFECTIVE_ROTOR_COUNT>  (1) 
7.2

>  <PUBCHEM_PHARMACOPHORE_FEATURES>  (1) 
6
1 1 acceptor
1 2 acceptor
1 3 cation
6 12 13 14 15 17 18 rings
6 19 20 21 22 23 24 rings
6 3 4 5 6 7 9 rings

>  <PUBCHEM_HEAVY_ATOM_COUNT>  (1) 
24

>  <PUBCHEM_ATOM_DEF_STEREO_COUNT>  (1) 
0

>  <PUBCHEM_ATOM_UDEF_STEREO_COUNT>  (1) 
1

>  <PUBCHEM_BOND_DEF_STEREO_COUNT>  (1) 
0

>  <PUBCHEM_BOND_UDEF_STEREO_COUNT>  (1) 
0

>  <PUBCHEM_ISOTOPIC_ATOM_COUNT>  (1) 
0

>  <PUBCHEM_COMPONENT_COUNT>  (1) 
1

>  <PUBCHEM_CACTVS_TAUTO_COUNT>  (1) 
1

>  <PUBCHEM_CONFORMER_ID>  (1) 
000063390000000E

>  <PUBCHEM_MMFF94_ENERGY>  (1) 
69.9279

>  <PUBCHEM_FEATURE_SELFOVERLAP>  (1) 
30.446

>  <PUBCHEM_SHAPE_FINGERPRINT>  (1) 
107951 10 17458348545639071315
11370993 70 18409725170997033316
12035759 4 18126817569780838391
12156800 1 16338300287262221670
12592029 89 18410013226180074667
13004483 165 17404286894636621486
13140716 1 18267314299290840897
13402501 40 18410294688029342292
14251757 5 18193019190838103670
15664445 248 17549821084868806999
19591789 44 18266176317699243939
19930381 70 18270116803599998703
20567600 347 18261387819821455719
20642791 35 17547298800134856141
20691752 17 17026296383897672637
20905425 154 17978510832277344188
23419403 2 17248971690752781385
23559900 14 18409732851037212868
23566358 2 17974559200995018197
23728640 28 18192984035702623570
238 59 18412826863207844735
3027735 51 18124882261342917528
3298306 158 18336538318372052181
469060 322 14361941265949840607
5265222 85 18334587862439346308
5283178 26 17838660860522935094
57527585 103 17321591134763244770
59755656 215 18261665996796416637
6138700 20 18337669694599638710
81228 2 17545597220423829419
9709674 26 18194118740292877301

>  <PUBCHEM_SHAPE_MULTIPOLES>  (1) 
477.19
6.91
4.81
1.49
0.37
2.86
-0.31
-3.79
1.35
1.33
-0.3
0
0.42
1.26

>  <PUBCHEM_SHAPE_SELFOVERLAP>  (1) 
1015.073

>  <PUBCHEM_SHAPE_VOLUME>  (1) 
266.2

>  <PUBCHEM_COORDINATE_TYPE>  (1) 
2
5
10

$$$$
