25406
     RDKit          3D

 10 10  0  0  0  0  0  0  0  0999 V2000
   -3.2969    0.0002    0.8751 Cl  0  0  0  0  0  0  0  0  0  0  0  0
   -0.3039    1.2001   -0.2306 N   0  0  0  0  0  0  0  0  0  0  0  0
   -0.3050   -1.1995   -0.2307 N   0  0  0  0  0  0  0  0  0  0  0  0
    1.7340   -0.0007    0.1730 N   0  0  0  0  0  0  0  0  0  0  0  0
    1.7036    2.3444    0.1688 N   0  0  0  0  0  0  0  0  0  0  0  0
    1.7017   -2.3454    0.1684 N   0  0  0  0  0  0  0  0  0  0  0  0
   -0.8960    0.0005   -0.3478 C   0  0  0  0  0  0  0  0  0  0  0  0
    1.0111    1.1218    0.0297 C   0  0  0  0  0  0  0  0  0  0  0  0
    1.0101   -1.1224    0.0296 C   0  0  0  0  0  0  0  0  0  0  0  0
   -2.3588    0.0010   -0.6355 C   0  0  0  0  0  0  0  0  0  0  0  0
  1 10  1  0
  2  7  2  0
  2  8  1  0
  3  7  1  0
  3  9  2  0
  4  8  2  0
  4  9  1  0
  5  8  1  0
  6  9  1  0
  7 10  1  0
M  END
>  <PUBCHEM_COMPOUND_CID>  (1) 
25406

>  <PUBCHEM_CONFORMER_RMSD>  (1) 
0.4

>  <PUBCHEM_CONFORMER_DIVERSEORDER>  (1) 
1
2

>  <PUBCHEM_MMFF94_PARTIAL_CHARGES>  (1) 
14
1 -0.29
10 0.43
13 0.4
14 0.4
15 0.4
16 0.4
2 -0.62
3 -0.62
4 -0.62
5 -0.9
6 -0.9
7 0.48
8 0.72
9 0.72

>  <PUBCHEM_EFFECTIVE_ROTOR_COUNT>  (1) 
1

>  <PUBCHEM_PHARMACOPHORE_FEATURES>  (1) 
5
1 5 donor
1 6 donor
4 2 4 5 8 cation
4 3 4 6 9 cation
6 2 3 4 7 8 9 rings

>  <PUBCHEM_HEAVY_ATOM_COUNT>  (1) 
10

>  <PUBCHEM_ATOM_DEF_STEREO_COUNT>  (1) 
0

>  <PUBCHEM_ATOM_UDEF_STEREO_COUNT>  (1) 
0

>  <PUBCHEM_BOND_DEF_STEREO_COUNT>  (1) 
0

>  <PUBCHEM_BOND_UDEF_STEREO_COUNT>  (1) 
0

>  <PUBCHEM_ISOTOPIC_ATOM_COUNT>  (1) 
0

>  <PUBCHEM_COMPONENT_COUNT>  (1) 
1

>  <PUBCHEM_CACTVS_TAUTO_COUNT>  (1) 
5

>  <PUBCHEM_CONFORMER_ID>  (1) 
0000633E00000001

>  <PUBCHEM_MMFF94_ENERGY>  (1) 
25.718

>  <PUBCHEM_FEATURE_SELFOVERLAP>  (1) 
25.415

>  <PUBCHEM_SHAPE_FINGERPRINT>  (1) 
16945 1 18410847763546767479
20871998 22 18054515698760784830
21040471 1 17977659045926500660
23552423 10 18412256268228369807
241688 4 17906727008108062312
2748010 2 18051678954724020726
29004967 10 18334012757358561995

>  <PUBCHEM_SHAPE_MULTIPOLES>  (1) 
182.76
3.6
2.04
0.75
3.25
0
0.03
0
0.79
-1.98
0.14
0.42
0
0

>  <PUBCHEM_SHAPE_SELFOVERLAP>  (1) 
364.118

>  <PUBCHEM_SHAPE_VOLUME>  (1) 
108.3

>  <PUBCHEM_COORDINATE_TYPE>  (1) 
2
5
10

$$$$
