25403
     RDKit          3D

  7  6  0  0  0  0  0  0  0  0999 V2000
   -0.1971   -0.4508   -0.1865 C   0  0  0  0  0  0  0  0  0  0  0  0
   -1.5051    0.2157   -0.5726 C   0  0  0  0  0  0  0  0  0  0  0  0
    0.9643    0.2277   -0.0182 C   0  0  0  0  0  0  0  0  0  0  0  0
   -0.3200   -1.9483   -0.0321 C   0  0  0  0  0  0  0  0  0  0  0  0
   -2.3125    0.6582    0.6398 C   0  0  0  0  0  0  0  0  0  0  0  0
    1.0940    1.7241   -0.1710 C   0  0  0  0  0  0  0  0  0  0  0  0
    2.2765   -0.4266    0.3406 C   0  0  0  0  0  0  0  0  0  0  0  0
  1  2  1  0
  1  3  2  3
  1  4  1  0
  2  5  1  0
  3  6  1  0
  3  7  1  0
M  END
>  <PUBCHEM_COMPOUND_CID>  (1) 
25403

>  <PUBCHEM_CONFORMER_RMSD>  (1) 
0.4

>  <PUBCHEM_CONFORMER_DIVERSEORDER>  (1) 
1
2
3

>  <PUBCHEM_MMFF94_PARTIAL_CHARGES>  (1) 
6
1 -0.28
2 0.14
3 -0.28
4 0.14
6 0.14
7 0.14

>  <PUBCHEM_EFFECTIVE_ROTOR_COUNT>  (1) 
1

>  <PUBCHEM_PHARMACOPHORE_FEATURES>  (1) 
3
1 4 hydrophobe
1 5 hydrophobe
3 3 6 7 hydrophobe

>  <PUBCHEM_HEAVY_ATOM_COUNT>  (1) 
7

>  <PUBCHEM_ATOM_DEF_STEREO_COUNT>  (1) 
0

>  <PUBCHEM_ATOM_UDEF_STEREO_COUNT>  (1) 
0

>  <PUBCHEM_BOND_DEF_STEREO_COUNT>  (1) 
0

>  <PUBCHEM_BOND_UDEF_STEREO_COUNT>  (1) 
0

>  <PUBCHEM_ISOTOPIC_ATOM_COUNT>  (1) 
0

>  <PUBCHEM_COMPONENT_COUNT>  (1) 
1

>  <PUBCHEM_CACTVS_TAUTO_COUNT>  (1) 
1

>  <PUBCHEM_CONFORMER_ID>  (1) 
0000633B00000001

>  <PUBCHEM_MMFF94_ENERGY>  (1) 
6.8347

>  <PUBCHEM_FEATURE_SELFOVERLAP>  (1) 
15.224

>  <PUBCHEM_SHAPE_FINGERPRINT>  (1) 
16714656 1 18336825286780563822
20096714 4 18411136978091631141
21040471 1 18340207482999547660
23552423 10 17972312090958097862
24536 1 18125144176958920916
29004967 10 18188776015692830600
5084963 1 18272078414132776893

>  <PUBCHEM_SHAPE_MULTIPOLES>  (1) 
144.06
2.77
1.71
0.75
0.26
0.3
0.01
-0.55
0.52
-0.2
-0.05
0.16
-0.05
-0.21

>  <PUBCHEM_SHAPE_SELFOVERLAP>  (1) 
257.417

>  <PUBCHEM_SHAPE_VOLUME>  (1) 
95.8

>  <PUBCHEM_COORDINATE_TYPE>  (1) 
2
5
10

$$$$
