2545
     RDKit          3D

 14 16  0  0  1  0  0  0  0  0999 V2000
   -0.9285    0.0009    1.5427 O   0  0  0  0  0  0  0  0  0  0  0  0
    2.0621    0.0001    0.4541 O   0  0  0  0  0  0  0  0  0  0  0  0
    1.7684   -2.2593    0.3693 O   0  0  0  0  0  0  0  0  0  0  0  0
    1.7676    2.2595    0.3695 O   0  0  0  0  0  0  0  0  0  0  0  0
    0.0159   -0.7682   -0.4273 C   0  0  0  0  0  0  0  0  0  0  0  0
    0.0161    0.7680   -0.4280 C   0  0  0  0  0  0  0  0  0  0  0  0
   -1.0950   -1.0876    0.5944 C   0  0  0  0  0  0  0  0  0  0  0  0
   -1.0953    1.0882    0.5930 C   0  0  0  0  0  0  0  0  0  0  0  0
   -2.4961   -0.7658    0.0737 C   0  0  0  0  0  0  0  0  0  0  0  0
   -2.4961    0.7652    0.0722 C   0  0  0  0  0  0  0  0  0  0  0  0
    1.3590   -1.1256    0.1650 C   0  0  0  0  0  0  0  0  0  0  0  0
    1.3588    1.1257    0.1649 C   0  0  0  0  0  0  0  0  0  0  0  0
   -0.1189   -1.4751   -1.7712 C   0  0  0  0  0  0  0  0  0  0  0  0
   -0.1180    1.4738   -1.7723 C   0  0  0  0  0  0  0  0  0  0  0  0
  1  7  1  0
  1  8  1  0
  2 11  1  0
  2 12  1  0
  3 11  2  0
  4 12  2  0
  5  6  1  0
  5  7  1  0
  5 11  1  0
  5 13  1  0
  6  8  1  0
  6 12  1  0
  6 14  1  0
  7  9  1  0
  8 10  1  0
  9 10  1  0
M  END
>  <PUBCHEM_COMPOUND_CID>  (1) 
2545

>  <PUBCHEM_CONFORMER_RMSD>  (1) 
0.4

>  <PUBCHEM_CONFORMER_DIVERSEORDER>  (1) 
1
3
4
2

>  <PUBCHEM_MMFF94_PARTIAL_CHARGES>  (1) 
10
1 -0.56
11 0.66
12 0.66
2 -0.3
3 -0.57
4 -0.57
5 0.06
6 0.06
7 0.28
8 0.28

>  <PUBCHEM_EFFECTIVE_ROTOR_COUNT>  (1) 
0.8

>  <PUBCHEM_PHARMACOPHORE_FEATURES>  (1) 
5
1 1 acceptor
1 3 acceptor
1 4 acceptor
5 2 5 6 11 12 rings
7 1 5 6 7 8 9 10 rings

>  <PUBCHEM_HEAVY_ATOM_COUNT>  (1) 
14

>  <PUBCHEM_ATOM_DEF_STEREO_COUNT>  (1) 
0

>  <PUBCHEM_ATOM_UDEF_STEREO_COUNT>  (1) 
4

>  <PUBCHEM_BOND_DEF_STEREO_COUNT>  (1) 
0

>  <PUBCHEM_BOND_UDEF_STEREO_COUNT>  (1) 
0

>  <PUBCHEM_ISOTOPIC_ATOM_COUNT>  (1) 
0

>  <PUBCHEM_COMPONENT_COUNT>  (1) 
1

>  <PUBCHEM_CACTVS_TAUTO_COUNT>  (1) 
1

>  <PUBCHEM_CONFORMER_ID>  (1) 
000009F100000001

>  <PUBCHEM_MMFF94_ENERGY>  (1) 
44.2288

>  <PUBCHEM_FEATURE_SELFOVERLAP>  (1) 
25.478

>  <PUBCHEM_SHAPE_FINGERPRINT>  (1) 
10702982 57 17985261034792173252
12423570 1 9295006791388792862
12524768 44 18186519903837507665
13024252 1 16737501923641767306
137420 1 13347197350146467135
14817 1 15648428174506795735
15557651 10 17536882078634181197
16945 1 18410853265547566785
20511035 2 18337403702837338965
21922407 69 17274281473218506467
22344851 262 18189611833719692757
241688 4 17968942959554972153
2748010 2 18119535585262246658
369184 2 17974847276682139754
5084963 1 17906767990575302229

>  <PUBCHEM_SHAPE_MULTIPOLES>  (1) 
264.64
2.66
2.06
1.32
0.67
0
-0.56
0
0.63
-0.92
-0.19
0.11
0
0

>  <PUBCHEM_SHAPE_SELFOVERLAP>  (1) 
593.742

>  <PUBCHEM_SHAPE_VOLUME>  (1) 
146.6

>  <PUBCHEM_COORDINATE_TYPE>  (1) 
2
5
10

$$$$
