25450
     RDKit          3D

 22 25  0  0  1  0  0  0  0  0999 V2000
   -2.5652    1.6282   -1.1560 O   0  0  0  0  0  0  0  0  0  0  0  0
   -2.5509   -1.7025    0.0311 O   0  0  0  0  0  0  0  0  0  0  0  0
   -3.5774    0.2372    0.5245 O   0  0  0  0  0  0  0  0  0  0  0  0
    0.0891   -2.5857   -0.8135 O   0  0  0  0  0  0  0  0  0  0  0  0
    1.3744    2.5244    0.0513 O   0  0  0  0  0  0  0  0  0  0  0  0
   -3.7789   -1.5382    1.9619 O   0  0  0  0  0  0  0  0  0  0  0  0
    3.7931    1.9169    0.5922 O   0  0  0  0  0  0  0  0  0  0  0  0
   -2.0679   -0.7536   -0.9197 C   0  0  0  0  0  0  0  0  0  0  0  0
   -0.6571   -0.3457   -0.5936 C   0  0  0  0  0  0  0  0  0  0  0  0
   -3.0843    0.3532   -0.8052 C   0  0  0  0  0  0  0  0  0  0  0  0
   -0.3401    0.9395   -0.3771 C   0  0  0  0  0  0  0  0  0  0  0  0
   -1.3772    2.0366   -0.4626 C   0  0  0  0  0  0  0  0  0  0  0  0
    0.3711   -1.4208   -0.5566 C   0  0  0  0  0  0  0  0  0  0  0  0
    1.0637    1.3467   -0.0886 C   0  0  0  0  0  0  0  0  0  0  0  0
    1.7503   -1.0449   -0.2016 C   0  0  0  0  0  0  0  0  0  0  0  0
    2.0841    0.2891    0.0241 C   0  0  0  0  0  0  0  0  0  0  0  0
   -1.7352    2.6237    0.9033 C   0  0  0  0  0  0  0  0  0  0  0  0
   -3.3428   -1.0457    0.9324 C   0  0  0  0  0  0  0  0  0  0  0  0
    3.4009    0.6324    0.3553 C   0  0  0  0  0  0  0  0  0  0  0  0
    2.7318   -2.0383   -0.0968 C   0  0  0  0  0  0  0  0  0  0  0  0
    4.3761   -0.3596    0.4604 C   0  0  0  0  0  0  0  0  0  0  0  0
    4.0421   -1.6930    0.2347 C   0  0  0  0  0  0  0  0  0  0  0  0
  1 10  1  0
  1 12  1  0
  2  8  1  0
  2 18  1  0
  3 10  1  0
  3 18  1  0
  4 13  2  0
  5 14  2  0
  6 18  2  0
  7 19  1  0
  8  9  1  0
  8 10  1  0
  9 11  2  0
  9 13  1  0
 11 12  1  0
 11 14  1  0
 12 17  1  0
 13 15  1  0
 14 16  1  0
 15 16  2  0
 15 20  1  0
 16 19  1  0
 19 21  2  0
 20 22  2  0
 21 22  1  0
M  END
>  <PUBCHEM_COMPOUND_CID>  (1) 
25450

>  <PUBCHEM_CONFORMER_RMSD>  (1) 
0.6

>  <PUBCHEM_CONFORMER_DIVERSEORDER>  (1) 
2
3
4
1

>  <PUBCHEM_MMFF94_PARTIAL_CHARGES>  (1) 
25
1 -0.56
10 0.56
11 -0.12
12 0.42
13 0.47
14 0.47
15 0.09
16 0.09
18 0.87
19 0.08
2 -0.43
20 -0.15
21 -0.15
22 -0.15
29 0.15
3 -0.43
30 0.15
31 0.15
32 0.45
4 -0.57
5 -0.57
6 -0.57
7 -0.53
8 0.42
9 -0.12

>  <PUBCHEM_EFFECTIVE_ROTOR_COUNT>  (1) 
0.8

>  <PUBCHEM_PHARMACOPHORE_FEATURES>  (1) 
8
1 1 acceptor
1 4 acceptor
1 5 acceptor
1 7 donor
5 2 3 8 10 18 rings
6 1 8 9 10 11 12 rings
6 15 16 19 20 21 22 rings
6 9 11 13 14 15 16 rings

>  <PUBCHEM_HEAVY_ATOM_COUNT>  (1) 
22

>  <PUBCHEM_ATOM_DEF_STEREO_COUNT>  (1) 
0

>  <PUBCHEM_ATOM_UDEF_STEREO_COUNT>  (1) 
3

>  <PUBCHEM_BOND_DEF_STEREO_COUNT>  (1) 
0

>  <PUBCHEM_BOND_UDEF_STEREO_COUNT>  (1) 
0

>  <PUBCHEM_ISOTOPIC_ATOM_COUNT>  (1) 
0

>  <PUBCHEM_COMPONENT_COUNT>  (1) 
1

>  <PUBCHEM_CACTVS_TAUTO_COUNT>  (1) 
5

>  <PUBCHEM_CONFORMER_ID>  (1) 
0000636A00000002

>  <PUBCHEM_MMFF94_ENERGY>  (1) 
54.2372

>  <PUBCHEM_FEATURE_SELFOVERLAP>  (1) 
40.943

>  <PUBCHEM_SHAPE_FINGERPRINT>  (1) 
10411042 1 16320892012550733210
10608611 8 18338507548092547500
10759866 29 18187088356240082294
10906281 52 18268437832639548709
10967382 1 18340477988983290340
1100329 8 14734796000950863427
11132069 177 18272921731056493438
11471102 22 18336275646814865291
11680986 33 18409724045552194908
12553582 1 18339923830769765286
12730499 353 16674712006142037381
13140716 1 17907575084103358584
13224815 77 18341891879168584326
13544653 18 18260831548489536079
13583140 156 17169802610093318280
14223421 5 18409445864973382860
14787075 74 17752209637022598378
14790565 3 17688036731220683436
15196674 1 18411693279425031484
15309172 13 18272368684970661159
15442244 35 18197491832008790580
15653759 3 18186802465340873175
16945 1 18339915043235035708
1813 80 17095529538674613263
18186145 218 17917712400970494478
19591789 44 16965493837310546692
200 152 18059276704953227821
20261772 1 18342460395247023598
20510252 161 18343858926850754984
20739085 24 18339663164904647184
21029758 27 18334298673616455988
21267235 1 18340488876788851630
221490 88 18408605834269671802
22182313 1 18270401586160385438
23184049 59 18343866619279717214
2334 1 18412538782808705628
23463225 33 18338791218003131780
23493267 7 17896025568925411449
23559900 14 18192983830272420526
2748010 2 18340760434611917676
335352 9 17764864698230894812
350125 39 18412547583218099220
5104073 3 18339071572378507266
8809292 202 18260831453863040515
9709674 26 18268987583752118606

>  <PUBCHEM_SHAPE_MULTIPOLES>  (1) 
411.66
7.28
2.78
1.05
2.69
0.66
0.24
-1.42
2.07
-0.04
0.21
-1.03
-0.2
0.79

>  <PUBCHEM_SHAPE_SELFOVERLAP>  (1) 
934.165

>  <PUBCHEM_SHAPE_VOLUME>  (1) 
211

>  <PUBCHEM_COORDINATE_TYPE>  (1) 
2
5
10

$$$$
