25474
     RDKit          3D

 33 36  0  0  0  0  0  0  0  0999 V2000
    5.3333    1.5826    0.0133 I   0  0  0  0  0  0  0  0  0  0  0  0
    4.6106   -3.0167   -0.0090 I   0  0  0  0  0  0  0  0  0  0  0  0
    0.6787    5.4901    0.2105 I   0  0  0  0  0  0  0  0  0  0  0  0
   -1.0269   -5.3479    0.1730 I   0  0  0  0  0  0  0  0  0  0  0  0
   -1.1901    0.1278    2.9403 Cl  0  0  0  0  0  0  0  0  0  0  0  0
   -4.3910    0.5282   -2.4391 Cl  0  0  0  0  0  0  0  0  0  0  0  0
   -4.3184    0.4987    3.0092 Cl  0  0  0  0  0  0  0  0  0  0  0  0
   -5.9270    0.7004    0.3141 Cl  0  0  0  0  0  0  0  0  0  0  0  0
    2.8582   -0.3511    0.0811 O   0  0  0  0  0  0  0  0  0  0  0  0
    3.6850    4.3190    0.0915 O   0  0  0  0  0  0  0  0  0  0  0  0
    2.1638   -5.0464    0.0631 O   0  0  0  0  0  0  0  0  0  0  0  0
   -1.0339    1.3973   -2.6769 O   0  0  0  0  0  0  0  0  0  0  0  0
   -1.2050   -0.8622   -2.8559 O   0  0  0  0  0  0  0  0  0  0  0  0
    0.0260   -0.0063    0.1848 C   0  0  0  0  0  0  0  0  0  0  0  0
    0.9622    1.1449    0.1618 C   0  0  0  0  0  0  0  0  0  0  0  0
    0.5594   -1.2599    0.1548 C   0  0  0  0  0  0  0  0  0  0  0  0
   -1.4308    0.1664    0.2361 C   0  0  0  0  0  0  0  0  0  0  0  0
    2.3336    0.9102    0.1112 C   0  0  0  0  0  0  0  0  0  0  0  0
    2.0185   -1.4590    0.1011 C   0  0  0  0  0  0  0  0  0  0  0  0
    0.5209    2.4782    0.1888 C   0  0  0  0  0  0  0  0  0  0  0  0
   -2.1410    0.2553   -0.9588 C   0  0  0  0  0  0  0  0  0  0  0  0
   -0.2885   -2.4576    0.1743 C   0  0  0  0  0  0  0  0  0  0  0  0
    3.2512    1.9652    0.0877 C   0  0  0  0  0  0  0  0  0  0  0  0
   -2.0977    0.2411    1.4567 C   0  0  0  0  0  0  0  0  0  0  0  0
    2.5567   -2.6945    0.0701 C   0  0  0  0  0  0  0  0  0  0  0  0
    1.4328    3.5372    0.1654 C   0  0  0  0  0  0  0  0  0  0  0  0
    2.7989    3.2806    0.1147 C   0  0  0  0  0  0  0  0  0  0  0  0
    0.2095   -3.7018    0.1450 C   0  0  0  0  0  0  0  0  0  0  0  0
   -3.5259    0.4198   -0.9330 C   0  0  0  0  0  0  0  0  0  0  0  0
    1.6856   -3.9156    0.0898 C   0  0  0  0  0  0  0  0  0  0  0  0
   -3.4827    0.4055    1.4826 C   0  0  0  0  0  0  0  0  0  0  0  0
   -4.1968    0.4947    0.2877 C   0  0  0  0  0  0  0  0  0  0  0  0
   -1.4292    0.1757   -2.2363 C   0  0  0  0  0  0  0  0  0  0  0  0
  1 23  1  0
  2 25  1  0
  3 26  1  0
  4 28  1  0
  5 24  1  0
  6 29  1  0
  7 31  1  0
  8 32  1  0
  9 18  1  0
  9 19  1  0
 10 27  1  0
 11 30  2  0
 12 33  1  0
 13 33  2  0
 14 15  1  0
 14 16  2  0
 14 17  1  0
 15 18  2  0
 15 20  1  0
 16 19  1  0
 16 22  1  0
 17 21  2  0
 17 24  1  0
 18 23  1  0
 19 25  2  0
 20 26  2  0
 21 29  1  0
 21 33  1  0
 22 28  2  0
 23 27  2  0
 24 31  2  0
 25 30  1  0
 26 27  1  0
 28 30  1  0
 29 32  2  0
 31 32  1  0
M  END
>  <PUBCHEM_COMPOUND_CID>  (1) 
25474

>  <PUBCHEM_CONFORMER_RMSD>  (1) 
0.8

>  <PUBCHEM_CONFORMER_DIVERSEORDER>  (1) 
1
2

>  <PUBCHEM_MMFF94_PARTIAL_CHARGES>  (1) 
36
1 -0.08
10 -0.53
11 -0.57
12 -0.65
13 -0.57
14 -0.06
15 0.03
17 0.03
18 0.08
19 0.08
2 -0.09
20 -0.15
21 0.09
22 -0.15
23 0.08
24 0.18
25 0.1
26 0.08
27 0.08
28 0.1
29 0.18
3 -0.08
30 0.54
31 0.18
32 0.18
33 0.63
34 0.15
35 0.15
36 0.45
37 0.5
4 -0.09
5 -0.18
6 -0.18
7 -0.18
8 -0.18
9 -0.16

>  <PUBCHEM_EFFECTIVE_ROTOR_COUNT>  (1) 
2

>  <PUBCHEM_PHARMACOPHORE_FEATURES>  (1) 
14
1 1 hydrophobe
1 10 donor
1 11 acceptor
1 12 acceptor
1 13 acceptor
1 2 hydrophobe
1 3 hydrophobe
1 4 hydrophobe
1 9 acceptor
3 12 13 33 anion
6 15 18 20 23 26 27 rings
6 16 19 22 25 28 30 rings
6 17 21 24 29 31 32 rings
6 9 14 15 16 18 19 rings

>  <PUBCHEM_HEAVY_ATOM_COUNT>  (1) 
33

>  <PUBCHEM_ATOM_DEF_STEREO_COUNT>  (1) 
0

>  <PUBCHEM_ATOM_UDEF_STEREO_COUNT>  (1) 
0

>  <PUBCHEM_BOND_DEF_STEREO_COUNT>  (1) 
0

>  <PUBCHEM_BOND_UDEF_STEREO_COUNT>  (1) 
0

>  <PUBCHEM_ISOTOPIC_ATOM_COUNT>  (1) 
0

>  <PUBCHEM_COMPONENT_COUNT>  (1) 
1

>  <PUBCHEM_CACTVS_TAUTO_COUNT>  (1) 
3

>  <PUBCHEM_CONFORMER_ID>  (1) 
0000638200000001

>  <PUBCHEM_MMFF94_ENERGY>  (1) 
115.9931

>  <PUBCHEM_FEATURE_SELFOVERLAP>  (1) 
71.159

>  <PUBCHEM_SHAPE_FINGERPRINT>  (1) 
10165383 225 18189347903732164772
10411042 1 17906454324893295138
1100329 8 18411136935749165402
11582403 64 17027920568761859653
12236239 1 17775284937388925521
12553582 1 18123757456684552554
12788726 201 16822480871070986355
13140716 1 18196372748500409904
13583140 156 18339090375666343505
13782708 43 17676492696547068091
13911987 19 18190467065183810982
14415360 78 18121769784290397836
15219462 58 17904528140030885985
15324884 4 17749109998006289911
15775530 1 17607225577220978653
15927050 60 18268152127051661310
1813 80 17914343368145985942
19319366 153 18202003265514227601
19930381 70 18409445873726964769
20101258 96 17763749789229998602
20511986 3 17632571635039132113
20739085 24 18194425332575835208
22311459 1 18411139156764111600
23419403 2 17967824799004993627
23559900 14 18337108965291989971
238 59 17829002707144656702
350125 39 17689440803263251968
3886686 26 17478013492314353352
469060 322 18053370011971284434
474 4 18342742961129629497
50150288 127 17271188706282442075
513202 73 17407405736942438254
5309563 4 18050008792298909203
57527295 17 17681255678150172847
6004065 56 18337667508355998243

>  <PUBCHEM_SHAPE_MULTIPOLES>  (1) 
705
8.79
7.31
2.06
2.59
2.71
-0.19
-2.65
0.67
-7.42
0.47
3.5
-0.46
0.04

>  <PUBCHEM_SHAPE_SELFOVERLAP>  (1) 
1446.13

>  <PUBCHEM_SHAPE_VOLUME>  (1) 
423.4

>  <PUBCHEM_COORDINATE_TYPE>  (1) 
2
5
10

$$$$
