25472
     RDKit          3D

 29 31  0  0  0  0  0  0  0  0999 V2000
   -1.4744   -0.1584   -2.7143 Cl  0  0  0  0  0  0  0  0  0  0  0  0
   -1.4758   -0.1645    2.7121 Cl  0  0  0  0  0  0  0  0  0  0  0  0
    1.6747    0.0355   -2.7133 Cl  0  0  0  0  0  0  0  0  0  0  0  0
    1.6736    0.0281    2.7129 Cl  0  0  0  0  0  0  0  0  0  0  0  0
   -2.7505    2.4789    0.0011 Cl  0  0  0  0  0  0  0  0  0  0  0  0
   -2.4507   -2.9667    0.0004 Cl  0  0  0  0  0  0  0  0  0  0  0  0
    2.7476    2.8399    0.0044 Cl  0  0  0  0  0  0  0  0  0  0  0  0
   -5.9013    2.2569    0.0036 Cl  0  0  0  0  0  0  0  0  0  0  0  0
   -7.2487   -0.6334    0.0003 Cl  0  0  0  0  0  0  0  0  0  0  0  0
    5.9269   -2.5382   -0.0008 Cl  0  0  0  0  0  0  0  0  0  0  0  0
    7.4597    0.3109    0.0001 Cl  0  0  0  0  0  0  0  0  0  0  0  0
   -1.2929   -0.1502   -0.0011 C   0  0  0  0  0  0  0  0  0  0  0  0
    1.4984    0.0211   -0.0003 C   0  0  0  0  0  0  0  0  0  0  0  0
   -2.7476   -0.2392   -0.0015 C   0  0  0  0  0  0  0  0  0  0  0  0
    2.9465    0.1101    0.0002 C   0  0  0  0  0  0  0  0  0  0  0  0
   -0.5963   -0.1058   -1.2089 C   0  0  0  0  0  0  0  0  0  0  0  0
   -0.5970   -0.1090    1.2072 C   0  0  0  0  0  0  0  0  0  0  0  0
    0.7960   -0.0204   -1.2084 C   0  0  0  0  0  0  0  0  0  0  0  0
    0.7954   -0.0237    1.2075 C   0  0  0  0  0  0  0  0  0  0  0  0
   -3.5258    0.9178    0.0012 C   0  0  0  0  0  0  0  0  0  0  0  0
   -3.3587   -1.4925   -0.0034 C   0  0  0  0  0  0  0  0  0  0  0  0
    3.6074    1.3385    0.0018 C   0  0  0  0  0  0  0  0  0  0  0  0
    3.6798   -1.0763   -0.0013 C   0  0  0  0  0  0  0  0  0  0  0  0
   -4.9173    0.8213    0.0020 C   0  0  0  0  0  0  0  0  0  0  0  0
   -4.7502   -1.5890   -0.0026 C   0  0  0  0  0  0  0  0  0  0  0  0
    5.0740   -1.0344   -0.0010 C   0  0  0  0  0  0  0  0  0  0  0  0
    5.0016    1.3806    0.0020 C   0  0  0  0  0  0  0  0  0  0  0  0
   -5.5295   -0.4322    0.0000 C   0  0  0  0  0  0  0  0  0  0  0  0
    5.7351    0.1940    0.0005 C   0  0  0  0  0  0  0  0  0  0  0  0
  1 16  1  0
  2 17  1  0
  3 18  1  0
  4 19  1  0
  5 20  1  0
  6 21  1  0
  7 22  1  0
  8 24  1  0
  9 28  1  0
 10 26  1  0
 11 29  1  0
 12 14  1  0
 12 16  2  0
 12 17  1  0
 13 15  1  0
 13 18  2  0
 13 19  1  0
 14 20  2  0
 14 21  1  0
 15 22  2  0
 15 23  1  0
 16 18  1  0
 17 19  2  0
 20 24  1  0
 21 25  2  0
 22 27  1  0
 23 26  2  0
 24 28  2  0
 25 28  1  0
 26 29  1  0
 27 29  2  0
M  END
>  <PUBCHEM_COMPOUND_CID>  (1) 
25472

>  <PUBCHEM_CONFORMER_RMSD>  (1) 
0.6

>  <PUBCHEM_CONFORMER_DIVERSEORDER>  (1) 
1
2

>  <PUBCHEM_MMFF94_PARTIAL_CHARGES>  (1) 
28
1 -0.18
10 -0.18
11 -0.18
16 0.18
17 0.18
18 0.18
19 0.18
2 -0.18
20 0.18
21 0.18
22 0.18
23 -0.15
24 0.18
25 -0.15
26 0.18
27 -0.15
28 0.18
29 0.18
3 -0.18
30 0.15
31 0.15
32 0.15
4 -0.18
5 -0.18
6 -0.18
7 -0.18
8 -0.18
9 -0.18

>  <PUBCHEM_EFFECTIVE_ROTOR_COUNT>  (1) 
2

>  <PUBCHEM_PHARMACOPHORE_FEATURES>  (1) 
3
6 12 13 16 17 18 19 rings
6 14 20 21 24 25 28 rings
6 15 22 23 26 27 29 rings

>  <PUBCHEM_HEAVY_ATOM_COUNT>  (1) 
29

>  <PUBCHEM_ATOM_DEF_STEREO_COUNT>  (1) 
0

>  <PUBCHEM_ATOM_UDEF_STEREO_COUNT>  (1) 
0

>  <PUBCHEM_BOND_DEF_STEREO_COUNT>  (1) 
0

>  <PUBCHEM_BOND_UDEF_STEREO_COUNT>  (1) 
0

>  <PUBCHEM_ISOTOPIC_ATOM_COUNT>  (1) 
0

>  <PUBCHEM_COMPONENT_COUNT>  (1) 
1

>  <PUBCHEM_CACTVS_TAUTO_COUNT>  (1) 
1

>  <PUBCHEM_CONFORMER_ID>  (1) 
0000638000000001

>  <PUBCHEM_MMFF94_ENERGY>  (1) 
92.1225

>  <PUBCHEM_FEATURE_SELFOVERLAP>  (1) 
15.223

>  <PUBCHEM_SHAPE_FINGERPRINT>  (1) 
10366900 7 14779547876727611621
10595046 47 18338517550854997948
10906281 52 16845028860885326155
11315181 36 17968098654999865037
11796584 16 18272371975322213910
11963148 33 16702295771948040543
12011746 2 15574714685940151451
12107183 9 17760645867482502016
12107698 1 18410855473029654481
12166972 35 17846499240468737128
12236239 1 17821445768860604243
12467345 10 18409448093850386864
12553582 1 15719108071821882110
12741549 16 17418372498441651057
12788726 201 17703794669580903001
13533116 47 18409166610632213122
13583140 156 18131069376660095954
13782708 43 17775000232760761151
13911987 19 16559032722305044397
14028597 1 17604416402860058088
14341114 176 18410295817484454188
14840074 17 16660360389779574295
15183329 4 18410012122025300586
15361156 5 17603878835814494366
15475509 8 17023755494114475934
15840311 113 18040436638068604525
15849732 13 17749389287187947623
1601671 61 15285356232486126570
17349148 13 16988568995916384312
17844677 252 18411706499324104720
21033648 29 17417232282538313817
21792961 116 17560806498530348510
23402539 116 18412822482805367989
23536379 177 18410856546786601378
23559900 14 18340762727755214545
23569914 152 16162377099515593639
23569914 2 17618447342886879085
23569943 247 17170385222091180138
249057 3 18410574019553426710
3004659 81 18412263909540022986
3178227 256 16200156542642011227
34797466 226 18201730590751621404
3633792 109 18040703763585823119
404807 14 17404311698194776742
4073 2 18114466777040672394
4098825 35 18410573989847657152
4340502 62 18343589533812532359
469060 322 15769232616699875419
5265222 85 18199192961223291462
57527293 21 17771359848650918015
59755656 215 17386001750004984794
59755656 520 16950281819114775579
6086070 43 17678147508548801109
7495541 125 17775001335991901473

>  <PUBCHEM_SHAPE_MULTIPOLES>  (1) 
617.37
16.02
2.33
1.9
3.53
0.12
0
-0.85
0.01
-0.41
0
0.13
-0.09
0

>  <PUBCHEM_SHAPE_SELFOVERLAP>  (1) 
1261.197

>  <PUBCHEM_SHAPE_VOLUME>  (1) 
342.7

>  <PUBCHEM_COORDINATE_TYPE>  (1) 
2
5
10

$$$$
