25484
     RDKit          3D

 10  9  0  0  1  0  0  0  0  0999 V2000
   -0.1127    0.1363   -0.2114 O   0  0  0  0  0  0  0  0  0  0  0  0
    2.4122   -0.9100    0.2629 O   0  0  0  0  0  0  0  0  0  0  0  0
   -3.7321    0.0622    0.0780 O   0  0  0  0  0  0  0  0  0  0  0  0
    0.9158    0.9642    0.3295 C   0  0  0  0  0  0  0  0  0  0  0  0
   -1.3955    0.5506    0.2324 C   0  0  0  0  0  0  0  0  0  0  0  0
   -2.4474   -0.3797   -0.3581 C   0  0  0  0  0  0  0  0  0  0  0  0
    2.2595    0.4404   -0.1614 C   0  0  0  0  0  0  0  0  0  0  0  0
    0.6798    2.3983   -0.1195 C   0  0  0  0  0  0  0  0  0  0  0  0
   -2.2400   -1.8158    0.0989 C   0  0  0  0  0  0  0  0  0  0  0  0
    3.6603   -1.4465   -0.1512 C   0  0  0  0  0  0  0  0  0  0  0  0
  1  4  1  0
  1  5  1  0
  2  7  1  0
  2 10  1  0
  3  6  1  0
  4  7  1  0
  4  8  1  0
  5  6  1  0
  6  9  1  0
M  END
>  <PUBCHEM_COMPOUND_CID>  (1) 
25484

>  <PUBCHEM_CONFORMER_RMSD>  (1) 
0.6

>  <PUBCHEM_CONFORMER_DIVERSEORDER>  (1) 
3
79
60
45
54
70
76
51
46
36
41
4
74
42
53
48
31
81
80
72
38
59
23
7
75
29
13
56
64
32
62
40
33
20
49
63
6
71
10
67
55
50
39
25
68
77
69
9
37
8
61
52
21
27
44
1
78
57
30
65
73
24
34
19
17
66
58
12
14
26
18
15
22
47
28
11
16
43
2
5
35

>  <PUBCHEM_MMFF94_PARTIAL_CHARGES>  (1) 
9
1 -0.56
10 0.28
2 -0.56
23 0.4
3 -0.68
4 0.28
5 0.28
6 0.28
7 0.28

>  <PUBCHEM_EFFECTIVE_ROTOR_COUNT>  (1) 
5

>  <PUBCHEM_PHARMACOPHORE_FEATURES>  (1) 
4
1 1 acceptor
1 2 acceptor
1 3 acceptor
1 3 donor

>  <PUBCHEM_HEAVY_ATOM_COUNT>  (1) 
10

>  <PUBCHEM_ATOM_DEF_STEREO_COUNT>  (1) 
0

>  <PUBCHEM_ATOM_UDEF_STEREO_COUNT>  (1) 
2

>  <PUBCHEM_BOND_DEF_STEREO_COUNT>  (1) 
0

>  <PUBCHEM_BOND_UDEF_STEREO_COUNT>  (1) 
0

>  <PUBCHEM_ISOTOPIC_ATOM_COUNT>  (1) 
0

>  <PUBCHEM_COMPONENT_COUNT>  (1) 
1

>  <PUBCHEM_CACTVS_TAUTO_COUNT>  (1) 
1

>  <PUBCHEM_CONFORMER_ID>  (1) 
0000638C00000003

>  <PUBCHEM_MMFF94_ENERGY>  (1) 
22.4119

>  <PUBCHEM_FEATURE_SELFOVERLAP>  (1) 
20.302

>  <PUBCHEM_SHAPE_FINGERPRINT>  (1) 
10130415 120 18411982442440707177
12932764 1 17487060217719639993
14128692 85 18408327683291628212
14325111 11 18339079410182079621
17990270 104 18265330792735192922
18511873 20 18342460331233535721
20201158 50 18411419479634493574
20645477 70 18265043824944067431
20711985 365 18265051345020203100
207724 885 18410297999507149737
20871998 22 18271811160109314022
23552423 10 18193276527476169973
3248919 1 18120077631926407897
7364860 26 18197216056127095376
9939556 21 18340488984173362517

>  <PUBCHEM_SHAPE_MULTIPOLES>  (1) 
188.19
5.71
2.04
0.64
0.19
0.47
0
-3.22
0.17
-0.76
0.02
-0.01
0.01
0.01

>  <PUBCHEM_SHAPE_SELFOVERLAP>  (1) 
339.865

>  <PUBCHEM_SHAPE_VOLUME>  (1) 
122.7

>  <PUBCHEM_COORDINATE_TYPE>  (1) 
2
5
10

$$$$
