25483
     RDKit          3D

 10  9  0  0  1  0  0  0  0  0999 V2000
    0.3565   -0.0448    0.3167 O   0  0  0  0  0  0  0  0  0  0  0  0
   -2.3491    0.6160    0.0961 O   0  0  0  0  0  0  0  0  0  0  0  0
    3.0286   -0.6709    0.8604 O   0  0  0  0  0  0  0  0  0  0  0  0
   -0.5085   -0.7923   -0.5242 C   0  0  0  0  0  0  0  0  0  0  0  0
    1.4166    0.5522   -0.4286 C   0  0  0  0  0  0  0  0  0  0  0  0
   -1.9121   -0.7386    0.0654 C   0  0  0  0  0  0  0  0  0  0  0  0
    0.0043   -2.2217   -0.6117 C   0  0  0  0  0  0  0  0  0  0  0  0
    2.6417    0.6431    0.4722 C   0  0  0  0  0  0  0  0  0  0  0  0
    0.9710    1.9272   -0.9028 C   0  0  0  0  0  0  0  0  0  0  0  0
   -3.6492    0.7298    0.6565 C   0  0  0  0  0  0  0  0  0  0  0  0
  1  4  1  0
  1  5  1  0
  2  6  1  0
  2 10  1  0
  3  8  1  0
  4  6  1  0
  4  7  1  0
  5  8  1  0
  5  9  1  0
M  END
>  <PUBCHEM_COMPOUND_CID>  (1) 
25483

>  <PUBCHEM_CONFORMER_RMSD>  (1) 
0.6

>  <PUBCHEM_CONFORMER_DIVERSEORDER>  (1) 
2
118
76
80
32
31
60
34
99
14
131
122
119
91
79
68
90
58
126
66
64
74
54
24
136
53
35
95
124
77
108
107
42
101
93
21
40
81
51
72
100
55
61
128
25
36
117
56
87
67
50
70
73
112
49
130
86
5
71
115
41
84
12
98
11
114
134
1
133
102
65
105
132
110
94
10
116
111
16
78
88
39
85
123
75
52
69
45
30
125
106
92
3
127
20
89
44
26
62
109
28
135
29
17
83
120
103
6
8
4
13
27
57
59
47
33
22
9
18
46
48
43
104
7
129
23
96
15
82
113
121
63
97
37
19
38

>  <PUBCHEM_MMFF94_PARTIAL_CHARGES>  (1) 
9
1 -0.56
10 0.28
2 -0.56
23 0.4
3 -0.68
4 0.28
5 0.28
6 0.28
8 0.28

>  <PUBCHEM_EFFECTIVE_ROTOR_COUNT>  (1) 
5

>  <PUBCHEM_PHARMACOPHORE_FEATURES>  (1) 
4
1 1 acceptor
1 2 acceptor
1 3 acceptor
1 3 donor

>  <PUBCHEM_HEAVY_ATOM_COUNT>  (1) 
10

>  <PUBCHEM_ATOM_DEF_STEREO_COUNT>  (1) 
0

>  <PUBCHEM_ATOM_UDEF_STEREO_COUNT>  (1) 
2

>  <PUBCHEM_BOND_DEF_STEREO_COUNT>  (1) 
0

>  <PUBCHEM_BOND_UDEF_STEREO_COUNT>  (1) 
0

>  <PUBCHEM_ISOTOPIC_ATOM_COUNT>  (1) 
0

>  <PUBCHEM_COMPONENT_COUNT>  (1) 
1

>  <PUBCHEM_CACTVS_TAUTO_COUNT>  (1) 
1

>  <PUBCHEM_CONFORMER_ID>  (1) 
0000638B00000002

>  <PUBCHEM_MMFF94_ENERGY>  (1) 
21.8287

>  <PUBCHEM_FEATURE_SELFOVERLAP>  (1) 
20.306

>  <PUBCHEM_SHAPE_FINGERPRINT>  (1) 
10219947 1 18335981986815371721
10857977 72 12107779774080312783
12897270 3 11671785978674212945
14325111 11 18343302595473409787
14390081 3 17775008968634115425
15775835 57 18341617056996267833
161256 15 17980768138313189654
17834069 15 18335695001390391000
207724 885 18260823817295039768
21028194 46 18342181085260475161
21040471 1 18199758092428917375
21293036 1 9871457733981709089
230 275 18200890482384739437
23552423 10 17757545627097386310
2748010 2 17904767670013903645
5084963 1 18115294717516764447

>  <PUBCHEM_SHAPE_MULTIPOLES>  (1) 
188.19
4.72
1.86
0.9
2.09
0.5
-0.03
-1.49
1.83
-0.14
-0.56
-0.26
-0.07
-0.55

>  <PUBCHEM_SHAPE_SELFOVERLAP>  (1) 
340.013

>  <PUBCHEM_SHAPE_VOLUME>  (1) 
122.8

>  <PUBCHEM_COORDINATE_TYPE>  (1) 
2
5
10

$$$$
