25528
     RDKit          3D

 21 23  0  0  0  0  0  0  0  0999 V2000
    5.0946    0.9263    0.0001 Cl  0  0  0  0  0  0  0  0  0  0  0  0
   -0.0006    2.6128   -0.0008 O   0  0  0  0  0  0  0  0  0  0  0  0
   -0.5098   -2.7060   -0.0012 O   0  0  0  0  0  0  0  0  0  0  0  0
    2.0183   -3.0489    0.0001 O   0  0  0  0  0  0  0  0  0  0  0  0
   -2.5249    2.9554   -0.0005 O   0  0  0  0  0  0  0  0  0  0  0  0
    2.5565    2.4956    0.0008 N   0  0  0  0  0  0  0  0  0  0  0  0
   -3.0941   -2.5812    0.0004 N   0  0  0  0  0  0  0  0  0  0  0  0
    1.0842    0.5196   -0.0002 C   0  0  0  0  0  0  0  0  0  0  0  0
   -1.5898   -0.6130    0.0000 C   0  0  0  0  0  0  0  0  0  0  0  0
    0.9433   -0.8698   -0.0004 C   0  0  0  0  0  0  0  0  0  0  0  0
   -1.4490    0.7763   -0.0004 C   0  0  0  0  0  0  0  0  0  0  0  0
   -0.1069    1.3933   -0.0008 C   0  0  0  0  0  0  0  0  0  0  0  0
   -0.3987   -1.4868   -0.0006 C   0  0  0  0  0  0  0  0  0  0  0  0
    2.3618    1.0919    0.0005 C   0  0  0  0  0  0  0  0  0  0  0  0
   -2.8676   -1.1853    0.0006 C   0  0  0  0  0  0  0  0  0  0  0  0
    2.0802   -1.6868   -0.0001 C   0  0  0  0  0  0  0  0  0  0  0  0
   -2.5859    1.5934   -0.0002 C   0  0  0  0  0  0  0  0  0  0  0  0
    3.4921    0.2741    0.0007 C   0  0  0  0  0  0  0  0  0  0  0  0
    3.3517   -1.1123    0.0003 C   0  0  0  0  0  0  0  0  0  0  0  0
   -3.9979   -0.3674    0.0011 C   0  0  0  0  0  0  0  0  0  0  0  0
   -3.8574    1.0189    0.0006 C   0  0  0  0  0  0  0  0  0  0  0  0
  1 18  1  0
  2 12  2  0
  3 13  2  0
  4 16  1  0
  5 17  1  0
  6 14  1  0
  7 15  1  0
  8 10  2  0
  8 12  1  0
  8 14  1  0
  9 11  2  0
  9 13  1  0
  9 15  1  0
 10 13  1  0
 10 16  1  0
 11 12  1  0
 11 17  1  0
 14 18  2  0
 15 20  2  0
 16 19  2  0
 17 21  2  0
 18 19  1  0
 20 21  1  0
M  END
>  <PUBCHEM_COMPOUND_CID>  (1) 
25528

>  <PUBCHEM_CONFORMER_RMSD>  (1) 
0.6

>  <PUBCHEM_CONFORMER_DIVERSEORDER>  (1) 
1

>  <PUBCHEM_MMFF94_PARTIAL_CHARGES>  (1) 
30
1 -0.18
10 0.09
11 0.09
12 0.4
13 0.4
14 0.1
15 0.1
16 0.08
17 0.08
18 0.18
19 -0.15
2 -0.57
20 -0.15
21 -0.15
22 0.15
23 0.15
24 0.15
25 0.4
26 0.4
27 0.4
28 0.4
29 0.45
3 -0.57
30 0.45
4 -0.53
5 -0.53
6 -0.9
7 -0.9
8 0.09
9 0.09

>  <PUBCHEM_EFFECTIVE_ROTOR_COUNT>  (1) 
0

>  <PUBCHEM_PHARMACOPHORE_FEATURES>  (1) 
11
1 2 acceptor
1 3 acceptor
1 4 donor
1 5 donor
1 6 cation
1 6 donor
1 7 cation
1 7 donor
6 8 10 14 16 18 19 rings
6 8 9 10 11 12 13 rings
6 9 11 15 17 20 21 rings

>  <PUBCHEM_HEAVY_ATOM_COUNT>  (1) 
21

>  <PUBCHEM_ATOM_DEF_STEREO_COUNT>  (1) 
0

>  <PUBCHEM_ATOM_UDEF_STEREO_COUNT>  (1) 
0

>  <PUBCHEM_BOND_DEF_STEREO_COUNT>  (1) 
0

>  <PUBCHEM_BOND_UDEF_STEREO_COUNT>  (1) 
0

>  <PUBCHEM_ISOTOPIC_ATOM_COUNT>  (1) 
0

>  <PUBCHEM_COMPONENT_COUNT>  (1) 
1

>  <PUBCHEM_CACTVS_TAUTO_COUNT>  (1) 
169

>  <PUBCHEM_CONFORMER_ID>  (1) 
000063B800000001

>  <PUBCHEM_MMFF94_ENERGY>  (1) 
92.8662

>  <PUBCHEM_FEATURE_SELFOVERLAP>  (1) 
55.863

>  <PUBCHEM_SHAPE_FINGERPRINT>  (1) 
10411042 1 17473826611891042498
10608611 8 18410854330625758893
10616163 171 18411420643543958247
10863032 1 18340205193734434634
10967382 1 18338516322404615463
11132069 177 18410570690922149729
11578080 2 17024858269796000014
12553582 1 18339075020678218787
12839892 36 18337934737290087650
13140716 1 17978234081838616003
138480 1 17906170646914703650
14178342 30 18338221696654906240
14223421 5 18410576192917693559
14790565 3 18265340676062206604
15196674 1 18410575046029498246
15442244 35 18194399983393861234
15536298 74 18342458102019070846
16945 1 18338234989193500071
17492 89 18410292484669785267
19591789 44 18050851314272951667
200 152 18131626811922910525
20510252 161 18343585122548569609
20905425 154 18341615884338125902
21267235 1 18338525238788721263
21421861 104 17969779666592475650
21501502 16 18338233756500975882
221490 88 18409456903124041466
2334 1 18410855456002045027
23366157 5 18041847186611346026
23402539 116 18342169020386195470
23463225 33 18409448059474811245
23559900 14 18126562324269825206
238 59 16816259911743766981
2748010 2 18410856529680552663
335352 9 17834394518930612727
34934 24 18410568474930177343
350125 39 18410296921285949801
4409770 3 16167209303232922990
474 4 17604155921197471780
5104073 3 18410573955513974922
58051976 378 18412543214845703028
7364860 26 18341050710045475078
7832392 63 18339642213842881766
9709674 26 18412548682265600967

>  <PUBCHEM_SHAPE_MULTIPOLES>  (1) 
400.6
7.48
3.18
0.59
2.42
0.35
0
-1.13
0
-0.49
0
0.02
0
0

>  <PUBCHEM_SHAPE_SELFOVERLAP>  (1) 
902.771

>  <PUBCHEM_SHAPE_VOLUME>  (1) 
210.4

>  <PUBCHEM_COORDINATE_TYPE>  (1) 
2
5
10

$$$$
