25526
     RDKit          3D

 39 42  0  0  1  0  0  0  0  0999 V2000
    2.7678   -1.6323    2.0236 Cl  0  0  0  0  0  0  0  0  0  0  0  0
    6.5393    1.7237   -1.6506 Cl  0  0  0  0  0  0  0  0  0  0  0  0
   -6.3512    0.0871    0.3404 S   0  0  0  0  0  0  0  0  0  0  0  0
    7.4423   -1.1963   -0.5934 S   0  0  0  0  0  0  0  0  0  0  0  0
    1.6443    2.4842   -0.9792 O   0  0  0  0  0  0  0  0  0  0  0  0
   -6.4009    0.6725    1.6742 O   0  0  0  0  0  0  0  0  0  0  0  0
   -7.5440    0.1167   -0.4957 O   0  0  0  0  0  0  0  0  0  0  0  0
    8.5505   -0.3071    0.2122 O   0  0  0  0  0  0  0  0  0  0  0  0
    7.4795   -2.5370   -0.0328 O   0  0  0  0  0  0  0  0  0  0  0  0
    7.6307   -0.9770   -2.0172 O   0  0  0  0  0  0  0  0  0  0  0  0
    2.1803    1.1257    0.8888 N   0  0  0  0  0  0  0  0  0  0  0  0
   -5.8190   -1.5316    0.4742 N   0  0  0  0  0  0  0  0  0  0  0  0
    1.5944    0.7888    2.0900 N   0  0  0  0  0  0  0  0  0  0  0  0
   -0.9563    1.7218    0.2571 N   0  0  0  0  0  0  0  0  0  0  0  0
   -1.8577    2.5754    0.0864 N   0  0  0  0  0  0  0  0  0  0  0  0
    0.1902    2.2706    0.9591 C   0  0  0  0  0  0  0  0  0  0  0  0
    0.4680    1.4249    2.1551 C   0  0  0  0  0  0  0  0  0  0  0  0
    1.4114    2.0188    0.1237 C   0  0  0  0  0  0  0  0  0  0  0  0
   -5.0010   -1.9406    1.6249 C   0  0  0  0  0  0  0  0  0  0  0  0
    3.4053    0.5742    0.5492 C   0  0  0  0  0  0  0  0  0  0  0  0
   -4.0598   -3.0756    1.2311 C   0  0  0  0  0  0  0  0  0  0  0  0
   -5.0539    0.8374   -0.5548 C   0  0  0  0  0  0  0  0  0  0  0  0
   -3.0936   -2.6904    0.1377 C   0  0  0  0  0  0  0  0  0  0  0  0
   -0.4683    1.3401    3.3108 C   0  0  0  0  0  0  0  0  0  0  0  0
    3.7991   -0.6908    1.0063 C   0  0  0  0  0  0  0  0  0  0  0  0
    4.2739    1.3024   -0.2740 C   0  0  0  0  0  0  0  0  0  0  0  0
   -3.9757    1.4062    0.1232 C   0  0  0  0  0  0  0  0  0  0  0  0
   -2.9440    2.0023   -0.5958 C   0  0  0  0  0  0  0  0  0  0  0  0
    5.8971   -0.4843   -0.1741 C   0  0  0  0  0  0  0  0  0  0  0  0
    5.5141    0.7758   -0.6341 C   0  0  0  0  0  0  0  0  0  0  0  0
    5.0396   -1.2176    0.6461 C   0  0  0  0  0  0  0  0  0  0  0  0
   -5.0953    0.8674   -1.9487 C   0  0  0  0  0  0  0  0  0  0  0  0
   -2.9806    2.0347   -1.9868 C   0  0  0  0  0  0  0  0  0  0  0  0
   -3.4527   -2.8862   -1.1868 C   0  0  0  0  0  0  0  0  0  0  0  0
   -1.8643   -2.1471    0.4770 C   0  0  0  0  0  0  0  0  0  0  0  0
   -4.0587    1.4660   -2.6647 C   0  0  0  0  0  0  0  0  0  0  0  0
   -2.5598   -2.5300   -2.1975 C   0  0  0  0  0  0  0  0  0  0  0  0
   -0.9716   -1.7908   -0.5339 C   0  0  0  0  0  0  0  0  0  0  0  0
   -1.3194   -1.9823   -1.8710 C   0  0  0  0  0  0  0  0  0  0  0  0
  1 25  1  0
  2 30  1  0
  3  6  2  0
  3  7  2  0
  3 12  1  0
  3 22  1  0
  4  8  1  0
  4  9  2  0
  4 10  2  0
  4 29  1  0
  5 18  2  0
 11 13  1  0
 11 18  1  0
 11 20  1  0
 12 19  1  0
 13 17  2  0
 14 15  2  0
 14 16  1  0
 15 28  1  0
 16 17  1  0
 16 18  1  0
 17 24  1  0
 19 21  1  0
 20 25  2  0
 20 26  1  0
 21 23  1  0
 22 27  2  0
 22 32  1  0
 23 34  2  0
 23 35  1  0
 25 31  1  0
 26 30  2  0
 27 28  1  0
 28 33  2  0
 29 30  1  0
 29 31  2  0
 32 36  2  0
 33 36  1  0
 34 37  1  0
 35 38  2  0
 37 39  2  0
 38 39  1  0
M  END
>  <PUBCHEM_COMPOUND_CID>  (1) 
25526

>  <PUBCHEM_CONFORMER_RMSD>  (1) 
1.2

>  <PUBCHEM_CONFORMER_DIVERSEORDER>  (1) 
13
333
256
218
108
367
320
200
293
151
114
279
55
122
349
287
31
179
234
138
372
360
115
112
104
87
93
7
194
158
267
314
396
100
246
278
50
86
280
84
228
35
160
190
25
319
131
110
248
269
148
188
371
204
76
210
78
252
259
309
6
373
361
30
254
337
270
260
123
294
47
81
310
53
265
195
101
231
394
209
336
193
106
127
116
12
339
60
345
219
255
73
102
385
107
240
302
283
163
356
363
154
95
46
387
212
257
208
28
329
141
172
233
375
133
242
159
132
297
145
306
52
381
378
197
391
236
21
359
344
121
379
198
271
72
90
68
56
224
386
150
167
290
305
37
196
376
284
178
173
180
174
207
137
312
26
230
286
22
75
282
144
213
237
288
185
220
370
365
146
8
201
44
171
383
301
164
118
103
67
205
98
99
364
328
275
49
215
69
295
91
351
40
244
19
152
358
291
74
214
80
77
316
191
217
348
308
1
153
125
390
10
177
175
380
258
181
45
17
65
202
38
350
245
389
317
142
299
313
157
203
392
29
15
354
298
54
321
183
285
355
62
166
384
247
57
18
48
14
89
277
273
192
374
206
16
227
82
139
382
149
323
136
58
226
296
353
268
42
33
274
41
120
315
79
335
20
70
168
129
352
94
176
318
3
395
189
59
366
334
225
184
111
170
338
124
11
307
4
64
263
243
340
162
250
97
9
199
71
140
331
187
117
311
229
241
66
362
165
239
300
43
135
211
368
325
92
23
105
61
88
85
155
326
32
324
216
235
292
130
264
186
272
39
147
36
143
126
289
281
119
330
253
327
63
223
5
51
346
393
332
113
156
266
276
377
169
182
342
249
221
232
303
341
357
83
96
161
251
262
238
222
388
34
304
134
322
347
261
27
128
343
2
24
109
369

>  <PUBCHEM_MMFF94_PARTIAL_CHARGES>  (1) 
52
1 -0.18
10 -0.65
11 -0.11
12 -0.91
13 -0.51
14 -0.25
15 -0.18
16 0.37
17 0.33
18 0.57
19 0.36
2 -0.18
20 0.12
21 0.14
22 -0.01
23 -0.14
24 0.06
25 0.18
26 -0.15
27 -0.15
28 0.18
29 -0.01
3 1.45
30 0.18
31 -0.15
32 -0.15
33 -0.15
34 -0.15
35 -0.15
36 -0.15
37 -0.15
38 -0.15
39 -0.15
4 1.49
45 0.42
49 0.15
5 -0.57
50 0.15
51 0.15
52 0.15
53 0.15
54 0.15
55 0.15
56 0.15
57 0.15
58 0.15
59 0.15
6 -0.65
60 0.5
7 -0.65
8 -0.68
9 -0.65

>  <PUBCHEM_EFFECTIVE_ROTOR_COUNT>  (1) 
9.4

>  <PUBCHEM_PHARMACOPHORE_FEATURES>  (1) 
13
1 10 acceptor
1 12 donor
1 13 acceptor
1 5 acceptor
1 6 acceptor
1 7 acceptor
1 8 acceptor
1 9 acceptor
4 4 8 9 10 anion
5 11 13 16 17 18 rings
6 20 25 26 29 30 31 rings
6 22 27 28 32 33 36 rings
6 23 34 35 37 38 39 rings

>  <PUBCHEM_HEAVY_ATOM_COUNT>  (1) 
39

>  <PUBCHEM_ATOM_DEF_STEREO_COUNT>  (1) 
0

>  <PUBCHEM_ATOM_UDEF_STEREO_COUNT>  (1) 
1

>  <PUBCHEM_BOND_DEF_STEREO_COUNT>  (1) 
0

>  <PUBCHEM_BOND_UDEF_STEREO_COUNT>  (1) 
0

>  <PUBCHEM_ISOTOPIC_ATOM_COUNT>  (1) 
0

>  <PUBCHEM_COMPONENT_COUNT>  (1) 
1

>  <PUBCHEM_CACTVS_TAUTO_COUNT>  (1) 
3

>  <PUBCHEM_CONFORMER_ID>  (1) 
000063B60000000D

>  <PUBCHEM_MMFF94_ENERGY>  (1) 
87.0027

>  <PUBCHEM_FEATURE_SELFOVERLAP>  (1) 
66.051

>  <PUBCHEM_SHAPE_FINGERPRINT>  (1) 
11505856 67 13769296763585375871
117089 54 17752781387791868987
11763389 116 17988931029019329814
12402354 99 17387692692427386650
12422481 6 18340210777967548387
14040222 275 16988853808642457440
14279260 333 17560522781021696070
15082195 135 17969513770048359340
15183329 4 18410854360674770906
15351334 14 16298655089141013990
15510800 12 17845948321209205742
18603816 31 17703501164791127655
20764821 26 18129653227116049175
21792965 78 17487907714237783174
23569943 247 16629964287740092942
3383291 50 17988917864527497943
4058900 60 17829030032550163037
4098825 35 18040154028866962922
44317340 157 18335142046622940084
44880168 125 18270961370886946179
5265222 85 18410574015380058252
9896288 288 17201932436107579145
999808 66 18408889529343515385

>  <PUBCHEM_SHAPE_MULTIPOLES>  (1) 
753.92
20.34
3.52
2.42
25.53
1.2
-0.37
5.6
5.55
-2.38
0.45
-1.17
-0.34
0.6

>  <PUBCHEM_SHAPE_SELFOVERLAP>  (1) 
1586.385

>  <PUBCHEM_SHAPE_VOLUME>  (1) 
426.3

>  <PUBCHEM_COORDINATE_TYPE>  (1) 
2
5
10

$$$$
