25530
     RDKit          3D

 28 31  0  0  0  0  0  0  0  0999 V2000
   -2.5783    2.3055    0.6468 O   0  0  0  0  0  0  0  0  0  0  0  0
   -2.5763   -2.3176    0.6402 O   0  0  0  0  0  0  0  0  0  0  0  0
    2.8135    2.6744   -0.0742 O   0  0  0  0  0  0  0  0  0  0  0  0
    2.8207   -2.6716   -0.0821 O   0  0  0  0  0  0  0  0  0  0  0  0
   -7.3349   -0.0082   -1.4828 O   0  0  0  0  0  0  0  0  0  0  0  0
   -2.9860   -0.0071    0.7033 N   0  0  0  0  0  0  0  0  0  0  0  0
    0.2421    2.8271    0.2703 N   0  0  0  0  0  0  0  0  0  0  0  0
    0.2497   -2.8324    0.2622 N   0  0  0  0  0  0  0  0  0  0  0  0
   -0.8502    0.6883    0.4155 C   0  0  0  0  0  0  0  0  0  0  0  0
   -0.8482   -0.6970    0.4136 C   0  0  0  0  0  0  0  0  0  0  0  0
    1.5045    0.7050    0.0993 C   0  0  0  0  0  0  0  0  0  0  0  0
    1.5066   -0.7064    0.0977 C   0  0  0  0  0  0  0  0  0  0  0  0
    0.3084    1.4215    0.2605 C   0  0  0  0  0  0  0  0  0  0  0  0
    0.3124   -1.4267    0.2569 C   0  0  0  0  0  0  0  0  0  0  0  0
   -2.2291    1.1405    0.6000 C   0  0  0  0  0  0  0  0  0  0  0  0
   -2.2257   -1.1527    0.5964 C   0  0  0  0  0  0  0  0  0  0  0  0
   -4.4219   -0.0094    0.9023 C   0  0  0  0  0  0  0  0  0  0  0  0
    2.7693    1.4504   -0.0700 C   0  0  0  0  0  0  0  0  0  0  0  0
    2.7736   -1.4478   -0.0727 C   0  0  0  0  0  0  0  0  0  0  0  0
   -5.1929   -0.0084   -0.4111 C   0  0  0  0  0  0  0  0  0  0  0  0
    4.0306    0.7012   -0.2391 C   0  0  0  0  0  0  0  0  0  0  0  0
    4.0326   -0.6947   -0.2403 C   0  0  0  0  0  0  0  0  0  0  0  0
   -6.7032    0.0092   -0.2095 C   0  0  0  0  0  0  0  0  0  0  0  0
    5.2329    1.4011   -0.3992 C   0  0  0  0  0  0  0  0  0  0  0  0
    5.2371   -1.3907   -0.4012 C   0  0  0  0  0  0  0  0  0  0  0  0
    6.4305    0.7037   -0.5592 C   0  0  0  0  0  0  0  0  0  0  0  0
    6.4326   -0.6895   -0.5602 C   0  0  0  0  0  0  0  0  0  0  0  0
   -8.7504    0.0320   -1.3634 C   0  0  0  0  0  0  0  0  0  0  0  0
  1 15  2  0
  2 16  2  0
  3 18  2  0
  4 19  2  0
  5 23  1  0
  5 28  1  0
  6 15  1  0
  6 16  1  0
  6 17  1  0
  7 13  1  0
  8 14  1  0
  9 10  2  0
  9 13  1  0
  9 15  1  0
 10 14  1  0
 10 16  1  0
 11 12  1  0
 11 13  2  0
 11 18  1  0
 12 14  2  0
 12 19  1  0
 17 20  1  0
 18 21  1  0
 19 22  1  0
 20 23  1  0
 21 22  2  0
 21 24  1  0
 22 25  1  0
 24 26  2  0
 25 27  2  0
 26 27  1  0
M  END
>  <PUBCHEM_COMPOUND_CID>  (1) 
25530

>  <PUBCHEM_CONFORMER_RMSD>  (1) 
0.8

>  <PUBCHEM_CONFORMER_DIVERSEORDER>  (1) 
1
4
3
2
5

>  <PUBCHEM_MMFF94_PARTIAL_CHARGES>  (1) 
35
1 -0.57
10 0.09
11 0.09
12 0.09
13 0.1
14 0.1
15 0.54
16 0.54
17 0.3
18 0.4
19 0.4
2 -0.57
21 0.09
22 0.09
23 0.28
24 -0.15
25 -0.15
26 -0.15
27 -0.15
28 0.28
3 -0.57
33 0.4
34 0.4
35 0.4
36 0.4
39 0.15
4 -0.57
40 0.15
41 0.15
42 0.15
5 -0.56
6 -0.42
7 -0.9
8 -0.9
9 0.09

>  <PUBCHEM_EFFECTIVE_ROTOR_COUNT>  (1) 
4

>  <PUBCHEM_PHARMACOPHORE_FEATURES>  (1) 
13
1 1 acceptor
1 2 acceptor
1 3 acceptor
1 4 acceptor
1 5 acceptor
1 7 cation
1 7 donor
1 8 cation
1 8 donor
5 6 9 10 15 16 rings
6 11 12 18 19 21 22 rings
6 21 22 24 25 26 27 rings
6 9 10 11 12 13 14 rings

>  <PUBCHEM_HEAVY_ATOM_COUNT>  (1) 
28

>  <PUBCHEM_ATOM_DEF_STEREO_COUNT>  (1) 
0

>  <PUBCHEM_ATOM_UDEF_STEREO_COUNT>  (1) 
0

>  <PUBCHEM_BOND_DEF_STEREO_COUNT>  (1) 
0

>  <PUBCHEM_BOND_UDEF_STEREO_COUNT>  (1) 
0

>  <PUBCHEM_ISOTOPIC_ATOM_COUNT>  (1) 
0

>  <PUBCHEM_COMPONENT_COUNT>  (1) 
1

>  <PUBCHEM_CACTVS_TAUTO_COUNT>  (1) 
11

>  <PUBCHEM_CONFORMER_ID>  (1) 
000063BA00000001

>  <PUBCHEM_MMFF94_ENERGY>  (1) 
102.0033

>  <PUBCHEM_FEATURE_SELFOVERLAP>  (1) 
66.108

>  <PUBCHEM_SHAPE_FINGERPRINT>  (1) 
106641 1 15339111356152698440
10693767 8 18201997685983127271
10835480 77 18336828718365137344
10906281 52 18268453294036056235
10967382 1 18410583864161853058
11578080 2 16951399902365963518
12011746 2 18409169917445508801
12236239 1 17775289348251747265
12838862 33 18338506530628572248
13140716 1 18266745869249209338
13402501 40 18408328791329822088
13540713 4 18048034357641689937
13540713 5 18053100623759895475
13862211 1 18411703149908730538
14117953 113 18333736823396189556
14294032 229 16844461419456670513
14790565 3 17691138032700299264
14931854 50 18410297977673409412
15131766 46 16445618201901903796
15183329 4 18410289203899294065
15196674 1 18410865356650618714
15475509 35 14117527488968586492
19591789 44 18339088193706873642
20028762 73 18131350791175514206
21150785 3 17561081423402358039
21236236 1 18341056216220266857
21267235 1 18339095825668534354
21279426 13 18336271227140744619
21521239 73 18202282493970088055
21792934 111 18337379492745190224
221357 26 18411135822724641389
23402539 116 18343023324078893574
23559900 14 18339642359771991753
255183 451 17912653410722847350
3004659 81 18333730229977915233
335352 9 18410579483638161142
34797466 226 16128657470799442592
350125 39 18410301315058508368
3545911 37 18408327700081094347
3633792 109 18410572860645778441
4325135 7 18272650138999718429
4340502 62 16660370281337145170
474113 269 17532078407571107242
484989 97 18265337386359747243
5104073 3 18411145727831310704
59755656 215 18408325471283270030
6081469 158 17749390326385306670

>  <PUBCHEM_SHAPE_MULTIPOLES>  (1) 
531.94
17.44
2.47
0.89
24.78
0.01
-0.15
-0.1
-8.62
-1.79
0.32
1.25
0
0.01

>  <PUBCHEM_SHAPE_SELFOVERLAP>  (1) 
1195.311

>  <PUBCHEM_SHAPE_VOLUME>  (1) 
282.2

>  <PUBCHEM_COORDINATE_TYPE>  (1) 
2
5
10

$$$$
