25567
     RDKit          3D

 20 22  0  0  1  0  0  0  0  0999 V2000
   -4.9214   -0.2097   -0.9667 Br  0  0  0  0  0  0  0  0  0  0  0  0
   -1.1907    0.9031    0.5944 N   0  0  0  0  0  0  0  0  0  0  0  0
   -0.3208    0.3983   -0.4609 C   0  0  0  0  0  0  0  0  0  0  0  0
    1.0688    1.0179   -0.4075 C   0  0  0  0  0  0  0  0  0  0  0  0
    0.0013   -1.0793   -0.2844 C   0  0  0  0  0  0  0  0  0  0  0  0
    2.0506    0.0178   -0.2241 C   0  0  0  0  0  0  0  0  0  0  0  0
    1.3951   -1.2696   -0.1486 C   0  0  0  0  0  0  0  0  0  0  0  0
   -2.5326    0.3299    0.4747 C   0  0  0  0  0  0  0  0  0  0  0  0
   -0.6279    0.6059    1.9128 C   0  0  0  0  0  0  0  0  0  0  0  0
    1.4150    2.3571   -0.4957 C   0  0  0  0  0  0  0  0  0  0  0  0
   -0.8786   -2.1487   -0.2313 C   0  0  0  0  0  0  0  0  0  0  0  0
   -3.1499    0.6365   -0.8895 C   0  0  0  0  0  0  0  0  0  0  0  0
    3.3921    0.3533   -0.1397 C   0  0  0  0  0  0  0  0  0  0  0  0
    1.9195   -2.5395    0.0300 C   0  0  0  0  0  0  0  0  0  0  0  0
   -1.4974    1.1566    3.0242 C   0  0  0  0  0  0  0  0  0  0  0  0
    2.7670    2.6945   -0.4108 C   0  0  0  0  0  0  0  0  0  0  0  0
   -0.3497   -3.4281   -0.0517 C   0  0  0  0  0  0  0  0  0  0  0  0
    3.7460    1.7022   -0.2358 C   0  0  0  0  0  0  0  0  0  0  0  0
    1.0358   -3.6217    0.0764 C   0  0  0  0  0  0  0  0  0  0  0  0
   -3.3220    2.1237   -1.1658 C   0  0  0  0  0  0  0  0  0  0  0  0
  1 12  1  0
  2  3  1  0
  2  8  1  0
  2  9  1  0
  3  4  1  0
  3  5  1  0
  4  6  2  0
  4 10  1  0
  5  7  2  0
  5 11  1  0
  6  7  1  0
  6 13  1  0
  7 14  1  0
  8 12  1  0
  9 15  1  0
 10 16  2  0
 11 17  2  0
 12 20  1  0
 13 18  2  0
 14 19  2  0
 16 18  1  0
 17 19  1  0
M  END
>  <PUBCHEM_COMPOUND_CID>  (1) 
25567

>  <PUBCHEM_CONFORMER_RMSD>  (1) 
0.6

>  <PUBCHEM_CONFORMER_DIVERSEORDER>  (1) 
1
6
12
5
11
3
10
7
9
2
4
8

>  <PUBCHEM_MMFF94_PARTIAL_CHARGES>  (1) 
24
1 -0.23
10 -0.15
11 -0.15
12 0.23
13 -0.15
14 -0.15
16 -0.15
17 -0.15
18 -0.15
19 -0.15
2 -0.81
26 0.15
27 0.15
29 0.15
3 0.56
30 0.15
34 0.15
35 0.15
36 0.15
37 0.15
4 -0.14
5 -0.14
8 0.27
9 0.27

>  <PUBCHEM_EFFECTIVE_ROTOR_COUNT>  (1) 
4.2

>  <PUBCHEM_PHARMACOPHORE_FEATURES>  (1) 
6
1 1 hydrophobe
1 2 cation
3 1 12 20 hydrophobe
5 3 4 5 6 7 rings
6 4 6 10 13 16 18 rings
6 5 7 11 14 17 19 rings

>  <PUBCHEM_HEAVY_ATOM_COUNT>  (1) 
20

>  <PUBCHEM_ATOM_DEF_STEREO_COUNT>  (1) 
0

>  <PUBCHEM_ATOM_UDEF_STEREO_COUNT>  (1) 
1

>  <PUBCHEM_BOND_DEF_STEREO_COUNT>  (1) 
0

>  <PUBCHEM_BOND_UDEF_STEREO_COUNT>  (1) 
0

>  <PUBCHEM_ISOTOPIC_ATOM_COUNT>  (1) 
0

>  <PUBCHEM_COMPONENT_COUNT>  (1) 
1

>  <PUBCHEM_CACTVS_TAUTO_COUNT>  (1) 
1

>  <PUBCHEM_CONFORMER_ID>  (1) 
000063DF00000001

>  <PUBCHEM_MMFF94_ENERGY>  (1) 
69.6995

>  <PUBCHEM_FEATURE_SELFOVERLAP>  (1) 
31.539

>  <PUBCHEM_SHAPE_FINGERPRINT>  (1) 
10411042 1 17617090313867847959
10693767 8 18129656379533211982
10871710 139 16456596983496604581
10967382 1 18409446968832816606
11370993 70 18336818796953123981
11578080 2 15436569734270627734
11582403 64 17315324107721801949
11640471 11 17486794994572578761
116883 192 17113246746563332941
11725454 13 17313645119159009053
12403259 327 16226041232160783840
12553582 1 17546180605357488762
12592029 89 18335136492475280499
12716301 132 17694196165009065363
12730499 353 18335141977871340453
13004483 165 16895378505083502835
13009979 54 17557987234352200611
13140716 1 18338236084884927424
13583140 156 17313660567866449745
138480 1 17977096868861698390
14787075 74 17630303441202811329
14817 1 15230123064380557090
15210252 30 17324044489403304511
15502722 9 18337384942567857463
16752209 62 17979068607196366454
16945 1 18338249171460302616
18219364 16 18335999626388767112
19591789 44 18408603677800548086
19765921 60 18200865262146847517
19930381 70 18335695023292924637
20510252 161 17766288952372831234
20600515 1 15481230900601840611
21521721 280 18125725827880541681
21524375 3 18114456855085878628
221490 88 18263645070123102847
2334 1 18122632914224050796
23419403 2 17535784847470366561
23557571 272 17241063062896970393
23559900 14 18194104227935500655
23598291 2 17699300862494563401
238 59 18334016060146195183
2748010 2 18336847350027907766
298252 57 18188200009070692361
3060560 45 18408317787507591636
3380486 145 17472710126192810024
352729 6 18269003153224720630
394222 165 18187916287905337562
4340502 62 18341047523253308775
58051976 378 18411411830650654559
7364860 26 18265046938272610991
81228 2 17401515004701206362
8272917 22 18339643326650907501
84936 182 18272079449035883336

>  <PUBCHEM_SHAPE_MULTIPOLES>  (1) 
412.55
6.13
3.77
1.5
4.5
3.27
1.65
-3.46
-2.42
-2.05
-0.4
1.29
-0.89
-0.29

>  <PUBCHEM_SHAPE_SELFOVERLAP>  (1) 
877.017

>  <PUBCHEM_SHAPE_VOLUME>  (1) 
236.7

>  <PUBCHEM_COORDINATE_TYPE>  (1) 
2
5
10

$$$$
