2557
     RDKit          3D

 17 18  0  0  1  0  0  0  0  0999 V2000
    2.2571   -2.7929   -0.4326 O   0  0  0  0  0  0  0  0  0  0  0  0
   -1.0976    2.5594    0.0373 O   0  0  0  0  0  0  0  0  0  0  0  0
   -4.7020   -0.3176    0.8164 O   0  0  0  0  0  0  0  0  0  0  0  0
    3.3245    0.5233   -0.1167 N   0  0  0  0  0  0  0  0  0  0  0  0
   -2.1542    0.0452    0.6736 N   0  0  0  0  0  0  0  0  0  0  0  0
   -2.7218   -0.2360   -0.4054 N   0  0  0  0  0  0  0  0  0  0  0  0
   -4.7134   -0.7237   -1.4252 N   0  0  0  0  0  0  0  0  0  0  0  0
    2.5306   -1.6941    0.4167 C   0  0  0  0  0  0  0  0  0  0  0  0
    3.7344   -0.8784   -0.1066 C   0  0  0  0  0  0  0  0  0  0  0  0
    1.4231   -0.6889    0.3494 C   0  0  0  0  0  0  0  0  0  0  0  0
    1.9504    0.5695    0.0367 C   0  0  0  0  0  0  0  0  0  0  0  0
    0.0681   -0.8828    0.5685 C   0  0  0  0  0  0  0  0  0  0  0  0
    1.1040    1.6632   -0.0689 C   0  0  0  0  0  0  0  0  0  0  0  0
    4.1237    1.5675   -0.7035 C   0  0  0  0  0  0  0  0  0  0  0  0
   -0.7811    0.2175    0.4597 C   0  0  0  0  0  0  0  0  0  0  0  0
   -0.2667    1.4822    0.1420 C   0  0  0  0  0  0  0  0  0  0  0  0
   -4.0790   -0.4134   -0.2413 C   0  0  0  0  0  0  0  0  0  0  0  0
  1  8  1  0
  2 16  1  0
  3 17  2  0
  4  9  1  0
  4 11  1  0
  4 14  1  0
  5  6  2  0
  5 15  1  0
  6 17  1  0
  7 17  1  0
  8  9  1  0
  8 10  1  0
 10 11  2  0
 10 12  1  0
 11 13  1  0
 12 15  2  0
 13 16  2  0
 15 16  1  0
M  END
>  <PUBCHEM_COMPOUND_CID>  (1) 
2557

>  <PUBCHEM_CONFORMER_RMSD>  (1) 
0.6

>  <PUBCHEM_CONFORMER_DIVERSEORDER>  (1) 
1
7
2
4
8
3
6
5

>  <PUBCHEM_MMFF94_PARTIAL_CHARGES>  (1) 
23
1 -0.68
10 -0.14
11 0.1
12 -0.15
13 -0.15
14 0.37
15 0.18
16 0.08
17 0.84
2 -0.53
21 0.15
22 0.15
26 0.4
27 0.45
28 0.37
29 0.37
3 -0.57
4 -0.84
5 -0.18
6 -0.21
7 -0.8
8 0.42
9 0.37

>  <PUBCHEM_EFFECTIVE_ROTOR_COUNT>  (1) 
2.6

>  <PUBCHEM_PHARMACOPHORE_FEATURES>  (1) 
9
1 1 acceptor
1 1 donor
1 2 donor
1 3 acceptor
1 4 cation
1 6 donor
1 7 donor
5 4 8 9 10 11 rings
6 10 11 12 13 15 16 rings

>  <PUBCHEM_HEAVY_ATOM_COUNT>  (1) 
17

>  <PUBCHEM_ATOM_DEF_STEREO_COUNT>  (1) 
0

>  <PUBCHEM_ATOM_UDEF_STEREO_COUNT>  (1) 
1

>  <PUBCHEM_BOND_DEF_STEREO_COUNT>  (1) 
0

>  <PUBCHEM_BOND_UDEF_STEREO_COUNT>  (1) 
0

>  <PUBCHEM_ISOTOPIC_ATOM_COUNT>  (1) 
0

>  <PUBCHEM_COMPONENT_COUNT>  (1) 
1

>  <PUBCHEM_CACTVS_TAUTO_COUNT>  (1) 
9

>  <PUBCHEM_CONFORMER_ID>  (1) 
000009FD00000001

>  <PUBCHEM_MMFF94_ENERGY>  (1) 
54.1087

>  <PUBCHEM_FEATURE_SELFOVERLAP>  (1) 
45.813

>  <PUBCHEM_SHAPE_FINGERPRINT>  (1) 
10967382 1 18409452518078152024
11471102 20 18335419097144486324
116883 192 18196089941434588037
12236239 1 17988933284097731251
12553582 1 18341889701636112847
13140716 1 18121498218140050128
13380535 76 18334017228825835658
13760787 5 18410013238874987779
14251717 144 18410854369412456774
14576447 43 18200020880462034607
14993402 34 18201440319496940727
15375358 24 18113337543632228106
16945 1 18335434477723112328
18186145 218 17385724656279667563
200 152 18412543193402488880
20281475 54 18201434749214624971
20645477 70 18335421261660693835
21267235 1 18338245885805442794
21501502 16 18266183829359726440
21501925 9 18335411319296375786
21637258 2 16128381441624888468
221357 26 18262783122153574149
2334 1 17688882247087585808
23402539 116 18410285878782223742
23402655 69 18409444787163509981
23559900 14 18194110820773707554
25147074 1 18264500481558310064
25610 137 18408044004653972193
2748010 2 18191309269493887944
2871803 45 18408041788693317190
3060560 45 18339926012855855398
4072396 5 18115852127379255112
537710 114 18408890667436216588
57096353 35 18409738369426337308
602551 16 15410323468419062839
7164475 11 18338516313915382012
9709674 26 18336553702960951402

>  <PUBCHEM_SHAPE_MULTIPOLES>  (1) 
312.32
8.22
2.15
0.84
7.61
0.01
0.11
-1.46
1.94
-1.77
0.17
0.54
-0.1
-0.47

>  <PUBCHEM_SHAPE_SELFOVERLAP>  (1) 
671.305

>  <PUBCHEM_SHAPE_VOLUME>  (1) 
175.5

>  <PUBCHEM_COORDINATE_TYPE>  (1) 
2
5
10

$$$$
