25583
     RDKit          3D

 22 23  0  0  1  0  0  0  0  0999 V2000
    0.1778    1.4926   -0.1680 O   0  0  0  0  0  0  0  0  0  0  0  0
   -0.4259   -0.1285   -2.1094 O   0  0  0  0  0  0  0  0  0  0  0  0
    4.2462    0.1538   -0.1382 N   0  0  0  0  0  0  0  0  0  0  0  0
    3.0186    1.0359   -0.3136 C   0  0  0  0  0  0  0  0  0  0  0  0
    2.2308    1.0566    0.9852 C   0  0  0  0  0  0  0  0  0  0  0  0
    3.8098   -1.2519    0.2491 C   0  0  0  0  0  0  0  0  0  0  0  0
    5.0239    0.1015   -1.4453 C   0  0  0  0  0  0  0  0  0  0  0  0
    5.1326    0.7294    0.9568 C   0  0  0  0  0  0  0  0  0  0  0  0
    1.0129    1.9632    0.8809 C   0  0  0  0  0  0  0  0  0  0  0  0
   -1.1695    1.7034   -0.0279 C   0  0  0  0  0  0  0  0  0  0  0  0
   -2.0836    0.8186   -0.5894 C   0  0  0  0  0  0  0  0  0  0  0  0
   -1.6253   -0.3788   -1.3545 C   0  0  0  0  0  0  0  0  0  0  0  0
   -1.4204   -1.6168   -0.4898 C   0  0  0  0  0  0  0  0  0  0  0  0
   -1.6065    2.8156    0.6837 C   0  0  0  0  0  0  0  0  0  0  0  0
   -3.4510    1.0488   -0.4380 C   0  0  0  0  0  0  0  0  0  0  0  0
   -2.9739    3.0458    0.8351 C   0  0  0  0  0  0  0  0  0  0  0  0
   -3.8962    2.1624    0.2742 C   0  0  0  0  0  0  0  0  0  0  0  0
   -2.5117   -2.4026   -0.1845 C   0  0  0  0  0  0  0  0  0  0  0  0
   -0.1507   -1.9115   -0.0400 C   0  0  0  0  0  0  0  0  0  0  0  0
   -2.3244   -3.5358    0.6070 C   0  0  0  0  0  0  0  0  0  0  0  0
    0.0366   -3.0447    0.7515 C   0  0  0  0  0  0  0  0  0  0  0  0
   -1.0502   -3.8570    1.0750 C   0  0  0  0  0  0  0  0  0  0  0  0
  1  9  1  0
  1 10  1  0
  2 12  1  0
  3  4  1  0
  3  6  1  0
  3  7  1  0
  3  8  1  0
  4  5  1  0
  5  9  1  0
 10 11  2  0
 10 14  1  0
 11 12  1  0
 11 15  1  0
 12 13  1  0
 13 18  2  0
 13 19  1  0
 14 16  2  0
 15 17  2  0
 16 17  1  0
 18 20  1  0
 19 21  2  0
 20 22  2  0
 21 22  1  0
M  CHG  1   3   1
M  END
>  <PUBCHEM_COMPOUND_CID>  (1) 
25583

>  <PUBCHEM_CONFORMER_RMSD>  (1) 
0.8

>  <PUBCHEM_CONFORMER_DIVERSEORDER>  (1) 
5
32
62
16
106
28
48
89
117
99
116
119
47
98
6
104
60
100
75
15
53
26
111
85
90
81
87
112
92
91
42
101
71
95
122
72
69
41
94
31
68
84
109
86
105
14
45
78
115
23
37
54
24
83
110
11
107
51
55
39
58
9
18
102
93
88
30
20
13
36
77
73
44
27
35
103
79
43
76
57
7
19
3
74
64
70
97
50
113
63
114
67
12
22
80
59
118
34
25
21
52
46
82
49
66
40
56
33
10
2
121
17
38
108
8
96
29
61
4
1
120
65

>  <PUBCHEM_MMFF94_PARTIAL_CHARGES>  (1) 
31
1 -0.36
10 0.08
11 -0.14
12 0.57
13 -0.14
14 -0.15
15 -0.15
16 -0.15
17 -0.15
18 -0.15
19 -0.15
2 -0.68
20 -0.15
21 -0.15
22 -0.15
3 -1.01
39 0.15
4 0.5
40 0.15
41 0.15
42 0.15
43 0.15
44 0.15
45 0.4
46 0.15
47 0.15
48 0.15
6 0.5
7 0.5
8 0.5
9 0.28

>  <PUBCHEM_EFFECTIVE_ROTOR_COUNT>  (1) 
7

>  <PUBCHEM_PHARMACOPHORE_FEATURES>  (1) 
6
1 1 acceptor
1 2 acceptor
1 2 donor
1 3 cation
6 10 11 14 15 16 17 rings
6 13 18 19 20 21 22 rings

>  <PUBCHEM_HEAVY_ATOM_COUNT>  (1) 
22

>  <PUBCHEM_ATOM_DEF_STEREO_COUNT>  (1) 
0

>  <PUBCHEM_ATOM_UDEF_STEREO_COUNT>  (1) 
1

>  <PUBCHEM_BOND_DEF_STEREO_COUNT>  (1) 
0

>  <PUBCHEM_BOND_UDEF_STEREO_COUNT>  (1) 
0

>  <PUBCHEM_ISOTOPIC_ATOM_COUNT>  (1) 
0

>  <PUBCHEM_COMPONENT_COUNT>  (1) 
1

>  <PUBCHEM_CACTVS_TAUTO_COUNT>  (1) 
1

>  <PUBCHEM_CONFORMER_ID>  (1) 
000063EF00000005

>  <PUBCHEM_MMFF94_ENERGY>  (1) 
77.4357

>  <PUBCHEM_FEATURE_SELFOVERLAP>  (1) 
30.458

>  <PUBCHEM_SHAPE_FINGERPRINT>  (1) 
107951 10 18340496555757516204
1100329 8 18050565136550353330
12553582 1 17475789231028238572
12592029 89 18124037827833361681
12788726 201 18047209701823801694
13140716 1 18197216056301110417
138480 1 17041197935797075491
13941206 138 18262811644350936714
14251757 5 18265066893160211798
14363568 33 16822231874652694850
14468879 13 17917994949525544838
14787075 74 18340197502186706999
14790565 3 18195249918704237288
14866123 147 18410575080516467699
15422964 175 17618494828175827905
17859628 97 18193555558526766714
19591789 44 18266740169110306027
21279426 13 18193822959618783407
23419403 2 17196904386217690199
23557571 272 18195522817290082256
23558518 356 18270108144946397401
23559900 14 18272930502134079336
25147074 1 17482816885096440341
3117164 225 17253171112386656931
3759504 43 18408605829458064653
392239 28 18194975045672041987
404807 14 14254065715090477582
4058900 60 17903653885962285641
4073 2 18412824703904762280
43471831 8 18194680363396712505
4921388 177 18408886269679706460
5309563 4 17762901365459077706
81228 2 18126261263857240017
9709674 26 18201997763851194092

>  <PUBCHEM_SHAPE_MULTIPOLES>  (1) 
436.03
8
4.62
1.27
12.1
3.46
0.38
-3.29
0.35
-5.07
-2.05
0.37
0.06
0.01

>  <PUBCHEM_SHAPE_SELFOVERLAP>  (1) 
905.976

>  <PUBCHEM_SHAPE_VOLUME>  (1) 
250

>  <PUBCHEM_COORDINATE_TYPE>  (1) 
2
5
10

$$$$
