25588
     RDKit          3D

 15 14  0  0  1  0  0  0  0  0999 V2000
   -0.0205    2.2578   -0.8459 O   0  0  0  0  0  0  0  0  0  0  0  0
    2.6660    1.7431   -0.4872 O   0  0  0  0  0  0  0  0  0  0  0  0
   -0.9723    0.8220    1.4573 O   0  0  0  0  0  0  0  0  0  0  0  0
    3.4789   -0.2679    1.3317 O   0  0  0  0  0  0  0  0  0  0  0  0
   -1.9171   -0.6112   -1.7671 O   0  0  0  0  0  0  0  0  0  0  0  0
    3.0853   -2.5373   -0.3133 O   0  0  0  0  0  0  0  0  0  0  0  0
   -3.9155    0.3397    0.9169 O   0  0  0  0  0  0  0  0  0  0  0  0
   -3.3616   -1.7630    0.2560 O   0  0  0  0  0  0  0  0  0  0  0  0
    0.3872    0.9222   -0.5491 C   0  0  0  0  0  0  0  0  0  0  0  0
    1.7078    0.9902    0.2512 C   0  0  0  0  0  0  0  0  0  0  0  0
   -0.7525    0.1878    0.1959 C   0  0  0  0  0  0  0  0  0  0  0  0
    2.2819   -0.4087    0.5668 C   0  0  0  0  0  0  0  0  0  0  0  0
   -2.0832    0.1420   -0.5732 C   0  0  0  0  0  0  0  0  0  0  0  0
    2.5777   -1.2600   -0.6712 C   0  0  0  0  0  0  0  0  0  0  0  0
   -3.1621   -0.5567    0.2312 C   0  0  0  0  0  0  0  0  0  0  0  0
  1  9  1  0
  2 10  1  0
  3 11  1  0
  4 12  1  0
  5 13  1  0
  6 14  1  0
  7 15  1  0
  8 15  2  0
  9 10  1  0
  9 11  1  0
 10 12  1  0
 11 13  1  0
 12 14  1  0
 13 15  1  0
M  END
>  <PUBCHEM_COMPOUND_CID>  (1) 
25588

>  <PUBCHEM_CONFORMER_RMSD>  (1) 
0.6

>  <PUBCHEM_CONFORMER_DIVERSEORDER>  (1) 
1
31
16
47
24
32
12
25
2
29
44
38
13
4
45
41
9
6
46
20
34
42
37
26
11
36
21
30
10
17
27
33
23
8
28
5
43
19
14
7
22
40
15
18
3
35
39

>  <PUBCHEM_MMFF94_PARTIAL_CHARGES>  (1) 
22
1 -0.68
10 0.28
11 0.28
12 0.28
13 0.34
14 0.28
15 0.66
2 -0.68
23 0.4
24 0.4
25 0.4
26 0.4
27 0.4
28 0.4
29 0.5
3 -0.68
4 -0.68
5 -0.68
6 -0.68
7 -0.65
8 -0.57
9 0.28

>  <PUBCHEM_EFFECTIVE_ROTOR_COUNT>  (1) 
6

>  <PUBCHEM_PHARMACOPHORE_FEATURES>  (1) 
15
1 1 acceptor
1 1 donor
1 2 acceptor
1 2 donor
1 3 acceptor
1 3 donor
1 4 acceptor
1 4 donor
1 5 acceptor
1 5 donor
1 6 acceptor
1 6 donor
1 7 acceptor
1 8 acceptor
3 7 8 15 anion

>  <PUBCHEM_HEAVY_ATOM_COUNT>  (1) 
15

>  <PUBCHEM_ATOM_DEF_STEREO_COUNT>  (1) 
5

>  <PUBCHEM_ATOM_UDEF_STEREO_COUNT>  (1) 
0

>  <PUBCHEM_BOND_DEF_STEREO_COUNT>  (1) 
0

>  <PUBCHEM_BOND_UDEF_STEREO_COUNT>  (1) 
0

>  <PUBCHEM_ISOTOPIC_ATOM_COUNT>  (1) 
0

>  <PUBCHEM_COMPONENT_COUNT>  (1) 
1

>  <PUBCHEM_CACTVS_TAUTO_COUNT>  (1) 
1

>  <PUBCHEM_CONFORMER_ID>  (1) 
000063F400000001

>  <PUBCHEM_MMFF94_ENERGY>  (1) 
30.8061

>  <PUBCHEM_FEATURE_SELFOVERLAP>  (1) 
76.222

>  <PUBCHEM_SHAPE_FINGERPRINT>  (1) 
10618630 7 18410013195783013462
11769659 78 18412544340449030595
12382932 28 16630522955563340951
12932764 1 17489586809266798609
13296908 3 18040425603395345685
14252887 29 18408045117192745154
14350558 41 18410578426184701419
15279307 12 18057606670875332158
15375462 189 17845934151267803683
16945 1 18130495452685607068
18186145 218 17240198820333730197
19422 9 18342463664049217995
19766037 51 18262535696849436638
20361792 2 18260829280398514412
20645477 70 18261664956807558919
20671657 53 17676483900701477888
20871998 22 18336546015169509700
22445834 79 18131913775419555855
23557571 272 15430577541822778076
81228 2 18046330951594648468

>  <PUBCHEM_SHAPE_MULTIPOLES>  (1) 
261.74
6.28
1.93
1.19
1.74
0.29
-0.03
2.73
1.22
-1.27
-0.44
0.16
-0.05
-0.03

>  <PUBCHEM_SHAPE_SELFOVERLAP>  (1) 
505.911

>  <PUBCHEM_SHAPE_VOLUME>  (1) 
157.5

>  <PUBCHEM_COORDINATE_TYPE>  (1) 
2
5
10

$$$$
