25591
     RDKit          3D

 12 11  0  0  0  0  0  0  0  0999 V2000
    2.8020   -1.7554   -0.0429 O   0  0  0  0  0  0  0  0  0  0  0  0
   -2.9396    0.8058    1.0621 O   0  0  0  0  0  0  0  0  0  0  0  0
   -3.2451    0.1763   -1.0013 O   0  0  0  0  0  0  0  0  0  0  0  0
    0.8984   -0.6795   -0.1843 N   0  0  0  0  0  0  0  0  0  0  0  0
    1.5849   -1.8092    0.1624 N   0  0  0  0  0  0  0  0  0  0  0  0
   -1.1037   -1.7846    0.4663 N   0  0  0  0  0  0  0  0  0  0  0  0
   -1.1693    0.4976   -0.2561 N   0  0  0  0  0  0  0  0  0  0  0  0
   -2.5046    0.4832   -0.0543 N   0  0  0  0  0  0  0  0  0  0  0  0
    1.5669    0.5433   -0.6743 C   0  0  0  0  0  0  0  0  0  0  0  0
    1.9746    1.4307    0.4991 C   0  0  0  0  0  0  0  0  0  0  0  0
    2.6468    2.7081    0.0200 C   0  0  0  0  0  0  0  0  0  0  0  0
   -0.5113   -0.6164    0.0034 C   0  0  0  0  0  0  0  0  0  0  0  0
  1  5  2  0
  2  8  1  0
  3  8  2  0
  4  5  1  0
  4  9  1  0
  4 12  1  0
  6 12  1  0
  7  8  1  0
  7 12  2  0
  9 10  1  0
 10 11  1  0
M  CHG  2   2  -1   8   1
M  END
>  <PUBCHEM_COMPOUND_CID>  (1) 
25591

>  <PUBCHEM_CONFORMER_RMSD>  (1) 
0.6

>  <PUBCHEM_CONFORMER_DIVERSEORDER>  (1) 
1
81
55
82
89
88
52
72
60
12
51
70
13
38
87
16
83
33
63
36
85
74
44
7
84
17
23
86
62
41
24
68
64
27
67
39
71
14
59
78
53
19
69
45
22
73
66
48
6
34
65
77
11
31
35
54
32
79
56
49
3
46
80
61
10
4
57
37
25
29
50
30
18
40
42
75
15
43
5
2
28
76
9
58
47
26
8
20
21

>  <PUBCHEM_MMFF94_PARTIAL_CHARGES>  (1) 
11
1 -0.16
12 0.55
2 -0.52
20 0.4
21 0.4
3 -0.52
4 -0.25
6 -0.85
7 -0.5
8 1.09
9 0.37

>  <PUBCHEM_EFFECTIVE_ROTOR_COUNT>  (1) 
5

>  <PUBCHEM_PHARMACOPHORE_FEATURES>  (1) 
5
1 11 hydrophobe
1 2 acceptor
1 3 acceptor
1 6 donor
4 4 6 7 12 cation

>  <PUBCHEM_HEAVY_ATOM_COUNT>  (1) 
12

>  <PUBCHEM_ATOM_DEF_STEREO_COUNT>  (1) 
0

>  <PUBCHEM_ATOM_UDEF_STEREO_COUNT>  (1) 
0

>  <PUBCHEM_BOND_DEF_STEREO_COUNT>  (1) 
0

>  <PUBCHEM_BOND_UDEF_STEREO_COUNT>  (1) 
1

>  <PUBCHEM_ISOTOPIC_ATOM_COUNT>  (1) 
0

>  <PUBCHEM_COMPONENT_COUNT>  (1) 
1

>  <PUBCHEM_CACTVS_TAUTO_COUNT>  (1) 
2

>  <PUBCHEM_CONFORMER_ID>  (1) 
000063F700000001

>  <PUBCHEM_MMFF94_ENERGY>  (1) 
30.6792

>  <PUBCHEM_FEATURE_SELFOVERLAP>  (1) 
25.459

>  <PUBCHEM_SHAPE_FINGERPRINT>  (1) 
10857977 72 16950576492795017881
12932764 1 18336555940807250061
13380535 21 18263660595991702926
13380535 76 18264760129131212746
14648413 74 18409169926320429610
14897335 6 18339352080148760012
20671657 1 18412829105386520788
20715346 28 17821732736594110333
21501502 16 18340204201592065362
21524375 3 18126560352489329380
230 275 18343580776257943648
2748010 2 18262810686356880494
305870 269 18264765648528282416
3248919 1 17274821316469330469
5084963 1 18199737068864592667
7364860 26 18413671314123947638

>  <PUBCHEM_SHAPE_MULTIPOLES>  (1) 
204.44
4.81
2.35
0.8
1.83
0.29
0
-2.33
-0.05
-2.23
0.27
0.33
-0.16
0.06

>  <PUBCHEM_SHAPE_SELFOVERLAP>  (1) 
386.865

>  <PUBCHEM_SHAPE_VOLUME>  (1) 
126.6

>  <PUBCHEM_COORDINATE_TYPE>  (1) 
2
5
10

$$$$
