25593
     RDKit          3D

 14 13  0  0  0  0  0  0  0  0999 V2000
    0.6704   -3.1833    0.0144 O   0  0  0  0  0  0  0  0  0  0  0  0
   -2.7414    2.1175    1.0204 O   0  0  0  0  0  0  0  0  0  0  0  0
   -3.5293    1.5780   -0.9382 O   0  0  0  0  0  0  0  0  0  0  0  0
   -0.3648   -1.2621   -0.1993 N   0  0  0  0  0  0  0  0  0  0  0  0
   -0.3683   -2.5654    0.2708 N   0  0  0  0  0  0  0  0  0  0  0  0
   -2.6012   -1.0912    0.6738 N   0  0  0  0  0  0  0  0  0  0  0  0
   -1.5318    0.8084   -0.3175 N   0  0  0  0  0  0  0  0  0  0  0  0
   -2.6502    1.5220   -0.0643 N   0  0  0  0  0  0  0  0  0  0  0  0
    1.7480   -0.0959    0.1879 C   0  0  0  0  0  0  0  0  0  0  0  0
    2.9910    0.5314   -0.4511 C   0  0  0  0  0  0  0  0  0  0  0  0
    0.7664   -0.6418   -0.8457 C   0  0  0  0  0  0  0  0  0  0  0  0
    3.9448    1.0767    0.6123 C   0  0  0  0  0  0  0  0  0  0  0  0
    5.1996    1.6646   -0.0135 C   0  0  0  0  0  0  0  0  0  0  0  0
   -1.5330   -0.4590    0.0502 C   0  0  0  0  0  0  0  0  0  0  0  0
  1  5  2  0
  2  8  1  0
  3  8  2  0
  4  5  1  0
  4 11  1  0
  4 14  1  0
  6 14  1  0
  7  8  1  0
  7 14  2  0
  9 10  1  0
  9 11  1  0
 10 12  1  0
 12 13  1  0
M  CHG  2   2  -1   8   1
M  END
>  <PUBCHEM_COMPOUND_CID>  (1) 
25593

>  <PUBCHEM_CONFORMER_RMSD>  (1) 
0.8

>  <PUBCHEM_CONFORMER_DIVERSEORDER>  (1) 
1
11
14
51
53
111
70
117
123
92
120
119
30
71
64
98
2
39
62
112
54
101
8
121
52
59
86
115
69
50
96
90
18
46
100
113
74
48
109
26
17
102
24
84
77
31
104
81
82
12
47
76
7
23
43
61
55
25
49
87
58
122
32
116
60
63
99
85
89
38
110
80
27
91
34
19
108
114
36
37
44
56
78
118
106
15
72
29
21
95
9
79
94
103
105
93
66
6
88
16
83
4
57
20
35
22
124
33
42
67
28
75
73
107
3
41
45
65
68
10
13
5
97
40

>  <PUBCHEM_MMFF94_PARTIAL_CHARGES>  (1) 
11
1 -0.16
11 0.37
14 0.55
2 -0.52
26 0.4
27 0.4
3 -0.52
4 -0.25
6 -0.85
7 -0.5
8 1.09

>  <PUBCHEM_EFFECTIVE_ROTOR_COUNT>  (1) 
7

>  <PUBCHEM_PHARMACOPHORE_FEATURES>  (1) 
5
1 13 hydrophobe
1 2 acceptor
1 3 acceptor
1 6 donor
4 4 6 7 14 cation

>  <PUBCHEM_HEAVY_ATOM_COUNT>  (1) 
14

>  <PUBCHEM_ATOM_DEF_STEREO_COUNT>  (1) 
0

>  <PUBCHEM_ATOM_UDEF_STEREO_COUNT>  (1) 
0

>  <PUBCHEM_BOND_DEF_STEREO_COUNT>  (1) 
0

>  <PUBCHEM_BOND_UDEF_STEREO_COUNT>  (1) 
1

>  <PUBCHEM_ISOTOPIC_ATOM_COUNT>  (1) 
0

>  <PUBCHEM_COMPONENT_COUNT>  (1) 
1

>  <PUBCHEM_CACTVS_TAUTO_COUNT>  (1) 
2

>  <PUBCHEM_CONFORMER_ID>  (1) 
000063F900000001

>  <PUBCHEM_MMFF94_ENERGY>  (1) 
31.2349

>  <PUBCHEM_FEATURE_SELFOVERLAP>  (1) 
25.459

>  <PUBCHEM_SHAPE_FINGERPRINT>  (1) 
11357001 24 17972040502891049562
12500047 106 18340200899605882712
13618510 140 18412543176333655768
14123255 52 18409163294922754804
15042514 8 18048042066518097018
1741750 31 18411981386364003552
17834072 32 18411138065088206764
18186145 218 18201453445333702572
20112054 60 18413110588715912580
20510252 161 18342182214462353786
20645477 56 18268718371397375224
20671657 1 18123473773841125911
21499 59 18338226085837221525
21524375 3 18271516520772939596
21650355 55 17832426775596459746
23402539 116 18196927983959331655
23500284 214 18341337733840454920
2748010 2 18264225646147481855
305870 269 18336263457782205050
3071541 12 18124600773491769742
7364860 26 18051974723130833502

>  <PUBCHEM_SHAPE_MULTIPOLES>  (1) 
245.6
7.59
2.75
0.83
8.69
1.66
0.01
-6.61
-0.45
-1.67
-0.28
-0.18
-0.19
0.29

>  <PUBCHEM_SHAPE_SELFOVERLAP>  (1) 
462.477

>  <PUBCHEM_SHAPE_VOLUME>  (1) 
151.6

>  <PUBCHEM_COORDINATE_TYPE>  (1) 
2
5
10

$$$$
