25595
     RDKit          3D

 24 25  0  0  0  0  0  0  0  0999 V2000
   -4.9823    2.1755    1.4551 Cl  0  0  0  0  0  0  0  0  0  0  0  0
   -8.7900   -1.5491    0.6815 Cl  0  0  0  0  0  0  0  0  0  0  0  0
   -0.8010    1.6047   -1.2751 O   0  0  0  0  0  0  0  0  0  0  0  0
    4.2519   -2.0893   -0.0981 O   0  0  0  0  0  0  0  0  0  0  0  0
   -2.4412    0.2816   -0.3030 N   0  0  0  0  0  0  0  0  0  0  0  0
    2.2080   -0.4894    0.8600 N   0  0  0  0  0  0  0  0  0  0  0  0
    3.5101   -0.0404    0.6991 N   0  0  0  0  0  0  0  0  0  0  0  0
    8.3954    0.6466   -0.1470 N   0  0  0  0  0  0  0  0  0  0  0  0
   -0.1459   -0.1174    0.2965 C   0  0  0  0  0  0  0  0  0  0  0  0
    1.2953    0.3259    0.0682 C   0  0  0  0  0  0  0  0  0  0  0  0
   -3.5623    0.9033   -0.9663 C   0  0  0  0  0  0  0  0  0  0  0  0
   -4.8716    0.3119   -0.5300 C   0  0  0  0  0  0  0  0  0  0  0  0
   -1.1349    0.6953   -0.5204 C   0  0  0  0  0  0  0  0  0  0  0  0
   -5.5754    0.8286    0.5532 C   0  0  0  0  0  0  0  0  0  0  0  0
   -5.3692   -0.7755   -1.2416 C   0  0  0  0  0  0  0  0  0  0  0  0
   -6.7890    0.2525    0.9287 C   0  0  0  0  0  0  0  0  0  0  0  0
   -6.5828   -1.3517   -0.8662 C   0  0  0  0  0  0  0  0  0  0  0  0
   -7.2926   -0.8377    0.2189 C   0  0  0  0  0  0  0  0  0  0  0  0
    4.4616   -0.9192    0.2122 C   0  0  0  0  0  0  0  0  0  0  0  0
    5.8375   -0.3715    0.0868 C   0  0  0  0  0  0  0  0  0  0  0  0
    6.9063   -1.2324    0.1647 C   0  0  0  0  0  0  0  0  0  0  0  0
    6.0012    0.9798   -0.1039 C   0  0  0  0  0  0  0  0  0  0  0  0
    8.1678   -0.6727    0.0415 C   0  0  0  0  0  0  0  0  0  0  0  0
    7.3033    1.4405   -0.2150 C   0  0  0  0  0  0  0  0  0  0  0  0
  1 14  1  0
  2 18  1  0
  3 13  2  0
  4 19  2  0
  5 11  1  0
  5 13  1  0
  6  7  1  0
  6 10  1  0
  7 19  1  0
  8 23  2  0
  8 24  1  0
  9 10  1  0
  9 13  1  0
 11 12  1  0
 12 14  2  0
 12 15  1  0
 14 16  1  0
 15 17  2  0
 16 18  2  0
 17 18  1  0
 19 20  1  0
 20 21  2  0
 20 22  1  0
 21 23  1  0
 22 24  2  0
M  END
>  <PUBCHEM_COMPOUND_CID>  (1) 
25595

>  <PUBCHEM_CONFORMER_RMSD>  (1) 
1

>  <PUBCHEM_CONFORMER_DIVERSEORDER>  (1) 
1
56
9
280
91
18
239
75
235
8
31
115
59
173
27
230
77
218
119
269
72
128
90
124
142
177
122
256
104
60
20
171
168
189
243
67
231
46
155
88
161
150
192
30
23
252
135
264
15
237
13
267
85
3
25
210
98
203
28
113
24
107
49
21
100
82
221
186
39
156
16
164
79
138
2
242
185
190
247
223
136
76
188
48
44
206
144
105
238
137
197
151
121
205
78
208
86
222
129
181
143
266
96
19
66
159
240
80
123
272
180
213
141
47
283
166
57
130
64
165
32
253
74
275
83
106
5
35
38
147
70
220
145
73
69
209
127
4
55
178
148
111
40
33
257
140
184
36
53
274
95
26
232
54
12
191
234
51
110
6
179
152
37
246
263
101
71
125
63
204
262
132
268
62
158
146
207
224
216
17
61
65
254
241
108
284
278
265
273
251
200
170
99
167
118
183
229
193
195
14
215
52
11
244
89
84
226
219
126
271
175
103
201
259
212
198
87
29
58
10
174
109
112
276
202
153
217
94
133
285
281
169
22
279
102
45
93
120
34
255
50
250
261
7
194
236
270
163
260
139
225
92
116
131
233
228
117
176
282
160
81
41
249
258
214
149
43
199
187
182
227
162
134
157
245
154
97
196
211
277
42
68
172
114
248

>  <PUBCHEM_MMFF94_PARTIAL_CHARGES>  (1) 
34
1 -0.18
10 0.27
11 0.44
12 -0.14
13 0.57
14 0.18
15 -0.15
16 -0.15
17 -0.15
18 0.18
19 0.54
2 -0.18
20 0.09
21 -0.15
22 -0.15
23 0.16
24 0.16
3 -0.57
31 0.37
32 0.36
33 0.15
34 0.37
35 0.15
36 0.15
37 0.15
38 0.15
39 0.15
4 -0.57
40 0.15
5 -0.73
6 -0.64
7 -0.42
8 -0.62
9 0.06

>  <PUBCHEM_EFFECTIVE_ROTOR_COUNT>  (1) 
9

>  <PUBCHEM_PHARMACOPHORE_FEATURES>  (1) 
8
1 3 acceptor
1 4 acceptor
1 5 donor
1 6 donor
1 7 donor
1 8 acceptor
6 12 14 15 16 17 18 rings
6 8 20 21 22 23 24 rings

>  <PUBCHEM_HEAVY_ATOM_COUNT>  (1) 
24

>  <PUBCHEM_ATOM_DEF_STEREO_COUNT>  (1) 
0

>  <PUBCHEM_ATOM_UDEF_STEREO_COUNT>  (1) 
0

>  <PUBCHEM_BOND_DEF_STEREO_COUNT>  (1) 
0

>  <PUBCHEM_BOND_UDEF_STEREO_COUNT>  (1) 
0

>  <PUBCHEM_ISOTOPIC_ATOM_COUNT>  (1) 
0

>  <PUBCHEM_COMPONENT_COUNT>  (1) 
1

>  <PUBCHEM_CACTVS_TAUTO_COUNT>  (1) 
6

>  <PUBCHEM_CONFORMER_ID>  (1) 
000063FB00000001

>  <PUBCHEM_MMFF94_ENERGY>  (1) 
48.505

>  <PUBCHEM_FEATURE_SELFOVERLAP>  (1) 
42.082

>  <PUBCHEM_SHAPE_FINGERPRINT>  (1) 
10 15 17561367266898859407
10299344 5 18273494576545869558
11135609 99 18115876372886826707
11315181 36 18410855452651550745
11719270 70 13767922412768170752
11724838 91 17967252005714426356
12082328 90 18273215270638263755
12091667 2 17676205741497665589
13914758 101 8646775503676893902
13968360 50 13767919105147506840
14123256 10 17022619775759250923
14251764 18 18272650155741841487
14251764 46 18412545418992139611
14347424 109 9655571904030770950
14671636 106 18338797939896618299
14849402 71 18342459300115409208
14856354 85 17775562074796691023
14933364 13 18060699481083231992
15183329 4 17132106918654449321
15419008 47 16081080494047068708
15716309 27 18412261727406070407
17780758 139 18272370859358067505
18335252 98 18335139786821126658
20621476 8 11671787065517184163
21049683 271 18334295400725561948
21095086 128 18409448081340291290
21150785 3 18335420179360252530
21267235 1 18259984890529682269
21315763 28 18334573513121862612
21365058 27 18202845461341372839
21403212 168 10447932763331781828
220451 1 17418085512177750190
22224240 67 17530683212797761762
232437 2 18342739607915237822
23424782 7 18187082862639371782
23516275 137 17773618064492525471
246663 6 18412263943393112191
28498 318 10952056654265080320
335507 130 18272932734704476038
34797466 226 18343304769581521340
3663271 9 18343022142598695643
4325135 7 18334856130269665550
4938544 92 18268429041321905069
5385378 56 13901918786543137893
54039377 194 18262519308230395375
59682541 35 18260550051705504442
5969126 39 17240758463505498637
6394761 36 11383834874655729592
67123 10 18408041827395417634

>  <PUBCHEM_SHAPE_MULTIPOLES>  (1) 
465.99
31.26
1.69
1.05
18.05
0.16
-0.05
-6.8
3.14
-0.93
0.18
-1.58
0.2
-1.11

>  <PUBCHEM_SHAPE_SELFOVERLAP>  (1) 
958.88

>  <PUBCHEM_SHAPE_VOLUME>  (1) 
267.5

>  <PUBCHEM_COORDINATE_TYPE>  (1) 
2
5
10

$$$$
