2560
     RDKit          3D

 26 28  0  0  1  0  0  0  0  0999 V2000
    2.5465    0.2074    2.1658 S   0  0  0  0  0  0  0  0  0  0  0  0
    2.3502    2.3160   -1.6882 O   0  0  0  0  0  0  0  0  0  0  0  0
    3.7066   -1.1039   -2.1546 O   0  0  0  0  0  0  0  0  0  0  0  0
    5.7940   -0.9890   -1.2460 O   0  0  0  0  0  0  0  0  0  0  0  0
   -1.5744    0.8447    1.6255 O   0  0  0  0  0  0  0  0  0  0  0  0
   -4.9975    1.8277   -0.9066 O   0  0  0  0  0  0  0  0  0  0  0  0
   -3.7812    2.7804    0.7507 O   0  0  0  0  0  0  0  0  0  0  0  0
    2.5204    0.3297   -0.4245 N   0  0  0  0  0  0  0  0  0  0  0  0
   -0.4740    1.2475   -0.3780 N   0  0  0  0  0  0  0  0  0  0  0  0
    1.5367    0.1243    0.6431 C   0  0  0  0  0  0  0  0  0  0  0  0
    4.0164   -0.5046    1.2724 C   0  0  0  0  0  0  0  0  0  0  0  0
    3.9284    0.1121   -0.1414 C   0  0  0  0  0  0  0  0  0  0  0  0
    0.8660    1.4276    0.1885 C   0  0  0  0  0  0  0  0  0  0  0  0
    1.9824    1.5023   -0.8713 C   0  0  0  0  0  0  0  0  0  0  0  0
    5.2947   -0.0763    1.9957 C   0  0  0  0  0  0  0  0  0  0  0  0
    3.8861   -2.0345    1.2965 C   0  0  0  0  0  0  0  0  0  0  0  0
    4.6041   -0.7122   -1.2174 C   0  0  0  0  0  0  0  0  0  0  0  0
   -1.5965    0.9670    0.4022 C   0  0  0  0  0  0  0  0  0  0  0  0
   -2.8797    0.8290   -0.4150 C   0  0  0  0  0  0  0  0  0  0  0  0
   -3.4533   -0.5718   -0.2666 C   0  0  0  0  0  0  0  0  0  0  0  0
   -3.9066    1.9078   -0.0986 C   0  0  0  0  0  0  0  0  0  0  0  0
   -3.0594   -1.5526   -1.1545 C   0  0  0  0  0  0  0  0  0  0  0  0
   -4.3514   -0.8215    0.7515 C   0  0  0  0  0  0  0  0  0  0  0  0
   -3.5858   -2.8372   -1.0188 C   0  0  0  0  0  0  0  0  0  0  0  0
   -4.8777   -2.1061    0.8874 C   0  0  0  0  0  0  0  0  0  0  0  0
   -4.4949   -3.1139    0.0022 C   0  0  0  0  0  0  0  0  0  0  0  0
  1 10  1  0
  1 11  1  0
  2 14  2  0
  3 17  1  0
  4 17  2  0
  5 18  2  0
  6 21  1  0
  7 21  2  0
  8 10  1  0
  8 12  1  0
  8 14  1  0
  9 13  1  0
  9 18  1  0
 10 13  1  0
 11 12  1  0
 11 15  1  0
 11 16  1  0
 12 17  1  0
 13 14  1  0
 18 19  1  0
 19 20  1  0
 19 21  1  0
 20 22  2  0
 20 23  1  0
 22 24  1  0
 23 25  2  0
 24 26  2  0
 25 26  1  0
M  END
>  <PUBCHEM_COMPOUND_CID>  (1) 
2560

>  <PUBCHEM_CONFORMER_RMSD>  (1) 
0.8

>  <PUBCHEM_CONFORMER_DIVERSEORDER>  (1) 
2
358
288
39
90
122
179
311
223
126
294
308
351
252
370
344
348
70
361
272
309
363
220
208
41
87
377
241
194
354
175
18
189
44
116
211
312
103
267
325
328
160
345
55
37
335
180
346
332
298
259
202
107
242
108
109
7
316
329
72
260
356
376
281
132
365
245
292
192
193
341
300
342
162
148
135
243
319
307
374
9
139
265
274
209
352
257
82
58
350
95
330
31
26
364
262
186
200
161
184
372
212
81
337
6
287
333
339
347
195
24
157
282
77
280
8
112
373
40
190
264
168
302
217
366
85
113
53
249
340
375
182
232
47
125
336
73
310
270
79
315
142
206
96
286
271
349
359
61
224
313
69
155
303
20
131
306
327
196
276
10
141
304
134
14
228
191
266
362
230
91
124
277
21
222
105
130
29
15
275
1
75
84
283
50
115
68
295
317
66
171
289
198
247
258
261
156
78
299
149
164
45
296
251
150
27
201
123
159
120
127
238
151
4
152
323
59
285
235
54
221
181
174
305
33
188
278
210
244
111
279
213
250
49
284
236
38
147
320
371
246
237
314
355
343
99
204
318
144
368
322
167
35
110
321
367
5
255
71
268
173
129
83
11
324
357
30
136
57
80
118
163
93
28
240
22
64
301
42
353
291
158
290
233
219
293
199
56
183
331
88
25
143
256
51
218
145
3
106
297
205
137
60
34
119
89
12
360
52
101
63
254
225
36
165
23
65
133
170
104
48
369
97
138
326
62
216
338
102
86
185
140
74
92
46
263
32
128
114
154
187
197
273
67
177
227
239
117
229
176
153
43
146
231
178
166
13
121
98
19
207
203
16
76
172
17
169
214
226
234
334
94
253
248
215
269
100

>  <PUBCHEM_MMFF94_PARTIAL_CHARGES>  (1) 
32
1 -0.45
10 0.44
11 0.23
12 0.36
13 0.28
14 0.58
17 0.66
18 0.57
19 0.27
2 -0.57
20 -0.14
21 0.66
22 -0.15
23 -0.15
24 -0.15
25 -0.15
26 -0.15
3 -0.65
36 0.37
38 0.5
39 0.15
4 -0.57
40 0.15
41 0.15
42 0.15
43 0.5
44 0.15
5 -0.57
6 -0.65
7 -0.57
8 -0.59
9 -0.65

>  <PUBCHEM_EFFECTIVE_ROTOR_COUNT>  (1) 
6.8

>  <PUBCHEM_PHARMACOPHORE_FEATURES>  (1) 
14
1 19 anion
1 2 acceptor
1 3 acceptor
1 4 acceptor
1 5 acceptor
1 6 acceptor
1 7 acceptor
1 9 donor
3 11 15 16 hydrophobe
3 3 4 17 anion
3 6 7 21 anion
4 8 10 13 14 rings
6 20 22 23 24 25 26 rings
7 1 8 10 11 12 13 14 rings

>  <PUBCHEM_HEAVY_ATOM_COUNT>  (1) 
26

>  <PUBCHEM_ATOM_DEF_STEREO_COUNT>  (1) 
0

>  <PUBCHEM_ATOM_UDEF_STEREO_COUNT>  (1) 
4

>  <PUBCHEM_BOND_DEF_STEREO_COUNT>  (1) 
0

>  <PUBCHEM_BOND_UDEF_STEREO_COUNT>  (1) 
0

>  <PUBCHEM_ISOTOPIC_ATOM_COUNT>  (1) 
0

>  <PUBCHEM_COMPONENT_COUNT>  (1) 
1

>  <PUBCHEM_CACTVS_TAUTO_COUNT>  (1) 
2

>  <PUBCHEM_CONFORMER_ID>  (1) 
00000A0000000002

>  <PUBCHEM_MMFF94_ENERGY>  (1) 
68.1826

>  <PUBCHEM_FEATURE_SELFOVERLAP>  (1) 
75.148

>  <PUBCHEM_SHAPE_FINGERPRINT>  (1) 
11135609 12 18200611253327914519
11370993 144 16988850475193512723
11405975 8 18410007745738995185
11545043 162 18059857255302689714
11796584 16 18343021047661622626
12616971 3 17023180475207812312
12714826 92 18272372022951378569
13167823 11 18335424598881626069
13583140 156 17274808182048135840
13675066 3 17917990581195469268
14251751 18 18340479049465724955
14347332 77 18187361069478422491
15250474 111 18260541260097918699
15537594 2 18114754736800496562
17349148 13 18040991869163707850
17492 89 18339928228610749551
193927 3 18337674229979653747
20626108 58 18260536849329626776
20739085 24 14117802440375173298
21033648 144 13191780600414436582
22393880 68 18260547831255047436
23559900 14 17989204828762400456
3004659 81 18335422421465114887
3052486 1 18409451371343489934
312423 11 18187935035674960949
3383291 50 18343295977857741239
44062 13 18408038498985660983
497634 4 15791745104889071513
508706 21 18343582941201341559
5104073 3 18411417345194036233
5281201 14 13768213765995165838
559249 180 18261099730864037193

>  <PUBCHEM_SHAPE_MULTIPOLES>  (1) 
493.74
13.38
2.88
1.8
1.69
0.45
-0.11
5.75
-0.08
-4.41
0.42
2.41
0.24
-0.39

>  <PUBCHEM_SHAPE_SELFOVERLAP>  (1) 
1041.729

>  <PUBCHEM_SHAPE_VOLUME>  (1) 
279.3

>  <PUBCHEM_COORDINATE_TYPE>  (1) 
2
5
10

$$$$
