25604
     RDKit          3D

 10  9  0  0  0  0  0  0  0  0999 V2000
    3.0977   -0.6437    0.0070 O   0  0  0  0  0  0  0  0  0  0  0  0
    1.9711    1.3689    0.0040 O   0  0  0  0  0  0  0  0  0  0  0  0
   -3.3997    0.2350    1.1708 O   0  0  0  0  0  0  0  0  0  0  0  0
   -3.4665    0.4089   -1.0245 O   0  0  0  0  0  0  0  0  0  0  0  0
   -2.9686   -0.0170    0.0322 N   0  0  0  0  0  0  0  0  0  0  0  0
   -0.5520    0.0496   -0.0765 C   0  0  0  0  0  0  0  0  0  0  0  0
    0.7582   -0.7367   -0.1121 C   0  0  0  0  0  0  0  0  0  0  0  0
   -1.7682   -0.8641   -0.0744 C   0  0  0  0  0  0  0  0  0  0  0  0
    1.9842    0.1463   -0.0369 C   0  0  0  0  0  0  0  0  0  0  0  0
    4.3439    0.0528    0.1103 C   0  0  0  0  0  0  0  0  0  0  0  0
  1  9  1  0
  1 10  1  0
  2  9  2  0
  3  5  1  0
  4  5  2  0
  5  8  1  0
  6  7  1  0
  6  8  1  0
  7  9  1  0
M  CHG  2   3  -1   5   1
M  END
>  <PUBCHEM_COMPOUND_CID>  (1) 
25604

>  <PUBCHEM_CONFORMER_RMSD>  (1) 
0.6

>  <PUBCHEM_CONFORMER_DIVERSEORDER>  (1) 
2
33
26
39
46
28
23
32
6
17
13
16
31
24
40
22
25
7
49
10
47
20
19
18
3
45
44
5
37
11
8
35
30
38
27
12
1
29
41
9
48
43
4
42
34
36
21
14
15

>  <PUBCHEM_MMFF94_PARTIAL_CHARGES>  (1) 
9
1 -0.43
10 0.28
2 -0.57
3 -0.52
4 -0.52
5 0.8
7 0.06
8 0.24
9 0.66

>  <PUBCHEM_EFFECTIVE_ROTOR_COUNT>  (1) 
5

>  <PUBCHEM_PHARMACOPHORE_FEATURES>  (1) 
4
1 2 acceptor
1 3 acceptor
1 3 anion
1 4 acceptor

>  <PUBCHEM_HEAVY_ATOM_COUNT>  (1) 
10

>  <PUBCHEM_ATOM_DEF_STEREO_COUNT>  (1) 
0

>  <PUBCHEM_ATOM_UDEF_STEREO_COUNT>  (1) 
0

>  <PUBCHEM_BOND_DEF_STEREO_COUNT>  (1) 
0

>  <PUBCHEM_BOND_UDEF_STEREO_COUNT>  (1) 
0

>  <PUBCHEM_ISOTOPIC_ATOM_COUNT>  (1) 
0

>  <PUBCHEM_COMPONENT_COUNT>  (1) 
1

>  <PUBCHEM_CACTVS_TAUTO_COUNT>  (1) 
2

>  <PUBCHEM_CONFORMER_ID>  (1) 
0000640400000002

>  <PUBCHEM_MMFF94_ENERGY>  (1) 
8.9601

>  <PUBCHEM_FEATURE_SELFOVERLAP>  (1) 
20.377

>  <PUBCHEM_SHAPE_FINGERPRINT>  (1) 
10219947 1 18343582928300134126
11062470 55 16559032688208621418
124424 183 18040990730802084542
12932764 1 17749379395034005442
14325111 11 18338797922046283958
18342897 14 18334857212564571992
190213 19 18202001036083322110
20645464 45 18259991465919124347
20645477 70 18189606160078996406
22485316 2 15791726408432156282
23402539 116 15267058117048208288
3248919 1 17775291581392141583

>  <PUBCHEM_SHAPE_MULTIPOLES>  (1) 
177.34
7.51
0.92
0.77
1.09
0.07
0.04
0.66
0.33
0.25
-0.02
-0.66
0.06
0.01

>  <PUBCHEM_SHAPE_SELFOVERLAP>  (1) 
330.002

>  <PUBCHEM_SHAPE_VOLUME>  (1) 
111.7

>  <PUBCHEM_COORDINATE_TYPE>  (1) 
2
5
10

$$$$
