25646
     RDKit          3D

 23 24  0  0  0  0  0  0  0  0999 V2000
    2.5282   -1.7915   -0.0214 N   0  0  0  0  0  0  0  0  0  0  0  0
   -2.4466   -1.7897    0.0289 N   0  0  0  0  0  0  0  0  0  0  0  0
    1.3066   -1.1065   -0.6169 C   0  0  0  0  0  0  0  0  0  0  0  0
   -1.2773   -1.0965   -0.5602 C   0  0  0  0  0  0  0  0  0  0  0  0
    0.0234   -1.7304   -0.0787 C   0  0  0  0  0  0  0  0  0  0  0  0
    3.7913   -1.1532   -0.5810 C   0  0  0  0  0  0  0  0  0  0  0  0
   -3.7598   -1.2103   -0.5176 C   0  0  0  0  0  0  0  0  0  0  0  0
    2.5054   -3.2704   -0.3801 C   0  0  0  0  0  0  0  0  0  0  0  0
    2.5092   -1.6364    1.4925 C   0  0  0  0  0  0  0  0  0  0  0  0
   -2.4603   -1.6380    1.5572 C   0  0  0  0  0  0  0  0  0  0  0  0
   -2.4167   -3.2899   -0.2992 C   0  0  0  0  0  0  0  0  0  0  0  0
    3.8960    0.3114   -0.2725 C   0  0  0  0  0  0  0  0  0  0  0  0
   -3.9071    0.2598   -0.2571 C   0  0  0  0  0  0  0  0  0  0  0  0
    3.3600    1.2414   -1.1565 C   0  0  0  0  0  0  0  0  0  0  0  0
   -4.5190    0.6940    0.9136 C   0  0  0  0  0  0  0  0  0  0  0  0
    4.5284    0.7260    0.8943 C   0  0  0  0  0  0  0  0  0  0  0  0
   -3.4309    1.1755   -1.1889 C   0  0  0  0  0  0  0  0  0  0  0  0
    3.4576    2.6031   -0.8700 C   0  0  0  0  0  0  0  0  0  0  0  0
   -4.6564    2.0608    1.1557 C   0  0  0  0  0  0  0  0  0  0  0  0
    4.6261    2.0876    1.1809 C   0  0  0  0  0  0  0  0  0  0  0  0
   -3.5681    2.5424   -0.9469 C   0  0  0  0  0  0  0  0  0  0  0  0
    4.0907    3.0261    0.2986 C   0  0  0  0  0  0  0  0  0  0  0  0
   -4.1809    2.9850    0.2254 C   0  0  0  0  0  0  0  0  0  0  0  0
  1  3  1  0
  1  6  1  0
  1  8  1  0
  1  9  1  0
  2  4  1  0
  2  7  1  0
  2 10  1  0
  2 11  1  0
  3  5  1  0
  4  5  1  0
  6 12  1  0
  7 13  1  0
 12 14  2  0
 12 16  1  0
 13 15  2  0
 13 17  1  0
 14 18  1  0
 15 19  1  0
 16 20  2  0
 17 21  2  0
 18 22  2  0
 19 23  2  0
 20 22  1  0
 21 23  1  0
M  CHG  2   1   1   2   1
M  END
>  <PUBCHEM_COMPOUND_CID>  (1) 
25646

>  <PUBCHEM_CONFORMER_RMSD>  (1) 
0.8

>  <PUBCHEM_CONFORMER_DIVERSEORDER>  (1) 
21
32
34
13
22
31
17
15
28
40
1
10
16
18
33
11
29
14
8
5
19
4
39
9
6
25
2
30
23
37
38
7
24
36
3
27
26
12
35
20

>  <PUBCHEM_MMFF94_PARTIAL_CHARGES>  (1) 
32
1 -1.01
10 0.5
11 0.5
12 -0.14
13 -0.14
14 -0.15
15 -0.15
16 -0.15
17 -0.15
18 -0.15
19 -0.15
2 -1.01
20 -0.15
21 -0.15
22 -0.15
23 -0.15
3 0.5
4 0.5
46 0.15
47 0.15
48 0.15
49 0.15
50 0.15
51 0.15
52 0.15
53 0.15
54 0.15
55 0.15
6 0.65
7 0.65
8 0.5
9 0.5

>  <PUBCHEM_EFFECTIVE_ROTOR_COUNT>  (1) 
8

>  <PUBCHEM_PHARMACOPHORE_FEATURES>  (1) 
4
1 1 cation
1 2 cation
6 12 14 16 18 20 22 rings
6 13 15 17 19 21 23 rings

>  <PUBCHEM_HEAVY_ATOM_COUNT>  (1) 
23

>  <PUBCHEM_ATOM_DEF_STEREO_COUNT>  (1) 
0

>  <PUBCHEM_ATOM_UDEF_STEREO_COUNT>  (1) 
0

>  <PUBCHEM_BOND_DEF_STEREO_COUNT>  (1) 
0

>  <PUBCHEM_BOND_UDEF_STEREO_COUNT>  (1) 
0

>  <PUBCHEM_ISOTOPIC_ATOM_COUNT>  (1) 
0

>  <PUBCHEM_COMPONENT_COUNT>  (1) 
1

>  <PUBCHEM_CACTVS_TAUTO_COUNT>  (1) 
1

>  <PUBCHEM_CONFORMER_ID>  (1) 
0000642E00000015

>  <PUBCHEM_MMFF94_ENERGY>  (1) 
89.321

>  <PUBCHEM_FEATURE_SELFOVERLAP>  (1) 
20.297

>  <PUBCHEM_SHAPE_FINGERPRINT>  (1) 
10670039 82 18191318276167168852
10928967 22 8357965727779049513
11405975 8 18335701628873575794
11595378 159 16371006269615177044
12422481 6 18116689877998969304
12633257 1 17023175076655421544
12925494 130 17976542707224455721
12978246 48 18263363766491565692
13398642 44 17825128118368819421
13583140 156 17096078079033913543
14251757 17 17916864745803210272
14251764 38 18336546122407061808
14347329 18 18191314969211395644
14466204 15 18339352080698029544
14848178 96 18412259523687200224
14950920 106 17167858647380745401
16760501 71 18411428297840493609
17834072 32 18339643318034683229
17844677 252 18413114948076361919
17868525 174 18119523246322664250
20715895 44 18268987587968048961
21033648 29 17531803537705302765
21315764 268 18263081024926198949
21388113 180 17772172361721230112
21458453 9 18045537229496719257
21623110 236 18410856560410442709
21860390 5 17985548845088635646
21864079 5 18410569557293532639
23559900 14 18129100013775191030
245318 6 17389674308031672420
3459 39 17843381115987254344
469060 322 17975715088173162835
4742675 86 18192121958499538908
5104073 3 18334295348927056659
57724786 102 18057896753140395211
7970288 3 8501561899638997600
79837 15 18116153453273360466

>  <PUBCHEM_SHAPE_MULTIPOLES>  (1) 
463.37
12.25
4.34
1.29
0.31
0.11
-0.28
8.76
-1.59
-0.1
0.09
0.02
0.21
0.14

>  <PUBCHEM_SHAPE_SELFOVERLAP>  (1) 
946.845

>  <PUBCHEM_SHAPE_VOLUME>  (1) 
268.3

>  <PUBCHEM_COORDINATE_TYPE>  (1) 
2
5
10

$$$$
