25644
     RDKit          3D

 16 15  0  0  0  0  0  0  0  0999 V2000
   -4.2908    0.3960   -0.0156 O   0  0  0  0  0  0  0  0  0  0  0  0
    4.2910   -0.3960   -0.0153 O   0  0  0  0  0  0  0  0  0  0  0  0
   -5.6926   -1.4399    0.0541 O   0  0  0  0  0  0  0  0  0  0  0  0
    5.6924    1.4401    0.0539 O   0  0  0  0  0  0  0  0  0  0  0  0
   -0.6274   -0.4376   -0.0385 C   0  0  0  0  0  0  0  0  0  0  0  0
    0.6274    0.4370   -0.0381 C   0  0  0  0  0  0  0  0  0  0  0  0
   -1.8967    0.4113   -0.0556 C   0  0  0  0  0  0  0  0  0  0  0  0
    1.8967   -0.4118   -0.0549 C   0  0  0  0  0  0  0  0  0  0  0  0
   -3.1501   -0.4512   -0.0130 C   0  0  0  0  0  0  0  0  0  0  0  0
    3.1501    0.4510   -0.0126 C   0  0  0  0  0  0  0  0  0  0  0  0
   -5.5006   -0.2347    0.0204 C   0  0  0  0  0  0  0  0  0  0  0  0
    5.5006    0.2349    0.0204 C   0  0  0  0  0  0  0  0  0  0  0  0
   -6.5560    0.7993    0.0096 C   0  0  0  0  0  0  0  0  0  0  0  0
    6.5561   -0.7990    0.0096 C   0  0  0  0  0  0  0  0  0  0  0  0
   -7.8432    0.4420    0.0379 C   0  0  0  0  0  0  0  0  0  0  0  0
    7.8431   -0.4416    0.0376 C   0  0  0  0  0  0  0  0  0  0  0  0
  1  9  1  0
  1 11  1  0
  2 10  1  0
  2 12  1  0
  3 11  2  0
  4 12  2  0
  5  6  1  0
  5  7  1  0
  6  8  1  0
  7  9  1  0
  8 10  1  0
 11 13  1  0
 12 14  1  0
 13 15  2  0
 14 16  2  0
M  END
>  <PUBCHEM_COMPOUND_CID>  (1) 
25644

>  <PUBCHEM_CONFORMER_RMSD>  (1) 
1

>  <PUBCHEM_CONFORMER_DIVERSEORDER>  (1) 
1
16
32
11
7
2
22
28
24
47
18
12
45
48
21
31
17
34
13
38
23
43
46
25
20
42
10
40
5
36
44
29
33
15
6
41
26
30
3
27
14
9
19
37
39
35
8
4

>  <PUBCHEM_MMFF94_PARTIAL_CHARGES>  (1) 
18
1 -0.43
10 0.28
11 0.71
12 0.71
13 -0.14
14 -0.14
15 -0.3
16 -0.3
2 -0.43
29 0.15
3 -0.57
30 0.15
31 0.15
32 0.15
33 0.15
34 0.15
4 -0.57
9 0.28

>  <PUBCHEM_EFFECTIVE_ROTOR_COUNT>  (1) 
11

>  <PUBCHEM_PHARMACOPHORE_FEATURES>  (1) 
5
1 15 hydrophobe
1 16 hydrophobe
1 3 acceptor
1 4 acceptor
4 5 6 7 8 hydrophobe

>  <PUBCHEM_HEAVY_ATOM_COUNT>  (1) 
16

>  <PUBCHEM_ATOM_DEF_STEREO_COUNT>  (1) 
0

>  <PUBCHEM_ATOM_UDEF_STEREO_COUNT>  (1) 
0

>  <PUBCHEM_BOND_DEF_STEREO_COUNT>  (1) 
0

>  <PUBCHEM_BOND_UDEF_STEREO_COUNT>  (1) 
0

>  <PUBCHEM_ISOTOPIC_ATOM_COUNT>  (1) 
0

>  <PUBCHEM_COMPONENT_COUNT>  (1) 
1

>  <PUBCHEM_CACTVS_TAUTO_COUNT>  (1) 
1

>  <PUBCHEM_CONFORMER_ID>  (1) 
0000642C00000001

>  <PUBCHEM_MMFF94_ENERGY>  (1) 
18.4542

>  <PUBCHEM_FEATURE_SELFOVERLAP>  (1) 
25.373

>  <PUBCHEM_SHAPE_FINGERPRINT>  (1) 
11315181 36 18131073749258472521
12091667 2 17167861959522904493
13533116 47 17168132404934000578
14123256 10 18411138021736879691
14251764 46 18131632279495425422
14933364 13 18408603664625553973
15716309 27 18412544323179367351
17834076 25 18411418410086864362
18006028 8 17275102825479050353
20281389 69 18408882936395077896
20621476 8 17967811630946442085
21315763 28 18412262839428268017
220451 1 15936404559040400122
22224240 67 14692566615829360220
23035841 295 18187363233619713322
23402539 116 18411978083687107879
23521765 1 18341894086539083791
28498 318 18341612582009402662
33532 11 18261108535800935762
33684 2 18413670202101821325
42788 4 18410855469034639988
4463277 17 18410292519092028013
57583515 80 18408605864228785587
59567204 34 17917151581980976265
59755656 520 17967809474831454131
8209 1 18410855455833194501

>  <PUBCHEM_SHAPE_MULTIPOLES>  (1) 
305.8
25.49
1
0.59
0
0
0
0
-0.58
0
-0.01
0
0
0.03

>  <PUBCHEM_SHAPE_SELFOVERLAP>  (1) 
579.42

>  <PUBCHEM_SHAPE_VOLUME>  (1) 
187.6

>  <PUBCHEM_COORDINATE_TYPE>  (1) 
2
5
10

$$$$
