25643
     RDKit          3D

 21 20  0  0  0  0  0  0  0  0999 V2000
    9.5007    1.0518    0.5595 O   0  0  0  0  0  0  0  0  0  0  0  0
    7.9977    2.1272   -0.8242 O   0  0  0  0  0  0  0  0  0  0  0  0
    3.5590   -0.5117   -0.3214 C   0  0  0  0  0  0  0  0  0  0  0  0
    2.5320   -1.5582    0.1205 C   0  0  0  0  0  0  0  0  0  0  0  0
    4.9520   -0.7392    0.2712 C   0  0  0  0  0  0  0  0  0  0  0  0
    1.1332   -1.3169   -0.4527 C   0  0  0  0  0  0  0  0  0  0  0  0
    5.9336    0.3413   -0.1941 C   0  0  0  0  0  0  0  0  0  0  0  0
    0.1467   -2.3835    0.0295 C   0  0  0  0  0  0  0  0  0  0  0  0
   -8.0430    0.4350   -0.2090 C   0  0  0  0  0  0  0  0  0  0  0  0
   -6.6674    0.1533    0.4041 C   0  0  0  0  0  0  0  0  0  0  0  0
   -8.6338    1.7814    0.2232 C   0  0  0  0  0  0  0  0  0  0  0  0
    7.3265    0.1597    0.4021 C   0  0  0  0  0  0  0  0  0  0  0  0
   -6.0773   -1.1950   -0.0240 C   0  0  0  0  0  0  0  0  0  0  0  0
  -10.0171    2.1108   -0.3432 C   0  0  0  0  0  0  0  0  0  0  0  0
   -1.2329   -2.1301   -0.5071 C   0  0  0  0  0  0  0  0  0  0  0  0
   -4.6963   -1.4366    0.5167 C   0  0  0  0  0  0  0  0  0  0  0  0
  -10.5808    3.4314    0.1574 C   0  0  0  0  0  0  0  0  0  0  0  0
    8.2897    1.2333   -0.0403 C   0  0  0  0  0  0  0  0  0  0  0  0
   -2.3024   -1.9030    0.2698 C   0  0  0  0  0  0  0  0  0  0  0  0
   -3.6258   -1.6638   -0.2592 C   0  0  0  0  0  0  0  0  0  0  0  0
   10.5056    2.0130    0.2214 C   0  0  0  0  0  0  0  0  0  0  0  0
  1 18  1  0
  1 21  1  0
  2 18  2  0
  3  4  1  0
  3  5  1  0
  4  6  1  0
  5  7  1  0
  6  8  1  0
  7 12  1  0
  8 15  1  0
  9 10  1  0
  9 11  1  0
 10 13  1  0
 11 14  1  0
 12 18  1  0
 13 16  1  0
 14 17  1  0
 15 19  2  0
 16 20  2  0
 19 20  1  0
M  END
>  <PUBCHEM_COMPOUND_CID>  (1) 
25643

>  <PUBCHEM_CONFORMER_RMSD>  (1) 
1.4

>  <PUBCHEM_CONFORMER_DIVERSEORDER>  (1) 
1
70
54
9
41
43
37
36
56
40
2
26
67
27
79
17
5
42
75
69
57
29
92
77
19
66
95
46
7
89
93
32
34
72
86
59
55
39
10
23
58
49
83
35
78
12
85
63
30
14
97
3
62
25
22
81
74
71
51
64
61
82
50
31
68
52
91
65
33
96
44
24
20
11
18
48
87
28
73
60
76
21
4
94
16
47
45
84
80
53
38
90
88
8
15
13
6

>  <PUBCHEM_MMFF94_PARTIAL_CHARGES>  (1) 
15
1 -0.43
12 0.06
13 0.14
15 -0.29
16 -0.29
18 0.66
19 -0.15
2 -0.57
20 -0.15
21 0.28
46 0.15
47 0.15
51 0.15
52 0.15
8 0.14

>  <PUBCHEM_EFFECTIVE_ROTOR_COUNT>  (1) 
15

>  <PUBCHEM_PHARMACOPHORE_FEATURES>  (1) 
4
1 17 hydrophobe
1 2 acceptor
3 10 13 16 hydrophobe
3 9 11 14 hydrophobe

>  <PUBCHEM_HEAVY_ATOM_COUNT>  (1) 
21

>  <PUBCHEM_ATOM_DEF_STEREO_COUNT>  (1) 
0

>  <PUBCHEM_ATOM_UDEF_STEREO_COUNT>  (1) 
0

>  <PUBCHEM_BOND_DEF_STEREO_COUNT>  (1) 
0

>  <PUBCHEM_BOND_UDEF_STEREO_COUNT>  (1) 
2

>  <PUBCHEM_ISOTOPIC_ATOM_COUNT>  (1) 
0

>  <PUBCHEM_COMPONENT_COUNT>  (1) 
1

>  <PUBCHEM_CACTVS_TAUTO_COUNT>  (1) 
1

>  <PUBCHEM_CONFORMER_ID>  (1) 
0000642B00000001

>  <PUBCHEM_MMFF94_ENERGY>  (1) 
5.3948

>  <PUBCHEM_FEATURE_SELFOVERLAP>  (1) 
20.308

>  <PUBCHEM_SHAPE_FINGERPRINT>  (1) 
10429389 143 18410856543251263457
11386260 185 15195278768425169970
11607047 141 18042682807159696066
11828042 75 11599421652029163677
12539745 222 11530474524756369903
13165054 27 18337665310303863005
13530399 1 18188215415905101332
13553643 46 17967246516325080684
14251920 17 18411135824248810829
14729087 3 18413390955422502691
155225 1 18413107260632885131
15690457 1 9799422118399230006
16087824 20 18411419496819832392
1768 4 18340778049354200937
1818759 1 10881393228112618530
2026 5 9727636099085402893
20721686 146 18342740706303233727
20771845 65 10809352134891883479
21130971 5 12396570794642940776
21130990 3 9655283849127252421
21130991 4 10231756669476465925
21267235 1 8718830885680687222
21362267 313 18410568497750043802
21585482 111 18411419505667989545
23523788 1 12757429402608916715
23524908 199 17846506894728160918
246663 6 11602811411742524338
306946 40 16845563259009046074
3711267 37 18339374031722017289
54039377 194 9511458927361620211
5719381 82 8646768898323309905
57828716 42 18409165547042020727
57828716 72 18113891626356677725
59848396 5 12108087604464904545
636775 72 18409167680849436933
636775 8 9583520923635596379
9953998 17 16877941680574743267
9980921 7 18335416860627055597

>  <PUBCHEM_SHAPE_MULTIPOLES>  (1) 
420.43
44.51
3.27
0.73
3.67
1.49
-0.01
56.19
1.91
-5.21
-0.1
0.13
0.01
-0.05

>  <PUBCHEM_SHAPE_SELFOVERLAP>  (1) 
776.522

>  <PUBCHEM_SHAPE_VOLUME>  (1) 
264.6

>  <PUBCHEM_COORDINATE_TYPE>  (1) 
2
5
10

$$$$
