25657
     RDKit          3D

  7  6  0  0  0  0  0  0  0  0999 V2000
    0.5373    1.6176    0.0005 O   0  0  0  0  0  0  0  0  0  0  0  0
   -1.8997    0.1609    0.0001 C   0  0  0  0  0  0  0  0  0  0  0  0
   -3.1840   -0.6015    0.0008 C   0  0  0  0  0  0  0  0  0  0  0  0
   -0.6954   -0.4253   -0.0012 C   0  0  0  0  0  0  0  0  0  0  0  0
    0.5442    0.3931   -0.0007 C   0  0  0  0  0  0  0  0  0  0  0  0
    1.8190   -0.2903   -0.0003 C   0  0  0  0  0  0  0  0  0  0  0  0
    2.8786   -0.8547    0.0009 C   0  0  0  0  0  0  0  0  0  0  0  0
  1  5  2  0
  2  3  1  0
  2  4  2  0
  4  5  1  0
  5  6  1  0
  6  7  3  0
M  END
>  <PUBCHEM_COMPOUND_CID>  (1) 
25657

>  <PUBCHEM_CONFORMER_RMSD>  (1) 
0.4

>  <PUBCHEM_CONFORMER_DIVERSEORDER>  (1) 
1
2

>  <PUBCHEM_MMFF94_PARTIAL_CHARGES>  (1) 
10
1 -0.57
12 0.15
13 0.18
2 -0.29
3 0.14
4 -0.14
5 0.66
6 -0.1
7 -0.18
8 0.15

>  <PUBCHEM_EFFECTIVE_ROTOR_COUNT>  (1) 
1

>  <PUBCHEM_PHARMACOPHORE_FEATURES>  (1) 
3
1 1 acceptor
1 3 hydrophobe
1 7 hydrophobe

>  <PUBCHEM_HEAVY_ATOM_COUNT>  (1) 
7

>  <PUBCHEM_ATOM_DEF_STEREO_COUNT>  (1) 
0

>  <PUBCHEM_ATOM_UDEF_STEREO_COUNT>  (1) 
0

>  <PUBCHEM_BOND_DEF_STEREO_COUNT>  (1) 
0

>  <PUBCHEM_BOND_UDEF_STEREO_COUNT>  (1) 
1

>  <PUBCHEM_ISOTOPIC_ATOM_COUNT>  (1) 
0

>  <PUBCHEM_COMPONENT_COUNT>  (1) 
1

>  <PUBCHEM_CACTVS_TAUTO_COUNT>  (1) 
3

>  <PUBCHEM_CONFORMER_ID>  (1) 
0000643900000001

>  <PUBCHEM_MMFF94_ENERGY>  (1) 
3.5142

>  <PUBCHEM_FEATURE_SELFOVERLAP>  (1) 
15.223

>  <PUBCHEM_SHAPE_FINGERPRINT>  (1) 
12932741 1 17386285523184493275
14390081 3 8286203842349856999
23552423 10 17971199118887284106
23552449 11 18201153342709458232
29004967 10 18411138030543163602
5460574 1 9223230745326331715

>  <PUBCHEM_SHAPE_MULTIPOLES>  (1) 
138.19
4.52
1.11
0.6
1.08
0.37
0
-1.76
0
-0.26
0
0.01
-0.02
0

>  <PUBCHEM_SHAPE_SELFOVERLAP>  (1) 
257.246

>  <PUBCHEM_SHAPE_VOLUME>  (1) 
85.9

>  <PUBCHEM_COORDINATE_TYPE>  (1) 
2
5
10

$$$$
