25667
     RDKit          3D

 12 13  0  0  1  0  0  0  0  0999 V2000
   -2.4907    0.4382    0.3365 C   0  0  0  0  0  0  0  0  0  0  0  0
   -2.4756   -0.9268   -0.3577 C   0  0  0  0  0  0  0  0  0  0  0  0
   -1.2558    1.2483   -0.0857 C   0  0  0  0  0  0  0  0  0  0  0  0
   -1.2509   -1.7331    0.0721 C   0  0  0  0  0  0  0  0  0  0  0  0
    0.0302    0.4619   -0.0151 C   0  0  0  0  0  0  0  0  0  0  0  0
    0.0325   -0.9442    0.0186 C   0  0  0  0  0  0  0  0  0  0  0  0
   -3.7725    1.2023    0.0119 C   0  0  0  0  0  0  0  0  0  0  0  0
    1.2519    1.1519   -0.0422 C   0  0  0  0  0  0  0  0  0  0  0  0
    1.2559   -1.6303    0.0615 C   0  0  0  0  0  0  0  0  0  0  0  0
    2.4611    0.4580   -0.0098 C   0  0  0  0  0  0  0  0  0  0  0  0
    2.4630   -0.9325    0.0445 C   0  0  0  0  0  0  0  0  0  0  0  0
    3.7510    1.2061   -0.0346 C   0  0  0  0  0  0  0  0  0  0  0  0
  1  2  1  0
  1  3  1  0
  1  7  1  0
  2  4  1  0
  3  5  1  0
  4  6  1  0
  5  6  2  0
  5  8  1  0
  6  9  1  0
  8 10  2  0
  9 11  2  0
 10 11  1  0
 10 12  1  0
M  END
>  <PUBCHEM_COMPOUND_CID>  (1) 
25667

>  <PUBCHEM_CONFORMER_RMSD>  (1) 
0.4

>  <PUBCHEM_CONFORMER_DIVERSEORDER>  (1) 
1
3
2

>  <PUBCHEM_MMFF94_PARTIAL_CHARGES>  (1) 
12
10 -0.14
11 -0.15
12 0.14
23 0.15
24 0.15
25 0.15
3 0.14
4 0.14
5 -0.14
6 -0.14
8 -0.15
9 -0.15

>  <PUBCHEM_EFFECTIVE_ROTOR_COUNT>  (1) 
0.8

>  <PUBCHEM_PHARMACOPHORE_FEATURES>  (1) 
2
6 1 2 3 4 5 6 rings
6 5 6 8 9 10 11 rings

>  <PUBCHEM_HEAVY_ATOM_COUNT>  (1) 
12

>  <PUBCHEM_ATOM_DEF_STEREO_COUNT>  (1) 
0

>  <PUBCHEM_ATOM_UDEF_STEREO_COUNT>  (1) 
1

>  <PUBCHEM_BOND_DEF_STEREO_COUNT>  (1) 
0

>  <PUBCHEM_BOND_UDEF_STEREO_COUNT>  (1) 
0

>  <PUBCHEM_ISOTOPIC_ATOM_COUNT>  (1) 
0

>  <PUBCHEM_COMPONENT_COUNT>  (1) 
1

>  <PUBCHEM_CACTVS_TAUTO_COUNT>  (1) 
1

>  <PUBCHEM_CONFORMER_ID>  (1) 
0000644300000001

>  <PUBCHEM_MMFF94_ENERGY>  (1) 
24.6569

>  <PUBCHEM_FEATURE_SELFOVERLAP>  (1) 
10.17

>  <PUBCHEM_SHAPE_FINGERPRINT>  (1) 
10608611 8 18411134744693027304
10967382 1 18338517443380543201
10980938 120 18409730616862421329
11132069 177 18411695504513645720
11471102 20 18338231570610646117
11543360 7 15769484426057753869
12382932 28 18411419518199028473
12491281 212 18342186548142436249
12932764 1 17531241716948302398
13380535 21 18411147934569085902
13380535 76 18410854364969841898
13897977 150 18411133649592274957
14144814 61 18410292506016994825
14325111 11 18410856559661050993
14897335 6 18412258436975759997
15219456 202 18411426102373512386
15536298 74 18343302539965999486
15775835 57 18411422808196847889
16945 1 18408886264920385566
17844478 74 17895485743302641669
18186145 218 18341899528421169853
20645477 70 18340765923422204159
20871998 184 18129387166756345095
21501502 16 18411131441905322702
23235685 24 18410287016911770280
23402539 116 18272081730285600396
23402655 69 18270388413775406365
23463225 33 18334852797406698578
23552423 10 18334295378928257174
23559900 14 18272937155075487060
2748010 2 18410863165315627030
3312278 4 18341054102657955041
528886 8 18411132549964375410
53812653 166 18343016718276787152
63268167 104 18412547582843215353
6333449 129 18341328993433918055
7364860 26 18270399369999770094

>  <PUBCHEM_SHAPE_MULTIPOLES>  (1) 
246.95
5.54
1.84
0.64
0.14
0.4
0
-2.23
-0.02
0.05
0
0.05
0.01
-0.12

>  <PUBCHEM_SHAPE_SELFOVERLAP>  (1) 
517.802

>  <PUBCHEM_SHAPE_VOLUME>  (1) 
135.5

>  <PUBCHEM_COORDINATE_TYPE>  (1) 
2
5
10

$$$$
