25678
     RDKit          3D

 12 12  0  0  0  0  0  0  0  0999 V2000
    1.4453   -2.3286   -0.7633 S   0  0  0  0  0  0  0  0  0  0  0  0
    3.5602   -0.6029    0.4465 S   0  0  0  0  0  0  0  0  0  0  0  0
    0.9903    0.2718   -0.2002 N   0  0  0  0  0  0  0  0  0  0  0  0
    1.5004    1.6636   -0.3813 C   0  0  0  0  0  0  0  0  0  0  0  0
   -0.3849    0.0692   -0.0803 C   0  0  0  0  0  0  0  0  0  0  0  0
    1.0837    2.5609    0.7657 C   0  0  0  0  0  0  0  0  0  0  0  0
   -0.8701   -0.9667    0.7181 C   0  0  0  0  0  0  0  0  0  0  0  0
   -1.2747    0.9028   -0.7577 C   0  0  0  0  0  0  0  0  0  0  0  0
    1.9788   -0.7653   -0.1101 C   0  0  0  0  0  0  0  0  0  0  0  0
   -2.2448   -1.1693    0.8386 C   0  0  0  0  0  0  0  0  0  0  0  0
   -2.6496    0.7002   -0.6371 C   0  0  0  0  0  0  0  0  0  0  0  0
   -3.1346   -0.3358    0.1612 C   0  0  0  0  0  0  0  0  0  0  0  0
  1  9  1  0
  2  9  2  0
  3  4  1  0
  3  5  1  0
  3  9  1  0
  4  6  1  0
  5  7  2  0
  5  8  1  0
  7 10  1  0
  8 11  2  0
 10 12  2  0
 11 12  1  0
M  END
>  <PUBCHEM_COMPOUND_CID>  (1) 
25678

>  <PUBCHEM_CONFORMER_RMSD>  (1) 
0.6

>  <PUBCHEM_CONFORMER_DIVERSEORDER>  (1) 
1
7
10
9
4
8
2
3
11
6
5

>  <PUBCHEM_MMFF94_PARTIAL_CHARGES>  (1) 
17
1 -0.32
10 -0.15
11 -0.15
12 -0.15
18 0.15
19 0.15
2 -0.38
20 0.15
21 0.15
22 0.15
23 0.18
3 -0.48
4 0.3
5 0.12
7 -0.15
8 -0.15
9 0.58

>  <PUBCHEM_EFFECTIVE_ROTOR_COUNT>  (1) 
3

>  <PUBCHEM_PHARMACOPHORE_FEATURES>  (1) 
3
1 2 acceptor
3 1 2 9 anion
6 5 7 8 10 11 12 rings

>  <PUBCHEM_HEAVY_ATOM_COUNT>  (1) 
12

>  <PUBCHEM_ATOM_DEF_STEREO_COUNT>  (1) 
0

>  <PUBCHEM_ATOM_UDEF_STEREO_COUNT>  (1) 
0

>  <PUBCHEM_BOND_DEF_STEREO_COUNT>  (1) 
0

>  <PUBCHEM_BOND_UDEF_STEREO_COUNT>  (1) 
0

>  <PUBCHEM_ISOTOPIC_ATOM_COUNT>  (1) 
0

>  <PUBCHEM_COMPONENT_COUNT>  (1) 
1

>  <PUBCHEM_CACTVS_TAUTO_COUNT>  (1) 
1

>  <PUBCHEM_CONFORMER_ID>  (1) 
0000644E00000001

>  <PUBCHEM_MMFF94_ENERGY>  (1) 
52.6892

>  <PUBCHEM_FEATURE_SELFOVERLAP>  (1) 
15.223

>  <PUBCHEM_SHAPE_FINGERPRINT>  (1) 
10219947 1 18272646836112014038
10465860 250 18188478095850768226
12326174 3 17845670234159655876
12382932 28 18338797789039461066
124424 183 18041268890254148202
12524768 44 18261395597986077775
12932764 1 18197228146522901941
14648413 74 18335700572021308033
15219456 202 18262234533594785425
15490181 7 17691971878988051228
16945 1 18413114952428851279
17841504 4 18411418440167713216
17990270 104 18409452470512031182
20201158 50 18336827502604172702
20511035 2 18117281569387959030
20588541 1 18335138639900880214
20645477 70 18338232773634434503
20711985 344 17621052958021139086
20871998 184 17326056651068049209
21061003 4 18343869892044446114
21501502 16 18262805184566772413
22721475 48 18334303045397225895
23526113 38 18048856525423741125
23552423 10 17603873359293302615
2748010 2 18189899905755471199
5084963 1 17894631469806745781
5255222 1 17907302405066845004
53812653 166 18115018602722588153
5493415 88 18334857233886421346
7364860 26 18340488975298714696
81228 2 17907305351525290480

>  <PUBCHEM_SHAPE_MULTIPOLES>  (1) 
249.67
4.75
2.31
0.95
0.05
0.68
0.02
-1.07
0.38
1.23
0.04
-0.11
-0.06
0.67

>  <PUBCHEM_SHAPE_SELFOVERLAP>  (1) 
486.003

>  <PUBCHEM_SHAPE_VOLUME>  (1) 
151.6

>  <PUBCHEM_COORDINATE_TYPE>  (1) 
2
5
10

$$$$
