25685
     RDKit          3D

 13 13  0  0  1  0  0  0  0  0999 V2000
    2.4769   -2.2171    0.1196 O   0  0  0  0  0  0  0  0  0  0  0  0
    0.4061   -2.4980   -0.7572 O   0  0  0  0  0  0  0  0  0  0  0  0
    2.6628    2.9396   -0.0910 N   0  0  0  0  0  0  0  0  0  0  0  0
    0.9068   -0.4312    0.4377 C   0  0  0  0  0  0  0  0  0  0  0  0
    1.8763    0.6164   -0.1487 C   0  0  0  0  0  0  0  0  0  0  0  0
   -0.5591   -0.0808    0.2147 C   0  0  0  0  0  0  0  0  0  0  0  0
    1.7156    1.9968    0.4952 C   0  0  0  0  0  0  0  0  0  0  0  0
    1.2082   -1.8081   -0.1402 C   0  0  0  0  0  0  0  0  0  0  0  0
   -0.9169    0.5784   -0.9426 C   0  0  0  0  0  0  0  0  0  0  0  0
   -1.4816   -0.4343    1.1769 C   0  0  0  0  0  0  0  0  0  0  0  0
   -2.2589    0.8991   -1.1471 C   0  0  0  0  0  0  0  0  0  0  0  0
   -2.8238   -0.1137    0.9724 C   0  0  0  0  0  0  0  0  0  0  0  0
   -3.2123    0.5530   -0.1897 C   0  0  0  0  0  0  0  0  0  0  0  0
  1  8  1  0
  2  8  2  0
  3  7  1  0
  4  5  1  0
  4  6  1  0
  4  8  1  0
  5  7  1  0
  6  9  2  0
  6 10  1  0
  9 11  1  0
 10 12  2  0
 11 13  2  0
 12 13  1  0
M  END
>  <PUBCHEM_COMPOUND_CID>  (1) 
25685

>  <PUBCHEM_CONFORMER_RMSD>  (1) 
0.6

>  <PUBCHEM_CONFORMER_DIVERSEORDER>  (1) 
1
22
24
11
16
13
2
26
4
18
14
21
15
7
5
9
20
25
8
6
23
17
3
19
12
10

>  <PUBCHEM_MMFF94_PARTIAL_CHARGES>  (1) 
20
1 -0.65
10 -0.15
11 -0.15
12 -0.15
13 -0.15
19 0.15
2 -0.57
20 0.15
21 0.15
22 0.15
23 0.36
24 0.36
25 0.15
26 0.5
3 -0.99
4 0.2
6 -0.14
7 0.27
8 0.66
9 -0.15

>  <PUBCHEM_EFFECTIVE_ROTOR_COUNT>  (1) 
4

>  <PUBCHEM_PHARMACOPHORE_FEATURES>  (1) 
6
1 1 acceptor
1 2 acceptor
1 3 cation
1 3 donor
3 1 2 8 anion
6 6 9 10 11 12 13 rings

>  <PUBCHEM_HEAVY_ATOM_COUNT>  (1) 
13

>  <PUBCHEM_ATOM_DEF_STEREO_COUNT>  (1) 
0

>  <PUBCHEM_ATOM_UDEF_STEREO_COUNT>  (1) 
1

>  <PUBCHEM_BOND_DEF_STEREO_COUNT>  (1) 
0

>  <PUBCHEM_BOND_UDEF_STEREO_COUNT>  (1) 
0

>  <PUBCHEM_ISOTOPIC_ATOM_COUNT>  (1) 
0

>  <PUBCHEM_COMPONENT_COUNT>  (1) 
1

>  <PUBCHEM_CACTVS_TAUTO_COUNT>  (1) 
1

>  <PUBCHEM_CONFORMER_ID>  (1) 
0000645500000001

>  <PUBCHEM_MMFF94_ENERGY>  (1) 
25.4553

>  <PUBCHEM_FEATURE_SELFOVERLAP>  (1) 
30.505

>  <PUBCHEM_SHAPE_FINGERPRINT>  (1) 
1 1 18410293648668232108
10465860 250 17825657855788085186
10857977 72 17095811009488446009
12138202 78 18336262349390446925
12326174 3 18059304175184101772
12524768 44 18187081733078810205
12759256 9 18342174410607243778
14648413 74 18263919956229558569
15219456 202 18260269624853762065
15490181 7 18266463298565435358
16945 1 18340207392931835019
17841504 4 18265053539711171827
18380122 1 18041850639442805169
20201158 50 18046347435747468243
20379382 53 18269012919916957377
20871998 184 17756715491449484641
21061003 4 18124040030919384610
21524375 3 18192708075706702352
21947302 44 18261945280601152393
23211744 41 18041274465089900761
2748010 2 18263091074564102582
4663303 62 18409168796432787724
58734987 86 18267870480122719290
7364860 26 18411418388696599300

>  <PUBCHEM_SHAPE_MULTIPOLES>  (1) 
250.81
4.3
2.56
1.05
1.4
0.03
-0.01
1.45
-0.21
-3.14
0.28
0.6
0.01
0.52

>  <PUBCHEM_SHAPE_SELFOVERLAP>  (1) 
513.287

>  <PUBCHEM_SHAPE_VOLUME>  (1) 
144.1

>  <PUBCHEM_COORDINATE_TYPE>  (1) 
2
5
10

$$$$
