25693
     RDKit          3D

 21 21  0  0  0  0  0  0  0  0999 V2000
   -1.7733    0.9933   -0.8732 O   0  0  0  0  0  0  0  0  0  0  0  0
    3.7387   -2.2479    0.8640 O   0  0  0  0  0  0  0  0  0  0  0  0
    4.9261    1.5829    0.0392 O   0  0  0  0  0  0  0  0  0  0  0  0
    5.6164   -0.5940   -0.2497 O   0  0  0  0  0  0  0  0  0  0  0  0
   -4.2925    0.1554    0.0703 N   0  0  0  0  0  0  0  0  0  0  0  0
   -0.7980   -0.9535    0.0102 N   0  0  0  0  0  0  0  0  0  0  0  0
   -3.9723    0.9492    1.3287 C   0  0  0  0  0  0  0  0  0  0  0  0
   -5.6008   -0.5976    0.2644 C   0  0  0  0  0  0  0  0  0  0  0  0
   -3.1715   -0.8372   -0.2020 C   0  0  0  0  0  0  0  0  0  0  0  0
   -4.4253    1.1070   -1.1099 C   0  0  0  0  0  0  0  0  0  0  0  0
   -5.0899    1.9341    1.5943 C   0  0  0  0  0  0  0  0  0  0  0  0
   -5.9134   -1.3846   -0.9894 C   0  0  0  0  0  0  0  0  0  0  0  0
   -1.8465   -0.1370   -0.4027 C   0  0  0  0  0  0  0  0  0  0  0  0
    0.5860   -0.6595   -0.0169 C   0  0  0  0  0  0  0  0  0  0  0  0
    1.4886   -1.6053    0.4398 C   0  0  0  0  0  0  0  0  0  0  0  0
    1.0079    0.5681   -0.4992 C   0  0  0  0  0  0  0  0  0  0  0  0
    2.8527   -1.3152    0.4133 C   0  0  0  0  0  0  0  0  0  0  0  0
    2.3720    0.8583   -0.5256 C   0  0  0  0  0  0  0  0  0  0  0  0
    3.2944   -0.0833   -0.0693 C   0  0  0  0  0  0  0  0  0  0  0  0
    4.7138    0.2397   -0.1053 C   0  0  0  0  0  0  0  0  0  0  0  0
    6.2869    2.0272    0.0189 C   0  0  0  0  0  0  0  0  0  0  0  0
  1 13  2  0
  2 17  1  0
  3 20  1  0
  3 21  1  0
  4 20  2  0
  5  7  1  0
  5  8  1  0
  5  9  1  0
  5 10  1  0
  6 13  1  0
  6 14  1  0
  7 11  1  0
  8 12  1  0
  9 13  1  0
 14 15  2  0
 14 16  1  0
 15 17  1  0
 16 18  2  0
 17 19  2  0
 18 19  1  0
 19 20  1  0
M  CHG  1   5   1
M  END
>  <PUBCHEM_COMPOUND_CID>  (1) 
25693

>  <PUBCHEM_CONFORMER_RMSD>  (1) 
0.8

>  <PUBCHEM_CONFORMER_DIVERSEORDER>  (1) 
1
30
16
38
13
43
33
22
35
31
23
29
12
15
27
21
4
40
3
34
20
25
5
24
14
19
39
41
17
11
18
2
28
10
37
7
32
26
36
8
42
9
6

>  <PUBCHEM_MMFF94_PARTIAL_CHARGES>  (1) 
24
1 -0.57
10 0.5
13 0.57
14 0.12
15 -0.15
16 -0.15
17 0.08
18 -0.15
19 0.09
2 -0.53
20 0.63
21 0.28
3 -0.43
37 0.37
38 0.15
39 0.15
4 -0.57
40 0.15
41 0.45
5 -1.01
6 -0.55
7 0.5
8 0.5
9 0.56

>  <PUBCHEM_EFFECTIVE_ROTOR_COUNT>  (1) 
8

>  <PUBCHEM_PHARMACOPHORE_FEATURES>  (1) 
6
1 1 acceptor
1 2 donor
1 4 acceptor
1 5 cation
1 6 donor
6 14 15 16 17 18 19 rings

>  <PUBCHEM_HEAVY_ATOM_COUNT>  (1) 
21

>  <PUBCHEM_ATOM_DEF_STEREO_COUNT>  (1) 
0

>  <PUBCHEM_ATOM_UDEF_STEREO_COUNT>  (1) 
0

>  <PUBCHEM_BOND_DEF_STEREO_COUNT>  (1) 
0

>  <PUBCHEM_BOND_UDEF_STEREO_COUNT>  (1) 
0

>  <PUBCHEM_ISOTOPIC_ATOM_COUNT>  (1) 
0

>  <PUBCHEM_COMPONENT_COUNT>  (1) 
1

>  <PUBCHEM_CACTVS_TAUTO_COUNT>  (1) 
17

>  <PUBCHEM_CONFORMER_ID>  (1) 
0000645D00000001

>  <PUBCHEM_MMFF94_ENERGY>  (1) 
78.4618

>  <PUBCHEM_FEATURE_SELFOVERLAP>  (1) 
30.446

>  <PUBCHEM_SHAPE_FINGERPRINT>  (1) 
10 15 17458906045938850508
10595046 47 18343300379413008647
10912923 1 18342454816332296331
11089746 13 18202280312522100048
11315181 36 18413389860922825189
12107183 9 17765156068749185875
12236239 1 18272934920615995439
12596602 18 18273217503805168481
12916748 109 17988932175468758399
13073987 5 18411422795712782003
13167372 99 18272938185297880712
13631057 29 18266456701944737195
13955234 65 18261387803137953050
14251718 22 18272368706830450607
14251732 16 18338234972182617843
14849402 71 18270403935350124288
15081414 286 18333736797547582452
15196674 1 18260824856761541103
17834072 33 18412822499489553215
17844677 252 18187646838694416228
18785283 64 17024044833213482548
200 152 18408036304436863623
20281389 69 18260826020967028364
20645477 70 18188202100894351778
21033648 29 17240475888832205621
21065198 48 18341894065502220779
22224240 67 18041835233806596920
2297311 6 16200154326702253819
23402539 116 17561081384684556597
23402655 69 18273214209865841670
23536379 177 17703794708525511430
23557571 272 16200440165170681953
23559900 14 14851892426004397083
26918003 58 15140679194047643813
2916195 48 18259980500582800572
300161 21 18260260858857360839
335352 9 18334576863671289358
34797466 226 16414925265671442188
3545911 37 18260267460274874806
42630746 31 18334573551766187718
4340502 62 16515680057443736314
5104073 3 18114743737642440033
542803 24 17846780706316968228
543368 44 18273213135955563441
5758199 1 18336830883455526256
90127 26 17749390295972050639

>  <PUBCHEM_SHAPE_MULTIPOLES>  (1) 
398.73
15.94
1.93
1.04
1.02
0.16
0.15
4.07
0.39
0.73
0.44
-1.34
0.26
-1.64

>  <PUBCHEM_SHAPE_SELFOVERLAP>  (1) 
813.16

>  <PUBCHEM_SHAPE_VOLUME>  (1) 
232.8

>  <PUBCHEM_COORDINATE_TYPE>  (1) 
2
5
10

$$$$
