25704
     RDKit          3D

 18 18  0  0  0  0  0  0  0  0999 V2000
    2.3836    3.3207   -1.2151 Br  0  0  0  0  0  0  0  0  0  0  0  0
   -1.3008    2.1444    1.9699 Cl  0  0  0  0  0  0  0  0  0  0  0  0
   -4.7588   -1.4017   -0.1197 Cl  0  0  0  0  0  0  0  0  0  0  0  0
    1.5590   -0.9176    0.5725 P   0  0  0  0  0  0  0  0  0  0  0  0
    1.5369    0.6813    0.3186 O   0  0  0  0  0  0  0  0  0  0  0  0
    1.7523   -1.5266   -0.9163 O   0  0  0  0  0  0  0  0  0  0  0  0
    3.0033   -1.1650    1.2639 O   0  0  0  0  0  0  0  0  0  0  0  0
    0.3834   -1.4585    1.3352 O   0  0  0  0  0  0  0  0  0  0  0  0
   -0.7705    0.6637   -0.2684 C   0  0  0  0  0  0  0  0  0  0  0  0
    0.5517    1.3110   -0.3645 C   0  0  0  0  0  0  0  0  0  0  0  0
   -1.6618    0.9780    0.7452 C   0  0  0  0  0  0  0  0  0  0  0  0
   -1.0870   -0.2766   -1.2378 C   0  0  0  0  0  0  0  0  0  0  0  0
   -2.8998    0.3372    0.7919 C   0  0  0  0  0  0  0  0  0  0  0  0
   -2.3251   -0.9176   -1.1911 C   0  0  0  0  0  0  0  0  0  0  0  0
   -3.2314   -0.6105   -0.1763 C   0  0  0  0  0  0  0  0  0  0  0  0
    0.7548    2.4427   -1.0560 C   0  0  0  0  0  0  0  0  0  0  0  0
    1.9510   -2.9229   -1.0535 C   0  0  0  0  0  0  0  0  0  0  0  0
    4.1592   -0.6821    0.6015 C   0  0  0  0  0  0  0  0  0  0  0  0
  1 16  1  0
  2 11  1  0
  3 15  1  0
  4  5  1  0
  4  6  1  0
  4  7  1  0
  4  8  2  0
  5 10  1  0
  6 17  1  0
  7 18  1  0
  9 10  1  0
  9 11  2  0
  9 12  1  0
 10 16  2  0
 11 13  1  0
 12 14  2  0
 13 15  2  0
 14 15  1  0
M  END
>  <PUBCHEM_COMPOUND_CID>  (1) 
25704

>  <PUBCHEM_CONFORMER_RMSD>  (1) 
0.6

>  <PUBCHEM_CONFORMER_DIVERSEORDER>  (1) 
1
45
54
38
52
18
37
6
39
5
49
13
51
22
29
12
21
53
36
47
19
31
8
20
10
50
42
44
43
48
16
11
40
15
55
24
56
33
26
25
7
9
46
30
28
23
34
3
27
4
2
17
14
35
32
41

>  <PUBCHEM_MMFF94_PARTIAL_CHARGES>  (1) 
22
1 -0.11
10 0.05
11 0.18
12 -0.15
13 -0.15
14 -0.15
15 0.18
16 -0.04
17 0.28
18 0.28
19 0.15
2 -0.18
20 0.15
21 0.15
22 0.15
3 -0.18
4 1.51
5 -0.35
6 -0.55
7 -0.55
8 -0.7
9 0.03

>  <PUBCHEM_EFFECTIVE_ROTOR_COUNT>  (1) 
5

>  <PUBCHEM_PHARMACOPHORE_FEATURES>  (1) 
3
1 1 hydrophobe
1 8 acceptor
6 9 11 12 13 14 15 rings

>  <PUBCHEM_HEAVY_ATOM_COUNT>  (1) 
18

>  <PUBCHEM_ATOM_DEF_STEREO_COUNT>  (1) 
0

>  <PUBCHEM_ATOM_UDEF_STEREO_COUNT>  (1) 
0

>  <PUBCHEM_BOND_DEF_STEREO_COUNT>  (1) 
0

>  <PUBCHEM_BOND_UDEF_STEREO_COUNT>  (1) 
1

>  <PUBCHEM_ISOTOPIC_ATOM_COUNT>  (1) 
0

>  <PUBCHEM_COMPONENT_COUNT>  (1) 
1

>  <PUBCHEM_CACTVS_TAUTO_COUNT>  (1) 
1

>  <PUBCHEM_CONFORMER_ID>  (1) 
0000646800000001

>  <PUBCHEM_MMFF94_ENERGY>  (1) 
42.4123

>  <PUBCHEM_FEATURE_SELFOVERLAP>  (1) 
15.223

>  <PUBCHEM_SHAPE_FINGERPRINT>  (1) 
10989021 7 18334572443152980948
11578080 2 18126255693126921417
12592029 89 17751918266383455564
14178342 30 18199469857247522874
14181834 199 18187088398467211748
15375462 478 18201995517361472683
16945 1 17917135118304758074
1813 80 18336550417389792550
19010151 120 18187074023480567376
20361792 2 18188206498702817135
20559304 39 18131354150155833041
20645477 70 18263076773061881735
20671657 53 18114174216489307819
20871998 22 18339079276748281143
21330990 113 15968255980810253612
21524375 3 17902236946218232492
22112679 90 17988930010979639369
23388829 49 18342171180739141660
23402539 116 18262509287480577362
23419403 2 16469158539072131961
23557571 272 18120082884787351702
23598291 2 18338814346339249713
2748010 2 17981316803221143926
3286 77 17603579742586568399
394222 165 17972877235281546816
4340502 62 17899141795806485131
5845 1 11787036697662017595
598444 67 16830670042169761591
6992083 37 17910695167047854105
7364860 26 18337674233942331317
81228 2 17904473009271595452
8272917 22 18262805185025786533
9981440 41 16116272871929598632

>  <PUBCHEM_SHAPE_MULTIPOLES>  (1) 
360.49
6.22
3.23
1.56
3.27
0.89
-0.31
-2.34
-0.12
-3.25
0.83
-0.15
0.39
-1.56

>  <PUBCHEM_SHAPE_SELFOVERLAP>  (1) 
695.156

>  <PUBCHEM_SHAPE_VOLUME>  (1) 
225.8

>  <PUBCHEM_COORDINATE_TYPE>  (1) 
2
5
10

$$$$
