25706
     RDKit          3D

 15 15  0  0  0  0  0  0  0  0999 V2000
   -0.7301   -0.2132   -0.0144 O   0  0  0  0  0  0  0  0  0  0  0  0
    0.1334   -2.3187   -0.3608 O   0  0  0  0  0  0  0  0  0  0  0  0
    5.3253    1.3959    0.1737 N   0  0  0  0  0  0  0  0  0  0  0  0
   -4.4838   -0.0625    0.0408 C   0  0  0  0  0  0  0  0  0  0  0  0
   -3.0362    0.4181    0.1151 C   0  0  0  0  0  0  0  0  0  0  0  0
   -5.4643    1.0998    0.1951 C   0  0  0  0  0  0  0  0  0  0  0  0
   -2.0529   -0.7273   -0.0798 C   0  0  0  0  0  0  0  0  0  0  0  0
   -6.9064    0.6302    0.0878 C   0  0  0  0  0  0  0  0  0  0  0  0
    1.6002   -0.4599   -0.0814 C   0  0  0  0  0  0  0  0  0  0  0  0
    0.2735   -1.1205   -0.1716 C   0  0  0  0  0  0  0  0  0  0  0  0
    2.6724   -1.1805    0.4032 C   0  0  0  0  0  0  0  0  0  0  0  0
    1.7195    0.8544   -0.4846 C   0  0  0  0  0  0  0  0  0  0  0  0
    4.0653    0.7682    0.0874 C   0  0  0  0  0  0  0  0  0  0  0  0
    3.9185   -0.5596    0.4888 C   0  0  0  0  0  0  0  0  0  0  0  0
    2.9657    1.4754   -0.3992 C   0  0  0  0  0  0  0  0  0  0  0  0
  1  7  1  0
  1 10  1  0
  2 10  2  0
  3 13  1  0
  4  5  1  0
  4  6  1  0
  5  7  1  0
  6  8  1  0
  9 10  1  0
  9 11  2  0
  9 12  1  0
 11 14  1  0
 12 15  2  0
 13 14  2  0
 13 15  1  0
M  END
>  <PUBCHEM_COMPOUND_CID>  (1) 
25706

>  <PUBCHEM_CONFORMER_RMSD>  (1) 
0.8

>  <PUBCHEM_CONFORMER_DIVERSEORDER>  (1) 
1
11
5
2
15
20
6
22
9
38
36
27
3
12
28
14
16
34
21
13
26
19
4
18
29
37
25
32
33
35
7
30
31
23
10
39
24
17
8

>  <PUBCHEM_MMFF94_PARTIAL_CHARGES>  (1) 
17
1 -0.43
10 0.63
11 -0.15
12 -0.15
13 0.1
14 -0.15
15 -0.15
2 -0.57
27 0.15
28 0.15
29 0.15
3 -0.9
30 0.15
31 0.4
32 0.4
7 0.28
9 0.09

>  <PUBCHEM_EFFECTIVE_ROTOR_COUNT>  (1) 
6

>  <PUBCHEM_PHARMACOPHORE_FEATURES>  (1) 
5
1 2 acceptor
1 3 cation
1 3 donor
1 8 hydrophobe
6 9 11 12 13 14 15 rings

>  <PUBCHEM_HEAVY_ATOM_COUNT>  (1) 
15

>  <PUBCHEM_ATOM_DEF_STEREO_COUNT>  (1) 
0

>  <PUBCHEM_ATOM_UDEF_STEREO_COUNT>  (1) 
0

>  <PUBCHEM_BOND_DEF_STEREO_COUNT>  (1) 
0

>  <PUBCHEM_BOND_UDEF_STEREO_COUNT>  (1) 
0

>  <PUBCHEM_ISOTOPIC_ATOM_COUNT>  (1) 
0

>  <PUBCHEM_COMPONENT_COUNT>  (1) 
1

>  <PUBCHEM_CACTVS_TAUTO_COUNT>  (1) 
2

>  <PUBCHEM_CONFORMER_ID>  (1) 
0000646A00000001

>  <PUBCHEM_MMFF94_ENERGY>  (1) 
37.4634

>  <PUBCHEM_FEATURE_SELFOVERLAP>  (1) 
25.371

>  <PUBCHEM_SHAPE_FINGERPRINT>  (1) 
100836 57 18410578400478272701
10354089 29 18186803582069273904
10411042 1 17833831569600755058
10688039 33 17385722461488823557
11724838 91 18335139838887878183
12236239 1 18131348605495459423
12596602 18 13839988819957670533
12714333 28 16845290548931840585
13167372 99 18268431244370745609
14251732 16 18335423504561738507
14252887 29 12324237239627545304
15188451 53 15430610571028561329
15475509 35 16009296605801157650
17834072 33 18272928337306720151
20645477 70 18339080376239050143
212847 35 18272367568484684824
23402539 116 18131626820054006828
23402655 69 18272929448785547038
351380 180 18186239528731322233
351380 3 10737287961358722169
3545911 37 18408888434063440893
4047638 21 18408044000369482922
42630746 31 18342739572405753111
42788 4 18410011018709192193
4325135 7 18341610452307056223
5104073 3 18188481501659744066
8272917 22 18339644442878700222

>  <PUBCHEM_SHAPE_MULTIPOLES>  (1) 
291.97
13.73
1.61
0.67
19.98
0.34
0
-6.59
1.62
-1.14
-0.13
-0.12
0
-0.32

>  <PUBCHEM_SHAPE_SELFOVERLAP>  (1) 
588.448

>  <PUBCHEM_SHAPE_VOLUME>  (1) 
172

>  <PUBCHEM_COORDINATE_TYPE>  (1) 
2
5
10

$$$$
