2570
     RDKit          3D

 20 21  0  0  0  0  0  0  0  0999 V2000
    1.2458    2.3566    0.3539 O   0  0  0  0  0  0  0  0  0  0  0  0
    1.1765   -2.2206   -0.5443 O   0  0  0  0  0  0  0  0  0  0  0  0
   -5.3691   -0.2956    1.1394 O   0  0  0  0  0  0  0  0  0  0  0  0
   -5.5277    0.3421   -1.0269 O   0  0  0  0  0  0  0  0  0  0  0  0
    1.7013    1.0537    0.4133 N   0  0  0  0  0  0  0  0  0  0  0  0
    1.6163   -1.0733   -0.2149 N   0  0  0  0  0  0  0  0  0  0  0  0
    3.1029    0.8062    0.0626 C   0  0  0  0  0  0  0  0  0  0  0  0
    3.0962   -0.7867   -0.0419 C   0  0  0  0  0  0  0  0  0  0  0  0
    0.8797   -0.0844    0.0574 C   0  0  0  0  0  0  0  0  0  0  0  0
    4.0227    1.3628    1.1511 C   0  0  0  0  0  0  0  0  0  0  0  0
    3.4167    1.4972   -1.2772 C   0  0  0  0  0  0  0  0  0  0  0  0
    3.8301   -1.3777   -1.2444 C   0  0  0  0  0  0  0  0  0  0  0  0
    3.4918   -1.5151    1.2499 C   0  0  0  0  0  0  0  0  0  0  0  0
   -0.5728   -0.0514    0.0267 C   0  0  0  0  0  0  0  0  0  0  0  0
   -1.2488    0.3040   -1.1471 C   0  0  0  0  0  0  0  0  0  0  0  0
   -1.3132   -0.3738    1.1709 C   0  0  0  0  0  0  0  0  0  0  0  0
   -2.6429    0.3365   -1.1762 C   0  0  0  0  0  0  0  0  0  0  0  0
   -2.7074   -0.3414    1.1418 C   0  0  0  0  0  0  0  0  0  0  0  0
   -3.3723    0.0136   -0.0319 C   0  0  0  0  0  0  0  0  0  0  0  0
   -4.8258    0.0474   -0.0623 C   0  0  0  0  0  0  0  0  0  0  0  0
  1  5  1  0
  2  6  1  0
  3 20  1  0
  4 20  2  0
  5  7  1  0
  5  9  1  0
  6  8  1  0
  6  9  2  0
  7  8  1  0
  7 10  1  0
  7 11  1  0
  8 12  1  0
  8 13  1  0
  9 14  1  0
 14 15  2  0
 14 16  1  0
 15 17  1  0
 16 18  2  0
 17 19  2  0
 18 19  1  0
 19 20  1  0
M  CHG  2   2  -1   6   1
M  END
>  <PUBCHEM_COMPOUND_CID>  (1) 
2570

>  <PUBCHEM_CONFORMER_RMSD>  (1) 
0.6

>  <PUBCHEM_CONFORMER_DIVERSEORDER>  (1) 
1
3
2

>  <PUBCHEM_MMFF94_PARTIAL_CHARGES>  (1) 
22
1 -0.38
14 -0.02
15 -0.15
16 -0.15
17 -0.15
18 -0.15
19 0.09
2 -0.63
20 0.63
3 -0.65
33 0.4
34 0.15
35 0.15
36 0.15
37 0.15
38 0.5
4 -0.57
5 -0.55
6 0.54
7 0.37
8 0.1
9 0.18

>  <PUBCHEM_EFFECTIVE_ROTOR_COUNT>  (1) 
2.6

>  <PUBCHEM_PHARMACOPHORE_FEATURES>  (1) 
9
1 2 anion
1 3 acceptor
1 4 acceptor
3 3 4 20 anion
3 5 6 9 cation
3 7 10 11 hydrophobe
3 8 12 13 hydrophobe
5 5 6 7 8 9 rings
6 14 15 16 17 18 19 rings

>  <PUBCHEM_HEAVY_ATOM_COUNT>  (1) 
20

>  <PUBCHEM_ATOM_DEF_STEREO_COUNT>  (1) 
0

>  <PUBCHEM_ATOM_UDEF_STEREO_COUNT>  (1) 
0

>  <PUBCHEM_BOND_DEF_STEREO_COUNT>  (1) 
0

>  <PUBCHEM_BOND_UDEF_STEREO_COUNT>  (1) 
0

>  <PUBCHEM_ISOTOPIC_ATOM_COUNT>  (1) 
0

>  <PUBCHEM_COMPONENT_COUNT>  (1) 
1

>  <PUBCHEM_CACTVS_TAUTO_COUNT>  (1) 
1

>  <PUBCHEM_CONFORMER_ID>  (1) 
00000A0A00000001

>  <PUBCHEM_MMFF94_ENERGY>  (1) 
76.0648

>  <PUBCHEM_FEATURE_SELFOVERLAP>  (1) 
45.754

>  <PUBCHEM_SHAPE_FINGERPRINT>  (1) 
10366900 7 18187655664926166099
11471102 20 18412826888840407188
11615757 297 18273217491099458459
12236239 1 17132115740548806922
12670546 56 17847061065119374209
13675066 3 16773793680339156647
13760787 5 17561083596993367813
14115302 16 17346311622447184823
15219456 202 18113897165001779991
15342168 16 18268147750268866724
15375358 24 17894631461464743955
16945 1 18270959034477120862
17844677 252 17967538960927404205
1813 80 17558848195576205758
18186145 218 18334016064356850778
200 152 18131630067566143083
20279233 1 17967534579495980514
20645477 70 18410857642109094606
22289505 5 18335413535225570701
22854114 59 18334574655081892965
23048698 100 17775287161833773235
23402539 116 17386276684247436087
23557571 272 17458907028879245839
23559900 14 17022910025380865422
29717793 49 17274822411665021933
3060560 45 18202568393084561830
3286 77 18114738235625926238
4047638 21 18186521003438806106
474 4 17416112009466156840
495365 180 18408878551211980266
5104073 3 18409166572125162345
522135 26 18202285796799568204
5281201 14 18335703801783798669
5374978 207 16732982037350528980
542803 24 16989127560866452009
69090 78 18259981591799983915
7164475 11 17559965328758555728
7495541 125 17748830708867349742
77492 1 17275385404114318242
8272917 22 18130516232180483903

>  <PUBCHEM_SHAPE_MULTIPOLES>  (1) 
378.15
10.16
1.65
1.33
10.67
0.08
0.02
0.23
-0.09
-2.26
0.02
-0.24
-0.03
0.66

>  <PUBCHEM_SHAPE_SELFOVERLAP>  (1) 
803.524

>  <PUBCHEM_SHAPE_VOLUME>  (1) 
214.7

>  <PUBCHEM_COORDINATE_TYPE>  (1) 
2
5
10

$$$$
