25703
     RDKit          3D

 24 25  0  0  0  0  0  0  0  0999 V2000
    1.1964   -2.7512    0.3741 S   0  0  0  0  0  0  0  0  0  0  0  0
    0.0631   -1.4844    1.5396 S   0  0  0  0  0  0  0  0  0  0  0  0
    0.3133   -1.8245   -2.3603 S   0  0  0  0  0  0  0  0  0  0  0  0
   -2.1838   -3.4917    1.3468 S   0  0  0  0  0  0  0  0  0  0  0  0
    7.1453    2.8182    1.2965 O   0  0  0  0  0  0  0  0  0  0  0  0
   -7.3908    2.8541   -0.5873 O   0  0  0  0  0  0  0  0  0  0  0  0
    4.4675    0.9132   -0.3725 N   0  0  0  0  0  0  0  0  0  0  0  0
   -4.2402    1.0575    0.0691 N   0  0  0  0  0  0  0  0  0  0  0  0
    2.4868   -1.0089   -1.0664 N   0  0  0  0  0  0  0  0  0  0  0  0
   -2.2892   -0.9556    0.5591 N   0  0  0  0  0  0  0  0  0  0  0  0
    4.3450   -0.3361    0.3965 C   0  0  0  0  0  0  0  0  0  0  0  0
    3.1510    1.3499   -0.8660 C   0  0  0  0  0  0  0  0  0  0  0  0
   -4.5944   -0.3655   -0.0598 C   0  0  0  0  0  0  0  0  0  0  0  0
   -3.2271    1.2468    1.1202 C   0  0  0  0  0  0  0  0  0  0  0  0
    3.7372   -1.4453   -0.4620 C   0  0  0  0  0  0  0  0  0  0  0  0
    2.5178    0.2757   -1.7502 C   0  0  0  0  0  0  0  0  0  0  0  0
   -3.3612   -1.2052   -0.3934 C   0  0  0  0  0  0  0  0  0  0  0  0
   -1.9654    0.4412    0.8108 C   0  0  0  0  0  0  0  0  0  0  0  0
    5.0821    1.9594    0.4439 C   0  0  0  0  0  0  0  0  0  0  0  0
   -5.4301    1.8586    0.3539 C   0  0  0  0  0  0  0  0  0  0  0  0
    1.3877   -1.8020   -1.0858 C   0  0  0  0  0  0  0  0  0  0  0  0
   -1.5619   -1.9653    1.0967 C   0  0  0  0  0  0  0  0  0  0  0  0
    6.5895    1.7728    0.5097 C   0  0  0  0  0  0  0  0  0  0  0  0
   -6.2384    2.0883   -0.9133 C   0  0  0  0  0  0  0  0  0  0  0  0
  1  2  1  0
  1 21  1  0
  2 22  1  0
  3 21  2  0
  4 22  2  0
  5 23  1  0
  6 24  1  0
  7 11  1  0
  7 12  1  0
  7 19  1  0
  8 13  1  0
  8 14  1  0
  8 20  1  0
  9 15  1  0
  9 16  1  0
  9 21  1  0
 10 17  1  0
 10 18  1  0
 10 22  1  0
 11 15  1  0
 12 16  1  0
 13 17  1  0
 14 18  1  0
 19 23  1  0
 20 24  1  0
M  END
>  <PUBCHEM_COMPOUND_CID>  (1) 
25703

>  <PUBCHEM_CONFORMER_RMSD>  (1) 
1.4

>  <PUBCHEM_CONFORMER_DIVERSEORDER>  (1) 
3
8
10
9
11
21
7
4
15
14
6
22
13
19
17
23
5
2
1
20
16
18
12

>  <PUBCHEM_MMFF94_PARTIAL_CHARGES>  (1) 
26
1 -0.14
10 -0.66
11 0.27
12 0.27
13 0.27
14 0.27
15 0.3
16 0.3
17 0.3
18 0.3
19 0.27
2 -0.14
20 0.27
21 0.58
22 0.58
23 0.28
24 0.28
3 -0.38
4 -0.38
49 0.4
5 -0.68
50 0.4
6 -0.68
7 -0.81
8 -0.81
9 -0.66

>  <PUBCHEM_EFFECTIVE_ROTOR_COUNT>  (1) 
11.4

>  <PUBCHEM_PHARMACOPHORE_FEATURES>  (1) 
10
1 3 acceptor
1 4 acceptor
1 5 acceptor
1 5 donor
1 6 acceptor
1 6 donor
1 7 cation
1 8 cation
6 7 9 11 12 15 16 rings
6 8 10 13 14 17 18 rings

>  <PUBCHEM_HEAVY_ATOM_COUNT>  (1) 
24

>  <PUBCHEM_ATOM_DEF_STEREO_COUNT>  (1) 
0

>  <PUBCHEM_ATOM_UDEF_STEREO_COUNT>  (1) 
0

>  <PUBCHEM_BOND_DEF_STEREO_COUNT>  (1) 
0

>  <PUBCHEM_BOND_UDEF_STEREO_COUNT>  (1) 
0

>  <PUBCHEM_ISOTOPIC_ATOM_COUNT>  (1) 
0

>  <PUBCHEM_COMPONENT_COUNT>  (1) 
1

>  <PUBCHEM_CACTVS_TAUTO_COUNT>  (1) 
1

>  <PUBCHEM_CONFORMER_ID>  (1) 
0000646700000003

>  <PUBCHEM_MMFF94_ENERGY>  (1) 
54.9994

>  <PUBCHEM_FEATURE_SELFOVERLAP>  (1) 
50.747

>  <PUBCHEM_SHAPE_FINGERPRINT>  (1) 
10042902 136 10375867485248825001
11135609 127 18046613514015515805
11374522 101 18042125513815255980
11954058 11 9727337044416737651
11961588 58 18202558471594309951
12403259 118 18190745439209145780
12422481 6 16154268291833717319
12633257 1 17240764051268096878
13103583 49 16009311028211841386
13673619 4 8574712403316754004
13911987 19 16917073286574720650
13955234 65 17536037663059349891
13965767 371 17458340814656382962
14251740 57 10159394523876605533
14251764 38 18191312773722964956
14420673 8 8141822593908321257
15238133 3 18114471158223708484
16120349 21 9007067889821069919
16991981 162 14978299910531972898
17492 54 16702302369059594458
19438510 23 18411982451231017553
20511986 3 18411692184203070189
20715895 44 18335140860367551057
21033648 29 17749395840579833031
21298829 104 18335984181913678821
21304303 282 18337103587798581167
21682296 61 9655283844679401665
22950370 63 9079122163342979714
23559900 14 18269563732378099034
2838139 119 18270959171768160364
2916195 48 18407763621163294827
3472631 163 18410292463552722543
393628 179 17988912414768368504
46194498 28 11239703163777895994
465052 167 10953462916446038706
5104073 3 17967251996370813531
54039377 194 10881393215544754208
56633871 153 8069730889662628713
57527585 21 16700922481798022354
8217 86 9727640509931893712
9981440 41 18334582385760094523

>  <PUBCHEM_SHAPE_MULTIPOLES>  (1) 
477.64
16.05
3.77
1.66
0.21
0.51
0.59
-21.36
-1.52
-1.42
-0.85
0.54
0.65
2.55

>  <PUBCHEM_SHAPE_SELFOVERLAP>  (1) 
904.263

>  <PUBCHEM_SHAPE_VOLUME>  (1) 
297.8

>  <PUBCHEM_COORDINATE_TYPE>  (1) 
2
5
10

$$$$
