25713
     RDKit          3D

  6  5  0  0  0  0  0  0  0  0999 V2000
    1.2339   -1.3179    0.0019 O   0  0  0  0  0  0  0  0  0  0  0  0
   -1.2350    1.2733    0.0012 O   0  0  0  0  0  0  0  0  0  0  0  0
    0.6440   -0.0483    0.0007 N   0  0  0  0  0  0  0  0  0  0  0  0
   -0.7074    0.1602    0.0025 C   0  0  0  0  0  0  0  0  0  0  0  0
    1.6209    1.0192   -0.0029 C   0  0  0  0  0  0  0  0  0  0  0  0
   -1.5564   -1.0866   -0.0033 C   0  0  0  0  0  0  0  0  0  0  0  0
  1  3  1  0
  2  4  2  0
  3  4  1  0
  3  5  1  0
  4  6  1  0
M  END
>  <PUBCHEM_COMPOUND_CID>  (1) 
25713

>  <PUBCHEM_CONFORMER_RMSD>  (1) 
0.4

>  <PUBCHEM_CONFORMER_DIVERSEORDER>  (1) 
1
2

>  <PUBCHEM_MMFF94_PARTIAL_CHARGES>  (1) 
7
1 -0.44
13 0.4
2 -0.57
3 -0.32
4 0.57
5 0.3
6 0.06

>  <PUBCHEM_EFFECTIVE_ROTOR_COUNT>  (1) 
1

>  <PUBCHEM_PHARMACOPHORE_FEATURES>  (1) 
1
1 2 acceptor

>  <PUBCHEM_HEAVY_ATOM_COUNT>  (1) 
6

>  <PUBCHEM_ATOM_DEF_STEREO_COUNT>  (1) 
0

>  <PUBCHEM_ATOM_UDEF_STEREO_COUNT>  (1) 
0

>  <PUBCHEM_BOND_DEF_STEREO_COUNT>  (1) 
0

>  <PUBCHEM_BOND_UDEF_STEREO_COUNT>  (1) 
0

>  <PUBCHEM_ISOTOPIC_ATOM_COUNT>  (1) 
0

>  <PUBCHEM_COMPONENT_COUNT>  (1) 
1

>  <PUBCHEM_CACTVS_TAUTO_COUNT>  (1) 
1

>  <PUBCHEM_CONFORMER_ID>  (1) 
0000647100000001

>  <PUBCHEM_MMFF94_ENERGY>  (1) 
9.7362

>  <PUBCHEM_FEATURE_SELFOVERLAP>  (1) 
5.074

>  <PUBCHEM_SHAPE_FINGERPRINT>  (1) 
139733 1 9222695283427329411
16714656 1 17978799239494910972
20096714 4 18338519608049543032
21015797 1 9295299338833410061
21040471 1 18266740186206032321
24536 1 18337938026533058536
29004967 10 18118128210584558363

>  <PUBCHEM_SHAPE_MULTIPOLES>  (1) 
106.76
2.16
1.42
0.57
0.17
0.07
0
0.03
0
-0.02
0
-0.01
0
0

>  <PUBCHEM_SHAPE_SELFOVERLAP>  (1) 
190.481

>  <PUBCHEM_SHAPE_VOLUME>  (1) 
70.5

>  <PUBCHEM_COORDINATE_TYPE>  (1) 
2
5
10

$$$$
