25719
     RDKit          3D

 22 22  0  0  0  0  0  0  0  0999 V2000
   -4.6346    1.8962   -1.5579 S   0  0  0  0  0  0  0  0  0  0  0  0
   -4.6378    1.9597    1.4542 S   0  0  0  0  0  0  0  0  0  0  0  0
   -0.7929   -0.0076    0.0292 N   0  0  0  0  0  0  0  0  0  0  0  0
    4.2341   -0.3092    0.0326 C   0  0  0  0  0  0  0  0  0  0  0  0
    5.5548    0.4639    0.0105 C   0  0  0  0  0  0  0  0  0  0  0  0
    3.0026    0.6001    0.1095 C   0  0  0  0  0  0  0  0  0  0  0  0
    6.7877   -0.4442   -0.0540 C   0  0  0  0  0  0  0  0  0  0  0  0
    1.6785   -0.1696    0.0510 C   0  0  0  0  0  0  0  0  0  0  0  0
    8.1425    0.2710   -0.0561 C   0  0  0  0  0  0  0  0  0  0  0  0
    0.4536    0.7478    0.0677 C   0  0  0  0  0  0  0  0  0  0  0  0
    9.3366   -0.6855   -0.0646 C   0  0  0  0  0  0  0  0  0  0  0  0
   -1.9425    0.8861    0.0352 C   0  0  0  0  0  0  0  0  0  0  0  0
   -3.2432    0.0626   -0.0150 C   0  0  0  0  0  0  0  0  0  0  0  0
   -4.5992    0.8387   -0.0288 C   0  0  0  0  0  0  0  0  0  0  0  0
   10.6583    0.0787    0.0243 C   0  0  0  0  0  0  0  0  0  0  0  0
   -5.8464   -0.0674   -0.0157 C   0  0  0  0  0  0  0  0  0  0  0  0
   11.8505   -0.8641   -0.0162 C   0  0  0  0  0  0  0  0  0  0  0  0
   -5.7005   -1.4545    0.0064 C   0  0  0  0  0  0  0  0  0  0  0  0
   -7.1209    0.4997   -0.0256 C   0  0  0  0  0  0  0  0  0  0  0  0
   -6.8289   -2.2744    0.0184 C   0  0  0  0  0  0  0  0  0  0  0  0
   -8.2492   -0.3204   -0.0134 C   0  0  0  0  0  0  0  0  0  0  0  0
   -8.1031   -1.7074    0.0085 C   0  0  0  0  0  0  0  0  0  0  0  0
  1 14  1  0
  2 14  1  0
  3 10  1  0
  3 12  1  0
  4  5  1  0
  4  6  1  0
  5  7  1  0
  6  8  1  0
  7  9  1  0
  8 10  1  0
  9 11  1  0
 11 15  1  0
 12 13  1  0
 13 14  1  0
 14 16  1  0
 15 17  1  0
 16 18  2  0
 16 19  1  0
 18 20  1  0
 19 21  2  0
 20 22  2  0
 21 22  1  0
M  END
>  <PUBCHEM_COMPOUND_CID>  (1) 
25719

>  <PUBCHEM_CONFORMER_RMSD>  (1) 
1.4

>  <PUBCHEM_CONFORMER_DIVERSEORDER>  (1) 
1
69
41
34
49
73
55
9
17
70
56
26
52
65
36
24
31
44
2
62
12
13
19
11
71
39
7
67
54
59
42
53
58
64
60
76
50
46
14
63
28
75
4
66
8
38
61
10
35
22
77
32
16
48
27
43
68
23
18
33
37
45
40
51
30
25
74
20
57
47
5
21
72
15
29
6
3

>  <PUBCHEM_MMFF94_PARTIAL_CHARGES>  (1) 
20
1 -0.41
10 0.27
12 0.27
14 0.6
16 -0.14
18 -0.15
19 -0.15
2 -0.41
20 -0.15
21 -0.15
22 -0.15
3 -0.9
43 0.36
49 0.15
50 0.15
51 0.18
52 0.18
53 0.15
54 0.15
55 0.15

>  <PUBCHEM_EFFECTIVE_ROTOR_COUNT>  (1) 
13

>  <PUBCHEM_PHARMACOPHORE_FEATURES>  (1) 
4
1 17 hydrophobe
1 3 cation
1 3 donor
6 16 18 19 20 21 22 rings

>  <PUBCHEM_HEAVY_ATOM_COUNT>  (1) 
22

>  <PUBCHEM_ATOM_DEF_STEREO_COUNT>  (1) 
0

>  <PUBCHEM_ATOM_UDEF_STEREO_COUNT>  (1) 
0

>  <PUBCHEM_BOND_DEF_STEREO_COUNT>  (1) 
0

>  <PUBCHEM_BOND_UDEF_STEREO_COUNT>  (1) 
0

>  <PUBCHEM_ISOTOPIC_ATOM_COUNT>  (1) 
0

>  <PUBCHEM_COMPONENT_COUNT>  (1) 
1

>  <PUBCHEM_CACTVS_TAUTO_COUNT>  (1) 
1

>  <PUBCHEM_CONFORMER_ID>  (1) 
0000647700000001

>  <PUBCHEM_MMFF94_ENERGY>  (1) 
27.0092

>  <PUBCHEM_FEATURE_SELFOVERLAP>  (1) 
20.297

>  <PUBCHEM_SHAPE_FINGERPRINT>  (1) 
10299344 5 18333731320836220370
11315181 36 18411140238963663793
11524674 6 17203327845433668439
12082328 90 17988364780039855132
12091667 2 17385445401759201553
14202775 3 18341618093181314206
14251764 18 17022897943969853120
14251764 46 18410856563945306368
14251920 17 18410293658614388612
15461852 350 18114183038114835308
15510794 2 18272092678510834726
155225 1 9007063460792110647
15840311 113 18113902706855336460
16120349 18 17531250591733007492
18335252 98 17847065463545459558
20609170 92 18189045422724550575
21095086 128 18334011688634476210
21102433 48 18113892742673972554
21150785 3 17603866710499208157
21315763 28 18410012139601217536
21360443 120 17458340836221118555
21362267 20 18342173393334290414
232437 2 18408322177940224090
23528940 14 17989202698933980055
246663 6 17989489628111889102
335507 130 17060338526904451796
33684 2 18410575088973876960
395649 100 17531250603251930571
4325135 7 18113054943790927623
57676310 188 18040149595949797442
59521270 166 18187077331639217591
59682541 35 17775563144396482506
636775 8 17894916269684671627
67123 10 18409730669314586900
8209 1 11025797596267909504
9663363 56 16487536936513208649

>  <PUBCHEM_SHAPE_MULTIPOLES>  (1) 
455.47
41.24
1.69
0.87
111.89
0.19
0.04
14.65
0.6
-4.63
-0.01
-1.14
-0.47
0.08

>  <PUBCHEM_SHAPE_SELFOVERLAP>  (1) 
857.479

>  <PUBCHEM_SHAPE_VOLUME>  (1) 
283.8

>  <PUBCHEM_COORDINATE_TYPE>  (1) 
2
5
10

$$$$
