25714
     RDKit          3D

 14 15  0  0  0  0  0  0  0  0999 V2000
   -2.8714   -1.9630    0.0002 O   0  0  0  0  0  0  0  0  0  0  0  0
   -3.6612    0.0854    0.0007 O   0  0  0  0  0  0  0  0  0  0  0  0
   -2.7020   -0.7213    0.0001 N   0  0  0  0  0  0  0  0  0  0  0  0
   -2.1950    2.0914   -0.0003 N   0  0  0  0  0  0  0  0  0  0  0  0
    1.0192   -0.6458   -0.0001 C   0  0  0  0  0  0  0  0  0  0  0  0
    1.2668    0.7475   -0.0001 C   0  0  0  0  0  0  0  0  0  0  0  0
   -0.3069   -1.1080   -0.0004 C   0  0  0  0  0  0  0  0  0  0  0  0
    0.1805    1.6378   -0.0002 C   0  0  0  0  0  0  0  0  0  0  0  0
   -1.3741   -0.2093   -0.0003 C   0  0  0  0  0  0  0  0  0  0  0  0
   -1.1307    1.1609   -0.0002 C   0  0  0  0  0  0  0  0  0  0  0  0
    2.1054   -1.5362   -0.0004 C   0  0  0  0  0  0  0  0  0  0  0  0
    2.5930    1.2096    0.0003 C   0  0  0  0  0  0  0  0  0  0  0  0
    3.4166   -1.0596    0.0001 C   0  0  0  0  0  0  0  0  0  0  0  0
    3.6599    0.3106    0.0006 C   0  0  0  0  0  0  0  0  0  0  0  0
  1  3  1  0
  2  3  2  0
  3  9  1  0
  4 10  1  0
  5  6  1  0
  5  7  2  0
  5 11  1  0
  6  8  2  0
  6 12  1  0
  7  9  1  0
  8 10  1  0
  9 10  2  0
 11 13  2  0
 12 14  2  0
 13 14  1  0
M  CHG  2   1  -1   3   1
M  END
>  <PUBCHEM_COMPOUND_CID>  (1) 
25714

>  <PUBCHEM_CONFORMER_RMSD>  (1) 
0.4

>  <PUBCHEM_CONFORMER_DIVERSEORDER>  (1) 
1

>  <PUBCHEM_MMFF94_PARTIAL_CHARGES>  (1) 
20
1 -0.52
10 0.1
11 -0.15
12 -0.15
13 -0.15
14 -0.15
15 0.15
16 0.15
17 0.15
18 0.15
19 0.15
2 -0.52
20 0.15
21 0.4
22 0.4
3 0.91
4 -0.9
7 -0.15
8 -0.15
9 0.13

>  <PUBCHEM_EFFECTIVE_ROTOR_COUNT>  (1) 
1

>  <PUBCHEM_PHARMACOPHORE_FEATURES>  (1) 
7
1 1 acceptor
1 1 anion
1 2 acceptor
1 4 cation
1 4 donor
6 5 6 11 12 13 14 rings
6 5 6 7 8 9 10 rings

>  <PUBCHEM_HEAVY_ATOM_COUNT>  (1) 
14

>  <PUBCHEM_ATOM_DEF_STEREO_COUNT>  (1) 
0

>  <PUBCHEM_ATOM_UDEF_STEREO_COUNT>  (1) 
0

>  <PUBCHEM_BOND_DEF_STEREO_COUNT>  (1) 
0

>  <PUBCHEM_BOND_UDEF_STEREO_COUNT>  (1) 
0

>  <PUBCHEM_ISOTOPIC_ATOM_COUNT>  (1) 
0

>  <PUBCHEM_COMPONENT_COUNT>  (1) 
1

>  <PUBCHEM_CACTVS_TAUTO_COUNT>  (1) 
1

>  <PUBCHEM_CONFORMER_ID>  (1) 
0000647200000001

>  <PUBCHEM_MMFF94_ENERGY>  (1) 
59.5444

>  <PUBCHEM_FEATURE_SELFOVERLAP>  (1) 
35.628

>  <PUBCHEM_SHAPE_FINGERPRINT>  (1) 
10608611 8 18411413990782255832
10967382 1 18410856529612026214
11132069 177 18411976970683936152
11471102 20 18410287025512053190
11769659 78 18408317779007450754
12032990 46 18410580612412862250
12932764 1 17459188474002233236
13221675 6 18412544335985232326
13380535 76 18197494017851836269
14144814 61 18411138017631836002
14325111 11 18410856534244785504
14790565 3 15667059751870310673
15196674 1 18410856572535253958
15442244 35 18194401083142755458
15536298 74 18343021086569483892
16945 1 18338799034558845124
17844478 74 18260555532178725897
193761 8 17906170655129585190
19591789 44 15533637661839704936
200 152 18059563694398790989
20201158 50 18409166618916134106
20510252 161 18272933795461541672
20645477 70 18411978048816244791
20871998 184 18202282485269065423
21267235 1 18410583867945448514
21501502 16 18337393747124336768
21501925 9 18337098004493076874
2334 1 18410573968177401220
23402539 116 18338505422052184878
23402655 69 18411975828254556933
23463225 33 18409167692926762588
23552423 10 18261114049910462044
23559900 14 18198056968549445710
25610 137 18336832003729587061
2748010 2 18411416168330343780
3312278 4 18409450314543761755
5104073 3 18410856563955863378
528886 8 18411695508739943826
57096353 35 18336830904513313524
7364860 26 18268711782770350256
8809292 202 18260834820948920611

>  <PUBCHEM_SHAPE_MULTIPOLES>  (1) 
266.41
5.7
1.96
0.59
0.25
0.15
0
-0.99
0
0.57
0
-0.08
0.01
0

>  <PUBCHEM_SHAPE_SELFOVERLAP>  (1) 
587.795

>  <PUBCHEM_SHAPE_VOLUME>  (1) 
144.4

>  <PUBCHEM_COORDINATE_TYPE>  (1) 
2
5
10

$$$$
