25727
     RDKit          3D

 22 24  0  0  1  0  0  0  0  0999 V2000
    0.8338   -0.9046   -0.3384 O   0  0  0  0  0  0  0  0  0  0  0  0
   -1.8263    0.0074    1.8907 O   0  0  0  0  0  0  0  0  0  0  0  0
    0.4215   -1.4206    1.8697 O   0  0  0  0  0  0  0  0  0  0  0  0
    4.2611   -0.8106    0.0468 N   0  0  0  0  0  0  0  0  0  0  0  0
   -2.1223   -0.8522   -0.3047 C   0  0  0  0  0  0  0  0  0  0  0  0
   -2.4375   -2.2548    0.2056 C   0  0  0  0  0  0  0  0  0  0  0  0
   -3.5092   -0.2266   -0.4140 C   0  0  0  0  0  0  0  0  0  0  0  0
   -1.1869   -0.0790    0.6081 C   0  0  0  0  0  0  0  0  0  0  0  0
   -3.6929   -2.6561   -0.5628 C   0  0  0  0  0  0  0  0  0  0  0  0
   -4.3765   -1.3503   -0.9720 C   0  0  0  0  0  0  0  0  0  0  0  0
    2.0643   -1.6117   -0.2716 C   0  0  0  0  0  0  0  0  0  0  0  0
    0.1006   -0.8861    0.8150 C   0  0  0  0  0  0  0  0  0  0  0  0
   -0.8545    1.3571    0.1981 C   0  0  0  0  0  0  0  0  0  0  0  0
    2.8018   -1.5206   -1.6054 C   0  0  0  0  0  0  0  0  0  0  0  0
    2.9814   -0.9382    0.7478 C   0  0  0  0  0  0  0  0  0  0  0  0
    3.9176   -0.5214   -1.3444 C   0  0  0  0  0  0  0  0  0  0  0  0
   -0.7299    1.6480   -1.1411 C   0  0  0  0  0  0  0  0  0  0  0  0
   -0.6927    2.3033    1.1840 C   0  0  0  0  0  0  0  0  0  0  0  0
    5.1195    0.2078    0.6328 C   0  0  0  0  0  0  0  0  0  0  0  0
   -0.4268    2.9572   -1.5149 C   0  0  0  0  0  0  0  0  0  0  0  0
   -0.3896    3.6125    0.8101 C   0  0  0  0  0  0  0  0  0  0  0  0
   -0.2567    3.9396   -0.5393 C   0  0  0  0  0  0  0  0  0  0  0  0
  1 11  1  0
  1 12  1  0
  2  8  1  0
  3 12  2  0
  4 15  1  0
  4 16  1  0
  4 19  1  0
  5  6  1  0
  5  7  1  0
  5  8  1  0
  6  9  1  0
  7 10  1  0
  8 12  1  0
  8 13  1  0
  9 10  1  0
 11 14  1  0
 11 15  1  0
 13 17  2  0
 13 18  1  0
 14 16  1  0
 17 20  1  0
 18 21  2  0
 20 22  2  0
 21 22  1  0
M  END
>  <PUBCHEM_COMPOUND_CID>  (1) 
25727

>  <PUBCHEM_CONFORMER_RMSD>  (1) 
0.8

>  <PUBCHEM_CONFORMER_DIVERSEORDER>  (1) 
3
174
55
183
196
189
162
45
176
204
57
157
119
210
135
188
199
179
168
147
25
136
211
123
118
24
207
178
216
91
127
164
6
124
218
170
39
220
41
130
65
97
177
46
50
140
71
172
93
81
9
76
70
214
102
17
32
185
213
72
88
151
144
180
148
161
112
98
182
21
105
52
13
44
158
143
31
77
126
80
165
29
156
197
184
212
36
142
79
69
27
137
109
175
53
35
51
67
48
56
203
150
122
16
186
113
131
63
215
95
194
62
20
201
87
206
26
154
14
145
117
205
89
202
181
193
73
101
133
66
120
74
94
200
58
60
115
217
209
134
42
110
139
15
149
11
47
125
111
152
187
100
153
114
106
132
195
104
99
155
22
208
38
78
49
19
121
28
37
84
23
146
2
64
159
61
54
116
191
1
92
163
108
68
59
4
198
160
171
141
90
129
173
18
33
40
166
10
167
96
12
192
219
128
7
34
190
86
83
138
85
43
103
107
75
5
8
30
82
169

>  <PUBCHEM_MMFF94_PARTIAL_CHARGES>  (1) 
22
1 -0.43
11 0.28
12 0.66
13 -0.14
15 0.27
16 0.27
17 -0.15
18 -0.15
19 0.27
2 -0.68
20 -0.15
21 -0.15
22 -0.15
3 -0.57
39 0.4
4 -0.81
40 0.15
41 0.15
45 0.15
46 0.15
47 0.15
8 0.48

>  <PUBCHEM_EFFECTIVE_ROTOR_COUNT>  (1) 
7

>  <PUBCHEM_PHARMACOPHORE_FEATURES>  (1) 
7
1 2 acceptor
1 2 donor
1 3 acceptor
1 4 cation
5 4 11 14 15 16 rings
5 5 6 7 9 10 rings
6 13 17 18 20 21 22 rings

>  <PUBCHEM_HEAVY_ATOM_COUNT>  (1) 
22

>  <PUBCHEM_ATOM_DEF_STEREO_COUNT>  (1) 
0

>  <PUBCHEM_ATOM_UDEF_STEREO_COUNT>  (1) 
2

>  <PUBCHEM_BOND_DEF_STEREO_COUNT>  (1) 
0

>  <PUBCHEM_BOND_UDEF_STEREO_COUNT>  (1) 
0

>  <PUBCHEM_ISOTOPIC_ATOM_COUNT>  (1) 
0

>  <PUBCHEM_COMPONENT_COUNT>  (1) 
1

>  <PUBCHEM_CACTVS_TAUTO_COUNT>  (1) 
1

>  <PUBCHEM_CONFORMER_ID>  (1) 
0000647F00000003

>  <PUBCHEM_MMFF94_ENERGY>  (1) 
56.6665

>  <PUBCHEM_FEATURE_SELFOVERLAP>  (1) 
35.53

>  <PUBCHEM_SHAPE_FINGERPRINT>  (1) 
10165383 225 17190980084312392484
10498660 4 18411700941878932558
10670039 82 18337407006648917788
11036077 3 9295022292194951860
11045515 52 18335137613588332365
11640471 11 17389102244230948784
11759241 127 18201719570255546612
12173636 292 17765436443845353844
12403259 226 18272086076913803626
12403260 363 18335135350837126818
12553582 1 18265637487765237926
12788726 201 18262512577003286171
13004483 165 18340477877161601591
13149001 5 17898573330667254171
133893 2 17903094548271221017
13583140 156 17699532933185824442
13681431 1 18267030642127930205
14081887 123 18338508634793041804
14347332 77 18266175033520424926
14790565 3 17908139876672635545
14910302 57 17915755175815688110
14955137 171 18195836057908113907
15295992 7 11891344127141485358
15475509 8 18200602393728053607
15502722 9 17833548273467343831
15849732 13 18200048257089715377
15961568 22 18338800130583147116
167882 2 17830732415066249828
17349148 13 17385723561158426882
17357779 13 18270948107383851485
17492 54 18046075019157277300
17980427 23 17704080620520021393
1813 80 18270693059699914423
18769570 83 17967805016818379061
192875 21 17603867793448249486
20600515 1 18271533086383003799
21285901 2 17987795194826127543
21304303 282 17398064354671272468
21344244 246 17764585817229743038
21524375 3 17252315206301040169
22112679 90 18055385563145779025
23352939 185 18272087240253796673
23402539 116 18409161121637842926
23419403 2 18126819781145884013
23557571 272 18341609283405953950
23559900 14 18125424557394789039
3298306 158 17615413996716534956
4280585 95 18267003128362223383
532947 4 17979355588216006268
621550 34 17917423238165880214
6442390 28 17623302567528428977
6443956 14 18268427013374252089
6786 2 16905840409555501905
6913067 236 18058994156198159150
7164475 11 18191578658227250070
7364860 26 18053095418096060191
7399639 24 18059848468406542886
81228 2 18264785271685056291
84936 31 17628059406832402369

>  <PUBCHEM_SHAPE_MULTIPOLES>  (1) 
430.16
7.22
4.01
1.51
5.28
4.87
0.08
-6.17
-1.41
-1.91
-0.54
0.28
0.17
-0.01

>  <PUBCHEM_SHAPE_SELFOVERLAP>  (1) 
914.53

>  <PUBCHEM_SHAPE_VOLUME>  (1) 
242.1

>  <PUBCHEM_COORDINATE_TYPE>  (1) 
2
5
10

$$$$
