2574
     RDKit          3D

 13 13  0  0  0  0  0  0  0  0999 V2000
    2.1861   -1.4856   -0.7783 O   0  0  0  0  0  0  0  0  0  0  0  0
    0.6002   -0.7556    0.7507 N   0  0  0  0  0  0  0  0  0  0  0  0
   -2.2460    0.7477   -1.0746 N   0  0  0  0  0  0  0  0  0  0  0  0
   -3.5658    1.1995    0.6535 N   0  0  0  0  0  0  0  0  0  0  0  0
    4.6659    1.8281    0.1536 N   0  0  0  0  0  0  0  0  0  0  0  0
   -1.3492   -1.5191   -0.5645 C   0  0  0  0  0  0  0  0  0  0  0  0
   -0.3371   -1.8320    0.5355 C   0  0  0  0  0  0  0  0  0  0  0  0
   -2.1961   -0.3104   -0.2451 C   0  0  0  0  0  0  0  0  0  0  0  0
    2.6025    0.5476    0.4698 C   0  0  0  0  0  0  0  0  0  0  0  0
    1.8017   -0.6763    0.0617 C   0  0  0  0  0  0  0  0  0  0  0  0
    3.9269    0.6488   -0.2797 C   0  0  0  0  0  0  0  0  0  0  0  0
   -2.9961   -0.0397    0.8062 C   0  0  0  0  0  0  0  0  0  0  0  0
   -3.0930    1.6469   -0.4887 C   0  0  0  0  0  0  0  0  0  0  0  0
  1 10  2  0
  2  7  1  0
  2 10  1  0
  3  8  1  0
  3 13  1  0
  4 12  1  0
  4 13  2  0
  5 11  1  0
  6  7  1  0
  6  8  1  0
  8 12  2  0
  9 10  1  0
  9 11  1  0
M  END
>  <PUBCHEM_COMPOUND_CID>  (1) 
2574

>  <PUBCHEM_CONFORMER_RMSD>  (1) 
0.6

>  <PUBCHEM_CONFORMER_DIVERSEORDER>  (1) 
1
86
162
75
77
60
21
157
36
57
88
45
148
99
8
9
100
12
152
30
151
59
132
102
69
83
74
149
37
107
156
4
79
131
52
150
35
7
31
153
26
24
43
155
49
73
105
80
27
129
119
130
19
42
112
61
159
140
68
144
108
2
5
71
166
70
97
103
154
14
106
53
163
48
22
87
38
160
91
13
127
118
138
167
3
158
54
139
120
133
15
63
47
90
32
46
44
98
20
62
92
123
6
40
135
78
17
125
101
115
137
41
55
51
164
113
128
58
110
161
146
145
39
76
34
93
147
165
104
121
50
143
117
64
95
109
89
29
81
25
124
94
122
111
65
66
56
114
136
134
84
18
16
67
33
82
85
11
116
10
126
142
28
141
72
96
23

>  <PUBCHEM_MMFF94_PARTIAL_CHARGES>  (1) 
19
1 -0.57
10 0.57
11 0.27
12 0.08
13 0.04
18 0.37
2 -0.73
23 0.27
24 0.15
25 0.15
26 0.36
27 0.36
3 0.03
4 -0.57
5 -0.99
6 0.18
7 0.3
8 -0.33
9 0.06

>  <PUBCHEM_EFFECTIVE_ROTOR_COUNT>  (1) 
6

>  <PUBCHEM_PHARMACOPHORE_FEATURES>  (1) 
7
1 1 acceptor
1 2 donor
1 3 donor
1 5 cation
1 5 donor
3 3 4 13 cation
5 3 4 8 12 13 rings

>  <PUBCHEM_HEAVY_ATOM_COUNT>  (1) 
13

>  <PUBCHEM_ATOM_DEF_STEREO_COUNT>  (1) 
0

>  <PUBCHEM_ATOM_UDEF_STEREO_COUNT>  (1) 
0

>  <PUBCHEM_BOND_DEF_STEREO_COUNT>  (1) 
0

>  <PUBCHEM_BOND_UDEF_STEREO_COUNT>  (1) 
0

>  <PUBCHEM_ISOTOPIC_ATOM_COUNT>  (1) 
0

>  <PUBCHEM_COMPONENT_COUNT>  (1) 
1

>  <PUBCHEM_CACTVS_TAUTO_COUNT>  (1) 
4

>  <PUBCHEM_CONFORMER_ID>  (1) 
00000A0E00000001

>  <PUBCHEM_MMFF94_ENERGY>  (1) 
3.252

>  <PUBCHEM_FEATURE_SELFOVERLAP>  (1) 
35.522

>  <PUBCHEM_SHAPE_FINGERPRINT>  (1) 
11046707 91 9727643808213660336
11127187 94 13039182606989308709
11137873 295 11024105460588846157
11715629 250 18408887330135682694
11769659 78 9151175354917895458
12006461 19 8935005871481335356
122479 349 18334580161235267306
13618510 140 18411415072987264465
14123255 352 18335414703704523316
14123255 52 18336261262705679221
14123260 362 18340215175592189776
14251710 61 10159690317783833109
15775835 57 18410292488900390089
1741750 31 18413106182211309914
177051 138 8934994867479626456
17834072 32 18408601478566724412
18186145 218 18270687463156905110
20281407 28 9655585119006518690
20281475 54 9439412354114815106
20645477 56 18341055228298147626
20645477 70 17346335799408925254
20653085 51 18341618070671989531
20828058 19 8574706897385081715
22485316 2 10519994755320891842
23402539 116 18119802770841351631
23403322 49 10159702386663053169
23500284 214 18335144210642261818
23557571 272 18129953406306406038
25 1 18272373053289920266
27216 239 18187366553777178257
305870 269 18041269985476363018

>  <PUBCHEM_SHAPE_MULTIPOLES>  (1) 
241.74
7.76
1.92
0.92
5.73
0.05
0.02
-5.4
-0.19
0.06
0.1
-0.35
0.04
0.27

>  <PUBCHEM_SHAPE_SELFOVERLAP>  (1) 
482.274

>  <PUBCHEM_SHAPE_VOLUME>  (1) 
144.9

>  <PUBCHEM_COORDINATE_TYPE>  (1) 
2
5
10

$$$$
