25746
     RDKit          3D

 10 10  0  0  0  0  0  0  0  0999 V2000
    1.1489    0.0284    0.5684 C   0  0  0  0  0  0  0  0  0  0  0  0
    0.4832    1.2037   -0.1680 C   0  0  0  0  0  0  0  0  0  0  0  0
    0.2140   -1.0821    1.0717 C   0  0  0  0  0  0  0  0  0  0  0  0
   -0.7950    1.7425    0.4774 C   0  0  0  0  0  0  0  0  0  0  0  0
   -0.5583   -1.8872    0.0287 C   0  0  0  0  0  0  0  0  0  0  0  0
   -2.0874    1.3088   -0.2180 C   0  0  0  0  0  0  0  0  0  0  0  0
   -1.5547   -1.1303   -0.8484 C   0  0  0  0  0  0  0  0  0  0  0  0
   -2.4737   -0.1667   -0.0968 C   0  0  0  0  0  0  0  0  0  0  0  0
    2.2860   -0.5406   -0.2866 C   0  0  0  0  0  0  0  0  0  0  0  0
    3.3370    0.5235   -0.5285 C   0  0  0  0  0  0  0  0  0  0  0  0
  1  2  1  0
  1  3  1  0
  1  9  1  0
  2  4  1  0
  3  5  1  0
  4  6  1  0
  5  7  1  0
  6  8  1  0
  7  8  1  0
  9 10  1  0
M  END
>  <PUBCHEM_COMPOUND_CID>  (1) 
25746

>  <PUBCHEM_CONFORMER_RMSD>  (1) 
0.6

>  <PUBCHEM_CONFORMER_DIVERSEORDER>  (1) 
1
16
11
13
10
15
2
4
9
14
12
5
3
6
7
8

>  <PUBCHEM_MMFF94_PARTIAL_CHARGES>  (1) 
0

>  <PUBCHEM_EFFECTIVE_ROTOR_COUNT>  (1) 
2.6

>  <PUBCHEM_PHARMACOPHORE_FEATURES>  (1) 
1
1 10 hydrophobe

>  <PUBCHEM_HEAVY_ATOM_COUNT>  (1) 
10

>  <PUBCHEM_ATOM_DEF_STEREO_COUNT>  (1) 
0

>  <PUBCHEM_ATOM_UDEF_STEREO_COUNT>  (1) 
0

>  <PUBCHEM_BOND_DEF_STEREO_COUNT>  (1) 
0

>  <PUBCHEM_BOND_UDEF_STEREO_COUNT>  (1) 
0

>  <PUBCHEM_ISOTOPIC_ATOM_COUNT>  (1) 
0

>  <PUBCHEM_COMPONENT_COUNT>  (1) 
1

>  <PUBCHEM_CACTVS_TAUTO_COUNT>  (1) 
1

>  <PUBCHEM_CONFORMER_ID>  (1) 
0000649200000001

>  <PUBCHEM_MMFF94_ENERGY>  (1) 
18.8491

>  <PUBCHEM_FEATURE_SELFOVERLAP>  (1) 
5.074

>  <PUBCHEM_SHAPE_FINGERPRINT>  (1) 
10353120 184 18336263534959565743
12716758 59 18342737395088981218
12897270 3 18343302578451776780
13024252 1 17821737168646938434
15310529 11 16950834834745588845
15775835 57 18188493471258993092
16714656 1 18413388717854746055
16945 1 18340197574457170314
18185500 45 18337091385710986321
20653085 51 18336843986973205490
20828058 34 18335143094093176590
21040471 1 18196639714370244985
22802520 49 18200048247809067278
23235685 24 18340201891231833021
23552423 10 18118961390984581491
241688 4 18194955473236723585
2748010 2 18051958509950583135
29004967 10 15626216905849338618
353137 74 18335136488259551228
5084963 1 18131066056571280771
528716 315 18339090388113298284
528862 383 17899977127810758043
6333449 129 18343020016917028824
66348 1 18267576901880643737

>  <PUBCHEM_SHAPE_MULTIPOLES>  (1) 
205.8
3.8
1.9
0.9
2.21
0.02
-0.07
-0.57
0.99
-0.75
-0.09
0.03
0.15
-0.25

>  <PUBCHEM_SHAPE_SELFOVERLAP>  (1) 
385.624

>  <PUBCHEM_SHAPE_VOLUME>  (1) 
126.6

>  <PUBCHEM_COORDINATE_TYPE>  (1) 
2
5
10

$$$$
