25753
     RDKit          3D

 14 14  0  0  0  0  0  0  0  0999 V2000
   -2.9338   -1.0976   -0.0003 O   0  0  0  0  0  0  0  0  0  0  0  0
   -2.9341    1.0977    0.0005 O   0  0  0  0  0  0  0  0  0  0  0  0
   -2.3313    0.0002    0.0000 N   0  0  0  0  0  0  0  0  0  0  0  0
    3.2986   -0.0005    0.0007 N   0  0  0  0  0  0  0  0  0  0  0  0
   -0.2087   -1.2078   -0.0001 C   0  0  0  0  0  0  0  0  0  0  0  0
   -0.2084    1.2081    0.0000 C   0  0  0  0  0  0  0  0  0  0  0  0
    1.1862   -1.2080   -0.0003 C   0  0  0  0  0  0  0  0  0  0  0  0
    1.1865    1.2080   -0.0003 C   0  0  0  0  0  0  0  0  0  0  0  0
   -0.9059    0.0003    0.0001 C   0  0  0  0  0  0  0  0  0  0  0  0
    1.8838   -0.0002   -0.0005 C   0  0  0  0  0  0  0  0  0  0  0  0
   -0.9494   -2.5098    0.0002 C   0  0  0  0  0  0  0  0  0  0  0  0
   -0.9488    2.5101    0.0001 C   0  0  0  0  0  0  0  0  0  0  0  0
    1.9321   -2.5063    0.0002 C   0  0  0  0  0  0  0  0  0  0  0  0
    1.9331    2.5058   -0.0001 C   0  0  0  0  0  0  0  0  0  0  0  0
  1  3  1  0
  2  3  2  0
  3  9  1  0
  4 10  1  0
  5  7  2  0
  5  9  1  0
  5 11  1  0
  6  8  1  0
  6  9  2  0
  6 12  1  0
  7 10  1  0
  7 13  1  0
  8 10  2  0
  8 14  1  0
M  CHG  2   1  -1   3   1
M  END
>  <PUBCHEM_COMPOUND_CID>  (1) 
25753

>  <PUBCHEM_CONFORMER_RMSD>  (1) 
0.4

>  <PUBCHEM_CONFORMER_DIVERSEORDER>  (1) 
1

>  <PUBCHEM_MMFF94_PARTIAL_CHARGES>  (1) 
16
1 -0.52
10 0.1
11 0.14
12 0.14
13 0.14
14 0.14
2 -0.52
27 0.4
28 0.4
3 0.91
4 -0.9
5 -0.14
6 -0.14
7 -0.14
8 -0.14
9 0.13

>  <PUBCHEM_EFFECTIVE_ROTOR_COUNT>  (1) 
1

>  <PUBCHEM_PHARMACOPHORE_FEATURES>  (1) 
6
1 1 acceptor
1 1 anion
1 2 acceptor
1 4 cation
1 4 donor
6 5 6 7 8 9 10 rings

>  <PUBCHEM_HEAVY_ATOM_COUNT>  (1) 
14

>  <PUBCHEM_ATOM_DEF_STEREO_COUNT>  (1) 
0

>  <PUBCHEM_ATOM_UDEF_STEREO_COUNT>  (1) 
0

>  <PUBCHEM_BOND_DEF_STEREO_COUNT>  (1) 
0

>  <PUBCHEM_BOND_UDEF_STEREO_COUNT>  (1) 
0

>  <PUBCHEM_ISOTOPIC_ATOM_COUNT>  (1) 
0

>  <PUBCHEM_COMPONENT_COUNT>  (1) 
1

>  <PUBCHEM_CACTVS_TAUTO_COUNT>  (1) 
1

>  <PUBCHEM_CONFORMER_ID>  (1) 
0000649900000001

>  <PUBCHEM_MMFF94_ENERGY>  (1) 
85.0715

>  <PUBCHEM_FEATURE_SELFOVERLAP>  (1) 
30.527

>  <PUBCHEM_SHAPE_FINGERPRINT>  (1) 
10967382 1 18266741289970156549
11471102 20 18265609871637266541
11471102 22 18263105295628159563
13140716 1 18266458896165779160
13380535 76 18121775294721966138
16945 1 18410575084852969990
17990270 104 18409728426397659779
193761 8 18410855460302228612
20588541 1 18410578383456619982
21501502 16 18122908624938074552
2334 1 17978511167490475650
23463225 33 18263921206175506280
23526114 1 18122626321169721972
23552423 10 18409169917519459325
23559900 14 18342750624532648428
241688 4 17906172854368982512
2748010 2 18122345950025934652
2897 32 18409730642595353844
528886 8 18411412882685520153
53812653 166 18342452621566987328
63268167 104 18339646629048130825
66348 1 18410576162710432729
7364860 26 18342175566174719616

>  <PUBCHEM_SHAPE_MULTIPOLES>  (1) 
266.41
3.76
3.12
0.59
0.68
0
0
0
0
-0.54
0
-0.04
0
0

>  <PUBCHEM_SHAPE_SELFOVERLAP>  (1) 
563.697

>  <PUBCHEM_SHAPE_VOLUME>  (1) 
152.9

>  <PUBCHEM_COORDINATE_TYPE>  (1) 
2
5
10

$$$$
