25755
     RDKit          3D

 22 23  0  0  1  0  0  0  0  0999 V2000
   -4.8939   -0.1721   -1.6493 O   0  0  0  0  0  0  0  0  0  0  0  0
   -5.4690   -1.5776    0.6785 O   0  0  0  0  0  0  0  0  0  0  0  0
    1.2938    2.2355    0.0903 N   0  0  0  0  0  0  0  0  0  0  0  0
    2.5227    1.5579   -0.3335 C   0  0  0  0  0  0  0  0  0  0  0  0
    2.7888    0.3537    0.5881 C   0  0  0  0  0  0  0  0  0  0  0  0
    0.1751    1.3077    0.0988 C   0  0  0  0  0  0  0  0  0  0  0  0
   -1.1126    2.0063    0.5368 C   0  0  0  0  0  0  0  0  0  0  0  0
    3.6641    2.5750   -0.3135 C   0  0  0  0  0  0  0  0  0  0  0  0
    4.0168   -0.4386    0.2082 C   0  0  0  0  0  0  0  0  0  0  0  0
   -2.2773    1.0490    0.5717 C   0  0  0  0  0  0  0  0  0  0  0  0
    3.8956   -1.4941   -0.6814 C   0  0  0  0  0  0  0  0  0  0  0  0
    5.2426   -0.0960    0.7564 C   0  0  0  0  0  0  0  0  0  0  0  0
   -3.0525    0.8794   -0.5654 C   0  0  0  0  0  0  0  0  0  0  0  0
   -2.5536    0.3549    1.7397 C   0  0  0  0  0  0  0  0  0  0  0  0
   -4.1301   -0.0057   -0.5335 C   0  0  0  0  0  0  0  0  0  0  0  0
   -3.6312   -0.5301    1.7715 C   0  0  0  0  0  0  0  0  0  0  0  0
   -4.4195   -0.7104    0.6349 C   0  0  0  0  0  0  0  0  0  0  0  0
    5.0298   -2.2261   -1.0324 C   0  0  0  0  0  0  0  0  0  0  0  0
    6.3769   -0.8280    0.4054 C   0  0  0  0  0  0  0  0  0  0  0  0
    6.2705   -1.8932   -0.4890 C   0  0  0  0  0  0  0  0  0  0  0  0
   -4.5313    0.5854   -2.8019 C   0  0  0  0  0  0  0  0  0  0  0  0
   -5.2057   -2.9327    0.3197 C   0  0  0  0  0  0  0  0  0  0  0  0
  1 15  1  0
  1 21  1  0
  2 17  1  0
  2 22  1  0
  3  4  1  0
  3  6  1  0
  4  5  1  0
  4  8  1  0
  5  9  1  0
  6  7  1  0
  7 10  1  0
  9 11  2  0
  9 12  1  0
 10 13  2  0
 10 14  1  0
 11 18  1  0
 12 19  2  0
 13 15  1  0
 14 16  2  0
 15 17  2  0
 16 17  1  0
 18 20  2  0
 19 20  1  0
M  END
>  <PUBCHEM_COMPOUND_CID>  (1) 
25755

>  <PUBCHEM_CONFORMER_RMSD>  (1) 
0.8

>  <PUBCHEM_CONFORMER_DIVERSEORDER>  (1) 
84
120
60
288
116
20
221
30
203
258
188
240
118
110
121
232
307
195
68
229
206
141
253
83
87
280
64
32
249
12
231
99
191
190
25
266
126
13
156
3
301
259
113
63
38
50
294
148
262
296
227
65
286
275
250
196
75
222
162
17
71
144
154
247
220
299
199
270
309
81
92
289
261
123
15
48
37
29
43
310
230
91
277
214
134
122
28
34
316
88
89
159
82
158
272
208
254
245
86
61
267
143
210
146
73
311
94
239
5
295
238
52
184
170
285
57
155
200
133
93
265
169
44
244
183
26
218
273
202
179
119
33
4
76
176
304
55
300
161
279
305
59
24
223
97
111
263
49
315
181
173
318
132
302
174
256
283
96
317
241
269
140
205
128
268
180
260
108
45
150
137
298
168
106
320
308
197
6
167
58
39
95
138
129
313
22
274
80
187
151
291
112
251
292
182
77
56
27
243
103
142
152
194
248
124
219
100
62
69
145
149
217
7
131
165
23
127
213
109
257
193
31
216
153
185
53
287
70
125
11
319
192
85
9
293
115
101
54
198
157
19
14
177
204
207
90
201
186
237
228
276
212
211
236
67
139
164
160
242
226
102
10
290
163
114
246
281
74
18
172
297
16
303
107
105
278
178
171
117
175
215
2
282
264
35
306
136
8
314
36
312
135
1
189
130
47
72
224
147
255
78
225
284
51
41
233
66
166
252
235
79
271
98
104
40
21
42
234
209
46

>  <PUBCHEM_MMFF94_PARTIAL_CHARGES>  (1) 
30
1 -0.36
10 -0.14
11 -0.15
12 -0.15
13 -0.15
14 -0.15
15 0.08
16 -0.15
17 0.08
18 -0.15
19 -0.15
2 -0.36
20 -0.15
21 0.28
22 0.28
28 0.36
3 -0.9
34 0.15
35 0.15
36 0.15
37 0.15
38 0.15
39 0.15
4 0.27
40 0.15
41 0.15
5 0.14
6 0.27
7 0.14
9 -0.14

>  <PUBCHEM_EFFECTIVE_ROTOR_COUNT>  (1) 
8

>  <PUBCHEM_PHARMACOPHORE_FEATURES>  (1) 
6
1 1 acceptor
1 2 acceptor
1 3 cation
1 3 donor
6 10 13 14 15 16 17 rings
6 9 11 12 18 19 20 rings

>  <PUBCHEM_HEAVY_ATOM_COUNT>  (1) 
22

>  <PUBCHEM_ATOM_DEF_STEREO_COUNT>  (1) 
0

>  <PUBCHEM_ATOM_UDEF_STEREO_COUNT>  (1) 
1

>  <PUBCHEM_BOND_DEF_STEREO_COUNT>  (1) 
0

>  <PUBCHEM_BOND_UDEF_STEREO_COUNT>  (1) 
0

>  <PUBCHEM_ISOTOPIC_ATOM_COUNT>  (1) 
0

>  <PUBCHEM_COMPONENT_COUNT>  (1) 
1

>  <PUBCHEM_CACTVS_TAUTO_COUNT>  (1) 
1

>  <PUBCHEM_CONFORMER_ID>  (1) 
0000649B00000054

>  <PUBCHEM_MMFF94_ENERGY>  (1) 
69.7983

>  <PUBCHEM_FEATURE_SELFOVERLAP>  (1) 
30.45

>  <PUBCHEM_SHAPE_FINGERPRINT>  (1) 
10 15 12679168428085064506
10319926 262 14189586225462903420
10670039 82 14923936838803251935
10803635 8 17095523972091075074
11796584 16 18261383438670094273
12596602 18 16128649739668457874
12616971 3 18060423529624348333
12633257 1 15195282053584091737
13103583 49 16343987974891580424
13533116 47 18272374225499507361
1420 369 18342463629557532952
14251740 57 18272098201506006470
14251751 18 18333452057841637270
14251757 5 15719391698703997485
14341114 328 14979955886807367506
14848178 5 18412544297404210800
14848178 96 10809643540269773302
14950920 106 15482376625529141163
15183329 4 16226042271378825848
15188451 53 16415183586263059381
15880784 105 17489301963051718018
17780758 139 17632301142419709393
17857418 61 17846775200385270212
17870717 6 17676206862394322577
18222031 100 18409726223939332016
19377110 9 16988562441828303216
193927 3 18336838519606678848
20028762 73 18342742927229313894
20281389 69 9295283941681602542
20645477 70 18334577975223878008
21033650 10 16588019083229808901
22061861 79 18260546735948683749
22393880 68 17894621561248550865
22849339 104 16154001269337653227
23198884 109 15213020436173276819
23559900 14 18113894991838791632
25122255 55 18410299120214181987
2838139 119 7853566886419416378
3004659 81 18113898277541046552
314194 84 18059852887511132912
34797466 226 17095811043479224853
46194498 28 17460035299787896901
5104073 3 17989215853669221425
6431902 208 18272368650800833334
7970288 3 18412830195955201946

>  <PUBCHEM_SHAPE_MULTIPOLES>  (1) 
436.03
17.16
2.67
1.6
8.12
0.37
0.75
11.85
2.1
0.87
0.17
-2.81
-0.01
1.47

>  <PUBCHEM_SHAPE_SELFOVERLAP>  (1) 
903.976

>  <PUBCHEM_SHAPE_VOLUME>  (1) 
249.9

>  <PUBCHEM_COORDINATE_TYPE>  (1) 
2
5
10

$$$$
