25766
     RDKit          3D

 13 13  0  0  0  0  0  0  0  0999 V2000
   -3.5162    0.0517   -0.2510 N   0  0  0  0  0  0  0  0  0  0  0  0
   -1.3304   -0.2051    0.7321 N   0  0  0  0  0  0  0  0  0  0  0  0
    2.1514    0.8497    0.0913 C   0  0  0  0  0  0  0  0  0  0  0  0
    2.7498   -0.3768   -0.1976 C   0  0  0  0  0  0  0  0  0  0  0  0
    0.7924    0.9071    0.4006 C   0  0  0  0  0  0  0  0  0  0  0  0
    0.0384   -0.2623    0.4194 C   0  0  0  0  0  0  0  0  0  0  0  0
    1.9893   -1.5457   -0.1774 C   0  0  0  0  0  0  0  0  0  0  0  0
    0.6303   -1.4884    0.1318 C   0  0  0  0  0  0  0  0  0  0  0  0
    2.9456    2.1145    0.0761 C   0  0  0  0  0  0  0  0  0  0  0  0
    4.2029   -0.4627   -0.5315 C   0  0  0  0  0  0  0  0  0  0  0  0
   -2.1361   -0.0389   -0.2698 C   0  0  0  0  0  0  0  0  0  0  0  0
   -4.2580   -0.0362    0.9989 C   0  0  0  0  0  0  0  0  0  0  0  0
   -4.2593    0.4930   -1.4230 C   0  0  0  0  0  0  0  0  0  0  0  0
  1 11  1  0
  1 12  1  0
  1 13  1  0
  2  6  1  0
  2 11  2  0
  3  4  2  0
  3  5  1  0
  3  9  1  0
  4  7  1  0
  4 10  1  0
  5  6  2  0
  6  8  1  0
  7  8  2  0
M  END
>  <PUBCHEM_COMPOUND_CID>  (1) 
25766

>  <PUBCHEM_CONFORMER_RMSD>  (1) 
0.6

>  <PUBCHEM_CONFORMER_DIVERSEORDER>  (1) 
1
4
3
2

>  <PUBCHEM_MMFF94_PARTIAL_CHARGES>  (1) 
17
1 -0.79
10 0.14
11 0.44
12 0.37
13 0.37
14 0.15
15 0.15
16 0.15
2 -0.63
23 0.06
3 -0.14
4 -0.14
5 -0.15
6 0.18
7 -0.15
8 -0.15
9 0.14

>  <PUBCHEM_EFFECTIVE_ROTOR_COUNT>  (1) 
2

>  <PUBCHEM_PHARMACOPHORE_FEATURES>  (1) 
2
3 1 2 11 cation
6 3 4 5 6 7 8 rings

>  <PUBCHEM_HEAVY_ATOM_COUNT>  (1) 
13

>  <PUBCHEM_ATOM_DEF_STEREO_COUNT>  (1) 
0

>  <PUBCHEM_ATOM_UDEF_STEREO_COUNT>  (1) 
0

>  <PUBCHEM_BOND_DEF_STEREO_COUNT>  (1) 
0

>  <PUBCHEM_BOND_UDEF_STEREO_COUNT>  (1) 
0

>  <PUBCHEM_ISOTOPIC_ATOM_COUNT>  (1) 
0

>  <PUBCHEM_COMPONENT_COUNT>  (1) 
1

>  <PUBCHEM_CACTVS_TAUTO_COUNT>  (1) 
1

>  <PUBCHEM_CONFORMER_ID>  (1) 
000064A600000001

>  <PUBCHEM_MMFF94_ENERGY>  (1) 
34.585

>  <PUBCHEM_FEATURE_SELFOVERLAP>  (1) 
10.148

>  <PUBCHEM_SHAPE_FINGERPRINT>  (1) 
10608611 8 18260545636801098117
11401426 45 18342452643331908946
11471102 20 18411698785921231916
12500047 106 17385725806914581107
12654215 9 18335135393264495300
12932764 1 17967246503455411099
13922767 16 18409443696283975792
14251717 144 18343579637985926758
14415576 193 18408887342931056661
14911166 2 18411992355879425614
14993402 34 17988923357785024278
15219456 202 18261680375507841675
16945 1 18341065046820272122
18186145 218 18411139147192391027
19422 9 17704071815541522679
200 152 17989487402881019001
20279233 1 17894630344894592411
20606313 2 18411135844552658788
20645477 70 18272092698983292870
21119208 17 17988641882750154855
21499 59 18268708475207260284
21639500 275 18342451594869544721
22485316 2 14117517619059762895
231179 274 17968088724819244308
23402539 116 16702301221970965072
23402655 69 18341046329067959637
23557571 272 17313109635858919223
25 1 18408888433926479290
2748010 2 18124047977246951738
3060560 45 18342455920255092118
4072396 5 18263346046104946394
77492 1 17489593346402007331

>  <PUBCHEM_SHAPE_MULTIPOLES>  (1) 
257.57
8.19
1.51
0.94
6.82
0.3
0.13
1.04
1.58
-1.69
-0.02
0.98
0.06
0.45

>  <PUBCHEM_SHAPE_SELFOVERLAP>  (1) 
521.561

>  <PUBCHEM_SHAPE_VOLUME>  (1) 
152.2

>  <PUBCHEM_COORDINATE_TYPE>  (1) 
2
5
10

$$$$
