25762
     RDKit          3D

 19 22  0  0  0  0  0  0  0  0999 V2000
   -5.1431   -0.4847   -0.0004 O   0  0  0  0  0  0  0  0  0  0  0  0
   -4.4454    1.5967    0.0002 O   0  0  0  0  0  0  0  0  0  0  0  0
   -4.2188    0.3630   -0.0003 N   0  0  0  0  0  0  0  0  0  0  0  0
    1.7436    0.0761    0.0001 C   0  0  0  0  0  0  0  0  0  0  0  0
    0.7512    1.0464    0.0002 C   0  0  0  0  0  0  0  0  0  0  0  0
    1.1788   -1.1918    0.0001 C   0  0  0  0  0  0  0  0  0  0  0  0
   -0.5363    0.3657    0.0004 C   0  0  0  0  0  0  0  0  0  0  0  0
   -0.2690   -1.0338    0.0004 C   0  0  0  0  0  0  0  0  0  0  0  0
    3.1120    0.3376   -0.0001 C   0  0  0  0  0  0  0  0  0  0  0  0
    1.1139    2.3804    0.0001 C   0  0  0  0  0  0  0  0  0  0  0  0
    2.0079   -2.2980    0.0001 C   0  0  0  0  0  0  0  0  0  0  0  0
   -1.8319    0.8459    0.0001 C   0  0  0  0  0  0  0  0  0  0  0  0
   -1.2963   -1.9579    0.0000 C   0  0  0  0  0  0  0  0  0  0  0  0
    3.4769    1.6980   -0.0002 C   0  0  0  0  0  0  0  0  0  0  0  0
    3.9528   -0.7926   -0.0002 C   0  0  0  0  0  0  0  0  0  0  0  0
   -2.8714   -0.0887   -0.0001 C   0  0  0  0  0  0  0  0  0  0  0  0
    2.4832    2.7009   -0.0002 C   0  0  0  0  0  0  0  0  0  0  0  0
    3.3989   -2.0911   -0.0001 C   0  0  0  0  0  0  0  0  0  0  0  0
   -2.6072   -1.4722   -0.0001 C   0  0  0  0  0  0  0  0  0  0  0  0
  1  3  1  0
  2  3  2  0
  3 16  1  0
  4  5  1  0
  4  6  2  0
  4  9  1  0
  5  7  1  0
  5 10  2  0
  6  8  1  0
  6 11  1  0
  7  8  2  0
  7 12  1  0
  8 13  1  0
  9 14  1  0
  9 15  2  0
 10 17  1  0
 11 18  2  0
 12 16  2  0
 13 19  2  0
 14 17  2  0
 15 18  1  0
 16 19  1  0
M  CHG  2   1  -1   3   1
M  END
>  <PUBCHEM_COMPOUND_CID>  (1) 
25762

>  <PUBCHEM_CONFORMER_RMSD>  (1) 
0.6

>  <PUBCHEM_CONFORMER_DIVERSEORDER>  (1) 
1

>  <PUBCHEM_MMFF94_PARTIAL_CHARGES>  (1) 
22
1 -0.52
10 -0.15
11 -0.15
12 -0.15
13 -0.15
14 -0.15
15 -0.15
16 0.13
17 -0.15
18 -0.15
19 -0.15
2 -0.52
20 0.15
21 0.15
22 0.15
23 0.15
24 0.15
25 0.15
26 0.15
27 0.15
28 0.15
3 0.91

>  <PUBCHEM_EFFECTIVE_ROTOR_COUNT>  (1) 
1

>  <PUBCHEM_PHARMACOPHORE_FEATURES>  (1) 
7
1 1 acceptor
1 1 anion
1 2 acceptor
5 4 5 6 7 8 rings
6 4 5 9 10 14 17 rings
6 4 6 9 11 15 18 rings
6 7 8 12 13 16 19 rings

>  <PUBCHEM_HEAVY_ATOM_COUNT>  (1) 
19

>  <PUBCHEM_ATOM_DEF_STEREO_COUNT>  (1) 
0

>  <PUBCHEM_ATOM_UDEF_STEREO_COUNT>  (1) 
0

>  <PUBCHEM_BOND_DEF_STEREO_COUNT>  (1) 
0

>  <PUBCHEM_BOND_UDEF_STEREO_COUNT>  (1) 
0

>  <PUBCHEM_ISOTOPIC_ATOM_COUNT>  (1) 
0

>  <PUBCHEM_COMPONENT_COUNT>  (1) 
1

>  <PUBCHEM_CACTVS_TAUTO_COUNT>  (1) 
1

>  <PUBCHEM_CONFORMER_ID>  (1) 
000064A200000001

>  <PUBCHEM_MMFF94_ENERGY>  (1) 
82.1984

>  <PUBCHEM_FEATURE_SELFOVERLAP>  (1) 
35.907

>  <PUBCHEM_SHAPE_FINGERPRINT>  (1) 
10411042 1 18050568435254216834
10608611 8 18408884074603180605
10616163 171 18195529422253723887
10967382 1 18410855473361268768
11471102 20 18410571794797251590
11578080 2 13986391022389540708
11680986 33 18335991955424065819
116883 192 18126571124277474116
12173636 292 17473263653041348780
12403259 226 18335414621841610453
12403259 415 18040994021575449133
12507560 14 18271240500367985854
12553582 1 18265885857551158542
13140716 1 18337945813815168744
138480 1 18338798914705858286
14178342 30 18052238881168243274
14790565 3 18047760591979353268
14866123 147 17116921314624281418
15196674 1 18410855477498071459
15219456 202 18335986470803556811
15442244 35 18340207384194265896
15475509 35 16950280676711491083
15475509 8 17555764030335404516
15536298 74 18342175583117309418
1601671 61 18410295800605148436
16945 1 18410575080790182726
17492 89 18340205297009868063
18186145 218 17821721745503995383
19591789 44 18265051319186679959
200 152 18059852857367084627
20645477 70 18341896289868174782
21267235 1 18339652156771735022
21421861 104 17896309230399016786
21452121 103 18342447175954677104
21478907 32 17689717459271130898
21501502 16 18339075016082610174
221490 88 18336272335126360050
22854114 111 18409449219168826188
2334 1 18194683906870955264
23366157 5 18041558148001528606
23402539 116 18200020738321886367
23463225 33 18410855451960376294
23558518 356 17826793938735364802
23559900 14 18342173358714737778
25 1 18335699498500653364
2748010 2 18265898136935815780
335352 9 18410573946728997398
34934 24 18412257346623960890
474 4 18115589395101883500
495365 180 17774711060912128840
5104073 3 18409731781067688715
543358 83 18411986836318864376
5939293 188 18411978079292004448
602551 16 16009611186016578913
69090 78 18412259545494398111
7364860 26 18412826906394699302
7832392 63 18412822521022217030
8272917 22 18412831291144943030
84936 182 18057884847454712344
9709674 26 18337957886715653459
9981440 41 17689710183527869544

>  <PUBCHEM_SHAPE_MULTIPOLES>  (1) 
374.29
7.84
2.73
0.6
7.64
0.42
0
0.55
0
-2.02
0
-0.07
-0.01
0

>  <PUBCHEM_SHAPE_SELFOVERLAP>  (1) 
869.552

>  <PUBCHEM_SHAPE_VOLUME>  (1) 
194.1

>  <PUBCHEM_COORDINATE_TYPE>  (1) 
2
5
10

$$$$
