25764
     RDKit          3D

 12 12  0  0  0  0  0  0  0  0999 V2000
   -4.8162   -0.1818   -0.5381 Br  0  0  0  0  0  0  0  0  0  0  0  0
    3.3080   -0.0085   -0.2713 N   0  0  0  0  0  0  0  0  0  0  0  0
    1.1187    0.2260    0.7099 N   0  0  0  0  0  0  0  0  0  0  0  0
   -0.2534    0.1318    0.4218 C   0  0  0  0  0  0  0  0  0  0  0  0
    1.9248   -0.0266   -0.2734 C   0  0  0  0  0  0  0  0  0  0  0  0
    4.0531    0.3212    0.9354 C   0  0  0  0  0  0  0  0  0  0  0  0
    4.0715   -0.5625   -1.3807 C   0  0  0  0  0  0  0  0  0  0  0  0
   -0.9134   -1.0813    0.5920 C   0  0  0  0  0  0  0  0  0  0  0  0
   -0.9424    1.2525   -0.0322 C   0  0  0  0  0  0  0  0  0  0  0  0
   -2.2753   -1.1749    0.3053 C   0  0  0  0  0  0  0  0  0  0  0  0
   -2.3044    1.1590   -0.3188 C   0  0  0  0  0  0  0  0  0  0  0  0
   -2.9709   -0.0548   -0.1499 C   0  0  0  0  0  0  0  0  0  0  0  0
  1 12  1  0
  2  5  1  0
  2  6  1  0
  2  7  1  0
  3  4  1  0
  3  5  2  0
  4  8  2  0
  4  9  1  0
  8 10  1  0
  9 11  2  0
 10 12  2  0
 11 12  1  0
M  END
>  <PUBCHEM_COMPOUND_CID>  (1) 
25764

>  <PUBCHEM_CONFORMER_RMSD>  (1) 
0.6

>  <PUBCHEM_CONFORMER_DIVERSEORDER>  (1) 
1
2

>  <PUBCHEM_MMFF94_PARTIAL_CHARGES>  (1) 
17
1 -0.11
10 -0.15
11 -0.15
12 0.11
13 0.06
2 -0.79
20 0.15
21 0.15
22 0.15
23 0.15
3 -0.63
4 0.18
5 0.44
6 0.37
7 0.37
8 -0.15
9 -0.15

>  <PUBCHEM_EFFECTIVE_ROTOR_COUNT>  (1) 
2

>  <PUBCHEM_PHARMACOPHORE_FEATURES>  (1) 
3
1 1 hydrophobe
3 2 3 5 cation
6 4 8 9 10 11 12 rings

>  <PUBCHEM_HEAVY_ATOM_COUNT>  (1) 
12

>  <PUBCHEM_ATOM_DEF_STEREO_COUNT>  (1) 
0

>  <PUBCHEM_ATOM_UDEF_STEREO_COUNT>  (1) 
0

>  <PUBCHEM_BOND_DEF_STEREO_COUNT>  (1) 
0

>  <PUBCHEM_BOND_UDEF_STEREO_COUNT>  (1) 
0

>  <PUBCHEM_ISOTOPIC_ATOM_COUNT>  (1) 
0

>  <PUBCHEM_COMPONENT_COUNT>  (1) 
1

>  <PUBCHEM_CACTVS_TAUTO_COUNT>  (1) 
1

>  <PUBCHEM_CONFORMER_ID>  (1) 
000064A400000001

>  <PUBCHEM_MMFF94_ENERGY>  (1) 
29.0045

>  <PUBCHEM_FEATURE_SELFOVERLAP>  (1) 
15.223

>  <PUBCHEM_SHAPE_FINGERPRINT>  (1) 
11062470 55 16630526245471151929
11401426 45 18410002256812371509
12032990 46 18339083791286228419
13296908 3 17918277532761760864
14911166 2 18334006212329458967
14943859 89 15430034370510141753
14993402 34 17748828518539465629
18186145 218 18272091548243144392
187816 3 18334011696807523473
200 152 16773796978399195326
20201158 50 18272937119681624462
20279233 1 18202003239834152610
20645476 183 17240205469038407403
20645477 70 17275109392905844350
21119208 17 17749109993231333111
21293036 1 18259981578835564381
22485316 2 17060335236331287855
22926399 37 15936416649457760253
23048698 100 15864070962183432568
23402539 116 18337379500823200877
23557571 272 18342746173828515988
23559900 14 18410012161260150704
265663 24 15719105855866722649
2748010 2 17973437999755419043
4175511 318 17821721741551854895
69090 78 18131062762152185711

>  <PUBCHEM_SHAPE_MULTIPOLES>  (1) 
242.93
8.78
1.12
0.99
2.59
0.05
-0.15
-0.72
-2.11
-0.6
0.03
0.83
-0.1
0.52

>  <PUBCHEM_SHAPE_SELFOVERLAP>  (1) 
477.808

>  <PUBCHEM_SHAPE_VOLUME>  (1) 
150.4

>  <PUBCHEM_COORDINATE_TYPE>  (1) 
2
5
10

$$$$
