25765
     RDKit          3D

 13 13  0  0  0  0  0  0  0  0999 V2000
    3.5671    1.7991   -0.3071 Cl  0  0  0  0  0  0  0  0  0  0  0  0
   -3.2367    0.0169   -0.2336 N   0  0  0  0  0  0  0  0  0  0  0  0
   -1.0373   -0.2986    0.7010 N   0  0  0  0  0  0  0  0  0  0  0  0
    1.1528    0.6436    0.2184 C   0  0  0  0  0  0  0  0  0  0  0  0
    0.3146   -0.4602    0.3532 C   0  0  0  0  0  0  0  0  0  0  0  0
    2.4917    0.4603   -0.1275 C   0  0  0  0  0  0  0  0  0  0  0  0
    0.8065   -1.7464    0.1442 C   0  0  0  0  0  0  0  0  0  0  0  0
    0.6054    2.0184    0.4485 C   0  0  0  0  0  0  0  0  0  0  0  0
    2.9879   -0.8265   -0.3374 C   0  0  0  0  0  0  0  0  0  0  0  0
    2.1452   -1.9297   -0.2016 C   0  0  0  0  0  0  0  0  0  0  0  0
   -1.8653   -0.1574   -0.2862 C   0  0  0  0  0  0  0  0  0  0  0  0
   -3.9395    0.0647    1.0407 C   0  0  0  0  0  0  0  0  0  0  0  0
   -3.9923    0.4157   -1.4127 C   0  0  0  0  0  0  0  0  0  0  0  0
  1  6  1  0
  2 11  1  0
  2 12  1  0
  2 13  1  0
  3  5  1  0
  3 11  2  0
  4  5  2  0
  4  6  1  0
  4  8  1  0
  5  7  1  0
  6  9  2  0
  7 10  2  0
  9 10  1  0
M  END
>  <PUBCHEM_COMPOUND_CID>  (1) 
25765

>  <PUBCHEM_CONFORMER_RMSD>  (1) 
0.6

>  <PUBCHEM_CONFORMER_DIVERSEORDER>  (1) 
2
3
1

>  <PUBCHEM_MMFF94_PARTIAL_CHARGES>  (1) 
17
1 -0.18
10 -0.15
11 0.44
12 0.37
13 0.37
14 0.15
18 0.15
19 0.15
2 -0.79
20 0.06
3 -0.63
4 -0.14
5 0.18
6 0.18
7 -0.15
8 0.14
9 -0.15

>  <PUBCHEM_EFFECTIVE_ROTOR_COUNT>  (1) 
2

>  <PUBCHEM_PHARMACOPHORE_FEATURES>  (1) 
2
3 2 3 11 cation
6 4 5 6 7 9 10 rings

>  <PUBCHEM_HEAVY_ATOM_COUNT>  (1) 
13

>  <PUBCHEM_ATOM_DEF_STEREO_COUNT>  (1) 
0

>  <PUBCHEM_ATOM_UDEF_STEREO_COUNT>  (1) 
0

>  <PUBCHEM_BOND_DEF_STEREO_COUNT>  (1) 
0

>  <PUBCHEM_BOND_UDEF_STEREO_COUNT>  (1) 
0

>  <PUBCHEM_ISOTOPIC_ATOM_COUNT>  (1) 
0

>  <PUBCHEM_COMPONENT_COUNT>  (1) 
1

>  <PUBCHEM_CACTVS_TAUTO_COUNT>  (1) 
1

>  <PUBCHEM_CONFORMER_ID>  (1) 
000064A500000002

>  <PUBCHEM_MMFF94_ENERGY>  (1) 
34.8909

>  <PUBCHEM_FEATURE_SELFOVERLAP>  (1) 
10.148

>  <PUBCHEM_SHAPE_FINGERPRINT>  (1) 
10608611 8 18187081750163824885
10980938 120 18413105065239945550
11031198 65 18336552697753533078
11471102 20 18410854356348038012
11543360 7 15554171492365373744
12654215 9 18334568023583959196
12932764 1 17418087711564801017
14144814 61 18201719535690209723
14251717 144 18341888589002225990
14617773 55 17845388651845738312
14993402 34 17775002401149020132
15219456 202 18186523211067872483
15775835 57 18342178915901103181
16945 1 18338811017876453130
17844478 74 17968104092576239181
18186145 218 18408611348321916655
19422 9 17917993862946239239
20201158 50 18335138657075701874
20279233 1 17822008701301964043
20606313 2 18410289211840395268
20645477 70 18340200800342016071
20820808 20 18410293644473413720
21499 59 18339079410018569004
21639500 275 18341043111905404565
231179 274 17822002129632840036
23402655 69 18341889676077364389
23557571 272 17023191504857875743
23598291 2 17917993841497581791
25 1 18410578430659003800
2748010 2 18123770883184498606
528886 8 18340767143366651594
581208 293 18341887498301903304
63268167 104 18341897406554163048
77492 1 17632862997103813203
81539 233 18260265282895039886

>  <PUBCHEM_SHAPE_MULTIPOLES>  (1) 
259.44
6.92
1.89
0.94
6.17
0.05
0.12
1.47
1.29
-2.08
-0.02
0.94
0.1
0.17

>  <PUBCHEM_SHAPE_SELFOVERLAP>  (1) 
519.279

>  <PUBCHEM_SHAPE_VOLUME>  (1) 
154.3

>  <PUBCHEM_COORDINATE_TYPE>  (1) 
2
5
10

$$$$
