25778
     RDKit          3D

 20 21  0  0  0  0  0  0  0  0999 V2000
   -3.2187   -3.0380    0.0017 Cl  0  0  0  0  0  0  0  0  0  0  0  0
    3.2197   -3.0383   -0.0018 Cl  0  0  0  0  0  0  0  0  0  0  0  0
   -4.4667    3.0739   -0.0012 Cl  0  0  0  0  0  0  0  0  0  0  0  0
    4.4593    3.0752    0.0012 Cl  0  0  0  0  0  0  0  0  0  0  0  0
    0.0055    1.2279   -0.0004 O   0  0  0  0  0  0  0  0  0  0  0  0
   -1.1545   -0.8069    0.0004 N   0  0  0  0  0  0  0  0  0  0  0  0
    1.1525   -0.8101    0.0002 N   0  0  0  0  0  0  0  0  0  0  0  0
   -2.4942   -0.4065    0.0003 C   0  0  0  0  0  0  0  0  0  0  0  0
    2.5076   -0.4030   -0.0002 C   0  0  0  0  0  0  0  0  0  0  0  0
    0.0064    0.0011    0.0000 C   0  0  0  0  0  0  0  0  0  0  0  0
   -3.5315   -1.3390    0.0004 C   0  0  0  0  0  0  0  0  0  0  0  0
    3.5301   -1.3390   -0.0005 C   0  0  0  0  0  0  0  0  0  0  0  0
   -2.7832    0.9581    0.0000 C   0  0  0  0  0  0  0  0  0  0  0  0
    2.7787    0.9572    0.0003 C   0  0  0  0  0  0  0  0  0  0  0  0
   -4.1094    1.3903   -0.0004 C   0  0  0  0  0  0  0  0  0  0  0  0
    4.1042    1.3912    0.0004 C   0  0  0  0  0  0  0  0  0  0  0  0
   -4.8578   -0.9069    0.0000 C   0  0  0  0  0  0  0  0  0  0  0  0
    4.8558   -0.9049   -0.0003 C   0  0  0  0  0  0  0  0  0  0  0  0
   -5.1466    0.4577   -0.0004 C   0  0  0  0  0  0  0  0  0  0  0  0
    5.1428    0.4600    0.0001 C   0  0  0  0  0  0  0  0  0  0  0  0
  1 11  1  0
  2 12  1  0
  3 15  1  0
  4 16  1  0
  5 10  2  0
  6  8  1  0
  6 10  1  0
  7  9  1  0
  7 10  1  0
  8 11  2  0
  8 13  1  0
  9 12  2  0
  9 14  1  0
 11 17  1  0
 12 18  1  0
 13 15  2  0
 14 16  2  0
 15 19  1  0
 16 20  1  0
 17 19  2  0
 18 20  2  0
M  END
>  <PUBCHEM_COMPOUND_CID>  (1) 
25778

>  <PUBCHEM_CONFORMER_RMSD>  (1) 
0.6

>  <PUBCHEM_CONFORMER_DIVERSEORDER>  (1) 
1
6
5
7
4
3
2
8

>  <PUBCHEM_MMFF94_PARTIAL_CHARGES>  (1) 
28
1 -0.18
10 0.69
11 0.18
12 0.18
13 -0.15
14 -0.15
15 0.18
16 0.18
17 -0.15
18 -0.15
19 -0.15
2 -0.18
20 -0.15
21 0.37
22 0.37
23 0.15
24 0.15
25 0.15
26 0.15
27 0.15
28 0.15
3 -0.18
4 -0.18
5 -0.57
6 -0.55
7 -0.55
8 0.12
9 0.12

>  <PUBCHEM_EFFECTIVE_ROTOR_COUNT>  (1) 
4

>  <PUBCHEM_PHARMACOPHORE_FEATURES>  (1) 
5
1 5 acceptor
1 6 donor
1 7 donor
6 8 11 13 15 17 19 rings
6 9 12 14 16 18 20 rings

>  <PUBCHEM_HEAVY_ATOM_COUNT>  (1) 
20

>  <PUBCHEM_ATOM_DEF_STEREO_COUNT>  (1) 
0

>  <PUBCHEM_ATOM_UDEF_STEREO_COUNT>  (1) 
0

>  <PUBCHEM_BOND_DEF_STEREO_COUNT>  (1) 
0

>  <PUBCHEM_BOND_UDEF_STEREO_COUNT>  (1) 
0

>  <PUBCHEM_ISOTOPIC_ATOM_COUNT>  (1) 
0

>  <PUBCHEM_COMPONENT_COUNT>  (1) 
1

>  <PUBCHEM_CACTVS_TAUTO_COUNT>  (1) 
2

>  <PUBCHEM_CONFORMER_ID>  (1) 
000064B200000001

>  <PUBCHEM_MMFF94_ENERGY>  (1) 
58.8746

>  <PUBCHEM_FEATURE_SELFOVERLAP>  (1) 
25.421

>  <PUBCHEM_SHAPE_FINGERPRINT>  (1) 
10595046 47 18411417345098609279
10616163 171 18412545448276923127
11370993 144 18263643974599980693
11405975 8 18408602539491672882
12107183 9 17834113048285909779
12788726 201 17417535692113432993
13073987 5 18409167675746952099
13167823 11 18410854360616962759
13583140 156 17988637549165017819
13675066 3 18040443165674692649
14341114 176 18411707598919862125
14528608 73 18339364170940751244
15042514 8 18336552737511409019
15196674 1 18410575084663390725
15250474 111 18339909489537425574
17834072 33 18412262860860698678
17844677 252 18411144631723443521
17959699 21 18410575080516285656
1813 80 16877948217387802423
20286276 3 18410581673243832854
20645477 56 18334859390255305501
20645477 70 18272091557023249574
21065198 57 18410292488726303782
21267235 1 18410582781244765667
21315763 129 18410008849466117928
21315764 268 18335135350399634485
21421861 104 17751633257028300330
21709351 56 18412258446124903262
23402539 116 18342450444582797973
23557571 272 18343872112384607485
23559900 14 18269835333356221914
239999 70 18272940414697189286
245318 6 16810402143272447076
300161 21 18409160013282735119
3004659 81 18335985264492850418
34797466 226 17845665853198178892
3545911 37 18410857663446384654
4073 2 18113906000319662330
4214541 1 18410573963951064165
5104073 3 18335421257302053496
5283173 99 18338515244616263905
543358 83 18338801100707185506
633830 44 18335133176676450094
67856867 119 18410567410221185536
77779 3 18410575084663098402
8272917 22 18412829054110865374
90127 26 18335712632231043952
9709674 26 18410862044424530462
9971528 1 17894349990719788540

>  <PUBCHEM_SHAPE_MULTIPOLES>  (1) 
403.24
13.62
3.39
0.61
0.05
0.17
0
3.45
0
0
0
0
0
0

>  <PUBCHEM_SHAPE_SELFOVERLAP>  (1) 
826.609

>  <PUBCHEM_SHAPE_VOLUME>  (1) 
234.8

>  <PUBCHEM_COORDINATE_TYPE>  (1) 
2
5
10

$$$$
