25777
     RDKit          3D

 16 16  0  0  0  0  0  0  0  0999 V2000
   -0.3412   -1.4734   -0.3772 O   0  0  0  0  0  0  0  0  0  0  0  0
    1.3738    0.3348    0.8565 O   0  0  0  0  0  0  0  0  0  0  0  0
   -3.7589    1.8492   -0.4684 O   0  0  0  0  0  0  0  0  0  0  0  0
    2.0746    1.0565   -1.2398 O   0  0  0  0  0  0  0  0  0  0  0  0
    3.5868    0.1680    0.2789 N   0  0  0  0  0  0  0  0  0  0  0  0
   -1.0669   -2.5447    0.2227 C   0  0  0  0  0  0  0  0  0  0  0  0
   -0.7569   -0.2079   -0.0920 C   0  0  0  0  0  0  0  0  0  0  0  0
   -1.6820   -3.4063   -0.8696 C   0  0  0  0  0  0  0  0  0  0  0  0
   -0.1315   -3.3448    1.1163 C   0  0  0  0  0  0  0  0  0  0  0  0
    0.1033    0.6992    0.5266 C   0  0  0  0  0  0  0  0  0  0  0  0
   -2.0549    0.1784   -0.4260 C   0  0  0  0  0  0  0  0  0  0  0  0
   -0.3345    1.9926    0.8115 C   0  0  0  0  0  0  0  0  0  0  0  0
   -2.4927    1.4718   -0.1414 C   0  0  0  0  0  0  0  0  0  0  0  0
   -1.6325    2.3789    0.4774 C   0  0  0  0  0  0  0  0  0  0  0  0
    2.3359    0.5669   -0.1448 C   0  0  0  0  0  0  0  0  0  0  0  0
    4.7777    0.2807   -0.5307 C   0  0  0  0  0  0  0  0  0  0  0  0
  1  6  1  0
  1  7  1  0
  2 10  1  0
  2 15  1  0
  3 13  1  0
  4 15  2  0
  5 15  1  0
  5 16  1  0
  6  8  1  0
  6  9  1  0
  7 10  2  0
  7 11  1  0
 10 12  1  0
 11 13  2  0
 12 14  2  0
 13 14  1  0
M  END
>  <PUBCHEM_COMPOUND_CID>  (1) 
25777

>  <PUBCHEM_CONFORMER_RMSD>  (1) 
0.6

>  <PUBCHEM_CONFORMER_DIVERSEORDER>  (1) 
1
77
94
104
47
42
109
114
101
45
99
46
33
48
71
106
36
54
75
105
98
56
72
67
69
21
80
60
111
59
90
30
74
13
41
88
76
118
112
35
102
26
50
86
110
63
53
93
38
24
66
22
116
29
65
68
70
89
64
113
51
87
20
10
32
96
73
16
14
81
17
7
55
85
100
117
103
6
27
95
9
82
78
84
5
19
31
79
97
23
15
91
108
92
4
61
52
2
57
58
34
18
49
43
8
107
62
25
83
39
44
115
28
37
3
40
12
11

>  <PUBCHEM_MMFF94_PARTIAL_CHARGES>  (1) 
19
1 -0.36
10 0.08
11 -0.15
12 -0.15
13 0.08
14 -0.15
15 0.78
16 0.3
2 -0.23
24 0.15
25 0.15
26 0.15
27 0.45
28 0.37
3 -0.53
4 -0.57
5 -0.73
6 0.28
7 0.08

>  <PUBCHEM_EFFECTIVE_ROTOR_COUNT>  (1) 
5

>  <PUBCHEM_PHARMACOPHORE_FEATURES>  (1) 
6
1 1 acceptor
1 3 donor
1 4 acceptor
1 5 donor
3 6 8 9 hydrophobe
6 7 10 11 12 13 14 rings

>  <PUBCHEM_HEAVY_ATOM_COUNT>  (1) 
16

>  <PUBCHEM_ATOM_DEF_STEREO_COUNT>  (1) 
0

>  <PUBCHEM_ATOM_UDEF_STEREO_COUNT>  (1) 
0

>  <PUBCHEM_BOND_DEF_STEREO_COUNT>  (1) 
0

>  <PUBCHEM_BOND_UDEF_STEREO_COUNT>  (1) 
0

>  <PUBCHEM_ISOTOPIC_ATOM_COUNT>  (1) 
0

>  <PUBCHEM_COMPONENT_COUNT>  (1) 
1

>  <PUBCHEM_CACTVS_TAUTO_COUNT>  (1) 
6

>  <PUBCHEM_CONFORMER_ID>  (1) 
000064B100000001

>  <PUBCHEM_MMFF94_ENERGY>  (1) 
45.2743

>  <PUBCHEM_FEATURE_SELFOVERLAP>  (1) 
30.446

>  <PUBCHEM_SHAPE_FINGERPRINT>  (1) 
116883 192 17910099545594625767
12500047 106 18411416207422899212
12553582 1 17762064632878403602
12592029 89 18117561721266699651
12644460 14 17547872754142857945
14115302 16 18409452518015303388
16752209 62 18336816593624650275
16945 1 18341045306623110929
18534176 82 18273221915021541308
20645476 183 18333450936797027188
20711985 344 18193546998541271387
20871998 22 17621034695577505875
20871999 31 18339358685929878164
21524375 3 18262239915188878753
23366157 5 17540261943012782705
23388829 49 17549514342135211467
23402539 116 18272079479227112116
23419403 2 16986861587370774179
23552423 10 17764588716517654025
23557571 272 18126293167111581028
23559900 14 18273209799567613400
25147074 1 17553751868945413393
2748010 2 18267321845300615719
298252 57 18260831453778833312
305870 269 18048881801243084660
3071541 236 18410291419506235570
3071541 37 18121212083192505021
3250762 1 17910663586185319513
3759504 43 18187366519216791211
43471831 8 18193837042019519875
576247 118 17546473500662561790
7364860 26 17764587612510254553
81228 2 18049714410981624475
81539 233 18045217150736700957
8809292 202 18342458192223875128
9709674 26 18202289095914901982

>  <PUBCHEM_SHAPE_MULTIPOLES>  (1) 
300.81
5.41
3.79
0.97
7.23
3.72
-0.02
-2.16
1.55
-3.68
-0.46
0.09
0.23
-0.27

>  <PUBCHEM_SHAPE_SELFOVERLAP>  (1) 
614.393

>  <PUBCHEM_SHAPE_VOLUME>  (1) 
174

>  <PUBCHEM_COORDINATE_TYPE>  (1) 
2
5
10

$$$$
