25780
     RDKit          3D

 19 20  0  0  0  0  0  0  0  0999 V2000
    0.5759   -0.1312   -0.7157 O   0  0  0  0  0  0  0  0  0  0  0  0
   -1.5471   -1.8059   -0.7981 O   0  0  0  0  0  0  0  0  0  0  0  0
   -4.0436   -0.9699    0.3760 O   0  0  0  0  0  0  0  0  0  0  0  0
    3.8851   -1.2704    0.4310 N   0  0  0  0  0  0  0  0  0  0  0  0
   -0.5981    0.2504   -0.1358 C   0  0  0  0  0  0  0  0  0  0  0  0
   -1.7055   -0.5972   -0.1718 C   0  0  0  0  0  0  0  0  0  0  0  0
   -0.6907    1.4858    0.5057 C   0  0  0  0  0  0  0  0  0  0  0  0
   -2.9124   -0.1968    0.4069 C   0  0  0  0  0  0  0  0  0  0  0  0
   -2.6045   -2.7146   -0.4793 C   0  0  0  0  0  0  0  0  0  0  0  0
   -1.8883    1.8741    1.1072 C   0  0  0  0  0  0  0  0  0  0  0  0
    1.4961   -0.8514    0.1007 C   0  0  0  0  0  0  0  0  0  0  0  0
    0.4841    2.4061    0.5630 C   0  0  0  0  0  0  0  0  0  0  0  0
   -3.9469   -2.0184   -0.5917 C   0  0  0  0  0  0  0  0  0  0  0  0
   -3.0002    1.0329    1.0598 C   0  0  0  0  0  0  0  0  0  0  0  0
    2.9079   -0.5673   -0.3867 C   0  0  0  0  0  0  0  0  0  0  0  0
    5.2430   -0.9701   -0.0040 C   0  0  0  0  0  0  0  0  0  0  0  0
    0.5418    3.3591   -0.6016 C   0  0  0  0  0  0  0  0  0  0  0  0
    6.2690   -1.7066    0.8321 C   0  0  0  0  0  0  0  0  0  0  0  0
    1.5346    3.3914   -1.4977 C   0  0  0  0  0  0  0  0  0  0  0  0
  1  5  1  0
  1 11  1  0
  2  6  1  0
  2  9  1  0
  3  8  1  0
  3 13  1  0
  4 15  1  0
  4 16  1  0
  5  6  1  0
  5  7  2  0
  6  8  2  0
  7 10  1  0
  7 12  1  0
  8 14  1  0
  9 13  1  0
 10 14  2  0
 11 15  1  0
 12 17  1  0
 16 18  1  0
 17 19  2  0
M  END
>  <PUBCHEM_COMPOUND_CID>  (1) 
25780

>  <PUBCHEM_CONFORMER_RMSD>  (1) 
0.8

>  <PUBCHEM_CONFORMER_DIVERSEORDER>  (1) 
1
68
41
51
46
7
26
58
30
6
49
47
57
42
53
11
55
44
63
40
27
45
29
39
61
13
37
50
23
10
34
65
56
54
48
3
12
33
66
64
62
32
24
17
59
18
38
35
2
5
21
22
19
28
43
25
52
36
9
31
8
15
4
20
60
16
14
67

>  <PUBCHEM_MMFF94_PARTIAL_CHARGES>  (1) 
24
1 -0.36
10 -0.15
11 0.28
12 0.28
13 0.28
14 -0.15
15 0.27
16 0.27
17 -0.29
19 -0.3
2 -0.36
24 0.15
29 0.15
3 -0.36
32 0.36
35 0.15
39 0.15
4 -0.9
40 0.15
5 0.08
6 0.08
7 -0.14
8 0.08
9 0.28

>  <PUBCHEM_EFFECTIVE_ROTOR_COUNT>  (1) 
7.8

>  <PUBCHEM_PHARMACOPHORE_FEATURES>  (1) 
8
1 1 acceptor
1 19 hydrophobe
1 2 acceptor
1 3 acceptor
1 4 cation
1 4 donor
6 2 3 6 8 9 13 rings
6 5 6 7 8 10 14 rings

>  <PUBCHEM_HEAVY_ATOM_COUNT>  (1) 
19

>  <PUBCHEM_ATOM_DEF_STEREO_COUNT>  (1) 
0

>  <PUBCHEM_ATOM_UDEF_STEREO_COUNT>  (1) 
0

>  <PUBCHEM_BOND_DEF_STEREO_COUNT>  (1) 
0

>  <PUBCHEM_BOND_UDEF_STEREO_COUNT>  (1) 
0

>  <PUBCHEM_ISOTOPIC_ATOM_COUNT>  (1) 
0

>  <PUBCHEM_COMPONENT_COUNT>  (1) 
1

>  <PUBCHEM_CACTVS_TAUTO_COUNT>  (1) 
1

>  <PUBCHEM_CONFORMER_ID>  (1) 
000064B400000001

>  <PUBCHEM_MMFF94_ENERGY>  (1) 
46.3739

>  <PUBCHEM_FEATURE_SELFOVERLAP>  (1) 
40.643

>  <PUBCHEM_SHAPE_FINGERPRINT>  (1) 
10369192 42 17203319049640903352
10989021 7 18408604794476350444
11045515 52 18113331999309782948
11265709 11 18410855473124015378
11578080 2 18041543823837932060
13140716 1 18200603613250910803
13540713 5 18198918092079991257
13941206 138 17325221014000454956
16945 1 18200615626327054861
1813 80 18187914123558350640
200 152 17458628878618899250
20600515 1 18200605700114730788
21339142 126 18263362478328021580
21501502 16 18198918091969240849
21650355 55 18342175527219515696
2297311 6 18130235874206571566
23366157 5 18117844532163342564
23402539 116 18411975828523711910
23419403 2 18055884758378273013
23557571 272 17845671261115528822
23559900 14 18267855258769230371
25147074 1 18128551525429653889
2748010 2 17405177053106313697
34934 24 18117559526781114777
43471831 8 17692251158846297921
4409770 3 17972588888552477868
59554788 191 18412826889336234373
90316 7 18264210201619100048
9925002 15 17199931565051270918

>  <PUBCHEM_SHAPE_MULTIPOLES>  (1) 
368.42
9.12
3.74
1.06
14.82
2.85
-0.05
-9.14
2.03
-0.06
-1.13
-0.03
0.51
-1.91

>  <PUBCHEM_SHAPE_SELFOVERLAP>  (1) 
758.068

>  <PUBCHEM_SHAPE_VOLUME>  (1) 
211.3

>  <PUBCHEM_COORDINATE_TYPE>  (1) 
2
5
10

$$$$
