25788
     RDKit          3D

 15 16  0  0  0  0  0  0  0  0999 V2000
    4.3496    0.0560    0.0173 O   0  0  0  0  0  0  0  0  0  0  0  0
    0.3728   -1.3379   -0.1801 N   0  0  0  0  0  0  0  0  0  0  0  0
   -0.2395   -0.1224   -0.0173 C   0  0  0  0  0  0  0  0  0  0  0  0
    1.7332   -1.1740   -0.1551 C   0  0  0  0  0  0  0  0  0  0  0  0
    1.9934    0.1664    0.0259 C   0  0  0  0  0  0  0  0  0  0  0  0
    0.7456    0.8317    0.1129 C   0  0  0  0  0  0  0  0  0  0  0  0
   -1.6753    0.0159   -0.0016 C   0  0  0  0  0  0  0  0  0  0  0  0
    2.6396   -2.3289   -0.3080 C   0  0  0  0  0  0  0  0  0  0  0  0
    3.3030    0.7472    0.1078 C   0  0  0  0  0  0  0  0  0  0  0  0
   -2.2667    1.1955   -0.4540 C   0  0  0  0  0  0  0  0  0  0  0  0
   -2.4723   -1.0289    0.4663 C   0  0  0  0  0  0  0  0  0  0  0  0
    3.4840    2.2573    0.3127 C   0  0  0  0  0  0  0  0  0  0  0  0
   -3.6549    1.3304   -0.4383 C   0  0  0  0  0  0  0  0  0  0  0  0
   -3.8606   -0.8939    0.4819 C   0  0  0  0  0  0  0  0  0  0  0  0
   -4.4518    0.2858    0.0296 C   0  0  0  0  0  0  0  0  0  0  0  0
  1  9  2  0
  2  3  1  0
  2  4  1  0
  3  6  2  0
  3  7  1  0
  4  5  2  0
  4  8  1  0
  5  6  1  0
  5  9  1  0
  7 10  2  0
  7 11  1  0
  9 12  1  0
 10 13  1  0
 11 14  2  0
 13 15  2  0
 14 15  1  0
M  END
>  <PUBCHEM_COMPOUND_CID>  (1) 
25788

>  <PUBCHEM_CONFORMER_RMSD>  (1) 
0.6

>  <PUBCHEM_CONFORMER_DIVERSEORDER>  (1) 
1
5
4
6
7
2
3

>  <PUBCHEM_MMFF94_PARTIAL_CHARGES>  (1) 
22
1 -0.57
10 -0.15
11 -0.15
12 0.06
13 -0.15
14 -0.15
15 -0.15
16 0.27
17 0.15
2 0.03
21 0.15
22 0.15
26 0.15
27 0.15
28 0.15
3 -0.2
4 -0.33
5 -0.09
6 -0.15
7 0.05
8 0.18
9 0.6

>  <PUBCHEM_EFFECTIVE_ROTOR_COUNT>  (1) 
2

>  <PUBCHEM_PHARMACOPHORE_FEATURES>  (1) 
5
1 1 acceptor
1 2 cation
1 2 donor
5 2 3 4 5 6 rings
6 7 10 11 13 14 15 rings

>  <PUBCHEM_HEAVY_ATOM_COUNT>  (1) 
15

>  <PUBCHEM_ATOM_DEF_STEREO_COUNT>  (1) 
0

>  <PUBCHEM_ATOM_UDEF_STEREO_COUNT>  (1) 
0

>  <PUBCHEM_BOND_DEF_STEREO_COUNT>  (1) 
0

>  <PUBCHEM_BOND_UDEF_STEREO_COUNT>  (1) 
0

>  <PUBCHEM_ISOTOPIC_ATOM_COUNT>  (1) 
0

>  <PUBCHEM_COMPONENT_COUNT>  (1) 
1

>  <PUBCHEM_CACTVS_TAUTO_COUNT>  (1) 
5

>  <PUBCHEM_CONFORMER_ID>  (1) 
000064BC00000001

>  <PUBCHEM_MMFF94_ENERGY>  (1) 
28.9439

>  <PUBCHEM_FEATURE_SELFOVERLAP>  (1) 
25.371

>  <PUBCHEM_SHAPE_FINGERPRINT>  (1) 
10608611 8 18336262358196737309
11132069 177 18040715874818571501
11471102 20 18341892970264350798
11543360 7 14333126441966432720
11615757 297 17846784026511376089
12932764 1 17346305003839070121
13081056 2 18411138064713283612
13214271 11 18335418010834174317
13296908 3 18409169870459545743
13380535 76 18408603681789696394
14289901 80 18343298176115592667
14325111 11 18409448064054615167
14415576 193 18408888464255169972
15219456 202 18409450254456437055
15375358 24 18333730230246778123
15442244 35 18124598574283599176
15536298 74 18412264995422709894
18186145 218 18271817778105264823
200 152 18060693992763542735
20279233 1 18334581235072199195
20510252 161 18410012096793865777
20645477 56 18187082815727411357
20645477 70 18271805657929615239
20671657 53 17984149153991394398
221490 88 18409739438847118746
22854114 111 18341611542390011432
22854114 59 18412263977489054624
22943178 12 18334295336247499111
23402539 116 18040708208365199583
23402655 69 18271236124213088333
23557571 272 17603582998171883389
23559900 14 18338511916021734754
2748010 2 18335707104676913535
3545911 37 18408044000664856101
449060 50 18409450301806611341
4990 188 17917440834419785628
5104073 3 18335704906107124993
58051976 378 18342174466330795726
69090 78 18410570682986615583
7364860 26 18341613668636342766
77779 3 18410576167327146883
81539 233 18410294739774593694
9709674 26 18408046216805132091

>  <PUBCHEM_SHAPE_MULTIPOLES>  (1) 
297.84
8.43
1.96
0.68
1.86
0.16
0
-1.75
0.34
-1.58
-0.07
0.15
-0.01
0.78

>  <PUBCHEM_SHAPE_SELFOVERLAP>  (1) 
642.675

>  <PUBCHEM_SHAPE_VOLUME>  (1) 
165.8

>  <PUBCHEM_COORDINATE_TYPE>  (1) 
2
5
10

$$$$
