25781
     RDKit          3D

  8  7  0  0  0  0  0  0  0  0999 V2000
   -2.9878   -0.7305    0.1212 O   0  0  0  0  0  0  0  0  0  0  0  0
    0.5584    0.4276    0.0237 N   0  0  0  0  0  0  0  0  0  0  0  0
   -0.6087   -0.4974    0.3377 C   0  0  0  0  0  0  0  0  0  0  0  0
    1.8414   -0.1642    0.5892 C   0  0  0  0  0  0  0  0  0  0  0  0
    0.6924    0.5814   -1.4845 C   0  0  0  0  0  0  0  0  0  0  0  0
    0.3083    1.7907    0.6525 C   0  0  0  0  0  0  0  0  0  0  0  0
   -1.8885    0.1113   -0.2003 C   0  0  0  0  0  0  0  0  0  0  0  0
    2.0846   -1.5189   -0.0395 C   0  0  0  0  0  0  0  0  0  0  0  0
  1  7  1  0
  2  3  1  0
  2  4  1  0
  2  5  1  0
  2  6  1  0
  3  7  1  0
  4  8  1  0
M  CHG  1   2   1
M  END
>  <PUBCHEM_COMPOUND_CID>  (1) 
25781

>  <PUBCHEM_CONFORMER_RMSD>  (1) 
0.6

>  <PUBCHEM_CONFORMER_DIVERSEORDER>  (1) 
7
4
3
2
5
1
6

>  <PUBCHEM_MMFF94_PARTIAL_CHARGES>  (1) 
8
1 -0.68
2 -1.01
24 0.4
3 0.5
4 0.5
5 0.5
6 0.5
7 0.28

>  <PUBCHEM_EFFECTIVE_ROTOR_COUNT>  (1) 
3

>  <PUBCHEM_PHARMACOPHORE_FEATURES>  (1) 
3
1 1 acceptor
1 1 donor
1 2 cation

>  <PUBCHEM_HEAVY_ATOM_COUNT>  (1) 
8

>  <PUBCHEM_ATOM_DEF_STEREO_COUNT>  (1) 
0

>  <PUBCHEM_ATOM_UDEF_STEREO_COUNT>  (1) 
0

>  <PUBCHEM_BOND_DEF_STEREO_COUNT>  (1) 
0

>  <PUBCHEM_BOND_UDEF_STEREO_COUNT>  (1) 
0

>  <PUBCHEM_ISOTOPIC_ATOM_COUNT>  (1) 
0

>  <PUBCHEM_COMPONENT_COUNT>  (1) 
1

>  <PUBCHEM_CACTVS_TAUTO_COUNT>  (1) 
1

>  <PUBCHEM_CONFORMER_ID>  (1) 
000064B500000007

>  <PUBCHEM_MMFF94_ENERGY>  (1) 
27.3035

>  <PUBCHEM_FEATURE_SELFOVERLAP>  (1) 
15.223

>  <PUBCHEM_SHAPE_FINGERPRINT>  (1) 
137420 1 17047047496681364584
14128692 85 18187092732136744430
20653085 51 9078245904083562266
20653091 64 18200883988193695729
21040471 1 17757837001699348977
23552423 10 18116721711779472170
23552449 11 18131632326381343633
24536 1 17241883401080780867
29004967 10 18342165661769223138
5084963 1 17894909655049400251
5943 1 12635090368274135820

>  <PUBCHEM_SHAPE_MULTIPOLES>  (1) 
153.79
3.11
1.48
1.01
1.73
0.35
0.38
-1.65
-0.22
-0.4
-0.22
-0.26
0.26
0.01

>  <PUBCHEM_SHAPE_SELFOVERLAP>  (1) 
271.39

>  <PUBCHEM_SHAPE_VOLUME>  (1) 
103.6

>  <PUBCHEM_COORDINATE_TYPE>  (1) 
2
5
10

$$$$
