25792
     RDKit          3D

 15 15  0  0  0  0  0  0  0  0999 V2000
   -3.3632    0.2282   -0.3763 O   0  0  0  0  0  0  0  0  0  0  0  0
   -1.7551    0.4038    1.2686 O   0  0  0  0  0  0  0  0  0  0  0  0
    3.6757    2.0044   -0.1886 O   0  0  0  0  0  0  0  0  0  0  0  0
    4.4851    0.1176    0.5886 O   0  0  0  0  0  0  0  0  0  0  0  0
    0.2336   -0.3104   -0.5618 N   0  0  0  0  0  0  0  0  0  0  0  0
    2.1082   -1.1517    0.2370 N   0  0  0  0  0  0  0  0  0  0  0  0
    3.5235    0.7856    0.1114 N   0  0  0  0  0  0  0  0  0  0  0  0
   -1.1575   -0.2266   -1.0011 C   0  0  0  0  0  0  0  0  0  0  0  0
    0.8550   -1.4093   -0.0647 C   0  0  0  0  0  0  0  0  0  0  0  0
    1.1213    0.7150   -0.5868 C   0  0  0  0  0  0  0  0  0  0  0  0
    2.2807    0.1711   -0.0860 C   0  0  0  0  0  0  0  0  0  0  0  0
   -2.0895    0.1711    0.1149 C   0  0  0  0  0  0  0  0  0  0  0  0
    0.1714   -2.7084    0.1006 C   0  0  0  0  0  0  0  0  0  0  0  0
   -4.3723    0.5960    0.5697 C   0  0  0  0  0  0  0  0  0  0  0  0
   -5.7170    0.6136   -0.1255 C   0  0  0  0  0  0  0  0  0  0  0  0
  1 12  1  0
  1 14  1  0
  2 12  2  0
  3  7  1  0
  4  7  2  0
  5  8  1  0
  5  9  1  0
  5 10  1  0
  6  9  2  0
  6 11  1  0
  7 11  1  0
  8 12  1  0
  9 13  1  0
 10 11  2  0
 14 15  1  0
M  CHG  2   3  -1   7   1
M  END
>  <PUBCHEM_COMPOUND_CID>  (1) 
25792

>  <PUBCHEM_CONFORMER_RMSD>  (1) 
0.6

>  <PUBCHEM_CONFORMER_DIVERSEORDER>  (1) 
2
44
33
46
20
9
34
50
19
17
39
31
41
4
12
36
13
42
29
7
32
40
24
10
25
21
6
43
18
38
11
5
3
16
45
27
1
8
15
30
22
23
35
28
26
14
37
49
48
47

>  <PUBCHEM_MMFF94_PARTIAL_CHARGES>  (1) 
15
1 -0.43
10 -0.3
11 0.31
12 0.66
13 0.18
14 0.28
18 0.15
2 -0.57
3 -0.52
4 -0.52
5 0.05
6 -0.57
7 0.96
8 0.32
9 0.01

>  <PUBCHEM_EFFECTIVE_ROTOR_COUNT>  (1) 
5

>  <PUBCHEM_PHARMACOPHORE_FEATURES>  (1) 
6
1 2 acceptor
1 3 acceptor
1 3 anion
1 4 acceptor
3 5 6 9 cation
5 5 6 9 10 11 rings

>  <PUBCHEM_HEAVY_ATOM_COUNT>  (1) 
15

>  <PUBCHEM_ATOM_DEF_STEREO_COUNT>  (1) 
0

>  <PUBCHEM_ATOM_UDEF_STEREO_COUNT>  (1) 
0

>  <PUBCHEM_BOND_DEF_STEREO_COUNT>  (1) 
0

>  <PUBCHEM_BOND_UDEF_STEREO_COUNT>  (1) 
0

>  <PUBCHEM_ISOTOPIC_ATOM_COUNT>  (1) 
0

>  <PUBCHEM_COMPONENT_COUNT>  (1) 
1

>  <PUBCHEM_CACTVS_TAUTO_COUNT>  (1) 
1

>  <PUBCHEM_CONFORMER_ID>  (1) 
000064C000000002

>  <PUBCHEM_MMFF94_ENERGY>  (1) 
15.992

>  <PUBCHEM_FEATURE_SELFOVERLAP>  (1) 
30.527

>  <PUBCHEM_SHAPE_FINGERPRINT>  (1) 
10498660 4 15984270608561546425
12119455 92 18187076260889632879
12251169 10 17531249473780389485
14252887 29 17677060040441339163
14911166 2 11312053261904157429
15342168 16 18262522614294709276
15375358 24 18040439871819872603
15775835 57 18273214205285985717
170605 34 18202287974284859239
20279233 1 17458635484452472467
204376 136 18409452517840937471
20645477 70 18267863887759701663
21524375 3 18201720656470958534
21618674 25 18333733511744210771
22854114 59 18334859402918706733
23048698 100 18200878379267074227
23402539 116 17060048263749102124
23532345 12 11818995167349881207
23557571 272 16588304909171310479
298252 57 17203609302238557206
33824 294 18261675878999251731
42 15 13623531255784289157
4340502 62 18408609158637844491
449060 50 18409732846514840037
449060 62 18272371945204013209
474 4 18413392054981285016
7364860 26 18200316485475207494
81539 233 18412827954177114711
8272917 22 18340492145248264927
9999458 23 17822013112439144470

>  <PUBCHEM_SHAPE_MULTIPOLES>  (1) 
270.27
9.06
1.73
0.84
8.1
1.09
0.02
-4.67
1.16
-1.4
0.03
0.26
-0.04
-0.2

>  <PUBCHEM_SHAPE_SELFOVERLAP>  (1) 
549.956

>  <PUBCHEM_SHAPE_VOLUME>  (1) 
158

>  <PUBCHEM_COORDINATE_TYPE>  (1) 
2
5
10

$$$$
