25794
     RDKit          3D

 11 10  0  0  0  0  0  0  0  0999 V2000
   -3.4887   -0.2372   -0.1491 O   0  0  0  0  0  0  0  0  0  0  0  0
    3.4848   -0.2479    0.2107 O   0  0  0  0  0  0  0  0  0  0  0  0
   -2.3311    1.3788    0.7927 O   0  0  0  0  0  0  0  0  0  0  0  0
    2.3697    1.3474   -0.8143 O   0  0  0  0  0  0  0  0  0  0  0  0
   -1.2411   -0.3878   -0.0870 N   0  0  0  0  0  0  0  0  0  0  0  0
    1.2402   -0.3911    0.0713 N   0  0  0  0  0  0  0  0  0  0  0  0
   -2.4290    0.3034    0.1904 N   0  0  0  0  0  0  0  0  0  0  0  0
    2.4407    0.2879   -0.1808 N   0  0  0  0  0  0  0  0  0  0  0  0
    0.0028    0.4217   -0.0410 C   0  0  0  0  0  0  0  0  0  0  0  0
   -1.2868   -1.2515   -1.2758 C   0  0  0  0  0  0  0  0  0  0  0  0
    1.2385   -1.2237    1.2828 C   0  0  0  0  0  0  0  0  0  0  0  0
  1  7  1  0
  2  8  1  0
  3  7  2  0
  4  8  2  0
  5  7  1  0
  5  9  1  0
  5 10  1  0
  6  8  1  0
  6  9  1  0
  6 11  1  0
M  CHG  4   1  -1   2  -1   7   1   8   1
M  END
>  <PUBCHEM_COMPOUND_CID>  (1) 
25794

>  <PUBCHEM_CONFORMER_RMSD>  (1) 
0.6

>  <PUBCHEM_CONFORMER_DIVERSEORDER>  (1) 
1
43
6
47
49
26
18
23
10
39
48
8
21
36
17
34
9
24
42
40
27
15
14
30
25
7
13
2
31
35
44
12
16
37
29
4
19
11
20
28
45
5
3
33
46
32
41
22
38

>  <PUBCHEM_MMFF94_PARTIAL_CHARGES>  (1) 
11
1 -0.52
10 0.27
11 0.27
2 -0.52
3 -0.52
4 -0.52
5 -0.53
6 -0.53
7 1.03
8 1.03
9 0.54

>  <PUBCHEM_EFFECTIVE_ROTOR_COUNT>  (1) 
4

>  <PUBCHEM_PHARMACOPHORE_FEATURES>  (1) 
4
1 1 acceptor
1 2 acceptor
1 3 acceptor
1 4 acceptor

>  <PUBCHEM_HEAVY_ATOM_COUNT>  (1) 
11

>  <PUBCHEM_ATOM_DEF_STEREO_COUNT>  (1) 
0

>  <PUBCHEM_ATOM_UDEF_STEREO_COUNT>  (1) 
0

>  <PUBCHEM_BOND_DEF_STEREO_COUNT>  (1) 
0

>  <PUBCHEM_BOND_UDEF_STEREO_COUNT>  (1) 
0

>  <PUBCHEM_ISOTOPIC_ATOM_COUNT>  (1) 
0

>  <PUBCHEM_COMPONENT_COUNT>  (1) 
1

>  <PUBCHEM_CACTVS_TAUTO_COUNT>  (1) 
1

>  <PUBCHEM_CONFORMER_ID>  (1) 
000064C200000001

>  <PUBCHEM_MMFF94_ENERGY>  (1) 
35.5521

>  <PUBCHEM_FEATURE_SELFOVERLAP>  (1) 
20.46

>  <PUBCHEM_SHAPE_FINGERPRINT>  (1) 
10219947 1 16732706051653083622
14325111 11 17988365879614422677
14390081 3 18273214209412355961
15310529 11 18041550369699691551
20201158 50 15719108041778183979
21040471 1 17703222919360667775
29004967 10 16588027883258348361
3248919 1 18410854364927526966
528862 383 17968649424088873298

>  <PUBCHEM_SHAPE_MULTIPOLES>  (1) 
182.97
5.02
1.25
1.02
0.05
0.05
0
0.72
0.03
-0.03
0
0.01
-0.26
-0.94

>  <PUBCHEM_SHAPE_SELFOVERLAP>  (1) 
343.024

>  <PUBCHEM_SHAPE_VOLUME>  (1) 
114.9

>  <PUBCHEM_COORDINATE_TYPE>  (1) 
2
5
10

$$$$
