25799
     RDKit          3D

  6  5  0  0  0  0  0  0  0  0999 V2000
    2.9534    0.2379    0.1976 S   0  0  0  0  0  0  0  0  0  0  0  0
   -1.0715    0.0163   -0.3125 N   0  0  0  0  0  0  0  0  0  0  0  0
    0.2242    0.5382    0.1206 C   0  0  0  0  0  0  0  0  0  0  0  0
    1.3372   -0.3978   -0.3341 C   0  0  0  0  0  0  0  0  0  0  0  0
   -2.1470    0.9235    0.0861 C   0  0  0  0  0  0  0  0  0  0  0  0
   -1.2964   -1.3180    0.2422 C   0  0  0  0  0  0  0  0  0  0  0  0
  1  4  1  0
  2  3  1  0
  2  5  1  0
  2  6  1  0
  3  4  1  0
M  END
>  <PUBCHEM_COMPOUND_CID>  (1) 
25799

>  <PUBCHEM_CONFORMER_RMSD>  (1) 
0.4

>  <PUBCHEM_CONFORMER_DIVERSEORDER>  (1) 
3
4
1
5
2

>  <PUBCHEM_MMFF94_PARTIAL_CHARGES>  (1) 
7
1 -0.41
17 0.18
2 -0.81
3 0.27
4 0.23
5 0.27
6 0.27

>  <PUBCHEM_EFFECTIVE_ROTOR_COUNT>  (1) 
2

>  <PUBCHEM_PHARMACOPHORE_FEATURES>  (1) 
1
1 2 cation

>  <PUBCHEM_HEAVY_ATOM_COUNT>  (1) 
6

>  <PUBCHEM_ATOM_DEF_STEREO_COUNT>  (1) 
0

>  <PUBCHEM_ATOM_UDEF_STEREO_COUNT>  (1) 
0

>  <PUBCHEM_BOND_DEF_STEREO_COUNT>  (1) 
0

>  <PUBCHEM_BOND_UDEF_STEREO_COUNT>  (1) 
0

>  <PUBCHEM_ISOTOPIC_ATOM_COUNT>  (1) 
0

>  <PUBCHEM_COMPONENT_COUNT>  (1) 
1

>  <PUBCHEM_CACTVS_TAUTO_COUNT>  (1) 
1

>  <PUBCHEM_CONFORMER_ID>  (1) 
000064C700000003

>  <PUBCHEM_MMFF94_ENERGY>  (1) 
11.0211

>  <PUBCHEM_FEATURE_SELFOVERLAP>  (1) 
5.074

>  <PUBCHEM_SHAPE_FINGERPRINT>  (1) 
12932741 1 17989212555408117700
14390081 3 18060414707782641016
16714656 1 18333452010581049173
20096714 4 18337674118115078309
21040471 1 18337114449479656973
29004967 10 17775011210448762258
5460574 1 8358257051141552276

>  <PUBCHEM_SHAPE_MULTIPOLES>  (1) 
122.35
3.85
1.14
0.67
2.22
0.22
-0.01
-0.59
-0.28
-0.63
-0.08
0.07
0.01
0.1

>  <PUBCHEM_SHAPE_SELFOVERLAP>  (1) 
201.465

>  <PUBCHEM_SHAPE_VOLUME>  (1) 
87.3

>  <PUBCHEM_COORDINATE_TYPE>  (1) 
2
5
10

$$$$
