258
     RDKit          3D

 30 31  0  0  1  0  0  0  0  0999 V2000
    2.2115    1.4372   -0.0458 O   0  0  0  0  0  0  0  0  0  0  0  0
   -2.5699    3.0510   -1.0981 O   0  0  0  0  0  0  0  0  0  0  0  0
    1.3475    4.8813   -0.1651 O   0  0  0  0  0  0  0  0  0  0  0  0
    2.1896    3.5732    1.5009 O   0  0  0  0  0  0  0  0  0  0  0  0
    4.6530   -1.2457   -1.1267 O   0  0  0  0  0  0  0  0  0  0  0  0
   -0.6879    2.2466    0.0036 N   0  0  0  0  0  0  0  0  0  0  0  0
    2.5665   -0.8477   -0.2249 N   0  0  0  0  0  0  0  0  0  0  0  0
   -3.4547    0.8487    2.9591 N   0  0  0  0  0  0  0  0  0  0  0  0
   -3.5891   -2.3187   -0.1436 N   0  0  0  0  0  0  0  0  0  0  0  0
    3.9079   -2.7513    0.3997 N   0  0  0  0  0  0  0  0  0  0  0  0
   -1.7600   -2.0256   -1.6087 N   0  0  0  0  0  0  0  0  0  0  0  0
   -3.5074   -3.3583   -2.3245 N   0  0  0  0  0  0  0  0  0  0  0  0
    3.1381   -4.2914    1.9629 N   0  0  0  0  0  0  0  0  0  0  0  0
    0.2321    2.3613   -1.1030 C   0  0  0  0  0  0  0  0  0  0  0  0
    1.6779    2.6097   -0.6534 C   0  0  0  0  0  0  0  0  0  0  0  0
   -2.7342    0.9319    1.6854 C   0  0  0  0  0  0  0  0  0  0  0  0
    2.3410    0.3579   -0.9766 C   0  0  0  0  0  0  0  0  0  0  0  0
   -2.7864    2.3901    1.2012 C   0  0  0  0  0  0  0  0  0  0  0  0
    0.1442    1.0849   -1.8865 C   0  0  0  0  0  0  0  0  0  0  0  0
   -3.3533   -0.0282    0.6502 C   0  0  0  0  0  0  0  0  0  0  0  0
    1.1240    0.1707   -1.8385 C   0  0  0  0  0  0  0  0  0  0  0  0
   -2.0219    2.6052   -0.0921 C   0  0  0  0  0  0  0  0  0  0  0  0
   -2.9724   -1.4936    0.8695 C   0  0  0  0  0  0  0  0  0  0  0  0
    1.7787    3.7075    0.3579 C   0  0  0  0  0  0  0  0  0  0  0  0
    1.5821   -1.2780    0.6497 C   0  0  0  0  0  0  0  0  0  0  0  0
    3.7593   -1.6008   -0.3561 C   0  0  0  0  0  0  0  0  0  0  0  0
   -4.9028   -2.8874    0.1870 C   0  0  0  0  0  0  0  0  0  0  0  0
   -2.9896   -2.6037   -1.3889 C   0  0  0  0  0  0  0  0  0  0  0  0
    1.7056   -2.3820    1.3841 C   0  0  0  0  0  0  0  0  0  0  0  0
    2.9704   -3.1449    1.2212 C   0  0  0  0  0  0  0  0  0  0  0  0
  1 15  1  0
  1 17  1  0
  2 22  2  0
  3 24  1  0
  4 24  2  0
  5 26  2  0
  6 14  1  0
  6 22  1  0
  7 17  1  0
  7 25  1  0
  7 26  1  0
  8 16  1  0
  9 23  1  0
  9 27  1  0
  9 28  1  0
 10 26  1  0
 10 30  2  0
 11 28  1  0
 12 28  2  0
 13 30  1  0
 14 15  1  0
 14 19  1  0
 15 24  1  0
 16 18  1  0
 16 20  1  0
 17 21  1  0
 18 22  1  0
 19 21  2  0
 20 23  1  0
 25 29  2  0
 29 30  1  0
M  END
>  <PUBCHEM_COMPOUND_CID>  (1) 
258

>  <PUBCHEM_CONFORMER_RMSD>  (1) 
1.4

>  <PUBCHEM_CONFORMER_DIVERSEORDER>  (1) 
1
11
78
77
27
160
64
137
38
167
37
80
106
58
52
20
57
33
145
19
40
3
10
143
101
158
60
157
103
82
49
120
53
98
93
65
26
71
15
12
113
170
83
85
39
148
125
114
164
6
169
25
152
7
51
34
126
144
16
44
87
46
168
118
99
13
104
79
122
119
17
128
112
139
31
129
24
133
95
153
111
165
117
124
102
29
136
75
18
90
68
115
48
81
30
35
73
56
146
97
155
67
100
2
151
150
47
86
161
69
23
162
88
123
127
141
149
166
63
72
163
132
62
61
130
54
55
8
84
147
89
131
22
50
134
107
76
140
110
70
142
14
96
28
42
121
138
116
94
74
43
21
9
105
171
135
109
45
159
156
66
59
91
92
36
32
5
108
41
154
4

>  <PUBCHEM_MMFF94_PARTIAL_CHARGES>  (1) 
42
1 -0.56
10 -0.66
11 -0.85
12 -0.85
13 -0.85
14 0.44
15 0.34
16 0.27
17 0.72
18 0.06
19 -0.29
2 -0.57
21 -0.29
22 0.57
23 0.37
24 0.66
25 -0.04
26 0.84
27 0.37
28 0.55
29 -0.14
3 -0.65
30 0.49
37 0.15
4 -0.57
40 0.37
41 0.15
44 0.36
45 0.36
46 0.15
5 -0.57
50 0.15
51 0.5
52 0.4
53 0.4
54 0.4
55 0.4
56 0.4
6 -0.73
7 -0.47
8 -0.99
9 -0.79

>  <PUBCHEM_EFFECTIVE_ROTOR_COUNT>  (1) 
10.8

>  <PUBCHEM_PHARMACOPHORE_FEATURES>  (1) 
16
1 1 acceptor
1 10 donor
1 11 donor
1 12 donor
1 13 donor
1 2 acceptor
1 3 acceptor
1 4 acceptor
1 5 acceptor
1 6 donor
1 8 cation
1 8 donor
3 3 4 24 anion
4 9 11 12 28 cation
6 1 14 15 17 19 21 rings
6 7 10 25 26 29 30 rings

>  <PUBCHEM_HEAVY_ATOM_COUNT>  (1) 
30

>  <PUBCHEM_ATOM_DEF_STEREO_COUNT>  (1) 
0

>  <PUBCHEM_ATOM_UDEF_STEREO_COUNT>  (1) 
4

>  <PUBCHEM_BOND_DEF_STEREO_COUNT>  (1) 
0

>  <PUBCHEM_BOND_UDEF_STEREO_COUNT>  (1) 
0

>  <PUBCHEM_ISOTOPIC_ATOM_COUNT>  (1) 
0

>  <PUBCHEM_COMPONENT_COUNT>  (1) 
1

>  <PUBCHEM_CACTVS_TAUTO_COUNT>  (1) 
6

>  <PUBCHEM_CONFORMER_ID>  (1) 
0000010200000001

>  <PUBCHEM_MMFF94_ENERGY>  (1) 
60.6787

>  <PUBCHEM_FEATURE_SELFOVERLAP>  (1) 
81.358

>  <PUBCHEM_SHAPE_FINGERPRINT>  (1) 
11552529 35 18201152157340780098
12156800 1 16455654341707325903
12633257 1 17986415333429368297
12788726 201 17547008525108409288
13004483 165 17828207593029786624
14787075 74 18264226802232182380
19026451 147 17840576325759157663
19319366 153 17755626833062017645
20600515 1 17630624331368983320
20775438 99 17903592502943267653
20775530 9 18341330076130089355
3797600 57 17058104443229742241
7097593 13 18410865338574288517

>  <PUBCHEM_SHAPE_MULTIPOLES>  (1) 
548.19
7.96
6.35
2.08
2.68
1.75
-0.19
-7.6
-0.97
-1.98
-0.97
1.15
-0.72
-2.76

>  <PUBCHEM_SHAPE_SELFOVERLAP>  (1) 
1131.261

>  <PUBCHEM_SHAPE_VOLUME>  (1) 
308.6

>  <PUBCHEM_COORDINATE_TYPE>  (1) 
2
5
10

$$$$
