25809
     RDKit          3D

 15 14  0  0  0  0  0  0  0  0999 V2000
    3.0324   -0.6959    0.5526 O   0  0  0  0  0  0  0  0  0  0  0  0
   -3.3448   -0.2008    0.4082 O   0  0  0  0  0  0  0  0  0  0  0  0
   -0.0304    3.2442   -0.8097 O   0  0  0  0  0  0  0  0  0  0  0  0
    4.4342   -0.7198   -1.2836 O   0  0  0  0  0  0  0  0  0  0  0  0
   -3.7647   -1.8526   -1.1512 O   0  0  0  0  0  0  0  0  0  0  0  0
    0.0007    1.3430    0.1180 N   0  0  0  0  0  0  0  0  0  0  0  0
    0.3733    2.6085    0.1714 N   0  0  0  0  0  0  0  0  0  0  0  0
    0.9487    0.4570    0.7771 C   0  0  0  0  0  0  0  0  0  0  0  0
   -1.3548    1.1052    0.6441 C   0  0  0  0  0  0  0  0  0  0  0  0
    2.1264    0.1561   -0.1361 C   0  0  0  0  0  0  0  0  0  0  0  0
   -2.0508    0.0063   -0.1429 C   0  0  0  0  0  0  0  0  0  0  0  0
    4.1527   -1.0596   -0.1423 C   0  0  0  0  0  0  0  0  0  0  0  0
   -4.1017   -1.1664   -0.1959 C   0  0  0  0  0  0  0  0  0  0  0  0
    5.0102   -1.9516    0.7033 C   0  0  0  0  0  0  0  0  0  0  0  0
   -5.4314   -1.2738    0.4872 C   0  0  0  0  0  0  0  0  0  0  0  0
  1 10  1  0
  1 12  1  0
  2 11  1  0
  2 13  1  0
  3  7  2  0
  4 12  2  0
  5 13  2  0
  6  7  1  0
  6  8  1  0
  6  9  1  0
  8 10  1  0
  9 11  1  0
 12 14  1  0
 13 15  1  0
M  END
>  <PUBCHEM_COMPOUND_CID>  (1) 
25809

>  <PUBCHEM_CONFORMER_RMSD>  (1) 
0.8

>  <PUBCHEM_CONFORMER_DIVERSEORDER>  (1) 
1
195
157
149
232
99
53
111
55
235
258
278
230
142
123
81
196
6
19
276
156
100
143
255
271
18
67
52
91
20
199
263
2
119
270
72
284
56
77
204
243
95
246
272
197
94
120
40
282
105
283
16
174
244
58
12
223
254
35
259
189
167
150
97
216
126
113
98
160
249
87
241
46
151
66
229
267
146
92
69
118
27
86
22
191
60
155
250
242
252
104
34
234
161
224
89
274
209
17
203
25
131
190
130
79
29
4
154
43
41
96
285
193
138
257
178
213
158
44
135
30
170
268
171
206
181
39
47
240
128
8
261
141
64
198
124
78
251
122
37
36
173
225
265
132
38
153
51
184
227
110
63
148
169
166
164
93
182
219
210
109
256
71
3
176
137
179
31
281
82
185
211
65
163
248
28
101
264
54
220
218
90
117
266
239
287
7
165
147
162
139
200
177
5
187
175
127
26
11
84
214
50
208
83
106
136
14
42
24
280
114
75
21
61
205
80
172
159
23
121
273
269
231
277
215
73
247
260
233
144
49
226
107
217
85
134
286
238
183
115
112
180
186
192
262
10
194
15
222
108
288
221
59
202
33
62
152
103
140
275
116
133
201
168
207
188
102
237
212
279
70
245
68
32
129
88
228
74
45
125
13
9
236
57
145
253
48
76
289

>  <PUBCHEM_MMFF94_PARTIAL_CHARGES>  (1) 
15
1 -0.43
10 0.28
11 0.28
12 0.66
13 0.66
14 0.06
15 0.06
2 -0.43
3 -0.16
4 -0.57
5 -0.57
6 -0.36
7 -0.01
8 0.27
9 0.27

>  <PUBCHEM_EFFECTIVE_ROTOR_COUNT>  (1) 
9

>  <PUBCHEM_PHARMACOPHORE_FEATURES>  (1) 
2
1 4 acceptor
1 5 acceptor

>  <PUBCHEM_HEAVY_ATOM_COUNT>  (1) 
15

>  <PUBCHEM_ATOM_DEF_STEREO_COUNT>  (1) 
0

>  <PUBCHEM_ATOM_UDEF_STEREO_COUNT>  (1) 
0

>  <PUBCHEM_BOND_DEF_STEREO_COUNT>  (1) 
0

>  <PUBCHEM_BOND_UDEF_STEREO_COUNT>  (1) 
0

>  <PUBCHEM_ISOTOPIC_ATOM_COUNT>  (1) 
0

>  <PUBCHEM_COMPONENT_COUNT>  (1) 
1

>  <PUBCHEM_CACTVS_TAUTO_COUNT>  (1) 
1

>  <PUBCHEM_CONFORMER_ID>  (1) 
000064D100000001

>  <PUBCHEM_MMFF94_ENERGY>  (1) 
20.6657

>  <PUBCHEM_FEATURE_SELFOVERLAP>  (1) 
10.149

>  <PUBCHEM_SHAPE_FINGERPRINT>  (1) 
100836 57 8934998191758336194
11046707 91 18341894056474351875
12346645 44 8430324532447377273
12596602 18 13398622866187911574
12841375 25 18409728469479168961
13955234 65 17979922932089647097
14123255 352 9583515421392392379
14178000 29 18411982489659045061
1420 369 18342459218568565234
14251752 14 17822284627207146167
15342816 4 18411145727435775110
17539 30 18191575368076768293
1813 80 18340217339975937565
193927 3 18272099304701016195
200 152 17894915083914514226
20374829 77 18410852135971343307
20388580 30 18335706082364089629
204376 136 10015864284286380801
20621476 91 18199726142779574162
20645477 70 18191295195107605003
20671657 53 18408605889708737617
20693207 138 17532090690940001539
20871998 22 18410848897434536145
20871999 31 18114460076553937261
21426921 1 18192712237857273912
21728266 224 18043516232419320946
23402539 116 18115307774407241858
328317 168 8358260337087108259
351380 3 18411700989087104187
59345606 38 8862943875044088843

>  <PUBCHEM_SHAPE_MULTIPOLES>  (1) 
269.38
11.19
2.6
0.94
0.46
2.17
0.13
-11.24
0.18
-0.05
0.39
-0.23
-0.13
-0.56

>  <PUBCHEM_SHAPE_SELFOVERLAP>  (1) 
511.108

>  <PUBCHEM_SHAPE_VOLUME>  (1) 
166.5

>  <PUBCHEM_COORDINATE_TYPE>  (1) 
2
5
10

$$$$
