25800
     RDKit          3D

 14 14  0  0  1  0  0  0  0  0999 V2000
    3.2985   -1.5430    0.2909 S   0  0  0  0  0  0  0  0  0  0  0  0
    0.2324    1.1739   -1.6141 O   0  0  0  0  0  0  0  0  0  0  0  0
    1.0327   -0.1456    0.1179 N   0  0  0  0  0  0  0  0  0  0  0  0
    3.4159    2.0830    1.1145 N   0  0  0  0  0  0  0  0  0  0  0  0
   -1.3568    0.1772   -0.2071 C   0  0  0  0  0  0  0  0  0  0  0  0
    0.0372    0.4585   -0.6350 C   0  0  0  0  0  0  0  0  0  0  0  0
    2.4504    0.0056   -0.1768 C   0  0  0  0  0  0  0  0  0  0  0  0
   -2.3389    1.1063   -0.4824 C   0  0  0  0  0  0  0  0  0  0  0  0
   -1.6261   -1.0047    0.4518 C   0  0  0  0  0  0  0  0  0  0  0  0
   -3.6482    0.8420   -0.0807 C   0  0  0  0  0  0  0  0  0  0  0  0
   -2.9356   -1.2690    0.8533 C   0  0  0  0  0  0  0  0  0  0  0  0
   -3.9466   -0.3455    0.5870 C   0  0  0  0  0  0  0  0  0  0  0  0
    2.3975   -2.7046   -0.7662 C   0  0  0  0  0  0  0  0  0  0  0  0
    2.9874    1.1659    0.5468 C   0  0  0  0  0  0  0  0  0  0  0  0
  1  7  1  0
  1 13  1  0
  2  6  2  0
  3  6  1  0
  3  7  1  0
  4 14  3  0
  5  6  1  0
  5  8  2  0
  5  9  1  0
  7 14  1  0
  8 10  1  0
  9 11  2  0
 10 12  2  0
 11 12  1  0
M  END
>  <PUBCHEM_COMPOUND_CID>  (1) 
25800

>  <PUBCHEM_CONFORMER_RMSD>  (1) 
0.6

>  <PUBCHEM_CONFORMER_DIVERSEORDER>  (1) 
1
26
11
20
16
24
9
25
29
17
18
28
15
12
3
27
10
21
13
30
7
6
22
2
23
4
14
19
8
5

>  <PUBCHEM_MMFF94_PARTIAL_CHARGES>  (1) 
20
1 -0.46
10 -0.15
11 -0.15
12 -0.15
13 0.23
14 0.36
16 0.37
17 0.15
18 0.15
19 0.15
2 -0.57
20 0.15
21 0.15
3 -0.73
4 -0.56
5 0.09
6 0.54
7 0.73
8 -0.15
9 -0.15

>  <PUBCHEM_EFFECTIVE_ROTOR_COUNT>  (1) 
4

>  <PUBCHEM_PHARMACOPHORE_FEATURES>  (1) 
5
1 13 hydrophobe
1 2 acceptor
1 3 donor
1 4 acceptor
6 5 8 9 10 11 12 rings

>  <PUBCHEM_HEAVY_ATOM_COUNT>  (1) 
14

>  <PUBCHEM_ATOM_DEF_STEREO_COUNT>  (1) 
0

>  <PUBCHEM_ATOM_UDEF_STEREO_COUNT>  (1) 
1

>  <PUBCHEM_BOND_DEF_STEREO_COUNT>  (1) 
0

>  <PUBCHEM_BOND_UDEF_STEREO_COUNT>  (1) 
0

>  <PUBCHEM_ISOTOPIC_ATOM_COUNT>  (1) 
0

>  <PUBCHEM_COMPONENT_COUNT>  (1) 
1

>  <PUBCHEM_CACTVS_TAUTO_COUNT>  (1) 
2

>  <PUBCHEM_CONFORMER_ID>  (1) 
000064C800000001

>  <PUBCHEM_MMFF94_ENERGY>  (1) 
28.3509

>  <PUBCHEM_FEATURE_SELFOVERLAP>  (1) 
25.371

>  <PUBCHEM_SHAPE_FINGERPRINT>  (1) 
10608611 8 18409726231711608417
10922523 26 18261115153701453879
11132069 177 17894907443030570449
12507560 40 18410011035419790353
12932764 1 18202005451256851228
13296908 3 18040155102044199975
13533116 47 18342182124890727523
13675066 3 18260556619385707217
14252887 29 18186810196292432451
14289901 80 18131345328129444523
14866123 147 16253076741350549746
15219456 202 18410290307014805738
15536298 74 18335422356924593291
17804303 29 18264215707498050799
17834074 16 18335986359203193090
18175812 5 18409165502308857974
18186145 218 18113898204616006681
18380122 1 18260536845087400444
19026448 5 17560796624353023253
19049666 15 18266173937691327964
19107657 162 18187652422415865907
20279233 1 18407758144536608411
20361792 2 15574710322179519495
20528008 55 18410006650342466697
20645477 70 18271237235966111351
20715346 28 18334293158487908253
21065199 12 18410293622798279753
21501925 9 17895757434275195813
22169311 21 18334572443136838287
22943178 12 18335136471084833375
23559900 14 18408602548176734620
2748010 2 18186801340249417367
449060 50 18337952393320353304
495365 180 18128798807459454080
5104073 3 18408326571047976305
7364860 26 18343019969846448874
81228 2 17604429574712091733
9709674 26 18335707156306588123

>  <PUBCHEM_SHAPE_MULTIPOLES>  (1) 
276.13
7.37
2.13
1.04
1.19
0.61
-0.12
0.35
1.76
-2.25
0.03
-0.2
-0.18
1.35

>  <PUBCHEM_SHAPE_SELFOVERLAP>  (1) 
551.064

>  <PUBCHEM_SHAPE_VOLUME>  (1) 
164.1

>  <PUBCHEM_COORDINATE_TYPE>  (1) 
2
5
10

$$$$
