2580
     RDKit          3D

 33 37  0  0  0  0  0  0  0  0999 V2000
   -3.7795   -2.6981   -1.6204 O   0  0  0  0  0  0  0  0  0  0  0  0
   -4.4645   -0.0678    0.2640 N   0  0  0  0  0  0  0  0  0  0  0  0
   -0.4275   -1.2997   -0.0138 N   0  0  0  0  0  0  0  0  0  0  0  0
   -4.8017   -2.8486    0.4354 N   0  0  0  0  0  0  0  0  0  0  0  0
    2.7433    0.0854    0.7633 N   0  0  0  0  0  0  0  0  0  0  0  0
   -3.3483   -0.9716   -0.0127 C   0  0  0  0  0  0  0  0  0  0  0  0
   -2.4502   -0.3721   -1.1020 C   0  0  0  0  0  0  0  0  0  0  0  0
   -2.5440   -1.2144    1.2706 C   0  0  0  0  0  0  0  0  0  0  0  0
   -1.1546   -1.1715   -1.2835 C   0  0  0  0  0  0  0  0  0  0  0  0
   -1.2446   -1.9815    0.9985 C   0  0  0  0  0  0  0  0  0  0  0  0
   -5.2565    0.1587   -0.9532 C   0  0  0  0  0  0  0  0  0  0  0  0
   -3.9732    1.2000    0.8216 C   0  0  0  0  0  0  0  0  0  0  0  0
   -6.4571    1.0630   -0.6702 C   0  0  0  0  0  0  0  0  0  0  0  0
   -5.1317    2.1385    1.1625 C   0  0  0  0  0  0  0  0  0  0  0  0
   -3.9805   -2.2536   -0.4929 C   0  0  0  0  0  0  0  0  0  0  0  0
   -6.0207    2.3859   -0.0509 C   0  0  0  0  0  0  0  0  0  0  0  0
    0.8343   -2.0117   -0.2168 C   0  0  0  0  0  0  0  0  0  0  0  0
    1.6524   -2.1069    1.0747 C   0  0  0  0  0  0  0  0  0  0  0  0
    1.9980   -0.7604    1.7096 C   0  0  0  0  0  0  0  0  0  0  0  0
    4.0176   -0.3745    0.3304 C   0  0  0  0  0  0  0  0  0  0  0  0
    2.1357    1.3440    0.5182 C   0  0  0  0  0  0  0  0  0  0  0  0
    4.6728    0.0786   -0.8406 C   0  0  0  0  0  0  0  0  0  0  0  0
    2.0425    1.8786   -0.7775 C   0  0  0  0  0  0  0  0  0  0  0  0
    4.1092    1.0518   -1.8543 C   0  0  0  0  0  0  0  0  0  0  0  0
    2.5938    1.1204   -1.9503 C   0  0  0  0  0  0  0  0  0  0  0  0
    4.7258   -1.3136    1.1275 C   0  0  0  0  0  0  0  0  0  0  0  0
    1.5919    2.0996    1.5799 C   0  0  0  0  0  0  0  0  0  0  0  0
    5.9785   -0.3853   -1.1387 C   0  0  0  0  0  0  0  0  0  0  0  0
    1.4230    3.1232   -0.9899 C   0  0  0  0  0  0  0  0  0  0  0  0
    6.0046   -1.7745    0.8048 C   0  0  0  0  0  0  0  0  0  0  0  0
    0.9801    3.3355    1.3622 C   0  0  0  0  0  0  0  0  0  0  0  0
    6.6360   -1.3047   -0.3305 C   0  0  0  0  0  0  0  0  0  0  0  0
    0.8948    3.8474    0.0750 C   0  0  0  0  0  0  0  0  0  0  0  0
  1 15  2  0
  2  6  1  0
  2 11  1  0
  2 12  1  0
  3  9  1  0
  3 10  1  0
  3 17  1  0
  4 15  1  0
  5 19  1  0
  5 20  1  0
  5 21  1  0
  6  7  1  0
  6  8  1  0
  6 15  1  0
  7  9  1  0
  8 10  1  0
 11 13  1  0
 12 14  1  0
 13 16  1  0
 14 16  1  0
 17 18  1  0
 18 19  1  0
 20 22  2  0
 20 26  1  0
 21 23  2  0
 21 27  1  0
 22 24  1  0
 22 28  1  0
 23 25  1  0
 23 29  1  0
 24 25  1  0
 26 30  2  0
 27 31  2  0
 28 32  2  0
 29 33  2  0
 30 32  1  0
 31 33  1  0
M  END
>  <PUBCHEM_COMPOUND_CID>  (1) 
2580

>  <PUBCHEM_CONFORMER_RMSD>  (1) 
1

>  <PUBCHEM_CONFORMER_DIVERSEORDER>  (1) 
1
10
55
68
103
28
43
21
87
7
29
77
30
64
94
72
93
5
60
39
59
17
46
82
11
101
67
81
74
15
52
4
38
75
92
90
33
73
102
56
58
8
14
80
62
9
26
54
34
61
86
37
65
27
45
23
88
97
79
104
53
99
95
100
51
48
41
18
24
35
66
89
57
42
19
22
47
85
69
25
70
3
84
83
91
49
44
36
16
6
20
96
31
12
40
63
71
2
50
13
32
98
76
78

>  <PUBCHEM_MMFF94_PARTIAL_CHARGES>  (1) 
37
1 -0.57
10 0.27
11 0.27
12 0.27
15 0.57
17 0.27
19 0.37
2 -0.81
20 0.1
21 0.1
22 -0.14
23 -0.14
24 0.14
25 0.14
26 -0.15
27 -0.15
28 -0.15
29 -0.15
3 -0.81
30 -0.15
31 -0.15
32 -0.15
33 -0.15
4 -0.8
5 -0.57
56 0.37
57 0.37
6 0.33
64 0.15
65 0.15
66 0.15
67 0.15
68 0.15
69 0.15
70 0.15
71 0.15
9 0.27

>  <PUBCHEM_EFFECTIVE_ROTOR_COUNT>  (1) 
9

>  <PUBCHEM_PHARMACOPHORE_FEATURES>  (1) 
10
1 1 acceptor
1 2 cation
1 3 cation
1 4 donor
1 5 cation
6 2 11 12 13 14 16 rings
6 20 22 26 28 30 32 rings
6 21 23 27 29 31 33 rings
6 3 6 7 8 9 10 rings
7 5 20 21 22 23 24 25 rings

>  <PUBCHEM_HEAVY_ATOM_COUNT>  (1) 
33

>  <PUBCHEM_ATOM_DEF_STEREO_COUNT>  (1) 
0

>  <PUBCHEM_ATOM_UDEF_STEREO_COUNT>  (1) 
0

>  <PUBCHEM_BOND_DEF_STEREO_COUNT>  (1) 
0

>  <PUBCHEM_BOND_UDEF_STEREO_COUNT>  (1) 
0

>  <PUBCHEM_ISOTOPIC_ATOM_COUNT>  (1) 
0

>  <PUBCHEM_COMPONENT_COUNT>  (1) 
1

>  <PUBCHEM_CACTVS_TAUTO_COUNT>  (1) 
2

>  <PUBCHEM_CONFORMER_ID>  (1) 
00000A1400000001

>  <PUBCHEM_MMFF94_ENERGY>  (1) 
110.4605

>  <PUBCHEM_FEATURE_SELFOVERLAP>  (1) 
50.763

>  <PUBCHEM_SHAPE_FINGERPRINT>  (1) 
10675989 125 18186804661087468162
11763715 3 17688887744883576239
11828532 37 16844714452853523165
12107698 1 18270963565419769847
12166972 35 18270964660325064362
12633257 1 18114174216552553107
12788726 201 18191583056252571864
14068700 675 18060414681733815168
14117953 113 18340763729306086181
14294032 229 18051420565777645568
14394314 77 18408609154185154076
14464042 87 18337112259616184672
15001296 14 18334855039216694520
15064981 194 18409451415073423351
15183329 4 18335423443793847294
15238133 3 18409169878870060800
15276724 80 18336264549279086868
15297060 5 17416690138129122209
1601671 61 18411981325965468490
20775438 99 17475770522431357414
21927370 108 16449233043631040218
23559900 14 18341603880448170993
24893992 56 18410014317824831089
249057 3 18341887494497936415
340366 18 17988079027613490694
3459 83 18334863771021824642
4144715 1 18335429001292287139
437795 51 12974188297102192534
46939830 39 17894920598210314484
57527295 17 18193285306795433820
58260988 647 13769038323055615896
6081469 158 16988850432871399070
6086070 43 18339915000564944189
6328613 192 18335425672961371932

>  <PUBCHEM_SHAPE_MULTIPOLES>  (1) 
653.33
15.12
3.82
1.65
4.13
2.15
0.14
-2.34
2.12
1.54
-0.49
-0.75
0.22
-1.5

>  <PUBCHEM_SHAPE_SELFOVERLAP>  (1) 
1402.4

>  <PUBCHEM_SHAPE_VOLUME>  (1) 
356.7

>  <PUBCHEM_COORDINATE_TYPE>  (1) 
2
5
10

$$$$
