25803
     RDKit          3D

 29 30  0  0  1  0  0  0  0  0999 V2000
   -1.2760   -1.4784   -2.1101 O   0  0  0  0  0  0  0  0  0  0  0  0
    1.3948    1.0865    0.5039 O   0  0  0  0  0  0  0  0  0  0  0  0
   -3.9915   -2.1559    1.5051 O   0  0  0  0  0  0  0  0  0  0  0  0
    3.7539   -0.1079   -0.3969 O   0  0  0  0  0  0  0  0  0  0  0  0
    0.4199   -1.1905    2.2062 O   0  0  0  0  0  0  0  0  0  0  0  0
    1.5774    3.1414   -0.5178 O   0  0  0  0  0  0  0  0  0  0  0  0
   -0.3804   -1.1531    0.0133 N   0  0  0  0  0  0  0  0  0  0  0  0
   -1.8073   -1.5541    1.8499 N   0  0  0  0  0  0  0  0  0  0  0  0
    2.3135    2.8028    1.6341 N   0  0  0  0  0  0  0  0  0  0  0  0
   -2.8303   -1.0102   -0.3070 C   0  0  0  0  0  0  0  0  0  0  0  0
   -3.8730   -1.6644   -1.2427 C   0  0  0  0  0  0  0  0  0  0  0  0
   -1.4363   -1.2595   -0.9077 C   0  0  0  0  0  0  0  0  0  0  0  0
   -3.1564    0.4986   -0.2228 C   0  0  0  0  0  0  0  0  0  0  0  0
   -2.9550   -1.6468    1.0804 C   0  0  0  0  0  0  0  0  0  0  0  0
    0.9743   -1.0606   -0.5178 C   0  0  0  0  0  0  0  0  0  0  0  0
    1.4292    0.3811   -0.7372 C   0  0  0  0  0  0  0  0  0  0  0  0
   -0.5183   -1.2686    1.4090 C   0  0  0  0  0  0  0  0  0  0  0  0
   -3.6438   -3.1561   -1.3547 C   0  0  0  0  0  0  0  0  0  0  0  0
   -2.5484    1.3821   -1.1056 C   0  0  0  0  0  0  0  0  0  0  0  0
   -4.0533    0.9538    0.7353 C   0  0  0  0  0  0  0  0  0  0  0  0
    2.8379    0.4836   -1.3132 C   0  0  0  0  0  0  0  0  0  0  0  0
   -2.8425    2.7435   -1.0292 C   0  0  0  0  0  0  0  0  0  0  0  0
   -4.3475    2.3151    0.8116 C   0  0  0  0  0  0  0  0  0  0  0  0
   -3.7421    3.2099   -0.0705 C   0  0  0  0  0  0  0  0  0  0  0  0
    5.0852   -0.0564   -0.8882 C   0  0  0  0  0  0  0  0  0  0  0  0
    6.0115   -0.7017    0.1327 C   0  0  0  0  0  0  0  0  0  0  0  0
    7.4668   -0.6668   -0.3255 C   0  0  0  0  0  0  0  0  0  0  0  0
    1.7444    2.4059    0.4494 C   0  0  0  0  0  0  0  0  0  0  0  0
    8.3934   -1.2733    0.7161 C   0  0  0  0  0  0  0  0  0  0  0  0
  1 12  2  0
  2 16  1  0
  2 28  1  0
  3 14  2  0
  4 21  1  0
  4 25  1  0
  5 17  2  0
  6 28  2  0
  7 12  1  0
  7 15  1  0
  7 17  1  0
  8 14  1  0
  8 17  1  0
  9 28  1  0
 10 11  1  0
 10 12  1  0
 10 13  1  0
 10 14  1  0
 11 18  1  0
 13 19  2  0
 13 20  1  0
 15 16  1  0
 16 21  1  0
 19 22  1  0
 20 23  2  0
 22 24  2  0
 23 24  1  0
 25 26  1  0
 26 27  1  0
 27 29  1  0
M  END
>  <PUBCHEM_COMPOUND_CID>  (1) 
25803

>  <PUBCHEM_CONFORMER_RMSD>  (1) 
1.2

>  <PUBCHEM_CONFORMER_DIVERSEORDER>  (1) 
1
32
47
59
49
183
357
13
43
120
255
423
128
106
585
365
117
37
343
203
45
105
220
19
199
480
553
371
187
274
473
600
140
269
262
509
411
159
579
197
55
275
404
158
192
597
389
181
253
416
88
254
60
322
20
482
109
30
559
2
114
178
64
58
236
455
382
174
170
442
65
7
97
164
245
430
470
25
326
14
299
514
587
28
22
137
77
210
363
51
3
180
211
536
167
103
94
522
79
8
129
201
15
263
21
543
297
57
40
68
367
355
5
11
70
155
307
204
9
111
463
44
26
350
31
282
75
519
457
101
468
420
108
441
141
98
252
90
268
10
384
23
205
80
555
41
258
344
582
335
99
63
190
134
27
4
336
504
506
66
104
496
34
73
52
62
146
294
373
86
182
12
230
16
196
372

>  <PUBCHEM_MMFF94_PARTIAL_CHARGES>  (1) 
32
1 -0.57
10 0.27
12 0.57
13 -0.14
14 0.57
15 0.3
16 0.28
17 0.69
19 -0.15
2 -0.43
20 -0.15
21 0.28
22 -0.15
23 -0.15
24 -0.15
25 0.28
28 0.78
3 -0.57
35 0.37
4 -0.56
41 0.15
42 0.15
43 0.15
44 0.15
47 0.15
5 -0.57
55 0.37
56 0.37
6 -0.57
7 -0.42
8 -0.49
9 -0.8

>  <PUBCHEM_EFFECTIVE_ROTOR_COUNT>  (1) 
11.6

>  <PUBCHEM_PHARMACOPHORE_FEATURES>  (1) 
11
1 1 acceptor
1 18 hydrophobe
1 29 hydrophobe
1 3 acceptor
1 4 acceptor
1 5 acceptor
1 6 acceptor
1 8 donor
1 9 donor
6 13 19 20 22 23 24 rings
6 7 8 10 12 14 17 rings

>  <PUBCHEM_HEAVY_ATOM_COUNT>  (1) 
29

>  <PUBCHEM_ATOM_DEF_STEREO_COUNT>  (1) 
0

>  <PUBCHEM_ATOM_UDEF_STEREO_COUNT>  (1) 
2

>  <PUBCHEM_BOND_DEF_STEREO_COUNT>  (1) 
0

>  <PUBCHEM_BOND_UDEF_STEREO_COUNT>  (1) 
0

>  <PUBCHEM_ISOTOPIC_ATOM_COUNT>  (1) 
0

>  <PUBCHEM_COMPONENT_COUNT>  (1) 
1

>  <PUBCHEM_CACTVS_TAUTO_COUNT>  (1) 
6

>  <PUBCHEM_CONFORMER_ID>  (1) 
000064CB00000001

>  <PUBCHEM_MMFF94_ENERGY>  (1) 
73.0689

>  <PUBCHEM_FEATURE_SELFOVERLAP>  (1) 
55.823

>  <PUBCHEM_SHAPE_FINGERPRINT>  (1) 
10165383 225 18115311047357684885
10291535 26 17560524997309340793
11007060 377 14707783938736704602
11135926 11 17095517354644302682
11315181 36 17894352207176237574
11578080 2 17417518220091533689
12107698 1 18340487867260248149
14251751 93 18334298630408456437
14466204 15 18412827954435336844
14713325 29 18343868814255951671
14856354 85 17603597317703844798
15183329 4 16950278495643849506
17093844 174 18341607106094866130
18393751 57 16689615374585207488
18769570 83 18337677408482344960
21033648 29 17845921988284263026
21236236 1 18335140886517000692
21304303 282 16413810184317344105
21756936 100 18260549974723075561
21987440 362 17614566934724151508
23559900 14 17532936223449203238
350125 39 18343024427885417285
35225 105 15864920975056363449
392239 28 17678770949612598529
444769 64 17240763914156275570
70251023 43 18196646509320295727
7226269 152 18337108948223175888

>  <PUBCHEM_SHAPE_MULTIPOLES>  (1) 
546.65
14
3.53
1.66
37.2
1.86
0.35
-3
0.62
-4.47
-0.03
-0.81
-0.65
-0.22

>  <PUBCHEM_SHAPE_SELFOVERLAP>  (1) 
1135.334

>  <PUBCHEM_SHAPE_VOLUME>  (1) 
307.7

>  <PUBCHEM_COORDINATE_TYPE>  (1) 
2
5
10

$$$$
