2581
     RDKit          3D

 19 21  0  0  1  0  0  0  0  0999 V2000
    5.8665   -1.2890   -0.4270 Cl  0  0  0  0  0  0  0  0  0  0  0  0
   -5.6929    0.2750   -0.6389 O   0  0  0  0  0  0  0  0  0  0  0  0
   -3.7329    0.8749   -1.6056 O   0  0  0  0  0  0  0  0  0  0  0  0
    0.8539    1.6108    0.3347 N   0  0  0  0  0  0  0  0  0  0  0  0
    0.6190   -0.5894    0.0592 C   0  0  0  0  0  0  0  0  0  0  0  0
   -0.0770    0.6012    0.2696 C   0  0  0  0  0  0  0  0  0  0  0  0
    2.0116   -0.2651   -0.0016 C   0  0  0  0  0  0  0  0  0  0  0  0
   -2.1756   -0.5486    0.2729 C   0  0  0  0  0  0  0  0  0  0  0  0
    2.1258    1.1143    0.1735 C   0  0  0  0  0  0  0  0  0  0  0  0
   -3.6642   -0.5387    0.3853 C   0  0  0  0  0  0  0  0  0  0  0  0
   -1.4713    0.6536    0.3806 C   0  0  0  0  0  0  0  0  0  0  0  0
   -0.1145   -1.7899   -0.0458 C   0  0  0  0  0  0  0  0  0  0  0  0
   -1.5093   -1.7535    0.0630 C   0  0  0  0  0  0  0  0  0  0  0  0
    3.1878   -1.0208   -0.1902 C   0  0  0  0  0  0  0  0  0  0  0  0
    3.3579    1.7783    0.1696 C   0  0  0  0  0  0  0  0  0  0  0  0
   -4.1840   -0.0247    1.7426 C   0  0  0  0  0  0  0  0  0  0  0  0
    4.4271   -0.3708   -0.1966 C   0  0  0  0  0  0  0  0  0  0  0  0
   -4.3364    0.2741   -0.7260 C   0  0  0  0  0  0  0  0  0  0  0  0
    4.5085    1.0083   -0.0194 C   0  0  0  0  0  0  0  0  0  0  0  0
  1 17  1  0
  2 18  1  0
  3 18  2  0
  4  6  1  0
  4  9  1  0
  5  6  2  0
  5  7  1  0
  5 12  1  0
  6 11  1  0
  7  9  2  0
  7 14  1  0
  8 10  1  0
  8 11  2  0
  8 13  1  0
  9 15  1  0
 10 16  1  0
 10 18  1  0
 12 13  2  0
 14 17  2  0
 15 19  2  0
 17 19  1  0
M  END
>  <PUBCHEM_COMPOUND_CID>  (1) 
2581

>  <PUBCHEM_CONFORMER_RMSD>  (1) 
0.6

>  <PUBCHEM_CONFORMER_DIVERSEORDER>  (1) 
1
4
3
2

>  <PUBCHEM_MMFF94_PARTIAL_CHARGES>  (1) 
24
1 -0.18
10 0.2
11 -0.15
12 -0.15
13 -0.15
14 -0.15
15 -0.15
17 0.18
18 0.66
19 -0.15
2 -0.65
21 0.15
22 0.27
23 0.15
24 0.15
25 0.15
26 0.15
3 -0.57
30 0.15
31 0.5
4 0.03
6 -0.15
8 -0.14
9 -0.15

>  <PUBCHEM_EFFECTIVE_ROTOR_COUNT>  (1) 
2

>  <PUBCHEM_PHARMACOPHORE_FEATURES>  (1) 
9
1 16 hydrophobe
1 2 acceptor
1 3 acceptor
1 4 cation
1 4 donor
3 2 3 18 anion
5 4 5 6 7 9 rings
6 5 6 8 11 12 13 rings
6 7 9 14 15 17 19 rings

>  <PUBCHEM_HEAVY_ATOM_COUNT>  (1) 
19

>  <PUBCHEM_ATOM_DEF_STEREO_COUNT>  (1) 
0

>  <PUBCHEM_ATOM_UDEF_STEREO_COUNT>  (1) 
1

>  <PUBCHEM_BOND_DEF_STEREO_COUNT>  (1) 
0

>  <PUBCHEM_BOND_UDEF_STEREO_COUNT>  (1) 
0

>  <PUBCHEM_ISOTOPIC_ATOM_COUNT>  (1) 
0

>  <PUBCHEM_COMPONENT_COUNT>  (1) 
1

>  <PUBCHEM_CACTVS_TAUTO_COUNT>  (1) 
1

>  <PUBCHEM_CONFORMER_ID>  (1) 
00000A1500000001

>  <PUBCHEM_MMFF94_ENERGY>  (1) 
40.6678

>  <PUBCHEM_FEATURE_SELFOVERLAP>  (1) 
45.908

>  <PUBCHEM_SHAPE_FINGERPRINT>  (1) 
11471102 20 18341612633564769256
11543360 7 15267061505534811785
12236239 1 17489869341142872833
12403259 415 18260543420650838053
12555020 224 18342736312457055791
12596602 18 13973960974955582334
13533116 47 17561085774832333490
13583140 156 17675924317812357211
13675066 3 18113622334413342458
13760787 19 16660360381115585867
13760787 5 18272376381594117160
13862211 1 18342456998429065398
14251752 14 17676487208095457718
14573314 32 17894629227701883702
14911166 2 18411980251949435326
15048467 5 13840265875170005023
15099037 51 18411700980470438526
15196674 1 18340488975441172002
15242439 84 18187083948891564258
15788980 27 18186239545489068330
17349148 13 17917998269418966186
17834072 8 18408323276681614894
17844677 252 17240773903459174916
18186145 218 18412267254543677211
200 152 17632857520709170320
20612939 158 18411704309318032196
20645477 56 18188767374255924500
20645477 70 18342459227332404438
21029758 11 18202280312047632408
21033648 29 18261098695445206977
21267235 1 18340781372873215730
21279426 13 18192992608700069486
21503847 285 16298390184174291180
21521239 73 18130492116028983063
21859007 373 18043224900450941916
221357 26 18340195328759545749
231179 274 18114175337259507259
23402539 116 17632297847921466497
23402655 69 18272087218588977932
23493267 7 17603581920298479289
23557571 272 17313384474710224837
23559900 14 18343301509569351096
2871803 45 18408604730404892010
29717793 49 17561085786915278452
3004659 81 18260550005447443990
335352 9 18411983555380757374
34934 24 18340760555113685698
3545911 37 18411140281338122200
4072396 5 18338784655472750538
495365 180 17631720695022744544
5104073 3 18341334508668130530
542803 24 17132121246638864809
602551 16 16226622912371112058
633830 44 17313662767163641210
69090 78 18201438103341567966
90127 26 17748829647804972249
9709674 26 18266181823657653794

>  <PUBCHEM_SHAPE_MULTIPOLES>  (1) 
376.16
11.55
1.65
0.96
0.16
0.07
-0.02
0.33
1.6
1.26
0
-1.33
-0.12
0.59

>  <PUBCHEM_SHAPE_SELFOVERLAP>  (1) 
826.96

>  <PUBCHEM_SHAPE_VOLUME>  (1) 
205.3

>  <PUBCHEM_COORDINATE_TYPE>  (1) 
2
5
10

$$$$
