25815
     RDKit          3D

 13 12  0  0  0  0  0  0  0  0999 V2000
    0.5249   -0.3784   -1.0568 S   0  0  0  0  0  0  0  0  0  0  0  0
    3.7824    0.9087   -1.3883 S   0  0  0  0  0  0  0  0  0  0  0  0
    2.3519    0.2908   -0.1958 P   0  0  0  0  0  0  0  0  0  0  0  0
    1.9635    1.4057    0.9356 O   0  0  0  0  0  0  0  0  0  0  0  0
    2.8629   -0.8885    0.8151 O   0  0  0  0  0  0  0  0  0  0  0  0
   -3.6789    0.0636    1.2730 O   0  0  0  0  0  0  0  0  0  0  0  0
   -2.6230   -0.5929   -0.6963 N   0  0  0  0  0  0  0  0  0  0  0  0
   -1.7747   -1.6117   -0.1394 C   0  0  0  0  0  0  0  0  0  0  0  0
   -0.4210   -1.0791    0.3103 C   0  0  0  0  0  0  0  0  0  0  0  0
   -3.5081    0.1627    0.0607 C   0  0  0  0  0  0  0  0  0  0  0  0
   -4.2547    1.1748   -0.7663 C   0  0  0  0  0  0  0  0  0  0  0  0
    1.4477    2.6690    0.5500 C   0  0  0  0  0  0  0  0  0  0  0  0
    3.3271   -2.1248    0.2982 C   0  0  0  0  0  0  0  0  0  0  0  0
  1  3  1  0
  1  9  1  0
  2  3  2  0
  3  4  1  0
  3  5  1  0
  4 12  1  0
  5 13  1  0
  6 10  2  0
  7  8  1  0
  7 10  1  0
  8  9  1  0
 10 11  1  0
M  END
>  <PUBCHEM_COMPOUND_CID>  (1) 
25815

>  <PUBCHEM_CONFORMER_RMSD>  (1) 
0.8

>  <PUBCHEM_CONFORMER_DIVERSEORDER>  (1) 
1
69
23
70
41
61
39
60
45
12
31
13
42
44
36
17
14
51
19
57
59
20
50
30
10
16
58
48
37
34
53
40
56
43
6
38
54
67
22
63
4
27
18
35
52
62
25
49
46
11
33
8
28
55
9
71
32
5
68
26
64
2
15
3
65
29
21
7
24
47
66

>  <PUBCHEM_MMFF94_PARTIAL_CHARGES>  (1) 
14
1 -0.48
10 0.57
11 0.06
12 0.28
13 0.28
18 0.37
2 -0.68
3 1.47
4 -0.55
5 -0.55
6 -0.57
7 -0.73
8 0.3
9 0.23

>  <PUBCHEM_EFFECTIVE_ROTOR_COUNT>  (1) 
7

>  <PUBCHEM_PHARMACOPHORE_FEATURES>  (1) 
2
1 6 acceptor
1 7 donor

>  <PUBCHEM_HEAVY_ATOM_COUNT>  (1) 
13

>  <PUBCHEM_ATOM_DEF_STEREO_COUNT>  (1) 
0

>  <PUBCHEM_ATOM_UDEF_STEREO_COUNT>  (1) 
0

>  <PUBCHEM_BOND_DEF_STEREO_COUNT>  (1) 
0

>  <PUBCHEM_BOND_UDEF_STEREO_COUNT>  (1) 
0

>  <PUBCHEM_ISOTOPIC_ATOM_COUNT>  (1) 
0

>  <PUBCHEM_COMPONENT_COUNT>  (1) 
1

>  <PUBCHEM_CACTVS_TAUTO_COUNT>  (1) 
2

>  <PUBCHEM_CONFORMER_ID>  (1) 
000064D700000001

>  <PUBCHEM_MMFF94_ENERGY>  (1) 
8.1801

>  <PUBCHEM_FEATURE_SELFOVERLAP>  (1) 
10.148

>  <PUBCHEM_SHAPE_FINGERPRINT>  (1) 
10130415 120 18409726231985954074
12162725 195 17917709132389397903
12500047 106 18334856172797604958
12932764 1 18339927137652217383
13922767 16 18338791226218675775
14252887 29 15502095258635031118
15775835 57 18335144214831740407
17041 49 18343017770401180834
17041 50 18059868306417326084
17834069 15 18335135393074396599
18186145 218 18131354141444507747
192875 21 17988352681433415729
20233049 118 18412553123736480468
20339313 130 17748829588049697334
20671657 1 18341048631096492628
212847 35 18335981982731570085
23380061 81 17894633647323568470
74978 22 18271807981306228022

>  <PUBCHEM_SHAPE_MULTIPOLES>  (1) 
256.49
8.16
2.24
1.19
5.27
0.52
0.11
1.08
0.81
-1.61
-0.49
-0.33
0.27
-0.15

>  <PUBCHEM_SHAPE_SELFOVERLAP>  (1) 
433.547

>  <PUBCHEM_SHAPE_VOLUME>  (1) 
175.1

>  <PUBCHEM_COORDINATE_TYPE>  (1) 
2
5
10

$$$$
