25827
     RDKit          3D

 12 13  0  0  0  0  0  0  0  0999 V2000
    1.4736   -1.4278    0.0089 O   0  0  0  0  0  0  0  0  0  0  0  0
    2.7101    0.5390    0.0624 N   0  0  0  0  0  0  0  0  0  0  0  0
    0.4237    0.6736    0.0387 N   0  0  0  0  0  0  0  0  0  0  0  0
    3.9049    0.0354    0.6737 C   0  0  0  0  0  0  0  0  0  0  0  0
    3.8214    0.2284   -0.7881 C   0  0  0  0  0  0  0  0  0  0  0  0
    1.5163   -0.1998    0.0335 C   0  0  0  0  0  0  0  0  0  0  0  0
   -0.9513    0.3472    0.0164 C   0  0  0  0  0  0  0  0  0  0  0  0
   -1.9089    1.3612    0.0263 C   0  0  0  0  0  0  0  0  0  0  0  0
   -1.3507   -0.9890   -0.0146 C   0  0  0  0  0  0  0  0  0  0  0  0
   -3.2659    1.0393    0.0049 C   0  0  0  0  0  0  0  0  0  0  0  0
   -2.7078   -1.3108   -0.0360 C   0  0  0  0  0  0  0  0  0  0  0  0
   -3.6654   -0.2967   -0.0263 C   0  0  0  0  0  0  0  0  0  0  0  0
  1  6  2  0
  2  4  1  0
  2  5  1  0
  2  6  1  0
  3  6  1  0
  3  7  1  0
  4  5  1  0
  7  8  2  0
  7  9  1  0
  8 10  1  0
  9 11  2  0
 10 12  2  0
 11 12  1  0
M  END
>  <PUBCHEM_COMPOUND_CID>  (1) 
25827

>  <PUBCHEM_CONFORMER_RMSD>  (1) 
0.6

>  <PUBCHEM_CONFORMER_DIVERSEORDER>  (1) 
1
4
7
3
5
2
6

>  <PUBCHEM_MMFF94_PARTIAL_CHARGES>  (1) 
22
1 -0.57
10 -0.15
11 -0.15
12 -0.15
13 0.1
14 0.1
15 0.1
16 0.1
17 0.37
18 0.15
19 0.15
2 -0.36
20 0.15
21 0.15
22 0.15
3 -0.55
4 -0.05
5 -0.05
6 0.69
7 0.12
8 -0.15
9 -0.15

>  <PUBCHEM_EFFECTIVE_ROTOR_COUNT>  (1) 
3.6

>  <PUBCHEM_PHARMACOPHORE_FEATURES>  (1) 
3
1 1 acceptor
1 3 donor
6 7 8 9 10 11 12 rings

>  <PUBCHEM_HEAVY_ATOM_COUNT>  (1) 
12

>  <PUBCHEM_ATOM_DEF_STEREO_COUNT>  (1) 
0

>  <PUBCHEM_ATOM_UDEF_STEREO_COUNT>  (1) 
0

>  <PUBCHEM_BOND_DEF_STEREO_COUNT>  (1) 
0

>  <PUBCHEM_BOND_UDEF_STEREO_COUNT>  (1) 
0

>  <PUBCHEM_ISOTOPIC_ATOM_COUNT>  (1) 
0

>  <PUBCHEM_COMPONENT_COUNT>  (1) 
1

>  <PUBCHEM_CACTVS_TAUTO_COUNT>  (1) 
2

>  <PUBCHEM_CONFORMER_ID>  (1) 
000064E300000001

>  <PUBCHEM_MMFF94_ENERGY>  (1) 
41.7793

>  <PUBCHEM_FEATURE_SELFOVERLAP>  (1) 
15.223

>  <PUBCHEM_SHAPE_FINGERPRINT>  (1) 
10219947 1 16008748013633411206
10608611 8 18341889688598516072
11062470 55 17095522906918027804
11132069 177 18411133645328878248
12932764 1 17418081114099414679
13024252 1 15574714695073443961
13380535 76 18410011022376925195
14144814 61 18409446964258202912
14325111 11 18410856538175509096
15219456 202 18059583433826052799
15669948 3 18411973689334612351
15775835 57 18335986376424864177
190213 19 17275106136956578096
1986462 14 18342179959588705524
200 152 17774993609920677325
20201158 50 18342175565953335963
20279233 1 17704072897788878734
20645477 70 17845091770652674855
20871998 184 18201724002583155623
23402539 116 18335127704898352903
23402655 69 18270386184845693797
23463225 33 18261388914943242106
23559900 14 18271805679857625198
3312278 4 18411703192547186715
573450 72 18261097557146368626
6333449 129 18413668011251846949
7364860 26 18197777691957920950

>  <PUBCHEM_SHAPE_MULTIPOLES>  (1) 
231.12
7.46
1.3
0.69
4.02
0.12
0.02
-0.39
0.1
-0.88
0
0.34
-0.02
-0.07

>  <PUBCHEM_SHAPE_SELFOVERLAP>  (1) 
482.465

>  <PUBCHEM_SHAPE_VOLUME>  (1) 
131.4

>  <PUBCHEM_COORDINATE_TYPE>  (1) 
2
5
10

$$$$
