2583
     RDKit          3D

 21 22  0  0  1  0  0  0  0  0999 V2000
    0.3829   -1.6475   -0.7722 O   0  0  0  0  0  0  0  0  0  0  0  0
    2.7597   -2.0787   -2.1972 O   0  0  0  0  0  0  0  0  0  0  0  0
   -4.2497    2.6837   -0.8588 O   0  0  0  0  0  0  0  0  0  0  0  0
    3.0100    0.2182    0.6956 N   0  0  0  0  0  0  0  0  0  0  0  0
   -3.6842    0.7580    0.2581 N   0  0  0  0  0  0  0  0  0  0  0  0
    3.1635    1.6644    0.7777 C   0  0  0  0  0  0  0  0  0  0  0  0
    2.9243   -0.2185   -0.6915 C   0  0  0  0  0  0  0  0  0  0  0  0
    2.7730   -1.7370   -0.8082 C   0  0  0  0  0  0  0  0  0  0  0  0
    3.2588    2.0624    2.2543 C   0  0  0  0  0  0  0  0  0  0  0  0
    4.4478    2.0614    0.0422 C   0  0  0  0  0  0  0  0  0  0  0  0
    1.9522    2.3423    0.1264 C   0  0  0  0  0  0  0  0  0  0  0  0
   -1.6195   -0.4144   -0.2668 C   0  0  0  0  0  0  0  0  0  0  0  0
    1.4954   -2.2681   -0.1616 C   0  0  0  0  0  0  0  0  0  0  0  0
   -1.3926    0.5325   -1.4097 C   0  0  0  0  0  0  0  0  0  0  0  0
   -0.7436   -1.4778   -0.0238 C   0  0  0  0  0  0  0  0  0  0  0  0
   -2.7818   -0.2921    0.5051 C   0  0  0  0  0  0  0  0  0  0  0  0
   -1.9988    1.8960   -1.1129 C   0  0  0  0  0  0  0  0  0  0  0  0
   -3.4222    1.8106   -0.5977 C   0  0  0  0  0  0  0  0  0  0  0  0
   -1.0216   -2.3983    0.9877 C   0  0  0  0  0  0  0  0  0  0  0  0
   -3.0701   -1.2243    1.5047 C   0  0  0  0  0  0  0  0  0  0  0  0
   -2.1837   -2.2730    1.7487 C   0  0  0  0  0  0  0  0  0  0  0  0
  1 13  1  0
  1 15  1  0
  2  8  1  0
  3 18  2  0
  4  6  1  0
  4  7  1  0
  5 16  1  0
  5 18  1  0
  6  9  1  0
  6 10  1  0
  6 11  1  0
  7  8  1  0
  8 13  1  0
 12 14  1  0
 12 15  2  0
 12 16  1  0
 14 17  1  0
 15 19  1  0
 16 20  2  0
 17 18  1  0
 19 21  2  0
 20 21  1  0
M  END
>  <PUBCHEM_COMPOUND_CID>  (1) 
2583

>  <PUBCHEM_CONFORMER_RMSD>  (1) 
0.8

>  <PUBCHEM_CONFORMER_DIVERSEORDER>  (1) 
1
23
49
25
43
60
38
67
39
50
17
37
21
53
35
10
66
59
4
48
61
47
11
34
9
55
65
13
41
56
31
20
12
62
33
45
18
58
26
63
51
44
5
8
46
30
27
3
54
57
16
2
32
42
29
52
40
19
28
36
14
15
22
6
24
7
64

>  <PUBCHEM_MMFF94_PARTIAL_CHARGES>  (1) 
24
1 -0.36
12 -0.14
13 0.28
14 0.14
15 0.08
16 0.12
17 0.06
18 0.57
19 -0.15
2 -0.68
20 -0.15
21 -0.15
24 0.36
3 -0.57
4 -0.9
41 0.37
42 0.15
43 0.15
44 0.15
45 0.4
5 -0.55
6 0.27
7 0.27
8 0.28

>  <PUBCHEM_EFFECTIVE_ROTOR_COUNT>  (1) 
6.6

>  <PUBCHEM_PHARMACOPHORE_FEATURES>  (1) 
10
1 1 acceptor
1 2 acceptor
1 2 donor
1 3 acceptor
1 4 cation
1 4 donor
1 5 donor
4 6 9 10 11 hydrophobe
6 12 15 16 19 20 21 rings
6 5 12 14 16 17 18 rings

>  <PUBCHEM_HEAVY_ATOM_COUNT>  (1) 
21

>  <PUBCHEM_ATOM_DEF_STEREO_COUNT>  (1) 
0

>  <PUBCHEM_ATOM_UDEF_STEREO_COUNT>  (1) 
1

>  <PUBCHEM_BOND_DEF_STEREO_COUNT>  (1) 
0

>  <PUBCHEM_BOND_UDEF_STEREO_COUNT>  (1) 
0

>  <PUBCHEM_ISOTOPIC_ATOM_COUNT>  (1) 
0

>  <PUBCHEM_COMPONENT_COUNT>  (1) 
1

>  <PUBCHEM_CACTVS_TAUTO_COUNT>  (1) 
2

>  <PUBCHEM_CONFORMER_ID>  (1) 
00000A1700000001

>  <PUBCHEM_MMFF94_ENERGY>  (1) 
53.2615

>  <PUBCHEM_FEATURE_SELFOVERLAP>  (1) 
50.774

>  <PUBCHEM_SHAPE_FINGERPRINT>  (1) 
10165383 225 17769680885583303698
1100329 8 16391551439107181516
11221954 11 18411129238650143536
11640471 11 16128376008206278860
12363563 72 11748029409801269704
12633257 1 17896296074734899288
12769317 202 17467058658186143493
13134695 92 17845098355444142462
13402501 40 18410571752106470268
13726171 33 18116736169035958692
14081887 123 18115312296892169563
14178342 30 17821733865807051755
14468879 13 18339350963568208529
15295992 7 18336545993309902331
15475509 84 15739383779694071793
15806764 133 18197806339030823094
17093844 170 18337665296622212480
173720 79 16153697705755588391
18219364 16 18201442544543214306
18981168 100 18272087218742030418
19049666 15 18336832996009645622
19930381 70 17916579976876421809
20681677 76 18411702075681947695
21475661 188 18192702354736761821
21524375 3 17826796928428260999
23175994 123 17984722025430162950
23503958 25 18263659483653117670
23557571 272 18115877462927318219
23559900 14 18041854908271584662
238 59 17846487136918171232
27216 239 18265043820105326521
3187 122 17897443024244732737
3524813 1 18410302410232782242
49207404 50 18410580625170903761
495365 180 18200865188974082773
6049 1 18338818761222582710
7097593 13 17531786014306949456
7808743 9 17895773845287186316
81228 2 17822299023843057383
84936 182 17395570593996626781
90316 7 16732973241436712541
9862522 239 18126550452826829152

>  <PUBCHEM_SHAPE_MULTIPOLES>  (1) 
404.6
7.84
3.51
1.7
2.39
0.2
0.29
5
1.18
-0.34
-0.16
0.59
-0.28
3.31

>  <PUBCHEM_SHAPE_SELFOVERLAP>  (1) 
837.608

>  <PUBCHEM_SHAPE_VOLUME>  (1) 
232.3

>  <PUBCHEM_COORDINATE_TYPE>  (1) 
2
5
10

$$$$
