25831
     RDKit          3D

 10  9  0  0  0  0  0  0  0  0999 V2000
    1.3918    0.1137   -0.3161 N   0  0  0  0  0  0  0  0  0  0  0  0
   -1.3945    0.1199    0.3180 N   0  0  0  0  0  0  0  0  0  0  0  0
    3.3586    1.3312   -0.5312 N   0  0  0  0  0  0  0  0  0  0  0  0
    3.4675   -0.6168    0.6470 N   0  0  0  0  0  0  0  0  0  0  0  0
   -3.3584    1.3307    0.5294 N   0  0  0  0  0  0  0  0  0  0  0  0
   -3.4667   -0.6186   -0.6468 N   0  0  0  0  0  0  0  0  0  0  0  0
    0.7291   -1.0710    0.2139 C   0  0  0  0  0  0  0  0  0  0  0  0
   -0.7281   -1.0714   -0.2135 C   0  0  0  0  0  0  0  0  0  0  0  0
    2.6608    0.2415   -0.0665 C   0  0  0  0  0  0  0  0  0  0  0  0
   -2.6601    0.2407    0.0657 C   0  0  0  0  0  0  0  0  0  0  0  0
  1  7  1  0
  1  9  2  3
  2  8  1  0
  2 10  2  3
  3  9  1  0
  4  9  1  0
  5 10  1  0
  6 10  1  0
  7  8  1  0
M  END
>  <PUBCHEM_COMPOUND_CID>  (1) 
25831

>  <PUBCHEM_CONFORMER_RMSD>  (1) 
0.6

>  <PUBCHEM_CONFORMER_DIVERSEORDER>  (1) 
1
16
3
14
2
8
10
13
6
12
5
9
11
17
7
15
4

>  <PUBCHEM_MMFF94_PARTIAL_CHARGES>  (1) 
18
1 -0.7
10 0.55
15 0.4
16 0.4
17 0.4
18 0.4
19 0.4
2 -0.7
20 0.4
21 0.4
22 0.4
3 -0.85
4 -0.85
5 -0.85
6 -0.85
7 0.25
8 0.25
9 0.55

>  <PUBCHEM_EFFECTIVE_ROTOR_COUNT>  (1) 
3

>  <PUBCHEM_PHARMACOPHORE_FEATURES>  (1) 
6
1 3 donor
1 4 donor
1 5 donor
1 6 donor
4 1 3 4 9 cation
4 2 5 6 10 cation

>  <PUBCHEM_HEAVY_ATOM_COUNT>  (1) 
10

>  <PUBCHEM_ATOM_DEF_STEREO_COUNT>  (1) 
0

>  <PUBCHEM_ATOM_UDEF_STEREO_COUNT>  (1) 
0

>  <PUBCHEM_BOND_DEF_STEREO_COUNT>  (1) 
0

>  <PUBCHEM_BOND_UDEF_STEREO_COUNT>  (1) 
0

>  <PUBCHEM_ISOTOPIC_ATOM_COUNT>  (1) 
0

>  <PUBCHEM_COMPONENT_COUNT>  (1) 
1

>  <PUBCHEM_CACTVS_TAUTO_COUNT>  (1) 
3

>  <PUBCHEM_CONFORMER_ID>  (1) 
000064E700000001

>  <PUBCHEM_MMFF94_ENERGY>  (1) 
28.7357

>  <PUBCHEM_FEATURE_SELFOVERLAP>  (1) 
30.56

>  <PUBCHEM_SHAPE_FINGERPRINT>  (1) 
10149128 111 18410864256221450341
10219947 1 17530683208112326166
12162725 195 18410855460128226752
12897270 3 15985107396533202107
14325111 11 18410857663451795823
14390081 3 18342177752218147313
15775835 57 18410579487004810660
170605 34 18408044004706804170
19107657 47 17603855689613113612
20281407 28 8502375520408911614
20711983 171 18272092686087704981
21293036 1 15554443015617743487
3248919 1 18410572889935134951

>  <PUBCHEM_SHAPE_MULTIPOLES>  (1) 
175.91
6.82
1.23
0.71
0
0.13
0
1.93
0
0
0
0
0
-0.72

>  <PUBCHEM_SHAPE_SELFOVERLAP>  (1) 
329.851

>  <PUBCHEM_SHAPE_VOLUME>  (1) 
105.6

>  <PUBCHEM_COORDINATE_TYPE>  (1) 
2
5
10

$$$$
