25834
     RDKit          3D

 16 16  0  0  0  0  0  0  0  0999 V2000
    0.0425   -0.6460    0.4620 S   0  0  0  0  0  0  0  0  0  0  0  0
    1.9363   -0.5396   -0.4428 P   0  0  0  0  0  0  0  0  0  0  0  0
    3.0699   -0.9752    0.6387 O   0  0  0  0  0  0  0  0  0  0  0  0
    2.3288    1.0027   -0.7747 O   0  0  0  0  0  0  0  0  0  0  0  0
    1.9704   -1.3993   -1.6799 O   0  0  0  0  0  0  0  0  0  0  0  0
   -1.1135   -0.0429   -0.7844 C   0  0  0  0  0  0  0  0  0  0  0  0
   -2.5346   -0.0532   -0.2925 C   0  0  0  0  0  0  0  0  0  0  0  0
   -3.0454    1.0673    0.3495 C   0  0  0  0  0  0  0  0  0  0  0  0
   -3.3185   -1.1831   -0.4861 C   0  0  0  0  0  0  0  0  0  0  0  0
    4.4336   -0.9262    0.2553 C   0  0  0  0  0  0  0  0  0  0  0  0
    2.3531    1.9680    0.2625 C   0  0  0  0  0  0  0  0  0  0  0  0
   -4.3635    1.0577    0.8057 C   0  0  0  0  0  0  0  0  0  0  0  0
   -4.6366   -1.1925   -0.0297 C   0  0  0  0  0  0  0  0  0  0  0  0
   -5.1592   -0.0721    0.6162 C   0  0  0  0  0  0  0  0  0  0  0  0
    5.2899   -1.3738    1.4207 C   0  0  0  0  0  0  0  0  0  0  0  0
    2.7466    3.3084   -0.3205 C   0  0  0  0  0  0  0  0  0  0  0  0
  1  2  1  0
  1  6  1  0
  2  3  1  0
  2  4  1  0
  2  5  2  0
  3 10  1  0
  4 11  1  0
  6  7  1  0
  7  8  2  0
  7  9  1  0
  8 12  1  0
  9 13  2  0
 10 15  1  0
 11 16  1  0
 12 14  2  0
 13 14  1  0
M  END
>  <PUBCHEM_COMPOUND_CID>  (1) 
25834

>  <PUBCHEM_CONFORMER_RMSD>  (1) 
0.8

>  <PUBCHEM_CONFORMER_DIVERSEORDER>  (1) 
1
20
49
47
24
28
7
5
50
4
10
29
6
48
23
15
3
21
30
44
11
13
39
2
18
33
17
32
9
35
16
43
8
41
45
19
12
40
37
27
26
25
22
42
34
14
46
36
38
31
51

>  <PUBCHEM_MMFF94_PARTIAL_CHARGES>  (1) 
19
1 -0.48
10 0.28
11 0.28
12 -0.15
13 -0.15
14 -0.15
2 1.49
23 0.15
24 0.15
25 0.15
26 0.15
3 -0.55
33 0.15
4 -0.55
5 -0.7
6 0.37
7 -0.14
8 -0.15
9 -0.15

>  <PUBCHEM_EFFECTIVE_ROTOR_COUNT>  (1) 
7

>  <PUBCHEM_PHARMACOPHORE_FEATURES>  (1) 
2
1 5 acceptor
6 7 8 9 12 13 14 rings

>  <PUBCHEM_HEAVY_ATOM_COUNT>  (1) 
16

>  <PUBCHEM_ATOM_DEF_STEREO_COUNT>  (1) 
0

>  <PUBCHEM_ATOM_UDEF_STEREO_COUNT>  (1) 
0

>  <PUBCHEM_BOND_DEF_STEREO_COUNT>  (1) 
0

>  <PUBCHEM_BOND_UDEF_STEREO_COUNT>  (1) 
0

>  <PUBCHEM_ISOTOPIC_ATOM_COUNT>  (1) 
0

>  <PUBCHEM_COMPONENT_COUNT>  (1) 
1

>  <PUBCHEM_CACTVS_TAUTO_COUNT>  (1) 
1

>  <PUBCHEM_CONFORMER_ID>  (1) 
000064EA00000001

>  <PUBCHEM_MMFF94_ENERGY>  (1) 
16.9699

>  <PUBCHEM_FEATURE_SELFOVERLAP>  (1) 
10.148

>  <PUBCHEM_SHAPE_FINGERPRINT>  (1) 
11089746 13 18261383405011943565
11405975 8 18408888468497286011
12403259 118 18202563965094760813
12507557 5 18411413982260724193
12616971 3 18413674625812719179
12633257 1 18411420604904940551
12916754 54 18334288803807814359
13675066 3 17561081384478873839
14251718 22 11169922675078740707
15375358 24 13326852244715916134
17041 49 18410012100650762020
18186145 218 18260832605040779183
18785283 64 18115022034871391340
19050596 39 18413110571836541895
20279233 1 15482671277755471207
20671657 1 18263926699560211684
23402539 116 18339914939902846639
23503953 91 18273216387403665691
23532345 12 18273213088562833832
23557571 272 16773526460148022288
23559900 14 17631472080556102831
3286 77 18186800275034010124
345986 75 17606660445735219402
474 4 18045223996793758461
5104073 3 18339369660077611721
67856867 119 18341889757265212896
7495541 125 18186524323580485810
9971528 1 18130511825617826334

>  <PUBCHEM_SHAPE_MULTIPOLES>  (1) 
319.36
11.79
2.3
1.1
2.13
2.3
0.07
-2.76
-3.77
-2.85
0.09
-0.65
-0.31
-1.18

>  <PUBCHEM_SHAPE_SELFOVERLAP>  (1) 
600.682

>  <PUBCHEM_SHAPE_VOLUME>  (1) 
199.9

>  <PUBCHEM_COORDINATE_TYPE>  (1) 
2
5
10

$$$$
