25849
     RDKit          3D

 20 21  0  0  1  0  0  0  0  0999 V2000
    0.3222    0.9547   -0.5740 O   0  0  0  0  0  0  0  0  0  0  0  0
    3.9128    0.7160    0.1746 N   0  0  0  0  0  0  0  0  0  0  0  0
   -0.8889    0.5255    0.0826 C   0  0  0  0  0  0  0  0  0  0  0  0
   -2.1191    0.9652   -0.7771 C   0  0  0  0  0  0  0  0  0  0  0  0
   -0.8901    1.2747    1.4381 C   0  0  0  0  0  0  0  0  0  0  0  0
   -2.1789    2.5010   -0.9149 C   0  0  0  0  0  0  0  0  0  0  0  0
   -0.9590    2.7953    1.2736 C   0  0  0  0  0  0  0  0  0  0  0  0
   -2.1524    3.2227    0.4290 C   0  0  0  0  0  0  0  0  0  0  0  0
   -0.7750   -0.9964    0.1969 C   0  0  0  0  0  0  0  0  0  0  0  0
   -3.4563    0.4239   -0.2484 C   0  0  0  0  0  0  0  0  0  0  0  0
   -0.7606   -1.8015   -0.9414 C   0  0  0  0  0  0  0  0  0  0  0  0
    1.4681    0.5941    0.1787 C   0  0  0  0  0  0  0  0  0  0  0  0
   -0.6843   -1.5740    1.4627 C   0  0  0  0  0  0  0  0  0  0  0  0
    2.7091    1.0508   -0.5715 C   0  0  0  0  0  0  0  0  0  0  0  0
   -0.6550   -3.1865   -0.8135 C   0  0  0  0  0  0  0  0  0  0  0  0
   -0.8565   -1.2047   -2.3070 C   0  0  0  0  0  0  0  0  0  0  0  0
   -0.5789   -2.9591    1.5904 C   0  0  0  0  0  0  0  0  0  0  0  0
   -0.5643   -3.7653    0.4524 C   0  0  0  0  0  0  0  0  0  0  0  0
    5.1070    1.1928   -0.5274 C   0  0  0  0  0  0  0  0  0  0  0  0
    4.0004   -0.7293    0.3962 C   0  0  0  0  0  0  0  0  0  0  0  0
  1  3  1  0
  1 12  1  0
  2 14  1  0
  2 19  1  0
  2 20  1  0
  3  4  1  0
  3  5  1  0
  3  9  1  0
  4  6  1  0
  4 10  1  0
  5  7  1  0
  6  8  1  0
  7  8  1  0
  9 11  2  0
  9 13  1  0
 11 15  1  0
 11 16  1  0
 12 14  1  0
 13 17  2  0
 15 18  2  0
 17 18  1  0
M  END
>  <PUBCHEM_COMPOUND_CID>  (1) 
25849

>  <PUBCHEM_CONFORMER_RMSD>  (1) 
0.8

>  <PUBCHEM_CONFORMER_DIVERSEORDER>  (1) 
1
18
20
11
3
21
10
6
23
13
22
9
7
8
19
24
4
5
17
2
12
14
15
16

>  <PUBCHEM_MMFF94_PARTIAL_CHARGES>  (1) 
18
1 -0.56
11 -0.14
12 0.28
13 -0.15
14 0.27
15 -0.15
16 0.14
17 -0.15
18 -0.15
19 0.27
2 -0.81
20 0.27
3 0.42
35 0.15
38 0.15
42 0.15
43 0.15
9 -0.14

>  <PUBCHEM_EFFECTIVE_ROTOR_COUNT>  (1) 
6.2

>  <PUBCHEM_PHARMACOPHORE_FEATURES>  (1) 
4
1 1 acceptor
1 2 cation
6 3 4 5 6 7 8 rings
6 9 11 13 15 17 18 rings

>  <PUBCHEM_HEAVY_ATOM_COUNT>  (1) 
20

>  <PUBCHEM_ATOM_DEF_STEREO_COUNT>  (1) 
0

>  <PUBCHEM_ATOM_UDEF_STEREO_COUNT>  (1) 
2

>  <PUBCHEM_BOND_DEF_STEREO_COUNT>  (1) 
0

>  <PUBCHEM_BOND_UDEF_STEREO_COUNT>  (1) 
0

>  <PUBCHEM_ISOTOPIC_ATOM_COUNT>  (1) 
0

>  <PUBCHEM_COMPONENT_COUNT>  (1) 
1

>  <PUBCHEM_CACTVS_TAUTO_COUNT>  (1) 
1

>  <PUBCHEM_CONFORMER_ID>  (1) 
000064F900000001

>  <PUBCHEM_MMFF94_ENERGY>  (1) 
75.592

>  <PUBCHEM_FEATURE_SELFOVERLAP>  (1) 
20.297

>  <PUBCHEM_SHAPE_FINGERPRINT>  (1) 
12035759 4 17909512152855722991
12173636 292 18334006194780493596
12553582 1 17688602971239788034
12592029 89 18118964681045360681
12788726 201 18338225076620334922
13140716 1 18051423056293700328
133893 2 17617660955795927297
14181834 199 17402047799504951141
14787075 74 18410004447240762151
14817 1 14589832208941878775
14955137 171 16040025494428255665
16945 1 18271789246901443621
20510252 161 18413110558561477448
20645476 183 18334013895604224676
21521721 280 18411698824998521977
21524375 3 18197213655171805088
22907989 373 18193298457589934844
23419403 2 13899048072972122327
23557571 272 18197786711731848324
23559900 14 18271237340005636536
23598288 3 18123205755323709356
23728640 28 18410568492389836114
394222 165 17980476767921752633
43471831 8 18265893545178010921
474 4 17977947882477020392
5845 1 12122599047623646085
6138700 20 17762340206934345406
7364860 26 17620471311890383841
81228 2 18124297552974196961
9709674 26 18341898519726172302

>  <PUBCHEM_SHAPE_MULTIPOLES>  (1) 
400.74
5.49
4.36
1.54
10.04
2.43
0.16
-4.27
0.86
-2.48
-0.89
-0.6
0.55
-0.4

>  <PUBCHEM_SHAPE_SELFOVERLAP>  (1) 
823.181

>  <PUBCHEM_SHAPE_VOLUME>  (1) 
230.9

>  <PUBCHEM_COORDINATE_TYPE>  (1) 
2
5
10

$$$$
