25851
     RDKit          3D

 21 22  0  0  1  0  0  0  0  0999 V2000
    0.4452    0.9605   -0.5328 O   0  0  0  0  0  0  0  0  0  0  0  0
    4.0784    0.9764    0.0236 N   0  0  0  0  0  0  0  0  0  0  0  0
   -0.6953    0.4390    0.1809 C   0  0  0  0  0  0  0  0  0  0  0  0
   -1.9979    0.7957   -0.6077 C   0  0  0  0  0  0  0  0  0  0  0  0
   -0.6784    1.1745    1.5438 C   0  0  0  0  0  0  0  0  0  0  0  0
   -2.1752    2.3243   -0.7232 C   0  0  0  0  0  0  0  0  0  0  0  0
   -0.8651    2.6875    1.4019 C   0  0  0  0  0  0  0  0  0  0  0  0
   -2.1293    3.0344    0.6264 C   0  0  0  0  0  0  0  0  0  0  0  0
   -3.2627    0.1543   -0.0164 C   0  0  0  0  0  0  0  0  0  0  0  0
   -0.4663   -1.0716    0.2702 C   0  0  0  0  0  0  0  0  0  0  0  0
   -0.4553   -1.8634   -0.8772 C   0  0  0  0  0  0  0  0  0  0  0  0
   -4.4625    0.3982   -0.9054 C   0  0  0  0  0  0  0  0  0  0  0  0
    1.6524    0.6775    0.1543 C   0  0  0  0  0  0  0  0  0  0  0  0
   -0.2670   -1.6521    1.5221 C   0  0  0  0  0  0  0  0  0  0  0  0
    2.8157    1.2294   -0.6542 C   0  0  0  0  0  0  0  0  0  0  0  0
   -0.2450   -3.2383   -0.7726 C   0  0  0  0  0  0  0  0  0  0  0  0
   -0.6671   -1.2631   -2.2284 C   0  0  0  0  0  0  0  0  0  0  0  0
   -0.0566   -3.0269    1.6268 C   0  0  0  0  0  0  0  0  0  0  0  0
   -0.0455   -3.8201    0.4794 C   0  0  0  0  0  0  0  0  0  0  0  0
    5.1962    1.5445   -0.7341 C   0  0  0  0  0  0  0  0  0  0  0  0
    4.2814   -0.4607    0.2224 C   0  0  0  0  0  0  0  0  0  0  0  0
  1  3  1  0
  1 13  1  0
  2 15  1  0
  2 20  1  0
  2 21  1  0
  3  4  1  0
  3  5  1  0
  3 10  1  0
  4  6  1  0
  4  9  1  0
  5  7  1  0
  6  8  1  0
  7  8  1  0
  9 12  1  0
 10 11  2  0
 10 14  1  0
 11 16  1  0
 11 17  1  0
 13 15  1  0
 14 18  2  0
 16 19  2  0
 18 19  1  0
M  END
>  <PUBCHEM_COMPOUND_CID>  (1) 
25851

>  <PUBCHEM_CONFORMER_RMSD>  (1) 
0.8

>  <PUBCHEM_CONFORMER_DIVERSEORDER>  (1) 
3
20
26
28
16
30
22
21
27
5
29
6
23
9
14
11
8
18
4
12
1
24
2
10
25
19
15
17
13
7

>  <PUBCHEM_MMFF94_PARTIAL_CHARGES>  (1) 
18
1 -0.56
10 -0.14
11 -0.14
13 0.28
14 -0.15
15 0.27
16 -0.15
17 0.14
18 -0.15
19 -0.15
2 -0.81
20 0.27
21 0.27
3 0.42
38 0.15
41 0.15
45 0.15
46 0.15

>  <PUBCHEM_EFFECTIVE_ROTOR_COUNT>  (1) 
7.2

>  <PUBCHEM_PHARMACOPHORE_FEATURES>  (1) 
5
1 1 acceptor
1 12 hydrophobe
1 2 cation
6 10 11 14 16 18 19 rings
6 3 4 5 6 7 8 rings

>  <PUBCHEM_HEAVY_ATOM_COUNT>  (1) 
21

>  <PUBCHEM_ATOM_DEF_STEREO_COUNT>  (1) 
0

>  <PUBCHEM_ATOM_UDEF_STEREO_COUNT>  (1) 
2

>  <PUBCHEM_BOND_DEF_STEREO_COUNT>  (1) 
0

>  <PUBCHEM_BOND_UDEF_STEREO_COUNT>  (1) 
0

>  <PUBCHEM_ISOTOPIC_ATOM_COUNT>  (1) 
0

>  <PUBCHEM_COMPONENT_COUNT>  (1) 
1

>  <PUBCHEM_CACTVS_TAUTO_COUNT>  (1) 
1

>  <PUBCHEM_CONFORMER_ID>  (1) 
000064FB00000003

>  <PUBCHEM_MMFF94_ENERGY>  (1) 
77.5027

>  <PUBCHEM_FEATURE_SELFOVERLAP>  (1) 
25.371

>  <PUBCHEM_SHAPE_FINGERPRINT>  (1) 
11578080 2 16593090945494547335
12035758 1 18125167288478829683
12035759 4 18053912140123370759
12553582 1 17544490003767499754
12592029 89 18188486852724673338
12788726 201 18338509871770302226
13140716 1 17979930628517852496
13149001 5 18055062426912781893
133893 2 17903359199597185072
14251751 93 18340758243883204046
14787075 74 18410287038803500743
14955137 171 16542743139980514393
15163728 17 17605002407374634221
16752209 62 18342168947551346272
16945 1 18337954481038137671
17980427 23 17048204075449990161
187816 3 18272370901289979765
19591789 44 18266733774336811123
20197701 30 18334847303700343972
20645476 183 18260828249759435020
21421861 104 18123477073145915489
21521721 280 18339363080225143649
21524375 3 18338797814777700524
22907989 373 18049193173682341724
229495 10 16807257316440537711
23366157 5 17829613855305455907
23402539 116 18201432601467610037
23419403 2 17408579065856183759
23557571 272 18053110798527272524
23559900 14 17195150523479359399
23598288 3 17978246172456319678
23728640 28 18410571816805266994
25147074 1 17841136763641805509
283562 15 18341896277426728761
3759504 43 18187361081709170751
394222 165 18192424174015233001
43471831 8 18337951160553579745
474 4 18121786019487484504
6138700 20 17977104561976631702
7364860 26 17835801898093380129
81228 2 18052805129250560936

>  <PUBCHEM_SHAPE_MULTIPOLES>  (1) 
421.32
6.24
4.19
1.55
7.49
2.87
-0.01
-5.07
2.01
-0.8
-1.04
-0.44
0.48
-0.71

>  <PUBCHEM_SHAPE_SELFOVERLAP>  (1) 
862.659

>  <PUBCHEM_SHAPE_VOLUME>  (1) 
243.3

>  <PUBCHEM_COORDINATE_TYPE>  (1) 
2
5
10

$$$$
