25863
     RDKit          3D

 41 45  0  0  0  0  0  0  0  0999 V2000
    5.6774   -3.8680    2.7137 Cl  0  0  0  0  0  0  0  0  0  0  0  0
    0.9010   -1.9742    3.5287 Cl  0  0  0  0  0  0  0  0  0  0  0  0
   -0.8541   -2.8767   -2.8233 S   0  0  0  0  0  0  0  0  0  0  0  0
    5.4666    2.4993   -0.7740 S   0  0  0  0  0  0  0  0  0  0  0  0
   -2.4254    2.7236    0.5879 O   0  0  0  0  0  0  0  0  0  0  0  0
   -5.3527   -1.6977   -0.0656 O   0  0  0  0  0  0  0  0  0  0  0  0
   -1.7369   -2.9040   -4.1970 O   0  0  0  0  0  0  0  0  0  0  0  0
    0.5001   -2.4984   -3.1913 O   0  0  0  0  0  0  0  0  0  0  0  0
   -1.1140   -4.1034   -2.0902 O   0  0  0  0  0  0  0  0  0  0  0  0
    6.0356    1.4810   -1.9176 O   0  0  0  0  0  0  0  0  0  0  0  0
    5.7309    3.8523   -1.2365 O   0  0  0  0  0  0  0  0  0  0  0  0
    5.9498    2.0459    0.5193 O   0  0  0  0  0  0  0  0  0  0  0  0
   -0.4412    1.7860   -0.8236 N   0  0  0  0  0  0  0  0  0  0  0  0
   -3.5365   -2.8551   -1.5006 N   0  0  0  0  0  0  0  0  0  0  0  0
    3.9613    0.0321    0.1977 N   0  0  0  0  0  0  0  0  0  0  0  0
    2.5382   -0.9445    1.7850 N   0  0  0  0  0  0  0  0  0  0  0  0
    4.7413   -1.8179    1.4092 N   0  0  0  0  0  0  0  0  0  0  0  0
    3.3079   -2.8389    3.0404 N   0  0  0  0  0  0  0  0  0  0  0  0
   -2.5431    0.5605   -0.3734 C   0  0  0  0  0  0  0  0  0  0  0  0
   -3.3076   -0.5954   -0.5450 C   0  0  0  0  0  0  0  0  0  0  0  0
   -1.2720    0.6495   -0.9534 C   0  0  0  0  0  0  0  0  0  0  0  0
   -2.8011   -1.6622   -1.2971 C   0  0  0  0  0  0  0  0  0  0  0  0
   -1.5340   -1.5692   -1.8735 C   0  0  0  0  0  0  0  0  0  0  0  0
   -3.0656    1.6937    0.4171 C   0  0  0  0  0  0  0  0  0  0  0  0
   -4.4079    1.5862    1.0242 C   0  0  0  0  0  0  0  0  0  0  0  0
   -5.1723    0.4301    0.8528 C   0  0  0  0  0  0  0  0  0  0  0  0
   -4.6502   -0.7029    0.0618 C   0  0  0  0  0  0  0  0  0  0  0  0
   -0.7711   -0.4159   -1.7021 C   0  0  0  0  0  0  0  0  0  0  0  0
    0.9557    1.9454   -0.8070 C   0  0  0  0  0  0  0  0  0  0  0  0
   -4.9143    2.6529    1.7764 C   0  0  0  0  0  0  0  0  0  0  0  0
   -6.4432    0.3408    1.4334 C   0  0  0  0  0  0  0  0  0  0  0  0
    1.7732    0.9236   -0.3178 C   0  0  0  0  0  0  0  0  0  0  0  0
    3.1590    1.0816   -0.3024 C   0  0  0  0  0  0  0  0  0  0  0  0
    1.5325    3.1262   -1.2807 C   0  0  0  0  0  0  0  0  0  0  0  0
    3.7316    2.2619   -0.7763 C   0  0  0  0  0  0  0  0  0  0  0  0
   -6.1811    2.5597    2.3533 C   0  0  0  0  0  0  0  0  0  0  0  0
   -6.9440    1.4063    2.1820 C   0  0  0  0  0  0  0  0  0  0  0  0
    2.9183    3.2842   -1.2655 C   0  0  0  0  0  0  0  0  0  0  0  0
    3.7367   -0.9549    1.1749 C   0  0  0  0  0  0  0  0  0  0  0  0
    4.4560   -2.7301    2.3523 C   0  0  0  0  0  0  0  0  0  0  0  0
    2.3955   -1.9132    2.7037 C   0  0  0  0  0  0  0  0  0  0  0  0
  1 40  1  0
  2 41  1  0
  3  7  1  0
  3  8  2  0
  3  9  2  0
  3 23  1  0
  4 10  1  0
  4 11  2  0
  4 12  2  0
  4 35  1  0
  5 24  2  0
  6 27  2  0
 13 21  1  0
 13 29  1  0
 14 22  1  0
 15 33  1  0
 15 39  1  0
 16 39  2  0
 16 41  1  0
 17 39  1  0
 17 40  2  0
 18 40  1  0
 18 41  2  0
 19 20  1  0
 19 21  2  0
 19 24  1  0
 20 22  2  0
 20 27  1  0
 21 28  1  0
 22 23  1  0
 23 28  2  0
 24 25  1  0
 25 26  2  0
 25 30  1  0
 26 27  1  0
 26 31  1  0
 29 32  2  0
 29 34  1  0
 30 36  2  0
 31 37  2  0
 32 33  1  0
 33 35  2  0
 34 38  2  0
 35 38  1  0
 36 37  1  0
M  END
>  <PUBCHEM_COMPOUND_CID>  (1) 
25863

>  <PUBCHEM_CONFORMER_RMSD>  (1) 
1

>  <PUBCHEM_CONFORMER_DIVERSEORDER>  (1) 
1
12
24
10
45
16
2
44
42
23
49
52
43
33
21
40
34
15
36
46
26
19
5
25
9
32
29
11
38
17
30
6
7
47
37
48
39
31
28
8
27
18
14
51
54
13
53
22
20
3
41
35
4
50

>  <PUBCHEM_MMFF94_PARTIAL_CHARGES>  (1) 
55
1 -0.18
10 -0.68
11 -0.65
12 -0.65
13 -0.6
14 -0.9
15 -0.6
16 -0.62
17 -0.62
18 -0.62
19 0.09
2 -0.18
20 0.09
21 0.1
22 0.1
23 -0.01
24 0.4
25 0.09
26 0.09
27 0.4
28 -0.15
29 0.1
3 1.49
30 -0.15
31 -0.15
32 -0.15
33 0.1
34 -0.15
35 -0.01
36 -0.15
37 -0.15
38 -0.15
39 0.72
4 1.49
40 0.8
41 0.8
42 0.15
43 0.4
44 0.15
45 0.15
46 0.15
47 0.4
48 0.4
49 0.15
5 -0.57
50 0.15
51 0.15
52 0.15
53 0.4
54 0.5
55 0.5
6 -0.57
7 -0.68
8 -0.65
9 -0.65

>  <PUBCHEM_EFFECTIVE_ROTOR_COUNT>  (1) 
6

>  <PUBCHEM_PHARMACOPHORE_FEATURES>  (1) 
21
1 10 acceptor
1 11 acceptor
1 12 acceptor
1 13 cation
1 13 donor
1 14 cation
1 14 donor
1 15 donor
1 5 acceptor
1 6 acceptor
1 7 acceptor
1 8 acceptor
1 9 acceptor
4 15 16 17 39 cation
4 3 7 8 9 anion
4 4 10 11 12 anion
6 16 17 18 39 40 41 rings
6 19 20 21 22 23 28 rings
6 19 20 24 25 26 27 rings
6 25 26 30 31 36 37 rings
6 29 32 33 34 35 38 rings

>  <PUBCHEM_HEAVY_ATOM_COUNT>  (1) 
41

>  <PUBCHEM_ATOM_DEF_STEREO_COUNT>  (1) 
0

>  <PUBCHEM_ATOM_UDEF_STEREO_COUNT>  (1) 
0

>  <PUBCHEM_BOND_DEF_STEREO_COUNT>  (1) 
0

>  <PUBCHEM_BOND_UDEF_STEREO_COUNT>  (1) 
0

>  <PUBCHEM_ISOTOPIC_ATOM_COUNT>  (1) 
0

>  <PUBCHEM_COMPONENT_COUNT>  (1) 
1

>  <PUBCHEM_CACTVS_TAUTO_COUNT>  (1) 
27

>  <PUBCHEM_CONFORMER_ID>  (1) 
0000650700000001

>  <PUBCHEM_MMFF94_ENERGY>  (1) 
143.1946

>  <PUBCHEM_FEATURE_SELFOVERLAP>  (1) 
106.733

>  <PUBCHEM_SHAPE_FINGERPRINT>  (1) 
10190108 129 18040725753650034516
10305334 12 18189628296624809067
10674148 151 18271540758149539396
11135926 11 17895184567696027308
12107183 9 17973443205035229977
12128747 34 16879337919267221285
12156800 1 13899405169897494582
12422481 6 18198339546768041155
12788726 201 17985261026608869159
13726171 33 17916598659684038072
13782708 43 15719667659005886896
14294032 229 17489317442757905383
15064986 96 18196371407695068989
15297060 5 17417551162770235745
15320294 125 18198892617911800619
15403338 16 18040429954756171515
15444296 8 17680137482987417533
19053607 189 17701830882365102697
19246450 95 17977093566532800153
19309040 13 18335430105314607850
19319366 153 18115881848247572700
20505436 4 18339375166057470868
20511986 3 18339071700468565157
20554085 129 17059776616433005257
21033648 29 16200424775754396689
21772528 278 17897176916940666790
21796203 349 17968927579905236226
21814621 53 17346321561824628832
22440779 20 16517087289992112351
23516275 137 17983050858050450426
23559900 14 17628377999512409199
469060 322 14997119362265392027
50080093 196 17908406297324679377
5265222 85 17702676607942246724
6679774 75 18271252594796425910
86090 222 16153719695202447225

>  <PUBCHEM_SHAPE_MULTIPOLES>  (1) 
778.36
15.52
5.15
3.69
4.21
0.74
-1.02
-5.6
11
-7.1
-0.46
0.53
4.63
-8.75

>  <PUBCHEM_SHAPE_SELFOVERLAP>  (1) 
1695.046

>  <PUBCHEM_SHAPE_VOLUME>  (1) 
424.8

>  <PUBCHEM_COORDINATE_TYPE>  (1) 
2
5
10

$$$$
