25865
     RDKit          3D

 12 12  0  0  1  0  0  0  0  0999 V2000
    1.4113   -0.2205   -0.3472 N   0  0  0  0  0  0  0  0  0  0  0  0
    2.8299   -0.0960   -0.0162 C   0  0  0  0  0  0  0  0  0  0  0  0
    3.6401   -1.3216    0.2940 C   0  0  0  0  0  0  0  0  0  0  0  0
    3.3002   -0.3512    1.3869 C   0  0  0  0  0  0  0  0  0  0  0  0
    0.8172    1.1010   -0.5534 C   0  0  0  0  0  0  0  0  0  0  0  0
   -0.6730    0.9830   -0.9150 C   0  0  0  0  0  0  0  0  0  0  0  0
    1.2343   -1.0508   -1.5376 C   0  0  0  0  0  0  0  0  0  0  0  0
    0.9992    1.9465    0.7067 C   0  0  0  0  0  0  0  0  0  0  0  0
   -1.4988    0.2692    0.1628 C   0  0  0  0  0  0  0  0  0  0  0  0
   -2.9574    0.1107   -0.2748 C   0  0  0  0  0  0  0  0  0  0  0  0
   -3.8350   -0.5734    0.7757 C   0  0  0  0  0  0  0  0  0  0  0  0
   -5.2681   -0.7969    0.3184 C   0  0  0  0  0  0  0  0  0  0  0  0
  1  2  1  0
  1  5  1  0
  1  7  1  0
  2  3  1  0
  2  4  1  0
  3  4  1  0
  5  6  1  0
  5  8  1  0
  6  9  1  0
  9 10  1  0
 10 11  1  0
 11 12  1  0
M  END
>  <PUBCHEM_COMPOUND_CID>  (1) 
25865

>  <PUBCHEM_CONFORMER_RMSD>  (1) 
0.6

>  <PUBCHEM_CONFORMER_DIVERSEORDER>  (1) 
1
25
23
16
32
37
33
58
39
57
42
24
12
11
21
8
43
13
54
55
2
9
5
35
30
45
49
41
14
38
3
7
40
53
29
20
51
18
31
27
10
47
44
46
34
56
28
4
22
17
48
50
19
52
6
15
36
26

>  <PUBCHEM_MMFF94_PARTIAL_CHARGES>  (1) 
11
1 -0.7
13 0.1
14 0.1
15 0.1
16 0.1
17 0.1
2 0.06
3 -0.2
4 -0.2
5 0.27
7 0.27

>  <PUBCHEM_EFFECTIVE_ROTOR_COUNT>  (1) 
6.6

>  <PUBCHEM_PHARMACOPHORE_FEATURES>  (1) 
3
1 1 cation
1 12 hydrophobe
4 6 9 10 11 hydrophobe

>  <PUBCHEM_HEAVY_ATOM_COUNT>  (1) 
12

>  <PUBCHEM_ATOM_DEF_STEREO_COUNT>  (1) 
0

>  <PUBCHEM_ATOM_UDEF_STEREO_COUNT>  (1) 
1

>  <PUBCHEM_BOND_DEF_STEREO_COUNT>  (1) 
0

>  <PUBCHEM_BOND_UDEF_STEREO_COUNT>  (1) 
0

>  <PUBCHEM_ISOTOPIC_ATOM_COUNT>  (1) 
0

>  <PUBCHEM_COMPONENT_COUNT>  (1) 
1

>  <PUBCHEM_CACTVS_TAUTO_COUNT>  (1) 
1

>  <PUBCHEM_CONFORMER_ID>  (1) 
0000650900000001

>  <PUBCHEM_MMFF94_ENERGY>  (1) 
14.4041

>  <PUBCHEM_FEATURE_SELFOVERLAP>  (1) 
15.223

>  <PUBCHEM_SHAPE_FINGERPRINT>  (1) 
10219947 1 17988635285928307932
11769659 78 17095796612589004960
122479 349 12895059747711374693
12251169 10 18202279234031576047
12824470 246 17968371226219390113
13705890 14 16443063893960254262
14115302 16 16950292822868680891
14252887 29 18202289069491106470
14350558 41 17385729075331724531
177051 138 18040153989658317306
18186145 218 12540708015188660133
20281407 28 18041278781373868296
20281475 54 18114747027350069636
20605781 2 11095883766052330139
20645477 70 17967816089238812611
20671657 53 16515402937094397654
20871998 22 18200323112577525125
21061003 4 18059564759450784632
21119208 17 14273455886034707787
21256008 61 15285361717075103958
21501925 9 18413108368402228989
22485316 2 17821447984573112071
231179 274 12031792452507348475
23402539 116 13768201637160515782
23402655 69 11241964884960324691
23558518 356 16831204989132169520
23590187 302 12540689340818452367
2748010 2 17629202606830798420
4047638 21 12247682681665490070
4990 188 12685094787057981995
94968 8 17821446863375755570

>  <PUBCHEM_SHAPE_MULTIPOLES>  (1) 
241.97
8.33
1.46
1.2
9.54
0.45
0.1
-4.28
-2.84
-0.66
-0.05
-0.58
-0.14
0.31

>  <PUBCHEM_SHAPE_SELFOVERLAP>  (1) 
450.149

>  <PUBCHEM_SHAPE_VOLUME>  (1) 
154.7

>  <PUBCHEM_COORDINATE_TYPE>  (1) 
2
5
10

$$$$
