25860
     RDKit          3D

 11 10  0  0  0  0  0  0  0  0999 V2000
    1.8980   -0.6949   -0.3425 O   0  0  0  0  0  0  0  0  0  0  0  0
   -0.4313   -0.1538   -0.1546 O   0  0  0  0  0  0  0  0  0  0  0  0
   -2.0957   -1.7135    0.1581 O   0  0  0  0  0  0  0  0  0  0  0  0
    4.3936    0.3744   -0.5161 O   0  0  0  0  0  0  0  0  0  0  0  0
    0.5731   -1.1834   -0.1415 C   0  0  0  0  0  0  0  0  0  0  0  0
   -2.6226    0.6246   -0.0296 C   0  0  0  0  0  0  0  0  0  0  0  0
    2.2997    0.2044    0.6823 C   0  0  0  0  0  0  0  0  0  0  0  0
   -1.7202   -0.5599    0.0055 C   0  0  0  0  0  0  0  0  0  0  0  0
   -2.0585    1.9992   -0.2200 C   0  0  0  0  0  0  0  0  0  0  0  0
   -3.9368    0.4015    0.1170 C   0  0  0  0  0  0  0  0  0  0  0  0
    3.7006    0.7014    0.4415 C   0  0  0  0  0  0  0  0  0  0  0  0
  1  5  1  0
  1  7  1  0
  2  5  1  0
  2  8  1  0
  3  8  2  0
  4 11  2  0
  6  8  1  0
  6  9  1  0
  6 10  2  0
  7 11  1  0
M  END
>  <PUBCHEM_COMPOUND_CID>  (1) 
25860

>  <PUBCHEM_CONFORMER_RMSD>  (1) 
0.6

>  <PUBCHEM_CONFORMER_DIVERSEORDER>  (1) 
2
72
60
50
83
32
112
58
20
110
116
64
113
27
79
87
89
5
28
109
12
81
53
107
100
102
94
29
73
84
75
9
114
85
115
93
14
55
4
92
17
10
105
15
106
26
21
7
25
71
37
77
57
67
68
31
78
56
44
70
86
76
103
61
91
49
62
16
74
8
96
38
40
6
52
54
63
43
80
1
90
13
101
30
59
34
45
65
18
24
19
3
42
48
82
98
35
46
23
88
99
66
97
69
41
39
111
11
95
51
104
33
47
36
22
108

>  <PUBCHEM_MMFF94_PARTIAL_CHARGES>  (1) 
14
1 -0.56
10 -0.3
11 0.45
19 0.15
2 -0.43
20 0.15
21 0.06
3 -0.57
4 -0.57
5 0.56
6 -0.12
7 0.34
8 0.71
9 0.14

>  <PUBCHEM_EFFECTIVE_ROTOR_COUNT>  (1) 
6

>  <PUBCHEM_PHARMACOPHORE_FEATURES>  (1) 
3
1 1 acceptor
1 3 acceptor
1 4 acceptor

>  <PUBCHEM_HEAVY_ATOM_COUNT>  (1) 
11

>  <PUBCHEM_ATOM_DEF_STEREO_COUNT>  (1) 
0

>  <PUBCHEM_ATOM_UDEF_STEREO_COUNT>  (1) 
0

>  <PUBCHEM_BOND_DEF_STEREO_COUNT>  (1) 
0

>  <PUBCHEM_BOND_UDEF_STEREO_COUNT>  (1) 
0

>  <PUBCHEM_ISOTOPIC_ATOM_COUNT>  (1) 
0

>  <PUBCHEM_COMPONENT_COUNT>  (1) 
1

>  <PUBCHEM_CACTVS_TAUTO_COUNT>  (1) 
2

>  <PUBCHEM_CONFORMER_ID>  (1) 
0000650400000002

>  <PUBCHEM_MMFF94_ENERGY>  (1) 
15.9709

>  <PUBCHEM_FEATURE_SELFOVERLAP>  (1) 
15.229

>  <PUBCHEM_SHAPE_FINGERPRINT>  (1) 
12932764 1 17775275093202745530
13897977 58 18261117391068302164
14252887 29 13118280335319997128
14325111 11 18411698798874887442
14390081 3 18341891853335437955
15775835 57 18408603647519245714
20645477 70 16988290789889931982
21119208 17 13758074090811520625
22485316 2 9871747983945870452
23402539 116 18410564111686529615
23500284 214 18341057332853176497
23557571 272 18201449120127848279
6333449 129 18341327868548320295

>  <PUBCHEM_SHAPE_MULTIPOLES>  (1) 
202.9
7.52
1.52
0.69
4.98
0.14
0.03
2.29
0.05
-0.96
-0.06
0.23
0.04
0.23

>  <PUBCHEM_SHAPE_SELFOVERLAP>  (1) 
383.513

>  <PUBCHEM_SHAPE_VOLUME>  (1) 
124.6

>  <PUBCHEM_COORDINATE_TYPE>  (1) 
2
5
10

$$$$
