25878
     RDKit          3D

 19 19  0  0  0  0  0  0  0  0999 V2000
   -0.9632    2.7589   -0.7442 S   0  0  0  0  0  0  0  0  0  0  0  0
   -1.7103   -2.7638   -0.3272 S   0  0  0  0  0  0  0  0  0  0  0  0
    0.6787   -1.3030    1.1234 O   0  0  0  0  0  0  0  0  0  0  0  0
    3.1772   -0.1043    0.1419 N   0  0  0  0  0  0  0  0  0  0  0  0
   -0.0971   -0.1893   -0.7921 N   0  0  0  0  0  0  0  0  0  0  0  0
    2.2050   -0.8215   -0.6821 C   0  0  0  0  0  0  0  0  0  0  0  0
    4.5017   -0.1468   -0.4770 C   0  0  0  0  0  0  0  0  0  0  0  0
    2.7523    1.2801    0.3454 C   0  0  0  0  0  0  0  0  0  0  0  0
    0.8535   -0.8161    0.0110 C   0  0  0  0  0  0  0  0  0  0  0  0
    3.7516    2.0411    1.2002 C   0  0  0  0  0  0  0  0  0  0  0  0
    4.9858   -1.5777   -0.6400 C   0  0  0  0  0  0  0  0  0  0  0  0
   -1.4677    0.0177   -0.5064 C   0  0  0  0  0  0  0  0  0  0  0  0
   -1.9819    1.3133   -0.4553 C   0  0  0  0  0  0  0  0  0  0  0  0
   -2.3041   -1.0745   -0.2749 C   0  0  0  0  0  0  0  0  0  0  0  0
   -3.3327    1.5169   -0.1728 C   0  0  0  0  0  0  0  0  0  0  0  0
   -3.6549   -0.8708    0.0078 C   0  0  0  0  0  0  0  0  0  0  0  0
   -4.1692    0.4249    0.0586 C   0  0  0  0  0  0  0  0  0  0  0  0
   -1.1406    3.6431    0.8288 C   0  0  0  0  0  0  0  0  0  0  0  0
   -2.0837   -3.3283    1.3549 C   0  0  0  0  0  0  0  0  0  0  0  0
  1 13  1  0
  1 18  1  0
  2 14  1  0
  2 19  1  0
  3  9  2  0
  4  6  1  0
  4  7  1  0
  4  8  1  0
  5  9  1  0
  5 12  1  0
  6  9  1  0
  7 11  1  0
  8 10  1  0
 12 13  2  0
 12 14  1  0
 13 15  1  0
 14 16  2  0
 15 17  2  0
 16 17  1  0
M  END
>  <PUBCHEM_COMPOUND_CID>  (1) 
25878

>  <PUBCHEM_CONFORMER_RMSD>  (1) 
0.8

>  <PUBCHEM_CONFORMER_DIVERSEORDER>  (1) 
1
82
48
104
94
91
20
12
41
80
68
65
69
61
101
89
44
98
50
56
24
74
73
11
28
85
67
60
51
83
84
54
63
19
35
13
40
66
32
47
75
3
59
52
106
46
57
15
14
64
42
86
58
27
95
53
87
81
26
62
49
22
55
37
79
30
29
38
70
92
45
31
39
5
10
88
78
6
8
36
2
7
33
21
18
76
25
9
71
17
23
34
72
16
4
43
90
77

>  <PUBCHEM_MMFF94_PARTIAL_CHARGES>  (1) 
21
1 -0.33
12 0.12
13 0.1
14 0.1
15 -0.15
16 -0.15
17 -0.15
18 0.23
19 0.23
2 -0.33
3 -0.57
32 0.37
33 0.15
34 0.15
35 0.15
4 -0.81
5 -0.55
6 0.33
7 0.27
8 0.27
9 0.57

>  <PUBCHEM_EFFECTIVE_ROTOR_COUNT>  (1) 
8

>  <PUBCHEM_PHARMACOPHORE_FEATURES>  (1) 
6
1 18 hydrophobe
1 19 hydrophobe
1 3 acceptor
1 4 cation
1 5 donor
6 12 13 14 15 16 17 rings

>  <PUBCHEM_HEAVY_ATOM_COUNT>  (1) 
19

>  <PUBCHEM_ATOM_DEF_STEREO_COUNT>  (1) 
0

>  <PUBCHEM_ATOM_UDEF_STEREO_COUNT>  (1) 
0

>  <PUBCHEM_BOND_DEF_STEREO_COUNT>  (1) 
0

>  <PUBCHEM_BOND_UDEF_STEREO_COUNT>  (1) 
0

>  <PUBCHEM_ISOTOPIC_ATOM_COUNT>  (1) 
0

>  <PUBCHEM_COMPONENT_COUNT>  (1) 
1

>  <PUBCHEM_CACTVS_TAUTO_COUNT>  (1) 
3

>  <PUBCHEM_CONFORMER_ID>  (1) 
0000651600000001

>  <PUBCHEM_MMFF94_ENERGY>  (1) 
61.504

>  <PUBCHEM_FEATURE_SELFOVERLAP>  (1) 
30.446

>  <PUBCHEM_SHAPE_FINGERPRINT>  (1) 
10366900 7 18341894078218330790
10498660 4 18337380557290586789
10608611 8 18342452660300690660
1100329 8 18336553819468075401
11132069 177 18336256954885175333
11405975 8 18413107286250143546
11680986 33 17904197376151689519
12173636 292 18337382734859799813
12969540 114 18189596303618896709
13140716 1 18337677523881634778
14081887 123 18409718569495175304
15042514 8 18334867133992286407
15196674 1 18413105073835629205
18186145 218 18334285470823509006
20510252 161 18339924788695405461
21029758 11 18341042008789841269
21524375 3 18193838141526106703
2297311 6 18340500984042956174
23402539 116 18341888576534107855
23557571 272 18340214076016921022
23558518 356 18050018688024157413
23559900 14 18409730686251837222
350125 39 18120375350152895013
5104073 3 18413106190722110802
81228 2 18336842913242002621
8809292 202 18410576180069799438
9709674 26 18340484581599860054
9925002 15 16403083761325568270

>  <PUBCHEM_SHAPE_MULTIPOLES>  (1) 
382.88
8.34
3.81
1.04
8.43
0.9
0.22
-1.03
-0.26
-2.12
1.08
0.2
-0.07
1.31

>  <PUBCHEM_SHAPE_SELFOVERLAP>  (1) 
737.978

>  <PUBCHEM_SHAPE_VOLUME>  (1) 
236.7

>  <PUBCHEM_COORDINATE_TYPE>  (1) 
2
5
10

$$$$
