25871
     RDKit          3D

 29 30  0  0  0  0  0  0  0  0999 V2000
   -0.9349   -3.5788   -0.0678 N   0  0  0  0  0  0  0  0  0  0  0  0
   -3.7487    1.6315   -0.2907 N   0  0  0  0  0  0  0  0  0  0  0  0
    1.3523    2.6671    2.8475 N   0  0  0  0  0  0  0  0  0  0  0  0
    0.5961    1.1814    0.7867 C   0  0  0  0  0  0  0  0  0  0  0  0
    0.3288   -0.2631    1.3330 C   0  0  0  0  0  0  0  0  0  0  0  0
   -0.7756    1.7533    0.2862 C   0  0  0  0  0  0  0  0  0  0  0  0
    1.6133    1.1367   -0.3679 C   0  0  0  0  0  0  0  0  0  0  0  0
   -0.1726   -1.2746    0.2863 C   0  0  0  0  0  0  0  0  0  0  0  0
   -1.8937    1.7851    1.3466 C   0  0  0  0  0  0  0  0  0  0  0  0
   -0.4526   -2.6327    0.9316 C   0  0  0  0  0  0  0  0  0  0  0  0
   -3.1948    2.3970    0.8194 C   0  0  0  0  0  0  0  0  0  0  0  0
    2.9189    0.6502   -0.1915 C   0  0  0  0  0  0  0  0  0  0  0  0
    1.0295    2.0186    1.9403 C   0  0  0  0  0  0  0  0  0  0  0  0
    1.1890    1.6022   -1.6128 C   0  0  0  0  0  0  0  0  0  0  0  0
    3.8065    0.6356   -1.2936 C   0  0  0  0  0  0  0  0  0  0  0  0
   -1.1486   -4.8973    0.5312 C   0  0  0  0  0  0  0  0  0  0  0  0
   -2.1721   -3.0935   -0.6819 C   0  0  0  0  0  0  0  0  0  0  0  0
   -4.6816    2.4502   -1.0671 C   0  0  0  0  0  0  0  0  0  0  0  0
   -4.4183    0.4248    0.1981 C   0  0  0  0  0  0  0  0  0  0  0  0
    2.0618    1.5874   -2.6967 C   0  0  0  0  0  0  0  0  0  0  0  0
    3.3630    0.1780    1.0544 C   0  0  0  0  0  0  0  0  0  0  0  0
    3.3625    1.1074   -2.5396 C   0  0  0  0  0  0  0  0  0  0  0  0
    5.1122    0.1490   -1.1174 C   0  0  0  0  0  0  0  0  0  0  0  0
    4.6637   -0.3016    1.2113 C   0  0  0  0  0  0  0  0  0  0  0  0
    0.1240   -5.4206    1.1752 C   0  0  0  0  0  0  0  0  0  0  0  0
   -2.6508   -4.0375   -1.7719 C   0  0  0  0  0  0  0  0  0  0  0  0
   -5.8710    2.8766   -0.2235 C   0  0  0  0  0  0  0  0  0  0  0  0
   -4.9427   -0.4165   -0.9532 C   0  0  0  0  0  0  0  0  0  0  0  0
    5.5366   -0.3160    0.1275 C   0  0  0  0  0  0  0  0  0  0  0  0
  1 10  1  0
  1 16  1  0
  1 17  1  0
  2 11  1  0
  2 18  1  0
  2 19  1  0
  3 13  3  0
  4  5  1  0
  4  6  1  0
  4  7  1  0
  4 13  1  0
  5  8  1  0
  6  9  1  0
  7 12  2  0
  7 14  1  0
  8 10  1  0
  9 11  1  0
 12 15  1  0
 12 21  1  0
 14 20  2  0
 15 22  2  0
 15 23  1  0
 16 25  1  0
 17 26  1  0
 18 27  1  0
 19 28  1  0
 20 22  1  0
 21 24  2  0
 23 29  2  0
 24 29  1  0
M  END
>  <PUBCHEM_COMPOUND_CID>  (1) 
25871

>  <PUBCHEM_CONFORMER_RMSD>  (1) 
1.2

>  <PUBCHEM_CONFORMER_DIVERSEORDER>  (1) 
3
71
64
37
34
79
24
23
65
62
48
10
85
61
17
50
28
30
43
38
53
58
26
84
21
22
7
54
41
42
72
83
81
77
56
66
8
20
47
9
52
73
32
39
46
2
27
49
70
76
16
59
11
51
44
14
78
1
67
31
55
57
35
60
69
36
18
75
33
40
63
13
4
68
5
74
45
6
19
29
25
80
12
82
15

>  <PUBCHEM_MMFF94_PARTIAL_CHARGES>  (1) 
26
1 -0.81
10 0.27
11 0.27
13 0.36
14 -0.15
16 0.27
17 0.27
18 0.27
19 0.27
2 -0.81
20 -0.15
21 -0.15
22 -0.15
23 -0.15
24 -0.15
29 -0.15
3 -0.56
4 0.34
42 0.15
51 0.15
52 0.15
53 0.15
54 0.15
55 0.15
68 0.15
7 -0.14

>  <PUBCHEM_EFFECTIVE_ROTOR_COUNT>  (1) 
13

>  <PUBCHEM_PHARMACOPHORE_FEATURES>  (1) 
6
1 1 cation
1 2 cation
1 3 acceptor
5 4 5 6 8 9 hydrophobe
6 12 15 21 23 24 29 rings
6 7 12 14 15 20 22 rings

>  <PUBCHEM_HEAVY_ATOM_COUNT>  (1) 
29

>  <PUBCHEM_ATOM_DEF_STEREO_COUNT>  (1) 
0

>  <PUBCHEM_ATOM_UDEF_STEREO_COUNT>  (1) 
0

>  <PUBCHEM_BOND_DEF_STEREO_COUNT>  (1) 
0

>  <PUBCHEM_BOND_UDEF_STEREO_COUNT>  (1) 
0

>  <PUBCHEM_ISOTOPIC_ATOM_COUNT>  (1) 
0

>  <PUBCHEM_COMPONENT_COUNT>  (1) 
1

>  <PUBCHEM_CACTVS_TAUTO_COUNT>  (1) 
1

>  <PUBCHEM_CONFORMER_ID>  (1) 
0000650F00000003

>  <PUBCHEM_MMFF94_ENERGY>  (1) 
80.4447

>  <PUBCHEM_FEATURE_SELFOVERLAP>  (1) 
30.472

>  <PUBCHEM_SHAPE_FINGERPRINT>  (1) 
10985338 8 17605268484925841052
11488393 25 17536302635811125415
11578080 2 18265335195636600632
11828532 37 17909819174968615959
121448 382 18272379641843715913
12160290 23 18055097555313094275
12293681 25 17345776143135997436
12712778 12 18340758342836464818
12788726 201 18120664783641247487
13149001 5 18130794506963843856
133893 2 17688331000951662465
14251757 5 18120385503524661343
14289585 56 17313654954322822686
14918310 93 17610332741173074322
15297060 5 18342175518740409939
15775530 1 17843115063473504857
15849732 13 17967537827103367692
17627616 140 18339074866234171007
18681886 176 18187082857939060553
19309040 13 16300677198192864805
19319366 153 18267869389623006335
20775438 99 17118578803240232847
21781051 124 18188495804439247347
21792965 302 16894297152144535269
21857420 4 17472963482403827639
22393880 68 18201140093458510789
25223398 141 18334579079325709945
3380486 77 18340775823775905160
338550 245 18334859398465925686
38695281 34 18264209119408387973
4017518 198 18266747887995738598
5385378 56 18122067507734257913
59025328 239 16837107115878485191

>  <PUBCHEM_SHAPE_MULTIPOLES>  (1) 
581.86
10.32
5.76
2.21
2.34
11.48
-0.38
-6.61
-3.22
6.51
0.83
-1.68
-1.12
-1.25

>  <PUBCHEM_SHAPE_SELFOVERLAP>  (1) 
1186.983

>  <PUBCHEM_SHAPE_VOLUME>  (1) 
335.5

>  <PUBCHEM_COORDINATE_TYPE>  (1) 
2
5
10

$$$$
