25876
     RDKit          3D

 25 27  0  0  1  0  0  0  0  0999 V2000
   -4.9294    0.5531    0.0092 O   0  0  0  0  0  0  0  0  0  0  0  0
   -2.7896   -1.3033   -0.2668 N   0  0  0  0  0  0  0  0  0  0  0  0
    3.0507   -3.0283   -1.1257 N   0  0  0  0  0  0  0  0  0  0  0  0
    1.6422   -1.2174    0.2057 C   0  0  0  0  0  0  0  0  0  0  0  0
    0.1582   -1.7325    0.2404 C   0  0  0  0  0  0  0  0  0  0  0  0
    2.2188   -1.1308    1.6827 C   0  0  0  0  0  0  0  0  0  0  0  0
   -0.5297   -1.8441   -1.1363 C   0  0  0  0  0  0  0  0  0  0  0  0
    1.6876    0.1895   -0.4360 C   0  0  0  0  0  0  0  0  0  0  0  0
   -1.9988   -2.2647   -1.0324 C   0  0  0  0  0  0  0  0  0  0  0  0
    3.6811   -0.6587    1.7639 C   0  0  0  0  0  0  0  0  0  0  0  0
    2.0908   -2.4529    2.4629 C   0  0  0  0  0  0  0  0  0  0  0  0
    1.0055    1.2395    0.1417 C   0  0  0  0  0  0  0  0  0  0  0  0
   -2.7377    0.0273   -0.8881 C   0  0  0  0  0  0  0  0  0  0  0  0
   -4.1846   -1.7505   -0.1502 C   0  0  0  0  0  0  0  0  0  0  0  0
    2.4352   -2.2295   -0.5502 C   0  0  0  0  0  0  0  0  0  0  0  0
    2.4365    0.2921   -1.5825 C   0  0  0  0  0  0  0  0  0  0  0  0
   -3.5792    1.0097   -0.0784 C   0  0  0  0  0  0  0  0  0  0  0  0
   -4.9927   -0.7260    0.6410 C   0  0  0  0  0  0  0  0  0  0  0  0
    1.0873    2.5015   -0.4932 C   0  0  0  0  0  0  0  0  0  0  0  0
    2.5174    1.5333   -2.2067 C   0  0  0  0  0  0  0  0  0  0  0  0
    0.2455    1.1091    1.3155 C   0  0  0  0  0  0  0  0  0  0  0  0
    1.8477    2.6317   -1.6667 C   0  0  0  0  0  0  0  0  0  0  0  0
    0.4065    3.5961    0.0642 C   0  0  0  0  0  0  0  0  0  0  0  0
   -0.4247    2.2073    1.8553 C   0  0  0  0  0  0  0  0  0  0  0  0
   -0.3444    3.4484    1.2307 C   0  0  0  0  0  0  0  0  0  0  0  0
  1 17  1  0
  1 18  1  0
  2  9  1  0
  2 13  1  0
  2 14  1  0
  3 15  3  0
  4  5  1  0
  4  6  1  0
  4  8  1  0
  4 15  1  0
  5  7  1  0
  6 10  1  0
  6 11  1  0
  7  9  1  0
  8 12  1  0
  8 16  2  0
 12 19  2  0
 12 21  1  0
 13 17  1  0
 14 18  1  0
 16 20  1  0
 19 22  1  0
 19 23  1  0
 20 22  2  0
 21 24  2  0
 23 25  2  0
 24 25  1  0
M  END
>  <PUBCHEM_COMPOUND_CID>  (1) 
25876

>  <PUBCHEM_CONFORMER_RMSD>  (1) 
0.8

>  <PUBCHEM_CONFORMER_DIVERSEORDER>  (1) 
3
81
79
66
37
83
44
78
43
71
19
80
75
54
69
76
72
46
85
77
68
50
33
51
7
24
31
9
63
25
34
59
14
42
82
35
13
18
30
36
2
38
4
12
70
67
40
16
47
64
61
1
45
23
5
58
39
84
41
60
17
57
48
28
21
56
55
62
53
65
6
32
15
49
10
52
27
26
73
74
8
86
20
11
29
22

>  <PUBCHEM_MMFF94_PARTIAL_CHARGES>  (1) 
25
1 -0.56
13 0.27
14 0.27
15 0.36
16 -0.15
17 0.28
18 0.28
2 -0.81
20 -0.15
21 -0.15
22 -0.15
23 -0.15
24 -0.15
25 -0.15
3 -0.56
4 0.34
43 0.15
48 0.15
49 0.15
50 0.15
51 0.15
52 0.15
53 0.15
8 -0.14
9 0.27

>  <PUBCHEM_EFFECTIVE_ROTOR_COUNT>  (1) 
7.2

>  <PUBCHEM_PHARMACOPHORE_FEATURES>  (1) 
8
1 1 acceptor
1 2 cation
1 3 acceptor
3 6 10 11 hydrophobe
4 4 5 6 7 hydrophobe
6 1 2 13 14 17 18 rings
6 12 19 21 23 24 25 rings
6 8 12 16 19 20 22 rings

>  <PUBCHEM_HEAVY_ATOM_COUNT>  (1) 
25

>  <PUBCHEM_ATOM_DEF_STEREO_COUNT>  (1) 
0

>  <PUBCHEM_ATOM_UDEF_STEREO_COUNT>  (1) 
1

>  <PUBCHEM_BOND_DEF_STEREO_COUNT>  (1) 
0

>  <PUBCHEM_BOND_UDEF_STEREO_COUNT>  (1) 
0

>  <PUBCHEM_ISOTOPIC_ATOM_COUNT>  (1) 
0

>  <PUBCHEM_COMPONENT_COUNT>  (1) 
1

>  <PUBCHEM_CACTVS_TAUTO_COUNT>  (1) 
1

>  <PUBCHEM_CONFORMER_ID>  (1) 
0000651400000003

>  <PUBCHEM_MMFF94_ENERGY>  (1) 
87.0059

>  <PUBCHEM_FEATURE_SELFOVERLAP>  (1) 
40.643

>  <PUBCHEM_SHAPE_FINGERPRINT>  (1) 
10165383 225 17606691480604364911
104564 63 17839178511366523791
10764073 3 17703207595234081952
12035759 4 18266200390901176876
12422481 6 17974812264715547816
12553582 1 18343868805713444013
12633257 1 18410016529389902587
128993 33 18122905606066734677
13004483 165 17609469671541393170
13132413 78 18196912565332453560
13294875 104 17834102422895664528
133893 2 17682923890102041070
13464514 151 17837497718902265620
14713325 29 16598179970934942060
14955137 171 18340203102550072586
15163728 17 14475264802445246610
15238133 3 18409731746881892979
17093844 170 17764582119432251457
17980427 23 17128988841143319673
1813 80 18188202096863011658
19078846 21 18411131442263752571
20465049 17 18053407632085175887
20600515 1 17901079967959067230
21524375 3 17615114920863209006
23419403 2 17756940694060562864
238 59 18048319135068650507
2637199 183 18194982943831802759
3052486 1 17690864271062060167
35225 105 17049901717002723157
394222 165 17896605183710656912
484985 159 15656026611435606466
5895379 119 17560526230212614369
7097593 13 18261656126397568075
81228 2 17976808792746898906
8509985 295 18338792322047097093

>  <PUBCHEM_SHAPE_MULTIPOLES>  (1) 
498.66
6.8
4.19
2.02
10.39
1.9
-0.42
-3.08
0.08
-1.97
-0.28
-1.93
-0.01
-1.52

>  <PUBCHEM_SHAPE_SELFOVERLAP>  (1) 
1055.22

>  <PUBCHEM_SHAPE_VOLUME>  (1) 
277.6

>  <PUBCHEM_COORDINATE_TYPE>  (1) 
2
5
10

$$$$
