25896
     RDKit          3D

 16 18  0  0  0  0  0  0  0  0999 V2000
   -0.4173   -1.1897    0.0007 N   0  0  0  0  0  0  0  0  0  0  0  0
    0.8215   -0.6629    0.0006 C   0  0  0  0  0  0  0  0  0  0  0  0
    0.9752    0.7385    0.0008 C   0  0  0  0  0  0  0  0  0  0  0  0
   -1.5432   -0.4519    0.0004 C   0  0  0  0  0  0  0  0  0  0  0  0
   -1.4464    0.9545    0.0004 C   0  0  0  0  0  0  0  0  0  0  0  0
   -0.1739    1.5388    0.0009 C   0  0  0  0  0  0  0  0  0  0  0  0
    2.2712    1.2790    0.0003 C   0  0  0  0  0  0  0  0  0  0  0  0
    1.9448   -1.4969    0.0004 C   0  0  0  0  0  0  0  0  0  0  0  0
    3.3878    0.4407   -0.0004 C   0  0  0  0  0  0  0  0  0  0  0  0
   -0.5487   -2.6628   -0.0005 C   0  0  0  0  0  0  0  0  0  0  0  0
   -2.7966   -1.0738   -0.0001 C   0  0  0  0  0  0  0  0  0  0  0  0
    3.2247   -0.9436   -0.0004 C   0  0  0  0  0  0  0  0  0  0  0  0
   -2.6262    1.7159   -0.0001 C   0  0  0  0  0  0  0  0  0  0  0  0
   -3.9582   -0.3027   -0.0009 C   0  0  0  0  0  0  0  0  0  0  0  0
   -3.8736    1.0884   -0.0009 C   0  0  0  0  0  0  0  0  0  0  0  0
    4.7589    1.0286   -0.0013 C   0  0  0  0  0  0  0  0  0  0  0  0
  1  2  2  0
  1  4  1  0
  1 10  1  0
  2  3  1  0
  2  8  1  0
  3  6  2  0
  3  7  1  0
  4  5  2  0
  4 11  1  0
  5  6  1  0
  5 13  1  0
  7  9  2  0
  8 12  2  0
  9 12  1  0
  9 16  1  0
 11 14  2  0
 13 15  2  0
 14 15  1  0
M  CHG  1   1   1
M  END
>  <PUBCHEM_COMPOUND_CID>  (1) 
25896

>  <PUBCHEM_CONFORMER_RMSD>  (1) 
0.4

>  <PUBCHEM_CONFORMER_DIVERSEORDER>  (1) 
1

>  <PUBCHEM_MMFF94_PARTIAL_CHARGES>  (1) 
22
1 -0.21
10 0.49
11 -0.15
12 -0.15
13 -0.15
14 -0.15
15 -0.15
16 0.14
17 0.15
18 0.15
19 0.15
2 0.36
23 0.15
24 0.15
25 0.15
26 0.15
27 0.15
4 0.36
6 -0.15
7 -0.15
8 -0.15
9 -0.14

>  <PUBCHEM_EFFECTIVE_ROTOR_COUNT>  (1) 
0

>  <PUBCHEM_PHARMACOPHORE_FEATURES>  (1) 
3
6 1 2 3 4 5 6 rings
6 2 3 7 8 9 12 rings
6 4 5 11 13 14 15 rings

>  <PUBCHEM_HEAVY_ATOM_COUNT>  (1) 
16

>  <PUBCHEM_ATOM_DEF_STEREO_COUNT>  (1) 
0

>  <PUBCHEM_ATOM_UDEF_STEREO_COUNT>  (1) 
0

>  <PUBCHEM_BOND_DEF_STEREO_COUNT>  (1) 
0

>  <PUBCHEM_BOND_UDEF_STEREO_COUNT>  (1) 
0

>  <PUBCHEM_ISOTOPIC_ATOM_COUNT>  (1) 
0

>  <PUBCHEM_COMPONENT_COUNT>  (1) 
1

>  <PUBCHEM_CACTVS_TAUTO_COUNT>  (1) 
1

>  <PUBCHEM_CONFORMER_ID>  (1) 
0000652800000001

>  <PUBCHEM_MMFF94_ENERGY>  (1) 
67.3826

>  <PUBCHEM_FEATURE_SELFOVERLAP>  (1) 
15.282

>  <PUBCHEM_SHAPE_FINGERPRINT>  (1) 
10411042 1 17041481086534386922
10608611 8 18410853239635747276
10616163 171 18339364187751751422
10967382 1 18410575058893294631
11132069 177 18411415102977981225
11471102 20 18410851036343547556
11543360 7 15769482218449702068
12390115 104 18200331943004600457
12403814 3 17603860126319819973
13140716 1 17906176500574683771
13221675 6 18410574006705512862
13380535 76 18411700997697786878
13583140 156 16733254733614579209
14144814 61 18410011018023461496
14325111 11 18410575058919856769
14897335 6 18410854369559922502
15196674 1 18410855438653338311
15219456 202 18412547578458577071
15309172 13 18411708668567211643
15442244 35 18122624959665199634
15536298 74 18342458106350902958
15775835 57 18410577270806824288
16945 1 18266459991076510055
18186145 218 18340492153447815916
193761 8 17762337311513697957
200 152 18131060546492250045
20510252 161 18272373048726096881
20645477 70 18269834233475355359
21267235 1 18410302418690971438
21501502 16 18338514144850941195
2334 1 18410855447285464417
23402539 116 18342448274769790628
23402655 69 18342732984226445541
23463225 33 18335983081963401940
23559900 14 18343865503263096238
2748010 2 18410015399043103751
335352 9 17978509728439074591
34934 24 18410004442423249954
43471831 8 18334854970249174595
474 4 17024599004517579108
4990 188 18060148613452887892
5104073 3 18410575058919669370
528886 8 18411132524199839907
53812653 166 18342453751064316840
54173680 148 18120657100081839883
58051976 378 18412261722689454516
633830 44 18200877249395380605
69090 78 18413103978618656871
7364860 26 18197216932121166670
9709674 26 18341056289012995838

>  <PUBCHEM_SHAPE_MULTIPOLES>  (1) 
324.29
7.3
2.14
0.61
2.01
0.8
0
-2.09
0
-0.3
0
0
-0.01
0

>  <PUBCHEM_SHAPE_SELFOVERLAP>  (1) 
727.656

>  <PUBCHEM_SHAPE_VOLUME>  (1) 
172.7

>  <PUBCHEM_COORDINATE_TYPE>  (1) 
2
5
10

$$$$
