25900
     RDKit          3D

 26 27  0  0  1  0  0  0  0  0999 V2000
    2.5852   -1.1601   -0.5594 O   0  0  0  0  0  0  0  0  0  0  0  0
    2.6324    0.9484    0.3420 O   0  0  0  0  0  0  0  0  0  0  0  0
   -3.6474   -2.8464   -0.4193 N   0  0  0  0  0  0  0  0  0  0  0  0
    0.6944   -0.4976    0.7988 C   0  0  0  0  0  0  0  0  0  0  0  0
    1.0089   -1.2572    2.1555 C   0  0  0  0  0  0  0  0  0  0  0  0
   -0.1245   -1.4039   -0.1915 C   0  0  0  0  0  0  0  0  0  0  0  0
   -0.1281    0.8119    0.9696 C   0  0  0  0  0  0  0  0  0  0  0  0
   -1.5638   -1.7322    0.2404 C   0  0  0  0  0  0  0  0  0  0  0  0
    2.0688   -0.1280    0.1677 C   0  0  0  0  0  0  0  0  0  0  0  0
    1.7937   -0.4103    3.1766 C   0  0  0  0  0  0  0  0  0  0  0  0
    1.7628   -2.5877    1.9800 C   0  0  0  0  0  0  0  0  0  0  0  0
   -0.4395    1.5754   -0.1302 C   0  0  0  0  0  0  0  0  0  0  0  0
   -2.2877   -2.5339   -0.8433 C   0  0  0  0  0  0  0  0  0  0  0  0
   -0.4892    1.1083    2.2570 C   0  0  0  0  0  0  0  0  0  0  0  0
   -1.1899    2.7544    0.0920 C   0  0  0  0  0  0  0  0  0  0  0  0
   -1.2274    2.2677    2.4754 C   0  0  0  0  0  0  0  0  0  0  0  0
   -0.0535    1.2433   -1.4391 C   0  0  0  0  0  0  0  0  0  0  0  0
   -1.5762    3.0865    1.4009 C   0  0  0  0  0  0  0  0  0  0  0  0
    3.8726   -0.9315   -1.1413 C   0  0  0  0  0  0  0  0  0  0  0  0
   -1.5322    3.5668   -1.0012 C   0  0  0  0  0  0  0  0  0  0  0  0
   -0.4021    2.0623   -2.5134 C   0  0  0  0  0  0  0  0  0  0  0  0
   -4.3936   -1.6195   -0.1349 C   0  0  0  0  0  0  0  0  0  0  0  0
   -4.3376   -3.6349   -1.4417 C   0  0  0  0  0  0  0  0  0  0  0  0
   -1.1401    3.2220   -2.2949 C   0  0  0  0  0  0  0  0  0  0  0  0
    3.7991    0.2783   -2.0605 C   0  0  0  0  0  0  0  0  0  0  0  0
    4.3150   -2.1823   -1.8852 C   0  0  0  0  0  0  0  0  0  0  0  0
  1  9  1  0
  1 19  1  0
  2  9  2  0
  3 13  1  0
  3 22  1  0
  3 23  1  0
  4  5  1  0
  4  6  1  0
  4  7  1  0
  4  9  1  0
  5 10  1  0
  5 11  1  0
  6  8  1  0
  7 12  2  0
  7 14  1  0
  8 13  1  0
 12 15  1  0
 12 17  1  0
 14 16  2  0
 15 18  2  0
 15 20  1  0
 16 18  1  0
 17 21  2  0
 19 25  1  0
 19 26  1  0
 20 24  2  0
 21 24  1  0
M  END
>  <PUBCHEM_COMPOUND_CID>  (1) 
25900

>  <PUBCHEM_CONFORMER_RMSD>  (1) 
1

>  <PUBCHEM_CONFORMER_DIVERSEORDER>  (1) 
6
32
40
35
43
14
41
16
24
39
38
5
44
19
33
1
30
42
18
28
29
21
9
11
31
4
12
3
34
25
8
2
27
17
23
36
13
26
22
15
7
45
37
20
10

>  <PUBCHEM_MMFF94_PARTIAL_CHARGES>  (1) 
24
1 -0.43
13 0.27
14 -0.15
16 -0.15
17 -0.15
18 -0.15
19 0.28
2 -0.57
20 -0.15
21 -0.15
22 0.27
23 0.27
24 -0.15
3 -0.81
4 0.2
40 0.15
41 0.15
42 0.15
43 0.15
45 0.15
46 0.15
53 0.15
7 -0.14
9 0.66

>  <PUBCHEM_EFFECTIVE_ROTOR_COUNT>  (1) 
9

>  <PUBCHEM_PHARMACOPHORE_FEATURES>  (1) 
7
1 2 acceptor
1 3 cation
3 19 25 26 hydrophobe
3 5 10 11 hydrophobe
4 4 5 6 8 hydrophobe
6 12 15 17 20 21 24 rings
6 7 12 14 15 16 18 rings

>  <PUBCHEM_HEAVY_ATOM_COUNT>  (1) 
26

>  <PUBCHEM_ATOM_DEF_STEREO_COUNT>  (1) 
0

>  <PUBCHEM_ATOM_UDEF_STEREO_COUNT>  (1) 
1

>  <PUBCHEM_BOND_DEF_STEREO_COUNT>  (1) 
0

>  <PUBCHEM_BOND_UDEF_STEREO_COUNT>  (1) 
0

>  <PUBCHEM_ISOTOPIC_ATOM_COUNT>  (1) 
0

>  <PUBCHEM_COMPONENT_COUNT>  (1) 
1

>  <PUBCHEM_CACTVS_TAUTO_COUNT>  (1) 
1

>  <PUBCHEM_CONFORMER_ID>  (1) 
0000652C00000006

>  <PUBCHEM_MMFF94_ENERGY>  (1) 
105.3526

>  <PUBCHEM_FEATURE_SELFOVERLAP>  (1) 
35.603

>  <PUBCHEM_SHAPE_FINGERPRINT>  (1) 
11115154 58 17985848144686064963
11578080 2 17775289348515407650
12035759 4 18041280976091594358
12293681 25 17201611404012514550
13681431 1 17978236280777481667
15210252 30 18114459084447978295
15664445 248 18117831316501084308
20600515 1 18120082029804413074
20602899 9 17909829838591007293
21452121 99 17977349812539050801
21756936 100 17025753315886078014
22149856 69 16974207467821761903
23419403 2 17060331916516935578
25222932 49 16185433918690251629
3380486 77 17605544660391851712
35225 105 18125432021683413743
484985 159 16839423405006012622
57527585 103 17773295869087818594
59554788 248 17397272633411183153
59554788 281 17264368108604505730
81228 2 18262534692106430160
9925002 15 17982207596750260273

>  <PUBCHEM_SHAPE_MULTIPOLES>  (1) 
518.35
5.99
4.76
3.01
2.29
0.32
-1.12
6.26
3.89
-6.25
1.8
1.23
-0.93
-1.21

>  <PUBCHEM_SHAPE_SELFOVERLAP>  (1) 
1079.283

>  <PUBCHEM_SHAPE_VOLUME>  (1) 
296.9

>  <PUBCHEM_COORDINATE_TYPE>  (1) 
2
5
10

$$$$
