25905
     RDKit          3D

 23 26  0  0  0  0  0  0  0  0999 V2000
   -2.0165    0.6720    1.6059 S   0  0  0  0  0  0  0  0  0  0  0  0
    0.5008    1.8338    1.0773 O   0  0  0  0  0  0  0  0  0  0  0  0
    3.0696   -2.4225   -0.8773 O   0  0  0  0  0  0  0  0  0  0  0  0
    0.3748   -0.4797    0.5174 C   0  0  0  0  0  0  0  0  0  0  0  0
    1.0608   -1.5827    0.0046 C   0  0  0  0  0  0  0  0  0  0  0  0
    2.4522    0.9584    0.2032 C   0  0  0  0  0  0  0  0  0  0  0  0
    3.1381   -0.1445   -0.3097 C   0  0  0  0  0  0  0  0  0  0  0  0
    1.0455    0.8311    0.6356 C   0  0  0  0  0  0  0  0  0  0  0  0
    2.4673   -1.4553   -0.4282 C   0  0  0  0  0  0  0  0  0  0  0  0
   -0.9586   -0.6133    0.9230 C   0  0  0  0  0  0  0  0  0  0  0  0
    0.4135   -2.8196   -0.1020 C   0  0  0  0  0  0  0  0  0  0  0  0
    3.0993    2.1954    0.3097 C   0  0  0  0  0  0  0  0  0  0  0  0
    4.4712   -0.0106   -0.7159 C   0  0  0  0  0  0  0  0  0  0  0  0
   -1.5998   -1.8477    0.8145 C   0  0  0  0  0  0  0  0  0  0  0  0
   -0.9153   -2.9484    0.3032 C   0  0  0  0  0  0  0  0  0  0  0  0
    4.4277    2.3245   -0.0967 C   0  0  0  0  0  0  0  0  0  0  0  0
    5.1123    1.2238   -0.6082 C   0  0  0  0  0  0  0  0  0  0  0  0
   -3.3305    0.6958    0.3999 C   0  0  0  0  0  0  0  0  0  0  0  0
   -3.0464    0.9885   -0.9335 C   0  0  0  0  0  0  0  0  0  0  0  0
   -4.6402    0.4214    0.7916 C   0  0  0  0  0  0  0  0  0  0  0  0
   -4.0739    1.0071   -1.8766 C   0  0  0  0  0  0  0  0  0  0  0  0
   -5.6676    0.4399   -0.1518 C   0  0  0  0  0  0  0  0  0  0  0  0
   -5.3843    0.7327   -1.4859 C   0  0  0  0  0  0  0  0  0  0  0  0
  1 10  1  0
  1 18  1  0
  2  8  2  0
  3  9  2  0
  4  5  2  0
  4  8  1  0
  4 10  1  0
  5  9  1  0
  5 11  1  0
  6  7  2  0
  6  8  1  0
  6 12  1  0
  7  9  1  0
  7 13  1  0
 10 14  2  0
 11 15  2  0
 12 16  2  0
 13 17  2  0
 14 15  1  0
 16 17  1  0
 18 19  2  0
 18 20  1  0
 19 21  1  0
 20 22  2  0
 21 23  2  0
 22 23  1  0
M  END
>  <PUBCHEM_COMPOUND_CID>  (1) 
25905

>  <PUBCHEM_CONFORMER_RMSD>  (1) 
0.6

>  <PUBCHEM_CONFORMER_DIVERSEORDER>  (1) 
2
8
6
5
9
1
4
7
3

>  <PUBCHEM_MMFF94_PARTIAL_CHARGES>  (1) 
35
1 -0.2
10 0.1
11 -0.15
12 -0.15
13 -0.15
14 -0.15
15 -0.15
16 -0.15
17 -0.15
18 0.1
19 -0.15
2 -0.57
20 -0.15
21 -0.15
22 -0.15
23 -0.15
24 0.15
25 0.15
26 0.15
27 0.15
28 0.15
29 0.15
3 -0.57
30 0.15
31 0.15
32 0.15
33 0.15
34 0.15
35 0.15
4 0.09
5 0.09
6 0.09
7 0.09
8 0.4
9 0.4

>  <PUBCHEM_EFFECTIVE_ROTOR_COUNT>  (1) 
2

>  <PUBCHEM_PHARMACOPHORE_FEATURES>  (1) 
6
1 2 acceptor
1 3 acceptor
6 18 19 20 21 22 23 rings
6 4 5 10 11 14 15 rings
6 4 5 6 7 8 9 rings
6 6 7 12 13 16 17 rings

>  <PUBCHEM_HEAVY_ATOM_COUNT>  (1) 
23

>  <PUBCHEM_ATOM_DEF_STEREO_COUNT>  (1) 
0

>  <PUBCHEM_ATOM_UDEF_STEREO_COUNT>  (1) 
0

>  <PUBCHEM_BOND_DEF_STEREO_COUNT>  (1) 
0

>  <PUBCHEM_BOND_UDEF_STEREO_COUNT>  (1) 
0

>  <PUBCHEM_ISOTOPIC_ATOM_COUNT>  (1) 
0

>  <PUBCHEM_COMPONENT_COUNT>  (1) 
1

>  <PUBCHEM_CACTVS_TAUTO_COUNT>  (1) 
1

>  <PUBCHEM_CONFORMER_ID>  (1) 
0000653100000002

>  <PUBCHEM_MMFF94_ENERGY>  (1) 
75.1974

>  <PUBCHEM_FEATURE_SELFOVERLAP>  (1) 
30.49

>  <PUBCHEM_SHAPE_FINGERPRINT>  (1) 
10411042 1 17546456574218326762
105312 117 18259982708069163061
10688039 33 17612885106971944235
10693767 8 17845661326846338822
11725454 13 17749384858469731115
11796584 16 13830131676660525373
11961588 58 18187917434714053697
12236239 1 17346602945778636953
12403259 415 18114190696426457163
12403260 363 18266736879139061682
12670546 177 18343579642565776407
12730499 353 18335424552101183555
12788726 201 16845302583936535385
12969540 114 18334850632442553229
13103583 49 8718547280979953349
13257819 101 17894341202984637908
13402501 40 18113897165208177909
13583140 156 17530973504930881400
13911987 19 18410019861482950005
15238133 3 15068623759919421284
17349148 13 18201714007982910650
193927 3 11095892583192888424
20645477 56 18260554462700194819
20645477 70 18340494378462538178
21033648 29 17822292370727583125
21521239 73 17989202650939415343
21591340 35 15078415804486919573
221357 26 18341609270616452389
22182313 1 18265636401085953011
231179 274 18040154019865480896
23227448 37 18189338038107499869
23557571 272 17313681382042499809
23559900 14 18272378615990064896
23566358 2 18272099343282135286
238 59 18192131729850336359
25 1 18411981343045305779
2838139 119 18040986354299345941
335352 9 18412271632101873710
341906 21 16153429415843108437
350125 39 18194694893270860699
4371632 12 15694044893583498048
469060 322 16878494761368610263
474 4 18412826871750208939
495365 180 17988634246868118944
633830 44 18270971120346020483

>  <PUBCHEM_SHAPE_MULTIPOLES>  (1) 
465.44
11.02
2.79
1.29
5.17
1.8
-0.14
-6.71
-4.05
-1.98
-0.05
1.36
-0.33
1.06

>  <PUBCHEM_SHAPE_SELFOVERLAP>  (1) 
1036.796

>  <PUBCHEM_SHAPE_VOLUME>  (1) 
247.9

>  <PUBCHEM_COORDINATE_TYPE>  (1) 
2
5
10

$$$$
