25901
     RDKit          3D

 13 13  0  0  0  0  0  0  0  0999 V2000
    5.9260   -0.9576   -0.1094 I   0  0  0  0  0  0  0  0  0  0  0  0
   -0.4353   -2.2054    0.3654 Cl  0  0  0  0  0  0  0  0  0  0  0  0
   -3.5705   -2.0762   -0.3528 Cl  0  0  0  0  0  0  0  0  0  0  0  0
    0.7859    0.4825    0.6420 O   0  0  0  0  0  0  0  0  0  0  0  0
   -0.5432    0.4913    0.3379 C   0  0  0  0  0  0  0  0  0  0  0  0
   -1.2619   -0.6931    0.1751 C   0  0  0  0  0  0  0  0  0  0  0  0
   -1.1832    1.7216    0.1894 C   0  0  0  0  0  0  0  0  0  0  0  0
   -2.6209   -0.6471   -0.1363 C   0  0  0  0  0  0  0  0  0  0  0  0
   -2.5420    1.7677   -0.1220 C   0  0  0  0  0  0  0  0  0  0  0  0
   -3.2609    0.5834   -0.2849 C   0  0  0  0  0  0  0  0  0  0  0  0
    1.6662    1.1119   -0.2863 C   0  0  0  0  0  0  0  0  0  0  0  0
    2.9802    0.4723   -0.2311 C   0  0  0  0  0  0  0  0  0  0  0  0
    4.0595   -0.0514   -0.1869 C   0  0  0  0  0  0  0  0  0  0  0  0
  1 13  1  0
  2  6  1  0
  3  8  1  0
  4  5  1  0
  4 11  1  0
  5  6  2  0
  5  7  1  0
  6  8  1  0
  7  9  2  0
  8 10  2  0
  9 10  1  0
 11 12  1  0
 12 13  3  0
M  END
>  <PUBCHEM_COMPOUND_CID>  (1) 
25901

>  <PUBCHEM_CONFORMER_RMSD>  (1) 
0.6

>  <PUBCHEM_CONFORMER_DIVERSEORDER>  (1) 
1
15
12
6
5
16
14
9
11
10
13
7
8
3
4
2

>  <PUBCHEM_MMFF94_PARTIAL_CHARGES>  (1) 
16
1 -0.01
10 -0.15
11 0.48
12 -0.2
13 0.01
14 0.15
15 0.15
16 0.15
2 -0.18
3 -0.18
4 -0.36
5 0.08
6 0.18
7 -0.15
8 0.18
9 -0.15

>  <PUBCHEM_EFFECTIVE_ROTOR_COUNT>  (1) 
2

>  <PUBCHEM_PHARMACOPHORE_FEATURES>  (1) 
3
1 1 hydrophobe
1 4 acceptor
6 5 6 7 8 9 10 rings

>  <PUBCHEM_HEAVY_ATOM_COUNT>  (1) 
13

>  <PUBCHEM_ATOM_DEF_STEREO_COUNT>  (1) 
0

>  <PUBCHEM_ATOM_UDEF_STEREO_COUNT>  (1) 
0

>  <PUBCHEM_BOND_DEF_STEREO_COUNT>  (1) 
0

>  <PUBCHEM_BOND_UDEF_STEREO_COUNT>  (1) 
0

>  <PUBCHEM_ISOTOPIC_ATOM_COUNT>  (1) 
0

>  <PUBCHEM_COMPONENT_COUNT>  (1) 
1

>  <PUBCHEM_CACTVS_TAUTO_COUNT>  (1) 
1

>  <PUBCHEM_CONFORMER_ID>  (1) 
0000652D00000001

>  <PUBCHEM_MMFF94_ENERGY>  (1) 
32.2744

>  <PUBCHEM_FEATURE_SELFOVERLAP>  (1) 
15.223

>  <PUBCHEM_SHAPE_FINGERPRINT>  (1) 
10062212 137 18410847742119897434
10465860 250 17917989452252248704
11315181 36 18130792240206976808
11458722 379 18408041797415477858
12032990 46 18266460000157282515
13288520 33 18412827984325989212
13690532 89 18408604781701951894
17834072 33 18335707157071070020
17870717 6 18200046053391716886
1986462 14 18410294705188014964
200 152 17132110221732239388
20645476 183 17676202485348076355
21637258 2 16271353232208063599
22485316 2 18409166581126240884
2306618 200 18201728318650683489
23402539 116 18411414012103787100
23403322 49 18342177761003455646
23559900 14 18343013407374083560
2748010 2 18049703416372034321
4214541 1 18410856538845675484
5104073 3 18342177795421217088
559249 180 18262514785181173466
573450 72 18335132052069875336
58051976 100 18259984864406372580
76465 3 17987510579816931455
9709674 26 18412552032962545078

>  <PUBCHEM_SHAPE_MULTIPOLES>  (1) 
277.34
9.91
2.16
0.72
17.36
0.69
0
3.26
1.31
-2
-0.01
0.09
0.05
-0.17

>  <PUBCHEM_SHAPE_SELFOVERLAP>  (1) 
529.011

>  <PUBCHEM_SHAPE_VOLUME>  (1) 
174

>  <PUBCHEM_COORDINATE_TYPE>  (1) 
2
5
10

$$$$
