25911
     RDKit          3D

 25 27  0  0  1  0  0  0  0  0999 V2000
    0.4577    0.6563    2.1166 O   0  0  0  0  0  0  0  0  0  0  0  0
    0.0425   -3.2327   -0.3294 O   0  0  0  0  0  0  0  0  0  0  0  0
    0.5829   -1.3055    0.8650 N   0  0  0  0  0  0  0  0  0  0  0  0
   -2.0644    0.9152    0.2651 C   0  0  0  0  0  0  0  0  0  0  0  0
   -1.5234   -0.2956    1.0852 C   0  0  0  0  0  0  0  0  0  0  0  0
   -2.2989   -1.3011   -1.1322 C   0  0  0  0  0  0  0  0  0  0  0  0
   -1.6630   -1.6081    0.2579 C   0  0  0  0  0  0  0  0  0  0  0  0
   -3.5631    0.6118   -0.0240 C   0  0  0  0  0  0  0  0  0  0  0  0
   -3.7007   -0.6892   -0.8458 C   0  0  0  0  0  0  0  0  0  0  0  0
   -1.9355    2.2519    0.9950 C   0  0  0  0  0  0  0  0  0  0  0  0
   -1.3641    0.9288   -1.0859 C   0  0  0  0  0  0  0  0  0  0  0  0
   -1.4835   -0.2028   -1.7992 C   0  0  0  0  0  0  0  0  0  0  0  0
   -0.0500   -0.2201    1.4297 C   0  0  0  0  0  0  0  0  0  0  0  0
   -0.2578   -2.1720    0.2017 C   0  0  0  0  0  0  0  0  0  0  0  0
   -2.4418   -2.5352   -2.0228 C   0  0  0  0  0  0  0  0  0  0  0  0
   -2.6199    2.1859    2.3580 C   0  0  0  0  0  0  0  0  0  0  0  0
   -2.5228    3.3810    0.1522 C   0  0  0  0  0  0  0  0  0  0  0  0
    2.0072   -1.5423    1.0074 C   0  0  0  0  0  0  0  0  0  0  0  0
    2.8839   -0.4750    0.3289 C   0  0  0  0  0  0  0  0  0  0  0  0
    2.5558   -0.2869   -1.1715 C   0  0  0  0  0  0  0  0  0  0  0  0
    4.3979   -0.7531    0.4773 C   0  0  0  0  0  0  0  0  0  0  0  0
    3.2244    0.9036   -1.8689 C   0  0  0  0  0  0  0  0  0  0  0  0
    4.8673   -0.8617    1.9214 C   0  0  0  0  0  0  0  0  0  0  0  0
    2.9335    2.2461   -1.1977 C   0  0  0  0  0  0  0  0  0  0  0  0
    3.5357    3.4007   -1.9838 C   0  0  0  0  0  0  0  0  0  0  0  0
  1 13  2  0
  2 14  2  0
  3 13  1  0
  3 14  1  0
  3 18  1  0
  4  5  1  0
  4  8  1  0
  4 10  1  0
  4 11  1  0
  5  7  1  0
  5 13  1  0
  6  7  1  0
  6  9  1  0
  6 12  1  0
  6 15  1  0
  7 14  1  0
  8  9  1  0
 10 16  1  0
 10 17  1  0
 11 12  2  0
 18 19  1  0
 19 20  1  0
 19 21  1  0
 20 22  1  0
 21 23  1  0
 22 24  1  0
 24 25  1  0
M  END
>  <PUBCHEM_COMPOUND_CID>  (1) 
25911

>  <PUBCHEM_CONFORMER_RMSD>  (1) 
0.8

>  <PUBCHEM_CONFORMER_DIVERSEORDER>  (1) 
7
106
43
16
173
1
83
91
99
28
63
94
93
123
66
13
23
59
135
118
51
166
17
102
127
20
140
167
100
18
50
170
48
145
175
60
64
86
180
73
88
70
41
143
47
109
89
4
25
84
67
136
121
101
36
9
171
26
162
78
42
39
65
172
148
155
24
19
120
40
104
69
125
29
10
130
168
45
151
38
154
141
6
112
116
22
27
103
85
133
37
8
57
163
124
33
61
46
177
49
110
44
76
11
147
144
77
149
34
58
174
96
150
5
139
107
98
15
129
74
71
119
142
132
14
3
62
30
115
90
169
52
82
156
12
80
97
178
79
75
92
161
21
32
165
179
108
159
53
157
117
87
105
160
2
128
153
111
31
81
164
54
35
131
95
114
113
126
68
72
122
55
176
137
146
56
152
158
134
138

>  <PUBCHEM_MMFF94_PARTIAL_CHARGES>  (1) 
14
1 -0.57
11 -0.29
12 -0.29
13 0.57
14 0.57
18 0.3
2 -0.57
3 -0.42
33 0.15
34 0.15
4 0.14
5 0.06
6 0.14
7 0.06

>  <PUBCHEM_EFFECTIVE_ROTOR_COUNT>  (1) 
7.6

>  <PUBCHEM_PHARMACOPHORE_FEATURES>  (1) 
8
1 1 acceptor
1 2 acceptor
1 23 hydrophobe
1 25 hydrophobe
3 10 16 17 hydrophobe
5 19 20 21 22 24 hydrophobe
5 3 5 7 13 14 rings
8 4 5 6 7 8 9 11 12 rings

>  <PUBCHEM_HEAVY_ATOM_COUNT>  (1) 
25

>  <PUBCHEM_ATOM_DEF_STEREO_COUNT>  (1) 
0

>  <PUBCHEM_ATOM_UDEF_STEREO_COUNT>  (1) 
5

>  <PUBCHEM_BOND_DEF_STEREO_COUNT>  (1) 
0

>  <PUBCHEM_BOND_UDEF_STEREO_COUNT>  (1) 
0

>  <PUBCHEM_ISOTOPIC_ATOM_COUNT>  (1) 
0

>  <PUBCHEM_COMPONENT_COUNT>  (1) 
1

>  <PUBCHEM_CACTVS_TAUTO_COUNT>  (1) 
1

>  <PUBCHEM_CONFORMER_ID>  (1) 
0000653700000007

>  <PUBCHEM_MMFF94_ENERGY>  (1) 
65.6925

>  <PUBCHEM_FEATURE_SELFOVERLAP>  (1) 
40.675

>  <PUBCHEM_SHAPE_FINGERPRINT>  (1) 
10863032 1 17895479249032697319
10948715 1 17839456696651493315
11640471 11 18338235934202388898
12173636 292 18411990177602869660
12422481 6 17470149376903167842
12539773 59 18194695979739325205
12633257 1 16806747070094103112
12788726 201 18200605807620671401
13134695 92 17531235125001554666
13583140 156 17095245808882348570
13965767 371 17688580568595303648
14123250 116 18192450759926592364
14142880 1 18191853540391939325
15295992 7 16660644042378316736
16945 1 18265910072676630043
17980427 23 18411691089856951680
1813 80 17414709071357705647
192875 21 18261662740667432316
19930381 70 16970846259804017716
21330990 113 16342886298953870527
21864079 5 18262536830931883660
23419403 2 16679517490181950479
23557571 272 17489869328263181008
23559900 14 17345461584686387538
2748010 2 16177035196184238555
474 4 18115593629854968627
5895379 119 18271255919780827828
59444896 2 17106835928823912875
9981440 41 17246956638390383328

>  <PUBCHEM_SHAPE_MULTIPOLES>  (1) 
497.77
7.3
3.5
2.24
7.08
1.77
0.1
1.6
-0.23
-0.34
-0.87
0.55
0.59
-3.53

>  <PUBCHEM_SHAPE_SELFOVERLAP>  (1) 
1040.159

>  <PUBCHEM_SHAPE_VOLUME>  (1) 
283.1

>  <PUBCHEM_COORDINATE_TYPE>  (1) 
2
5
10

$$$$
