2591
     RDKit          3D

 22 24  0  0  1  0  0  0  0  0999 V2000
    1.5513   -0.8557    1.2745 S   0  0  0  0  0  0  0  0  0  0  0  0
    3.8677    1.5711    0.6239 O   0  0  0  0  0  0  0  0  0  0  0  0
    1.7834    0.3358    2.0686 O   0  0  0  0  0  0  0  0  0  0  0  0
    1.8403   -2.1702    1.8154 O   0  0  0  0  0  0  0  0  0  0  0  0
   -2.9989    2.5650    0.2900 O   0  0  0  0  0  0  0  0  0  0  0  0
   -5.4291    1.2939   -0.5639 O   0  0  0  0  0  0  0  0  0  0  0  0
    2.3165   -0.6877   -0.2341 N   0  0  0  0  0  0  0  0  0  0  0  0
   -4.0976   -0.6567   -0.3766 N   0  0  0  0  0  0  0  0  0  0  0  0
    2.2688    0.6531   -0.9018 C   0  0  0  0  0  0  0  0  0  0  0  0
    1.9145    0.3516   -2.3604 C   0  0  0  0  0  0  0  0  0  0  0  0
    2.0622   -1.7387   -1.2570 C   0  0  0  0  0  0  0  0  0  0  0  0
    2.4149   -1.0653   -2.5726 C   0  0  0  0  0  0  0  0  0  0  0  0
    3.6293    1.3205   -0.7517 C   0  0  0  0  0  0  0  0  0  0  0  0
   -0.1437   -0.8415    0.7748 C   0  0  0  0  0  0  0  0  0  0  0  0
   -0.8125    0.3722    0.7066 C   0  0  0  0  0  0  0  0  0  0  0  0
   -0.7641   -2.0582    0.4614 C   0  0  0  0  0  0  0  0  0  0  0  0
   -2.1305    0.3153    0.3103 C   0  0  0  0  0  0  0  0  0  0  0  0
   -2.7693   -0.8796   -0.0064 C   0  0  0  0  0  0  0  0  0  0  0  0
   -2.1046   -2.0862    0.0616 C   0  0  0  0  0  0  0  0  0  0  0  0
    5.1281    2.1961    0.8325 C   0  0  0  0  0  0  0  0  0  0  0  0
   -3.1201    1.3750    0.1294 C   0  0  0  0  0  0  0  0  0  0  0  0
   -4.4065    0.6904   -0.3246 C   0  0  0  0  0  0  0  0  0  0  0  0
  1  3  2  0
  1  4  2  0
  1  7  1  0
  1 14  1  0
  2 13  1  0
  2 20  1  0
  5 21  2  0
  6 22  2  0
  7  9  1  0
  7 11  1  0
  8 18  1  0
  8 22  1  0
  9 10  1  0
  9 13  1  0
 10 12  1  0
 11 12  1  0
 14 15  2  0
 14 16  1  0
 15 17  1  0
 16 19  2  0
 17 18  2  0
 17 21  1  0
 18 19  1  0
 21 22  1  0
M  END
>  <PUBCHEM_COMPOUND_CID>  (1) 
2591

>  <PUBCHEM_CONFORMER_RMSD>  (1) 
0.8

>  <PUBCHEM_CONFORMER_DIVERSEORDER>  (1) 
1
10
32
23
18
33
2
16
26
27
9
30
8
21
28
35
5
7
13
24
19
34
31
3
11
17
22
15
14
29
20
12
6
25
4

>  <PUBCHEM_MMFF94_PARTIAL_CHARGES>  (1) 
24
1 1.45
11 0.36
13 0.28
14 -0.01
15 -0.15
16 -0.15
17 0.09
18 0.12
19 -0.15
2 -0.56
20 0.28
21 0.48
22 0.63
3 -0.65
32 0.15
33 0.15
34 0.15
38 0.37
4 -0.65
5 -0.57
6 -0.57
7 -0.85
8 -0.55
9 0.36

>  <PUBCHEM_EFFECTIVE_ROTOR_COUNT>  (1) 
5.2

>  <PUBCHEM_PHARMACOPHORE_FEATURES>  (1) 
9
1 2 acceptor
1 3 acceptor
1 4 acceptor
1 5 acceptor
1 6 acceptor
1 8 donor
5 7 9 10 11 12 rings
5 8 17 18 21 22 rings
6 14 15 16 17 18 19 rings

>  <PUBCHEM_HEAVY_ATOM_COUNT>  (1) 
22

>  <PUBCHEM_ATOM_DEF_STEREO_COUNT>  (1) 
0

>  <PUBCHEM_ATOM_UDEF_STEREO_COUNT>  (1) 
1

>  <PUBCHEM_BOND_DEF_STEREO_COUNT>  (1) 
0

>  <PUBCHEM_BOND_UDEF_STEREO_COUNT>  (1) 
0

>  <PUBCHEM_ISOTOPIC_ATOM_COUNT>  (1) 
0

>  <PUBCHEM_COMPONENT_COUNT>  (1) 
1

>  <PUBCHEM_CACTVS_TAUTO_COUNT>  (1) 
4

>  <PUBCHEM_CONFORMER_ID>  (1) 
00000A1F00000001

>  <PUBCHEM_MMFF94_ENERGY>  (1) 
49.4367

>  <PUBCHEM_FEATURE_SELFOVERLAP>  (1) 
45.79

>  <PUBCHEM_SHAPE_FINGERPRINT>  (1) 
10498660 4 18409731746977026821
11370993 70 18272094906775766454
11640471 11 17604149336569618534
11725454 13 18057878233674087448
11961588 58 17917137416202107828
12173636 292 18336268964267648655
12403259 118 17022624182870613037
12616999 72 16917347026278167756
12633257 1 17822567326255434924
12670546 177 17846776325835428949
13911987 19 16700623513989577576
13965767 371 17604137121687760781
14178342 30 17458630072108345298
14251740 57 9727048976755515509
14251764 38 18048315845061132236
14739800 52 18267564945003396696
15163728 17 18192170367682462980
15238133 3 14057269832034136486
15375358 24 18201442509904017804
1813 80 17027680643046407922
18186145 218 18268447770971799135
18981168 100 17677923216813791298
19752476 56 18270968938070526720
20645477 70 13038887933588517113
21864079 5 18265623078577494089
23114952 82 17775292625053253198
23419403 2 13899369229848350174
23526113 38 17560812004124832790
23557571 272 18265908032013367303
23559900 14 18201442407162880742
238 59 16630526245471288494
2838139 119 18199180875301604908
3472631 163 18335978769969750461
44802255 64 17554906730249295852
474 4 17240770604797424449
5895379 119 17700417983752316016
633830 44 18129382597290670653
960060 61 16200433542167691597
9981440 41 18262516026025913058

>  <PUBCHEM_SHAPE_MULTIPOLES>  (1) 
417.29
8.88
2.39
1.84
3.4
0.13
0.6
6.27
1.04
-0.28
-0.36
-2.23
-0.55
0.84

>  <PUBCHEM_SHAPE_SELFOVERLAP>  (1) 
885.211

>  <PUBCHEM_SHAPE_VOLUME>  (1) 
235

>  <PUBCHEM_COORDINATE_TYPE>  (1) 
2
5
10

$$$$
