25921
     RDKit          3D

 25 26  0  0  1  0  0  0  0  0999 V2000
    2.9946    0.1874   -0.3888 N   0  0  0  0  0  0  0  0  0  0  0  0
   -4.1279   -1.8104    0.2784 N   0  0  0  0  0  0  0  0  0  0  0  0
    0.7366   -0.7535   -0.7834 C   0  0  0  0  0  0  0  0  0  0  0  0
    0.8404   -1.5606   -2.1505 C   0  0  0  0  0  0  0  0  0  0  0  0
   -0.3365   -1.3981    0.1672 C   0  0  0  0  0  0  0  0  0  0  0  0
    0.2953    0.7341   -0.9521 C   0  0  0  0  0  0  0  0  0  0  0  0
    2.1631   -0.7759   -0.1297 C   0  0  0  0  0  0  0  0  0  0  0  0
   -1.7979   -1.3178   -0.3124 C   0  0  0  0  0  0  0  0  0  0  0  0
    1.2049   -3.0469   -1.9887 C   0  0  0  0  0  0  0  0  0  0  0  0
    1.8204   -0.9594   -3.1771 C   0  0  0  0  0  0  0  0  0  0  0  0
    2.6251   -1.9181    0.7664 C   0  0  0  0  0  0  0  0  0  0  0  0
    0.1871    1.5421    0.1514 C   0  0  0  0  0  0  0  0  0  0  0  0
   -2.7485   -1.8828    0.7456 C   0  0  0  0  0  0  0  0  0  0  0  0
    0.0443    1.1188   -2.2402 C   0  0  0  0  0  0  0  0  0  0  0  0
    2.9407   -1.4761    2.1944 C   0  0  0  0  0  0  0  0  0  0  0  0
   -0.2172    2.8805   -0.0686 C   0  0  0  0  0  0  0  0  0  0  0  0
   -0.3529    2.4349   -2.4564 C   0  0  0  0  0  0  0  0  0  0  0  0
    0.4534    1.1116    1.4614 C   0  0  0  0  0  0  0  0  0  0  0  0
   -0.4833    3.3112   -1.3786 C   0  0  0  0  0  0  0  0  0  0  0  0
   -0.3432    3.7488    1.0280 C   0  0  0  0  0  0  0  0  0  0  0  0
    3.4038   -2.6158    3.0904 C   0  0  0  0  0  0  0  0  0  0  0  0
    0.3228    1.9880    2.5391 C   0  0  0  0  0  0  0  0  0  0  0  0
   -4.5160   -0.4205    0.0318 C   0  0  0  0  0  0  0  0  0  0  0  0
   -5.0342   -2.4258    1.2494 C   0  0  0  0  0  0  0  0  0  0  0  0
   -0.0748    3.3041    2.3228 C   0  0  0  0  0  0  0  0  0  0  0  0
  1  7  2  0
  2 13  1  0
  2 23  1  0
  2 24  1  0
  3  4  1  0
  3  5  1  0
  3  6  1  0
  3  7  1  0
  4  9  1  0
  4 10  1  0
  5  8  1  0
  6 12  2  0
  6 14  1  0
  7 11  1  0
  8 13  1  0
 11 15  1  0
 12 16  1  0
 12 18  1  0
 14 17  2  0
 15 21  1  0
 16 19  2  0
 16 20  1  0
 17 19  1  0
 18 22  2  0
 20 25  2  0
 22 25  1  0
M  END
>  <PUBCHEM_COMPOUND_CID>  (1) 
25921

>  <PUBCHEM_CONFORMER_RMSD>  (1) 
1

>  <PUBCHEM_CONFORMER_DIVERSEORDER>  (1) 
1
19
32
37
21
11
12
24
35
17
25
31
26
2
23
7
27
8
14
9
33
38
22
18
28
20
6
16
15
29
5
10
13
30
34
36
4
3

>  <PUBCHEM_MMFF94_PARTIAL_CHARGES>  (1) 
24
1 -0.85
11 0.06
13 0.27
14 -0.15
17 -0.15
18 -0.15
19 -0.15
2 -0.81
20 -0.15
22 -0.15
23 0.27
24 0.27
25 -0.15
3 0.2
41 0.15
44 0.4
45 0.15
46 0.15
47 0.15
48 0.15
52 0.15
59 0.15
6 -0.14
7 0.33

>  <PUBCHEM_EFFECTIVE_ROTOR_COUNT>  (1) 
9

>  <PUBCHEM_PHARMACOPHORE_FEATURES>  (1) 
8
1 1 acceptor
1 1 donor
1 2 cation
1 21 hydrophobe
3 4 9 10 hydrophobe
4 3 4 5 8 hydrophobe
6 12 16 18 20 22 25 rings
6 6 12 14 16 17 19 rings

>  <PUBCHEM_HEAVY_ATOM_COUNT>  (1) 
25

>  <PUBCHEM_ATOM_DEF_STEREO_COUNT>  (1) 
0

>  <PUBCHEM_ATOM_UDEF_STEREO_COUNT>  (1) 
1

>  <PUBCHEM_BOND_DEF_STEREO_COUNT>  (1) 
0

>  <PUBCHEM_BOND_UDEF_STEREO_COUNT>  (1) 
0

>  <PUBCHEM_ISOTOPIC_ATOM_COUNT>  (1) 
0

>  <PUBCHEM_COMPONENT_COUNT>  (1) 
1

>  <PUBCHEM_CACTVS_TAUTO_COUNT>  (1) 
2

>  <PUBCHEM_CONFORMER_ID>  (1) 
0000654100000001

>  <PUBCHEM_MMFF94_ENERGY>  (1) 
104.7619

>  <PUBCHEM_FEATURE_SELFOVERLAP>  (1) 
40.678

>  <PUBCHEM_SHAPE_FINGERPRINT>  (1) 
10165383 225 12807990423173184853
10764073 3 18127107720216907881
13134695 92 18341042021294837551
13294875 104 17409386395222378125
14955137 171 17913232002403237198
15420108 30 17700116987837625057
16945 1 18047449167962520262
17980427 23 17630027485544458199
20600515 1 18338813276470432502
21524375 3 17333381593416790583
23419403 2 18123999473749014793
238 59 14686424963147165209
3380486 145 17986927718548236583
3380486 77 18041567931869048515
35225 105 17686920322789826827
497634 4 17679284284220477962
539174 4 16978383313306633554
5845 1 11464551281312264803
5895379 119 16268596700664430945
81228 2 18050592658742457767
9981440 41 16765018340641615194

>  <PUBCHEM_SHAPE_MULTIPOLES>  (1) 
504.53
5.32
4.75
3.29
4.04
2.57
0.26
-7.61
-3.44
3.04
-1.3
-2.58
0.18
0.41

>  <PUBCHEM_SHAPE_SELFOVERLAP>  (1) 
1043.383

>  <PUBCHEM_SHAPE_VOLUME>  (1) 
288.7

>  <PUBCHEM_COORDINATE_TYPE>  (1) 
2
5
10

$$$$
