25956
     RDKit          3D

 10 11  0  0  0  0  0  0  0  0999 V2000
    1.4611   -1.1245    0.6392 O   0  0  0  0  0  0  0  0  0  0  0  0
   -0.6413   -1.3420   -0.4405 O   0  0  0  0  0  0  0  0  0  0  0  0
    0.6413    1.3418   -0.4408 O   0  0  0  0  0  0  0  0  0  0  0  0
   -1.4611    1.1247    0.6392 O   0  0  0  0  0  0  0  0  0  0  0  0
    0.0760   -0.7628    0.6566 C   0  0  0  0  0  0  0  0  0  0  0  0
   -0.0761    0.7629    0.6566 C   0  0  0  0  0  0  0  0  0  0  0  0
    2.1533   -0.5301   -0.4594 C   0  0  0  0  0  0  0  0  0  0  0  0
   -2.0216   -0.9804   -0.3958 C   0  0  0  0  0  0  0  0  0  0  0  0
    2.0217    0.9803   -0.3956 C   0  0  0  0  0  0  0  0  0  0  0  0
   -2.1533    0.5301   -0.4594 C   0  0  0  0  0  0  0  0  0  0  0  0
  1  5  1  0
  1  7  1  0
  2  5  1  0
  2  8  1  0
  3  6  1  0
  3  9  1  0
  4  6  1  0
  4 10  1  0
  5  6  1  0
  7  9  1  0
  8 10  1  0
M  END
>  <PUBCHEM_COMPOUND_CID>  (1) 
25956

>  <PUBCHEM_CONFORMER_RMSD>  (1) 
0.4

>  <PUBCHEM_CONFORMER_DIVERSEORDER>  (1) 
1
2

>  <PUBCHEM_MMFF94_PARTIAL_CHARGES>  (1) 
10
1 -0.56
10 0.28
2 -0.56
3 -0.56
4 -0.56
5 0.56
6 0.56
7 0.28
8 0.28
9 0.28

>  <PUBCHEM_EFFECTIVE_ROTOR_COUNT>  (1) 
1.6

>  <PUBCHEM_PHARMACOPHORE_FEATURES>  (1) 
6
1 1 acceptor
1 2 acceptor
1 3 acceptor
1 4 acceptor
6 1 3 5 6 7 9 rings
6 2 4 5 6 8 10 rings

>  <PUBCHEM_HEAVY_ATOM_COUNT>  (1) 
10

>  <PUBCHEM_ATOM_DEF_STEREO_COUNT>  (1) 
0

>  <PUBCHEM_ATOM_UDEF_STEREO_COUNT>  (1) 
0

>  <PUBCHEM_BOND_DEF_STEREO_COUNT>  (1) 
0

>  <PUBCHEM_BOND_UDEF_STEREO_COUNT>  (1) 
0

>  <PUBCHEM_ISOTOPIC_ATOM_COUNT>  (1) 
0

>  <PUBCHEM_COMPONENT_COUNT>  (1) 
1

>  <PUBCHEM_CACTVS_TAUTO_COUNT>  (1) 
1

>  <PUBCHEM_CONFORMER_ID>  (1) 
0000656400000001

>  <PUBCHEM_MMFF94_ENERGY>  (1) 
25.9238

>  <PUBCHEM_FEATURE_SELFOVERLAP>  (1) 
30.648

>  <PUBCHEM_SHAPE_FINGERPRINT>  (1) 
12423570 1 13438601585677598219
12897270 3 18266740362251907133
14128692 85 18342454867555243158
16945 1 18410573942201778210
18185500 45 18337386054563583586
20653085 51 17967541193745817820
21040471 1 18056195769839212393
23552423 10 18408040727593925334
241688 4 18408039602344174888
29004967 10 17458633271958882440
369184 2 13901912163328689102
5084963 1 18186523228084172429

>  <PUBCHEM_SHAPE_MULTIPOLES>  (1) 
182.32
2.96
1.48
0.85
0
0
-0.05
0
0.65
0
0
0
0
-0.28

>  <PUBCHEM_SHAPE_SELFOVERLAP>  (1) 
372.646

>  <PUBCHEM_SHAPE_VOLUME>  (1) 
102.7

>  <PUBCHEM_COORDINATE_TYPE>  (1) 
2
5
10

$$$$
