2595
     RDKit          3D

 14 15  0  0  0  0  0  0  0  0999 V2000
   -0.9099    2.3756   -0.0031 O   0  0  0  0  0  0  0  0  0  0  0  0
    0.1004   -2.8716   -0.0020 O   0  0  0  0  0  0  0  0  0  0  0  0
   -3.0524    0.6724   -0.0095 N   0  0  0  0  0  0  0  0  0  0  0  0
    3.0745    1.1735    0.0040 N   0  0  0  0  0  0  0  0  0  0  0  0
    0.7071    0.6753   -0.0004 C   0  0  0  0  0  0  0  0  0  0  0  0
    0.9867   -0.6863   -0.0002 C   0  0  0  0  0  0  0  0  0  0  0  0
   -1.7841    0.1670   -0.0062 C   0  0  0  0  0  0  0  0  0  0  0  0
   -0.6803    1.1710   -0.0027 C   0  0  0  0  0  0  0  0  0  0  0  0
   -0.1117   -1.6654   -0.0024 C   0  0  0  0  0  0  0  0  0  0  0  0
   -1.4934   -1.1405   -0.0058 C   0  0  0  0  0  0  0  0  0  0  0  0
    2.3108   -1.1220    0.0020 C   0  0  0  0  0  0  0  0  0  0  0  0
    1.7785    1.5603    0.0018 C   0  0  0  0  0  0  0  0  0  0  0  0
    3.3066   -0.1581    0.0040 C   0  0  0  0  0  0  0  0  0  0  0  0
   -4.2326   -0.1512    0.0204 C   0  0  0  0  0  0  0  0  0  0  0  0
  1  8  2  0
  2  9  2  0
  3  7  1  0
  3 14  1  0
  4 12  2  0
  4 13  1  0
  5  6  2  0
  5  8  1  0
  5 12  1  0
  6  9  1  0
  6 11  1  0
  7  8  1  0
  7 10  2  0
  9 10  1  0
 11 13  2  0
M  END
>  <PUBCHEM_COMPOUND_CID>  (1) 
2595

>  <PUBCHEM_CONFORMER_RMSD>  (1) 
0.4

>  <PUBCHEM_CONFORMER_DIVERSEORDER>  (1) 
1
2

>  <PUBCHEM_MMFF94_PARTIAL_CHARGES>  (1) 
19
1 -0.57
10 -0.14
11 -0.15
12 0.16
13 0.16
14 0.37
15 0.15
16 0.15
17 0.15
18 0.4
19 0.15
2 -0.57
3 -0.87
4 -0.62
5 0.09
6 0.09
7 0.11
8 0.47
9 0.47

>  <PUBCHEM_EFFECTIVE_ROTOR_COUNT>  (1) 
1

>  <PUBCHEM_PHARMACOPHORE_FEATURES>  (1) 
7
1 1 acceptor
1 2 acceptor
1 3 cation
1 3 donor
1 4 acceptor
6 4 5 6 11 12 13 rings
6 5 6 7 8 9 10 rings

>  <PUBCHEM_HEAVY_ATOM_COUNT>  (1) 
14

>  <PUBCHEM_ATOM_DEF_STEREO_COUNT>  (1) 
0

>  <PUBCHEM_ATOM_UDEF_STEREO_COUNT>  (1) 
0

>  <PUBCHEM_BOND_DEF_STEREO_COUNT>  (1) 
0

>  <PUBCHEM_BOND_UDEF_STEREO_COUNT>  (1) 
0

>  <PUBCHEM_ISOTOPIC_ATOM_COUNT>  (1) 
0

>  <PUBCHEM_COMPONENT_COUNT>  (1) 
1

>  <PUBCHEM_CACTVS_TAUTO_COUNT>  (1) 
3

>  <PUBCHEM_CONFORMER_ID>  (1) 
00000A2300000001

>  <PUBCHEM_MMFF94_ENERGY>  (1) 
39.0634

>  <PUBCHEM_FEATURE_SELFOVERLAP>  (1) 
35.544

>  <PUBCHEM_SHAPE_FINGERPRINT>  (1) 
10219947 1 18409169913456535601
10967382 1 18410575093268870246
11132069 177 18343293790632204018
11471102 20 18410288082517230085
12032990 46 18409737265740970259
12382932 28 18267583683644560400
12423570 1 12027066859190205946
13140716 1 18410571833378429346
13380535 76 18412262860971773750
13897977 150 18411416254134730997
14251717 144 18411976962505549079
14325111 11 18410573993910372677
14911166 2 18411991264767614076
15775835 57 18341334465232854628
16945 1 18338797797402561550
193761 8 17834394518935945517
20510252 161 18272932683175957200
20588541 1 18341054098510641636
20645476 183 17823716337022165926
20645477 70 18340481159043792303
21501502 16 18194959871283338438
2334 1 18266458904529158787
23402539 116 18271232898080465982
23402655 69 18341603799075654109
23419403 2 15970670963590095673
23463225 33 18407758127288057001
23559900 14 18198912590628428948
2748010 2 18338521961728538055
5084963 1 18131068182448106658
528886 8 18411414037847158427
53812653 166 18270677687653012664
69090 78 18341607157038517679
7364860 26 18125722283683573046

>  <PUBCHEM_SHAPE_MULTIPOLES>  (1) 
266.41
5.19
2.25
0.59
2.51
0.53
0
-0.68
0.03
-0.26
0
-0.01
0.01
0

>  <PUBCHEM_SHAPE_SELFOVERLAP>  (1) 
582.124

>  <PUBCHEM_SHAPE_VOLUME>  (1) 
142.9

>  <PUBCHEM_COORDINATE_TYPE>  (1) 
2
5
10

$$$$
