25973
     RDKit          3D

 17 16  0  0  0  0  0  0  0  0999 V2000
    5.0221    1.6156   -0.0732 O   0  0  0  0  0  0  0  0  0  0  0  0
   -5.0584    1.6255    0.0746 O   0  0  0  0  0  0  0  0  0  0  0  0
    6.2926   -0.3224    0.0198 N   0  0  0  0  0  0  0  0  0  0  0  0
   -6.2953   -0.3340    0.0066 N   0  0  0  0  0  0  0  0  0  0  0  0
    0.0207    0.3862   -0.0059 C   0  0  0  0  0  0  0  0  0  0  0  0
    1.2884   -0.4711   -0.0052 C   0  0  0  0  0  0  0  0  0  0  0  0
   -1.2702   -0.4384   -0.0114 C   0  0  0  0  0  0  0  0  0  0  0  0
    2.5462    0.4005   -0.0105 C   0  0  0  0  0  0  0  0  0  0  0  0
   -2.5389    0.4212   -0.0353 C   0  0  0  0  0  0  0  0  0  0  0  0
    3.8148   -0.4533    0.0292 C   0  0  0  0  0  0  0  0  0  0  0  0
   -3.8156   -0.4249   -0.0466 C   0  0  0  0  0  0  0  0  0  0  0  0
    5.0861    0.3849   -0.0128 C   0  0  0  0  0  0  0  0  0  0  0  0
   -5.1004    0.3941    0.0144 C   0  0  0  0  0  0  0  0  0  0  0  0
    7.5540    0.4072   -0.0203 C   0  0  0  0  0  0  0  0  0  0  0  0
    6.4180   -1.7764    0.0911 C   0  0  0  0  0  0  0  0  0  0  0  0
   -6.3961   -1.7884   -0.0868 C   0  0  0  0  0  0  0  0  0  0  0  0
   -7.5679    0.3735    0.0721 C   0  0  0  0  0  0  0  0  0  0  0  0
  1 12  2  0
  2 13  2  0
  3 12  1  0
  3 14  1  0
  3 15  1  0
  4 13  1  0
  4 16  1  0
  4 17  1  0
  5  6  1  0
  5  7  1  0
  6  8  1  0
  7  9  1  0
  8 10  1  0
  9 11  1  0
 10 12  1  0
 11 13  1  0
M  END
>  <PUBCHEM_COMPOUND_CID>  (1) 
25973

>  <PUBCHEM_CONFORMER_RMSD>  (1) 
1.2

>  <PUBCHEM_CONFORMER_DIVERSEORDER>  (1) 
1
32
43
41
34
11
21
36
17
24
52
10
28
49
2
46
12
51
25
23
42
26
7
13
33
4
18
8
9
20
6
27
45
37
3
38
50
30
35
19
15
14
5
22
53
47
48
40
39
16
29
44
31
54

>  <PUBCHEM_MMFF94_PARTIAL_CHARGES>  (1) 
12
1 -0.57
10 0.06
11 0.06
12 0.57
13 0.57
14 0.3
15 0.3
16 0.3
17 0.3
2 -0.57
3 -0.66
4 -0.66

>  <PUBCHEM_EFFECTIVE_ROTOR_COUNT>  (1) 
10

>  <PUBCHEM_PHARMACOPHORE_FEATURES>  (1) 
2
1 1 acceptor
1 2 acceptor

>  <PUBCHEM_HEAVY_ATOM_COUNT>  (1) 
17

>  <PUBCHEM_ATOM_DEF_STEREO_COUNT>  (1) 
0

>  <PUBCHEM_ATOM_UDEF_STEREO_COUNT>  (1) 
0

>  <PUBCHEM_BOND_DEF_STEREO_COUNT>  (1) 
0

>  <PUBCHEM_BOND_UDEF_STEREO_COUNT>  (1) 
0

>  <PUBCHEM_ISOTOPIC_ATOM_COUNT>  (1) 
0

>  <PUBCHEM_COMPONENT_COUNT>  (1) 
1

>  <PUBCHEM_CACTVS_TAUTO_COUNT>  (1) 
1

>  <PUBCHEM_CONFORMER_ID>  (1) 
0000657500000001

>  <PUBCHEM_MMFF94_ENERGY>  (1) 
24.5548

>  <PUBCHEM_FEATURE_SELFOVERLAP>  (1) 
10.149

>  <PUBCHEM_SHAPE_FINGERPRINT>  (1) 
10299344 5 18410856563940245987
11315181 36 18342460353119958985
11524674 6 16630525159309118367
11719270 70 17917429796423147366
12091667 2 17458063760065501045
12166972 35 18408887360153688792
13533116 47 17095793335803239490
14123256 10 15647052663843153808
14251732 16 18410011078490574681
14251764 18 18409165519694500782
14251764 46 18410573985151464139
14933364 13 18410856563940258976
15716309 27 18413388744136389279
17834076 25 18410855464423135584
20281389 69 18410854360738314632
20621476 38 18339079290387790662
20621476 8 17967249767630361095
21315763 28 18410573985156894789
220451 1 13695587762778818784
22224240 67 16515684468274837898
23035841 295 18411417315155267947
23402539 116 18343297076382431925
23521765 1 18341895190345685349
23536379 177 18411699872352746618
23559900 14 18339073917409798201
33532 11 18335137554002843106
33684 2 18407759231500853482
4073 2 17968944218413192842
42788 4 18410573985156836333
4325135 7 18410292514997189767
59755656 520 18187078481863154243
67123 10 18410575106997790972
8209 1 18410573989446431436

>  <PUBCHEM_SHAPE_MULTIPOLES>  (1) 
328.15
25.05
1.36
0.6
0.23
0.26
0
2.06
0.23
0.01
0
0
0.02
-0.21

>  <PUBCHEM_SHAPE_SELFOVERLAP>  (1) 
609.25

>  <PUBCHEM_SHAPE_VOLUME>  (1) 
207.8

>  <PUBCHEM_COORDINATE_TYPE>  (1) 
2
5
10

$$$$
