25984
     RDKit          3D

 20 22  0  0  0  0  0  0  0  0999 V2000
    1.4559   -1.3264    1.6097 O   0  0  0  0  0  0  0  0  0  0  0  0
   -2.9024    0.1824    0.0444 N   0  0  0  0  0  0  0  0  0  0  0  0
   -1.7837   -0.5041   -0.6011 C   0  0  0  0  0  0  0  0  0  0  0  0
   -0.6571    0.4846   -0.9153 C   0  0  0  0  0  0  0  0  0  0  0  0
   -1.2835   -1.6363    0.2998 C   0  0  0  0  0  0  0  0  0  0  0  0
    1.0412   -1.4194   -0.7307 C   0  0  0  0  0  0  0  0  0  0  0  0
    0.5506   -0.2170   -1.5391 C   0  0  0  0  0  0  0  0  0  0  0  0
   -0.0924   -2.3631   -0.3260 C   0  0  0  0  0  0  0  0  0  0  0  0
   -3.9833   -0.7668    0.3457 C   0  0  0  0  0  0  0  0  0  0  0  0
   -3.3839    1.2856   -0.7988 C   0  0  0  0  0  0  0  0  0  0  0  0
   -5.1413   -0.0741    1.0659 C   0  0  0  0  0  0  0  0  0  0  0  0
   -4.5224    2.0453   -0.1162 C   0  0  0  0  0  0  0  0  0  0  0  0
   -5.6654    1.1100    0.2614 C   0  0  0  0  0  0  0  0  0  0  0  0
    1.8044   -0.9772    0.4842 C   0  0  0  0  0  0  0  0  0  0  0  0
    2.9994   -0.1037    0.3110 C   0  0  0  0  0  0  0  0  0  0  0  0
    3.7395   -0.2167   -0.8449 C   0  0  0  0  0  0  0  0  0  0  0  0
    3.3201    0.7844    1.3135 C   0  0  0  0  0  0  0  0  0  0  0  0
    4.8581    0.6007   -1.0067 C   0  0  0  0  0  0  0  0  0  0  0  0
    4.4386    1.6019    1.1516 C   0  0  0  0  0  0  0  0  0  0  0  0
    5.2076    1.5100   -0.0085 C   0  0  0  0  0  0  0  0  0  0  0  0
  1 14  2  0
  2  3  1  0
  2  9  1  0
  2 10  1  0
  3  4  1  0
  3  5  1  0
  4  7  1  0
  5  8  1  0
  6  7  1  0
  6  8  1  0
  6 14  1  0
  9 11  1  0
 10 12  1  0
 11 13  1  0
 12 13  1  0
 14 15  1  0
 15 16  2  0
 15 17  1  0
 16 18  1  0
 17 19  2  0
 18 20  2  0
 19 20  1  0
M  END
>  <PUBCHEM_COMPOUND_CID>  (1) 
25984

>  <PUBCHEM_CONFORMER_RMSD>  (1) 
0.8

>  <PUBCHEM_CONFORMER_DIVERSEORDER>  (1) 
1
42
21
29
12
46
45
44
28
41
11
47
7
38
26
13
35
27
36
4
24
43
39
22
10
19
32
34
9
2
25
8
5
23
14
20
40
37
31
16
6
15
3
17
18
33
30

>  <PUBCHEM_MMFF94_PARTIAL_CHARGES>  (1) 
18
1 -0.57
10 0.27
14 0.42
15 0.09
16 -0.15
17 -0.15
18 -0.15
19 -0.15
2 -0.81
20 -0.15
3 0.27
41 0.15
42 0.15
43 0.15
44 0.15
45 0.15
6 0.06
9 0.27

>  <PUBCHEM_EFFECTIVE_ROTOR_COUNT>  (1) 
5.4

>  <PUBCHEM_PHARMACOPHORE_FEATURES>  (1) 
5
1 1 acceptor
1 2 cation
6 15 16 17 18 19 20 rings
6 2 9 10 11 12 13 rings
6 3 4 5 6 7 8 rings

>  <PUBCHEM_HEAVY_ATOM_COUNT>  (1) 
20

>  <PUBCHEM_ATOM_DEF_STEREO_COUNT>  (1) 
0

>  <PUBCHEM_ATOM_UDEF_STEREO_COUNT>  (1) 
0

>  <PUBCHEM_BOND_DEF_STEREO_COUNT>  (1) 
0

>  <PUBCHEM_BOND_UDEF_STEREO_COUNT>  (1) 
0

>  <PUBCHEM_ISOTOPIC_ATOM_COUNT>  (1) 
0

>  <PUBCHEM_COMPONENT_COUNT>  (1) 
1

>  <PUBCHEM_CACTVS_TAUTO_COUNT>  (1) 
2

>  <PUBCHEM_CONFORMER_ID>  (1) 
0000658000000001

>  <PUBCHEM_MMFF94_ENERGY>  (1) 
40.0415

>  <PUBCHEM_FEATURE_SELFOVERLAP>  (1) 
25.373

>  <PUBCHEM_SHAPE_FINGERPRINT>  (1) 
10447042 23 8862942762816279896
10493431 412 18260547856945632326
10498660 4 18201433675119542200
10670039 82 18337963285790290404
11595378 159 17458337503357780845
12363563 72 8574429871820377422
12390115 104 18342749515618507361
12403259 118 17603581928598530069
12403259 415 18336831892313690853
12596602 18 16805606983915783769
12633257 1 16081375171489410913
12730499 353 18131079228946314646
12892183 10 17603865559864762819
12969540 114 17917422133778893717
13544653 18 12901543537694584278
13583140 156 16153972625852492007
13955234 65 18268433429828954914
1420 369 10881399816017658304
14251751 18 7853560302029206473
14341114 328 17022623091347481056
14528608 73 17989479723843646653
14787075 74 16950566622474914089
14848160 23 11097851912750139320
14848178 5 11097856285143040729
15183329 4 12535354480367445297
15209294 21 18333447651352773943
15352361 1 8646773300174171473
15788980 27 10665230358498452169
1601671 61 18335140890754257524
17980427 23 18040438823900672063
1813 80 13479137852311564431
18186145 218 17632572768857211026
18222031 100 12973605512989797578
18785283 64 18263077735076962250
193927 3 8214144100691007520
19784866 170 18334860493761265853
19784866 240 8214145183159727805
19862831 5 13326854435191480599
200 152 11314305057501957591
20374829 77 9727637198095351021
20388580 30 10519696808860056922
20403669 9 8574713511487251993
204376 136 18342736308599730287
21033648 29 18271520983054316272
21250096 35 8214147351896815708
21452121 103 18338514140878026086
21756936 100 18341602776567391230
22079108 93 18412824715829594143
221357 26 17060624369314244088
22393880 68 11599718425303418701
231179 274 18059856155717286754
23227448 37 18270676605405643429
23253445 4 14996285837893126532
23559900 14 18116727222148952767
25122255 55 10809613788699387856
2838139 119 17917702496391073840
2916195 48 18272087235784716784
293599 30 18342459261602147012
3009799 131 13110962007511074110
347723 3 13830140476932444134
350125 39 18190177897978129774
394222 165 16662650715275552901
4028521 119 18060419131540777696
427121 178 18186803556610797650
44062 13 10519691298960640189
465052 167 12684810005299422800
474 4 18131350825603388649
495365 180 17489581269355222294
5104073 3 18115594721546795697
59755656 520 18335134319644400006
633830 44 17989198239860107814
6442390 28 18409168835320108658
76465 3 8934732093196827988
7808743 9 18338513166041736752
8988823 20 13406802150508620406
960060 61 13830133910159531024

>  <PUBCHEM_SHAPE_MULTIPOLES>  (1) 
400.74
12.34
1.97
1.29
4.05
0.2
0.08
-8.1
1.74
0.29
0.11
-0.68
-0.02
0.68

>  <PUBCHEM_SHAPE_SELFOVERLAP>  (1) 
843.502

>  <PUBCHEM_SHAPE_VOLUME>  (1) 
223

>  <PUBCHEM_COORDINATE_TYPE>  (1) 
2
5
10

$$$$
