25986
     RDKit          3D

 26 28  0  0  0  0  0  0  0  0999 V2000
   -1.5557   -0.3804    2.0243 O   0  0  0  0  0  0  0  0  0  0  0  0
    3.0776   -0.6409    0.2731 N   0  0  0  0  0  0  0  0  0  0  0  0
    0.4895   -0.5185    0.9642 N   0  0  0  0  0  0  0  0  0  0  0  0
    2.5598    0.7091    0.4941 C   0  0  0  0  0  0  0  0  0  0  0  0
    4.5464   -0.6428    0.3226 C   0  0  0  0  0  0  0  0  0  0  0  0
    2.5886   -1.1761   -1.0054 C   0  0  0  0  0  0  0  0  0  0  0  0
    5.1030   -2.0559    0.1422 C   0  0  0  0  0  0  0  0  0  0  0  0
    3.0813   -2.6065   -1.2294 C   0  0  0  0  0  0  0  0  0  0  0  0
    4.6015   -2.6883   -1.1509 C   0  0  0  0  0  0  0  0  0  0  0  0
    3.0337    1.1949    1.8688 C   0  0  0  0  0  0  0  0  0  0  0  0
    3.1237    1.6177   -0.6053 C   0  0  0  0  0  0  0  0  0  0  0  0
    1.0180    0.5831    0.5103 C   0  0  0  0  0  0  0  0  0  0  0  0
    0.2178    1.7341    0.0329 C   0  0  0  0  0  0  0  0  0  0  0  0
   -0.1207    1.8085   -1.3048 C   0  0  0  0  0  0  0  0  0  0  0  0
   -0.1704    2.7023    0.9392 C   0  0  0  0  0  0  0  0  0  0  0  0
   -0.8801   -0.6415    1.0322 C   0  0  0  0  0  0  0  0  0  0  0  0
   -0.8760    2.8922   -1.7531 C   0  0  0  0  0  0  0  0  0  0  0  0
   -0.9256    3.7859    0.4908 C   0  0  0  0  0  0  0  0  0  0  0  0
   -1.4767   -1.2202   -0.2370 C   0  0  0  0  0  0  0  0  0  0  0  0
   -1.2785    3.8809   -0.8552 C   0  0  0  0  0  0  0  0  0  0  0  0
   -2.9795   -1.3084   -0.1963 C   0  0  0  0  0  0  0  0  0  0  0  0
   -3.5831   -2.4588    0.2915 C   0  0  0  0  0  0  0  0  0  0  0  0
   -3.7392   -0.2383   -0.6473 C   0  0  0  0  0  0  0  0  0  0  0  0
   -4.9750   -2.5407    0.3293 C   0  0  0  0  0  0  0  0  0  0  0  0
   -5.1311   -0.3201   -0.6095 C   0  0  0  0  0  0  0  0  0  0  0  0
   -5.7491   -1.4714   -0.1213 C   0  0  0  0  0  0  0  0  0  0  0  0
  1 16  2  0
  2  4  1  0
  2  5  1  0
  2  6  1  0
  3 12  2  0
  3 16  1  0
  4 10  1  0
  4 11  1  0
  4 12  1  0
  5  7  1  0
  6  8  1  0
  7  9  1  0
  8  9  1  0
 12 13  1  0
 13 14  2  0
 13 15  1  0
 14 17  1  0
 15 18  2  0
 16 19  1  0
 17 20  2  0
 18 20  1  0
 19 21  1  0
 21 22  2  0
 21 23  1  0
 22 24  1  0
 23 25  2  0
 24 26  2  0
 25 26  1  0
M  END
>  <PUBCHEM_COMPOUND_CID>  (1) 
25986

>  <PUBCHEM_CONFORMER_RMSD>  (1) 
0.8

>  <PUBCHEM_CONFORMER_DIVERSEORDER>  (1) 
1
45
83
75
67
91
93
81
31
40
36
87
103
55
105
98
94
59
96
24
61
58
63
43
116
32
68
7
13
23
99
34
56
5
28
80
6
90
15
9
95
16
106
101
44
52
72
117
53
102
11
115
17
85
19
62
89
108
86
60
69
33
71
92
84
29
74
3
121
65
25
10
82
35
30
119
26
12
42
111
47
100
112
77
104
88
14
110
39
21
79
113
73
38
114
4
57
78
37
27
122
22
66
70
20
41
49
50
46
118
18
109
120
48
51
64
107
76
97
54
2
8

>  <PUBCHEM_MMFF94_PARTIAL_CHARGES>  (1) 
31
1 -0.57
12 0.3
13 0.09
14 -0.15
15 -0.15
16 0.72
17 -0.15
18 -0.15
19 0.2
2 -0.81
20 -0.15
21 -0.14
22 -0.15
23 -0.15
24 -0.15
25 -0.15
26 -0.15
3 -0.66
4 0.33
43 0.15
44 0.15
45 0.15
46 0.15
49 0.15
5 0.27
50 0.15
51 0.15
52 0.15
53 0.15
54 0.15
6 0.27

>  <PUBCHEM_EFFECTIVE_ROTOR_COUNT>  (1) 
7.2

>  <PUBCHEM_PHARMACOPHORE_FEATURES>  (1) 
8
1 1 acceptor
1 2 cation
1 3 acceptor
1 3 donor
3 4 10 11 hydrophobe
6 13 14 15 17 18 20 rings
6 2 5 6 7 8 9 rings
6 21 22 23 24 25 26 rings

>  <PUBCHEM_HEAVY_ATOM_COUNT>  (1) 
26

>  <PUBCHEM_ATOM_DEF_STEREO_COUNT>  (1) 
0

>  <PUBCHEM_ATOM_UDEF_STEREO_COUNT>  (1) 
0

>  <PUBCHEM_BOND_DEF_STEREO_COUNT>  (1) 
0

>  <PUBCHEM_BOND_UDEF_STEREO_COUNT>  (1) 
0

>  <PUBCHEM_ISOTOPIC_ATOM_COUNT>  (1) 
0

>  <PUBCHEM_COMPONENT_COUNT>  (1) 
1

>  <PUBCHEM_CACTVS_TAUTO_COUNT>  (1) 
1

>  <PUBCHEM_CONFORMER_ID>  (1) 
0000658200000001

>  <PUBCHEM_MMFF94_ENERGY>  (1) 
81.6006

>  <PUBCHEM_FEATURE_SELFOVERLAP>  (1) 
40.644

>  <PUBCHEM_SHAPE_FINGERPRINT>  (1) 
10688039 33 18408887321435010886
10906281 52 17970354925880423464
1100329 8 17041195741000780447
11578080 2 17846202337747882176
116883 192 18409730634174308820
12422481 6 17914921763292089363
12617007 42 17968936521478227325
12788726 201 18261951847616528874
13004483 165 18342171172069962319
13134695 92 18270396238878934149
13681431 1 18044668717461789604
13757389 114 16389588389872162173
14866123 147 18052543162474192515
15081414 286 18335984289229565941
15420108 30 17259884742869383576
15664445 248 18193290799832499404
1601671 61 18194400215243032357
16752209 62 17968091954850831690
17357779 13 18411129208532560350
17909252 39 18412548717089056194
1813 80 18336552693601139935
20600515 1 17605258765572306384
21033650 10 17386287592978895989
21285901 2 18408600370427608934
21307412 95 17265267467047835174
21478907 32 18338517439106707563
22079108 93 9079112254663491315
22182313 1 18129359546237908552
229495 10 17631712950912301832
23419403 2 17631145568362603936
23557571 272 18335975402714857548
23559900 14 18200871902235054090
244849 19 17630016310207736072
3004659 81 18259703415321272198
3027735 51 18194402186749351683
38695281 34 17545044165796249668
437815 12 18412820283776746935
46194498 28 17897163748491855007
463206 1 18339641260250249495
57262259 84 18337391530636525085
59755656 520 17764029064804067692
621550 34 18200299044224701432
6443956 14 18338800125422392639
70251023 43 18409172086763151106
7164475 11 18336550434759793124
7399639 24 18270945947775112816
81228 2 18260835860410218520
9971528 1 18339919437081492507

>  <PUBCHEM_SHAPE_MULTIPOLES>  (1) 
519.24
10.35
4.38
1.43
4.14
3.29
-0.13
-11.52
0.89
0.62
1.08
-0.51
0.45
1.63

>  <PUBCHEM_SHAPE_SELFOVERLAP>  (1) 
1104.36

>  <PUBCHEM_SHAPE_VOLUME>  (1) 
289.2

>  <PUBCHEM_COORDINATE_TYPE>  (1) 
2
5
10

$$$$
