25997
     RDKit          3D

 15 14  0  0  0  0  0  0  0  0999 V2000
   -3.7211    0.2891    0.2330 N   0  0  0  0  0  0  0  0  0  0  0  0
    3.7102    0.2849   -0.2332 N   0  0  0  0  0  0  0  0  0  0  0  0
   -2.5312   -0.5936    0.2045 C   0  0  0  0  0  0  0  0  0  0  0  0
    2.5256   -0.6033   -0.1532 C   0  0  0  0  0  0  0  0  0  0  0  0
   -1.2550    0.2271    0.0647 C   0  0  0  0  0  0  0  0  0  0  0  0
    1.2667    0.2491   -0.0917 C   0  0  0  0  0  0  0  0  0  0  0  0
    0.0173   -0.6249    0.0386 C   0  0  0  0  0  0  0  0  0  0  0  0
   -5.0137   -0.5365    0.3090 C   0  0  0  0  0  0  0  0  0  0  0  0
    5.0037   -0.5366   -0.3302 C   0  0  0  0  0  0  0  0  0  0  0  0
   -3.6812    1.2227    1.4518 C   0  0  0  0  0  0  0  0  0  0  0  0
   -3.7868    1.1596   -1.0305 C   0  0  0  0  0  0  0  0  0  0  0  0
    3.6297    1.1934   -1.4684 C   0  0  0  0  0  0  0  0  0  0  0  0
    3.8068    1.1799    1.0106 C   0  0  0  0  0  0  0  0  0  0  0  0
   -5.0809   -1.4677   -0.8816 C   0  0  0  0  0  0  0  0  0  0  0  0
    5.1099   -1.4430    0.8767 C   0  0  0  0  0  0  0  0  0  0  0  0
  1  3  1  0
  1  8  1  0
  1 10  1  0
  1 11  1  0
  2  4  1  0
  2  9  1  0
  2 12  1  0
  2 13  1  0
  3  5  1  0
  4  6  1  0
  5  7  1  0
  6  7  1  0
  8 14  1  0
  9 15  1  0
M  CHG  2   1   1   2   1
M  END
>  <PUBCHEM_COMPOUND_CID>  (1) 
25997

>  <PUBCHEM_CONFORMER_RMSD>  (1) 
0.8

>  <PUBCHEM_CONFORMER_DIVERSEORDER>  (1) 
6
20
1
22
77
53
18
63
42
67
56
3
41
40
75
43
62
69
23
57
55
32
60
49
4
39
2
64
5
19
27
48
11
70
73
51
29
74
33
78
14
31
54
15
17
30
36
58
9
21
79
24
46
59
50
12
8
34
61
28
65
10
25
52
47
45
7
68
38
13
71
72
26
37
16
44
66
35
76

>  <PUBCHEM_MMFF94_PARTIAL_CHARGES>  (1) 
10
1 -1.01
10 0.5
11 0.5
12 0.5
13 0.5
2 -1.01
3 0.5
4 0.5
8 0.5
9 0.5

>  <PUBCHEM_EFFECTIVE_ROTOR_COUNT>  (1) 
8

>  <PUBCHEM_PHARMACOPHORE_FEATURES>  (1) 
2
1 1 cation
1 2 cation

>  <PUBCHEM_HEAVY_ATOM_COUNT>  (1) 
15

>  <PUBCHEM_ATOM_DEF_STEREO_COUNT>  (1) 
0

>  <PUBCHEM_ATOM_UDEF_STEREO_COUNT>  (1) 
0

>  <PUBCHEM_BOND_DEF_STEREO_COUNT>  (1) 
0

>  <PUBCHEM_BOND_UDEF_STEREO_COUNT>  (1) 
0

>  <PUBCHEM_ISOTOPIC_ATOM_COUNT>  (1) 
0

>  <PUBCHEM_COMPONENT_COUNT>  (1) 
1

>  <PUBCHEM_CACTVS_TAUTO_COUNT>  (1) 
1

>  <PUBCHEM_CONFORMER_ID>  (1) 
0000658D00000006

>  <PUBCHEM_MMFF94_ENERGY>  (1) 
52.4678

>  <PUBCHEM_FEATURE_SELFOVERLAP>  (1) 
10.149

>  <PUBCHEM_SHAPE_FINGERPRINT>  (1) 
10366900 7 15936407836074345381
10680689 15 17748830704851879337
10912923 1 18412833490194578840
11287383 113 17203327848694341690
12616971 3 18261402134831499625
12916748 109 17417817252825750531
13167823 11 18273211993230629055
14123238 8 18410576205823681543
14251764 18 18408600371350917754
15242439 84 15502375629588894635
15788980 27 18040435477419488717
17834072 33 18413387656998057879
17834072 8 15647051560015661114
17844677 252 17676213450510307500
1986462 14 18202567280677534149
200 152 18260828189619206837
20300324 65 18202003244276631217
20645477 70 18335140865359064950
212847 35 18411704288033054312
23402539 116 18409163299328154365
23557571 272 18334299734420656797
23559900 14 14490475304812623444
4214541 1 18201721734623697001
4990 188 17346889939751172422
5104073 3 18343585156934415946
522135 26 17603588530595934814
5374978 207 17846495941996630976
573450 72 18272087171555353891
57483677 66 18410570686627572038
7495541 125 17988640851894713411
90127 26 17022626364091702036
9971528 1 17894629271110642140

>  <PUBCHEM_SHAPE_MULTIPOLES>  (1) 
298.73
14.01
1.42
1.17
0.01
0.01
-0.01
2.45
0.01
0.03
0
0
-0.37
-1.03

>  <PUBCHEM_SHAPE_SELFOVERLAP>  (1) 
541.781

>  <PUBCHEM_SHAPE_VOLUME>  (1) 
194.7

>  <PUBCHEM_COORDINATE_TYPE>  (1) 
2
5
10

$$$$
