2599
     RDKit          3D

 14 15  0  0  0  0  0  0  0  0999 V2000
   -0.8636    2.4363    0.0021 O   0  0  0  0  0  0  0  0  0  0  0  0
   -0.0129   -2.9941    0.0016 N   0  0  0  0  0  0  0  0  0  0  0  0
    3.0975    1.1158   -0.0005 N   0  0  0  0  0  0  0  0  0  0  0  0
   -2.9840    0.7873   -0.0010 N   0  0  0  0  0  0  0  0  0  0  0  0
    0.9194   -0.7095    0.0001 C   0  0  0  0  0  0  0  0  0  0  0  0
    0.7212    0.6782    0.0002 C   0  0  0  0  0  0  0  0  0  0  0  0
   -0.2422   -1.6421    0.0004 C   0  0  0  0  0  0  0  0  0  0  0  0
   -0.6379    1.2369    0.0006 C   0  0  0  0  0  0  0  0  0  0  0  0
   -1.7942    0.2867   -0.0009 C   0  0  0  0  0  0  0  0  0  0  0  0
   -1.4971   -1.1582   -0.0004 C   0  0  0  0  0  0  0  0  0  0  0  0
    2.2496   -1.1533   -0.0006 C   0  0  0  0  0  0  0  0  0  0  0  0
    1.8171    1.5369   -0.0001 C   0  0  0  0  0  0  0  0  0  0  0  0
    3.2803   -0.2196   -0.0009 C   0  0  0  0  0  0  0  0  0  0  0  0
   -4.0530   -0.2011   -0.0007 C   0  0  0  0  0  0  0  0  0  0  0  0
  1  8  2  0
  2  7  1  0
  3 12  2  0
  3 13  1  0
  4  9  2  0
  4 14  1  0
  5  6  2  0
  5  7  1  0
  5 11  1  0
  6  8  1  0
  6 12  1  0
  7 10  2  0
  8  9  1  0
  9 10  1  0
 11 13  2  0
M  END
>  <PUBCHEM_COMPOUND_CID>  (1) 
2599

>  <PUBCHEM_CONFORMER_RMSD>  (1) 
0.4

>  <PUBCHEM_CONFORMER_DIVERSEORDER>  (1) 
1

>  <PUBCHEM_MMFF94_PARTIAL_CHARGES>  (1) 
20
1 -0.57
10 -0.14
11 -0.15
12 0.16
13 0.16
14 0.25
15 0.15
16 0.15
17 0.15
18 0.15
19 0.4
2 -0.9
20 0.4
3 -0.62
4 -0.7
5 0.03
6 0.09
7 0.07
8 0.48
9 0.44

>  <PUBCHEM_EFFECTIVE_ROTOR_COUNT>  (1) 
0

>  <PUBCHEM_PHARMACOPHORE_FEATURES>  (1) 
7
1 1 acceptor
1 2 cation
1 2 donor
1 3 acceptor
1 4 acceptor
6 3 5 6 11 12 13 rings
6 5 6 7 8 9 10 rings

>  <PUBCHEM_HEAVY_ATOM_COUNT>  (1) 
14

>  <PUBCHEM_ATOM_DEF_STEREO_COUNT>  (1) 
0

>  <PUBCHEM_ATOM_UDEF_STEREO_COUNT>  (1) 
0

>  <PUBCHEM_BOND_DEF_STEREO_COUNT>  (1) 
0

>  <PUBCHEM_BOND_UDEF_STEREO_COUNT>  (1) 
0

>  <PUBCHEM_ISOTOPIC_ATOM_COUNT>  (1) 
0

>  <PUBCHEM_COMPONENT_COUNT>  (1) 
1

>  <PUBCHEM_CACTVS_TAUTO_COUNT>  (1) 
3

>  <PUBCHEM_CONFORMER_ID>  (1) 
00000A2700000001

>  <PUBCHEM_MMFF94_ENERGY>  (1) 
47.1663

>  <PUBCHEM_FEATURE_SELFOVERLAP>  (1) 
35.55

>  <PUBCHEM_SHAPE_FINGERPRINT>  (1) 
10219947 1 18409169913472359857
10967382 1 18410855464465411558
11132069 177 18343293786326661226
11471102 20 18410288073943139237
12032990 46 18409737265719858259
12382932 28 18339641273387508048
12423570 1 11733335385508822321
13140716 1 18410572920042085011
13380535 76 18412825815325631454
13897977 150 18411697733374805901
14251717 144 18411695487544662711
14325111 11 18410573985304652801
15775835 57 18412829105011844436
16945 1 18338516313814830279
18186145 218 18341616988287217109
193761 8 17762336916350280997
20510252 161 18272651208125393512
20588541 1 18341335577798176324
20645476 183 17823997803398392486
20645477 70 18340199684056486671
21501502 16 18194959866951428390
2334 1 18266741470448661635
23402539 116 18271232893774949190
23402655 69 18341886377753484261
23419403 2 15970952438635365093
23463225 33 18408040706071369217
23559900 14 18198912582043730132
2748010 2 18338240478188266567
43471831 8 18263924345485766202
5084963 1 18059009480266405346
528886 8 18411414037836602427
53812653 166 18270959166940547368
69090 78 18341325682061813511
7364860 26 18053382102298765543

>  <PUBCHEM_SHAPE_MULTIPOLES>  (1) 
267.3
5.01
2.35
0.59
1.75
0.68
0
-0.68
0
-0.12
0
-0.01
0.01
0

>  <PUBCHEM_SHAPE_SELFOVERLAP>  (1) 
581.995

>  <PUBCHEM_SHAPE_VOLUME>  (1) 
143.9

>  <PUBCHEM_COORDINATE_TYPE>  (1) 
2
5
10

$$$$
