26
     RDKit          2D

 19 20  0  0  1  0  0  0  0  0999 V2000
    0.0000    0.0000    0.0000 O   0  0  0  0  0  0  0  0  0  0  0  0
    0.0000    0.0000    0.0000 O   0  0  0  0  0  0  0  0  0  0  0  0
    0.0000    0.0000    0.0000 O   0  0  0  0  0  0  0  0  0  0  0  0
    0.0000    0.0000    0.0000 O   0  0  0  0  0  0  0  0  0  0  0  0
    0.0000    0.0000    0.0000 O   0  0  0  0  0  0  0  0  0  0  0  0
    0.0000    0.0000    0.0000 N   0  0  0  0  0  0  0  0  0  0  0  0
    0.0000    0.0000    0.0000 N   0  0  0  0  0  0  0  0  0  0  0  0
    0.0000    0.0000    0.0000 N   0  0  0  0  0  0  0  0  0  0  0  0
    0.0000    0.0000    0.0000 N   0  0  0  0  0  0  0  0  0  0  0  0
    0.0000    0.0000    0.0000 N   0  0  0  0  0  0  0  0  0  0  0  0
    0.0000    0.0000    0.0000 C   0  0  0  0  0  0  0  0  0  0  0  0
    0.0000    0.0000    0.0000 C   0  0  0  0  0  0  0  0  0  0  0  0
    0.0000    0.0000    0.0000 C   0  0  0  0  0  0  0  0  0  0  0  0
    0.0000    0.0000    0.0000 C   0  0  0  0  0  0  0  0  0  0  0  0
    0.0000    0.0000    0.0000 C   0  0  0  0  0  0  0  0  0  0  0  0
    0.0000    0.0000    0.0000 C   0  0  0  0  0  0  0  0  0  0  0  0
    0.0000    0.0000    0.0000 C   0  0  0  0  0  0  0  0  0  0  0  0
    0.0000    0.0000    0.0000 C   0  0  0  0  0  0  0  0  0  0  0  0
    0.0000    0.0000    0.0000 C   0  0  0  0  0  0  0  0  0  0  0  0
  1  6  1  0
  2 13  1  0
  3 15  2  0
  4 17  2  0
  5 18  2  0
  6 11  1  0
  6 13  1  0
  7 12  1  0
  7 14  2  0
  8 11  1  0
  8 16  2  0
  9 15  1  0
  9 16  1  0
 10 16  1  0
 11 12  1  0
 12 15  1  0
 13 14  1  0
 14 17  1  0
 17 18  1  0
 18 19  1  0
M  END
>  <PUBCHEM_COMPOUND_CID>  (1) 
26

>  <PUBCHEM_CONFORMER_RMSD>  (1) 
0.6

>  <PUBCHEM_CONFORMER_DIVERSEORDER>  (1) 
81
96
118
199
19
201
171
8
15
128
125
77
72
150
180
95
104
85
92
137
167
141
91
164
160
10
66
159
73
123
3
78
131
186
149
79
110
174
12
18
202
153
109
194
129
76
60
170
166
169
138
182
127
173
86
148
130
65
11
181
101
70
188
178
106
98
157
74
2
32
172
112
165
126
136
97
124
191
196
89
184
90
16
62
102
183
33
144
1
193
154
29
179
203
59
152
83
67
63
177
5
200
113
100
155
145
192
185
14
6
198
25
139
99
147
4
158
187
22
161
24
140
9
119
133
35
195
190
151
20
61
162
84
93
13
7
111
135
132
39
197
116
51
17
168
121
80
142
21
163
107
122
134
189
176
146
30
58
117
75
87
175
46
88
115
56
143
36
31
52
120
42
47
50
108
37
28
103
105
68
34
64
26
55
71
54
27
23
57
43
82
156
49
69
38
40
53
45
94
48
114
41
44

>  <PUBCHEM_MMFF94_PARTIAL_CHARGES>  (1) 
24
1 -0.3
10 -0.85
11 0.52
12 0.31
13 0.61
14 0.39
15 0.57
16 0.56
17 0.57
18 0.51
19 0.06
2 -0.68
23 0.37
24 0.4
25 0.4
26 0.4
27 0.4
3 -0.57
4 -0.57
5 -0.57
6 -0.64
7 -0.7
8 -0.7
9 -0.49

>  <PUBCHEM_EFFECTIVE_ROTOR_COUNT>  (1) 
2.6

>  <PUBCHEM_PHARMACOPHORE_FEATURES>  (1) 
11
1 1 anion
1 10 donor
1 2 acceptor
1 2 donor
1 3 acceptor
1 4 acceptor
1 5 acceptor
1 7 acceptor
1 9 donor
6 6 7 11 12 13 14 rings
6 8 9 11 12 15 16 rings

>  <PUBCHEM_HEAVY_ATOM_COUNT>  (1) 
19

>  <PUBCHEM_ATOM_DEF_STEREO_COUNT>  (1) 
0

>  <PUBCHEM_ATOM_UDEF_STEREO_COUNT>  (1) 
3

>  <PUBCHEM_BOND_DEF_STEREO_COUNT>  (1) 
0

>  <PUBCHEM_BOND_UDEF_STEREO_COUNT>  (1) 
0

>  <PUBCHEM_ISOTOPIC_ATOM_COUNT>  (1) 
0

>  <PUBCHEM_COMPONENT_COUNT>  (1) 
1

>  <PUBCHEM_CACTVS_TAUTO_COUNT>  (1) 
10

$$$$
