26009
     RDKit          3D

 14 14  0  0  0  0  0  0  0  0999 V2000
    5.1206   -0.5513   -0.5074 Cl  0  0  0  0  0  0  0  0  0  0  0  0
   -1.0619    1.7515    0.5542 O   0  0  0  0  0  0  0  0  0  0  0  0
   -4.8138    0.2610   -0.3793 O   0  0  0  0  0  0  0  0  0  0  0  0
   -3.2031   -0.9381   -1.4435 O   0  0  0  0  0  0  0  0  0  0  0  0
   -1.4941   -0.5240    0.6641 N   0  0  0  0  0  0  0  0  0  0  0  0
    0.7587    0.3032    0.2606 C   0  0  0  0  0  0  0  0  0  0  0  0
   -0.6474    0.5797    0.5080 C   0  0  0  0  0  0  0  0  0  0  0  0
    1.5376    1.2252   -0.4386 C   0  0  0  0  0  0  0  0  0  0  0  0
    1.3290   -0.8828    0.7230 C   0  0  0  0  0  0  0  0  0  0  0  0
   -2.9171   -0.4135    0.8917 C   0  0  0  0  0  0  0  0  0  0  0  0
    2.8867    0.9612   -0.6755 C   0  0  0  0  0  0  0  0  0  0  0  0
    2.6781   -1.1468    0.4861 C   0  0  0  0  0  0  0  0  0  0  0  0
    3.4568   -0.2249   -0.2133 C   0  0  0  0  0  0  0  0  0  0  0  0
   -3.6301   -0.4004   -0.4299 C   0  0  0  0  0  0  0  0  0  0  0  0
  1 13  1  0
  2  7  2  0
  3 14  1  0
  4 14  2  0
  5  7  1  0
  5 10  1  0
  6  7  1  0
  6  8  2  0
  6  9  1  0
  8 11  1  0
  9 12  2  0
 10 14  1  0
 11 13  2  0
 12 13  1  0
M  END
>  <PUBCHEM_COMPOUND_CID>  (1) 
26009

>  <PUBCHEM_CONFORMER_RMSD>  (1) 
0.6

>  <PUBCHEM_CONFORMER_DIVERSEORDER>  (1) 
1
9
2
7
5
3
10
8
6
4

>  <PUBCHEM_MMFF94_PARTIAL_CHARGES>  (1) 
20
1 -0.18
10 0.36
11 -0.15
12 -0.15
13 0.18
14 0.66
17 0.37
18 0.15
19 0.15
2 -0.57
20 0.15
21 0.15
22 0.5
3 -0.65
4 -0.57
5 -0.73
6 0.09
7 0.54
8 -0.15
9 -0.15

>  <PUBCHEM_EFFECTIVE_ROTOR_COUNT>  (1) 
4

>  <PUBCHEM_PHARMACOPHORE_FEATURES>  (1) 
6
1 2 acceptor
1 3 acceptor
1 4 acceptor
1 5 donor
3 3 4 14 anion
6 6 8 9 11 12 13 rings

>  <PUBCHEM_HEAVY_ATOM_COUNT>  (1) 
14

>  <PUBCHEM_ATOM_DEF_STEREO_COUNT>  (1) 
0

>  <PUBCHEM_ATOM_UDEF_STEREO_COUNT>  (1) 
0

>  <PUBCHEM_BOND_DEF_STEREO_COUNT>  (1) 
0

>  <PUBCHEM_BOND_UDEF_STEREO_COUNT>  (1) 
0

>  <PUBCHEM_ISOTOPIC_ATOM_COUNT>  (1) 
0

>  <PUBCHEM_COMPONENT_COUNT>  (1) 
1

>  <PUBCHEM_CACTVS_TAUTO_COUNT>  (1) 
2

>  <PUBCHEM_CONFORMER_ID>  (1) 
0000659900000001

>  <PUBCHEM_MMFF94_ENERGY>  (1) 
30.0895

>  <PUBCHEM_FEATURE_SELFOVERLAP>  (1) 
30.504

>  <PUBCHEM_SHAPE_FINGERPRINT>  (1) 
11046707 91 17632859728406873455
11401426 45 18260828220032072704
11471102 20 18187086174127702756
12251169 10 11024104347796716641
12500047 106 15430323567859137338
12815109 37 18201998824106469462
12916748 109 12757151246955661183
14252887 29 11671793658692975220
14576447 43 18410289224841692486
14911166 2 18113623387023344610
14943859 89 14129058114632509737
14993402 34 18335144189510498286
17834072 8 18409724029031643973
18186145 218 17458339771200298041
18915474 69 18201717405048963934
200 152 18410855455986233808
20645477 56 15647054871883715867
20645477 70 17749106643537170418
20671657 53 18334297548108229372
21119208 17 18408042913726880830
22485316 2 17561363980462952758
23402539 116 18342458123493829428
23402655 69 18187923932968151621
23557571 272 17203333265006960904
23559900 14 18335143146197461928
25 1 17313380115155083627
2748010 2 17829065534364001512
42 15 12895075115093842691
449060 50 9799690385728948450
57096353 35 18336277794551701540
603831 33 18410288082269459658

>  <PUBCHEM_SHAPE_MULTIPOLES>  (1) 
267.39
8.94
1.27
0.98
1.72
0.27
0.16
-1.59
2.76
-0.43
-0.11
0.57
-0.1
-0.37

>  <PUBCHEM_SHAPE_SELFOVERLAP>  (1) 
545.861

>  <PUBCHEM_SHAPE_VOLUME>  (1) 
155.5

>  <PUBCHEM_COORDINATE_TYPE>  (1) 
2
5
10

$$$$
