26017
     RDKit          3D

 31 34  0  0  1  0  0  0  0  0999 V2000
   -4.2905   -1.3562    0.7382 O   0  0  0  0  0  0  0  0  0  0  0  0
    6.3299    2.4780    0.6835 O   0  0  0  0  0  0  0  0  0  0  0  0
   -3.6408   -2.1443   -1.3339 O   0  0  0  0  0  0  0  0  0  0  0  0
    0.4227    0.1839   -0.4321 N   0  0  0  0  0  0  0  0  0  0  0  0
    4.0435    0.9179    0.0200 N   0  0  0  0  0  0  0  0  0  0  0  0
   -2.5311   -0.2324   -0.3451 C   0  0  0  0  0  0  0  0  0  0  0  0
   -1.6750   -0.2971   -1.6382 C   0  0  0  0  0  0  0  0  0  0  0  0
   -1.5752   -0.5623    0.8326 C   0  0  0  0  0  0  0  0  0  0  0  0
   -0.4255    0.5851   -1.5597 C   0  0  0  0  0  0  0  0  0  0  0  0
   -0.3002    0.2918    0.8399 C   0  0  0  0  0  0  0  0  0  0  0  0
    1.6462    0.9843   -0.3979 C   0  0  0  0  0  0  0  0  0  0  0  0
    2.7811    0.2617    0.3542 C   0  0  0  0  0  0  0  0  0  0  0  0
   -3.3170    1.0818   -0.2276 C   0  0  0  0  0  0  0  0  0  0  0  0
   -3.5386   -1.3613   -0.3992 C   0  0  0  0  0  0  0  0  0  0  0  0
    2.8464   -1.2321    0.0840 C   0  0  0  0  0  0  0  0  0  0  0  0
    5.1465    0.3640    0.8176 C   0  0  0  0  0  0  0  0  0  0  0  0
    3.9489    2.3691    0.2308 C   0  0  0  0  0  0  0  0  0  0  0  0
   -3.1266    1.9121    0.8771 C   0  0  0  0  0  0  0  0  0  0  0  0
   -4.2218    1.4450   -1.2253 C   0  0  0  0  0  0  0  0  0  0  0  0
    6.4503    1.0724    0.4610 C   0  0  0  0  0  0  0  0  0  0  0  0
    5.2809    3.0298   -0.1130 C   0  0  0  0  0  0  0  0  0  0  0  0
    2.1318   -2.1185    0.8899 C   0  0  0  0  0  0  0  0  0  0  0  0
    3.6206   -1.7173   -0.9702 C   0  0  0  0  0  0  0  0  0  0  0  0
   -3.8407    3.1055    0.9838 C   0  0  0  0  0  0  0  0  0  0  0  0
   -4.9358    2.6386   -1.1185 C   0  0  0  0  0  0  0  0  0  0  0  0
   -4.7452    3.4687   -0.0140 C   0  0  0  0  0  0  0  0  0  0  0  0
   -5.2895   -2.3776    0.8195 C   0  0  0  0  0  0  0  0  0  0  0  0
    2.1914   -3.4899    0.6419 C   0  0  0  0  0  0  0  0  0  0  0  0
    3.6801   -3.0886   -1.2181 C   0  0  0  0  0  0  0  0  0  0  0  0
    2.9655   -3.9749   -0.4120 C   0  0  0  0  0  0  0  0  0  0  0  0
   -6.0324   -2.2374    2.1310 C   0  0  0  0  0  0  0  0  0  0  0  0
  1 14  1  0
  1 27  1  0
  2 20  1  0
  2 21  1  0
  3 14  2  0
  4  9  1  0
  4 10  1  0
  4 11  1  0
  5 12  1  0
  5 16  1  0
  5 17  1  0
  6  7  1  0
  6  8  1  0
  6 13  1  0
  6 14  1  0
  7  9  1  0
  8 10  1  0
 11 12  1  0
 12 15  1  0
 13 18  2  0
 13 19  1  0
 15 22  2  0
 15 23  1  0
 16 20  1  0
 17 21  1  0
 18 24  1  0
 19 25  2  0
 22 28  1  0
 23 29  2  0
 24 26  2  0
 25 26  1  0
 27 31  1  0
 28 30  2  0
 29 30  1  0
M  END
>  <PUBCHEM_COMPOUND_CID>  (1) 
26017

>  <PUBCHEM_CONFORMER_RMSD>  (1) 
1

>  <PUBCHEM_CONFORMER_DIVERSEORDER>  (1) 
1
141
122
130
106
131
94
67
127
115
89
96
100
134
78
152
62
75
59
104
76
111
121
48
132
126
142
85
147
125
39
110
46
144
49
34
143
148
63
150
25
97
149
135
86
151
20
124
72
140
112
65
79
43
145
55
37
137
114
119
30
123
57
128
146
136
58
91
54
109
80
118
139
45
93
74
129
29
13
133
69
70
21
99
24
117
18
60
53
44
38
12
51
103
33
113
82
40
47
61
81
10
120
35
32
68
14
105
83
15
19
23
31
90
71
87
36
52
7
56
28
107
101
153
98
95
16
2
66
138
77
116
3
73
41
5
108
26
64
17
6
42
50
22
8
27
9
92
102
4
84
11
88

>  <PUBCHEM_MMFF94_PARTIAL_CHARGES>  (1) 
38
1 -0.43
10 0.27
11 0.27
12 0.41
13 -0.14
14 0.66
15 -0.14
16 0.27
17 0.27
18 -0.15
19 -0.15
2 -0.56
20 0.28
21 0.28
22 -0.15
23 -0.15
24 -0.15
25 -0.15
26 -0.15
27 0.28
28 -0.15
29 -0.15
3 -0.57
30 -0.15
4 -0.81
47 0.15
48 0.15
5 -0.81
53 0.15
54 0.15
55 0.15
56 0.15
57 0.15
6 0.2
60 0.15
61 0.15
62 0.15
9 0.27

>  <PUBCHEM_EFFECTIVE_ROTOR_COUNT>  (1) 
10.4

>  <PUBCHEM_PHARMACOPHORE_FEATURES>  (1) 
8
1 2 acceptor
1 3 acceptor
1 4 cation
1 5 cation
6 13 18 19 24 25 26 rings
6 15 22 23 28 29 30 rings
6 2 5 16 17 20 21 rings
6 4 6 7 8 9 10 rings

>  <PUBCHEM_HEAVY_ATOM_COUNT>  (1) 
31

>  <PUBCHEM_ATOM_DEF_STEREO_COUNT>  (1) 
0

>  <PUBCHEM_ATOM_UDEF_STEREO_COUNT>  (1) 
1

>  <PUBCHEM_BOND_DEF_STEREO_COUNT>  (1) 
0

>  <PUBCHEM_BOND_UDEF_STEREO_COUNT>  (1) 
0

>  <PUBCHEM_ISOTOPIC_ATOM_COUNT>  (1) 
0

>  <PUBCHEM_COMPONENT_COUNT>  (1) 
1

>  <PUBCHEM_CACTVS_TAUTO_COUNT>  (1) 
1

>  <PUBCHEM_CONFORMER_ID>  (1) 
000065A100000001

>  <PUBCHEM_MMFF94_ENERGY>  (1) 
87.4673

>  <PUBCHEM_FEATURE_SELFOVERLAP>  (1) 
40.598

>  <PUBCHEM_SHAPE_FINGERPRINT>  (1) 
10050765 1 18338515244858714011
10369192 42 18337389474133369108
10906281 52 17895485769394582396
11405975 8 18339078164425461419
11421498 54 17917720119105697946
12107183 9 17766560149107804361
12160290 23 15431986957068920695
12892183 10 18410862057572566079
13583140 156 18059847381204803849
13631057 29 18128527357200461895
14347329 18 14332313803889266802
14790565 3 18339078315398682980
15357212 105 18267325173795541841
17492 89 18411141312067625827
17818456 19 17414710973542803872
17844677 252 18341900657950037519
21033648 144 18263919956419521829
21796203 349 16962416261473498051
22393880 68 18340778052631407310
23559900 14 18197775510108831138
2747138 104 18115885159566930163
32027 91 18049724018724076522
3633792 109 18192695771111034317
38695281 34 18273207613228793486
4058900 60 18408326601471702376
4073 2 18408041788455881881
463206 1 17683241361247886331
5104073 3 18261672584347502770
57724786 102 18127694829161337257

>  <PUBCHEM_SHAPE_MULTIPOLES>  (1) 
610.4
15.03
4.71
1.4
3.17
1.03
0.07
-5.56
-3.16
0.61
-0.37
-1.38
0.46
2.39

>  <PUBCHEM_SHAPE_SELFOVERLAP>  (1) 
1293.891

>  <PUBCHEM_SHAPE_VOLUME>  (1) 
338.3

>  <PUBCHEM_COORDINATE_TYPE>  (1) 
2
5
10

$$$$
