2601
     RDKit          3D

 24 25  0  0  0  0  0  0  0  0999 V2000
    6.1539    1.2038    0.1662 O   0  0  0  0  0  0  0  0  0  0  0  0
   -5.9045   -0.9579    0.2032 O   0  0  0  0  0  0  0  0  0  0  0  0
    6.0313   -3.2176   -0.2064 O   0  0  0  0  0  0  0  0  0  0  0  0
    4.8019   -1.8629   -1.5509 O   0  0  0  0  0  0  0  0  0  0  0  0
   -6.2569    1.2656   -0.2770 O   0  0  0  0  0  0  0  0  0  0  0  0
    0.6278    0.8924    0.5851 N   0  0  0  0  0  0  0  0  0  0  0  0
    0.1287    0.6082   -0.5291 N   0  0  0  0  0  0  0  0  0  0  0  0
    4.1863   -0.0992    0.5870 C   0  0  0  0  0  0  0  0  0  0  0  0
    5.0023   -1.3283    0.8165 C   0  0  0  0  0  0  0  0  0  0  0  0
    2.7973   -0.1730    0.6914 C   0  0  0  0  0  0  0  0  0  0  0  0
    4.7985    1.1138    0.2714 C   0  0  0  0  0  0  0  0  0  0  0  0
    2.0274    0.9664    0.4798 C   0  0  0  0  0  0  0  0  0  0  0  0
    4.0216    2.2528    0.0602 C   0  0  0  0  0  0  0  0  0  0  0  0
    2.6326    2.1791    0.1647 C   0  0  0  0  0  0  0  0  0  0  0  0
   -4.0419    0.3851   -0.2186 C   0  0  0  0  0  0  0  0  0  0  0  0
   -1.2638    0.5342   -0.4246 C   0  0  0  0  0  0  0  0  0  0  0  0
   -3.4300    1.5986   -0.5325 C   0  0  0  0  0  0  0  0  0  0  0  0
   -3.2647   -0.7539   -0.0076 C   0  0  0  0  0  0  0  0  0  0  0  0
   -2.0409    1.6731   -0.6357 C   0  0  0  0  0  0  0  0  0  0  0  0
   -1.8757   -0.6792   -0.1106 C   0  0  0  0  0  0  0  0  0  0  0  0
    5.2464   -2.1336   -0.4438 C   0  0  0  0  0  0  0  0  0  0  0  0
   -5.4901    0.3082   -0.1088 C   0  0  0  0  0  0  0  0  0  0  0  0
   -7.3150   -1.1621    0.3379 C   0  0  0  0  0  0  0  0  0  0  0  0
   -7.5724   -2.6137    0.6819 C   0  0  0  0  0  0  0  0  0  0  0  0
  1 11  1  0
  2 22  1  0
  2 23  1  0
  3 21  1  0
  4 21  2  0
  5 22  2  0
  6  7  2  0
  6 12  1  0
  7 16  1  0
  8  9  1  0
  8 10  2  0
  8 11  1  0
  9 21  1  0
 10 12  1  0
 11 13  2  0
 12 14  2  0
 13 14  1  0
 15 17  2  0
 15 18  1  0
 15 22  1  0
 16 19  2  0
 16 20  1  0
 17 19  1  0
 18 20  2  0
 23 24  1  0
M  END
>  <PUBCHEM_COMPOUND_CID>  (1) 
2601

>  <PUBCHEM_CONFORMER_RMSD>  (1) 
0.8

>  <PUBCHEM_CONFORMER_DIVERSEORDER>  (1) 
1
20
31
18
29
15
33
32
26
27
16
24
19
12
3
13
21
11
10
8
14
2
23
17
28
7
30
9
5
6
22
25
4

>  <PUBCHEM_MMFF94_PARTIAL_CHARGES>  (1) 
32
1 -0.53
10 -0.15
11 0.08
12 0.18
13 -0.15
14 -0.15
15 0.09
16 0.18
17 -0.15
18 -0.15
19 -0.15
2 -0.43
20 -0.15
21 0.66
22 0.63
23 0.28
27 0.15
28 0.15
29 0.15
3 -0.65
30 0.15
31 0.15
32 0.15
33 0.15
34 0.45
4 -0.57
40 0.5
5 -0.57
6 -0.18
7 -0.18
8 -0.14
9 0.2

>  <PUBCHEM_EFFECTIVE_ROTOR_COUNT>  (1) 
7

>  <PUBCHEM_PHARMACOPHORE_FEATURES>  (1) 
7
1 1 donor
1 3 acceptor
1 4 acceptor
1 5 acceptor
3 3 4 21 anion
6 15 16 17 18 19 20 rings
6 8 10 11 12 13 14 rings

>  <PUBCHEM_HEAVY_ATOM_COUNT>  (1) 
24

>  <PUBCHEM_ATOM_DEF_STEREO_COUNT>  (1) 
0

>  <PUBCHEM_ATOM_UDEF_STEREO_COUNT>  (1) 
0

>  <PUBCHEM_BOND_DEF_STEREO_COUNT>  (1) 
0

>  <PUBCHEM_BOND_UDEF_STEREO_COUNT>  (1) 
0

>  <PUBCHEM_ISOTOPIC_ATOM_COUNT>  (1) 
0

>  <PUBCHEM_COMPONENT_COUNT>  (1) 
1

>  <PUBCHEM_CACTVS_TAUTO_COUNT>  (1) 
5

>  <PUBCHEM_CONFORMER_ID>  (1) 
00000A2900000001

>  <PUBCHEM_MMFF94_ENERGY>  (1) 
58.5052

>  <PUBCHEM_FEATURE_SELFOVERLAP>  (1) 
35.58

>  <PUBCHEM_SHAPE_FINGERPRINT>  (1) 
10316853 100 18409172103753628910
11524674 6 17203610428353627415
12107183 9 17983018838620840576
12236239 1 18040149634994307645
12616971 3 17632284670872099509
13073987 5 18201718431762795848
13533116 47 18131067134687089664
13685833 64 18410293601149350218
13782708 43 18411416215949575743
13955234 65 18201146742152067208
14211702 104 18189062039721000443
14341114 176 18410575080421177448
14528608 73 11386375828689525200
15352257 5 18412547634699892463
17844677 252 18336829693370082332
1813 80 17022618671974171404
18222031 100 16515683355630628645
18335252 98 18336548316902851897
1979834 28 17203608143383494478
20645477 70 18411133607359786408
21130935 74 18342176665713091843
21267235 1 18408605880812990864
21682296 61 18408889534150205123
220451 1 17561079249938033285
2303208 19 18186523194093705625
23081809 10 17775280582482264253
23522609 53 18044686155098207157
23559900 14 18408878560018582185
23569943 247 17897439489297466243
239999 70 18409445869996447938
3004659 81 18335420124290425658
328310 630 11242249620197365895
34797466 226 17458350762153666164
3545911 37 18409444817202374848
4073 2 18041844050730942866
46194498 28 18113335319583500348
465052 167 18343584023490349590
5104073 3 18131065987915381136
9709674 26 18335983155484436698
9831232 110 18338238163232991263
9996256 80 18409447012178102387

>  <PUBCHEM_SHAPE_MULTIPOLES>  (1) 
454.6
20.51
2.71
0.85
19.17
1.39
-0.09
12.13
1.52
-2.46
-0.23
-0.5
0.21
1.93

>  <PUBCHEM_SHAPE_SELFOVERLAP>  (1) 
968.162

>  <PUBCHEM_SHAPE_VOLUME>  (1) 
252.4

>  <PUBCHEM_COORDINATE_TYPE>  (1) 
2
5
10

$$$$
