26074
     RDKit          3D

 11 11  0  0  0  0  0  0  0  0999 V2000
    3.2444    0.9624   -0.0008 S   0  0  0  0  0  0  0  0  0  0  0  0
    1.8579   -1.2710    0.0006 O   0  0  0  0  0  0  0  0  0  0  0  0
    0.6645    0.7580    0.0004 N   0  0  0  0  0  0  0  0  0  0  0  0
   -0.6759    0.3707    0.0004 C   0  0  0  0  0  0  0  0  0  0  0  0
   -1.6812    1.3378    0.0003 C   0  0  0  0  0  0  0  0  0  0  0  0
   -1.0109   -0.9834    0.0000 C   0  0  0  0  0  0  0  0  0  0  0  0
   -3.0213    0.9511   -0.0001 C   0  0  0  0  0  0  0  0  0  0  0  0
   -2.3511   -1.3702   -0.0004 C   0  0  0  0  0  0  0  0  0  0  0  0
   -3.3562   -0.4029   -0.0005 C   0  0  0  0  0  0  0  0  0  0  0  0
    1.7956   -0.0506    0.0005 C   0  0  0  0  0  0  0  0  0  0  0  0
    4.5342   -0.3019   -0.0004 C   0  0  0  0  0  0  0  0  0  0  0  0
  1 10  1  0
  1 11  1  0
  2 10  2  0
  3  4  1  0
  3 10  1  0
  4  5  2  0
  4  6  1  0
  5  7  1  0
  6  8  2  0
  7  9  2  0
  8  9  1  0
M  END
>  <PUBCHEM_COMPOUND_CID>  (1) 
26074

>  <PUBCHEM_CONFORMER_RMSD>  (1) 
0.6

>  <PUBCHEM_CONFORMER_DIVERSEORDER>  (1) 
1
12
9
10
11
8
7
3
2
5
4
6

>  <PUBCHEM_MMFF94_PARTIAL_CHARGES>  (1) 
17
1 -0.37
10 0.77
11 0.23
12 0.15
13 0.15
14 0.37
15 0.15
16 0.15
17 0.15
2 -0.57
3 -0.55
4 0.12
5 -0.15
6 -0.15
7 -0.15
8 -0.15
9 -0.15

>  <PUBCHEM_EFFECTIVE_ROTOR_COUNT>  (1) 
3

>  <PUBCHEM_PHARMACOPHORE_FEATURES>  (1) 
3
1 11 hydrophobe
1 3 donor
6 4 5 6 7 8 9 rings

>  <PUBCHEM_HEAVY_ATOM_COUNT>  (1) 
11

>  <PUBCHEM_ATOM_DEF_STEREO_COUNT>  (1) 
0

>  <PUBCHEM_ATOM_UDEF_STEREO_COUNT>  (1) 
0

>  <PUBCHEM_BOND_DEF_STEREO_COUNT>  (1) 
0

>  <PUBCHEM_BOND_UDEF_STEREO_COUNT>  (1) 
0

>  <PUBCHEM_ISOTOPIC_ATOM_COUNT>  (1) 
0

>  <PUBCHEM_COMPONENT_COUNT>  (1) 
1

>  <PUBCHEM_CACTVS_TAUTO_COUNT>  (1) 
2

>  <PUBCHEM_CONFORMER_ID>  (1) 
000065DA00000001

>  <PUBCHEM_MMFF94_ENERGY>  (1) 
24.4367

>  <PUBCHEM_FEATURE_SELFOVERLAP>  (1) 
15.223

>  <PUBCHEM_SHAPE_FINGERPRINT>  (1) 
10608611 8 18412539920753895568
11062470 55 18410292523064936620
12932764 1 17346588686212667074
13024252 1 15574713599746007193
13380535 76 18410856551245456078
14144814 61 18409165497976960840
14325111 11 18410575071778306945
15775835 57 18334577901887303809
200 152 17917983997395609525
20201158 50 18342458136057068806
20279233 1 17846503629587183550
20528008 55 18341043086109116589
20645464 45 18131638880527778695
20645477 56 18261110712848097501
20871998 184 18201443639902741343
23402539 116 18201994439757321845
23463225 33 18335419045821163086
23552423 10 18260548969663869919
23559900 14 18270960142641817806
3312278 4 18411420622148067771
369184 2 18343301461892116001
6333449 129 18412823594774545013
7364860 26 18268991977873180462

>  <PUBCHEM_SHAPE_MULTIPOLES>  (1) 
219.37
7.11
1.41
0.61
5.79
0.05
0
0.12
0
-0.5
0
0.01
-0.01
0

>  <PUBCHEM_SHAPE_SELFOVERLAP>  (1) 
434.063

>  <PUBCHEM_SHAPE_VOLUME>  (1) 
131.4

>  <PUBCHEM_COORDINATE_TYPE>  (1) 
2
5
10

$$$$
