26070
     RDKit          3D

 10 11  0  0  1  0  0  0  0  0999 V2000
    3.5193    0.8667   -0.2028 N   0  0  0  0  0  0  0  0  0  0  0  0
    1.2911   -0.1163    0.5942 C   0  0  0  0  0  0  0  0  0  0  0  0
    2.2806    0.1425   -0.4992 C   0  0  0  0  0  0  0  0  0  0  0  0
    2.0852   -1.2502    0.0241 C   0  0  0  0  0  0  0  0  0  0  0  0
   -0.1653   -0.0254    0.2933 C   0  0  0  0  0  0  0  0  0  0  0  0
   -0.7901    1.2207    0.2392 C   0  0  0  0  0  0  0  0  0  0  0  0
   -0.9047   -1.1866    0.0680 C   0  0  0  0  0  0  0  0  0  0  0  0
   -2.1541    1.3056   -0.0400 C   0  0  0  0  0  0  0  0  0  0  0  0
   -2.2687   -1.1015   -0.2114 C   0  0  0  0  0  0  0  0  0  0  0  0
   -2.8934    0.1445   -0.2654 C   0  0  0  0  0  0  0  0  0  0  0  0
  1  3  1  0
  2  3  1  0
  2  4  1  0
  2  5  1  0
  3  4  1  0
  5  6  2  0
  5  7  1  0
  6  8  1  0
  7  9  2  0
  8 10  2  0
  9 10  1  0
M  END
>  <PUBCHEM_COMPOUND_CID>  (1) 
26070

>  <PUBCHEM_CONFORMER_RMSD>  (1) 
0.4

>  <PUBCHEM_CONFORMER_DIVERSEORDER>  (1) 
1
2
3

>  <PUBCHEM_MMFF94_PARTIAL_CHARGES>  (1) 
21
1 -0.88
10 -0.15
11 0.1
12 0.1
13 0.1
14 0.1
15 0.36
16 0.36
17 0.15
18 0.15
19 0.15
2 -0.07
20 0.15
21 0.15
3 0.06
4 -0.2
5 -0.03
6 -0.15
7 -0.15
8 -0.15
9 -0.15

>  <PUBCHEM_EFFECTIVE_ROTOR_COUNT>  (1) 
1.6

>  <PUBCHEM_PHARMACOPHORE_FEATURES>  (1) 
3
1 1 cation
1 1 donor
6 5 6 7 8 9 10 rings

>  <PUBCHEM_HEAVY_ATOM_COUNT>  (1) 
10

>  <PUBCHEM_ATOM_DEF_STEREO_COUNT>  (1) 
2

>  <PUBCHEM_ATOM_UDEF_STEREO_COUNT>  (1) 
0

>  <PUBCHEM_BOND_DEF_STEREO_COUNT>  (1) 
0

>  <PUBCHEM_BOND_UDEF_STEREO_COUNT>  (1) 
0

>  <PUBCHEM_ISOTOPIC_ATOM_COUNT>  (1) 
0

>  <PUBCHEM_COMPONENT_COUNT>  (1) 
1

>  <PUBCHEM_CACTVS_TAUTO_COUNT>  (1) 
1

>  <PUBCHEM_CONFORMER_ID>  (1) 
000065D600000001

>  <PUBCHEM_MMFF94_ENERGY>  (1) 
25.5056

>  <PUBCHEM_FEATURE_SELFOVERLAP>  (1) 
15.223

>  <PUBCHEM_SHAPE_FINGERPRINT>  (1) 
12897270 3 18412828014301082924
12932764 1 17489297598916772867
13024252 1 17676490562069062531
14325111 11 18410012091765272393
14390081 3 18409167714269834168
15310529 11 18343300357684808822
15775835 57 18261679177090808964
16945 1 18341886416001812827
20201158 50 18202281402958464006
20653085 51 18192441779023011913
20871998 184 18201443635565614991
21040471 1 18196363724219745625
21293036 1 18408595981429890245
23552423 10 18263360296068170275
29004967 10 15913321377551398563
3248919 1 17916863517442056106
369184 2 9079108951828047519
5084963 1 18268424629455945171
528716 315 18338244854722790740
6333449 129 18341610446930595417
7364860 26 18341046299293559626

>  <PUBCHEM_SHAPE_MULTIPOLES>  (1) 
200.81
4.73
1.43
0.7
1.86
0.03
-0.01
-0.6
0.71
-0.31
0
0.07
0
-0.14

>  <PUBCHEM_SHAPE_SELFOVERLAP>  (1) 
419.754

>  <PUBCHEM_SHAPE_VOLUME>  (1) 
114.2

>  <PUBCHEM_COORDINATE_TYPE>  (1) 
2
5
10

$$$$
