26091
     RDKit          3D

  8  7  0  0  0  0  0  0  0  0999 V2000
    0.6257    0.4072   -0.0191 N   0  0  0  0  0  0  0  0  0  0  0  0
   -4.3164    0.2956    0.0268 N   0  0  0  0  0  0  0  0  0  0  0  0
    4.2937   -0.2527    0.0262 N   0  0  0  0  0  0  0  0  0  0  0  0
   -0.5491   -0.4558   -0.0085 C   0  0  0  0  0  0  0  0  0  0  0  0
   -1.8513    0.3501   -0.0193 C   0  0  0  0  0  0  0  0  0  0  0  0
    1.8499   -0.3815   -0.0192 C   0  0  0  0  0  0  0  0  0  0  0  0
   -3.1200   -0.5003    0.0048 C   0  0  0  0  0  0  0  0  0  0  0  0
    3.0675    0.5375    0.0083 C   0  0  0  0  0  0  0  0  0  0  0  0
  1  4  1  0
  1  6  1  0
  2  7  1  0
  3  8  1  0
  4  5  1  0
  5  7  1  0
  6  8  1  0
M  END
>  <PUBCHEM_COMPOUND_CID>  (1) 
26091

>  <PUBCHEM_CONFORMER_RMSD>  (1) 
0.6

>  <PUBCHEM_CONFORMER_DIVERSEORDER>  (1) 
1
59
32
69
13
58
19
17
71
52
27
4
67
49
72
6
20
12
60
70
54
41
62
2
43
9
34
28
44
11
7
61
45
63
57
29
14
23
22
66
65
10
5
68
31
3
42
47
64
51
24
37
56
50
55
15
16
39
40
18
30
36
21
26
8
46
25
38
53
33
48
35

>  <PUBCHEM_MMFF94_PARTIAL_CHARGES>  (1) 
12
1 -0.9
15 0.36
2 -0.99
20 0.36
21 0.36
22 0.36
23 0.36
3 -0.99
4 0.27
6 0.27
7 0.27
8 0.27

>  <PUBCHEM_EFFECTIVE_ROTOR_COUNT>  (1) 
5

>  <PUBCHEM_PHARMACOPHORE_FEATURES>  (1) 
6
1 1 cation
1 1 donor
1 2 cation
1 2 donor
1 3 cation
1 3 donor

>  <PUBCHEM_HEAVY_ATOM_COUNT>  (1) 
8

>  <PUBCHEM_ATOM_DEF_STEREO_COUNT>  (1) 
0

>  <PUBCHEM_ATOM_UDEF_STEREO_COUNT>  (1) 
0

>  <PUBCHEM_BOND_DEF_STEREO_COUNT>  (1) 
0

>  <PUBCHEM_BOND_UDEF_STEREO_COUNT>  (1) 
0

>  <PUBCHEM_ISOTOPIC_ATOM_COUNT>  (1) 
0

>  <PUBCHEM_COMPONENT_COUNT>  (1) 
1

>  <PUBCHEM_CACTVS_TAUTO_COUNT>  (1) 
1

>  <PUBCHEM_CONFORMER_ID>  (1) 
000065EB00000001

>  <PUBCHEM_MMFF94_ENERGY>  (1) 
-10.0252

>  <PUBCHEM_FEATURE_SELFOVERLAP>  (1) 
30.448

>  <PUBCHEM_SHAPE_FINGERPRINT>  (1) 
11062470 55 18411138043259195337
14325111 11 18410856568335342639
190213 19 15841556287955504895
20719005 15 18410856572767440483
5460574 1 9295291637893744815

>  <PUBCHEM_SHAPE_MULTIPOLES>  (1) 
149.69
8.1
0.76
0.58
0.1
0.01
0
-0.21
-0.11
0
0
-0.01
0.01
0

>  <PUBCHEM_SHAPE_SELFOVERLAP>  (1) 
258.214

>  <PUBCHEM_SHAPE_VOLUME>  (1) 
97.5

>  <PUBCHEM_COORDINATE_TYPE>  (1) 
2
5
10

$$$$
