2609
     RDKit          3D

 24 26  0  0  1  0  0  0  0  0999 V2000
    5.3845   -2.3896   -0.1253 Cl  0  0  0  0  0  0  0  0  0  0  0  0
    1.6353   -1.5258    1.8979 S   0  0  0  0  0  0  0  0  0  0  0  0
    2.2328    2.5941   -0.2074 O   0  0  0  0  0  0  0  0  0  0  0  0
   -2.0922    0.7928    1.8233 O   0  0  0  0  0  0  0  0  0  0  0  0
    4.5598    0.3569   -2.1610 O   0  0  0  0  0  0  0  0  0  0  0  0
    5.4298    1.2348   -0.2368 O   0  0  0  0  0  0  0  0  0  0  0  0
    2.4247    0.2629    0.0902 N   0  0  0  0  0  0  0  0  0  0  0  0
   -0.6475    1.1335    0.0420 N   0  0  0  0  0  0  0  0  0  0  0  0
   -3.7275    2.5667    0.1089 N   0  0  0  0  0  0  0  0  0  0  0  0
    1.2395   -0.4870    0.4709 C   0  0  0  0  0  0  0  0  0  0  0  0
    0.5909    0.8811    0.7747 C   0  0  0  0  0  0  0  0  0  0  0  0
    1.8581    1.4885    0.1058 C   0  0  0  0  0  0  0  0  0  0  0  0
    3.6272   -0.3133   -0.1674 C   0  0  0  0  0  0  0  0  0  0  0  0
    2.9257   -2.4636    1.0038 C   0  0  0  0  0  0  0  0  0  0  0  0
    3.8764   -1.5855    0.2119 C   0  0  0  0  0  0  0  0  0  0  0  0
   -1.9089    1.0670    0.6384 C   0  0  0  0  0  0  0  0  0  0  0  0
   -3.0453    1.3489   -0.3385 C   0  0  0  0  0  0  0  0  0  0  0  0
    4.6454    0.5196   -0.8263 C   0  0  0  0  0  0  0  0  0  0  0  0
   -3.9832    0.1634   -0.4324 C   0  0  0  0  0  0  0  0  0  0  0  0
   -3.7373   -0.8179   -1.3761 C   0  0  0  0  0  0  0  0  0  0  0  0
   -5.0640    0.0887    0.4281 C   0  0  0  0  0  0  0  0  0  0  0  0
   -4.6008   -1.9099   -1.4625 C   0  0  0  0  0  0  0  0  0  0  0  0
   -5.9275   -1.0035    0.3416 C   0  0  0  0  0  0  0  0  0  0  0  0
   -5.6958   -2.0027   -0.6037 C   0  0  0  0  0  0  0  0  0  0  0  0
  1 15  1  0
  2 10  1  0
  2 14  1  0
  3 12  2  0
  4 16  2  0
  5 18  1  0
  6 18  2  0
  7 10  1  0
  7 12  1  0
  7 13  1  0
  8 11  1  0
  8 16  1  0
  9 17  1  0
 10 11  1  0
 11 12  1  0
 13 15  2  0
 13 18  1  0
 14 15  1  0
 16 17  1  0
 17 19  1  0
 19 20  2  0
 19 21  1  0
 20 22  1  0
 21 23  2  0
 22 24  2  0
 23 24  1  0
M  END
>  <PUBCHEM_COMPOUND_CID>  (1) 
2609

>  <PUBCHEM_CONFORMER_RMSD>  (1) 
0.8

>  <PUBCHEM_CONFORMER_DIVERSEORDER>  (1) 
1
36
43
60
22
71
47
64
28
39
38
19
79
41
26
45
67
2
33
77
61
75
52
82
78
51
85
53
10
62
66
25
81
5
12
34
74
63
76
50
58
6
49
72
84
83
80
46
21
32
70
40
69
3
57
59
44
24
37
68
55
56
9
7
11
31
8
73
65
17
13
48
16
4
15
20
42
54
30
27
14
35
18
29
23

>  <PUBCHEM_MMFF94_PARTIAL_CHARGES>  (1) 
32
1 -0.14
10 0.44
11 0.28
12 0.58
13 0.12
14 0.37
16 0.57
17 0.47
18 0.71
19 -0.14
2 -0.45
20 -0.15
21 -0.15
22 -0.15
23 -0.15
24 -0.15
27 0.37
3 -0.57
31 0.36
32 0.36
33 0.15
34 0.15
35 0.5
36 0.15
37 0.15
38 0.15
4 -0.57
5 -0.65
6 -0.57
7 -0.39
8 -0.65
9 -0.99

>  <PUBCHEM_EFFECTIVE_ROTOR_COUNT>  (1) 
5.6

>  <PUBCHEM_PHARMACOPHORE_FEATURES>  (1) 
11
1 3 acceptor
1 4 acceptor
1 5 acceptor
1 6 acceptor
1 8 donor
1 9 cation
1 9 donor
3 5 6 18 anion
4 7 10 11 12 rings
6 19 20 21 22 23 24 rings
6 2 7 10 13 14 15 rings

>  <PUBCHEM_HEAVY_ATOM_COUNT>  (1) 
24

>  <PUBCHEM_ATOM_DEF_STEREO_COUNT>  (1) 
0

>  <PUBCHEM_ATOM_UDEF_STEREO_COUNT>  (1) 
3

>  <PUBCHEM_BOND_DEF_STEREO_COUNT>  (1) 
0

>  <PUBCHEM_BOND_UDEF_STEREO_COUNT>  (1) 
0

>  <PUBCHEM_ISOTOPIC_ATOM_COUNT>  (1) 
0

>  <PUBCHEM_COMPONENT_COUNT>  (1) 
1

>  <PUBCHEM_CACTVS_TAUTO_COUNT>  (1) 
2

>  <PUBCHEM_CONFORMER_ID>  (1) 
00000A3100000001

>  <PUBCHEM_MMFF94_ENERGY>  (1) 
66.9961

>  <PUBCHEM_FEATURE_SELFOVERLAP>  (1) 
56.135

>  <PUBCHEM_SHAPE_FINGERPRINT>  (1) 
10595046 47 18410294726483860628
10928967 22 17988067989748298807
11089746 13 12468632867482165124
11796584 16 18057884645511510502
12236239 1 18342460326601179193
12553582 1 18272356608287268807
12616971 3 18262802847983276922
12633257 1 16630245930831930695
12788726 201 18130794421675908305
13167823 11 18411134710649416785
14251751 18 18059566975516818035
14251757 5 18271806882016646871
14576447 43 18410853278490607704
14767858 380 18261120711684592884
14950920 106 13182738216846070927
15188451 53 14764052537584245461
15250474 111 18411407402571657007
15461852 350 13984669186742210050
15527383 91 12103852262806280664
15537594 2 18412265051853494107
17834072 33 18410856546976485784
17857418 61 18341890805632534087
200 152 18410857672500764129
20028762 73 18338511916613325698
20645477 70 18041280972329532954
20715895 44 9006242139235011927
21054139 6 18408600396677616214
22393880 68 18188200992591640829
22950370 63 18343301470450467019
235170 7 16732973215994365207
23522609 53 18125472832431914689
23559900 14 18272076232706648409
23596394 208 17385719175542779746
239999 70 17988925617407346092
2838139 119 12901817350940437847
351380 3 18272086110999345807
4015057 19 17821738229768027216
44062 13 18339636721044135437
46194498 28 17168426072779591053
5104073 3 17846494811845414496
6328613 192 9871459963819172970
633830 44 17386576738704238168
6913067 236 17604137199488003356
7495541 125 17704065201323503146
7970288 3 18272362092681769383
9981440 41 11025788779064658557

>  <PUBCHEM_SHAPE_MULTIPOLES>  (1) 
461.21
14.59
2.63
1.4
5.98
0.17
-0.03
6.06
-4.23
-0.6
0.07
-0.22
0.36
-1.84

>  <PUBCHEM_SHAPE_SELFOVERLAP>  (1) 
967.517

>  <PUBCHEM_SHAPE_VOLUME>  (1) 
262.4

>  <PUBCHEM_COORDINATE_TYPE>  (1) 
2
5
10

$$$$
