26095
     RDKit          3D

  8  8  0  0  0  0  0  0  0  0999 V2000
    2.4127   -1.2642   -0.0001 Br  0  0  0  0  0  0  0  0  0  0  0  0
    1.4630    1.7652    0.0002 N   0  0  0  0  0  0  0  0  0  0  0  0
   -1.7119   -0.9949    0.0000 N   0  0  0  0  0  0  0  0  0  0  0  0
    0.4126    0.8215   -0.0001 C   0  0  0  0  0  0  0  0  0  0  0  0
    0.6636   -0.5460   -0.0001 C   0  0  0  0  0  0  0  0  0  0  0  0
   -0.8995    1.2819    0.0000 C   0  0  0  0  0  0  0  0  0  0  0  0
   -0.4238   -1.4048    0.0002 C   0  0  0  0  0  0  0  0  0  0  0  0
   -1.9168    0.3414   -0.0001 C   0  0  0  0  0  0  0  0  0  0  0  0
  1  5  1  0
  2  4  1  0
  3  7  2  0
  3  8  1  0
  4  5  2  0
  4  6  1  0
  5  7  1  0
  6  8  2  0
M  END
>  <PUBCHEM_COMPOUND_CID>  (1) 
26095

>  <PUBCHEM_CONFORMER_RMSD>  (1) 
0.4

>  <PUBCHEM_CONFORMER_DIVERSEORDER>  (1) 
1

>  <PUBCHEM_MMFF94_PARTIAL_CHARGES>  (1) 
13
1 -0.11
10 0.15
11 0.15
12 0.4
13 0.4
2 -0.9
3 -0.62
4 0.1
5 0.11
6 -0.15
7 0.16
8 0.16
9 0.15

>  <PUBCHEM_EFFECTIVE_ROTOR_COUNT>  (1) 
0

>  <PUBCHEM_PHARMACOPHORE_FEATURES>  (1) 
5
1 1 hydrophobe
1 2 cation
1 2 donor
1 3 acceptor
6 3 4 5 6 7 8 rings

>  <PUBCHEM_HEAVY_ATOM_COUNT>  (1) 
8

>  <PUBCHEM_ATOM_DEF_STEREO_COUNT>  (1) 
0

>  <PUBCHEM_ATOM_UDEF_STEREO_COUNT>  (1) 
0

>  <PUBCHEM_BOND_DEF_STEREO_COUNT>  (1) 
0

>  <PUBCHEM_BOND_UDEF_STEREO_COUNT>  (1) 
0

>  <PUBCHEM_ISOTOPIC_ATOM_COUNT>  (1) 
0

>  <PUBCHEM_COMPONENT_COUNT>  (1) 
1

>  <PUBCHEM_CACTVS_TAUTO_COUNT>  (1) 
2

>  <PUBCHEM_CONFORMER_ID>  (1) 
000065EF00000001

>  <PUBCHEM_MMFF94_ENERGY>  (1) 
28.5845

>  <PUBCHEM_FEATURE_SELFOVERLAP>  (1) 
25.371

>  <PUBCHEM_SHAPE_FINGERPRINT>  (1) 
16714656 1 18122628249568028158
18185500 45 18192149295913343610
21040471 1 18194682798405538949
23552423 10 18261678185201082102
2748010 2 18337669814636910647
29004967 10 18268714917753253810

>  <PUBCHEM_SHAPE_MULTIPOLES>  (1) 
160.62
2.8
1.81
0.61
1.24
0.49
0
-0.63
0
0.08
0
0.05
-0.02
0

>  <PUBCHEM_SHAPE_SELFOVERLAP>  (1) 
317.796

>  <PUBCHEM_SHAPE_VOLUME>  (1) 
98

>  <PUBCHEM_COORDINATE_TYPE>  (1) 
2
5
10

$$$$
