26109
     RDKit          3D

 19 20  0  0  0  0  0  0  0  0999 V2000
   -0.0340    0.2699    2.3868 O   0  0  0  0  0  0  0  0  0  0  0  0
   -0.0845    0.3199   -2.4063 O   0  0  0  0  0  0  0  0  0  0  0  0
    2.7080    3.0490   -0.0101 O   0  0  0  0  0  0  0  0  0  0  0  0
    1.3481    1.6186    1.1609 N   0  0  0  0  0  0  0  0  0  0  0  0
    1.3256    1.6410   -1.1820 N   0  0  0  0  0  0  0  0  0  0  0  0
   -0.0420   -0.0575   -0.0137 C   0  0  0  0  0  0  0  0  0  0  0  0
    0.5788   -1.4453   -0.0343 C   0  0  0  0  0  0  0  0  0  0  0  0
    2.1055   -1.3764   -0.0106 C   0  0  0  0  0  0  0  0  0  0  0  0
   -1.5384   -0.1974    0.0005 C   0  0  0  0  0  0  0  0  0  0  0  0
    0.4013    0.6180    1.2871 C   0  0  0  0  0  0  0  0  0  0  0  0
    0.3746    0.6447   -1.3093 C   0  0  0  0  0  0  0  0  0  0  0  0
    2.7249   -2.7736    0.0028 C   0  0  0  0  0  0  0  0  0  0  0  0
   -2.3326    0.9385    0.0952 C   0  0  0  0  0  0  0  0  0  0  0  0
   -2.1102   -1.4608   -0.0819 C   0  0  0  0  0  0  0  0  0  0  0  0
    1.8569    2.1577   -0.0105 C   0  0  0  0  0  0  0  0  0  0  0  0
    4.2428   -2.7096    0.0604 C   0  0  0  0  0  0  0  0  0  0  0  0
   -3.7213    0.8089    0.1082 C   0  0  0  0  0  0  0  0  0  0  0  0
   -3.4990   -1.5904   -0.0691 C   0  0  0  0  0  0  0  0  0  0  0  0
   -4.3045   -0.4554    0.0259 C   0  0  0  0  0  0  0  0  0  0  0  0
  1 10  2  0
  2 11  2  0
  3 15  2  0
  4 10  1  0
  4 15  1  0
  5 11  1  0
  5 15  1  0
  6  7  1  0
  6  9  1  0
  6 10  1  0
  6 11  1  0
  7  8  1  0
  8 12  1  0
  9 13  2  0
  9 14  1  0
 12 16  1  0
 13 17  1  0
 14 18  2  0
 17 19  2  0
 18 19  1  0
M  END
>  <PUBCHEM_COMPOUND_CID>  (1) 
26109

>  <PUBCHEM_CONFORMER_RMSD>  (1) 
0.6

>  <PUBCHEM_CONFORMER_DIVERSEORDER>  (1) 
1
2
3
5
4

>  <PUBCHEM_MMFF94_PARTIAL_CHARGES>  (1) 
22
1 -0.57
10 0.57
11 0.57
13 -0.15
14 -0.15
15 0.69
17 -0.15
18 -0.15
19 -0.15
2 -0.57
26 0.37
27 0.37
28 0.15
29 0.15
3 -0.57
33 0.15
34 0.15
35 0.15
4 -0.49
5 -0.49
6 0.27
9 -0.14

>  <PUBCHEM_EFFECTIVE_ROTOR_COUNT>  (1) 
4.6

>  <PUBCHEM_PHARMACOPHORE_FEATURES>  (1) 
8
1 1 acceptor
1 16 hydrophobe
1 2 acceptor
1 3 acceptor
1 4 donor
1 5 donor
6 4 5 6 10 11 15 rings
6 9 13 14 17 18 19 rings

>  <PUBCHEM_HEAVY_ATOM_COUNT>  (1) 
19

>  <PUBCHEM_ATOM_DEF_STEREO_COUNT>  (1) 
0

>  <PUBCHEM_ATOM_UDEF_STEREO_COUNT>  (1) 
0

>  <PUBCHEM_BOND_DEF_STEREO_COUNT>  (1) 
0

>  <PUBCHEM_BOND_UDEF_STEREO_COUNT>  (1) 
0

>  <PUBCHEM_ISOTOPIC_ATOM_COUNT>  (1) 
0

>  <PUBCHEM_COMPONENT_COUNT>  (1) 
1

>  <PUBCHEM_CACTVS_TAUTO_COUNT>  (1) 
5

>  <PUBCHEM_CONFORMER_ID>  (1) 
000065FD00000001

>  <PUBCHEM_MMFF94_ENERGY>  (1) 
54.079

>  <PUBCHEM_FEATURE_SELFOVERLAP>  (1) 
40.638

>  <PUBCHEM_SHAPE_FINGERPRINT>  (1) 
10863032 1 18340208595580810565
11045515 52 18043818567972930286
11578080 2 17750222630585459372
12592029 89 18338238296882833744
12969540 37 18335415798489121710
13004483 165 17905883682700815594
13132413 78 18054792775869877609
13134695 92 17559936763047004009
13140716 1 18410584968163808947
14181834 199 18338529585437855102
15238133 3 17131005170081884065
16945 1 18268432330532766831
17804303 29 18337956675777306783
17980427 23 17345470375545172801
1813 80 18114456752381073594
20600515 1 17986116197272589270
212916 134 17840010073213178192
21296965 67 18266740169231891482
21339142 36 18046338626953998326
21452121 71 18336841783628829918
21501502 16 18272934946960825195
23366157 5 18187082892640917230
23419403 2 17769906053428299432
23557571 272 18051135787897166254
23559900 14 18340477902793949971
305870 269 18266461086319739349
350125 39 18338524028430714241
7364860 26 18411419539663269711
81228 2 17553502283446345074
84936 31 18270949237366483950
9981440 41 17976540838116383080

>  <PUBCHEM_SHAPE_MULTIPOLES>  (1) 
363.44
6.19
2.93
1.37
2.03
0.48
0.03
-3.88
-0.15
-3.68
0.02
-0.2
0.51
-0.11

>  <PUBCHEM_SHAPE_SELFOVERLAP>  (1) 
773.948

>  <PUBCHEM_SHAPE_VOLUME>  (1) 
200.3

>  <PUBCHEM_COORDINATE_TYPE>  (1) 
2
5
10

$$$$
