26103
     RDKit          3D

 12 13  0  0  0  0  0  0  0  0999 V2000
    4.0123    0.2960    0.0002 Cl  0  0  0  0  0  0  0  0  0  0  0  0
   -0.8336   -2.6541    0.0009 O   0  0  0  0  0  0  0  0  0  0  0  0
   -3.2427    1.3139    0.0003 O   0  0  0  0  0  0  0  0  0  0  0  0
    1.6389   -0.8935   -0.0002 N   0  0  0  0  0  0  0  0  0  0  0  0
   -0.9398    1.4526    0.0002 N   0  0  0  0  0  0  0  0  0  0  0  0
   -2.0321   -0.6634   -0.0005 N   0  0  0  0  0  0  0  0  0  0  0  0
    1.5063    1.3382    0.0001 N   0  0  0  0  0  0  0  0  0  0  0  0
    0.3087   -0.5903   -0.0005 C   0  0  0  0  0  0  0  0  0  0  0  0
    0.2621    0.7801   -0.0002 C   0  0  0  0  0  0  0  0  0  0  0  0
   -0.8513   -1.4272   -0.0005 C   0  0  0  0  0  0  0  0  0  0  0  0
   -2.1476    0.7479    0.0001 C   0  0  0  0  0  0  0  0  0  0  0  0
    2.3189    0.2998    0.0001 C   0  0  0  0  0  0  0  0  0  0  0  0
  1 12  1  0
  2 10  2  0
  3 11  2  0
  4  8  1  0
  4 12  1  0
  5  9  1  0
  5 11  1  0
  6 10  1  0
  6 11  1  0
  7  9  1  0
  7 12  2  0
  8  9  2  0
  8 10  1  0
M  END
>  <PUBCHEM_COMPOUND_CID>  (1) 
26103

>  <PUBCHEM_CONFORMER_RMSD>  (1) 
0.4

>  <PUBCHEM_CONFORMER_DIVERSEORDER>  (1) 
1

>  <PUBCHEM_MMFF94_PARTIAL_CHARGES>  (1) 
15
1 -0.12
10 0.71
11 0.69
12 0.31
13 0.27
14 0.37
15 0.37
2 -0.57
3 -0.57
4 0.03
5 -0.49
6 -0.49
7 -0.57
8 -0.24
9 0.29

>  <PUBCHEM_EFFECTIVE_ROTOR_COUNT>  (1) 
0

>  <PUBCHEM_PHARMACOPHORE_FEATURES>  (1) 
8
1 2 acceptor
1 3 acceptor
1 4 donor
1 5 donor
1 6 donor
3 4 7 12 cation
5 4 7 8 9 12 rings
6 5 6 8 9 10 11 rings

>  <PUBCHEM_HEAVY_ATOM_COUNT>  (1) 
12

>  <PUBCHEM_ATOM_DEF_STEREO_COUNT>  (1) 
0

>  <PUBCHEM_ATOM_UDEF_STEREO_COUNT>  (1) 
0

>  <PUBCHEM_BOND_DEF_STEREO_COUNT>  (1) 
0

>  <PUBCHEM_BOND_UDEF_STEREO_COUNT>  (1) 
0

>  <PUBCHEM_ISOTOPIC_ATOM_COUNT>  (1) 
0

>  <PUBCHEM_COMPONENT_COUNT>  (1) 
1

>  <PUBCHEM_CACTVS_TAUTO_COUNT>  (1) 
15

>  <PUBCHEM_CONFORMER_ID>  (1) 
000065F700000001

>  <PUBCHEM_MMFF94_ENERGY>  (1) 
17.6003

>  <PUBCHEM_FEATURE_SELFOVERLAP>  (1) 
40.747

>  <PUBCHEM_SHAPE_FINGERPRINT>  (1) 
12716758 59 18340764939874400914
13024252 1 14779541301005723317
13380535 76 18341611495113813750
14325111 11 18410856529612175616
15775835 57 18333733481183690688
16945 1 18410855511820763142
193761 8 17978228592870612709
20645476 183 17895778251945094470
20871998 184 18128542745783576758
21040471 1 18410856568261411649
21501502 16 18193557989715918620
23235685 24 18340481184043442900
23402539 116 18271232924235515151
23402655 69 18196920103475169325
23552423 10 17972035001185116404
23559900 14 18343305873572836332
241688 4 16393242487990798803
2748010 2 18265903466473388943
366044 4 18410011005354811425
528886 8 18410851032101444721
53812653 166 18342452630167503928
6333449 129 18412542141167136780

>  <PUBCHEM_SHAPE_MULTIPOLES>  (1) 
217.16
4.73
1.89
0.57
2.91
0.97
0
-1.48
0
-1.1
0
0.05
0
0

>  <PUBCHEM_SHAPE_SELFOVERLAP>  (1) 
467.411

>  <PUBCHEM_SHAPE_VOLUME>  (1) 
120.5

>  <PUBCHEM_COORDINATE_TYPE>  (1) 
2
5
10

$$$$
