26119
     RDKit          3D

 18 18  0  0  0  0  0  0  0  0999 V2000
   -1.6200    0.5565    1.2585 S   0  0  0  0  0  0  0  0  0  0  0  0
   -3.6758   -1.4348    2.0614 S   0  0  0  0  0  0  0  0  0  0  0  0
    1.6747   -1.7817   -1.0661 O   0  0  0  0  0  0  0  0  0  0  0  0
   -3.9644    0.2725   -0.0860 N   0  0  0  0  0  0  0  0  0  0  0  0
    0.8204   -0.1245    0.3173 N   0  0  0  0  0  0  0  0  0  0  0  0
   -5.2909   -0.2594   -0.4059 C   0  0  0  0  0  0  0  0  0  0  0  0
   -3.5311    1.3490   -0.9818 C   0  0  0  0  0  0  0  0  0  0  0  0
   -3.2023   -0.2104    0.9965 C   0  0  0  0  0  0  0  0  0  0  0  0
   -5.2069   -1.3978   -1.4016 C   0  0  0  0  0  0  0  0  0  0  0  0
   -4.0044    2.7022   -0.4928 C   0  0  0  0  0  0  0  0  0  0  0  0
   -0.5732   -0.5109    0.2313 C   0  0  0  0  0  0  0  0  0  0  0  0
    3.1975   -0.2420   -0.1733 C   0  0  0  0  0  0  0  0  0  0  0  0
    1.8332   -0.8002   -0.3454 C   0  0  0  0  0  0  0  0  0  0  0  0
    4.2834   -1.0862   -0.2867 C   0  0  0  0  0  0  0  0  0  0  0  0
    3.3387    1.1043    0.0950 C   0  0  0  0  0  0  0  0  0  0  0  0
    5.5657   -0.5616   -0.1246 C   0  0  0  0  0  0  0  0  0  0  0  0
    4.6210    1.6290    0.2569 C   0  0  0  0  0  0  0  0  0  0  0  0
    5.7345    0.7961    0.1471 C   0  0  0  0  0  0  0  0  0  0  0  0
  1  8  1  0
  1 11  1  0
  2  8  2  0
  3 13  2  0
  4  6  1  0
  4  7  1  0
  4  8  1  0
  5 11  1  0
  5 13  1  0
  6  9  1  0
  7 10  1  0
 12 13  1  0
 12 14  2  0
 12 15  1  0
 14 16  1  0
 15 17  2  0
 16 18  2  0
 17 18  1  0
M  END
>  <PUBCHEM_COMPOUND_CID>  (1) 
26119

>  <PUBCHEM_CONFORMER_RMSD>  (1) 
0.8

>  <PUBCHEM_CONFORMER_DIVERSEORDER>  (1) 
2
70
51
97
24
30
79
122
38
99
95
32
45
90
16
108
118
104
120
37
91
50
132
76
86
57
49
5
55
9
93
115
106
127
110
68
129
94
59
1
65
21
33
96
102
72
56
23
58
83
84
27
89
44
123
112
100
133
11
14
7
69
47
128
35
113
8
43
131
48
81
19
20
71
67
78
125
114
66
126
29
22
119
124
87
82
28
54
63
4
6
46
107
77
3
39
92
74
121
25
41
31
61
103
34
130
42
134
26
62
111
88
75
73
52
85
109
10
60
101
40
117
116
36
18
17
64
53
12
13
80
98
15
105

>  <PUBCHEM_MMFF94_PARTIAL_CHARGES>  (1) 
22
1 -0.37
11 0.53
12 0.09
13 0.54
14 -0.15
15 -0.15
16 -0.15
17 -0.15
18 -0.15
2 -0.38
3 -0.57
31 0.37
32 0.15
33 0.15
34 0.15
35 0.15
36 0.15
4 -0.66
5 -0.73
6 0.3
7 0.3
8 0.58

>  <PUBCHEM_EFFECTIVE_ROTOR_COUNT>  (1) 
8

>  <PUBCHEM_PHARMACOPHORE_FEATURES>  (1) 
4
1 2 acceptor
1 3 acceptor
1 5 donor
6 12 14 15 16 17 18 rings

>  <PUBCHEM_HEAVY_ATOM_COUNT>  (1) 
18

>  <PUBCHEM_ATOM_DEF_STEREO_COUNT>  (1) 
0

>  <PUBCHEM_ATOM_UDEF_STEREO_COUNT>  (1) 
0

>  <PUBCHEM_BOND_DEF_STEREO_COUNT>  (1) 
0

>  <PUBCHEM_BOND_UDEF_STEREO_COUNT>  (1) 
0

>  <PUBCHEM_ISOTOPIC_ATOM_COUNT>  (1) 
0

>  <PUBCHEM_COMPONENT_COUNT>  (1) 
1

>  <PUBCHEM_CACTVS_TAUTO_COUNT>  (1) 
2

>  <PUBCHEM_CONFORMER_ID>  (1) 
0000660700000002

>  <PUBCHEM_MMFF94_ENERGY>  (1) 
41.1836

>  <PUBCHEM_FEATURE_SELFOVERLAP>  (1) 
20.297

>  <PUBCHEM_SHAPE_FINGERPRINT>  (1) 
10912923 1 17274831246191418138
11089746 13 18186795873119760538
11128504 68 16056878061397683304
11315181 36 17167868577508526780
12166972 35 18413389860638488824
12236239 1 17060342920117399088
12616971 3 17417827118529205698
13583140 156 18261115192198125162
13631057 29 17631724002227398551
14251757 5 17273684558664293863
14251758 9 14057272052658750906
14251764 18 11530482212514908575
14251764 38 18186806897721405452
14573314 32 17967816028993031026
15537594 2 13830133888558120501
17834072 33 17988922296928004566
17844677 252 18412831274223848452
19489759 90 17603585235749389985
200 152 17917991659390490137
20645477 56 17968384433887435649
20645477 70 18202005383107521950
21033648 29 18411691097787867464
21054139 6 17703783747510990430
21315763 129 18409726249144919132
21709351 56 18413389813261525340
23402539 116 18261108556320288460
23557571 272 18261118443556848701
23559900 14 17894912970294934016
300161 21 14707207742761153650
351380 180 18187081762742888532
4325135 7 18202562904031928895
441001 317 18113899342935593897
497634 4 17418097633261098961
5283173 99 18262514793254377161
531348 171 18340201874115481919
7495541 125 17131828811122048674
90127 26 18408891715492308074

>  <PUBCHEM_SHAPE_MULTIPOLES>  (1) 
362.3
15.16
1.94
1.32
6.09
0.96
0.3
1.09
-2.01
-1.56
-0.16
-1.96
-0.55
1.16

>  <PUBCHEM_SHAPE_SELFOVERLAP>  (1) 
700.721

>  <PUBCHEM_SHAPE_VOLUME>  (1) 
222.9

>  <PUBCHEM_COORDINATE_TYPE>  (1) 
2
5
10

$$$$
