26115
     RDKit          3D

 22 23  0  0  1  0  0  0  0  0999 V2000
   -2.1092    3.3880    1.4739 S   0  0  0  0  0  0  0  0  0  0  0  0
    1.9042    1.5274   -2.7035 O   0  0  0  0  0  0  0  0  0  0  0  0
   -2.6171   -1.1750    1.1640 O   0  0  0  0  0  0  0  0  0  0  0  0
    2.0453   -0.6807    2.3128 N   0  0  0  0  0  0  0  0  0  0  0  0
   -1.4136   -2.0169   -0.6328 N   0  0  0  0  0  0  0  0  0  0  0  0
   -3.8564   -0.4074   -1.6818 N   0  0  0  0  0  0  0  0  0  0  0  0
    1.2405   -1.9946    0.7479 C   0  0  0  0  0  0  0  0  0  0  0  0
    0.6518   -3.1907    0.0568 C   0  0  0  0  0  0  0  0  0  0  0  0
    1.5835   -0.7755    0.1322 C   0  0  0  0  0  0  0  0  0  0  0  0
   -0.8756   -3.1824    0.0314 C   0  0  0  0  0  0  0  0  0  0  0  0
    2.0918    0.0434    1.1428 C   0  0  0  0  0  0  0  0  0  0  0  0
   -2.6707    0.0255   -0.9451 C   0  0  0  0  0  0  0  0  0  0  0  0
    1.5267   -1.9257    2.0772 C   0  0  0  0  0  0  0  0  0  0  0  0
   -2.9173    1.3417   -0.1873 C   0  0  0  0  0  0  0  0  0  0  0  0
   -2.2476   -1.1009   -0.0063 C   0  0  0  0  0  0  0  0  0  0  0  0
    1.5191   -0.2704   -1.1817 C   0  0  0  0  0  0  0  0  0  0  0  0
    2.5406    1.3473    0.9043 C   0  0  0  0  0  0  0  0  0  0  0  0
   -1.7088    1.8392    0.6104 C   0  0  0  0  0  0  0  0  0  0  0  0
    1.9643    1.0320   -1.4351 C   0  0  0  0  0  0  0  0  0  0  0  0
    2.4668    1.8268   -0.4067 C   0  0  0  0  0  0  0  0  0  0  0  0
   -0.4985    3.6836    2.2378 C   0  0  0  0  0  0  0  0  0  0  0  0
    1.3801    0.6653   -3.7111 C   0  0  0  0  0  0  0  0  0  0  0  0
  1 18  1  0
  1 21  1  0
  2 19  1  0
  2 22  1  0
  3 15  2  0
  4 11  1  0
  4 13  1  0
  5 10  1  0
  5 15  1  0
  6 12  1  0
  7  8  1  0
  7  9  1  0
  7 13  2  0
  8 10  1  0
  9 11  2  0
  9 16  1  0
 11 17  1  0
 12 14  1  0
 12 15  1  0
 14 18  1  0
 16 19  2  0
 17 20  2  0
 19 20  1  0
M  END
>  <PUBCHEM_COMPOUND_CID>  (1) 
26115

>  <PUBCHEM_CONFORMER_RMSD>  (1) 
1

>  <PUBCHEM_CONFORMER_DIVERSEORDER>  (1) 
1
271
87
216
135
120
48
276
230
107
3
215
195
245
179
61
17
140
89
70
313
161
289
71
67
223
20
231
184
177
224
191
12
97
182
80
49
2
321
302
100
239
283
160
56
119
266
130
14
204
226
96
279
163
308
34
218
249
76
228
91
123
62
147
255
322
253
325
202
113
84
126
101
38
9
158
262
59
129
282
44
205
78
50
26
77
99
316
111
11
178
125
327
138
122
169
235
192
95
51
299
259
267
75
136
265
30
110
85
162
151
31
74
28
237
128
273
210
19
251
36
15
254
29
233
4
137
139
41
106
22
63
221
83
323
303
324
94
188
16
93
145
208
244
171
173
238
280
292
247
32
7
331
201
112
164
295
288
132
64
261
270
286
193
214
330
187
148
10
167
243
92
109
229
317
197
118
21
33
319
24
43
121
236
222
241
68
73
199
90
5
194
183
275
53
18
212
220
170
180
242
98
133
144
309
225
264
329
45
189
269
227
42
185
8
146
186
217
60
268
159
104
190
69
246
248
27
47
115
311
206
46
108
117
168
152
232
149
326
175
156
310
154
124
298
256
203
6
57
274
157
172
88
296
240
79
65
153
250
181
86
209
290
116
257
114
54
260
103
211
58
134
40
196
277
143
284
293
13
320
219
81
23
234
150
318
207
258
198
291
155
307
127
213
166
131
52
287
285
39
315
142
35
165
141
263
312
25
272
294
55
306
252
37
278
281
82
200
72
314
328
297
102
66
174
301
105
305
176
304
300

>  <PUBCHEM_MMFF94_PARTIAL_CHARGES>  (1) 
28
1 -0.46
10 0.3
11 -0.15
12 0.33
13 -0.3
15 0.57
16 -0.15
17 -0.15
18 0.23
19 0.08
2 -0.36
20 -0.15
21 0.23
22 0.28
28 0.15
3 -0.57
31 0.37
32 0.27
33 0.15
34 0.15
37 0.15
38 0.36
39 0.36
4 0.03
5 -0.73
6 -0.99
7 -0.18
8 0.18

>  <PUBCHEM_EFFECTIVE_ROTOR_COUNT>  (1) 
9

>  <PUBCHEM_PHARMACOPHORE_FEATURES>  (1) 
10
1 2 acceptor
1 21 hydrophobe
1 3 acceptor
1 4 cation
1 4 donor
1 5 donor
1 6 cation
1 6 donor
5 4 7 9 11 13 rings
6 9 11 16 17 19 20 rings

>  <PUBCHEM_HEAVY_ATOM_COUNT>  (1) 
22

>  <PUBCHEM_ATOM_DEF_STEREO_COUNT>  (1) 
0

>  <PUBCHEM_ATOM_UDEF_STEREO_COUNT>  (1) 
1

>  <PUBCHEM_BOND_DEF_STEREO_COUNT>  (1) 
0

>  <PUBCHEM_BOND_UDEF_STEREO_COUNT>  (1) 
0

>  <PUBCHEM_ISOTOPIC_ATOM_COUNT>  (1) 
0

>  <PUBCHEM_COMPONENT_COUNT>  (1) 
1

>  <PUBCHEM_CACTVS_TAUTO_COUNT>  (1) 
2

>  <PUBCHEM_CONFORMER_ID>  (1) 
0000660300000001

>  <PUBCHEM_MMFF94_ENERGY>  (1) 
39.3282

>  <PUBCHEM_FEATURE_SELFOVERLAP>  (1) 
50.838

>  <PUBCHEM_SHAPE_FINGERPRINT>  (1) 
104564 63 15603998700650926275
11578080 2 16603438844555555548
11640471 11 17968655050500818604
12156800 1 14944314165184348389
128993 33 18127719070098726193
14713325 29 16234547183573922486
15664445 248 17774717679857652093
20600515 1 18269839885663184477
20715895 44 17828166976109273981
20905425 154 16539603544477541955
21141583 151 17981334696055067656
21330990 113 17907565940371914298
23419403 2 13121322692694979072
35225 105 17912931578289675533
3797600 57 17461745061780394091
469060 322 14427462568150304764
484985 159 14898684218057458141
513532 50 12882948223389595136
5845 1 8547198679831522924
6786 2 16239639931785098550

>  <PUBCHEM_SHAPE_MULTIPOLES>  (1) 
429.92
4.74
4.14
2.79
4.1
0.1
-2.12
-1.03
0.41
1.13
1.25
-1.46
-1.39
-2.38

>  <PUBCHEM_SHAPE_SELFOVERLAP>  (1) 
877.277

>  <PUBCHEM_SHAPE_VOLUME>  (1) 
253.3

>  <PUBCHEM_COORDINATE_TYPE>  (1) 
2
5
10

$$$$
