26138
     RDKit          3D

 17 18  0  0  1  0  0  0  0  0999 V2000
    0.4730   -0.1954    0.6987 O   0  0  0  0  0  0  0  0  0  0  0  0
    2.2208   -1.2059   -1.3574 O   0  0  0  0  0  0  0  0  0  0  0  0
   -0.6305   -2.6910    1.2976 O   0  0  0  0  0  0  0  0  0  0  0  0
   -5.7050    2.1402   -0.3353 O   0  0  0  0  0  0  0  0  0  0  0  0
   -2.8668   -0.2026   -0.2951 N   0  0  0  0  0  0  0  0  0  0  0  0
    0.0273   -1.0852   -0.3341 C   0  0  0  0  0  0  0  0  0  0  0  0
   -1.1331   -1.8968    0.2227 C   0  0  0  0  0  0  0  0  0  0  0  0
   -2.2778   -1.0275    0.7510 C   0  0  0  0  0  0  0  0  0  0  0  0
    1.1764   -1.9862   -0.7669 C   0  0  0  0  0  0  0  0  0  0  0  0
    1.6768    0.3844    0.3963 C   0  0  0  0  0  0  0  0  0  0  0  0
    2.5188   -0.0987   -0.6077 C   0  0  0  0  0  0  0  0  0  0  0  0
   -3.9793    0.5812    0.2243 C   0  0  0  0  0  0  0  0  0  0  0  0
    2.0533    1.4974    1.1487 C   0  0  0  0  0  0  0  0  0  0  0  0
    3.7174    0.5570   -0.8899 C   0  0  0  0  0  0  0  0  0  0  0  0
   -4.6168    1.4067   -0.8819 C   0  0  0  0  0  0  0  0  0  0  0  0
    3.2587    2.1443    0.8752 C   0  0  0  0  0  0  0  0  0  0  0  0
    4.0868    1.6780   -0.1463 C   0  0  0  0  0  0  0  0  0  0  0  0
  1  6  1  0
  1 10  1  0
  2  9  1  0
  2 11  1  0
  3  7  1  0
  4 15  1  0
  5  8  1  0
  5 12  1  0
  6  7  1  0
  6  9  1  0
  7  8  1  0
 10 11  2  0
 10 13  1  0
 11 14  1  0
 12 15  1  0
 13 16  2  0
 14 17  2  0
 16 17  1  0
M  END
>  <PUBCHEM_COMPOUND_CID>  (1) 
26138

>  <PUBCHEM_CONFORMER_RMSD>  (1) 
0.8

>  <PUBCHEM_CONFORMER_DIVERSEORDER>  (1) 
1
86
89
34
85
48
68
38
72
39
58
9
55
90
43
67
87
74
51
62
13
17
33
10
23
77
18
37
64
66
79
32
35
71
92
28
19
80
91
93
63
6
8
78
73
50
4
65
7
42
29
30
54
76
25
45
88
12
47
22
2
82
21
57
14
27
20
95
15
96
69
60
52
24
40
31
49
53
26
94
83
16
56
5
84
11
46
44
41
59
81
61
36
3
70
75

>  <PUBCHEM_MMFF94_PARTIAL_CHARGES>  (1) 
24
1 -0.36
10 0.08
11 0.08
12 0.27
13 -0.15
14 -0.15
15 0.28
16 -0.15
17 -0.15
2 -0.36
24 0.36
27 0.4
28 0.15
29 0.15
3 -0.68
32 0.15
33 0.15
34 0.4
4 -0.68
5 -0.9
6 0.28
7 0.28
8 0.27
9 0.28

>  <PUBCHEM_EFFECTIVE_ROTOR_COUNT>  (1) 
5.8

>  <PUBCHEM_PHARMACOPHORE_FEATURES>  (1) 
10
1 1 acceptor
1 2 acceptor
1 3 acceptor
1 3 donor
1 4 acceptor
1 4 donor
1 5 cation
1 5 donor
6 1 2 6 9 10 11 rings
6 10 11 13 14 16 17 rings

>  <PUBCHEM_HEAVY_ATOM_COUNT>  (1) 
17

>  <PUBCHEM_ATOM_DEF_STEREO_COUNT>  (1) 
0

>  <PUBCHEM_ATOM_UDEF_STEREO_COUNT>  (1) 
2

>  <PUBCHEM_BOND_DEF_STEREO_COUNT>  (1) 
0

>  <PUBCHEM_BOND_UDEF_STEREO_COUNT>  (1) 
0

>  <PUBCHEM_ISOTOPIC_ATOM_COUNT>  (1) 
0

>  <PUBCHEM_COMPONENT_COUNT>  (1) 
1

>  <PUBCHEM_CACTVS_TAUTO_COUNT>  (1) 
1

>  <PUBCHEM_CONFORMER_ID>  (1) 
0000661A00000001

>  <PUBCHEM_MMFF94_ENERGY>  (1) 
38.8709

>  <PUBCHEM_FEATURE_SELFOVERLAP>  (1) 
50.792

>  <PUBCHEM_SHAPE_FINGERPRINT>  (1) 
10498660 4 18408318866009008901
10608611 8 18198910403581999338
122479 349 18336546122158654783
12363563 72 10952047888120830229
12403259 415 18340496658852555121
12500047 106 18336830904529475010
12596602 18 15719401658949797917
12654215 9 18202290233975570964
12730499 353 18341621399772654331
12769317 202 18340757153315516529
13294875 104 18337100173077541442
13464514 151 18413394224034650042
1420 369 9439400246660419789
14251764 30 12613583560115893416
14252887 29 13118268283678739792
14848178 96 18410573947024844293
15210252 30 18411419505362710249
16945 1 17272880803295951134
17834072 32 18335420209636487821
1798214 55 18261390027545643069
18186145 218 17630626710933469058
193927 3 10375867519962205581
20281475 54 9223238480789395571
20645477 56 18339653359525913611
20645477 70 17489044733192007558
22289505 5 18201436917967810005
22892500 29 18273214188195865604
231179 274 18411984684587637432
23402655 69 17989488511267651821
23493267 7 18190461747892251586
23557571 272 18263939893393763879
23559900 14 18343871004953061854
25 1 18343871012767354547
2748010 2 17699865204465814050
4028521 119 18342739632909620593
427121 178 17894632513515375803
43658 37 18343294873438670717
495365 180 17917702518018404010
633830 44 18339636751156139159
7808743 9 18041569151217572757

>  <PUBCHEM_SHAPE_MULTIPOLES>  (1) 
321.39
9.1
2.61
1.14
10.29
0.37
0.05
-8.72
-2.03
0.69
0.32
-0.31
0.14
1.58

>  <PUBCHEM_SHAPE_SELFOVERLAP>  (1) 
666.029

>  <PUBCHEM_SHAPE_VOLUME>  (1) 
182.6

>  <PUBCHEM_COORDINATE_TYPE>  (1) 
2
5
10

$$$$
