26136
     RDKit          3D

  9 10  0  0  1  0  0  0  0  0999 V2000
    0.2764   -0.6533   -0.2482 N   0  0  0  0  0  0  0  0  0  0  0  0
    0.2530    0.6881    0.3411 C   0  0  0  0  0  0  0  0  0  0  0  0
    1.6019    1.2270   -0.1027 C   0  0  0  0  0  0  0  0  0  0  0  0
   -0.9615    1.4630   -0.1526 C   0  0  0  0  0  0  0  0  0  0  0  0
    1.5799   -1.2021    0.1054 C   0  0  0  0  0  0  0  0  0  0  0  0
    2.5143   -0.0018   -0.0564 C   0  0  0  0  0  0  0  0  0  0  0  0
   -0.8648   -1.4513    0.1821 C   0  0  0  0  0  0  0  0  0  0  0  0
   -2.2385    0.6940    0.1995 C   0  0  0  0  0  0  0  0  0  0  0  0
   -2.1606   -0.7636   -0.2682 C   0  0  0  0  0  0  0  0  0  0  0  0
  1  2  1  0
  1  5  1  0
  1  7  1  0
  2  3  1  0
  2  4  1  0
  3  6  1  0
  4  8  1  0
  5  6  1  0
  7  9  1  0
  8  9  1  0
M  END
>  <PUBCHEM_COMPOUND_CID>  (1) 
26136

>  <PUBCHEM_CONFORMER_RMSD>  (1) 
0.4

>  <PUBCHEM_CONFORMER_DIVERSEORDER>  (1) 
1
4
3
2

>  <PUBCHEM_MMFF94_PARTIAL_CHARGES>  (1) 
4
1 -0.81
2 0.27
5 0.27
7 0.27

>  <PUBCHEM_EFFECTIVE_ROTOR_COUNT>  (1) 
1.4

>  <PUBCHEM_PHARMACOPHORE_FEATURES>  (1) 
3
1 1 cation
5 1 2 3 5 6 rings
6 1 2 4 7 8 9 rings

>  <PUBCHEM_HEAVY_ATOM_COUNT>  (1) 
9

>  <PUBCHEM_ATOM_DEF_STEREO_COUNT>  (1) 
0

>  <PUBCHEM_ATOM_UDEF_STEREO_COUNT>  (1) 
1

>  <PUBCHEM_BOND_DEF_STEREO_COUNT>  (1) 
0

>  <PUBCHEM_BOND_UDEF_STEREO_COUNT>  (1) 
0

>  <PUBCHEM_ISOTOPIC_ATOM_COUNT>  (1) 
0

>  <PUBCHEM_COMPONENT_COUNT>  (1) 
1

>  <PUBCHEM_CACTVS_TAUTO_COUNT>  (1) 
1

>  <PUBCHEM_CONFORMER_ID>  (1) 
0000661800000001

>  <PUBCHEM_MMFF94_ENERGY>  (1) 
4.409

>  <PUBCHEM_FEATURE_SELFOVERLAP>  (1) 
15.305

>  <PUBCHEM_SHAPE_FINGERPRINT>  (1) 
12897270 3 18410011078158317428
16945 1 18409729560263536688
18185500 45 18338515364690257503
21040471 1 18411136896555785288
23235685 24 18340483378850819969
23552423 10 18333733537181743886
241688 4 18337668715125386961
2748010 2 17906171003006001565
29004967 10 18260834842365273512
5084963 1 18343017774564214329
66348 1 18194964264707711107

>  <PUBCHEM_SHAPE_MULTIPOLES>  (1) 
180.23
3.22
1.64
0.65
0.18
0.02
-0.01
0.01
0.09
-0.14
0
-0.03
-0.01
-0.07

>  <PUBCHEM_SHAPE_SELFOVERLAP>  (1) 
363.94

>  <PUBCHEM_SHAPE_VOLUME>  (1) 
107.1

>  <PUBCHEM_COORDINATE_TYPE>  (1) 
2
5
10

$$$$
