26134
     RDKit          3D

 19 19  0  0  0  0  0  0  0  0999 V2000
    2.9241    0.2257   -0.9412 O   0  0  0  0  0  0  0  0  0  0  0  0
   -4.7153    0.5127    0.1983 O   0  0  0  0  0  0  0  0  0  0  0  0
   -3.1348    2.1480    0.4390 O   0  0  0  0  0  0  0  0  0  0  0  0
    3.1378    0.8138    1.2981 O   0  0  0  0  0  0  0  0  0  0  0  0
   -2.5735   -0.0255   -0.2386 N   0  0  0  0  0  0  0  0  0  0  0  0
    5.0065    0.6198   -0.0629 N   0  0  0  0  0  0  0  0  0  0  0  0
   -1.0112   -2.4104    0.2089 C   0  0  0  0  0  0  0  0  0  0  0  0
   -0.4013   -1.1105   -0.2044 C   0  0  0  0  0  0  0  0  0  0  0  0
   -1.1880    0.0226   -0.4116 C   0  0  0  0  0  0  0  0  0  0  0  0
   -0.5108   -2.8807    1.5865 C   0  0  0  0  0  0  0  0  0  0  0  0
   -0.7913   -3.5194   -0.8359 C   0  0  0  0  0  0  0  0  0  0  0  0
    0.9805   -1.0422   -0.3822 C   0  0  0  0  0  0  0  0  0  0  0  0
   -0.5928    1.2239   -0.7964 C   0  0  0  0  0  0  0  0  0  0  0  0
    1.5757    0.1590   -0.7672 C   0  0  0  0  0  0  0  0  0  0  0  0
    0.7891    1.2922   -0.9742 C   0  0  0  0  0  0  0  0  0  0  0  0
   -3.4336    0.9935    0.1590 C   0  0  0  0  0  0  0  0  0  0  0  0
    3.6547    0.5779    0.2100 C   0  0  0  0  0  0  0  0  0  0  0  0
   -5.7258    1.4476    0.5936 C   0  0  0  0  0  0  0  0  0  0  0  0
    6.0100    0.9520    0.9214 C   0  0  0  0  0  0  0  0  0  0  0  0
  1 14  1  0
  1 17  1  0
  2 16  1  0
  2 18  1  0
  3 16  2  0
  4 17  2  0
  5  9  1  0
  5 16  1  0
  6 17  1  0
  6 19  1  0
  7  8  1  0
  7 10  1  0
  7 11  1  0
  8  9  2  0
  8 12  1  0
  9 13  1  0
 12 14  2  0
 13 15  2  0
 14 15  1  0
M  END
>  <PUBCHEM_COMPOUND_CID>  (1) 
26134

>  <PUBCHEM_CONFORMER_RMSD>  (1) 
0.8

>  <PUBCHEM_CONFORMER_DIVERSEORDER>  (1) 
1
29
44
23
30
6
34
18
14
38
26
10
35
25
20
15
37
8
2
19
39
42
16
27
9
5
21
41
13
7
12
11
28
22
3
33
32
24
31
17
43
40
4
36

>  <PUBCHEM_MMFF94_PARTIAL_CHARGES>  (1) 
22
1 -0.23
12 -0.15
13 -0.15
14 0.08
15 -0.15
16 0.78
17 0.78
18 0.28
19 0.3
2 -0.43
27 0.15
28 0.15
29 0.15
3 -0.57
30 0.37
31 0.37
4 -0.57
5 -0.55
6 -0.73
7 0.14
8 -0.14
9 0.12

>  <PUBCHEM_EFFECTIVE_ROTOR_COUNT>  (1) 
7

>  <PUBCHEM_PHARMACOPHORE_FEATURES>  (1) 
6
1 3 acceptor
1 4 acceptor
1 5 donor
1 6 donor
3 7 10 11 hydrophobe
6 8 9 12 13 14 15 rings

>  <PUBCHEM_HEAVY_ATOM_COUNT>  (1) 
19

>  <PUBCHEM_ATOM_DEF_STEREO_COUNT>  (1) 
0

>  <PUBCHEM_ATOM_UDEF_STEREO_COUNT>  (1) 
0

>  <PUBCHEM_BOND_DEF_STEREO_COUNT>  (1) 
0

>  <PUBCHEM_BOND_UDEF_STEREO_COUNT>  (1) 
0

>  <PUBCHEM_ISOTOPIC_ATOM_COUNT>  (1) 
0

>  <PUBCHEM_COMPONENT_COUNT>  (1) 
1

>  <PUBCHEM_CACTVS_TAUTO_COUNT>  (1) 
4

>  <PUBCHEM_CONFORMER_ID>  (1) 
0000661600000001

>  <PUBCHEM_MMFF94_ENERGY>  (1) 
55.9963

>  <PUBCHEM_FEATURE_SELFOVERLAP>  (1) 
30.446

>  <PUBCHEM_SHAPE_FINGERPRINT>  (1) 
10382601 240 18044945571438318195
10493431 412 18409446985738274981
10756046 70 17604441815225973756
12251169 10 18261391174206998132
12500047 106 18342736355912766766
12633257 1 18264750182546339328
12788726 201 17829626293584057819
13140716 1 18116998986399577716
13540713 5 17826238672757699460
13544592 145 18271819977867259166
14022349 108 17970338231205179690
14178000 29 7853558102947428465
14178342 30 18336542845626602798
14347332 77 9799152724691289092
14787075 74 18130782382661381673
15042514 8 18261396710066473031
15209294 21 18342455919822470925
15295992 7 17774429603468871352
16945 1 18267594678608078319
20600515 1 18409454717149608380
20645477 70 18119533138138430823
20681677 155 18261393390731596840
21054139 6 18339916104846604967
212916 134 18342165666053608640
21524375 3 18408608045829689215
21618674 25 18131633374453623326
21637258 2 14056716880733230193
22182313 1 18196965277245116127
22224240 67 18409167710523551745
22956985 138 17389100045134594595
23352939 185 13398630554178903899
23402539 116 18342450478399347381
23419403 2 16898437857226700629
23558518 356 17901949969340377436
23559900 14 18341346539414455790
23598288 3 18046641271402745262
23728640 28 18263926699270399194
25147074 1 17824831276393963500
2748010 2 17898845747462362254
2838139 119 16845566504928928104
2916195 48 18060134349313012481
314173 85 8574709096292189253
4072396 5 17967809406311865477
427121 178 18411702049742975243
465052 167 16950578678912461113
474229 33 18409732880927501191
5104073 3 18119540843083283857
58807428 26 18259981548396675978
59755656 520 18412258432823516694
7364860 26 18052824641804061623
81228 2 18045774843376059863
84936 182 17986113998175429073

>  <PUBCHEM_SHAPE_MULTIPOLES>  (1) 
357.57
9.91
2.92
1.11
4.05
3.42
-0.19
-8.46
-3.76
-2.2
-0.25
0.42
0.28
-0.09

>  <PUBCHEM_SHAPE_SELFOVERLAP>  (1) 
730.097

>  <PUBCHEM_SHAPE_VOLUME>  (1) 
205.8

>  <PUBCHEM_COORDINATE_TYPE>  (1) 
2
5
10

$$$$
