26135
     RDKit          3D

 12 13  0  0  0  0  0  0  0  0999 V2000
   -0.5793    2.7242   -0.0003 O   0  0  0  0  0  0  0  0  0  0  0  0
    0.3297   -0.8561    0.0000 C   0  0  0  0  0  0  0  0  0  0  0  0
    0.4762    0.5515    0.0001 C   0  0  0  0  0  0  0  0  0  0  0  0
   -2.0886   -0.5928    0.0000 C   0  0  0  0  0  0  0  0  0  0  0  0
   -0.9597   -1.4125    0.0000 C   0  0  0  0  0  0  0  0  0  0  0  0
   -0.6713    1.3614    0.0002 C   0  0  0  0  0  0  0  0  0  0  0  0
   -1.9446    0.7915    0.0001 C   0  0  0  0  0  0  0  0  0  0  0  0
    1.4771   -1.6661   -0.0001 C   0  0  0  0  0  0  0  0  0  0  0  0
    1.7657    1.1078    0.0002 C   0  0  0  0  0  0  0  0  0  0  0  0
   -3.4505   -1.2009    0.0000 C   0  0  0  0  0  0  0  0  0  0  0  0
    2.7506   -1.0962   -0.0001 C   0  0  0  0  0  0  0  0  0  0  0  0
    2.8946    0.2880    0.0000 C   0  0  0  0  0  0  0  0  0  0  0  0
  1  6  1  0
  2  3  2  0
  2  5  1  0
  2  8  1  0
  3  6  1  0
  3  9  1  0
  4  5  2  0
  4  7  1  0
  4 10  1  0
  6  7  2  0
  8 11  2  0
  9 12  2  0
 11 12  1  0
M  END
>  <PUBCHEM_COMPOUND_CID>  (1) 
26135

>  <PUBCHEM_CONFORMER_RMSD>  (1) 
0.4

>  <PUBCHEM_CONFORMER_DIVERSEORDER>  (1) 
1

>  <PUBCHEM_MMFF94_PARTIAL_CHARGES>  (1) 
17
1 -0.53
10 0.14
11 -0.15
12 -0.15
13 0.15
14 0.15
15 0.15
16 0.15
20 0.15
21 0.15
22 0.45
4 -0.14
5 -0.15
6 0.08
7 -0.15
8 -0.15
9 -0.15

>  <PUBCHEM_EFFECTIVE_ROTOR_COUNT>  (1) 
0

>  <PUBCHEM_PHARMACOPHORE_FEATURES>  (1) 
3
1 1 donor
6 2 3 4 5 6 7 rings
6 2 3 8 9 11 12 rings

>  <PUBCHEM_HEAVY_ATOM_COUNT>  (1) 
12

>  <PUBCHEM_ATOM_DEF_STEREO_COUNT>  (1) 
0

>  <PUBCHEM_ATOM_UDEF_STEREO_COUNT>  (1) 
0

>  <PUBCHEM_BOND_DEF_STEREO_COUNT>  (1) 
0

>  <PUBCHEM_BOND_UDEF_STEREO_COUNT>  (1) 
0

>  <PUBCHEM_ISOTOPIC_ATOM_COUNT>  (1) 
0

>  <PUBCHEM_COMPONENT_COUNT>  (1) 
1

>  <PUBCHEM_CACTVS_TAUTO_COUNT>  (1) 
12

>  <PUBCHEM_CONFORMER_ID>  (1) 
0000661700000001

>  <PUBCHEM_MMFF94_ENERGY>  (1) 
36.6882

>  <PUBCHEM_FEATURE_SELFOVERLAP>  (1) 
15.249

>  <PUBCHEM_SHAPE_FINGERPRINT>  (1) 
10219947 1 18341054124365127275
10967382 1 18194683889195207430
11206711 2 18336830784043245516
11471102 20 18337949103802477695
12032990 46 18410017666833698435
12524768 44 18341898506124020838
12897270 3 18410572872876331822
13380535 76 17907852908125895397
14325111 11 18410856555376509760
161256 15 18413387657145594960
16945 1 18194402186669600130
17844478 74 18041005054929544787
193761 8 17906170655298513667
19973954 147 18267023864716970862
20201158 50 18334856155723269731
20588541 1 18263364861681462523
20871998 184 18201998781209680807
21040471 1 17906453221312799652
21501502 16 18338520725015119266
2334 1 18410575093479827847
23402539 116 18270950327850548343
23463225 33 18409730672623214551
23552423 10 18260833670013411246
23559900 14 17406837285869387222
241688 4 18410012109061348889
2748010 2 18411133628133074469
5084963 1 18273214162383902594
528886 8 18339639061321276778

>  <PUBCHEM_SHAPE_MULTIPOLES>  (1) 
241.09
4.3
2.13
0.61
0.64
0.91
0
-1.48
0
0.19
0
0
-0.02
0

>  <PUBCHEM_SHAPE_SELFOVERLAP>  (1) 
528.917

>  <PUBCHEM_SHAPE_VOLUME>  (1) 
132

>  <PUBCHEM_COORDINATE_TYPE>  (1) 
2
5
10

$$$$
