26132
     RDKit          3D

 12 12  0  0  0  0  0  0  0  0999 V2000
    0.7394    2.3860   -0.1483 Cl  0  0  0  0  0  0  0  0  0  0  0  0
   -2.4112    2.0101   -0.1773 Cl  0  0  0  0  0  0  0  0  0  0  0  0
   -3.6070   -0.9440    0.0239 Cl  0  0  0  0  0  0  0  0  0  0  0  0
    2.9052    0.4636    0.9612 O   0  0  0  0  0  0  0  0  0  0  0  0
    0.8670   -0.3056    0.0570 C   0  0  0  0  0  0  0  0  0  0  0  0
    0.0271    0.8038   -0.0418 C   0  0  0  0  0  0  0  0  0  0  0  0
    0.3225   -1.5869    0.1436 C   0  0  0  0  0  0  0  0  0  0  0  0
    2.3207   -0.1867    0.0751 C   0  0  0  0  0  0  0  0  0  0  0  0
   -1.3570    0.6318   -0.0541 C   0  0  0  0  0  0  0  0  0  0  0  0
   -1.0616   -1.7589    0.1313 C   0  0  0  0  0  0  0  0  0  0  0  0
   -1.9013   -0.6495    0.0324 C   0  0  0  0  0  0  0  0  0  0  0  0
    3.1563   -0.8637   -1.0029 C   0  0  0  0  0  0  0  0  0  0  0  0
  1  6  1  0
  2  9  1  0
  3 11  1  0
  4  8  2  0
  5  6  2  0
  5  7  1  0
  5  8  1  0
  6  9  1  0
  7 10  2  0
  8 12  1  0
  9 11  2  0
 10 11  1  0
M  END
>  <PUBCHEM_COMPOUND_CID>  (1) 
26132

>  <PUBCHEM_CONFORMER_RMSD>  (1) 
0.4

>  <PUBCHEM_CONFORMER_DIVERSEORDER>  (1) 
2
1
3
4

>  <PUBCHEM_MMFF94_PARTIAL_CHARGES>  (1) 
14
1 -0.18
10 -0.15
11 0.18
12 0.06
13 0.15
14 0.15
2 -0.18
3 -0.18
4 -0.57
5 0.09
6 0.18
7 -0.15
8 0.42
9 0.18

>  <PUBCHEM_EFFECTIVE_ROTOR_COUNT>  (1) 
1

>  <PUBCHEM_PHARMACOPHORE_FEATURES>  (1) 
2
1 4 acceptor
6 5 6 7 9 10 11 rings

>  <PUBCHEM_HEAVY_ATOM_COUNT>  (1) 
12

>  <PUBCHEM_ATOM_DEF_STEREO_COUNT>  (1) 
0

>  <PUBCHEM_ATOM_UDEF_STEREO_COUNT>  (1) 
0

>  <PUBCHEM_BOND_DEF_STEREO_COUNT>  (1) 
0

>  <PUBCHEM_BOND_UDEF_STEREO_COUNT>  (1) 
0

>  <PUBCHEM_ISOTOPIC_ATOM_COUNT>  (1) 
0

>  <PUBCHEM_COMPONENT_COUNT>  (1) 
1

>  <PUBCHEM_CACTVS_TAUTO_COUNT>  (1) 
2

>  <PUBCHEM_CONFORMER_ID>  (1) 
0000661400000002

>  <PUBCHEM_MMFF94_ENERGY>  (1) 
33.3829

>  <PUBCHEM_FEATURE_SELFOVERLAP>  (1) 
10.148

>  <PUBCHEM_SHAPE_FINGERPRINT>  (1) 
10353120 184 18334859449984141911
11206711 2 18335136475617138989
12032990 46 18411426111063881631
12524768 44 18122064474817199807
12716758 59 18339645533889596302
13140716 1 18120655992138306051
13380535 21 18122634855396411011
14325111 11 18411135797059864832
15219456 202 18131628968054528210
161256 15 18265617765296539589
16945 1 18336265729640537091
193761 8 17544758292772527539
20510252 161 18343019990825602041
20871999 31 18337405863184809868
21040471 1 18264487286854046738
21501502 16 18191585238085362691
22802520 49 17985554359742045630
2334 1 18336827464265952147
23402539 116 18341596136142010278
23402655 69 18194663901541311557
23552423 10 17899977436837471630
23557571 272 18342470231486724100
23559900 14 18198628736239537654
2748010 2 18267304231534272391
369184 2 16415480466965525082
5084963 1 18201725071628741163
528886 8 18266173929143455065
53812653 166 18341044112711919073
6333449 129 18340483366023836429
7364860 26 18126572455596497068

>  <PUBCHEM_SHAPE_MULTIPOLES>  (1) 
246.69
4.78
2.26
0.77
0.08
1.03
-0.03
-0.85
-0.32
-0.76
-0.09
0.39
-0.02
0.35

>  <PUBCHEM_SHAPE_SELFOVERLAP>  (1) 
489.063

>  <PUBCHEM_SHAPE_VOLUME>  (1) 
150.2

>  <PUBCHEM_COORDINATE_TYPE>  (1) 
2
5
10

$$$$
