26137
     RDKit          3D

 15 17  0  0  0  0  0  0  0  0999 V2000
    2.4285    0.1419   -1.1079 N   0  0  0  0  0  0  0  0  0  0  0  0
    2.3693    0.1154    1.1566 N   0  0  0  0  0  0  0  0  0  0  0  0
    0.3830   -0.6704    0.0153 C   0  0  0  0  0  0  0  0  0  0  0  0
    1.7404   -0.1326    0.0360 C   0  0  0  0  0  0  0  0  0  0  0  0
   -0.7541    0.1538    0.0074 C   0  0  0  0  0  0  0  0  0  0  0  0
    3.7254    0.6636   -0.7975 C   0  0  0  0  0  0  0  0  0  0  0  0
    3.7002    0.6393    0.7332 C   0  0  0  0  0  0  0  0  0  0  0  0
   -2.0389   -0.4393   -0.0116 C   0  0  0  0  0  0  0  0  0  0  0  0
    0.2554   -2.0597    0.0049 C   0  0  0  0  0  0  0  0  0  0  0  0
   -0.6442    1.5539    0.0175 C   0  0  0  0  0  0  0  0  0  0  0  0
   -2.1486   -1.8395   -0.0219 C   0  0  0  0  0  0  0  0  0  0  0  0
   -1.0080   -2.6430   -0.0136 C   0  0  0  0  0  0  0  0  0  0  0  0
   -3.1759    0.3849   -0.0194 C   0  0  0  0  0  0  0  0  0  0  0  0
   -1.7846    2.3575    0.0096 C   0  0  0  0  0  0  0  0  0  0  0  0
   -3.0479    1.7742   -0.0086 C   0  0  0  0  0  0  0  0  0  0  0  0
  1  4  1  0
  1  6  1  0
  2  4  2  0
  2  7  1  0
  3  4  1  0
  3  5  1  0
  3  9  2  0
  5  8  2  0
  5 10  1  0
  6  7  1  0
  8 11  1  0
  8 13  1  0
  9 12  1  0
 10 14  2  0
 11 12  2  0
 13 15  2  0
 14 15  1  0
M  END
>  <PUBCHEM_COMPOUND_CID>  (1) 
26137

>  <PUBCHEM_CONFORMER_RMSD>  (1) 
0.6

>  <PUBCHEM_CONFORMER_DIVERSEORDER>  (1) 
1
2

>  <PUBCHEM_MMFF94_PARTIAL_CHARGES>  (1) 
21
1 -0.82
10 -0.15
11 -0.15
12 -0.15
13 -0.15
14 -0.15
15 -0.15
2 -0.7
20 0.4
21 0.15
22 0.15
23 0.15
24 0.15
25 0.15
26 0.15
27 0.15
3 0.09
4 0.41
6 0.37
7 0.25
9 -0.15

>  <PUBCHEM_EFFECTIVE_ROTOR_COUNT>  (1) 
1.6

>  <PUBCHEM_PHARMACOPHORE_FEATURES>  (1) 
5
1 1 donor
3 1 2 4 cation
5 1 2 4 6 7 rings
6 3 5 8 9 11 12 rings
6 5 8 10 13 14 15 rings

>  <PUBCHEM_HEAVY_ATOM_COUNT>  (1) 
15

>  <PUBCHEM_ATOM_DEF_STEREO_COUNT>  (1) 
0

>  <PUBCHEM_ATOM_UDEF_STEREO_COUNT>  (1) 
0

>  <PUBCHEM_BOND_DEF_STEREO_COUNT>  (1) 
0

>  <PUBCHEM_BOND_UDEF_STEREO_COUNT>  (1) 
0

>  <PUBCHEM_ISOTOPIC_ATOM_COUNT>  (1) 
0

>  <PUBCHEM_COMPONENT_COUNT>  (1) 
1

>  <PUBCHEM_CACTVS_TAUTO_COUNT>  (1) 
1

>  <PUBCHEM_CONFORMER_ID>  (1) 
0000661900000001

>  <PUBCHEM_MMFF94_ENERGY>  (1) 
55.4354

>  <PUBCHEM_FEATURE_SELFOVERLAP>  (1) 
25.398

>  <PUBCHEM_SHAPE_FINGERPRINT>  (1) 
10608611 8 18272086149632796600
10967382 1 18338797814772269833
11132069 177 18412543231962378929
12173636 292 18410853252536415356
13140716 1 18194405726165718659
13380535 21 18269565952727686035
13380535 76 18339074883107448431
13538477 17 18187359973860750930
13764800 53 18409456877216821497
14420673 8 18120922916462787162
14614273 12 18261384495427234557
14648413 74 17472139475542621769
15042514 8 18337112388054357651
15309172 13 18338244769092743057
15669948 3 18336825394033537286
15775835 57 18333450919870450072
16945 1 18410855494725432915
17846911 113 18411974750244087177
18186145 218 17989214707070766416
19868273 325 18265897045481470071
20510252 161 18342180006875524443
20645476 183 18041005054570991694
20645477 56 18411984676187853752
20871998 184 18271530913208686335
21501502 16 18267861688240482667
21524375 3 18339637820086271099
22802520 49 18130242466416907574
2334 1 17834393797639844185
23402539 116 18341882039171857551
23557571 272 18127420157913509220
23559900 14 18272937107819803708
2748010 2 18193285087562288295
305870 269 18191300477236890698
3071541 12 17836087766985294799
3071541 236 18261386771649196403
3071541 250 17544763786136146863
350125 39 17978235958786868249
43471831 8 18335417928950838003
458136 41 18052840064904624801
53812653 8 18407762529703427387
6333449 129 18413669132048407113
7097593 13 17970325054609434874
7364860 26 17837770028260342111
77492 1 17676482891257445810
81228 2 18267305515708485891

>  <PUBCHEM_SHAPE_MULTIPOLES>  (1) 
298.73
5.62
2.5
0.82
4.03
0.74
0
-2.39
0.09
-2.05
0.01
0.61
-0.07
-0.03

>  <PUBCHEM_SHAPE_SELFOVERLAP>  (1) 
663.121

>  <PUBCHEM_SHAPE_VOLUME>  (1) 
157.9

>  <PUBCHEM_COORDINATE_TYPE>  (1) 
2
5
10

$$$$
