26147
     RDKit          3D

 21 22  0  0  1  0  0  0  0  0999 V2000
   -1.7739   -0.1229    0.7294 O   0  0  0  0  0  0  0  0  0  0  0  0
   -1.5730   -2.8577    1.2657 O   0  0  0  0  0  0  0  0  0  0  0  0
   -3.6363   -0.4226   -1.4490 O   0  0  0  0  0  0  0  0  0  0  0  0
    7.1584    1.2329    0.1277 O   0  0  0  0  0  0  0  0  0  0  0  0
    1.4591   -1.1421   -0.0115 N   0  0  0  0  0  0  0  0  0  0  0  0
   -0.7909   -2.2410    0.2306 C   0  0  0  0  0  0  0  0  0  0  0  0
   -1.5868   -1.0715   -0.3299 C   0  0  0  0  0  0  0  0  0  0  0  0
    0.5269   -1.7949    0.8994 C   0  0  0  0  0  0  0  0  0  0  0  0
   -2.9413   -1.5254   -0.8582 C   0  0  0  0  0  0  0  0  0  0  0  0
   -0.5410   -3.3012   -0.8509 C   0  0  0  0  0  0  0  0  0  0  0  0
    2.7008   -0.8038    0.6700 C   0  0  0  0  0  0  0  0  0  0  0  0
    3.6708   -0.1291   -0.2982 C   0  0  0  0  0  0  0  0  0  0  0  0
   -2.7004    0.8335    0.4077 C   0  0  0  0  0  0  0  0  0  0  0  0
   -3.5957    0.6930   -0.6549 C   0  0  0  0  0  0  0  0  0  0  0  0
    4.9850    0.2265    0.3950 C   0  0  0  0  0  0  0  0  0  0  0  0
   -2.7318    1.9806    1.2011 C   0  0  0  0  0  0  0  0  0  0  0  0
   -4.4936    1.7184   -0.9522 C   0  0  0  0  0  0  0  0  0  0  0  0
    5.9444    0.9379   -0.5501 C   0  0  0  0  0  0  0  0  0  0  0  0
   -3.6393    2.9998    0.9116 C   0  0  0  0  0  0  0  0  0  0  0  0
   -4.5152    2.8713   -0.1669 C   0  0  0  0  0  0  0  0  0  0  0  0
    8.0736    1.9184   -0.7162 C   0  0  0  0  0  0  0  0  0  0  0  0
  1  7  1  0
  1 13  1  0
  2  6  1  0
  3  9  1  0
  3 14  1  0
  4 18  1  0
  4 21  1  0
  5  8  1  0
  5 11  1  0
  6  7  1  0
  6  8  1  0
  6 10  1  0
  7  9  1  0
 11 12  1  0
 12 15  1  0
 13 14  2  0
 13 16  1  0
 14 17  1  0
 15 18  1  0
 16 19  2  0
 17 20  2  0
 19 20  1  0
M  END
>  <PUBCHEM_COMPOUND_CID>  (1) 
26147

>  <PUBCHEM_CONFORMER_RMSD>  (1) 
1

>  <PUBCHEM_CONFORMER_DIVERSEORDER>  (1) 
5
388
24
380
603
383
550
553
247
91
378
171
6
576
265
535
32
1
178
59
232
600
669
582
15
238
607
437
406
4
90
567
7
141
256
337
462
275
2
575
61
665
81
39
458
687
705
543
236
413
489
310
196
118
483
720
453
322
519
367
457
53
679
206
480
35
594
412
268
12
224
626
338
13
86
234
469
270
50
452
186
78
294
555
495
526
702
303
83
198
460
80
547
100
148
605
672
93
348
204
271
433
411
51
560
599
62
280
21
439
284
57
315
532
331
404
390
132
333
103
194
84
466
180
568
106
352
345
673
26
123
584
341
477
308
87
102
504
416
370
410
350
58
48
525
601
223
145
119
74
244
285
140
633
373
421
139
424
152
261
131
443
326
494
559
618
508
66
25
64
111
222
689
158
135
174
262
251
170
56
384
36
109
541
445
430
217
175
309
245
255
44
110
92
418
235
305
422
18
42
608
289
269
105
33
179
463
31
14
27
225
97
296
556
37
356
583
161
548
682
291
19
195
9
113
124
11
10
47
88
272
203

>  <PUBCHEM_MMFF94_PARTIAL_CHARGES>  (1) 
24
1 -0.36
11 0.27
13 0.08
14 0.08
16 -0.15
17 -0.15
18 0.28
19 -0.15
2 -0.68
20 -0.15
21 0.28
3 -0.36
30 0.36
33 0.4
38 0.15
39 0.15
4 -0.56
42 0.15
43 0.15
5 -0.9
6 0.28
7 0.28
8 0.27
9 0.28

>  <PUBCHEM_EFFECTIVE_ROTOR_COUNT>  (1) 
8.8

>  <PUBCHEM_PHARMACOPHORE_FEATURES>  (1) 
9
1 1 acceptor
1 2 acceptor
1 2 donor
1 3 acceptor
1 4 acceptor
1 5 cation
1 5 donor
6 1 3 7 9 13 14 rings
6 13 14 16 17 19 20 rings

>  <PUBCHEM_HEAVY_ATOM_COUNT>  (1) 
21

>  <PUBCHEM_ATOM_DEF_STEREO_COUNT>  (1) 
0

>  <PUBCHEM_ATOM_UDEF_STEREO_COUNT>  (1) 
2

>  <PUBCHEM_BOND_DEF_STEREO_COUNT>  (1) 
0

>  <PUBCHEM_BOND_UDEF_STEREO_COUNT>  (1) 
0

>  <PUBCHEM_ISOTOPIC_ATOM_COUNT>  (1) 
0

>  <PUBCHEM_COMPONENT_COUNT>  (1) 
1

>  <PUBCHEM_CACTVS_TAUTO_COUNT>  (1) 
1

>  <PUBCHEM_CONFORMER_ID>  (1) 
0000662300000005

>  <PUBCHEM_MMFF94_ENERGY>  (1) 
52.8313

>  <PUBCHEM_FEATURE_SELFOVERLAP>  (1) 
45.717

>  <PUBCHEM_SHAPE_FINGERPRINT>  (1) 
10291535 26 18340210781740179154
10411042 1 17834396005343874391
12107183 9 18190451668100347986
12390115 104 18410584958835252923
12788726 201 18190730019961218203
14142880 1 18260546727817802111
14251751 18 8358261437025750732
14251764 38 18196090165322202144
14251764 75 17983587294838815105
14931854 50 18130779010869669053
14950920 106 13767936727677701988
15163728 17 18272094837855991886
15183329 4 18341897356096054958
15342168 16 18122341281866216293
167882 2 18200316503336007134
1813 80 10375291392780166707
20058555 10 18122063372066691956
21033648 29 15936970709003133831
21401589 2 18336275556609853691
23198884 109 18342739633115147694
23559900 14 17917137399244350336
270888 7 18335981956735250628
283562 15 18261672670891349227
328310 18 17703519839145393936
351380 3 10663815287107604372
441001 317 18411138078283611042
474 4 18119805812147228059
484985 159 9799415486263045153
5104073 3 17675921006894154530
531348 171 17988926665543241534
57634706 229 18338817640341451792
6299153 45 18262791853832506434
6327066 14 18336262353727820372
6328613 192 18335139817793161532
633830 44 18194115222978562127
636775 72 18339920532979706856
7288768 16 18113624447637778059
7808743 9 18409727348640378520
9981440 41 18411413994956320211

>  <PUBCHEM_SHAPE_MULTIPOLES>  (1) 
403.71
15.47
3.71
1.14
41.13
0.68
-0.01
-17.13
3.84
-3.36
-0.27
-0.75
0.08
-1.21

>  <PUBCHEM_SHAPE_SELFOVERLAP>  (1) 
823.249

>  <PUBCHEM_SHAPE_VOLUME>  (1) 
233.3

>  <PUBCHEM_COORDINATE_TYPE>  (1) 
2
5
10

$$$$
