26146
     RDKit          3D

 19 20  0  0  1  0  0  0  0  0999 V2000
   -0.9175   -0.1079    0.7295 O   0  0  0  0  0  0  0  0  0  0  0  0
   -0.1336   -2.7001    1.4171 O   0  0  0  0  0  0  0  0  0  0  0  0
   -2.7542   -0.9314   -1.3326 O   0  0  0  0  0  0  0  0  0  0  0  0
    5.4615    1.5830    0.0896 O   0  0  0  0  0  0  0  0  0  0  0  0
    2.4278   -0.4908   -0.1081 N   0  0  0  0  0  0  0  0  0  0  0  0
    0.4655   -2.0085    0.3098 C   0  0  0  0  0  0  0  0  0  0  0  0
   -0.5757   -1.0682   -0.2794 C   0  0  0  0  0  0  0  0  0  0  0  0
    1.6850   -1.2569    0.8850 C   0  0  0  0  0  0  0  0  0  0  0  0
   -1.8244   -1.8252   -0.7123 C   0  0  0  0  0  0  0  0  0  0  0  0
    0.8912   -3.0664   -0.7178 C   0  0  0  0  0  0  0  0  0  0  0  0
   -2.0336    0.6140    0.3976 C   0  0  0  0  0  0  0  0  0  0  0  0
   -2.9178    0.2205   -0.6093 C   0  0  0  0  0  0  0  0  0  0  0  0
    3.5958    0.1407    0.4899 C   0  0  0  0  0  0  0  0  0  0  0  0
   -2.2741    1.7818    1.1219 C   0  0  0  0  0  0  0  0  0  0  0  0
    4.3423    0.9733   -0.5401 C   0  0  0  0  0  0  0  0  0  0  0  0
   -4.0193    1.0173   -0.9224 C   0  0  0  0  0  0  0  0  0  0  0  0
   -3.3833    2.5711    0.8173 C   0  0  0  0  0  0  0  0  0  0  0  0
   -4.2517    2.1922   -0.2070 C   0  0  0  0  0  0  0  0  0  0  0  0
    6.2161    2.3619   -0.8287 C   0  0  0  0  0  0  0  0  0  0  0  0
  1  7  1  0
  1 11  1  0
  2  6  1  0
  3  9  1  0
  3 12  1  0
  4 15  1  0
  4 19  1  0
  5  8  1  0
  5 13  1  0
  6  7  1  0
  6  8  1  0
  6 10  1  0
  7  9  1  0
 11 12  2  0
 11 14  1  0
 12 16  1  0
 13 15  1  0
 14 17  2  0
 16 18  2  0
 17 18  1  0
M  END
>  <PUBCHEM_COMPOUND_CID>  (1) 
26146

>  <PUBCHEM_CONFORMER_RMSD>  (1) 
0.8

>  <PUBCHEM_CONFORMER_DIVERSEORDER>  (1) 
6
102
46
127
135
119
16
131
118
130
60
77
129
38
132
33
85
83
63
72
39
111
99
123
114
117
64
15
93
149
107
8
75
133
110
68
74
66
3
76
14
113
78
115
138
28
88
150
101
50
151
97
105
81
96
92
106
152
124
34
58
125
62
147
128
108
140
2
65
104
20
103
134
18
49
145
22
136
143
95
116
94
122
47
87
52
71
44
32
90
98
148
144
73
69
56
139
57
45
61
82
137
10
141
26
24
29
121
70
109
35
142
54
126
13
17
19
84
67
40
25
146
41
89
48
42
53
100
21
36
112
59
55
80
12
120
27
1
51
79
11
23
31
91
43
5
30
9
4
37
86
7

>  <PUBCHEM_MMFF94_PARTIAL_CHARGES>  (1) 
24
1 -0.36
11 0.08
12 0.08
13 0.27
14 -0.15
15 0.28
16 -0.15
17 -0.15
18 -0.15
19 0.28
2 -0.68
28 0.36
29 0.4
3 -0.36
32 0.15
35 0.15
36 0.15
37 0.15
4 -0.56
5 -0.9
6 0.28
7 0.28
8 0.27
9 0.28

>  <PUBCHEM_EFFECTIVE_ROTOR_COUNT>  (1) 
6.8

>  <PUBCHEM_PHARMACOPHORE_FEATURES>  (1) 
9
1 1 acceptor
1 2 acceptor
1 2 donor
1 3 acceptor
1 4 acceptor
1 5 cation
1 5 donor
6 1 3 7 9 11 12 rings
6 11 12 14 16 17 18 rings

>  <PUBCHEM_HEAVY_ATOM_COUNT>  (1) 
19

>  <PUBCHEM_ATOM_DEF_STEREO_COUNT>  (1) 
0

>  <PUBCHEM_ATOM_UDEF_STEREO_COUNT>  (1) 
2

>  <PUBCHEM_BOND_DEF_STEREO_COUNT>  (1) 
0

>  <PUBCHEM_BOND_UDEF_STEREO_COUNT>  (1) 
0

>  <PUBCHEM_ISOTOPIC_ATOM_COUNT>  (1) 
0

>  <PUBCHEM_COMPONENT_COUNT>  (1) 
1

>  <PUBCHEM_CACTVS_TAUTO_COUNT>  (1) 
1

>  <PUBCHEM_CONFORMER_ID>  (1) 
0000662200000006

>  <PUBCHEM_MMFF94_ENERGY>  (1) 
53.2184

>  <PUBCHEM_FEATURE_SELFOVERLAP>  (1) 
45.717

>  <PUBCHEM_SHAPE_FINGERPRINT>  (1) 
10382601 240 17968939674126387418
10498660 4 18272082781977691824
10871710 139 18412260649148200949
11046707 91 9439413423561613254
12390115 104 18337123331688393836
12788726 201 18046334508023067098
13590594 115 17474114202837242858
13828863 39 15142967355270657942
14123255 52 18410014303947879392
14142880 1 18187924035873176598
1420 369 9655575210633375148
14251764 75 17984433948814918649
14739800 52 18125416843876151992
14767858 380 18270099310931165855
14774955 27 18263639580938588213
14787075 74 18409162234593457499
15163728 17 18342469131632250518
15342168 16 18337389314792135469
17834072 32 18409171026069713364
21033648 29 15864344693107262062
21401589 2 18335148612973405456
21524375 3 18338226086032666594
2255824 54 17907857310562936435
22620623 9 16916204694021805327
23366157 5 18051129198668357927
235170 7 16272211903344528628
23559900 14 17414704376615656911
270888 7 18335420149491244908
283562 15 18189333652925675267
3472631 163 18341614802085969556
351380 3 10807941470447691052
394222 165 18191861232557372795
474 4 18262796259466683866
6034566 193 18335435581018640965
6299153 45 18335974278435713944
633830 44 18337388236686980246
7288768 16 18113341911703671570
76465 3 9151164355227017101
8199 26 18412261701245993416
9981440 41 18410852200813104322

>  <PUBCHEM_SHAPE_MULTIPOLES>  (1) 
362.55
10.43
3.42
1.14
15.27
0.82
-0.06
-12.64
2.71
0.62
-0.08
-0.36
0.14
-1.39

>  <PUBCHEM_SHAPE_SELFOVERLAP>  (1) 
747.465

>  <PUBCHEM_SHAPE_VOLUME>  (1) 
207.3

>  <PUBCHEM_COORDINATE_TYPE>  (1) 
2
5
10

$$$$
