26142
     RDKit          3D

 19 20  0  0  1  0  0  0  0  0999 V2000
    0.9930    0.2659    0.7586 O   0  0  0  0  0  0  0  0  0  0  0  0
    2.7655    0.9675   -1.4025 O   0  0  0  0  0  0  0  0  0  0  0  0
    0.2915    2.9079    1.3358 O   0  0  0  0  0  0  0  0  0  0  0  0
   -5.1474   -1.6646    0.2289 O   0  0  0  0  0  0  0  0  0  0  0  0
   -2.3119    0.6747   -0.0667 N   0  0  0  0  0  0  0  0  0  0  0  0
   -0.3725    2.1721    0.3079 C   0  0  0  0  0  0  0  0  0  0  0  0
    0.6302    1.1887   -0.2776 C   0  0  0  0  0  0  0  0  0  0  0  0
   -1.6036    1.4895    0.9110 C   0  0  0  0  0  0  0  0  0  0  0  0
    1.8745    1.9036   -0.7878 C   0  0  0  0  0  0  0  0  0  0  0  0
   -3.4213   -0.0432    0.5648 C   0  0  0  0  0  0  0  0  0  0  0  0
    2.0837   -0.4897    0.4177 C   0  0  0  0  0  0  0  0  0  0  0  0
    2.9364   -0.1556   -0.6366 C   0  0  0  0  0  0  0  0  0  0  0  0
   -2.8069    1.5030   -1.1685 C   0  0  0  0  0  0  0  0  0  0  0  0
   -4.0910   -0.9780   -0.4296 C   0  0  0  0  0  0  0  0  0  0  0  0
    2.3314   -1.6300    1.1824 C   0  0  0  0  0  0  0  0  0  0  0  0
    4.0120   -0.9850   -0.9551 C   0  0  0  0  0  0  0  0  0  0  0  0
    3.4151   -2.4517    0.8719 C   0  0  0  0  0  0  0  0  0  0  0  0
    4.2511   -2.1325   -0.1986 C   0  0  0  0  0  0  0  0  0  0  0  0
   -5.8299   -2.5425   -0.6558 C   0  0  0  0  0  0  0  0  0  0  0  0
  1  7  1  0
  1 11  1  0
  2  9  1  0
  2 12  1  0
  3  6  1  0
  4 14  1  0
  4 19  1  0
  5  8  1  0
  5 10  1  0
  5 13  1  0
  6  7  1  0
  6  8  1  0
  7  9  1  0
 10 14  1  0
 11 12  2  0
 11 15  1  0
 12 16  1  0
 15 17  2  0
 16 18  2  0
 17 18  1  0
M  END
>  <PUBCHEM_COMPOUND_CID>  (1) 
26142

>  <PUBCHEM_CONFORMER_RMSD>  (1) 
0.8

>  <PUBCHEM_CONFORMER_DIVERSEORDER>  (1) 
2
84
27
206
35
109
129
31
161
173
171
121
178
198
162
164
36
80
142
112
99
10
160
72
66
87
60
79
18
202
86
139
76
12
48
125
52
203
136
156
16
57
201
49
90
169
61
8
174
123
143
1
42
116
95
13
146
65
182
75
118
120
127
26
28
157
107
111
30
91
119
11
88
54
82
9
77
85
150
3
15
186
40
181
45
133
152
37
188
175
137
197
38
102
53
105
6
159
58
132
192
180
138
140
144
20
39
124
103
113
170
148
51
17
21
134
98
145
25
43
22
70
97
50
7
71
177
167
196
59
44
67
4
168
153
141
104
55
64
47
19
93
83
5
100
126
200
151
122
135
193
185
89
110
114
29
205
41
106
23
155
62
131
149
108
183
158
14
184
194
187
32
46
163
74
172
63
130
189
78
101
165
176
190
166
34
191
195
96
73
199
179
117
92
147
204
154
33
69
115
24
94
128
68
81
56

>  <PUBCHEM_MMFF94_PARTIAL_CHARGES>  (1) 
24
1 -0.36
10 0.27
11 0.08
12 0.08
13 0.27
14 0.28
15 -0.15
16 -0.15
17 -0.15
18 -0.15
19 0.28
2 -0.36
3 -0.68
31 0.4
34 0.15
35 0.15
36 0.15
37 0.15
4 -0.56
5 -0.81
6 0.28
7 0.28
8 0.27
9 0.28

>  <PUBCHEM_EFFECTIVE_ROTOR_COUNT>  (1) 
6.8

>  <PUBCHEM_PHARMACOPHORE_FEATURES>  (1) 
8
1 1 acceptor
1 2 acceptor
1 3 acceptor
1 3 donor
1 4 acceptor
1 5 cation
6 1 2 7 9 11 12 rings
6 11 12 15 16 17 18 rings

>  <PUBCHEM_HEAVY_ATOM_COUNT>  (1) 
19

>  <PUBCHEM_ATOM_DEF_STEREO_COUNT>  (1) 
0

>  <PUBCHEM_ATOM_UDEF_STEREO_COUNT>  (1) 
2

>  <PUBCHEM_BOND_DEF_STEREO_COUNT>  (1) 
0

>  <PUBCHEM_BOND_UDEF_STEREO_COUNT>  (1) 
0

>  <PUBCHEM_ISOTOPIC_ATOM_COUNT>  (1) 
0

>  <PUBCHEM_COMPONENT_COUNT>  (1) 
1

>  <PUBCHEM_CACTVS_TAUTO_COUNT>  (1) 
1

>  <PUBCHEM_CONFORMER_ID>  (1) 
0000661E00000002

>  <PUBCHEM_MMFF94_ENERGY>  (1) 
57.8976

>  <PUBCHEM_FEATURE_SELFOVERLAP>  (1) 
40.642

>  <PUBCHEM_SHAPE_FINGERPRINT>  (1) 
10042902 136 18051981316544410806
11578080 2 18264471907131197636
11796584 16 18268711610591240023
11806522 49 18335424526489589632
122479 349 9727631709301486477
12403259 118 10087628282907613093
12824470 246 18341899584577589209
13103583 49 17845670187415974435
13533116 47 18198061594287200483
13955234 65 17839462529512896617
13965767 371 10087641442851243262
1420 369 18343302569878062591
14251731 5 18410009944793405343
14576447 43 18334299751621670006
14767858 380 18189634863898590220
14787075 74 18340772641305163752
15188451 53 16271918364342533367
15342816 4 18341905094614246804
1741750 31 8502357941102643600
18186145 218 13984960467235044420
18915474 69 18408326570520701542
200 152 17605846815620261528
20281475 54 18410294718431768809
20291156 8 18411136909456407471
20388580 30 18408044034813617469
20626108 58 17822834399910792440
20645477 70 18262797488270253623
20775438 99 17762878254493642371
21033648 29 14692303794248946761
21054139 6 18188214204734638694
21634736 98 18334864909140789062
21713013 43 18113331994993417845
21864079 5 9078819801623570259
221490 88 18114474421565111016
22646028 28 18338802212623517688
23379529 103 18341622468639808374
23503958 8 18058169414665015850
235170 7 16588016948815503695
23559900 14 18268135466984095256
23598288 3 18129946654834516837
270888 7 8502653705778900791
2838139 119 12542425508830289694
2871803 45 18040997379801965763
3004659 81 18260545615284161031
351380 3 18343304786239560039
4259306 186 18335420205684113159
44062 13 18335696088708012431
46194498 28 17024307629646039047
465052 167 18200038477307225167
556388 4 18335699464067484235
6786 2 16550003751839917088
7808743 9 8502073163396393655
7970288 3 18343303639167242375
88748 71 18334577910899705811
960060 61 18114460171480996375

>  <PUBCHEM_SHAPE_MULTIPOLES>  (1) 
362.55
10.27
3.15
1.2
11.34
0.1
0
11.03
-2.31
0.76
0.38
-0.39
-0.24
-1.06

>  <PUBCHEM_SHAPE_SELFOVERLAP>  (1) 
746.331

>  <PUBCHEM_SHAPE_VOLUME>  (1) 
209.1

>  <PUBCHEM_COORDINATE_TYPE>  (1) 
2
5
10

$$$$
