26156
     RDKit          3D

 11 12  0  0  0  0  0  0  0  0999 V2000
    3.5234   -0.6807   -0.0004 S   0  0  0  0  0  0  0  0  0  0  0  0
    1.1465    0.7559    0.0000 N   0  0  0  0  0  0  0  0  0  0  0  0
   -0.4407   -0.8926    0.0003 C   0  0  0  0  0  0  0  0  0  0  0  0
   -0.2352    0.4871    0.0004 C   0  0  0  0  0  0  0  0  0  0  0  0
    0.8746   -1.6017    0.0003 C   0  0  0  0  0  0  0  0  0  0  0  0
    1.8757   -0.4426    0.0002 C   0  0  0  0  0  0  0  0  0  0  0  0
   -1.7169   -1.4252   -0.0002 C   0  0  0  0  0  0  0  0  0  0  0  0
   -1.2960    1.3768    0.0003 C   0  0  0  0  0  0  0  0  0  0  0  0
    1.6562    2.1157   -0.0003 C   0  0  0  0  0  0  0  0  0  0  0  0
   -2.7983   -0.5411   -0.0005 C   0  0  0  0  0  0  0  0  0  0  0  0
   -2.5893    0.8485    0.0000 C   0  0  0  0  0  0  0  0  0  0  0  0
  1  6  2  0
  2  4  1  0
  2  6  1  0
  2  9  1  0
  3  4  2  0
  3  5  1  0
  3  7  1  0
  4  8  1  0
  5  6  1  0
  7 10  2  0
  8 11  2  0
 10 11  1  0
M  END
>  <PUBCHEM_COMPOUND_CID>  (1) 
26156

>  <PUBCHEM_CONFORMER_RMSD>  (1) 
0.4

>  <PUBCHEM_CONFORMER_DIVERSEORDER>  (1) 
1

>  <PUBCHEM_MMFF94_PARTIAL_CHARGES>  (1) 
15
1 -0.38
10 -0.15
11 -0.15
14 0.15
15 0.15
19 0.15
2 -0.48
20 0.15
3 -0.14
4 0.12
5 0.2
6 0.38
7 -0.15
8 -0.15
9 0.3

>  <PUBCHEM_EFFECTIVE_ROTOR_COUNT>  (1) 
0.4

>  <PUBCHEM_PHARMACOPHORE_FEATURES>  (1) 
3
1 1 acceptor
5 2 3 4 5 6 rings
6 3 4 7 8 10 11 rings

>  <PUBCHEM_HEAVY_ATOM_COUNT>  (1) 
11

>  <PUBCHEM_ATOM_DEF_STEREO_COUNT>  (1) 
0

>  <PUBCHEM_ATOM_UDEF_STEREO_COUNT>  (1) 
0

>  <PUBCHEM_BOND_DEF_STEREO_COUNT>  (1) 
0

>  <PUBCHEM_BOND_UDEF_STEREO_COUNT>  (1) 
0

>  <PUBCHEM_ISOTOPIC_ATOM_COUNT>  (1) 
0

>  <PUBCHEM_COMPONENT_COUNT>  (1) 
1

>  <PUBCHEM_CACTVS_TAUTO_COUNT>  (1) 
2

>  <PUBCHEM_CONFORMER_ID>  (1) 
0000662C00000001

>  <PUBCHEM_MMFF94_ENERGY>  (1) 
35.7943

>  <PUBCHEM_FEATURE_SELFOVERLAP>  (1) 
15.31

>  <PUBCHEM_SHAPE_FINGERPRINT>  (1) 
10465860 71 18269860669541985244
11206711 2 18336263461828934679
12032990 46 18340212886438002478
12423570 1 11328202725679359570
12897270 3 18409728486711623359
14128692 85 18413390955569637102
14325111 11 18410575106296365824
16945 1 18410575054746117831
193761 8 18050287273598472614
19973954 147 18338518641750401761
20201158 50 18412261705541097175
21040471 1 18122625217178568932
21501502 16 18339364183303393981
2334 1 18194402427113902693
23402655 69 18123733276672693925
23463225 33 18263360296553375970
23552423 10 18261955266173034791
23559900 14 18270120098931996270
2748010 2 18265895946001380391
369184 2 18272086123562104491
5084963 1 18273495693010480819
528886 8 18339073787700708643
53812653 166 18341326687200069120
7364860 26 18270963578341620912

>  <PUBCHEM_SHAPE_MULTIPOLES>  (1) 
225.24
4.47
1.91
0.62
1.36
0.53
0
-0.5
0
0.25
0
0.02
-0.01
0

>  <PUBCHEM_SHAPE_SELFOVERLAP>  (1) 
472.719

>  <PUBCHEM_SHAPE_VOLUME>  (1) 
129.8

>  <PUBCHEM_COORDINATE_TYPE>  (1) 
2
5
10

$$$$
