26155
     RDKit          3D

 14 14  0  0  0  0  0  0  0  0999 V2000
    2.9050   -2.2177   -0.0582 Cl  0  0  0  0  0  0  0  0  0  0  0  0
    4.0723    0.6851    0.7716 Cl  0  0  0  0  0  0  0  0  0  0  0  0
   -2.1905   -0.1575    0.8670 N   0  0  0  0  0  0  0  0  0  0  0  0
   -1.4232    0.1399   -1.3499 N   0  0  0  0  0  0  0  0  0  0  0  0
   -3.7485   -0.1850   -0.8971 N   0  0  0  0  0  0  0  0  0  0  0  0
   -2.4233   -0.0578   -0.5172 C   0  0  0  0  0  0  0  0  0  0  0  0
   -0.1167    0.2537   -0.8472 C   0  0  0  0  0  0  0  0  0  0  0  0
   -1.9114   -1.4179    1.5511 C   0  0  0  0  0  0  0  0  0  0  0  0
   -2.3376    1.0121    1.7326 C   0  0  0  0  0  0  0  0  0  0  0  0
    0.6722   -0.8845   -0.7083 C   0  0  0  0  0  0  0  0  0  0  0  0
    0.3807    1.5041   -0.4914 C   0  0  0  0  0  0  0  0  0  0  0  0
    1.9699   -0.7714   -0.2092 C   0  0  0  0  0  0  0  0  0  0  0  0
    1.6781    1.6172    0.0076 C   0  0  0  0  0  0  0  0  0  0  0  0
    2.4728    0.4796    0.1486 C   0  0  0  0  0  0  0  0  0  0  0  0
  1 12  1  0
  2 14  1  0
  3  6  1  0
  3  8  1  0
  3  9  1  0
  4  6  2  0
  4  7  1  0
  5  6  1  0
  7 10  2  0
  7 11  1  0
 10 12  1  0
 11 13  2  0
 12 14  2  0
 13 14  1  0
M  END
>  <PUBCHEM_COMPOUND_CID>  (1) 
26155

>  <PUBCHEM_CONFORMER_RMSD>  (1) 
0.6

>  <PUBCHEM_CONFORMER_DIVERSEORDER>  (1) 
1
2

>  <PUBCHEM_MMFF94_PARTIAL_CHARGES>  (1) 
19
1 -0.18
10 -0.15
11 -0.15
12 0.18
13 -0.15
14 0.18
2 -0.18
21 0.15
22 0.15
23 0.15
24 0.4
25 0.4
3 -0.79
4 -0.63
5 -0.85
6 0.55
7 0.18
8 0.37
9 0.37

>  <PUBCHEM_EFFECTIVE_ROTOR_COUNT>  (1) 
2

>  <PUBCHEM_PHARMACOPHORE_FEATURES>  (1) 
3
1 5 donor
4 3 4 5 6 cation
6 7 10 11 12 13 14 rings

>  <PUBCHEM_HEAVY_ATOM_COUNT>  (1) 
14

>  <PUBCHEM_ATOM_DEF_STEREO_COUNT>  (1) 
0

>  <PUBCHEM_ATOM_UDEF_STEREO_COUNT>  (1) 
0

>  <PUBCHEM_BOND_DEF_STEREO_COUNT>  (1) 
0

>  <PUBCHEM_BOND_UDEF_STEREO_COUNT>  (1) 
0

>  <PUBCHEM_ISOTOPIC_ATOM_COUNT>  (1) 
0

>  <PUBCHEM_COMPONENT_COUNT>  (1) 
1

>  <PUBCHEM_CACTVS_TAUTO_COUNT>  (1) 
2

>  <PUBCHEM_CONFORMER_ID>  (1) 
0000662B00000001

>  <PUBCHEM_MMFF94_ENERGY>  (1) 
53.4912

>  <PUBCHEM_FEATURE_SELFOVERLAP>  (1) 
15.223

>  <PUBCHEM_SHAPE_FINGERPRINT>  (1) 
10219947 1 18410568518169981300
11471102 22 18410012147911116092
12202030 40 17749683933985219179
12346645 44 17775560970853062144
12382932 28 18261112997622440778
124424 183 17603854624624929920
12491281 212 15912782681700161072
13296909 8 16629388143514852491
13764800 53 14332866880245240627
13839132 238 13973423321657504841
15207287 21 17895740885523812591
15309172 13 18341611559728038830
15375358 24 17968084326830729596
15775835 57 16988853773506700633
16945 1 18335990839027954964
19766037 51 18117577149274906558
200 152 18129934697892951959
201361 129 17847065471903318128
20201158 50 18186795885482539802
20279233 1 17967530172938759774
20281407 28 17749113274850188546
20645477 70 18339910516176411014
23402539 116 17531789343075441295
23419403 2 15222668724043559748
23557571 272 16660915583512306524
23559900 14 17604147026679215878
2748010 2 18195512698331276300
305870 269 17131565959075859318
568465 68 18337113492013238744
63268167 104 18272080600160386828
77492 1 17561359591001062759
81228 2 17605552146014174260

>  <PUBCHEM_SHAPE_MULTIPOLES>  (1) 
276.91
5.89
1.76
1.38
0.61
0.44
-0.39
0.4
-1.15
1.26
-0.24
-1.15
0
0.21

>  <PUBCHEM_SHAPE_SELFOVERLAP>  (1) 
549.206

>  <PUBCHEM_SHAPE_VOLUME>  (1) 
166.6

>  <PUBCHEM_COORDINATE_TYPE>  (1) 
2
5
10

$$$$
