26153
     RDKit          3D

 25 27  0  0  1  0  0  0  0  0999 V2000
    1.5786   -2.0985   -0.1113 N   0  0  0  0  0  0  0  0  0  0  0  0
   -1.8121   -0.4474    0.6318 C   0  0  0  0  0  0  0  0  0  0  0  0
   -0.7777   -1.4237    0.0125 C   0  0  0  0  0  0  0  0  0  0  0  0
    0.6478   -1.1646    0.5134 C   0  0  0  0  0  0  0  0  0  0  0  0
    2.9393   -1.8585    0.3468 C   0  0  0  0  0  0  0  0  0  0  0  0
   -1.4778    1.0197    0.3785 C   0  0  0  0  0  0  0  0  0  0  0  0
   -3.2531   -0.7589    0.2482 C   0  0  0  0  0  0  0  0  0  0  0  0
    3.8787   -2.9485   -0.2087 C   0  0  0  0  0  0  0  0  0  0  0  0
    3.3737   -0.4450    0.0042 C   0  0  0  0  0  0  0  0  0  0  0  0
    5.3052   -2.8278    0.3152 C   0  0  0  0  0  0  0  0  0  0  0  0
   -0.6915    1.6882    1.2917 C   0  0  0  0  0  0  0  0  0  0  0  0
   -4.2612   -0.4424    1.1347 C   0  0  0  0  0  0  0  0  0  0  0  0
   -1.9741    1.6268   -0.7548 C   0  0  0  0  0  0  0  0  0  0  0  0
   -3.5042   -1.3479   -0.9734 C   0  0  0  0  0  0  0  0  0  0  0  0
    4.2185    0.2255    0.8681 C   0  0  0  0  0  0  0  0  0  0  0  0
    2.9129    0.1345   -1.1625 C   0  0  0  0  0  0  0  0  0  0  0  0
   -0.3864    3.0295    1.0603 C   0  0  0  0  0  0  0  0  0  0  0  0
   -5.5807   -0.7281    0.7837 C   0  0  0  0  0  0  0  0  0  0  0  0
   -1.6689    2.9680   -0.9863 C   0  0  0  0  0  0  0  0  0  0  0  0
   -4.8237   -1.6334   -1.3244 C   0  0  0  0  0  0  0  0  0  0  0  0
    4.6175    1.5247    0.5536 C   0  0  0  0  0  0  0  0  0  0  0  0
    3.3119    1.4336   -1.4773 C   0  0  0  0  0  0  0  0  0  0  0  0
   -0.8751    3.6693   -0.0786 C   0  0  0  0  0  0  0  0  0  0  0  0
   -5.8618   -1.3235   -0.4460 C   0  0  0  0  0  0  0  0  0  0  0  0
    4.1641    2.1286   -0.6191 C   0  0  0  0  0  0  0  0  0  0  0  0
  1  4  1  0
  1  5  1  0
  2  3  1  0
  2  6  1  0
  2  7  1  0
  3  4  1  0
  5  8  1  0
  5  9  1  0
  6 11  2  0
  6 13  1  0
  7 12  2  0
  7 14  1  0
  8 10  1  0
  9 15  2  0
  9 16  1  0
 11 17  1  0
 12 18  1  0
 13 19  2  0
 14 20  2  0
 15 21  1  0
 16 22  2  0
 17 23  2  0
 18 24  2  0
 19 23  1  0
 20 24  1  0
 21 25  2  0
 22 25  1  0
M  END
>  <PUBCHEM_COMPOUND_CID>  (1) 
26153

>  <PUBCHEM_CONFORMER_RMSD>  (1) 
0.8

>  <PUBCHEM_CONFORMER_DIVERSEORDER>  (1) 
1
29
48
56
75
25
68
65
46
45
41
70
52
40
73
71
42
22
51
32
49
50
69
34
59
10
66
35
27
17
74
64
33
72
53
19
21
38
37
15
57
4
76
39
14
67
78
18
58
31
36
54
2
62
9
44
16
3
61
55
24
43
6
60
7
12
5
26
63
23
20
47
30
77
11
28
13
8

>  <PUBCHEM_MMFF94_PARTIAL_CHARGES>  (1) 
38
1 -0.9
11 -0.15
12 -0.15
13 -0.15
14 -0.15
15 -0.15
16 -0.15
17 -0.15
18 -0.15
19 -0.15
2 0.29
20 -0.15
21 -0.15
22 -0.15
23 -0.15
24 -0.15
25 -0.15
32 0.36
38 0.15
39 0.15
4 0.27
40 0.15
41 0.15
42 0.15
43 0.15
44 0.15
45 0.15
46 0.15
47 0.15
48 0.15
49 0.15
5 0.41
50 0.15
51 0.15
52 0.15
6 -0.14
7 -0.14
9 -0.14

>  <PUBCHEM_EFFECTIVE_ROTOR_COUNT>  (1) 
8

>  <PUBCHEM_PHARMACOPHORE_FEATURES>  (1) 
6
1 1 cation
1 1 donor
1 10 hydrophobe
6 6 11 13 17 19 23 rings
6 7 12 14 18 20 24 rings
6 9 15 16 21 22 25 rings

>  <PUBCHEM_HEAVY_ATOM_COUNT>  (1) 
25

>  <PUBCHEM_ATOM_DEF_STEREO_COUNT>  (1) 
0

>  <PUBCHEM_ATOM_UDEF_STEREO_COUNT>  (1) 
1

>  <PUBCHEM_BOND_DEF_STEREO_COUNT>  (1) 
0

>  <PUBCHEM_BOND_UDEF_STEREO_COUNT>  (1) 
0

>  <PUBCHEM_ISOTOPIC_ATOM_COUNT>  (1) 
0

>  <PUBCHEM_COMPONENT_COUNT>  (1) 
1

>  <PUBCHEM_CACTVS_TAUTO_COUNT>  (1) 
1

>  <PUBCHEM_CONFORMER_ID>  (1) 
0000662900000001

>  <PUBCHEM_MMFF94_ENERGY>  (1) 
71.1082

>  <PUBCHEM_FEATURE_SELFOVERLAP>  (1) 
30.446

>  <PUBCHEM_SHAPE_FINGERPRINT>  (1) 
10090160 65 18260261983965005002
10670039 82 18262252070790410940
11014199 57 18194125118946825596
11135609 187 18122062271863837953
12107698 1 18336544911474301722
12166972 35 18113898269336019532
12403259 226 18339075974377255896
12403260 363 18336544911484623882
12422481 6 18117301176468170561
13004483 165 18412821361539231271
13533116 47 18408042909954484274
14251757 17 17023169540321232351
14347332 77 18339926991955872574
14787075 74 18335700593633060875
14790565 3 18339368466208967953
14840074 17 18272657899947593719
17492 54 18190468357535988756
17492 89 18338514115166621338
1813 80 18343312483010273981
192875 21 18040152937718429532
20715895 44 17749657528979815069
20775530 9 18335702676897752274
2132832 1 17971448755208152634
21792934 111 18339919325723644497
22749437 52 18336542695366031400
23352939 185 18343865545885910433
23557571 272 18201440238014063082
23559900 14 18266167327915812778
24771750 20 17465674789790580669
312423 11 18337967687946651810
345986 75 17918280856892732785
34797466 226 15697444450360439051
350125 39 18338524023787515874
463206 1 18339077223696040622
5283173 99 17968647212866290941
59755656 215 18408891754690605790
70251023 43 18337958870073423115
7164475 11 18338235964457083428

>  <PUBCHEM_SHAPE_MULTIPOLES>  (1) 
509.51
12.14
3.92
1.23
2.96
1.94
0.13
-7.45
0.56
-2.29
0.21
0.35
0.33
-0.82

>  <PUBCHEM_SHAPE_SELFOVERLAP>  (1) 
1085.083

>  <PUBCHEM_SHAPE_VOLUME>  (1) 
281.5

>  <PUBCHEM_COORDINATE_TYPE>  (1) 
2
5
10

$$$$
