26157
     RDKit          3D

 12 13  0  0  1  0  0  0  0  0999 V2000
   -3.4679   -0.0168    0.3291 S   0  0  0  0  0  0  0  0  0  0  0  0
   -0.9466    1.0724   -0.0460 N   0  0  0  0  0  0  0  0  0  0  0  0
   -0.9378   -1.2890    0.2893 C   0  0  0  0  0  0  0  0  0  0  0  0
    0.4531   -0.7267    0.1820 C   0  0  0  0  0  0  0  0  0  0  0  0
    0.3958    0.6518   -0.0229 C   0  0  0  0  0  0  0  0  0  0  0  0
   -1.8070   -0.0166    0.1680 C   0  0  0  0  0  0  0  0  0  0  0  0
   -1.2207   -2.3025   -0.8146 C   0  0  0  0  0  0  0  0  0  0  0  0
    1.6701   -1.3828    0.2635 C   0  0  0  0  0  0  0  0  0  0  0  0
    1.5452    1.4126   -0.1615 C   0  0  0  0  0  0  0  0  0  0  0  0
   -1.2987    2.4705   -0.2270 C   0  0  0  0  0  0  0  0  0  0  0  0
    2.8384   -0.6299    0.1262 C   0  0  0  0  0  0  0  0  0  0  0  0
    2.7762    0.7570   -0.0860 C   0  0  0  0  0  0  0  0  0  0  0  0
  1  6  2  0
  2  5  1  0
  2  6  1  0
  2 10  1  0
  3  4  1  0
  3  6  1  0
  3  7  1  0
  4  5  2  0
  4  8  1  0
  5  9  1  0
  8 11  2  0
  9 12  2  0
 11 12  1  0
M  END
>  <PUBCHEM_COMPOUND_CID>  (1) 
26157

>  <PUBCHEM_CONFORMER_RMSD>  (1) 
0.4

>  <PUBCHEM_CONFORMER_DIVERSEORDER>  (1) 
1
2

>  <PUBCHEM_MMFF94_PARTIAL_CHARGES>  (1) 
15
1 -0.38
10 0.3
11 -0.15
12 -0.15
17 0.15
18 0.15
2 -0.48
22 0.15
23 0.15
3 0.2
4 -0.14
5 0.12
6 0.38
8 -0.15
9 -0.15

>  <PUBCHEM_EFFECTIVE_ROTOR_COUNT>  (1) 
0.4

>  <PUBCHEM_PHARMACOPHORE_FEATURES>  (1) 
3
1 1 acceptor
5 2 3 4 5 6 rings
6 4 5 8 9 11 12 rings

>  <PUBCHEM_HEAVY_ATOM_COUNT>  (1) 
12

>  <PUBCHEM_ATOM_DEF_STEREO_COUNT>  (1) 
0

>  <PUBCHEM_ATOM_UDEF_STEREO_COUNT>  (1) 
1

>  <PUBCHEM_BOND_DEF_STEREO_COUNT>  (1) 
0

>  <PUBCHEM_BOND_UDEF_STEREO_COUNT>  (1) 
0

>  <PUBCHEM_ISOTOPIC_ATOM_COUNT>  (1) 
0

>  <PUBCHEM_COMPONENT_COUNT>  (1) 
1

>  <PUBCHEM_CACTVS_TAUTO_COUNT>  (1) 
2

>  <PUBCHEM_CONFORMER_ID>  (1) 
0000662D00000001

>  <PUBCHEM_MMFF94_ENERGY>  (1) 
39.3597

>  <PUBCHEM_FEATURE_SELFOVERLAP>  (1) 
15.309

>  <PUBCHEM_SHAPE_FINGERPRINT>  (1) 
10219947 1 18411144627987418211
10967382 1 18410012164795547209
11206711 2 18263647272924107861
12032990 46 18335712662623128851
12524768 44 18412270557368415503
14325111 11 18409731729364699369
14993402 34 18342175604998399463
15775835 57 18340494459966534048
16945 1 18410851062255775970
17844478 74 17822015315440713045
193761 8 17690000037948227027
20871998 184 18271530883106946455
21040471 1 18266175037566751248
21501502 16 18268144447459582266
2334 1 17977665642795540834
23402539 116 18272640251747665125
23402655 69 18266442223868172965
23463225 33 18408606976166496091
23552423 10 18117840121289503494
23559900 14 18054793876479375310
241688 4 15385842382211843496
2748010 2 18050284769595375590
5084963 1 18201436913556297979
5255222 1 18340761628317744896
528886 8 18338232781633174594
53812654 25 18342165700339636571

>  <PUBCHEM_SHAPE_MULTIPOLES>  (1) 
245.82
4.26
2.27
0.71
0.36
0.27
0.03
0.09
-0.36
0.58
0.42
0.11
-0.14
-0.22

>  <PUBCHEM_SHAPE_SELFOVERLAP>  (1) 
514.087

>  <PUBCHEM_SHAPE_VOLUME>  (1) 
142.9

>  <PUBCHEM_COORDINATE_TYPE>  (1) 
2
5
10

$$$$
