26169
     RDKit          3D

 23 24  0  0  0  0  0  0  0  0999 V2000
   -1.5225    0.3817    0.4194 O   0  0  0  0  0  0  0  0  0  0  0  0
   -1.4731   -1.7727   -0.3921 O   0  0  0  0  0  0  0  0  0  0  0  0
    2.1107    2.6909    0.1630 N   0  0  0  0  0  0  0  0  0  0  0  0
    0.5470   -0.6859    0.2512 N   0  0  0  0  0  0  0  0  0  0  0  0
    1.5357    1.4582   -0.3744 C   0  0  0  0  0  0  0  0  0  0  0  0
    1.1408    0.5213    0.7577 C   0  0  0  0  0  0  0  0  0  0  0  0
    3.2896    2.3931    0.9757 C   0  0  0  0  0  0  0  0  0  0  0  0
    2.4562    3.6088   -0.9217 C   0  0  0  0  0  0  0  0  0  0  0  0
    1.4135   -1.8417    0.0236 C   0  0  0  0  0  0  0  0  0  0  0  0
    3.8647    3.6569    1.5924 C   0  0  0  0  0  0  0  0  0  0  0  0
    1.2422    3.9295   -1.7771 C   0  0  0  0  0  0  0  0  0  0  0  0
   -0.8624   -0.7946    0.0346 C   0  0  0  0  0  0  0  0  0  0  0  0
    0.8789   -3.0792    0.2232 C   0  0  0  0  0  0  0  0  0  0  0  0
    2.6948   -1.6010   -0.3728 C   0  0  0  0  0  0  0  0  0  0  0  0
    1.7051   -4.1817    0.0058 C   0  0  0  0  0  0  0  0  0  0  0  0
    3.5208   -2.7037   -0.5904 C   0  0  0  0  0  0  0  0  0  0  0  0
    3.0259   -3.9941   -0.4011 C   0  0  0  0  0  0  0  0  0  0  0  0
   -2.9102    0.3587    0.2395 C   0  0  0  0  0  0  0  0  0  0  0  0
   -3.7010   -0.0944    1.2704 C   0  0  0  0  0  0  0  0  0  0  0  0
   -3.4259    0.7897   -0.9613 C   0  0  0  0  0  0  0  0  0  0  0  0
   -5.0840   -0.1180    1.0905 C   0  0  0  0  0  0  0  0  0  0  0  0
   -4.8089    0.7661   -1.1410 C   0  0  0  0  0  0  0  0  0  0  0  0
   -5.6380    0.3123   -0.1150 C   0  0  0  0  0  0  0  0  0  0  0  0
  1 12  1  0
  1 18  1  0
  2 12  2  0
  3  5  1  0
  3  7  1  0
  3  8  1  0
  4  6  1  0
  4  9  1  0
  4 12  1  0
  5  6  1  0
  7 10  1  0
  8 11  1  0
  9 13  2  0
  9 14  1  0
 13 15  1  0
 14 16  2  0
 15 17  2  0
 16 17  1  0
 18 19  2  0
 18 20  1  0
 19 21  1  0
 20 22  2  0
 21 23  2  0
 22 23  1  0
M  END
>  <PUBCHEM_COMPOUND_CID>  (1) 
26169

>  <PUBCHEM_CONFORMER_RMSD>  (1) 
1

>  <PUBCHEM_CONFORMER_DIVERSEORDER>  (1) 
1
60
49
20
91
85
84
45
33
50
53
76
65
47
89
69
16
31
12
73
94
83
70
54
43
68
90
8
57
34
80
29
3
11
77
95
4
61
66
17
30
13
75
26
23
15
88
55
74
21
24
52
7
56
82
14
67
97
22
92
79
96
42
5
81
64
93
46
86
71
10
28
62
35
32
59
40
41
6
36
18
37
72
78
25
51
38
19
2
9
87
27
48
58
44
39
63

>  <PUBCHEM_MMFF94_PARTIAL_CHARGES>  (1) 
31
1 -0.23
12 0.78
13 -0.15
14 -0.15
15 -0.15
16 -0.15
17 -0.15
18 0.08
19 -0.15
2 -0.57
20 -0.15
21 -0.15
22 -0.15
23 -0.15
3 -0.81
38 0.15
39 0.15
4 -0.48
40 0.15
41 0.15
42 0.15
43 0.15
44 0.15
45 0.15
46 0.15
47 0.15
5 0.27
6 0.3
7 0.27
8 0.27
9 0.12

>  <PUBCHEM_EFFECTIVE_ROTOR_COUNT>  (1) 
9

>  <PUBCHEM_PHARMACOPHORE_FEATURES>  (1) 
4
1 2 acceptor
1 3 cation
6 18 19 20 21 22 23 rings
6 9 13 14 15 16 17 rings

>  <PUBCHEM_HEAVY_ATOM_COUNT>  (1) 
23

>  <PUBCHEM_ATOM_DEF_STEREO_COUNT>  (1) 
0

>  <PUBCHEM_ATOM_UDEF_STEREO_COUNT>  (1) 
0

>  <PUBCHEM_BOND_DEF_STEREO_COUNT>  (1) 
0

>  <PUBCHEM_BOND_UDEF_STEREO_COUNT>  (1) 
0

>  <PUBCHEM_ISOTOPIC_ATOM_COUNT>  (1) 
0

>  <PUBCHEM_COMPONENT_COUNT>  (1) 
1

>  <PUBCHEM_CACTVS_TAUTO_COUNT>  (1) 
1

>  <PUBCHEM_CONFORMER_ID>  (1) 
0000663900000001

>  <PUBCHEM_MMFF94_ENERGY>  (1) 
78.9605

>  <PUBCHEM_FEATURE_SELFOVERLAP>  (1) 
20.297

>  <PUBCHEM_SHAPE_FINGERPRINT>  (1) 
11045515 52 17976264538590671927
11582403 64 17058637693895651240
12173636 292 17619066574153725868
12403259 327 16515954990552895585
12788726 201 17037536570687660699
13134695 92 18194117421790457495
13140716 1 18340485676816683210
13690498 29 17119749280017048582
138480 1 18337957770587499572
13955234 65 18413111658252323747
14251757 5 17398107154104831533
15042514 8 17113534277987834394
15230672 131 18193277619574879908
16988056 13 18262510382344239341
17913733 40 18197791087886538891
1813 80 17914062996891506927
18785283 64 18334863843603738914
1979834 28 18262238927721356261
20642791 105 17763166334643582088
21049683 271 18336278842608098382
21304303 282 17480553359361634700
21641784 216 17757580476905339926
22149856 69 18266759042346904115
22182313 1 18115010923310929669
2255824 54 18342459218515713775
23558518 356 18046620380961645658
23559900 14 18186807946399585863
23598288 3 17396137306404891520
283562 15 17688037409978458098
3091708 16 9400981119831045842
474 4 18340199782149553435
5047190 48 17686077375824784379
5385378 56 18413112783307226664
57124632 79 18412257372077377232
7164475 11 17543920005699334646
7364860 26 18412545401020979802
79837 15 17905884030835474066
9841814 1 18188485757545293730
9981440 41 18123180470614017035

>  <PUBCHEM_SHAPE_MULTIPOLES>  (1) 
451.63
9.43
5.9
1.25
15.03
0.37
0
1.6
-0.87
-11.48
0.98
0.02
1.22
1.54

>  <PUBCHEM_SHAPE_SELFOVERLAP>  (1) 
939.923

>  <PUBCHEM_SHAPE_VOLUME>  (1) 
256.2

>  <PUBCHEM_COORDINATE_TYPE>  (1) 
2
5
10

$$$$
