26183
     RDKit          3D

 19 19  0  0  0  0  0  0  0  0999 V2000
   -1.0706   -1.3013   -0.9380 O   0  0  0  0  0  0  0  0  0  0  0  0
   -1.6407   -1.0939    1.3077 O   0  0  0  0  0  0  0  0  0  0  0  0
    4.3265    2.2404    0.2706 O   0  0  0  0  0  0  0  0  0  0  0  0
    2.1298    2.1430   -0.3578 O   0  0  0  0  0  0  0  0  0  0  0  0
   -3.2104   -0.7948   -0.3757 N   0  0  0  0  0  0  0  0  0  0  0  0
    3.3450    0.2141    0.1925 N   0  0  0  0  0  0  0  0  0  0  0  0
   -4.4974    0.9842    0.7383 C   0  0  0  0  0  0  0  0  0  0  0  0
   -4.7006    1.8099   -0.5340 C   0  0  0  0  0  0  0  0  0  0  0  0
   -4.3487   -0.5064    0.4520 C   0  0  0  0  0  0  0  0  0  0  0  0
   -4.9058    3.2822   -0.2135 C   0  0  0  0  0  0  0  0  0  0  0  0
   -1.9464   -1.0645    0.1193 C   0  0  0  0  0  0  0  0  0  0  0  0
    0.2361   -1.5838   -0.5285 C   0  0  0  0  0  0  0  0  0  0  0  0
    2.4248   -0.8222    0.0310 C   0  0  0  0  0  0  0  0  0  0  0  0
    1.1211   -0.5402   -0.3771 C   0  0  0  0  0  0  0  0  0  0  0  0
    0.5857   -2.8945   -0.2932 C   0  0  0  0  0  0  0  0  0  0  0  0
    2.8089   -2.1403    0.2770 C   0  0  0  0  0  0  0  0  0  0  0  0
    1.8893   -3.1764    0.1150 C   0  0  0  0  0  0  0  0  0  0  0  0
    3.1579    1.5804   -0.0013 C   0  0  0  0  0  0  0  0  0  0  0  0
    4.2955    3.6641    0.1155 C   0  0  0  0  0  0  0  0  0  0  0  0
  1 11  1  0
  1 12  1  0
  2 11  2  0
  3 18  1  0
  3 19  1  0
  4 18  2  0
  5  9  1  0
  5 11  1  0
  6 13  1  0
  6 18  1  0
  7  8  1  0
  7  9  1  0
  8 10  1  0
 12 14  2  0
 12 15  1  0
 13 14  1  0
 13 16  2  0
 15 17  2  0
 16 17  1  0
M  END
>  <PUBCHEM_COMPOUND_CID>  (1) 
26183

>  <PUBCHEM_CONFORMER_RMSD>  (1) 
1

>  <PUBCHEM_CONFORMER_DIVERSEORDER>  (1) 
1
165
129
96
39
138
17
58
139
69
141
76
98
151
38
28
114
47
137
29
75
193
155
169
101
103
175
127
95
184
20
71
150
154
144
19
63
109
185
11
179
143
85
130
21
43
132
140
68
84
49
156
107
57
119
12
134
131
148
36
133
87
108
56
99
157
26
62
86
70
24
171
31
64
176
161
147
61
173
88
153
136
104
152
164
66
181
163
93
40
120
78
4
112
5
77
149
97
124
118
34
178
187
53
194
48
22
60
25
52
177
192
162
7
121
167
117
67
182
79
174
80
23
116
51
128
27
188
146
94
166
41
6
83
37
183
18
65
172
189
110
142
105
135
10
191
126
170
54
113
123
145
111
46
89
102
115
82
186
15
158
81
125
106
160
30
9
14
74
50
122
190
92
3
73
59
16
35
91
32
180
13
90
45
2
55
8
168
33
44
159
100
72
42

>  <PUBCHEM_MMFF94_PARTIAL_CHARGES>  (1) 
22
1 -0.23
11 0.78
12 0.08
13 0.12
14 -0.15
15 -0.15
16 -0.15
17 -0.15
18 0.78
19 0.28
2 -0.57
29 0.37
3 -0.43
30 0.15
31 0.15
32 0.15
33 0.15
34 0.37
4 -0.57
5 -0.73
6 -0.55
9 0.3

>  <PUBCHEM_EFFECTIVE_ROTOR_COUNT>  (1) 
9

>  <PUBCHEM_PHARMACOPHORE_FEATURES>  (1) 
6
1 10 hydrophobe
1 2 acceptor
1 4 acceptor
1 5 donor
1 6 donor
6 12 13 14 15 16 17 rings

>  <PUBCHEM_HEAVY_ATOM_COUNT>  (1) 
19

>  <PUBCHEM_ATOM_DEF_STEREO_COUNT>  (1) 
0

>  <PUBCHEM_ATOM_UDEF_STEREO_COUNT>  (1) 
0

>  <PUBCHEM_BOND_DEF_STEREO_COUNT>  (1) 
0

>  <PUBCHEM_BOND_UDEF_STEREO_COUNT>  (1) 
0

>  <PUBCHEM_ISOTOPIC_ATOM_COUNT>  (1) 
0

>  <PUBCHEM_COMPONENT_COUNT>  (1) 
1

>  <PUBCHEM_CACTVS_TAUTO_COUNT>  (1) 
4

>  <PUBCHEM_CONFORMER_ID>  (1) 
0000664700000001

>  <PUBCHEM_MMFF94_ENERGY>  (1) 
39.4999

>  <PUBCHEM_FEATURE_SELFOVERLAP>  (1) 
30.446

>  <PUBCHEM_SHAPE_FINGERPRINT>  (1) 
10382601 240 18113608024083420146
12390115 104 18051147079091237262
12403259 118 18340473492142352235
12549972 3 17677918754522255819
12769317 202 18272365390841703520
13583140 156 18117293458406392347
13878862 14 18044639928892071821
14123255 52 18268149936512117674
14251764 38 18195810670167172473
14251764 75 18342188798911891745
14790565 3 18191593153974385860
14848178 96 18413103940254394017
15295992 7 17970361321371089875
16760501 71 18339653231363041401
17868525 174 17974562503128185506
20621476 13 18338796698144544241
20715895 44 17909546165145234393
20832881 197 17609782998107133227
21065198 57 18264773169148295763
21304253 13 18267858381759399138
21315764 268 18117837690955686357
21475661 188 18262514767763823377
21709351 56 18342452587191879671
23559900 14 18195808470858950323
3459 39 17986370386697005432
394222 165 18409724093192838458
474 4 18411698807043056442
5104073 3 18260553277901255411
5365585 94 8608179870861890240
633830 44 18343302599911231222
7808743 9 18051693540660265968
9981440 41 18336826519230508635

>  <PUBCHEM_SHAPE_MULTIPOLES>  (1) 
357.57
10.51
4.5
0.81
10.62
2.89
-0.06
10.96
-0.77
-4.07
0.13
0.39
-0.13
0.48

>  <PUBCHEM_SHAPE_SELFOVERLAP>  (1) 
722.646

>  <PUBCHEM_SHAPE_VOLUME>  (1) 
207.4

>  <PUBCHEM_COORDINATE_TYPE>  (1) 
2
5
10

$$$$
