26182
     RDKit          3D

 14 14  0  0  0  0  0  0  0  0999 V2000
   -2.3986    0.4921   -0.0016 O   0  0  0  0  0  0  0  0  0  0  0  0
    4.5213    1.6379   -0.0004 O   0  0  0  0  0  0  0  0  0  0  0  0
   -1.3227   -1.5261   -0.0022 O   0  0  0  0  0  0  0  0  0  0  0  0
   -0.1457    0.5026    0.0004 N   0  0  0  0  0  0  0  0  0  0  0  0
   -4.7766    0.8374   -0.0044 C   0  0  0  0  0  0  0  0  0  0  0  0
   -3.6570   -0.1922   -0.0040 C   0  0  0  0  0  0  0  0  0  0  0  0
    1.1946    0.1151    0.0015 C   0  0  0  0  0  0  0  0  0  0  0  0
   -6.1461    0.1826    0.0083 C   0  0  0  0  0  0  0  0  0  0  0  0
    2.2000    1.0821    0.0010 C   0  0  0  0  0  0  0  0  0  0  0  0
    1.5293   -1.2391    0.0012 C   0  0  0  0  0  0  0  0  0  0  0  0
   -1.2826   -0.3017   -0.0009 C   0  0  0  0  0  0  0  0  0  0  0  0
    3.5401    0.6948    0.0003 C   0  0  0  0  0  0  0  0  0  0  0  0
    2.8693   -1.6263    0.0005 C   0  0  0  0  0  0  0  0  0  0  0  0
    3.8747   -0.6594    0.0002 C   0  0  0  0  0  0  0  0  0  0  0  0
  1  6  1  0
  1 11  1  0
  2 12  1  0
  3 11  2  0
  4  7  1  0
  4 11  1  0
  5  6  1  0
  5  8  1  0
  7  9  2  0
  7 10  1  0
  9 12  1  0
 10 13  2  0
 12 14  2  0
 13 14  1  0
M  END
>  <PUBCHEM_COMPOUND_CID>  (1) 
26182

>  <PUBCHEM_CONFORMER_RMSD>  (1) 
0.6

>  <PUBCHEM_CONFORMER_DIVERSEORDER>  (1) 
1
63
16
52
55
70
44
12
25
37
64
58
41
50
9
67
43
71
14
75
39
73
42
45
76
24
10
40
51
3
65
26
23
60
35
66
8
34
21
62
17
47
69
33
5
32
72
57
36
74
19
18
68
61
22
6
46
49
38
20
54
56
27
15
11
7
48
28
13
30
53
2
4
29
31
59

>  <PUBCHEM_MMFF94_PARTIAL_CHARGES>  (1) 
18
1 -0.43
10 -0.15
11 0.78
12 0.08
13 -0.15
14 -0.15
2 -0.53
22 0.37
23 0.15
24 0.15
25 0.15
26 0.15
27 0.45
3 -0.57
4 -0.55
6 0.28
7 0.12
9 -0.15

>  <PUBCHEM_EFFECTIVE_ROTOR_COUNT>  (1) 
5

>  <PUBCHEM_PHARMACOPHORE_FEATURES>  (1) 
5
1 2 donor
1 3 acceptor
1 4 donor
1 8 hydrophobe
6 7 9 10 12 13 14 rings

>  <PUBCHEM_HEAVY_ATOM_COUNT>  (1) 
14

>  <PUBCHEM_ATOM_DEF_STEREO_COUNT>  (1) 
0

>  <PUBCHEM_ATOM_UDEF_STEREO_COUNT>  (1) 
0

>  <PUBCHEM_BOND_DEF_STEREO_COUNT>  (1) 
0

>  <PUBCHEM_BOND_UDEF_STEREO_COUNT>  (1) 
0

>  <PUBCHEM_ISOTOPIC_ATOM_COUNT>  (1) 
0

>  <PUBCHEM_COMPONENT_COUNT>  (1) 
1

>  <PUBCHEM_CACTVS_TAUTO_COUNT>  (1) 
13

>  <PUBCHEM_CONFORMER_ID>  (1) 
0000664600000001

>  <PUBCHEM_MMFF94_ENERGY>  (1) 
28.0862

>  <PUBCHEM_FEATURE_SELFOVERLAP>  (1) 
25.372

>  <PUBCHEM_SHAPE_FINGERPRINT>  (1) 
10912923 1 18060419093387154099
11287383 113 18260269663861856779
11471102 20 18411699881053450828
13081056 2 18334857191015973597
13167372 99 18199472069899901273
14123238 8 18059855061054423229
15196674 1 18410574015332727975
15242433 33 18343582949658926071
17834072 33 18272366495059326255
17834076 25 18343864420024145164
200 152 18060416902842939729
20279233 1 17749116581985491403
20645477 56 18259982708211743589
20645477 70 18341332188874275454
21267235 1 18340212890669529806
212847 35 18272930509695301145
23048698 100 18343305846615914595
23402539 116 17988636381582909381
23402655 69 18272087205835847455
23532345 1 18334861636190937464
29717793 49 17632580405187685917
300161 21 18272362088269854213
33824 294 18334294236599046306
3545911 37 18409732875951986925
366044 4 18409729565123266331
4047638 21 18334859415756090354
42788 4 18410575072411244709
449060 50 18334295391865809317
449060 62 18412826893515098156
5104073 3 18409448111109625131
522135 26 18410856534065288062
5374978 207 18335134276335615304
542803 24 17346882239286312681
69090 78 18411415111969076271
77779 3 18410575067963264139
8272917 22 18272374126747089862

>  <PUBCHEM_SHAPE_MULTIPOLES>  (1) 
265.52
11.44
1.45
0.59
14.83
0.16
0
-2.62
0.01
-1.51
0
0
0.01
0

>  <PUBCHEM_SHAPE_SELFOVERLAP>  (1) 
538.837

>  <PUBCHEM_SHAPE_VOLUME>  (1) 
154.1

>  <PUBCHEM_COORDINATE_TYPE>  (1) 
2
5
10

$$$$
