26194
     RDKit          3D

 23 25  0  0  1  0  0  0  0  0999 V2000
    1.5382    0.7967    0.2680 O   0  0  0  0  0  0  0  0  0  0  0  0
   -0.2615   -0.0461    1.7347 O   0  0  0  0  0  0  0  0  0  0  0  0
    0.7016   -0.2584   -1.5964 O   0  0  0  0  0  0  0  0  0  0  0  0
    4.7968   -0.1820   -0.3040 N   0  0  0  0  0  0  0  0  0  0  0  0
    2.7679    1.0189   -0.4078 C   0  0  0  0  0  0  0  0  0  0  0  0
    3.7614    1.7208    0.5150 C   0  0  0  0  0  0  0  0  0  0  0  0
    3.4089   -0.3251   -0.7495 C   0  0  0  0  0  0  0  0  0  0  0  0
    4.7353    0.6236    0.9144 C   0  0  0  0  0  0  0  0  0  0  0  0
    5.4501   -1.4648   -0.0922 C   0  0  0  0  0  0  0  0  0  0  0  0
   -0.7163   -0.0196    0.3712 C   0  0  0  0  0  0  0  0  0  0  0  0
    0.5684    0.1375   -0.4434 C   0  0  0  0  0  0  0  0  0  0  0  0
   -1.6454    1.1825    0.1815 C   0  0  0  0  0  0  0  0  0  0  0  0
   -1.3906   -1.3814    0.1488 C   0  0  0  0  0  0  0  0  0  0  0  0
   -2.7578    1.2871    0.9839 C   0  0  0  0  0  0  0  0  0  0  0  0
   -2.4336   -1.4562   -0.7417 C   0  0  0  0  0  0  0  0  0  0  0  0
   -1.3311    2.1113   -0.7832 C   0  0  0  0  0  0  0  0  0  0  0  0
   -0.9211   -2.4652    0.8495 C   0  0  0  0  0  0  0  0  0  0  0  0
   -3.6042    2.3825    0.8114 C   0  0  0  0  0  0  0  0  0  0  0  0
   -3.0459   -2.6930   -0.9439 C   0  0  0  0  0  0  0  0  0  0  0  0
   -2.1775    3.2066   -0.9555 C   0  0  0  0  0  0  0  0  0  0  0  0
   -1.5335   -3.7020    0.6471 C   0  0  0  0  0  0  0  0  0  0  0  0
   -3.3140    3.3422   -0.1582 C   0  0  0  0  0  0  0  0  0  0  0  0
   -2.5959   -3.8158   -0.2496 C   0  0  0  0  0  0  0  0  0  0  0  0
  1  5  1  0
  1 11  1  0
  2 10  1  0
  3 11  2  0
  4  7  1  0
  4  8  1  0
  4  9  1  0
  5  6  1  0
  5  7  1  0
  6  8  1  0
 10 11  1  0
 10 12  1  0
 10 13  1  0
 12 14  2  0
 12 16  1  0
 13 15  2  0
 13 17  1  0
 14 18  1  0
 15 19  1  0
 16 20  2  0
 17 21  2  0
 18 22  2  0
 19 23  2  0
 20 22  1  0
 21 23  1  0
M  END
>  <PUBCHEM_COMPOUND_CID>  (1) 
26194

>  <PUBCHEM_CONFORMER_RMSD>  (1) 
0.8

>  <PUBCHEM_CONFORMER_DIVERSEORDER>  (1) 
11
88
90
13
104
55
32
73
8
81
43
78
53
56
17
46
33
98
92
30
2
65
77
45
95
21
103
44
38
89
49
18
25
12
39
48
84
86
57
75
59
91
67
31
62
102
10
19
64
105
74
100
83
27
7
87
34
54
36
94
3
40
1
37
28
68
6
99
96
35
41
101
61
79
58
93
63
47
5
20
82
71
60
29
4
14
42
85
15
23
76
70
24
50
72
97
52
16
69
80
51
22
66
9
26

>  <PUBCHEM_MMFF94_PARTIAL_CHARGES>  (1) 
33
1 -0.43
10 0.63
11 0.66
12 -0.14
13 -0.14
14 -0.15
15 -0.15
16 -0.15
17 -0.15
18 -0.15
19 -0.15
2 -0.68
20 -0.15
21 -0.15
22 -0.15
23 -0.15
3 -0.57
34 0.4
35 0.15
36 0.15
37 0.15
38 0.15
39 0.15
4 -0.81
40 0.15
41 0.15
42 0.15
43 0.15
44 0.15
5 0.28
7 0.27
8 0.27
9 0.27

>  <PUBCHEM_EFFECTIVE_ROTOR_COUNT>  (1) 
6

>  <PUBCHEM_PHARMACOPHORE_FEATURES>  (1) 
7
1 2 acceptor
1 2 donor
1 3 acceptor
1 4 cation
5 4 5 6 7 8 rings
6 12 14 16 18 20 22 rings
6 13 15 17 19 21 23 rings

>  <PUBCHEM_HEAVY_ATOM_COUNT>  (1) 
23

>  <PUBCHEM_ATOM_DEF_STEREO_COUNT>  (1) 
0

>  <PUBCHEM_ATOM_UDEF_STEREO_COUNT>  (1) 
1

>  <PUBCHEM_BOND_DEF_STEREO_COUNT>  (1) 
0

>  <PUBCHEM_BOND_UDEF_STEREO_COUNT>  (1) 
0

>  <PUBCHEM_ISOTOPIC_ATOM_COUNT>  (1) 
0

>  <PUBCHEM_COMPONENT_COUNT>  (1) 
1

>  <PUBCHEM_CACTVS_TAUTO_COUNT>  (1) 
1

>  <PUBCHEM_CONFORMER_ID>  (1) 
000066520000000B

>  <PUBCHEM_MMFF94_ENERGY>  (1) 
70.9757

>  <PUBCHEM_FEATURE_SELFOVERLAP>  (1) 
35.522

>  <PUBCHEM_SHAPE_FINGERPRINT>  (1) 
10319926 262 18269536348425327480
1100329 8 17978506434463707834
11045515 52 17900815260819588365
11101153 10 17904205072728718932
11265709 11 17977109277264575491
11405975 8 18341892974949799400
11578080 2 15331309294662173777
11833330 49 18264765648364635209
121448 382 18340751668731742917
12160290 23 18124065466074069787
12346177 29 18411416207222289780
12422481 6 18055664843642505107
12500047 106 18337955589218756380
12549972 3 17774987008492601642
12553582 1 17831883595229587786
12643181 29 18196096539512742166
12788726 201 18263636436827050154
13004483 165 18124027090156658382
13134695 92 17549818237089133959
13681431 1 17474102584871267361
13955234 65 17546174000541806809
14178000 22 18337388223627809933
14178342 30 18335408102571521402
14251740 79 18411408506214416879
14508225 48 18195799898225033885
14866123 147 18409728426445593883
15042514 8 18336554914526604011
15230672 131 18118411632036873470
15842332 3 17822866389196705484
16728300 4 17244692369642806784
17539 30 18341323504966926015
17913733 40 17981908353963598753
1813 80 17838357511299222783
19591789 44 18265900142543248043
20286276 3 18411144671190357100
20600515 1 17838352017925287707
21033648 29 18266730286739711536
21304303 282 18049406375990660477
21478907 32 18338236101922780851
21524375 3 18189344463463275897
21703447 108 18196920283720844754
22224240 67 18271817761981009361
23175994 123 17975130156630484575
23402539 116 18341045332883583799
23419403 2 17202188810857081121
23536364 44 18265590226673276207
23557571 272 18122323933812864880
23558518 356 18261960759826661448
23559900 14 18267295624799508856
23728640 28 18334867094899308979
255183 313 18270978881610400819
3027735 51 18343301470140062439
3298306 158 17902521380516911742
3729539 64 17620494410472954950
38695281 34 17977945687806728297
44062 13 18340493283657490318
5104073 3 18271799143228572912
5265222 85 18117302301986745494
532947 4 17763746490363046374
5385378 56 17761219812684823145
559249 180 18339358544739730786
5924683 9 18411693322865379674
59755656 520 18339920394775225933
6669772 16 18055075350237352151
7164475 11 18265053715984341588
7364860 26 17543916698494907933
7399639 24 17696738227793562160
81228 2 18265052616546547337
9709674 26 18342744035393666902
9862522 239 17823690859123496933

>  <PUBCHEM_SHAPE_MULTIPOLES>  (1) 
450.74
8.53
4.59
1.15
14.57
2.07
-0.05
-1.15
-0.26
-6.93
0.2
-0.21
-0.04
-0.02

>  <PUBCHEM_SHAPE_SELFOVERLAP>  (1) 
975.528

>  <PUBCHEM_SHAPE_VOLUME>  (1) 
247.9

>  <PUBCHEM_COORDINATE_TYPE>  (1) 
2
5
10

$$$$
