26203
     RDKit          3D

 15 16  0  0  0  0  0  0  0  0999 V2000
    2.5025   -3.2115    0.3695 Cl  0  0  0  0  0  0  0  0  0  0  0  0
    3.2618    1.9332   -0.4514 S   0  0  0  0  0  0  0  0  0  0  0  0
    0.8509    0.8134   -0.2092 N   0  0  0  0  0  0  0  0  0  0  0  0
    0.5213   -1.5340    0.1645 N   0  0  0  0  0  0  0  0  0  0  0  0
    2.7437   -0.6510   -0.0344 N   0  0  0  0  0  0  0  0  0  0  0  0
   -1.3362   -0.0747   -0.0110 C   0  0  0  0  0  0  0  0  0  0  0  0
    0.0965   -0.2770   -0.0190 C   0  0  0  0  0  0  0  0  0  0  0  0
   -1.8666    1.1391    0.4264 C   0  0  0  0  0  0  0  0  0  0  0  0
   -2.1870   -1.0929   -0.4413 C   0  0  0  0  0  0  0  0  0  0  0  0
   -3.2477    1.3346    0.4339 C   0  0  0  0  0  0  0  0  0  0  0  0
   -3.5681   -0.8973   -0.4339 C   0  0  0  0  0  0  0  0  0  0  0  0
   -4.0984    0.3165    0.0037 C   0  0  0  0  0  0  0  0  0  0  0  0
    2.1675    0.5497   -0.2049 C   0  0  0  0  0  0  0  0  0  0  0  0
    1.8594   -1.6456    0.1445 C   0  0  0  0  0  0  0  0  0  0  0  0
    2.3004    3.2975    0.2625 C   0  0  0  0  0  0  0  0  0  0  0  0
  1 14  1  0
  2 13  1  0
  2 15  1  0
  3  7  2  0
  3 13  1  0
  4  7  1  0
  4 14  2  0
  5 13  2  0
  5 14  1  0
  6  7  1  0
  6  8  2  0
  6  9  1  0
  8 10  1  0
  9 11  2  0
 10 12  2  0
 11 12  1  0
M  END
>  <PUBCHEM_COMPOUND_CID>  (1) 
26203

>  <PUBCHEM_CONFORMER_RMSD>  (1) 
0.6

>  <PUBCHEM_CONFORMER_DIVERSEORDER>  (1) 
1
2
5
6
3
4

>  <PUBCHEM_MMFF94_PARTIAL_CHARGES>  (1) 
19
1 -0.18
10 -0.15
11 -0.15
12 -0.15
13 0.72
14 0.8
15 0.23
16 0.15
17 0.15
18 0.15
19 0.15
2 -0.33
20 0.15
3 -0.62
4 -0.62
5 -0.62
7 0.62
8 -0.15
9 -0.15

>  <PUBCHEM_EFFECTIVE_ROTOR_COUNT>  (1) 
2

>  <PUBCHEM_PHARMACOPHORE_FEATURES>  (1) 
6
1 15 hydrophobe
3 3 4 7 cation
3 3 5 13 cation
3 4 5 14 cation
6 3 4 5 7 13 14 rings
6 6 8 9 10 11 12 rings

>  <PUBCHEM_HEAVY_ATOM_COUNT>  (1) 
15

>  <PUBCHEM_ATOM_DEF_STEREO_COUNT>  (1) 
0

>  <PUBCHEM_ATOM_UDEF_STEREO_COUNT>  (1) 
0

>  <PUBCHEM_BOND_DEF_STEREO_COUNT>  (1) 
0

>  <PUBCHEM_BOND_UDEF_STEREO_COUNT>  (1) 
0

>  <PUBCHEM_ISOTOPIC_ATOM_COUNT>  (1) 
0

>  <PUBCHEM_COMPONENT_COUNT>  (1) 
1

>  <PUBCHEM_CACTVS_TAUTO_COUNT>  (1) 
1

>  <PUBCHEM_CONFORMER_ID>  (1) 
0000665B00000001

>  <PUBCHEM_MMFF94_ENERGY>  (1) 
35.4246

>  <PUBCHEM_FEATURE_SELFOVERLAP>  (1) 
33.23

>  <PUBCHEM_SHAPE_FINGERPRINT>  (1) 
10608611 8 18335699425539294717
10967382 1 18410575110469987868
10980938 120 18409167709953826308
12346645 44 18339080505008577452
12553582 1 17903915561234986650
13380535 76 18262236750077361714
14144814 61 18340206289336333979
14325111 11 18411420613753324805
15442244 35 18195529186066984625
15536298 74 18343022181506550126
15669948 3 17917987317547929727
15775835 57 18341338871980369005
16945 1 18410009935691852218
17041 49 18195530285525936411
18186145 218 18341619247308392892
19422 9 18341895152203026887
201361 129 18411705399923097256
20510252 161 17691976276870850424
20559304 39 18411699850946520824
20645477 70 18335696109935455007
20671657 1 18411703188236362566
212916 134 18055616559825956880
21499 59 18191302878176350372
21501502 16 18341894065496867919
21524375 3 18269275845135794380
21639500 275 18337096943087710573
221490 88 18335993007686168355
2255824 54 18409169879102500718
22854114 111 18410576205655090801
23463225 33 18268429044846161007
23559900 14 18340759356285320139
2748010 2 17974022931114337654
3071541 12 18410296913001593574
3091708 16 9257147350928915754
474 4 18262238953079495636
5104073 3 18409451371548692643
54173680 148 17255961170179957954
57096353 35 18270396217361425869
58051976 378 18270397320767132998
603831 33 18129931412174398975
6333272 397 18193838373475608480
6992083 37 17766571148439850249
7364860 26 18411419492819614590
74978 22 18339362963828217479
7832392 63 18196656198323143969
81228 2 17328304645836278242
84936 182 18270962448512144768
9709674 26 18410296908564851035
9981440 41 18121210145935356560

>  <PUBCHEM_SHAPE_MULTIPOLES>  (1) 
299.47
6.76
3.18
0.7
4.15
0.18
-0.01
-1.43
-0.29
-4.21
0.45
0.04
-0.03
-0.7

>  <PUBCHEM_SHAPE_SELFOVERLAP>  (1) 
617.864

>  <PUBCHEM_SHAPE_VOLUME>  (1) 
173.5

>  <PUBCHEM_COORDINATE_TYPE>  (1) 
2
5
10

$$$$
