26219
     RDKit          3D

 20 22  0  0  1  0  0  0  0  0999 V2000
   -0.4447   -2.2985    0.3087 O   0  0  0  0  0  0  0  0  0  0  0  0
    0.3185   -0.0833   -0.0460 N   0  0  0  0  0  0  0  0  0  0  0  0
   -0.3865    2.6312    1.9725 N   0  0  0  0  0  0  0  0  0  0  0  0
   -0.0643    1.3355   -0.2972 C   0  0  0  0  0  0  0  0  0  0  0  0
    1.7327   -0.3840    0.0265 C   0  0  0  0  0  0  0  0  0  0  0  0
    2.6614    0.4978   -0.5624 C   0  0  0  0  0  0  0  0  0  0  0  0
    0.9351    2.0749   -1.1347 C   0  0  0  0  0  0  0  0  0  0  0  0
    2.2063    1.6896   -1.2698 C   0  0  0  0  0  0  0  0  0  0  0  0
   -0.6481   -1.1034    0.1005 C   0  0  0  0  0  0  0  0  0  0  0  0
    2.2268   -1.5249    0.6802 C   0  0  0  0  0  0  0  0  0  0  0  0
    4.0355    0.2169   -0.5202 C   0  0  0  0  0  0  0  0  0  0  0  0
   -2.0657   -0.7412   -0.0438 C   0  0  0  0  0  0  0  0  0  0  0  0
    3.5980   -1.7928    0.7260 C   0  0  0  0  0  0  0  0  0  0  0  0
    4.5013   -0.9262    0.1227 C   0  0  0  0  0  0  0  0  0  0  0  0
   -0.2446    2.0603    0.9725 C   0  0  0  0  0  0  0  0  0  0  0  0
   -2.6691   -0.8002   -1.2959 C   0  0  0  0  0  0  0  0  0  0  0  0
   -2.7927   -0.3421    1.0730 C   0  0  0  0  0  0  0  0  0  0  0  0
   -4.0140   -0.4561   -1.4327 C   0  0  0  0  0  0  0  0  0  0  0  0
   -4.1376    0.0018    0.9364 C   0  0  0  0  0  0  0  0  0  0  0  0
   -4.7482   -0.0553   -0.3165 C   0  0  0  0  0  0  0  0  0  0  0  0
  1  9  2  0
  2  4  1  0
  2  5  1  0
  2  9  1  0
  3 15  3  0
  4  7  1  0
  4 15  1  0
  5  6  2  0
  5 10  1  0
  6  8  1  0
  6 11  1  0
  7  8  2  0
  9 12  1  0
 10 13  2  0
 11 14  2  0
 12 16  2  0
 12 17  1  0
 13 14  1  0
 16 18  1  0
 17 19  2  0
 18 20  2  0
 19 20  1  0
M  END
>  <PUBCHEM_COMPOUND_CID>  (1) 
26219

>  <PUBCHEM_CONFORMER_RMSD>  (1) 
0.6

>  <PUBCHEM_CONFORMER_DIVERSEORDER>  (1) 
1
3
6
8
7
5
4
2
12
10
9
11

>  <PUBCHEM_MMFF94_PARTIAL_CHARGES>  (1) 
31
1 -0.57
10 -0.15
11 -0.15
12 0.09
13 -0.15
14 -0.15
15 0.36
16 -0.15
17 -0.15
18 -0.15
19 -0.15
2 -0.48
20 -0.15
22 0.15
23 0.15
24 0.15
25 0.15
26 0.15
27 0.15
28 0.15
29 0.15
3 -0.56
30 0.15
31 0.15
32 0.15
4 0.64
5 0.12
6 0.03
7 -0.29
8 -0.18
9 0.54

>  <PUBCHEM_EFFECTIVE_ROTOR_COUNT>  (1) 
2.4

>  <PUBCHEM_PHARMACOPHORE_FEATURES>  (1) 
5
1 1 acceptor
1 3 acceptor
6 12 16 17 18 19 20 rings
6 2 4 5 6 7 8 rings
6 5 6 10 11 13 14 rings

>  <PUBCHEM_HEAVY_ATOM_COUNT>  (1) 
20

>  <PUBCHEM_ATOM_DEF_STEREO_COUNT>  (1) 
0

>  <PUBCHEM_ATOM_UDEF_STEREO_COUNT>  (1) 
1

>  <PUBCHEM_BOND_DEF_STEREO_COUNT>  (1) 
0

>  <PUBCHEM_BOND_UDEF_STEREO_COUNT>  (1) 
0

>  <PUBCHEM_ISOTOPIC_ATOM_COUNT>  (1) 
0

>  <PUBCHEM_COMPONENT_COUNT>  (1) 
1

>  <PUBCHEM_CACTVS_TAUTO_COUNT>  (1) 
1

>  <PUBCHEM_CONFORMER_ID>  (1) 
0000666B00000001

>  <PUBCHEM_MMFF94_ENERGY>  (1) 
67.6775

>  <PUBCHEM_FEATURE_SELFOVERLAP>  (1) 
25.398

>  <PUBCHEM_SHAPE_FINGERPRINT>  (1) 
10062212 137 18272932752169480487
104564 63 18267584615621035665
11471102 20 18186518821616687822
11578080 2 18269251548037140576
12236239 1 18202283606825390959
12293681 160 17980226358802884828
12788726 201 18201455644162429096
13132413 78 18340207401638164941
13134695 92 18271234010656765765
13140716 1 18263082291978754098
14251757 17 17313656058197982159
14787075 74 18129376171930386552
15375462 189 18412830204539381049
16752209 62 18339360764678198940
16945 1 18188207718737344820
17349148 13 18273498983240597431
17980427 23 15841544215372518977
1813 80 18337963285515444694
18186145 218 18260831526724614383
19784866 34 18047479108058851436
19784866 9 18335988567280204449
200 152 18410289186123338950
20602899 9 13696158340826545680
20645477 70 18259985985224467190
21267235 1 18260838055570951642
22112679 90 17988938768264877857
221357 26 18040701559987876261
23175994 123 18041280976355442263
23184049 59 18408605859417223758
23402539 116 18201997703225656326
23419403 2 17983256479398814864
23493267 7 16298651825176618957
23557571 272 15267070250657945307
23559900 14 18268434710657279652
3286 77 18199740513813414903
3323516 105 16805324400699841073
34934 24 18336543936669167254
537710 114 18409451388085021650
5895379 119 16414661318176705545
7471813 234 18130213930453869076
74978 22 18057884847665143295
9981440 41 16978121689959259969

>  <PUBCHEM_SHAPE_MULTIPOLES>  (1) 
395.76
8.2
2.26
1.35
2.37
0.81
-0.17
-2.78
0.95
-1.28
-0.51
0.74
0.62
-1.02

>  <PUBCHEM_SHAPE_SELFOVERLAP>  (1) 
869.55

>  <PUBCHEM_SHAPE_VOLUME>  (1) 
208.3

>  <PUBCHEM_COORDINATE_TYPE>  (1) 
2
5
10

$$$$
