26211
     RDKit          3D

 19 18  0  0  0  0  0  0  0  0999 V2000
   -1.7492    0.2122   -2.4384 S   0  0  0  0  0  0  0  0  0  0  0  0
    0.5937   -0.2657   -0.6954 P   0  0  0  0  0  0  0  0  0  0  0  0
    1.1887   -0.5972   -2.0487 O   0  0  0  0  0  0  0  0  0  0  0  0
    1.3303    1.0575    0.0331 N   0  0  0  0  0  0  0  0  0  0  0  0
    0.5842   -1.5765    0.3597 N   0  0  0  0  0  0  0  0  0  0  0  0
   -1.9165    0.7071    0.2622 N   0  0  0  0  0  0  0  0  0  0  0  0
   -1.1650    0.2775   -0.8480 C   0  0  0  0  0  0  0  0  0  0  0  0
    2.6671    0.9171    0.6094 C   0  0  0  0  0  0  0  0  0  0  0  0
    1.2664    2.3283   -0.6983 C   0  0  0  0  0  0  0  0  0  0  0  0
   -0.6089   -2.4295    0.4257 C   0  0  0  0  0  0  0  0  0  0  0  0
    1.7545   -2.4664    0.3021 C   0  0  0  0  0  0  0  0  0  0  0  0
   -3.3001    1.1573    0.1623 C   0  0  0  0  0  0  0  0  0  0  0  0
   -1.3781    0.7616    1.6238 C   0  0  0  0  0  0  0  0  0  0  0  0
    2.9811    2.0496    1.5652 C   0  0  0  0  0  0  0  0  0  0  0  0
    2.2895    2.3784   -1.8142 C   0  0  0  0  0  0  0  0  0  0  0  0
   -0.7147   -3.3306   -0.7872 C   0  0  0  0  0  0  0  0  0  0  0  0
    1.8341   -3.3581    1.5240 C   0  0  0  0  0  0  0  0  0  0  0  0
   -4.2705    0.0018    0.2950 C   0  0  0  0  0  0  0  0  0  0  0  0
   -1.3865    2.1753    2.1677 C   0  0  0  0  0  0  0  0  0  0  0  0
  1  7  2  0
  2  3  2  0
  2  4  1  0
  2  5  1  0
  2  7  1  0
  4  8  1  0
  4  9  1  0
  5 10  1  0
  5 11  1  0
  6  7  1  0
  6 12  1  0
  6 13  1  0
  8 14  1  0
  9 15  1  0
 10 16  1  0
 11 17  1  0
 12 18  1  0
 13 19  1  0
M  END
>  <PUBCHEM_COMPOUND_CID>  (1) 
26211

>  <PUBCHEM_CONFORMER_RMSD>  (1) 
1

>  <PUBCHEM_CONFORMER_DIVERSEORDER>  (1) 
1
5
3
12
2
17
18
9
4
8
6
13
16
14
10
15
7
11

>  <PUBCHEM_MMFF94_PARTIAL_CHARGES>  (1) 
13
1 -0.38
10 0.27
11 0.27
12 0.3
13 0.3
2 1.34
3 -0.7
4 -0.81
5 -0.81
6 -0.66
7 0.33
8 0.27
9 0.27

>  <PUBCHEM_EFFECTIVE_ROTOR_COUNT>  (1) 
10

>  <PUBCHEM_PHARMACOPHORE_FEATURES>  (1) 
2
1 1 acceptor
1 3 acceptor

>  <PUBCHEM_HEAVY_ATOM_COUNT>  (1) 
19

>  <PUBCHEM_ATOM_DEF_STEREO_COUNT>  (1) 
0

>  <PUBCHEM_ATOM_UDEF_STEREO_COUNT>  (1) 
0

>  <PUBCHEM_BOND_DEF_STEREO_COUNT>  (1) 
0

>  <PUBCHEM_BOND_UDEF_STEREO_COUNT>  (1) 
0

>  <PUBCHEM_ISOTOPIC_ATOM_COUNT>  (1) 
0

>  <PUBCHEM_COMPONENT_COUNT>  (1) 
1

>  <PUBCHEM_CACTVS_TAUTO_COUNT>  (1) 
1

>  <PUBCHEM_CONFORMER_ID>  (1) 
0000666300000001

>  <PUBCHEM_MMFF94_ENERGY>  (1) 
25.7814

>  <PUBCHEM_FEATURE_SELFOVERLAP>  (1) 
10.149

>  <PUBCHEM_SHAPE_FINGERPRINT>  (1) 
104564 63 17616263910345533607
12423570 1 15655853189403551589
12788726 201 17545325636234561855
14787075 74 17914330427878702897
14817 1 16688517473848955660
16752209 62 17905329881195961526
16945 1 18193528216749317876
17980427 23 17269178472409068465
19765921 60 18130776902203854353
20645476 183 18121793977766959036
21061003 4 17831852461006299919
21524375 3 18270972339594882964
22112679 90 17058336298765078765
23419403 2 17462825610984996830
23557571 272 17623581152224433240
23558518 356 18048595112650843358
2748010 2 17827611709214054260
3286 77 18116434726676173363
4340502 62 18341049709718729451
539174 4 18269824342302764160
5845 1 8643398667287172351
59755656 520 18269268122531271876
81228 2 17548154666847055562
9981440 41 16983481753605868656

>  <PUBCHEM_SHAPE_MULTIPOLES>  (1) 
377.9
4.64
3.91
2.17
2.61
3.43
-0.44
-2.31
0.99
-2.37
0.88
0.02
-0.94
-1.09

>  <PUBCHEM_SHAPE_SELFOVERLAP>  (1) 
680.102

>  <PUBCHEM_SHAPE_VOLUME>  (1) 
246.5

>  <PUBCHEM_COORDINATE_TYPE>  (1) 
2
5
10

$$$$
