26210
     RDKit          3D

 24 26  0  0  0  0  0  0  0  0999 V2000
    3.8788   -3.2834    0.0067 O   0  0  0  0  0  0  0  0  0  0  0  0
   -5.7843   -0.2832   -0.4505 O   0  0  0  0  0  0  0  0  0  0  0  0
   -0.3073    0.2549    0.1287 N   0  0  0  0  0  0  0  0  0  0  0  0
    2.6058    3.3780   -0.1240 N   0  0  0  0  0  0  0  0  0  0  0  0
    1.6894    1.1716    0.4441 C   0  0  0  0  0  0  0  0  0  0  0  0
    1.8668   -0.2281    0.2592 C   0  0  0  0  0  0  0  0  0  0  0  0
    0.3423    1.4379    0.3586 C   0  0  0  0  0  0  0  0  0  0  0  0
    0.5989   -0.7795    0.0630 C   0  0  0  0  0  0  0  0  0  0  0  0
    2.7592    2.1624    0.6864 C   0  0  0  0  0  0  0  0  0  0  0  0
   -1.6925    0.1191   -0.0176 C   0  0  0  0  0  0  0  0  0  0  0  0
    2.9879   -1.0815    0.2397 C   0  0  0  0  0  0  0  0  0  0  0  0
    0.3952   -2.1471   -0.1528 C   0  0  0  0  0  0  0  0  0  0  0  0
   -0.3734    2.7283    0.4799 C   0  0  0  0  0  0  0  0  0  0  0  0
    2.7994   -2.4516    0.0250 C   0  0  0  0  0  0  0  0  0  0  0  0
    1.5221   -2.9741   -0.1680 C   0  0  0  0  0  0  0  0  0  0  0  0
   -2.4753   -0.1182    1.1018 C   0  0  0  0  0  0  0  0  0  0  0  0
   -2.2572    0.2239   -1.2799 C   0  0  0  0  0  0  0  0  0  0  0  0
    2.6358    3.0440   -1.5451 C   0  0  0  0  0  0  0  0  0  0  0  0
    3.6560    4.3383    0.2032 C   0  0  0  0  0  0  0  0  0  0  0  0
   -3.8559   -0.2539    0.9558 C   0  0  0  0  0  0  0  0  0  0  0  0
   -3.6378    0.0883   -1.4259 C   0  0  0  0  0  0  0  0  0  0  0  0
   -4.4373   -0.1505   -0.3080 C   0  0  0  0  0  0  0  0  0  0  0  0
    3.6249   -4.6690   -0.2145 C   0  0  0  0  0  0  0  0  0  0  0  0
   -6.5416   -0.5268    0.7341 C   0  0  0  0  0  0  0  0  0  0  0  0
  1 14  1  0
  1 23  1  0
  2 22  1  0
  2 24  1  0
  3  7  1  0
  3  8  1  0
  3 10  1  0
  4  9  1  0
  4 18  1  0
  4 19  1  0
  5  6  1  0
  5  7  2  0
  5  9  1  0
  6  8  2  0
  6 11  1  0
  7 13  1  0
  8 12  1  0
 10 16  2  0
 10 17  1  0
 11 14  2  0
 12 15  2  0
 14 15  1  0
 16 20  1  0
 17 21  2  0
 20 22  2  0
 21 22  1  0
M  END
>  <PUBCHEM_COMPOUND_CID>  (1) 
26210

>  <PUBCHEM_CONFORMER_RMSD>  (1) 
0.8

>  <PUBCHEM_CONFORMER_DIVERSEORDER>  (1) 
3
5
1
2
4

>  <PUBCHEM_MMFF94_PARTIAL_CHARGES>  (1) 
30
1 -0.36
10 -0.02
11 -0.15
12 -0.15
13 0.18
14 0.08
15 -0.15
16 -0.15
17 -0.15
18 0.27
19 0.27
2 -0.36
20 -0.15
21 -0.15
22 0.08
23 0.28
24 0.28
27 0.15
28 0.15
3 0.33
32 0.15
33 0.15
34 0.15
4 -0.81
41 0.15
42 0.15
5 -0.18
7 -0.33
8 -0.15
9 0.45

>  <PUBCHEM_EFFECTIVE_ROTOR_COUNT>  (1) 
5

>  <PUBCHEM_PHARMACOPHORE_FEATURES>  (1) 
7
1 1 acceptor
1 2 acceptor
1 3 cation
1 4 cation
5 3 5 6 7 8 rings
6 10 16 17 20 21 22 rings
6 6 8 11 12 14 15 rings

>  <PUBCHEM_HEAVY_ATOM_COUNT>  (1) 
24

>  <PUBCHEM_ATOM_DEF_STEREO_COUNT>  (1) 
0

>  <PUBCHEM_ATOM_UDEF_STEREO_COUNT>  (1) 
0

>  <PUBCHEM_BOND_DEF_STEREO_COUNT>  (1) 
0

>  <PUBCHEM_BOND_UDEF_STEREO_COUNT>  (1) 
0

>  <PUBCHEM_ISOTOPIC_ATOM_COUNT>  (1) 
0

>  <PUBCHEM_COMPONENT_COUNT>  (1) 
1

>  <PUBCHEM_CACTVS_TAUTO_COUNT>  (1) 
1

>  <PUBCHEM_CONFORMER_ID>  (1) 
0000666200000003

>  <PUBCHEM_MMFF94_ENERGY>  (1) 
102.6304

>  <PUBCHEM_FEATURE_SELFOVERLAP>  (1) 
35.614

>  <PUBCHEM_SHAPE_FINGERPRINT>  (1) 
10411042 1 18195246603316447770
1100329 8 18340203111466723410
11045515 52 17973446503453087694
12107183 9 18055363431785977897
12236239 1 17561362898658623971
12293681 160 17700424847052565712
12553582 1 18198901418379177494
12730499 353 18264778825419206025
12788726 201 17181647378060229522
12895836 83 17392779354791608116
13009979 54 17774166669259192779
13140716 1 18268424827620488034
13533116 47 18342177787258523907
138480 1 18339359661119465258
13911987 19 18048316935908972645
13955234 65 18410576209955144867
14508225 48 18050837824244860020
14790565 3 17761215818407253613
15927050 60 18125723628398934950
16087824 20 17330836821110934185
17913733 40 18195821884083462257
17980427 26 17486465360185937625
1813 80 18057895636396521166
18785283 64 18334572477507158622
19319366 153 18199748222815805605
19591789 44 18050577540784746914
19784866 34 18124593338697937832
1979834 28 18115028640230496965
20101258 96 17907027183799855506
204376 136 18194117653702970817
20645477 70 18335415781651286627
20739085 24 18199755734840297802
21049683 271 18261966167501646038
22182313 1 18122316031553003332
2255824 54 18342457045309533454
23175994 123 18191870028829501999
23559900 14 18336820897519166211
23566358 27 18412259562648023847
25147074 1 18059029293162019569
283562 15 16396049545725465256
3091708 16 9215717800091496042
312423 11 18201451246426758121
3421961 26 18412542076779817211
3886686 26 17047913164947817200
4394409 98 14377638576573971783
4409770 3 17110722268209240060
458136 41 18338800146723350693
46194498 28 18040152916206436423
474 4 18341047539995659401
5104073 3 17696741174146720450
5385378 56 18339365270057136513
6025842 7 18411417358168010623
621550 34 18260542372810706205
6669772 16 18269000963371675020
6679774 75 18115292515121988122
70251023 43 18336830775796319243
77188 2 18194965145745699518
7970288 3 18124312710189084767
81228 2 17690550888979146152
8272917 22 18412547639105226773

>  <PUBCHEM_SHAPE_MULTIPOLES>  (1) 
472.21
9.83
5.12
1.05
16.96
0.68
-0.25
1.88
0.26
-11.86
-0.4
0.6
-0.4
0.07

>  <PUBCHEM_SHAPE_SELFOVERLAP>  (1) 
1021.556

>  <PUBCHEM_SHAPE_VOLUME>  (1) 
264.6

>  <PUBCHEM_COORDINATE_TYPE>  (1) 
2
5
10

$$$$
