26223
     RDKit          3D

 19 19  0  0  0  0  0  0  0  0999 V2000
   -1.0524    0.2551   -1.1113 O   0  0  0  0  0  0  0  0  0  0  0  0
   -1.3502   -2.2267   -0.5990 O   0  0  0  0  0  0  0  0  0  0  0  0
   -6.0446    1.0738    1.2026 N   0  0  0  0  0  0  0  0  0  0  0  0
    3.8042   -0.0083   -0.3801 C   0  0  0  0  0  0  0  0  0  0  0  0
    5.0561    0.6060    0.2528 C   0  0  0  0  0  0  0  0  0  0  0  0
    2.5292    0.7935   -0.1089 C   0  0  0  0  0  0  0  0  0  0  0  0
    6.3183   -0.2337    0.0444 C   0  0  0  0  0  0  0  0  0  0  0  0
    1.3100    0.1247   -0.7421 C   0  0  0  0  0  0  0  0  0  0  0  0
    7.5203    0.3882    0.7570 C   0  0  0  0  0  0  0  0  0  0  0  0
    0.0423    0.9357   -0.5135 C   0  0  0  0  0  0  0  0  0  0  0  0
    8.7698   -0.4611    0.5860 C   0  0  0  0  0  0  0  0  0  0  0  0
   -2.2838    0.4410   -0.5381 C   0  0  0  0  0  0  0  0  0  0  0  0
   -2.9984   -0.6383   -0.0297 C   0  0  0  0  0  0  0  0  0  0  0  0
   -2.8063    1.7287   -0.4740 C   0  0  0  0  0  0  0  0  0  0  0  0
   -4.2498   -0.4280    0.5494 C   0  0  0  0  0  0  0  0  0  0  0  0
   -4.7794    0.8607    0.6170 C   0  0  0  0  0  0  0  0  0  0  0  0
   -4.0577    1.9390    0.1053 C   0  0  0  0  0  0  0  0  0  0  0  0
   -2.4632   -1.9914   -0.0905 C   0  0  0  0  0  0  0  0  0  0  0  0
   -3.2645   -3.1588    0.4730 C   0  0  0  0  0  0  0  0  0  0  0  0
  1 10  1  0
  1 12  1  0
  2 18  2  0
  3 16  1  0
  4  5  1  0
  4  6  1  0
  5  7  1  0
  6  8  1  0
  7  9  1  0
  8 10  1  0
  9 11  1  0
 12 13  2  0
 12 14  1  0
 13 15  1  0
 13 18  1  0
 14 17  2  0
 15 16  2  0
 16 17  1  0
 18 19  1  0
M  END
>  <PUBCHEM_COMPOUND_CID>  (1) 
26223

>  <PUBCHEM_CONFORMER_RMSD>  (1) 
1

>  <PUBCHEM_CONFORMER_DIVERSEORDER>  (1) 
1
199
18
171
158
153
187
97
219
32
118
69
91
151
71
136
88
9
213
167
166
67
206
144
46
147
78
43
26
7
66
189
8
59
98
149
79
72
76
13
217
28
24
137
184
174
123
139
210
108
5
3
89
141
33
58
104
195
40
215
142
14
35
109
198
194
134
202
182
161
45
6
150
77
19
163
48
133
90
222
73
132
107
41
23
188
25
106
114
39
127
27
17
16
160
201
21
218
111
154
146
49
209
84
62
212
42
22
11
103
2
214
128
190
216
4
81
96
99
170
207
29
53
20
135
70
203
105
36
52
116
92
140
119
10
75
221
185
130
38
162
143
64
68
61
55
87
102
155
51
193
220
145
148
121
101
178
57
126
204
80
50
169
65
186
60
110
82
44
181
138
168
74
129
94
157
205
34
12
176
115
93
197
192
15
117
112
165
95
100
180
172
175
124
56
179
85
191
156
164
120
47
30
54
152
200
125
63
196
211
173
31
177
86
159
208
183
37
122
113
83
131

>  <PUBCHEM_MMFF94_PARTIAL_CHARGES>  (1) 
17
1 -0.36
10 0.28
12 0.08
13 0.09
14 -0.15
15 -0.15
16 0.1
17 -0.15
18 0.42
19 0.06
2 -0.57
3 -0.9
37 0.15
38 0.15
39 0.15
43 0.4
44 0.4

>  <PUBCHEM_EFFECTIVE_ROTOR_COUNT>  (1) 
9

>  <PUBCHEM_PHARMACOPHORE_FEATURES>  (1) 
8
1 1 acceptor
1 11 hydrophobe
1 2 acceptor
1 3 cation
1 3 donor
3 4 6 8 hydrophobe
3 5 7 9 hydrophobe
6 12 13 14 15 16 17 rings

>  <PUBCHEM_HEAVY_ATOM_COUNT>  (1) 
19

>  <PUBCHEM_ATOM_DEF_STEREO_COUNT>  (1) 
0

>  <PUBCHEM_ATOM_UDEF_STEREO_COUNT>  (1) 
0

>  <PUBCHEM_BOND_DEF_STEREO_COUNT>  (1) 
0

>  <PUBCHEM_BOND_UDEF_STEREO_COUNT>  (1) 
0

>  <PUBCHEM_ISOTOPIC_ATOM_COUNT>  (1) 
0

>  <PUBCHEM_COMPONENT_COUNT>  (1) 
1

>  <PUBCHEM_CACTVS_TAUTO_COUNT>  (1) 
2

>  <PUBCHEM_CONFORMER_ID>  (1) 
0000666F00000001

>  <PUBCHEM_MMFF94_ENERGY>  (1) 
49.9422

>  <PUBCHEM_FEATURE_SELFOVERLAP>  (1) 
40.622

>  <PUBCHEM_SHAPE_FINGERPRINT>  (1) 
10087517 78 11815904457349613410
10299344 5 18040155115925939060
10319926 262 18342165718141901016
11089746 13 12967126130159738594
11315181 36 18261390078800297164
11524674 6 17846494838158874982
12091667 2 17846491544092752412
12616971 3 17385728023729167932
13288520 33 11169916087047080453
13668630 136 14418133998658184936
14251764 18 18412825793971796038
14350574 20 13767930130576201884
14420673 8 18410012126737005442
14844126 61 18337393867547640363
14849402 71 18042129920462420188
14933364 13 18412825798926607448
15042514 8 18263373637170099339
15348495 7 18271801380785422360
15537594 2 17676200265340504018
15716309 27 17748827415265821576
16110190 28 18336266820926357380
17093844 174 18060129960362311810
17780758 139 18408602578098937928
21150785 3 10809347737603766920
21403212 168 18335141956449173433
220451 1 18040712559720828498
23035841 295 18260829294074641944
23402539 116 18342174484491996389
23522609 53 17750821920880080060
23559900 14 18341325682267834328
328310 630 13973677399829002290
351380 3 17240198837919787720
4073 2 18261957440460669642
4214541 1 18410011056926346892
484985 159 16950851426579249131
5104073 3 18338800147219418192
5364581 5 18126555950385605144
5486654 36 17968383475671898435
559249 180 18334573563991680647
58260988 114 16443925971722964651
5924683 9 18200871902388242759
7226269 152 18060419079874914288
9953998 17 18410569600749692304

>  <PUBCHEM_SHAPE_MULTIPOLES>  (1) 
374.29
19.7
2.2
0.91
49.6
1.8
-0.03
-1.16
-7.54
-4.29
-0.09
-0.29
-0.08
-0.23

>  <PUBCHEM_SHAPE_SELFOVERLAP>  (1) 
743.967

>  <PUBCHEM_SHAPE_VOLUME>  (1) 
223.3

>  <PUBCHEM_COORDINATE_TYPE>  (1) 
2
5
10

$$$$
