26233
     RDKit          3D

 16 16  0  0  0  0  0  0  0  0999 V2000
   -1.5180   -3.0152    0.3256 Cl  0  0  0  0  0  0  0  0  0  0  0  0
   -4.8230    0.9852   -0.0436 Cl  0  0  0  0  0  0  0  0  0  0  0  0
    0.3641    1.8902   -0.0218 S   0  0  0  0  0  0  0  0  0  0  0  0
    1.7354    0.9604   -2.4792 S   0  0  0  0  0  0  0  0  0  0  0  0
    2.4557    0.1411    0.0530 N   0  0  0  0  0  0  0  0  0  0  0  0
   -2.2383    1.3000   -0.0256 N   0  0  0  0  0  0  0  0  0  0  0  0
   -0.7139   -0.5452    0.1446 N   0  0  0  0  0  0  0  0  0  0  0  0
   -3.0805   -0.9414    0.1324 N   0  0  0  0  0  0  0  0  0  0  0  0
    3.5390   -0.6969   -0.4658 C   0  0  0  0  0  0  0  0  0  0  0  0
    2.3597    0.1411    1.5155 C   0  0  0  0  0  0  0  0  0  0  0  0
    3.0695   -2.1135   -0.7247 C   0  0  0  0  0  0  0  0  0  0  0  0
    3.2667    1.1865    2.1311 C   0  0  0  0  0  0  0  0  0  0  0  0
    1.6223    0.8992   -0.7930 C   0  0  0  0  0  0  0  0  0  0  0  0
   -1.0164    0.7553    0.0385 C   0  0  0  0  0  0  0  0  0  0  0  0
   -1.7982   -1.3363    0.1860 C   0  0  0  0  0  0  0  0  0  0  0  0
   -3.2239    0.3895    0.0269 C   0  0  0  0  0  0  0  0  0  0  0  0
  1 15  1  0
  2 16  1  0
  3 13  1  0
  3 14  1  0
  4 13  2  0
  5  9  1  0
  5 10  1  0
  5 13  1  0
  6 14  2  0
  6 16  1  0
  7 14  1  0
  7 15  2  0
  8 15  1  0
  8 16  2  0
  9 11  1  0
 10 12  1  0
M  END
>  <PUBCHEM_COMPOUND_CID>  (1) 
26233

>  <PUBCHEM_CONFORMER_RMSD>  (1) 
0.6

>  <PUBCHEM_CONFORMER_DIVERSEORDER>  (1) 
1
116
71
130
50
122
96
123
55
128
90
98
107
92
77
2
75
49
54
137
82
106
62
6
108
140
40
45
141
32
134
14
105
70
91
100
139
135
38
58
68
29
114
51
133
131
117
97
39
138
69
64
83
18
89
44
80
53
132
110
126
74
60
57
120
88
20
103
41
33
15
86
17
46
119
118
93
94
23
25
63
101
127
109
42
87
129
84
28
11
22
72
121
52
34
65
79
136
85
37
8
78
111
31
10
99
48
67
112
21
16
143
95
13
59
47
27
56
124
102
113
30
66
61
125
26
115
24
19
104
81
12
7
3
4
73
142
76
35
5
9
43
36

>  <PUBCHEM_MMFF94_PARTIAL_CHARGES>  (1) 
14
1 -0.18
10 0.3
13 0.58
14 0.72
15 0.8
16 0.8
2 -0.18
3 -0.24
4 -0.38
5 -0.66
6 -0.62
7 -0.62
8 -0.62
9 0.3

>  <PUBCHEM_EFFECTIVE_ROTOR_COUNT>  (1) 
5

>  <PUBCHEM_PHARMACOPHORE_FEATURES>  (1) 
5
1 4 acceptor
3 6 7 14 cation
3 6 8 16 cation
3 7 8 15 cation
6 6 7 8 14 15 16 rings

>  <PUBCHEM_HEAVY_ATOM_COUNT>  (1) 
16

>  <PUBCHEM_ATOM_DEF_STEREO_COUNT>  (1) 
0

>  <PUBCHEM_ATOM_UDEF_STEREO_COUNT>  (1) 
0

>  <PUBCHEM_BOND_DEF_STEREO_COUNT>  (1) 
0

>  <PUBCHEM_BOND_UDEF_STEREO_COUNT>  (1) 
0

>  <PUBCHEM_ISOTOPIC_ATOM_COUNT>  (1) 
0

>  <PUBCHEM_COMPONENT_COUNT>  (1) 
1

>  <PUBCHEM_CACTVS_TAUTO_COUNT>  (1) 
1

>  <PUBCHEM_CONFORMER_ID>  (1) 
0000667900000001

>  <PUBCHEM_MMFF94_ENERGY>  (1) 
30.0472

>  <PUBCHEM_FEATURE_SELFOVERLAP>  (1) 
28.155

>  <PUBCHEM_SHAPE_FINGERPRINT>  (1) 
10366900 7 17846502530223475912
11031198 65 14418142820062003148
12500047 106 18341891913417708674
12553582 1 17545049654780433955
12633257 1 18195777809234741400
13083527 12 17192889283153555535
13544592 145 18271806778815540578
13675066 3 18410573985710744001
14115302 16 18335150786068536404
14178342 30 18265883834283692490
15375358 24 18272359918979203512
16752209 62 18262238803130147709
16945 1 18187914067343785437
17980427 23 17898555730186622108
18522853 266 18263088862819638103
20361792 2 16733247011421552016
20645476 183 17313111877478588683
21069387 34 17988633099710826999
2255824 54 16805611420764407644
232386 152 18263640821999195452
23557571 272 18199183073686089787
23559900 14 18341895208164169860
23598291 2 17531257204784813303
2748010 2 17827908538646022341
3286 77 17774438265911342268
495365 180 17489011700160670858
7364860 26 18264777721549827204
74978 22 18336553831894164853
88987 49 18338802345894182501
9709674 26 18270395117523120187

>  <PUBCHEM_SHAPE_MULTIPOLES>  (1) 
320.79
7.22
2.42
1.62
4.34
1.89
-0.18
-0.31
0.75
0.42
-0.11
-2.35
-0.74
0.61

>  <PUBCHEM_SHAPE_SELFOVERLAP>  (1) 
599.827

>  <PUBCHEM_SHAPE_VOLUME>  (1) 
202.3

>  <PUBCHEM_COORDINATE_TYPE>  (1) 
2
5
10

$$$$
