26239
     RDKit          3D

 18 18  0  0  0  0  0  0  0  0999 V2000
   -0.4408   -1.0963    0.9598 O   0  0  0  0  0  0  0  0  0  0  0  0
   -1.1120    2.8888    0.3242 O   0  0  0  0  0  0  0  0  0  0  0  0
   -0.3000    1.4853    1.9173 O   0  0  0  0  0  0  0  0  0  0  0  0
   -5.1500    0.6022   -1.4660 N   0  0  0  0  0  0  0  0  0  0  0  0
    3.7733   -0.9283    0.0347 C   0  0  0  0  0  0  0  0  0  0  0  0
    2.2518   -0.9799   -0.1208 C   0  0  0  0  0  0  0  0  0  0  0  0
    4.4155    0.2768   -0.6582 C   0  0  0  0  0  0  0  0  0  0  0  0
    1.6619   -2.1866    0.6077 C   0  0  0  0  0  0  0  0  0  0  0  0
    5.9265    0.3690   -0.4410 C   0  0  0  0  0  0  0  0  0  0  0  0
    0.1532   -2.2710    0.4248 C   0  0  0  0  0  0  0  0  0  0  0  0
    6.5039    1.6193   -1.0874 C   0  0  0  0  0  0  0  0  0  0  0  0
   -1.5975   -0.6625    0.3659 C   0  0  0  0  0  0  0  0  0  0  0  0
   -1.9183    0.6906    0.3444 C   0  0  0  0  0  0  0  0  0  0  0  0
   -2.4455   -1.5996   -0.2153 C   0  0  0  0  0  0  0  0  0  0  0  0
   -3.1003    1.1116   -0.2649 C   0  0  0  0  0  0  0  0  0  0  0  0
   -3.9548    0.1769   -0.8496 C   0  0  0  0  0  0  0  0  0  0  0  0
   -3.6274   -1.1787   -0.8248 C   0  0  0  0  0  0  0  0  0  0  0  0
   -1.0397    1.6824    0.9491 C   0  0  0  0  0  0  0  0  0  0  0  0
  1 10  1  0
  1 12  1  0
  2 18  1  0
  3 18  2  0
  4 16  1  0
  5  6  1  0
  5  7  1  0
  6  8  1  0
  7  9  1  0
  8 10  1  0
  9 11  1  0
 12 13  2  0
 12 14  1  0
 13 15  1  0
 13 18  1  0
 14 17  2  0
 15 16  2  0
 16 17  1  0
M  END
>  <PUBCHEM_COMPOUND_CID>  (1) 
26239

>  <PUBCHEM_CONFORMER_RMSD>  (1) 
0.8

>  <PUBCHEM_CONFORMER_DIVERSEORDER>  (1) 
3
67
140
12
266
213
210
243
230
134
33
190
166
173
31
191
276
196
245
216
9
178
260
128
35
271
160
253
132
2
151
195
139
8
87
222
265
49
278
102
263
270
163
73
273
142
129
38
93
175
72
261
236
179
60
224
29
7
221
252
144
192
233
148
108
133
24
248
107
22
74
202
105
193
201
109
159
161
280
188
177
187
254
52
96
238
83
149
281
211
111
184
88
114
51
23
269
77
32
174
227
206
5
110
13
250
47
11
251
231
277
30
1
234
115
145
242
198
4
97
28
86
203
117
194
61
84
214
53
34
85
91
66
124
80
264
186
92
68
152
113
137
232
162
268
79
62
143
154
220
147
249
199
65
14
78
40
256
42
90
25
150
153
126
122
226
244
45
205
71
209
120
27
81
15
241
36
207
6
44
204
56
257
48
219
17
106
63
217
18
247
118
171
225
89
215
94
141
50
39
157
99
75
20
158
121
182
135
123
58
176
116
82
212
21
240
189
131
239
138
59
200
19
37
130
275
26
155
95
262
46
172
112
272
156
218
146
69
197
167
16
76
70
185
259
125
170
228
127
208
41
168
136
279
223
100
57
43
258
64
103
180
181
255
267
104
119
10
246
274
237
183
164
101
169
55
98
235
229
165
54

>  <PUBCHEM_MMFF94_PARTIAL_CHARGES>  (1) 
18
1 -0.36
10 0.28
12 0.08
13 0.09
14 -0.15
15 -0.15
16 0.1
17 -0.15
18 0.63
2 -0.65
3 -0.57
34 0.15
35 0.15
36 0.15
37 0.4
38 0.4
39 0.5
4 -0.9

>  <PUBCHEM_EFFECTIVE_ROTOR_COUNT>  (1) 
8

>  <PUBCHEM_PHARMACOPHORE_FEATURES>  (1) 
9
1 1 acceptor
1 11 hydrophobe
1 2 acceptor
1 3 acceptor
1 4 cation
1 4 donor
3 2 3 18 anion
5 5 6 7 8 9 hydrophobe
6 12 13 14 15 16 17 rings

>  <PUBCHEM_HEAVY_ATOM_COUNT>  (1) 
18

>  <PUBCHEM_ATOM_DEF_STEREO_COUNT>  (1) 
0

>  <PUBCHEM_ATOM_UDEF_STEREO_COUNT>  (1) 
0

>  <PUBCHEM_BOND_DEF_STEREO_COUNT>  (1) 
0

>  <PUBCHEM_BOND_UDEF_STEREO_COUNT>  (1) 
0

>  <PUBCHEM_ISOTOPIC_ATOM_COUNT>  (1) 
0

>  <PUBCHEM_COMPONENT_COUNT>  (1) 
1

>  <PUBCHEM_CACTVS_TAUTO_COUNT>  (1) 
1

>  <PUBCHEM_CONFORMER_ID>  (1) 
0000667F00000003

>  <PUBCHEM_MMFF94_ENERGY>  (1) 
50.536

>  <PUBCHEM_FEATURE_SELFOVERLAP>  (1) 
45.732

>  <PUBCHEM_SHAPE_FINGERPRINT>  (1) 
10498660 4 18410012135205588298
10871710 139 18339368461101863968
12596602 18 17168143486033994048
14251764 30 13830127317189546836
14420673 8 9078847294247717724
14790565 3 17624137101360329737
14931854 50 18413390917326804332
17492 54 18411131437552008331
17780758 139 7997697463421252798
17959699 21 18115297857237987341
1813 80 12751244735585658594
20300324 65 18202850946077003290
20871999 31 18059855043320783187
21049683 271 18335699490559981397
21304303 64 18113622266195649661
21403212 168 8213880171077817951
22926399 37 18334574612048044935
23402539 116 18341609343625426934
23557571 272 17917438630811775878
23559900 14 18270955881718412032
328317 168 18260830393185466486
4028521 119 18411139143203612654
465052 167 11023526069759039959
474 4 17967255278173933810
532947 4 17984968547488278152
58807428 26 8357976740528448269
67856867 119 18263632992764925850
9981440 41 18260268555776820954

>  <PUBCHEM_SHAPE_MULTIPOLES>  (1) 
347.84
11.94
2.5
1.19
18.63
0.24
0.15
4.71
-6.85
0.01
0.55
-0.49
0.39
-0.91

>  <PUBCHEM_SHAPE_SELFOVERLAP>  (1) 
699.482

>  <PUBCHEM_SHAPE_VOLUME>  (1) 
204.6

>  <PUBCHEM_COORDINATE_TYPE>  (1) 
2
5
10

$$$$
