26248
     RDKit          3D

 27 29  0  0  0  0  0  0  0  0999 V2000
   -1.2352   -2.3511   -0.7932 O   0  0  0  0  0  0  0  0  0  0  0  0
    3.5847   -0.6237   -0.7297 O   0  0  0  0  0  0  0  0  0  0  0  0
    1.1464   -1.4089   -0.7395 O   0  0  0  0  0  0  0  0  0  0  0  0
   -0.6259    3.4943    0.4336 O   0  0  0  0  0  0  0  0  0  0  0  0
   -5.6154   -0.4473   -0.1056 O   0  0  0  0  0  0  0  0  0  0  0  0
   -5.3940    1.7663    0.3607 O   0  0  0  0  0  0  0  0  0  0  0  0
   -1.1013   -2.8055    1.4993 O   0  0  0  0  0  0  0  0  0  0  0  0
    3.7200   -1.0788    1.5627 O   0  0  0  0  0  0  0  0  0  0  0  0
   -0.7067   -0.0274   -0.3235 C   0  0  0  0  0  0  0  0  0  0  0  0
   -1.1699    1.2538   -0.0169 C   0  0  0  0  0  0  0  0  0  0  0  0
    1.6900    0.8315   -0.2915 C   0  0  0  0  0  0  0  0  0  0  0  0
    1.2268    2.1126    0.0154 C   0  0  0  0  0  0  0  0  0  0  0  0
    0.7402   -0.2854   -0.4721 C   0  0  0  0  0  0  0  0  0  0  0  0
   -0.2201    2.3705    0.1646 C   0  0  0  0  0  0  0  0  0  0  0  0
   -1.6175   -1.0771   -0.4928 C   0  0  0  0  0  0  0  0  0  0  0  0
   -2.5437    1.4855    0.1203 C   0  0  0  0  0  0  0  0  0  0  0  0
    3.0637    0.6004   -0.4304 C   0  0  0  0  0  0  0  0  0  0  0  0
   -3.4479    0.4365   -0.0497 C   0  0  0  0  0  0  0  0  0  0  0  0
    2.1374    3.1627    0.1832 C   0  0  0  0  0  0  0  0  0  0  0  0
   -2.9859   -0.8420   -0.3556 C   0  0  0  0  0  0  0  0  0  0  0  0
    3.9678    1.6497   -0.2625 C   0  0  0  0  0  0  0  0  0  0  0  0
    3.5056    2.9282    0.0435 C   0  0  0  0  0  0  0  0  0  0  0  0
   -4.8752    0.6778    0.0925 C   0  0  0  0  0  0  0  0  0  0  0  0
   -0.9960   -3.1560    0.3315 C   0  0  0  0  0  0  0  0  0  0  0  0
    3.8852   -1.4074    0.3954 C   0  0  0  0  0  0  0  0  0  0  0  0
   -0.5831   -4.5313   -0.1024 C   0  0  0  0  0  0  0  0  0  0  0  0
    4.4500   -2.7279   -0.0373 C   0  0  0  0  0  0  0  0  0  0  0  0
  1 15  1  0
  1 24  1  0
  2 17  1  0
  2 25  1  0
  3 13  2  0
  4 14  2  0
  5 23  1  0
  6 23  2  0
  7 24  2  0
  8 25  2  0
  9 10  2  0
  9 13  1  0
  9 15  1  0
 10 14  1  0
 10 16  1  0
 11 12  2  0
 11 13  1  0
 11 17  1  0
 12 14  1  0
 12 19  1  0
 15 20  2  0
 16 18  2  0
 17 21  2  0
 18 20  1  0
 18 23  1  0
 19 22  2  0
 21 22  1  0
 24 26  1  0
 25 27  1  0
M  END
>  <PUBCHEM_COMPOUND_CID>  (1) 
26248

>  <PUBCHEM_CONFORMER_RMSD>  (1) 
0.8

>  <PUBCHEM_CONFORMER_DIVERSEORDER>  (1) 
1
4
13
8
12
10
3
9
14
2
7
6
5
11

>  <PUBCHEM_MMFF94_PARTIAL_CHARGES>  (1) 
33
1 -0.23
10 0.09
11 0.09
12 0.09
13 0.4
14 0.4
15 0.08
16 -0.15
17 0.08
18 0.09
19 -0.15
2 -0.23
20 -0.15
21 -0.15
22 -0.15
23 0.63
24 0.66
25 0.66
26 0.06
27 0.06
28 0.15
29 0.15
3 -0.57
30 0.15
31 0.15
32 0.15
36 0.5
4 -0.57
5 -0.65
6 -0.57
7 -0.57
8 -0.57
9 0.09

>  <PUBCHEM_EFFECTIVE_ROTOR_COUNT>  (1) 
5

>  <PUBCHEM_PHARMACOPHORE_FEATURES>  (1) 
10
1 3 acceptor
1 4 acceptor
1 5 acceptor
1 6 acceptor
1 7 acceptor
1 8 acceptor
3 5 6 23 anion
6 11 12 17 19 21 22 rings
6 9 10 11 12 13 14 rings
6 9 10 15 16 18 20 rings

>  <PUBCHEM_HEAVY_ATOM_COUNT>  (1) 
27

>  <PUBCHEM_ATOM_DEF_STEREO_COUNT>  (1) 
0

>  <PUBCHEM_ATOM_UDEF_STEREO_COUNT>  (1) 
0

>  <PUBCHEM_BOND_DEF_STEREO_COUNT>  (1) 
0

>  <PUBCHEM_BOND_UDEF_STEREO_COUNT>  (1) 
0

>  <PUBCHEM_ISOTOPIC_ATOM_COUNT>  (1) 
0

>  <PUBCHEM_COMPONENT_COUNT>  (1) 
1

>  <PUBCHEM_CACTVS_TAUTO_COUNT>  (1) 
1

>  <PUBCHEM_CONFORMER_ID>  (1) 
0000668800000001

>  <PUBCHEM_MMFF94_ENERGY>  (1) 
91.299

>  <PUBCHEM_FEATURE_SELFOVERLAP>  (1) 
50.85

>  <PUBCHEM_SHAPE_FINGERPRINT>  (1) 
10616163 171 18123189279844959758
10906281 52 18270982188213219212
10967382 1 18340488958171781588
1100329 8 18410289194529073050
11607047 403 15905961457917634203
12553582 1 18411130312919488462
12592029 89 18336550391788982299
12633257 1 18410004434150040934
12788726 201 17988656167943958520
12930653 34 17835237118758515636
13140716 1 18411135857068185186
138480 1 17906738003504259015
14022347 108 18337964372506433382
14178342 30 17906720754815488504
14223421 5 17907299106410473516
14466204 15 18194117413258681417
14790565 3 18411707569261942025
15196674 1 18413109472367398061
15927050 60 18267304412044529942
16728300 4 17390769090736886042
17349148 13 17988924457444442421
17492 89 18339922731111308390
19319366 153 17749395824149687074
19591789 44 18410573968414862597
19930381 70 18194120715935615962
20028762 73 18272364240091363111
20739085 24 18263948573771153993
21133410 171 16974713126926476766
21267235 1 18340496573106170670
21421861 104 18187632610211862152
23558518 356 17685212072520231129
23559900 14 18343302574415252932
3178227 256 18337124358459826249
335352 9 18412829053525205868
34934 24 18268708475624238572
350125 39 18337956671218751452
3680242 22 18339366253736061377
5104073 3 18413112775318477689
59755656 215 18411987996593550636
6138700 20 18194405493863639606
9709674 26 18197503032982851086
9896288 288 17618486694283100170
9981440 41 17690551305633471040

>  <PUBCHEM_SHAPE_MULTIPOLES>  (1) 
508.69
8.85
4.71
0.84
4.63
2.74
0.16
-1.32
0.48
-1.61
0.62
-0.24
0.34
-0.35

>  <PUBCHEM_SHAPE_SELFOVERLAP>  (1) 
1133.223

>  <PUBCHEM_SHAPE_VOLUME>  (1) 
265.2

>  <PUBCHEM_COORDINATE_TYPE>  (1) 
2
5
10

$$$$
