26253
     RDKit          3D

 14 13  0  0  0  0  0  0  0  0999 V2000
    0.8653   -1.5775   -1.9151 S   0  0  0  0  0  0  0  0  0  0  0  0
   -0.8646    1.5740   -1.9181 S   0  0  0  0  0  0  0  0  0  0  0  0
    1.6438    0.2222    0.0581 N   0  0  0  0  0  0  0  0  0  0  0  0
   -1.6443   -0.2223    0.0576 N   0  0  0  0  0  0  0  0  0  0  0  0
    1.3544    1.3396    0.9574 C   0  0  0  0  0  0  0  0  0  0  0  0
    3.0094   -0.2920    0.1670 C   0  0  0  0  0  0  0  0  0  0  0  0
   -1.3557   -1.3386    0.9582 C   0  0  0  0  0  0  0  0  0  0  0  0
   -3.0092    0.2938    0.1667 C   0  0  0  0  0  0  0  0  0  0  0  0
    0.6898   -0.3111   -0.8192 C   0  0  0  0  0  0  0  0  0  0  0  0
   -0.6896    0.3097   -0.8198 C   0  0  0  0  0  0  0  0  0  0  0  0
    1.6907    2.6698    0.3156 C   0  0  0  0  0  0  0  0  0  0  0  0
    3.1169   -1.3587    1.2370 C   0  0  0  0  0  0  0  0  0  0  0  0
   -1.6918   -2.6694    0.3176 C   0  0  0  0  0  0  0  0  0  0  0  0
   -3.1150    1.3605    1.2370 C   0  0  0  0  0  0  0  0  0  0  0  0
  1  9  2  0
  2 10  2  0
  3  5  1  0
  3  6  1  0
  3  9  1  0
  4  7  1  0
  4  8  1  0
  4 10  1  0
  5 11  1  0
  6 12  1  0
  7 13  1  0
  8 14  1  0
  9 10  1  0
M  END
>  <PUBCHEM_COMPOUND_CID>  (1) 
26253

>  <PUBCHEM_CONFORMER_RMSD>  (1) 
0.8

>  <PUBCHEM_CONFORMER_DIVERSEORDER>  (1) 
1
19
3
6
7
12
21
15
11
14
13
2
8
4
9
16
10
18
20
5
17

>  <PUBCHEM_MMFF94_PARTIAL_CHARGES>  (1) 
10
1 -0.38
10 0.44
2 -0.38
3 -0.66
4 -0.66
5 0.3
6 0.3
7 0.3
8 0.3
9 0.44

>  <PUBCHEM_EFFECTIVE_ROTOR_COUNT>  (1) 
7

>  <PUBCHEM_PHARMACOPHORE_FEATURES>  (1) 
2
1 1 acceptor
1 2 acceptor

>  <PUBCHEM_HEAVY_ATOM_COUNT>  (1) 
14

>  <PUBCHEM_ATOM_DEF_STEREO_COUNT>  (1) 
0

>  <PUBCHEM_ATOM_UDEF_STEREO_COUNT>  (1) 
0

>  <PUBCHEM_BOND_DEF_STEREO_COUNT>  (1) 
0

>  <PUBCHEM_BOND_UDEF_STEREO_COUNT>  (1) 
0

>  <PUBCHEM_ISOTOPIC_ATOM_COUNT>  (1) 
0

>  <PUBCHEM_COMPONENT_COUNT>  (1) 
1

>  <PUBCHEM_CACTVS_TAUTO_COUNT>  (1) 
1

>  <PUBCHEM_CONFORMER_ID>  (1) 
0000668D00000001

>  <PUBCHEM_MMFF94_ENERGY>  (1) 
32.6436

>  <PUBCHEM_FEATURE_SELFOVERLAP>  (1) 
10.149

>  <PUBCHEM_SHAPE_FINGERPRINT>  (1) 
12251169 10 18410856598294495488
12423570 1 14496875506121335975
12507560 14 18266731398739770779
12633257 1 18410573955086680625
13299463 15 8070025566724734830
14648413 74 18129118829757200620
15775835 57 18186806850560505035
16945 1 18410856538164953167
17834069 17 17986109840625922404
17841504 4 18339355383279317178
19837323 101 12319191670977955247
20511035 2 18201430441220132296
21501502 16 18338517567939843651
22344851 262 16988266578357482476
23388829 49 17471855178608724543
23419403 2 17693619982767787535
23526113 38 17760338047339979716
5845 1 12559926670771964351
598444 67 18115859698879122250
81228 2 17386544973405594461

>  <PUBCHEM_SHAPE_MULTIPOLES>  (1) 
285.85
4.49
2.62
1.71
0
0
0.78
0
-2.22
0
-0.17
0
0
0.21

>  <PUBCHEM_SHAPE_SELFOVERLAP>  (1) 
513.146

>  <PUBCHEM_SHAPE_VOLUME>  (1) 
186.9

>  <PUBCHEM_COORDINATE_TYPE>  (1) 
2
5
10

$$$$
