26262
     RDKit          3D

  9  9  0  0  1  0  0  0  0  0999 V2000
    1.6030    1.5699    1.0224 Cl  0  0  0  0  0  0  0  0  0  0  0  0
    2.9223    0.4706   -1.3654 Cl  0  0  0  0  0  0  0  0  0  0  0  0
   -0.5244   -0.5521    0.4764 O   0  0  0  0  0  0  0  0  0  0  0  0
    0.6925   -0.7981   -0.2156 C   0  0  0  0  0  0  0  0  0  0  0  0
    1.8339    0.1665   -0.0133 C   0  0  0  0  0  0  0  0  0  0  0  0
    1.8763   -1.1871    0.6328 C   0  0  0  0  0  0  0  0  0  0  0  0
   -1.5697   -0.1943   -0.4170 C   0  0  0  0  0  0  0  0  0  0  0  0
   -2.8327    0.0747    0.3866 C   0  0  0  0  0  0  0  0  0  0  0  0
   -4.0014    0.4499   -0.5068 C   0  0  0  0  0  0  0  0  0  0  0  0
  1  5  1  0
  2  5  1  0
  3  4  1  0
  3  7  1  0
  4  5  1  0
  4  6  1  0
  5  6  1  0
  7  8  1  0
  8  9  1  0
M  END
>  <PUBCHEM_COMPOUND_CID>  (1) 
26262

>  <PUBCHEM_CONFORMER_RMSD>  (1) 
0.6

>  <PUBCHEM_CONFORMER_DIVERSEORDER>  (1) 
1
7
4
15
8
6
2
11
12
3
13
9
16
5
10
14

>  <PUBCHEM_MMFF94_PARTIAL_CHARGES>  (1) 
10
1 -0.23
10 0.1
11 0.1
12 0.1
2 -0.23
3 -0.43
4 0.05
5 0.45
6 -0.2
7 0.28

>  <PUBCHEM_EFFECTIVE_ROTOR_COUNT>  (1) 
3.6

>  <PUBCHEM_PHARMACOPHORE_FEATURES>  (1) 
2
1 3 acceptor
1 9 hydrophobe

>  <PUBCHEM_HEAVY_ATOM_COUNT>  (1) 
9

>  <PUBCHEM_ATOM_DEF_STEREO_COUNT>  (1) 
0

>  <PUBCHEM_ATOM_UDEF_STEREO_COUNT>  (1) 
1

>  <PUBCHEM_BOND_DEF_STEREO_COUNT>  (1) 
0

>  <PUBCHEM_BOND_UDEF_STEREO_COUNT>  (1) 
0

>  <PUBCHEM_ISOTOPIC_ATOM_COUNT>  (1) 
0

>  <PUBCHEM_COMPONENT_COUNT>  (1) 
1

>  <PUBCHEM_CACTVS_TAUTO_COUNT>  (1) 
1

>  <PUBCHEM_CONFORMER_ID>  (1) 
0000669600000001

>  <PUBCHEM_MMFF94_ENERGY>  (1) 
7.0057

>  <PUBCHEM_FEATURE_SELFOVERLAP>  (1) 
10.148

>  <PUBCHEM_SHAPE_FINGERPRINT>  (1) 
10857977 72 17312823801347919617
12932741 1 18200601417974106435
12932764 1 18411980278172861215
14325111 11 17748548130358454555
14390081 3 18412821413110539257
15775835 57 18410291432206547157
170605 34 17916295220291528152
18186145 218 18060418019476472889
21040471 1 18189333648883142146
21293036 1 18060147552195045332
230 275 18271516597897975144
23235685 24 17821730571677372780
3248919 1 17458337563792894627

>  <PUBCHEM_SHAPE_MULTIPOLES>  (1) 
183.09
5.8
1.23
1.1
6.03
0.37
0.22
0.97
1.64
-0.79
-0.37
-0.73
0.1
0.04

>  <PUBCHEM_SHAPE_SELFOVERLAP>  (1) 
327.197

>  <PUBCHEM_SHAPE_VOLUME>  (1) 
119.6

>  <PUBCHEM_COORDINATE_TYPE>  (1) 
2
5
10

$$$$
