26279
     RDKit          3D

 14 15  0  0  0  0  0  0  0  0999 V2000
    4.0576   -0.6892    0.0003 O   0  0  0  0  0  0  0  0  0  0  0  0
    3.5948    1.4568   -0.0004 O   0  0  0  0  0  0  0  0  0  0  0  0
   -1.5583    1.4682    0.0001 N   0  0  0  0  0  0  0  0  0  0  0  0
    3.2328    0.2559    0.0001 N   0  0  0  0  0  0  0  0  0  0  0  0
   -0.8880   -0.6597    0.0000 C   0  0  0  0  0  0  0  0  0  0  0  0
   -2.3104   -0.6202   -0.0001 C   0  0  0  0  0  0  0  0  0  0  0  0
   -0.4413    0.6635    0.0000 C   0  0  0  0  0  0  0  0  0  0  0  0
   -2.6926    0.7015    0.0001 C   0  0  0  0  0  0  0  0  0  0  0  0
    0.0653   -1.6973    0.0000 C   0  0  0  0  0  0  0  0  0  0  0  0
    0.9165    1.0022    0.0000 C   0  0  0  0  0  0  0  0  0  0  0  0
   -3.2164   -1.7879   -0.0002 C   0  0  0  0  0  0  0  0  0  0  0  0
    1.8437   -0.0437   -0.0001 C   0  0  0  0  0  0  0  0  0  0  0  0
   -4.0307    1.3235    0.0001 C   0  0  0  0  0  0  0  0  0  0  0  0
    1.4269   -1.3734    0.0001 C   0  0  0  0  0  0  0  0  0  0  0  0
  1  4  1  0
  2  4  2  0
  3  7  1  0
  3  8  1  0
  4 12  1  0
  5  6  1  0
  5  7  2  0
  5  9  1  0
  6  8  2  0
  6 11  1  0
  7 10  1  0
  8 13  1  0
  9 14  2  0
 10 12  2  0
 12 14  1  0
M  CHG  2   1  -1   4   1
M  END
>  <PUBCHEM_COMPOUND_CID>  (1) 
26279

>  <PUBCHEM_CONFORMER_RMSD>  (1) 
0.4

>  <PUBCHEM_CONFORMER_DIVERSEORDER>  (1) 
1

>  <PUBCHEM_MMFF94_PARTIAL_CHARGES>  (1) 
17
1 -0.52
10 -0.15
11 0.18
12 0.13
13 0.18
14 -0.15
15 0.27
16 0.15
17 0.15
2 -0.52
24 0.15
3 0.03
4 0.91
6 -0.18
7 -0.15
8 -0.33
9 -0.15

>  <PUBCHEM_EFFECTIVE_ROTOR_COUNT>  (1) 
1

>  <PUBCHEM_PHARMACOPHORE_FEATURES>  (1) 
7
1 1 acceptor
1 1 anion
1 2 acceptor
1 3 cation
1 3 donor
5 3 5 6 7 8 rings
6 5 7 9 10 12 14 rings

>  <PUBCHEM_HEAVY_ATOM_COUNT>  (1) 
14

>  <PUBCHEM_ATOM_DEF_STEREO_COUNT>  (1) 
0

>  <PUBCHEM_ATOM_UDEF_STEREO_COUNT>  (1) 
0

>  <PUBCHEM_BOND_DEF_STEREO_COUNT>  (1) 
0

>  <PUBCHEM_BOND_UDEF_STEREO_COUNT>  (1) 
0

>  <PUBCHEM_ISOTOPIC_ATOM_COUNT>  (1) 
0

>  <PUBCHEM_COMPONENT_COUNT>  (1) 
1

>  <PUBCHEM_CACTVS_TAUTO_COUNT>  (1) 
1

>  <PUBCHEM_CONFORMER_ID>  (1) 
000066A700000001

>  <PUBCHEM_MMFF94_ENERGY>  (1) 
29.2733

>  <PUBCHEM_FEATURE_SELFOVERLAP>  (1) 
35.694

>  <PUBCHEM_SHAPE_FINGERPRINT>  (1) 
10062212 137 18410281510785094739
10608611 8 18411697690420014112
10967382 1 18338797797397130885
11132069 177 18410851057918695272
11543360 7 15697706099356927217
11806522 49 18266174127044493975
12032990 46 18411705421429770646
12932764 1 17385996243888202316
13214271 11 18341609338992531095
13380535 21 18340495469479144307
13380535 76 18339360769184396671
14325111 11 18410856576993836000
14897335 6 18338795620275986287
15196674 1 18410856576877694022
15219456 202 18272378533425707439
15536298 74 18270680870603736278
15775835 57 18410014312331975225
16945 1 18266459789513811943
18175812 5 18410855455980933300
18186145 218 18335700529329792804
193761 8 17617940231833395008
200 152 18059567031957749063
20510252 161 18271529796316463169
20871998 184 18201161065298332375
21267235 1 18410301314995347523
21501502 16 18410004408396191355
23402539 116 18342730823894526582
23402655 69 18198047111551970629
23463225 33 18335136462716548818
23559900 14 18343863299870981322
2748010 2 18411143510974408231
3312278 4 18413109455065767881
43471831 8 18334008384987617490
5104073 3 18410291432422832248
528886 8 18411412886991043443
53812653 166 18342453733668091905
54173680 148 18120095245181789154
6333449 129 18412543210962179135
69090 78 18339919329897214063
7364860 26 18124877859006856510

>  <PUBCHEM_SHAPE_MULTIPOLES>  (1) 
266.41
6.52
1.82
0.59
1.96
0.3
0
-1.24
0
-0.72
0
-0.07
0.02
0

>  <PUBCHEM_SHAPE_SELFOVERLAP>  (1) 
581.282

>  <PUBCHEM_SHAPE_VOLUME>  (1) 
148

>  <PUBCHEM_COORDINATE_TYPE>  (1) 
2
5
10

$$$$
