26276
     RDKit          3D

 22 24  0  0  1  0  0  0  0  0999 V2000
    4.5994   -1.8674   -0.1710 O   0  0  0  0  0  0  0  0  0  0  0  0
    0.9373   -1.3050   -0.1538 N   0  0  0  0  0  0  0  0  0  0  0  0
   -1.9268   -0.2480    0.8539 N   0  0  0  0  0  0  0  0  0  0  0  0
    2.2032   -1.8724    0.2819 C   0  0  0  0  0  0  0  0  0  0  0  0
    3.3545   -1.2830   -0.5639 C   0  0  0  0  0  0  0  0  0  0  0  0
    2.3623   -1.5806    1.7751 C   0  0  0  0  0  0  0  0  0  0  0  0
   -0.1775   -1.8994    0.5851 C   0  0  0  0  0  0  0  0  0  0  0  0
    3.5104    0.2157   -0.4186 C   0  0  0  0  0  0  0  0  0  0  0  0
   -1.4963   -1.3350    0.1736 C   0  0  0  0  0  0  0  0  0  0  0  0
    2.8172    1.0528   -1.2750 C   0  0  0  0  0  0  0  0  0  0  0  0
    4.3430    0.7152    0.5674 C   0  0  0  0  0  0  0  0  0  0  0  0
   -2.1971   -1.9324   -0.8544 C   0  0  0  0  0  0  0  0  0  0  0  0
   -3.1128    0.2893    0.5107 C   0  0  0  0  0  0  0  0  0  0  0  0
   -3.9018   -0.2498   -0.5270 C   0  0  0  0  0  0  0  0  0  0  0  0
   -3.4187   -1.3765   -1.2060 C   0  0  0  0  0  0  0  0  0  0  0  0
    2.9611    2.4338   -1.1413 C   0  0  0  0  0  0  0  0  0  0  0  0
    4.4869    2.0962    0.7012 C   0  0  0  0  0  0  0  0  0  0  0  0
    3.7958    2.9555   -0.1531 C   0  0  0  0  0  0  0  0  0  0  0  0
   -3.5936    1.4084    1.1852 C   0  0  0  0  0  0  0  0  0  0  0  0
   -5.1352    0.3365   -0.8585 C   0  0  0  0  0  0  0  0  0  0  0  0
   -4.8197    1.9914    0.8557 C   0  0  0  0  0  0  0  0  0  0  0  0
   -5.5917    1.4550   -0.1673 C   0  0  0  0  0  0  0  0  0  0  0  0
  1  5  1  0
  2  4  1  0
  2  7  1  0
  3  9  2  0
  3 13  1  0
  4  5  1  0
  4  6  1  0
  5  8  1  0
  7  9  1  0
  8 10  2  0
  8 11  1  0
  9 12  1  0
 10 16  1  0
 11 17  2  0
 12 15  2  0
 13 14  2  0
 13 19  1  0
 14 15  1  0
 14 20  1  0
 16 18  2  0
 17 18  1  0
 19 21  2  0
 20 22  2  0
 21 22  1  0
M  END
>  <PUBCHEM_COMPOUND_CID>  (1) 
26276

>  <PUBCHEM_CONFORMER_RMSD>  (1) 
0.8

>  <PUBCHEM_CONFORMER_DIVERSEORDER>  (1) 
10
16
8
5
1
24
12
3
14
38
39
28
58
7
44
23
55
46
25
2
26
32
6
20
41
18
30
42
27
47
4
43
40
29
19
54
15
33
37
36
52
53
34
35
57
51
22
9
17
49
48
31
56
11
13
50
45
21

>  <PUBCHEM_MMFF94_PARTIAL_CHARGES>  (1) 
33
1 -0.68
10 -0.15
11 -0.15
12 -0.15
13 0.31
15 -0.15
16 -0.15
17 -0.15
18 -0.15
19 -0.15
2 -0.9
20 -0.15
21 -0.15
22 -0.15
25 0.36
3 -0.62
31 0.15
32 0.15
33 0.4
34 0.15
35 0.15
36 0.15
37 0.15
38 0.15
39 0.15
4 0.27
40 0.15
41 0.15
42 0.15
5 0.42
7 0.41
8 -0.14
9 0.17

>  <PUBCHEM_EFFECTIVE_ROTOR_COUNT>  (1) 
5

>  <PUBCHEM_PHARMACOPHORE_FEATURES>  (1) 
8
1 1 acceptor
1 1 donor
1 2 cation
1 2 donor
1 3 acceptor
6 13 14 19 20 21 22 rings
6 3 9 12 13 14 15 rings
6 8 10 11 16 17 18 rings

>  <PUBCHEM_HEAVY_ATOM_COUNT>  (1) 
22

>  <PUBCHEM_ATOM_DEF_STEREO_COUNT>  (1) 
0

>  <PUBCHEM_ATOM_UDEF_STEREO_COUNT>  (1) 
2

>  <PUBCHEM_BOND_DEF_STEREO_COUNT>  (1) 
0

>  <PUBCHEM_BOND_UDEF_STEREO_COUNT>  (1) 
0

>  <PUBCHEM_ISOTOPIC_ATOM_COUNT>  (1) 
0

>  <PUBCHEM_COMPONENT_COUNT>  (1) 
1

>  <PUBCHEM_CACTVS_TAUTO_COUNT>  (1) 
1

>  <PUBCHEM_CONFORMER_ID>  (1) 
000066A40000000A

>  <PUBCHEM_MMFF94_ENERGY>  (1) 
61.0508

>  <PUBCHEM_FEATURE_SELFOVERLAP>  (1) 
40.626

>  <PUBCHEM_SHAPE_FINGERPRINT>  (1) 
10042902 136 8862675628661641232
10498660 4 17988646332373177392
10763959 59 18119532033540661981
10928967 22 10375329832500608300
11089746 13 18335980883082967494
12633257 1 15574720235006307889
12839892 36 13118003284391736473
13103583 49 11314845974378782230
13583140 156 17822865186521590043
13590594 115 18190464844780027336
14251764 30 10882494908847313072
14251764 38 18192433193526019688
14251764 75 18265065788900741605
14739800 52 18057584625203730600
14790565 3 17985839142545655777
14848178 96 18335703879251556076
150020 26 13480502376401670136
15419009 47 15764188955136849492
17810953 82 18408608041266027796
17844677 252 18411707594847071087
17959699 21 18341892995802059067
18335252 114 18120648033800991117
19752476 56 18412828010291114600
20511986 3 18270947025068248285
20715895 44 18269835320318358753
21033648 144 18260822713504555375
21033648 29 16805314466767676199
21298829 104 18411981347414795121
21315763 76 18335971034833786253
21503847 285 18335704918923642610
21860390 5 18342466915471213686
21864079 5 18411422816781579395
22079108 93 17894640244963177547
22122407 14 18045510720853585729
22749437 52 18263647436396602364
22956985 138 8558783864930115742
23227448 37 18410013260508184031
23559900 14 17703228403934204486
245318 6 17970080026208486757
2838139 119 17680688352026335565
338550 245 18261961747416666300
3472631 163 18272089375237567237
4409770 3 15098192540080057703
474 4 18260829319069167682
5104073 3 18259984889891756179
543358 83 18411418397529029640
57724786 102 17531255006083733532
5895379 119 17774169985316985800
6034566 193 17462586196565507380
6328613 192 18043816610022380948
633830 44 18409725153669971239
960060 61 12823300117061255514
9971528 1 18340767045047146974
9981440 41 18265610081864071170

>  <PUBCHEM_SHAPE_MULTIPOLES>  (1) 
436.92
12.86
3.03
1.27
5.8
0.9
-0.11
7.07
0.48
-2.31
-0.05
0.02
0
-1.45

>  <PUBCHEM_SHAPE_SELFOVERLAP>  (1) 
945.789

>  <PUBCHEM_SHAPE_VOLUME>  (1) 
238.4

>  <PUBCHEM_COORDINATE_TYPE>  (1) 
2
5
10

$$$$
