26289
     RDKit          3D

 11 11  0  0  0  0  0  0  0  0999 V2000
   -4.2577    0.2062    0.0008 N   0  0  0  0  0  0  0  0  0  0  0  0
    2.5941   -0.3198    0.0005 C   0  0  0  0  0  0  0  0  0  0  0  0
    1.1072   -0.2053    0.0009 C   0  0  0  0  0  0  0  0  0  0  0  0
    3.2325    0.2960    1.2601 C   0  0  0  0  0  0  0  0  0  0  0  0
    3.2317    0.2928   -1.2609 C   0  0  0  0  0  0  0  0  0  0  0  0
    0.5041    1.0524   -0.0004 C   0  0  0  0  0  0  0  0  0  0  0  0
    0.3195   -1.3565    0.0012 C   0  0  0  0  0  0  0  0  0  0  0  0
   -0.8867    1.1590   -0.0013 C   0  0  0  0  0  0  0  0  0  0  0  0
   -1.0713   -1.2499    0.0001 C   0  0  0  0  0  0  0  0  0  0  0  0
   -1.6744    0.0079   -0.0011 C   0  0  0  0  0  0  0  0  0  0  0  0
   -3.0991    0.1173    0.0001 C   0  0  0  0  0  0  0  0  0  0  0  0
  1 11  3  0
  2  3  1  0
  2  4  1  0
  2  5  1  0
  3  6  2  0
  3  7  1  0
  6  8  1  0
  7  9  2  0
  8 10  2  0
  9 10  1  0
 10 11  1  0
M  END
>  <PUBCHEM_COMPOUND_CID>  (1) 
26289

>  <PUBCHEM_CONFORMER_RMSD>  (1) 
0.4

>  <PUBCHEM_CONFORMER_DIVERSEORDER>  (1) 
1
2

>  <PUBCHEM_MMFF94_PARTIAL_CHARGES>  (1) 
13
1 -0.56
10 0.07
11 0.48
19 0.15
2 0.14
20 0.15
21 0.15
22 0.15
3 -0.14
6 -0.15
7 -0.15
8 -0.15
9 -0.15

>  <PUBCHEM_EFFECTIVE_ROTOR_COUNT>  (1) 
1

>  <PUBCHEM_PHARMACOPHORE_FEATURES>  (1) 
3
1 1 acceptor
3 2 4 5 hydrophobe
6 3 6 7 8 9 10 rings

>  <PUBCHEM_HEAVY_ATOM_COUNT>  (1) 
11

>  <PUBCHEM_ATOM_DEF_STEREO_COUNT>  (1) 
0

>  <PUBCHEM_ATOM_UDEF_STEREO_COUNT>  (1) 
0

>  <PUBCHEM_BOND_DEF_STEREO_COUNT>  (1) 
0

>  <PUBCHEM_BOND_UDEF_STEREO_COUNT>  (1) 
0

>  <PUBCHEM_ISOTOPIC_ATOM_COUNT>  (1) 
0

>  <PUBCHEM_COMPONENT_COUNT>  (1) 
1

>  <PUBCHEM_CACTVS_TAUTO_COUNT>  (1) 
1

>  <PUBCHEM_CONFORMER_ID>  (1) 
000066B100000001

>  <PUBCHEM_MMFF94_ENERGY>  (1) 
22.0119

>  <PUBCHEM_FEATURE_SELFOVERLAP>  (1) 
15.223

>  <PUBCHEM_SHAPE_FINGERPRINT>  (1) 
10130415 120 18040429997152170840
10219947 1 18187367614507291749
11062470 55 16702300165614628145
11132069 177 18341608235222885059
12032990 46 18412271640000880343
12932764 1 17917987244016306302
13538477 17 17895195553774055514
13760787 19 17022910076704026539
14325111 11 18410855434548301061
14911166 2 18412552015196723837
14993402 34 18260838106524704772
15310529 11 16588019121567256196
15775835 57 17676496085360095268
16945 1 18410573989462242693
17846911 113 18341322344835158568
18186145 218 17775568615409571945
19026448 4 16343703240061000367
19026448 5 16370444462370696459
193761 8 17689999354995666405
20645464 45 17989196079955807330
20645476 183 17677627499873479694
21293036 1 18409737269735159997
23235685 24 18410008836327787615
23402539 116 18201706345428860452
23402655 69 18195510525494854909
23552423 10 17826517961358575180
23559900 14 18343026618914635892
2748010 2 18123188175843166205
369184 2 18202272607113309690
5084963 1 18263365789700158642
528886 8 18411417323576365003
53812653 166 18271517671549874986

>  <PUBCHEM_SHAPE_MULTIPOLES>  (1) 
221.39
5.93
1.19
0.9
2.2
0.15
0
-0.71
0
0.13
0
-0.96
-0.08
0

>  <PUBCHEM_SHAPE_SELFOVERLAP>  (1) 
454.07

>  <PUBCHEM_SHAPE_VOLUME>  (1) 
127

>  <PUBCHEM_COORDINATE_TYPE>  (1) 
2
5
10

$$$$
