26292
     RDKit          3D

 14 15  0  0  0  0  0  0  0  0999 V2000
   -2.9882   -0.2058    0.0782 P   0  0  0  0  0  0  0  0  0  0  0  0
   -1.4317   -0.6657    0.0665 O   0  0  0  0  0  0  0  0  0  0  0  0
   -3.2081    0.4616   -1.3794 O   0  0  0  0  0  0  0  0  0  0  0  0
   -3.7922   -1.6044   -0.0438 O   0  0  0  0  0  0  0  0  0  0  0  0
   -3.4014    0.6530    1.2379 O   0  0  0  0  0  0  0  0  0  0  0  0
    0.9321    1.9295   -0.0250 N   0  0  0  0  0  0  0  0  0  0  0  0
    1.0239   -0.2990    0.0234 C   0  0  0  0  0  0  0  0  0  0  0  0
    1.8004    0.8612   -0.0134 C   0  0  0  0  0  0  0  0  0  0  0  0
   -0.3388    0.1106    0.0337 C   0  0  0  0  0  0  0  0  0  0  0  0
   -0.3627    1.4860    0.0034 C   0  0  0  0  0  0  0  0  0  0  0  0
    1.6734   -1.5494    0.0420 C   0  0  0  0  0  0  0  0  0  0  0  0
    3.1995    0.8334   -0.0328 C   0  0  0  0  0  0  0  0  0  0  0  0
    3.0722   -1.5925    0.0232 C   0  0  0  0  0  0  0  0  0  0  0  0
    3.8215   -0.4182   -0.0138 C   0  0  0  0  0  0  0  0  0  0  0  0
  1  2  1  0
  1  3  1  0
  1  4  1  0
  1  5  2  0
  2  9  1  0
  6  8  1  0
  6 10  1  0
  7  8  2  0
  7  9  1  0
  7 11  1  0
  8 12  1  0
  9 10  2  0
 11 13  2  0
 12 14  2  0
 13 14  1  0
M  END
>  <PUBCHEM_COMPOUND_CID>  (1) 
26292

>  <PUBCHEM_CONFORMER_RMSD>  (1) 
0.6

>  <PUBCHEM_CONFORMER_DIVERSEORDER>  (1) 
1
2
6
4
3
5

>  <PUBCHEM_MMFF94_PARTIAL_CHARGES>  (1) 
21
1 1.51
10 -0.3
11 -0.15
12 -0.15
13 -0.15
14 -0.15
15 0.27
16 0.15
17 0.15
18 0.15
19 0.15
2 -0.33
20 0.15
21 0.5
22 0.5
3 -0.77
4 -0.77
5 -0.7
6 0.03
8 -0.15
9 0.06

>  <PUBCHEM_EFFECTIVE_ROTOR_COUNT>  (1) 
2

>  <PUBCHEM_PHARMACOPHORE_FEATURES>  (1) 
8
1 3 acceptor
1 4 acceptor
1 5 acceptor
1 6 cation
1 6 donor
4 1 3 4 5 anion
5 6 7 8 9 10 rings
6 7 8 11 12 13 14 rings

>  <PUBCHEM_HEAVY_ATOM_COUNT>  (1) 
14

>  <PUBCHEM_ATOM_DEF_STEREO_COUNT>  (1) 
0

>  <PUBCHEM_ATOM_UDEF_STEREO_COUNT>  (1) 
0

>  <PUBCHEM_BOND_DEF_STEREO_COUNT>  (1) 
0

>  <PUBCHEM_BOND_UDEF_STEREO_COUNT>  (1) 
0

>  <PUBCHEM_ISOTOPIC_ATOM_COUNT>  (1) 
0

>  <PUBCHEM_COMPONENT_COUNT>  (1) 
1

>  <PUBCHEM_CACTVS_TAUTO_COUNT>  (1) 
1

>  <PUBCHEM_CONFORMER_ID>  (1) 
000066B400000001

>  <PUBCHEM_MMFF94_ENERGY>  (1) 
-10.214

>  <PUBCHEM_FEATURE_SELFOVERLAP>  (1) 
40.723

>  <PUBCHEM_SHAPE_FINGERPRINT>  (1) 
10219947 1 18413108359722571670
10980938 120 18410011061342470934
11471102 20 18409444791168307396
11543360 7 15719690813174715118
11769659 78 18409727331318019394
11806522 49 18339641264628969463
12032990 46 18410577266833675366
12932764 1 17748822999517098099
13296908 3 18334011674873893967
14144814 61 18342740714908829499
14251717 144 18410572915831526318
14252887 29 18059866055965297534
14576447 43 18199177567569911655
15219456 202 18260261945267763564
15375462 189 18261678090485234475
15442244 35 18341056198628447273
15477762 27 18337953501358430271
15501101 241 18335703857829421700
16945 1 18410292514876084556
17844478 74 17822015289512809789
18186145 218 18260269620432363058
19422 9 18343308071451301539
200 152 18130217259839279807
20201158 50 18334012783054727138
20279233 1 17894346679104772083
20281407 28 18334575720033361312
20281475 54 18411141307587470510
20645477 70 18337665322043564671
20871998 22 18199196096343500558
21501502 16 18266463096860318936
21501925 9 18412820313271889914
221490 88 18191310591832502075
23402539 116 18187636990888333078
23402655 69 18410569565878251109
23463225 33 18411703162387469942
23559900 14 18192139413890025274
2748010 2 17977391856332587896
53428517 54 18410292510407011466
581208 293 18411134758062862136
8809292 202 18114468936902845971

>  <PUBCHEM_SHAPE_MULTIPOLES>  (1) 
263.5
6.82
1.71
0.78
3.1
0.01
-0.04
1.82
0
-0.46
0.01
0.61
-0.09
-0.07

>  <PUBCHEM_SHAPE_SELFOVERLAP>  (1) 
556.615

>  <PUBCHEM_SHAPE_VOLUME>  (1) 
149.7

>  <PUBCHEM_COORDINATE_TYPE>  (1) 
2
5
10

$$$$
