26298
     RDKit          3D

 25 26  0  0  1  0  0  0  0  0999 V2000
    1.0219   -0.1430   -1.8298 O   0  0  0  0  0  0  0  0  0  0  0  0
   -1.4544    0.2836   -0.9398 O   0  0  0  0  0  0  0  0  0  0  0  0
   -0.8934   -1.5420    0.3411 O   0  0  0  0  0  0  0  0  0  0  0  0
   -4.6432   -0.5204    0.7674 N   0  0  0  0  0  0  0  0  0  0  0  0
    0.8551   -0.0002   -0.4044 C   0  0  0  0  0  0  0  0  0  0  0  0
    1.8999   -0.8373    0.3373 C   0  0  0  0  0  0  0  0  0  0  0  0
    0.9652    1.4767   -0.0191 C   0  0  0  0  0  0  0  0  0  0  0  0
   -2.8290   -0.0935   -0.8663 C   0  0  0  0  0  0  0  0  0  0  0  0
   -0.5733   -0.5374   -0.2831 C   0  0  0  0  0  0  0  0  0  0  0  0
   -3.2529   -0.1182    0.6042 C   0  0  0  0  0  0  0  0  0  0  0  0
   -3.6250    0.9012   -1.7016 C   0  0  0  0  0  0  0  0  0  0  0  0
    3.1322   -1.0206   -0.2465 C   0  0  0  0  0  0  0  0  0  0  0  0
    0.2294    1.9353    1.0494 C   0  0  0  0  0  0  0  0  0  0  0  0
    1.5664   -1.3745    1.5592 C   0  0  0  0  0  0  0  0  0  0  0  0
    1.7955    2.2894   -0.7560 C   0  0  0  0  0  0  0  0  0  0  0  0
    0.8708   -1.4936   -2.2190 C   0  0  0  0  0  0  0  0  0  0  0  0
    4.0841   -1.7838    0.4296 C   0  0  0  0  0  0  0  0  0  0  0  0
    0.3297    3.2817    1.4003 C   0  0  0  0  0  0  0  0  0  0  0  0
    2.5184   -2.1375    2.2353 C   0  0  0  0  0  0  0  0  0  0  0  0
    1.8958    3.6356   -0.4049 C   0  0  0  0  0  0  0  0  0  0  0  0
   -5.0030   -0.5736    2.1861 C   0  0  0  0  0  0  0  0  0  0  0  0
   -4.8834   -1.8194    0.1353 C   0  0  0  0  0  0  0  0  0  0  0  0
    3.7771   -2.3423    1.6704 C   0  0  0  0  0  0  0  0  0  0  0  0
    1.1630    4.1317    0.6731 C   0  0  0  0  0  0  0  0  0  0  0  0
    1.0531   -1.5981   -3.7181 C   0  0  0  0  0  0  0  0  0  0  0  0
  1  5  1  0
  1 16  1  0
  2  8  1  0
  2  9  1  0
  3  9  2  0
  4 10  1  0
  4 21  1  0
  4 22  1  0
  5  6  1  0
  5  7  1  0
  5  9  1  0
  6 12  2  0
  6 14  1  0
  7 13  2  0
  7 15  1  0
  8 10  1  0
  8 11  1  0
 12 17  1  0
 13 18  1  0
 14 19  2  0
 15 20  2  0
 16 25  1  0
 17 23  2  0
 18 24  2  0
 19 23  1  0
 20 24  1  0
M  END
>  <PUBCHEM_COMPOUND_CID>  (1) 
26298

>  <PUBCHEM_CONFORMER_RMSD>  (1) 
1

>  <PUBCHEM_CONFORMER_DIVERSEORDER>  (1) 
1
27
36
37
33
13
60
63
12
65
51
17
44
43
50
58
18
62
34
31
52
61
54
48
46
67
47
49
66
9
35
28
57
59
45
38
15
5
24
23
70
6
16
41
2
64
53
68
8
30
22
20
42
69
40
32
3
14
19
4
25
26
7
56
11
29
39
55
21
10

>  <PUBCHEM_MMFF94_PARTIAL_CHARGES>  (1) 
33
1 -0.56
10 0.27
12 -0.15
13 -0.15
14 -0.15
15 -0.15
16 0.28
17 -0.15
18 -0.15
19 -0.15
2 -0.43
20 -0.15
21 0.27
22 0.27
23 -0.15
24 -0.15
3 -0.57
32 0.15
33 0.15
34 0.15
35 0.15
38 0.15
39 0.15
4 -0.81
40 0.15
41 0.15
48 0.15
49 0.15
5 0.63
6 -0.14
7 -0.14
8 0.28
9 0.66

>  <PUBCHEM_EFFECTIVE_ROTOR_COUNT>  (1) 
9

>  <PUBCHEM_PHARMACOPHORE_FEATURES>  (1) 
5
1 1 acceptor
1 3 acceptor
1 4 cation
6 6 12 14 17 19 23 rings
6 7 13 15 18 20 24 rings

>  <PUBCHEM_HEAVY_ATOM_COUNT>  (1) 
25

>  <PUBCHEM_ATOM_DEF_STEREO_COUNT>  (1) 
0

>  <PUBCHEM_ATOM_UDEF_STEREO_COUNT>  (1) 
1

>  <PUBCHEM_BOND_DEF_STEREO_COUNT>  (1) 
0

>  <PUBCHEM_BOND_UDEF_STEREO_COUNT>  (1) 
0

>  <PUBCHEM_ISOTOPIC_ATOM_COUNT>  (1) 
0

>  <PUBCHEM_COMPONENT_COUNT>  (1) 
1

>  <PUBCHEM_CACTVS_TAUTO_COUNT>  (1) 
1

>  <PUBCHEM_CONFORMER_ID>  (1) 
000066BA00000001

>  <PUBCHEM_MMFF94_ENERGY>  (1) 
89.3701

>  <PUBCHEM_FEATURE_SELFOVERLAP>  (1) 
25.372

>  <PUBCHEM_SHAPE_FINGERPRINT>  (1) 
10074138 170 17616509788781274888
10165383 225 17899149483139218277
10382601 240 18269002066624843017
107951 10 17614580545670463572
11578080 2 17315045866865833580
12160290 23 17479174163400443925
12293681 4 18194113011423864917
12549972 3 17895740851823717289
12633257 1 18342188760836876091
12788726 201 17470980628509109128
13134695 92 18268967869767996316
13140716 1 17906443686401604592
133893 2 17469268985805790748
13533116 47 18263644134236938043
13583140 156 18260817237763981727
14178342 30 16988837302829756415
14787075 74 18187088390452302786
14943834 7 17338678950229310806
14955137 171 18201726192905303726
15163728 17 12030936061703553914
15238133 3 18046922472182069617
16945 1 18335975475977559396
17349148 13 17631996633844827847
17980427 23 17703213105328605067
1813 80 18201729396576457646
18681886 176 17488474150670250756
18785283 64 17970342831326299368
19078846 21 18339652135613169641
20600515 1 18268991998951800032
20739085 24 18131638884775585208
21524375 3 17766276857302333781
23419403 2 17316720427501577036
23558518 356 16757180381508110844
23559900 14 16950279624956452007
298252 57 17413325906951345124
31174 14 18335701697687523633
3286 77 18260833704821516627
394222 165 17983863555518798472
484985 159 16381110554379722898
497634 4 17391060440729840850
5895379 119 17273162153391777825
6086070 43 18337382765594717349
6442390 28 17469328487871448129
6786 2 17540830815868939336
7288768 16 17119441941005477729
81228 2 17696195802987622861
9841814 1 18339093639266371667

>  <PUBCHEM_SHAPE_MULTIPOLES>  (1) 
491.9
7.51
3.97
2.53
10.5
5.29
1.69
-5.55
-3.51
-3.62
-1.12
-0.32
-1.69
-0.36

>  <PUBCHEM_SHAPE_SELFOVERLAP>  (1) 
1034.995

>  <PUBCHEM_SHAPE_VOLUME>  (1) 
277.4

>  <PUBCHEM_COORDINATE_TYPE>  (1) 
2
5
10

$$$$
