2629
     RDKit          3D

 44 48  0  0  1  0  0  0  0  0999 V2000
    2.1827   -1.4037   -1.3359 S   0  0  0  0  0  0  0  0  0  0  0  0
    6.9321   -1.4102   -0.6669 S   0  0  0  0  0  0  0  0  0  0  0  0
    1.9900   -0.7101    3.2759 O   0  0  0  0  0  0  0  0  0  0  0  0
   -1.5793   -0.6398   -0.6886 O   0  0  0  0  0  0  0  0  0  0  0  0
    5.1071    1.2193    2.4114 O   0  0  0  0  0  0  0  0  0  0  0  0
    5.3606   -1.0500    2.5507 O   0  0  0  0  0  0  0  0  0  0  0  0
   -4.2381   -0.9443    2.2183 O   0  0  0  0  0  0  0  0  0  0  0  0
   -5.8098    0.2292   -1.5198 O   0  0  0  0  0  0  0  0  0  0  0  0
   -8.3509   -0.2538   -1.9299 O   0  0  0  0  0  0  0  0  0  0  0  0
   -1.7917    6.1769   -1.1422 O   0  0  0  0  0  0  0  0  0  0  0  0
    2.6897   -0.3711    1.0527 N   0  0  0  0  0  0  0  0  0  0  0  0
   -0.4963   -0.0741    1.2819 N   0  0  0  0  0  0  0  0  0  0  0  0
   -3.9151    0.3949    0.3761 N   0  0  0  0  0  0  0  0  0  0  0  0
   -5.8730   -0.9310    0.5370 N   0  0  0  0  0  0  0  0  0  0  0  0
   -8.2448   -2.0930   -0.4976 N   0  0  0  0  0  0  0  0  0  0  0  0
    9.6494   -1.5879   -1.1561 N   0  0  0  0  0  0  0  0  0  0  0  0
    8.8953    0.4396   -1.3083 N   0  0  0  0  0  0  0  0  0  0  0  0
   10.7154   -0.8378   -1.4683 N   0  0  0  0  0  0  0  0  0  0  0  0
   10.2480    0.4012   -1.5606 N   0  0  0  0  0  0  0  0  0  0  0  0
    1.6835   -0.3089    0.0096 C   0  0  0  0  0  0  0  0  0  0  0  0
    0.7068   -0.8934    1.0538 C   0  0  0  0  0  0  0  0  0  0  0  0
    1.8523   -0.6372    2.0774 C   0  0  0  0  0  0  0  0  0  0  0  0
    4.0147   -0.1516    0.8504 C   0  0  0  0  0  0  0  0  0  0  0  0
    4.5426   -0.1693   -0.3964 C   0  0  0  0  0  0  0  0  0  0  0  0
    3.7275   -0.4828   -1.6511 C   0  0  0  0  0  0  0  0  0  0  0  0
   -1.5474   -0.0216    0.3738 C   0  0  0  0  0  0  0  0  0  0  0  0
    5.9890    0.1231   -0.7126 C   0  0  0  0  0  0  0  0  0  0  0  0
   -2.6486    0.9340    0.8149 C   0  0  0  0  0  0  0  0  0  0  0  0
    4.9212    0.0240    2.0627 C   0  0  0  0  0  0  0  0  0  0  0  0
   -2.4201    2.3333    0.2931 C   0  0  0  0  0  0  0  0  0  0  0  0
   -6.7341   -1.7793    1.3582 C   0  0  0  0  0  0  0  0  0  0  0  0
   -4.6366   -0.5275    1.1267 C   0  0  0  0  0  0  0  0  0  0  0  0
   -7.4530   -2.7921    0.4948 C   0  0  0  0  0  0  0  0  0  0  0  0
   -2.3250    2.5580   -1.0803 C   0  0  0  0  0  0  0  0  0  0  0  0
   -2.3042    3.4003    1.1841 C   0  0  0  0  0  0  0  0  0  0  0  0
   -6.3785   -0.4894   -0.7043 C   0  0  0  0  0  0  0  0  0  0  0  0
   -7.7677   -0.9382   -1.0965 C   0  0  0  0  0  0  0  0  0  0  0  0
   -9.5075   -2.6883   -0.9021 C   0  0  0  0  0  0  0  0  0  0  0  0
    8.5457   -0.8017   -1.0609 C   0  0  0  0  0  0  0  0  0  0  0  0
   -2.1140    3.8496   -1.5626 C   0  0  0  0  0  0  0  0  0  0  0  0
   -2.0932    4.6919    0.7017 C   0  0  0  0  0  0  0  0  0  0  0  0
   -1.9981    4.9166   -0.6717 C   0  0  0  0  0  0  0  0  0  0  0  0
   -9.3148   -3.6933   -2.0188 C   0  0  0  0  0  0  0  0  0  0  0  0
    9.7883   -3.0106   -0.9737 C   0  0  0  0  0  0  0  0  0  0  0  0
  1 20  1  0
  1 25  1  0
  2 27  1  0
  2 39  1  0
  3 22  2  0
  4 26  2  0
  5 29  1  0
  6 29  2  0
  7 32  2  0
  8 36  2  0
  9 37  2  0
 10 42  1  0
 11 20  1  0
 11 22  1  0
 11 23  1  0
 12 21  1  0
 12 26  1  0
 13 28  1  0
 13 32  1  0
 14 31  1  0
 14 32  1  0
 14 36  1  0
 15 33  1  0
 15 37  1  0
 15 38  1  0
 16 18  1  0
 16 39  1  0
 16 44  1  0
 17 19  1  0
 17 39  2  0
 18 19  2  0
 20 21  1  0
 21 22  1  0
 23 24  2  0
 23 29  1  0
 24 25  1  0
 24 27  1  0
 26 28  1  0
 28 30  1  0
 30 34  2  0
 30 35  1  0
 31 33  1  0
 34 40  1  0
 35 41  2  0
 36 37  1  0
 38 43  1  0
 40 42  2  0
 41 42  1  0
M  CHG  1   5  -1
M  END
>  <PUBCHEM_COMPOUND_CID>  (1) 
2629

>  <PUBCHEM_CONFORMER_RMSD>  (1) 
1.2

>  <PUBCHEM_CONFORMER_DIVERSEORDER>  (1) 
1
97
35
276
229
336
349
34
241
281
294
291
384
243
333
237
108
80
242
245
386
143
101
63
168
308
173
141
352
216
271
377
238
284
95
187
223
83
354
68
362
118
266
40
221
160
344
105
92
42
103
117
283
260
261
307
113
375
335
73
323
65
383
144
183
341
193
310
378
313
390
98
66
267
364
29
112
202
133
134
228
89
388
129
326
196
300
381
194
132
115
285
151
199
359
201
321
125
251
93
353
55
172
351
44
350
338
139
371
303
318
358
17
264
239
124
109
296
389
288
282
177
181
26
374
106
275
325
347
317
33
355
191
192
174
346
348
252
19
157
373
342
225
32
36
81
369
259
182
255
149
247
206
320
370
39
322
135
123
372
166
299
163
240
30
385
234
86
137
279
315
363
23
120
203
76
142
254
178
376
268
6
162
47
146
209
277
159
190
87
345
116
311
188
57
127
236
250
211
368
184
314
278
302
140
280
154
79
213
70
263
218
107
90
387
145
226
11
72
298
366
158
48
339
289
75
198
305
356
343
61
309
332
71
119
78
224
232
136
161
391
165
20
126
15
367
99
167
51
274
360
244
301
150
189
164
253
233
170
337
197
319
286
212
287
382
257
114
273
9
176
82
175
340
231
8
152
214
147
38
208
316
249
111
222
331
379
91
59
77
306
58
312
292
131
3
13
297
324
186
85
361
96
235
334
22
155
392
328
4
272
179
10
304
329
365
2
204
25
50
293
128
153
14
62
37
67
148
230
227
102
357
219
290
94
248
380
169
217
52
258
210
270
330
327
185
393
12
24
54
220
265
180
130
41
295
5
43
60
31
138
121
49
27
171
110
262
74
84
205
207
269
256
122
394
18
21
45
53
16
56
88
246
215
100
69
200
156
28
46
64
195
7
104

>  <PUBCHEM_MMFF94_PARTIAL_CHARGES>  (1) 
49
1 -0.45
10 -0.53
11 -0.39
12 -0.65
13 -0.73
14 -0.42
15 -0.66
16 0.31
17 -0.34
18 -0.42
2 -0.29
20 0.44
21 0.28
22 0.58
23 -0.14
24 -0.28
25 0.37
26 0.57
27 0.37
28 0.5
29 1.05
3 -0.57
30 -0.14
31 0.3
32 0.69
33 0.3
34 -0.15
35 -0.15
36 0.63
37 0.63
38 0.3
39 0.24
4 -0.57
40 -0.15
41 -0.15
42 0.08
44 0.26
47 0.37
5 -0.9
53 0.37
58 0.15
59 0.15
6 -0.9
62 0.15
63 0.15
7 -0.57
70 0.45
8 -0.57
9 -0.57

>  <PUBCHEM_EFFECTIVE_ROTOR_COUNT>  (1) 
13.4

>  <PUBCHEM_PHARMACOPHORE_FEATURES>  (1) 
17
1 10 donor
1 12 donor
1 13 donor
1 3 acceptor
1 4 acceptor
1 5 acceptor
1 6 acceptor
1 7 acceptor
1 8 acceptor
1 9 acceptor
3 16 17 39 cation
3 5 6 29 anion
4 11 20 21 22 rings
5 16 17 18 19 39 rings
6 1 11 20 23 24 25 rings
6 14 15 31 33 36 37 rings
6 30 34 35 40 41 42 rings

>  <PUBCHEM_HEAVY_ATOM_COUNT>  (1) 
44

>  <PUBCHEM_ATOM_DEF_STEREO_COUNT>  (1) 
0

>  <PUBCHEM_ATOM_UDEF_STEREO_COUNT>  (1) 
3

>  <PUBCHEM_BOND_DEF_STEREO_COUNT>  (1) 
0

>  <PUBCHEM_BOND_UDEF_STEREO_COUNT>  (1) 
0

>  <PUBCHEM_ISOTOPIC_ATOM_COUNT>  (1) 
0

>  <PUBCHEM_COMPONENT_COUNT>  (1) 
1

>  <PUBCHEM_CACTVS_TAUTO_COUNT>  (1) 
8

>  <PUBCHEM_CONFORMER_ID>  (1) 
00000A4500000001

>  <PUBCHEM_MMFF94_ENERGY>  (1) 
95.1035

>  <PUBCHEM_FEATURE_SELFOVERLAP>  (1) 
86.603

>  <PUBCHEM_SHAPE_FINGERPRINT>  (1) 
10533779 47 11743852344127337550
10670039 82 18334862671705707000
11411753 29 17917988361431153216
12082328 90 18339084783745342998
12788726 201 18114174195441876425
13673619 4 17704353273143224689
13782708 43 17916874517138794135
14068700 675 18186795885978964429
14118638 360 18113900412799156202
15198563 99 18335695015056788253
15392192 29 18336837446682376883
16991971 28 18337668724337910955
17686467 74 18411704305012710480
335507 130 15267346227538550863
4339292 15 18273495663083281934
4353968 344 18336270033672612550
44280117 145 18202007594873228429
5219985 9 18335134315860791553
54039377 194 16200437957752514626
6058803 2 17463113661825761241
6523845 18 17775002380418164070
6673363 416 18336555958462652556
6691757 9 10303806541411109153

>  <PUBCHEM_SHAPE_MULTIPOLES>  (1) 
821.41
33.49
4.9
2.32
32.98
9.24
1.17
-37.33
-19.23
-9.91
-2.3
1.16
-0.3
0.21

>  <PUBCHEM_SHAPE_SELFOVERLAP>  (1) 
1730.521

>  <PUBCHEM_SHAPE_VOLUME>  (1) 
463.2

>  <PUBCHEM_COORDINATE_TYPE>  (1) 
2
5
10

$$$$
