2630
     RDKit          3D

 44 48  0  0  1  0  0  0  0  0999 V2000
    2.1959   -1.4727   -1.3087 S   0  0  0  0  0  0  0  0  0  0  0  0
    6.9469   -1.4144   -0.6542 S   0  0  0  0  0  0  0  0  0  0  0  0
    1.9798   -0.7594    3.2824 O   0  0  0  0  0  0  0  0  0  0  0  0
   -1.5761   -0.6607   -0.6871 O   0  0  0  0  0  0  0  0  0  0  0  0
    4.4590    1.1267    2.6974 O   0  0  0  0  0  0  0  0  0  0  0  0
    5.7610   -0.7244    2.3676 O   0  0  0  0  0  0  0  0  0  0  0  0
   -4.2406   -0.9343    2.2177 O   0  0  0  0  0  0  0  0  0  0  0  0
   -5.7995    0.2332   -1.5276 O   0  0  0  0  0  0  0  0  0  0  0  0
   -8.3434   -0.2345   -1.9388 O   0  0  0  0  0  0  0  0  0  0  0  0
   -1.7419    6.1553   -1.1710 O   0  0  0  0  0  0  0  0  0  0  0  0
    2.6879   -0.3872    1.0640 N   0  0  0  0  0  0  0  0  0  0  0  0
   -0.4918   -0.0935    1.2823 N   0  0  0  0  0  0  0  0  0  0  0  0
   -3.9062    0.3945    0.3700 N   0  0  0  0  0  0  0  0  0  0  0  0
   -5.8732   -0.9174    0.5342 N   0  0  0  0  0  0  0  0  0  0  0  0
   -8.2515   -2.0680   -0.4984 N   0  0  0  0  0  0  0  0  0  0  0  0
    9.6651   -1.5664   -1.1478 N   0  0  0  0  0  0  0  0  0  0  0  0
    8.8873    0.4504   -1.3215 N   0  0  0  0  0  0  0  0  0  0  0  0
   10.7217   -0.8078   -1.4713 N   0  0  0  0  0  0  0  0  0  0  0  0
   10.2399    0.4246   -1.5766 N   0  0  0  0  0  0  0  0  0  0  0  0
    1.6873   -0.3501    0.0130 C   0  0  0  0  0  0  0  0  0  0  0  0
    0.7060   -0.9219    1.0594 C   0  0  0  0  0  0  0  0  0  0  0  0
    1.8490   -0.6709    2.0840 C   0  0  0  0  0  0  0  0  0  0  0  0
    4.0125   -0.1752    0.8538 C   0  0  0  0  0  0  0  0  0  0  0  0
    4.5435   -0.1990   -0.3920 C   0  0  0  0  0  0  0  0  0  0  0  0
    3.7411   -0.5595   -1.6402 C   0  0  0  0  0  0  0  0  0  0  0  0
   -1.5413   -0.0379    0.3727 C   0  0  0  0  0  0  0  0  0  0  0  0
    5.9862    0.1070   -0.7152 C   0  0  0  0  0  0  0  0  0  0  0  0
   -2.6367    0.9270    0.8081 C   0  0  0  0  0  0  0  0  0  0  0  0
    4.8547    0.0166    2.0437 C   0  0  0  0  0  0  0  0  0  0  0  0
   -2.3981    2.3224    0.2804 C   0  0  0  0  0  0  0  0  0  0  0  0
   -4.6349   -0.5197    1.1237 C   0  0  0  0  0  0  0  0  0  0  0  0
   -6.7411   -1.7562    1.3581 C   0  0  0  0  0  0  0  0  0  0  0  0
   -7.4657   -2.7680    0.4982 C   0  0  0  0  0  0  0  0  0  0  0  0
   -2.2997    2.5404   -1.0938 C   0  0  0  0  0  0  0  0  0  0  0  0
   -2.2761    3.3925    1.1668 C   0  0  0  0  0  0  0  0  0  0  0  0
   -6.3742   -0.4780   -0.7097 C   0  0  0  0  0  0  0  0  0  0  0  0
   -7.7659   -0.9191   -1.1017 C   0  0  0  0  0  0  0  0  0  0  0  0
    8.5526   -0.7919   -1.0590 C   0  0  0  0  0  0  0  0  0  0  0  0
   -9.5177   -2.6565   -0.9019 C   0  0  0  0  0  0  0  0  0  0  0  0
   -2.0793    3.8284   -1.5816 C   0  0  0  0  0  0  0  0  0  0  0  0
   -2.0557    4.6805    0.6790 C   0  0  0  0  0  0  0  0  0  0  0  0
   -1.9574    4.8984   -0.6952 C   0  0  0  0  0  0  0  0  0  0  0  0
   -9.3303   -3.6677   -2.0139 C   0  0  0  0  0  0  0  0  0  0  0  0
    9.8208   -2.9853   -0.9496 C   0  0  0  0  0  0  0  0  0  0  0  0
  1 20  1  0
  1 25  1  0
  2 27  1  0
  2 38  1  0
  3 22  2  0
  4 26  2  0
  5 29  1  0
  6 29  2  0
  7 31  2  0
  8 36  2  0
  9 37  2  0
 10 42  1  0
 11 20  1  0
 11 22  1  0
 11 23  1  0
 12 21  1  0
 12 26  1  0
 13 28  1  0
 13 31  1  0
 14 31  1  0
 14 32  1  0
 14 36  1  0
 15 33  1  0
 15 37  1  0
 15 39  1  0
 16 18  1  0
 16 38  1  0
 16 44  1  0
 17 19  1  0
 17 38  2  0
 18 19  2  0
 20 21  1  0
 21 22  1  0
 23 24  2  0
 23 29  1  0
 24 25  1  0
 24 27  1  0
 26 28  1  0
 28 30  1  0
 30 34  2  0
 30 35  1  0
 32 33  1  0
 34 40  1  0
 35 41  2  0
 36 37  1  0
 39 43  1  0
 40 42  2  0
 41 42  1  0
M  END
>  <PUBCHEM_COMPOUND_CID>  (1) 
2630

>  <PUBCHEM_CONFORMER_RMSD>  (1) 
1.2

>  <PUBCHEM_CONFORMER_DIVERSEORDER>  (1) 
1
119
244
20
169
271
73
212
121
78
165
211
243
151
182
117
203
149
95
102
145
107
248
254
175
131
181
79
86
168
113
269
48
150
16
162
43
192
160
263
236
116
193
258
233
159
135
138
53
100
32
255
44
237
126
111
210
215
136
209
200
88
158
260
222
8
23
52
194
242
252
270
256
218
178
133
120
247
94
110
66
62
41
235
22
217
46
134
146
91
229
68
155
128
238
239
38
92
214
74
223
106
37
142
99
180
87
174
213
265
264
40
261
59
124
221
195
147
57
143
207
139
114
216
202
80
234
33
163
82
224
257
49
198
26
13
101
24
204
51
156
177
268
197
47
232
112
208
172
141
190
187
25
75
81
185
157
166
85
83
272
90
196
27
69
225
123
153
34
55
77
226
164
246
170
97
144
219
161
39
54
251
10
227
189
241
250
63
50
118
11
154
15
103
84
105
262
12
98
171
122
76
71
140
179
240
132
259
19
191
273
173
167
253
65
93
96
245
186
14
31
127
137
220
58
7
228
129
152
267
188
56
266
4
130
205
231
28
183
67
3
29
201
249
104
89
61
109
125
35
230
18
148
176
115
184
72
17
5
64
21
206
42
108
199
36
60
2
45
6
9
70
30

>  <PUBCHEM_MMFF94_PARTIAL_CHARGES>  (1) 
50
1 -0.45
10 -0.53
11 -0.39
12 -0.65
13 -0.73
14 -0.42
15 -0.66
16 0.31
17 -0.34
18 -0.42
2 -0.29
20 0.44
21 0.28
22 0.58
23 0.12
24 -0.28
25 0.37
26 0.57
27 0.37
28 0.5
29 0.71
3 -0.57
30 -0.14
31 0.69
32 0.3
33 0.3
34 -0.15
35 -0.15
36 0.63
37 0.63
38 0.24
39 0.3
4 -0.57
40 -0.15
41 -0.15
42 0.08
44 0.26
47 0.37
5 -0.65
53 0.37
58 0.5
59 0.15
6 -0.57
60 0.15
63 0.15
64 0.15
7 -0.57
71 0.45
8 -0.57
9 -0.57

>  <PUBCHEM_EFFECTIVE_ROTOR_COUNT>  (1) 
13.4

>  <PUBCHEM_PHARMACOPHORE_FEATURES>  (1) 
17
1 10 donor
1 12 donor
1 13 donor
1 3 acceptor
1 4 acceptor
1 5 acceptor
1 6 acceptor
1 7 acceptor
1 8 acceptor
1 9 acceptor
3 16 17 38 cation
3 5 6 29 anion
4 11 20 21 22 rings
5 16 17 18 19 38 rings
6 1 11 20 23 24 25 rings
6 14 15 32 33 36 37 rings
6 30 34 35 40 41 42 rings

>  <PUBCHEM_HEAVY_ATOM_COUNT>  (1) 
44

>  <PUBCHEM_ATOM_DEF_STEREO_COUNT>  (1) 
0

>  <PUBCHEM_ATOM_UDEF_STEREO_COUNT>  (1) 
3

>  <PUBCHEM_BOND_DEF_STEREO_COUNT>  (1) 
0

>  <PUBCHEM_BOND_UDEF_STEREO_COUNT>  (1) 
0

>  <PUBCHEM_ISOTOPIC_ATOM_COUNT>  (1) 
0

>  <PUBCHEM_COMPONENT_COUNT>  (1) 
1

>  <PUBCHEM_CACTVS_TAUTO_COUNT>  (1) 
8

>  <PUBCHEM_CONFORMER_ID>  (1) 
00000A4600000001

>  <PUBCHEM_MMFF94_ENERGY>  (1) 
100.4711

>  <PUBCHEM_FEATURE_SELFOVERLAP>  (1) 
86.602

>  <PUBCHEM_SHAPE_FINGERPRINT>  (1) 
10533779 47 11671794745799697574
10670039 82 18334862671695144504
11411753 29 17917988365710315760
12082328 90 18339366258722027654
12788726 201 18114173091635281361
13673619 4 17704353273143211705
13782708 43 17916873417632454095
14068700 675 18186513307174553149
14118638 360 18114744837729327122
15198563 99 18335695010761814469
15392192 29 18336837450977402651
16991971 28 18337668724359022971
17686467 74 18411704300717730208
23559900 14 17242164868570064815
335507 130 15267346227601867375
4339292 15 18273214188106571310
4353968 344 18336270033683168542
5219985 9 18334852840873537881
54039377 194 16128661838675466610
6058803 2 17463113661825728777
6523845 18 17775283855379050454
6673363 416 18336273383953221604
6691757 9 10375582656166809633

>  <PUBCHEM_SHAPE_MULTIPOLES>  (1) 
821.41
33.46
4.85
2.33
32.88
9.2
1.2
-37.1
-19.4
-9.74
-2.34
1.14
-0.22
0.24

>  <PUBCHEM_SHAPE_SELFOVERLAP>  (1) 
1732.235

>  <PUBCHEM_SHAPE_VOLUME>  (1) 
462.7

>  <PUBCHEM_COORDINATE_TYPE>  (1) 
2
5
10

$$$$
