26309
     RDKit          3D

 28 30  0  0  0  0  0  0  0  0999 V2000
    1.9460    1.4319   -0.6026 O   0  0  0  0  0  0  0  0  0  0  0  0
   -4.6909    1.6726   -1.1250 O   0  0  0  0  0  0  0  0  0  0  0  0
   -1.7651   -0.1621    1.9638 O   0  0  0  0  0  0  0  0  0  0  0  0
    2.3359   -1.9449    1.6803 O   0  0  0  0  0  0  0  0  0  0  0  0
    0.8240   -0.9001    0.2941 O   0  0  0  0  0  0  0  0  0  0  0  0
   -3.1684    1.1534    0.6011 N   0  0  0  0  0  0  0  0  0  0  0  0
    6.7039   -1.4504   -0.6042 N   0  0  0  0  0  0  0  0  0  0  0  0
   -1.8521    3.2346    0.4871 C   0  0  0  0  0  0  0  0  0  0  0  0
   -2.9634    2.4526    1.1804 C   0  0  0  0  0  0  0  0  0  0  0  0
   -0.4950    2.5297    0.5761 C   0  0  0  0  0  0  0  0  0  0  0  0
    0.6083    3.3685   -0.0766 C   0  0  0  0  0  0  0  0  0  0  0  0
   -4.0036    0.9055   -0.4766 C   0  0  0  0  0  0  0  0  0  0  0  0
   -2.5553   -0.0047    1.0518 C   0  0  0  0  0  0  0  0  0  0  0  0
   -3.9236   -0.5330   -0.7283 C   0  0  0  0  0  0  0  0  0  0  0  0
   -3.0479   -1.0834    0.1960 C   0  0  0  0  0  0  0  0  0  0  0  0
    1.9758    2.7042    0.0277 C   0  0  0  0  0  0  0  0  0  0  0  0
   -4.5571   -1.3028   -1.6821 C   0  0  0  0  0  0  0  0  0  0  0  0
   -2.7596   -2.4324    0.2151 C   0  0  0  0  0  0  0  0  0  0  0  0
   -4.2805   -2.6730   -1.6814 C   0  0  0  0  0  0  0  0  0  0  0  0
   -3.3904   -3.2323   -0.7419 C   0  0  0  0  0  0  0  0  0  0  0  0
    3.1113    0.7096   -0.5949 C   0  0  0  0  0  0  0  0  0  0  0  0
    3.1639   -0.5428    0.0073 C   0  0  0  0  0  0  0  0  0  0  0  0
    4.2402    1.2517   -1.2002 C   0  0  0  0  0  0  0  0  0  0  0  0
    4.3593   -1.2618    0.0044 C   0  0  0  0  0  0  0  0  0  0  0  0
    5.4950   -0.7238   -0.6009 C   0  0  0  0  0  0  0  0  0  0  0  0
    5.4357    0.5328   -1.2032 C   0  0  0  0  0  0  0  0  0  0  0  0
    1.9894   -1.1220    0.6445 C   0  0  0  0  0  0  0  0  0  0  0  0
    1.2642   -2.5775    2.3881 C   0  0  0  0  0  0  0  0  0  0  0  0
  1 16  1  0
  1 21  1  0
  2 12  2  0
  3 13  2  0
  4 27  1  0
  4 28  1  0
  5 27  2  0
  6  9  1  0
  6 12  1  0
  6 13  1  0
  7 25  1  0
  8  9  1  0
  8 10  1  0
 10 11  1  0
 11 16  1  0
 12 14  1  0
 13 15  1  0
 14 15  2  0
 14 17  1  0
 15 18  1  0
 17 19  2  0
 18 20  2  0
 19 20  1  0
 21 22  2  0
 21 23  1  0
 22 24  1  0
 22 27  1  0
 23 26  2  0
 24 25  2  0
 25 26  1  0
M  END
>  <PUBCHEM_COMPOUND_CID>  (1) 
26309

>  <PUBCHEM_CONFORMER_RMSD>  (1) 
1

>  <PUBCHEM_CONFORMER_DIVERSEORDER>  (1) 
1
166
236
122
404
10
188
127
433
194
103
444
55
257
289
11
354
438
129
145
319
80
443
155
211
329
400
395
227
253
115
62
285
3
342
31
130
168
176
347
35
336
15
196
269
200
418
287
325
92
380
312
124
428
4
78
30
217
52
213
123
29
132
420
348
13
241
171
403
89
242
214
152
151
271
149
44
111
363
158
322
224
288
412
19
153
291
207
205
365
357
170
95
39
308
83
305
441
268
423
38
42
120
43
449
255
245
167
177
189
119
206
17
202
140
204
61
442
216
73
430
273
8
295
6
394
56
141
353
401
112
376
235
306
281
16
311
154
18
91
101
318
431
292
263
21
448
203
252
346
247
334
143
270
185
106
229
416
383
81
24
379
419
190
374
138
9
150
309
160
116
88
339
172
46
27
356
164
75
398
396
408
370
437
219
148
259
32
290
85
386
264
117
266
34
174
432
276
343
57
389
440
86
320
274
358
142
135
324
36
445
218
351
162
41
326
65
210
286
77
231
359
426
367
28
240
313
429
422
407
191
340
197
163
239
76
417
14
410
87
371
2
421
37
384
243
220
362
193
237
439
251
424
84
67
298
256
178
33
5
366
304
12
299
72
375
234
23
381
262
181
267
393
97
7
272
195
139
22
147
233
198
317
260
345
144
397
373
175
47
246
293
250
71
118
391
20
40
364
413
226
156
258
136
388
59
102
390
307
125
300
350
344
107
369
100
94
223
232
303
53
186
436
159
361
98
402
405
434
337
70
187
284
79
327
333
173
74
310
126
222
446
66
296
212
192
283
382
352
165
69
45
297
179
131
425
335
415
321
275
301
63
104
435
199
316
182
261
406
360
25
60
58
244
387
248
385
157
201
447
169
265
110
209
221
302
230
331
399
137
26
49
277
161
323
368
108
64
278
332
225
355
328
128
208
113
279
68
254
411
315
280
294
50
90
314
54
180
228
349
133
372
427
146
414
378
114
121
134
105
184
377
282
249
330
238
82
392
341
109
409
215
51
183
99
96
48
338
93

>  <PUBCHEM_MMFF94_PARTIAL_CHARGES>  (1) 
34
1 -0.36
12 0.54
13 0.54
14 0.09
15 0.09
16 0.28
17 -0.15
18 -0.15
19 -0.15
2 -0.57
20 -0.15
21 0.08
22 0.09
23 -0.15
24 -0.15
25 0.1
26 -0.15
27 0.63
28 0.28
3 -0.57
39 0.15
4 -0.43
40 0.15
41 0.15
42 0.15
43 0.15
44 0.15
45 0.15
46 0.4
47 0.4
5 -0.57
6 -0.42
7 -0.9
9 0.3

>  <PUBCHEM_EFFECTIVE_ROTOR_COUNT>  (1) 
9.2

>  <PUBCHEM_PHARMACOPHORE_FEATURES>  (1) 
9
1 1 acceptor
1 2 acceptor
1 3 acceptor
1 5 acceptor
1 7 cation
1 7 donor
5 6 12 13 14 15 rings
6 14 15 17 18 19 20 rings
6 21 22 23 24 25 26 rings

>  <PUBCHEM_HEAVY_ATOM_COUNT>  (1) 
28

>  <PUBCHEM_ATOM_DEF_STEREO_COUNT>  (1) 
0

>  <PUBCHEM_ATOM_UDEF_STEREO_COUNT>  (1) 
0

>  <PUBCHEM_BOND_DEF_STEREO_COUNT>  (1) 
0

>  <PUBCHEM_BOND_UDEF_STEREO_COUNT>  (1) 
0

>  <PUBCHEM_ISOTOPIC_ATOM_COUNT>  (1) 
0

>  <PUBCHEM_COMPONENT_COUNT>  (1) 
1

>  <PUBCHEM_CACTVS_TAUTO_COUNT>  (1) 
1

>  <PUBCHEM_CONFORMER_ID>  (1) 
000066C500000001

>  <PUBCHEM_MMFF94_ENERGY>  (1) 
83.0794

>  <PUBCHEM_FEATURE_SELFOVERLAP>  (1) 
45.769

>  <PUBCHEM_SHAPE_FINGERPRINT>  (1) 
10764073 3 17899171332729474129
11513181 2 17765997199117635391
11607047 403 17555431184046436824
12553582 1 18409728452431201553
12596599 1 17916327037282649636
12788726 201 18198337360688073977
14117953 113 17762322627331756309
14279260 333 18260832545481832754
14931854 50 18334007315698509919
15537594 2 18335991882636468721
15968369 26 17329690528793269901
17138139 8 18408604786271199888
17909252 39 18058174006354229226
19026451 147 18055059123998489991
20511986 3 18115859720348982872
20775438 99 17049052275841830199
20775530 9 18267297806611162405
21133410 171 17690225656876136719
21857420 4 15258565746643681454
221357 26 18265051512682254719
22393880 68 18408878568317976733
23559900 14 18199457934856418705
238918 7 14155194180414356443
4280585 95 18411691085087380112
44062 13 18341049700896803589
44344687 77 17831859428314608011
463206 1 18337677506950055929
474144 1 17896862301342595043
57527585 103 17606126327749641105
6823239 73 17989192764008972808

>  <PUBCHEM_SHAPE_MULTIPOLES>  (1) 
536.92
12.51
4.08
1.6
10.61
1.5
0.51
-5.37
-6.22
-2.72
0.46
-0.5
-0.89
-2.16

>  <PUBCHEM_SHAPE_SELFOVERLAP>  (1) 
1155.553

>  <PUBCHEM_SHAPE_VOLUME>  (1) 
296.7

>  <PUBCHEM_COORDINATE_TYPE>  (1) 
2
5
10

$$$$
