26306
     RDKit          3D

 14 14  0  0  0  0  0  0  0  0999 V2000
    1.4592    0.4281    0.6292 O   0  0  0  0  0  0  0  0  0  0  0  0
   -0.5857   -2.8915   -0.6090 O   0  0  0  0  0  0  0  0  0  0  0  0
    0.9951   -2.2740    0.9030 O   0  0  0  0  0  0  0  0  0  0  0  0
   -3.9860    0.7365   -0.4667 N   0  0  0  0  0  0  0  0  0  0  0  0
    2.2558    1.5314    0.2032 C   0  0  0  0  0  0  0  0  0  0  0  0
    3.6528    1.0298   -0.1293 C   0  0  0  0  0  0  0  0  0  0  0  0
    0.1245    0.4879    0.3598 C   0  0  0  0  0  0  0  0  0  0  0  0
   -0.6150   -0.6750    0.1450 C   0  0  0  0  0  0  0  0  0  0  0  0
   -0.5011    1.7332    0.3004 C   0  0  0  0  0  0  0  0  0  0  0  0
   -1.9802   -0.5927   -0.1296 C   0  0  0  0  0  0  0  0  0  0  0  0
   -2.6058    0.6526   -0.1892 C   0  0  0  0  0  0  0  0  0  0  0  0
    3.6329    0.0029   -1.2471 C   0  0  0  0  0  0  0  0  0  0  0  0
   -1.8662    1.8155    0.0258 C   0  0  0  0  0  0  0  0  0  0  0  0
    0.0196   -1.9847    0.2047 C   0  0  0  0  0  0  0  0  0  0  0  0
  1  5  1  0
  1  7  1  0
  2 14  1  0
  3 14  2  0
  4 11  1  0
  5  6  1  0
  6 12  1  0
  7  8  2  0
  7  9  1  0
  8 10  1  0
  8 14  1  0
  9 13  2  0
 10 11  2  0
 11 13  1  0
M  END
>  <PUBCHEM_COMPOUND_CID>  (1) 
26306

>  <PUBCHEM_CONFORMER_RMSD>  (1) 
0.6

>  <PUBCHEM_CONFORMER_DIVERSEORDER>  (1) 
4
19
1
5
21
20
8
15
18
24
17
22
11
16
23
6
14
10
25
12
9
7
3
2
13

>  <PUBCHEM_MMFF94_PARTIAL_CHARGES>  (1) 
18
1 -0.36
10 -0.15
11 0.1
13 -0.15
14 0.63
19 0.15
2 -0.65
20 0.15
24 0.15
25 0.4
26 0.4
27 0.5
3 -0.57
4 -0.9
5 0.28
7 0.08
8 0.09
9 -0.15

>  <PUBCHEM_EFFECTIVE_ROTOR_COUNT>  (1) 
4

>  <PUBCHEM_PHARMACOPHORE_FEATURES>  (1) 
8
1 1 acceptor
1 12 hydrophobe
1 2 acceptor
1 3 acceptor
1 4 cation
1 4 donor
3 2 3 14 anion
6 7 8 9 10 11 13 rings

>  <PUBCHEM_HEAVY_ATOM_COUNT>  (1) 
14

>  <PUBCHEM_ATOM_DEF_STEREO_COUNT>  (1) 
0

>  <PUBCHEM_ATOM_UDEF_STEREO_COUNT>  (1) 
0

>  <PUBCHEM_BOND_DEF_STEREO_COUNT>  (1) 
0

>  <PUBCHEM_BOND_UDEF_STEREO_COUNT>  (1) 
0

>  <PUBCHEM_ISOTOPIC_ATOM_COUNT>  (1) 
0

>  <PUBCHEM_COMPONENT_COUNT>  (1) 
1

>  <PUBCHEM_CACTVS_TAUTO_COUNT>  (1) 
1

>  <PUBCHEM_CONFORMER_ID>  (1) 
000066C200000004

>  <PUBCHEM_MMFF94_ENERGY>  (1) 
51.0407

>  <PUBCHEM_FEATURE_SELFOVERLAP>  (1) 
40.657

>  <PUBCHEM_SHAPE_FINGERPRINT>  (1) 
10922049 32 18408893948806827731
11322862 65 18338801229113151430
116883 192 17694778919120349159
12138202 97 18340493377787665662
12644460 14 18120387453719155185
12716758 59 18340207517628434912
13380535 76 18334853892338503155
15775835 57 18114180839371264716
16945 1 18410001131304437609
18186145 218 18342179955484103276
19021347 11 18336544906677635264
193761 8 17907011773162122945
20201158 50 17988654003696477452
20645476 183 17604157029209285146
20645477 56 18337673143490396184
20645477 70 18193543486175498901
20871999 31 18193282025092357428
21501502 16 18050282575162895657
21524375 3 18261390018591451768
22713019 99 18202009802369971540
22802520 49 18128260193096699928
23114952 82 17756409483915245301
23402539 116 18341883134789606964
23419403 2 15182706827412354241
23526114 1 18122344571283579300
23552423 10 18049718521344506225
23557571 272 17980491375464508044
23559900 14 18272089448774653144
2748010 2 18049993695583296033
3060560 45 18335132081507301756
3071541 250 17981329980038473759
3071541 37 18262234409299047301
43471831 8 18335135375710229451
528862 383 18189606159867376363
57177213 63 18189338978494503181
57483677 78 18336277824458074012
7364860 26 18124311606001460287
81228 2 17832983119615204347
81539 233 17968371252221094019
9709674 26 18200880703087072204

>  <PUBCHEM_SHAPE_MULTIPOLES>  (1) 
265.52
5.32
2.54
0.84
2.17
1.77
0.09
-2.44
1.71
-0.32
-0.16
0.39
0.13
0.03

>  <PUBCHEM_SHAPE_SELFOVERLAP>  (1) 
548.051

>  <PUBCHEM_SHAPE_VOLUME>  (1) 
152.9

>  <PUBCHEM_COORDINATE_TYPE>  (1) 
2
5
10

$$$$
