26311
     RDKit          3D

 10  9  0  0  0  0  0  0  0  0999 V2000
    0.2674   -1.8210    0.0007 O   0  0  0  0  0  0  0  0  0  0  0  0
    2.8290   -0.7690   -0.0008 O   0  0  0  0  0  0  0  0  0  0  0  0
   -3.0672    1.3512   -0.0004 O   0  0  0  0  0  0  0  0  0  0  0  0
   -1.4508   -0.2657    0.0001 N   0  0  0  0  0  0  0  0  0  0  0  0
    0.8170    0.4238    0.0000 N   0  0  0  0  0  0  0  0  0  0  0  0
   -1.8445    1.1724    0.0002 N   0  0  0  0  0  0  0  0  0  0  0  0
    2.8385    1.5282    0.0006 N   0  0  0  0  0  0  0  0  0  0  0  0
   -0.0964   -0.6408    0.0006 C   0  0  0  0  0  0  0  0  0  0  0  0
   -2.5041   -1.2731   -0.0005 C   0  0  0  0  0  0  0  0  0  0  0  0
    2.2111    0.2939   -0.0007 C   0  0  0  0  0  0  0  0  0  0  0  0
  1  8  2  0
  2 10  2  0
  3  6  2  0
  4  6  1  0
  4  8  1  0
  4  9  1  0
  5  8  1  0
  5 10  1  0
  7 10  1  0
M  END
>  <PUBCHEM_COMPOUND_CID>  (1) 
26311

>  <PUBCHEM_CONFORMER_RMSD>  (1) 
0.6

>  <PUBCHEM_CONFORMER_DIVERSEORDER>  (1) 
1
9
12
5
6
10
11
7
3
8
2
4

>  <PUBCHEM_MMFF94_PARTIAL_CHARGES>  (1) 
13
1 -0.57
10 0.69
11 0.37
15 0.37
16 0.37
2 -0.57
3 -0.16
4 -0.18
5 -0.49
6 -0.02
7 -0.8
8 0.69
9 0.3

>  <PUBCHEM_EFFECTIVE_ROTOR_COUNT>  (1) 
4

>  <PUBCHEM_PHARMACOPHORE_FEATURES>  (1) 
4
1 1 acceptor
1 2 acceptor
1 5 donor
1 7 donor

>  <PUBCHEM_HEAVY_ATOM_COUNT>  (1) 
10

>  <PUBCHEM_ATOM_DEF_STEREO_COUNT>  (1) 
0

>  <PUBCHEM_ATOM_UDEF_STEREO_COUNT>  (1) 
0

>  <PUBCHEM_BOND_DEF_STEREO_COUNT>  (1) 
0

>  <PUBCHEM_BOND_UDEF_STEREO_COUNT>  (1) 
0

>  <PUBCHEM_ISOTOPIC_ATOM_COUNT>  (1) 
0

>  <PUBCHEM_COMPONENT_COUNT>  (1) 
1

>  <PUBCHEM_CACTVS_TAUTO_COUNT>  (1) 
5

>  <PUBCHEM_CONFORMER_ID>  (1) 
000066C700000001

>  <PUBCHEM_MMFF94_ENERGY>  (1) 
19.9981

>  <PUBCHEM_FEATURE_SELFOVERLAP>  (1) 
20.352

>  <PUBCHEM_SHAPE_FINGERPRINT>  (1) 
12932764 1 17488741306347192230
14325111 11 18410575101937958592
14390081 3 18412261739879619553
19973954 147 18410858788859944852
20653085 51 18339935847771767808
21040471 1 18410575127992663942
23552423 10 18334858311860097282
29004967 10 8646764499970681398
3248919 1 17313668256031664226
5084963 1 18201441418982363618

>  <PUBCHEM_SHAPE_MULTIPOLES>  (1) 
168.26
4.77
1.66
0.55
0.5
0
0
1.35
0
-0.47
0
-0.01
-0.02
0

>  <PUBCHEM_SHAPE_SELFOVERLAP>  (1) 
317.951

>  <PUBCHEM_SHAPE_VOLUME>  (1) 
103.5

>  <PUBCHEM_COORDINATE_TYPE>  (1) 
2
5
10

$$$$
