2632
     RDKit          3D

 30 32  0  0  1  0  0  0  0  0999 V2000
    2.1917   -1.4963    2.2426 S   0  0  0  0  0  0  0  0  0  0  0  0
   -5.7767    1.9160   -1.7583 S   0  0  0  0  0  0  0  0  0  0  0  0
    0.1921    2.3732    0.6109 O   0  0  0  0  0  0  0  0  0  0  0  0
    5.7452   -0.9952   -0.7956 O   0  0  0  0  0  0  0  0  0  0  0  0
    2.6309    2.2955   -1.4121 O   0  0  0  0  0  0  0  0  0  0  0  0
    4.0288    2.9279    0.2838 O   0  0  0  0  0  0  0  0  0  0  0  0
   -2.9210    0.4323    2.1707 O   0  0  0  0  0  0  0  0  0  0  0  0
   -4.8395   -2.3593   -0.7566 O   0  0  0  0  0  0  0  0  0  0  0  0
    7.8907   -0.1563   -0.9701 O   0  0  0  0  0  0  0  0  0  0  0  0
    1.6872    0.5497    0.6271 N   0  0  0  0  0  0  0  0  0  0  0  0
   -1.3286   -0.4867    0.7110 N   0  0  0  0  0  0  0  0  0  0  0  0
   -3.7692   -2.0343    0.0884 N   0  0  0  0  0  0  0  0  0  0  0  0
   -6.0228   -0.0296   -0.0741 N   0  0  0  0  0  0  0  0  0  0  0  0
   -8.0501    0.9938   -0.7321 N   0  0  0  0  0  0  0  0  0  0  0  0
    1.1695   -0.7696    0.9413 C   0  0  0  0  0  0  0  0  0  0  0  0
   -0.1172   -0.0498    1.4009 C   0  0  0  0  0  0  0  0  0  0  0  0
    0.5309    1.2275    0.7946 C   0  0  0  0  0  0  0  0  0  0  0  0
    2.9812    0.7942    0.2958 C   0  0  0  0  0  0  0  0  0  0  0  0
    3.9526   -0.1241    0.5133 C   0  0  0  0  0  0  0  0  0  0  0  0
    3.7088   -1.4508    1.2291 C   0  0  0  0  0  0  0  0  0  0  0  0
    5.3953    0.0392    0.0995 C   0  0  0  0  0  0  0  0  0  0  0  0
    3.2904    2.1244   -0.2493 C   0  0  0  0  0  0  0  0  0  0  0  0
   -2.6008   -0.1959    1.1745 C   0  0  0  0  0  0  0  0  0  0  0  0
   -3.6907   -0.7546    0.2968 C   0  0  0  0  0  0  0  0  0  0  0  0
   -4.6768    0.1209   -0.3449 C   0  0  0  0  0  0  0  0  0  0  0  0
    7.0350   -0.9804   -1.2627 C   0  0  0  0  0  0  0  0  0  0  0  0
   -4.3492    1.1232   -1.2339 C   0  0  0  0  0  0  0  0  0  0  0  0
    7.2616   -2.1303   -2.1967 C   0  0  0  0  0  0  0  0  0  0  0  0
   -6.6974    0.8633   -0.7637 C   0  0  0  0  0  0  0  0  0  0  0  0
   -4.8521   -3.7677   -0.9302 C   0  0  0  0  0  0  0  0  0  0  0  0
  1 15  1  0
  1 20  1  0
  2 27  1  0
  2 29  1  0
  3 17  2  0
  4 21  1  0
  4 26  1  0
  5 22  1  0
  6 22  2  0
  7 23  2  0
  8 12  1  0
  8 30  1  0
  9 26  2  0
 10 15  1  0
 10 17  1  0
 10 18  1  0
 11 16  1  0
 11 23  1  0
 12 24  2  0
 13 25  1  0
 13 29  2  0
 14 29  1  0
 15 16  1  0
 16 17  1  0
 18 19  2  0
 18 22  1  0
 19 20  1  0
 19 21  1  0
 23 24  1  0
 24 25  1  0
 25 27  2  0
 26 28  1  0
M  END
>  <PUBCHEM_COMPOUND_CID>  (1) 
2632

>  <PUBCHEM_CONFORMER_RMSD>  (1) 
1

>  <PUBCHEM_CONFORMER_DIVERSEORDER>  (1) 
1
27
110
60
145
37
150
128
71
70
11
146
51
2
91
113
151
129
143
73
120
149
8
136
109
53
62
101
94
139
35
31
12
85
132
142
32
135
86
66
95
105
141
34
50
104
10
140
96
81
153
44
90
68
75
117
124
21
119
123
102
114
125
108
64
134
118
98
49
126
5
46
152
43
33
79
15
25
36
99
147
6
156
23
17
38
106
84
107
69
93
19
92
61
127
137
65
52
116
48
82
24
22
138
130
13
112
148
59
74
154
111
67
97
83
16
9
58
42
144
30
78
7
77
155
47
3
76
133
89
131
29
18
26
122
14
41
45
88
103
39
63
28
56
40
72
87
57
100
4
20
115
55
80
54
121

>  <PUBCHEM_MMFF94_PARTIAL_CHARGES>  (1) 
35
1 -0.45
10 -0.39
11 -0.65
12 -0.51
13 -0.57
14 -0.88
15 0.44
16 0.28
17 0.58
18 0.12
19 -0.28
2 -0.08
20 0.37
21 0.42
22 0.71
23 0.63
24 0.54
25 0.14
26 0.66
27 -0.11
28 0.06
29 0.46
3 -0.57
30 0.28
35 0.37
38 0.5
39 0.15
4 -0.43
46 0.4
47 0.4
5 -0.65
6 -0.57
7 -0.57
8 -0.22
9 -0.57

>  <PUBCHEM_EFFECTIVE_ROTOR_COUNT>  (1) 
9.6

>  <PUBCHEM_PHARMACOPHORE_FEATURES>  (1) 
13
1 11 donor
1 12 acceptor
1 14 donor
1 3 acceptor
1 5 acceptor
1 6 acceptor
1 7 acceptor
1 9 acceptor
3 13 14 29 cation
3 5 6 22 anion
4 10 15 16 17 rings
5 2 13 25 27 29 rings
6 1 10 15 18 19 20 rings

>  <PUBCHEM_HEAVY_ATOM_COUNT>  (1) 
30

>  <PUBCHEM_ATOM_DEF_STEREO_COUNT>  (1) 
0

>  <PUBCHEM_ATOM_UDEF_STEREO_COUNT>  (1) 
2

>  <PUBCHEM_BOND_DEF_STEREO_COUNT>  (1) 
0

>  <PUBCHEM_BOND_UDEF_STEREO_COUNT>  (1) 
1

>  <PUBCHEM_ISOTOPIC_ATOM_COUNT>  (1) 
0

>  <PUBCHEM_COMPONENT_COUNT>  (1) 
1

>  <PUBCHEM_CACTVS_TAUTO_COUNT>  (1) 
4

>  <PUBCHEM_CONFORMER_ID>  (1) 
00000A4800000001

>  <PUBCHEM_MMFF94_ENERGY>  (1) 
71.2573

>  <PUBCHEM_FEATURE_SELFOVERLAP>  (1) 
66.288

>  <PUBCHEM_SHAPE_FINGERPRINT>  (1) 
10 15 9007046968597443230
10391435 84 17988916795650268578
106641 1 12535335785045043390
10693767 8 18410293572114032858
11135609 201 12252191791725579404
12788726 201 18059005087312038321
13540713 4 17898588720193926520
13668630 136 18202281407448727015
13690498 29 18337388353052212143
14849402 71 10591458634903824290
15064981 194 17967825951027199293
15064986 266 18189057650512369787
15183329 4 18410853227357351201
15475509 35 15625653892226405878
21033648 29 17240766232716286280
21637258 2 17060339566507804098
21792961 116 17676779669318703354
22224240 67 8070021168963534729
22393880 68 18337101358572566715
23559900 14 17917702556657299033
23576562 1 17823147885342356110
249057 3 18410009944682525119
2838139 119 13118290325809988654
29717793 49 18060139838455056112
3004659 81 18410570695238209672
4073 2 16226054362276183187
44062 13 18341602768410343559
465052 167 14045740392783330002

>  <PUBCHEM_SHAPE_MULTIPOLES>  (1) 
559.09
21.04
2.86
1.82
0.91
0.75
0.03
2.66
14.38
-1.52
1
1.39
0.58
1.19

>  <PUBCHEM_SHAPE_SELFOVERLAP>  (1) 
1158.416

>  <PUBCHEM_SHAPE_VOLUME>  (1) 
321.8

>  <PUBCHEM_COORDINATE_TYPE>  (1) 
2
5
10

$$$$
