26321
     RDKit          3D

 15 15  0  0  0  0  0  0  0  0999 V2000
    2.1478    2.4079   -0.0485 O   0  0  0  0  0  0  0  0  0  0  0  0
   -4.0307    0.5668   -0.4329 O   0  0  0  0  0  0  0  0  0  0  0  0
    3.2174   -0.8701   -0.3600 N   0  0  0  0  0  0  0  0  0  0  0  0
   -2.3046   -0.8874    0.2501 N   0  0  0  0  0  0  0  0  0  0  0  0
    2.5364   -0.2920    0.7980 C   0  0  0  0  0  0  0  0  0  0  0  0
    1.1863    0.2662    0.4338 C   0  0  0  0  0  0  0  0  0  0  0  0
    0.0757   -0.5638    0.5100 C   0  0  0  0  0  0  0  0  0  0  0  0
    1.0621    1.5884    0.0287 C   0  0  0  0  0  0  0  0  0  0  0  0
   -1.1821   -0.0624    0.1752 C   0  0  0  0  0  0  0  0  0  0  0  0
   -0.1957    2.0900   -0.3060 C   0  0  0  0  0  0  0  0  0  0  0  0
   -1.3177    1.2646   -0.2328 C   0  0  0  0  0  0  0  0  0  0  0  0
    2.4238   -1.9590   -0.9286 C   0  0  0  0  0  0  0  0  0  0  0  0
    4.5472   -1.3489    0.0154 C   0  0  0  0  0  0  0  0  0  0  0  0
   -3.6108   -0.5203   -0.0507 C   0  0  0  0  0  0  0  0  0  0  0  0
   -4.5550   -1.6801    0.1484 C   0  0  0  0  0  0  0  0  0  0  0  0
  1  8  1  0
  2 14  2  0
  3  5  1  0
  3 12  1  0
  3 13  1  0
  4  9  1  0
  4 14  1  0
  5  6  1  0
  6  7  2  0
  6  8  1  0
  7  9  1  0
  8 10  2  0
  9 11  2  0
 10 11  1  0
 14 15  1  0
M  END
>  <PUBCHEM_COMPOUND_CID>  (1) 
26321

>  <PUBCHEM_CONFORMER_RMSD>  (1) 
0.6

>  <PUBCHEM_CONFORMER_DIVERSEORDER>  (1) 
4
2
11
9
6
10
8
3
12
7
5
1

>  <PUBCHEM_MMFF94_PARTIAL_CHARGES>  (1) 
20
1 -0.53
10 -0.15
11 -0.15
12 0.27
13 0.27
14 0.57
15 0.06
18 0.15
19 0.15
2 -0.57
20 0.15
27 0.37
28 0.45
3 -0.81
4 -0.55
5 0.41
6 -0.14
7 -0.15
8 0.08
9 0.12

>  <PUBCHEM_EFFECTIVE_ROTOR_COUNT>  (1) 
4

>  <PUBCHEM_PHARMACOPHORE_FEATURES>  (1) 
5
1 1 donor
1 2 acceptor
1 3 cation
1 4 donor
6 6 7 8 9 10 11 rings

>  <PUBCHEM_HEAVY_ATOM_COUNT>  (1) 
15

>  <PUBCHEM_ATOM_DEF_STEREO_COUNT>  (1) 
0

>  <PUBCHEM_ATOM_UDEF_STEREO_COUNT>  (1) 
0

>  <PUBCHEM_BOND_DEF_STEREO_COUNT>  (1) 
0

>  <PUBCHEM_BOND_UDEF_STEREO_COUNT>  (1) 
0

>  <PUBCHEM_ISOTOPIC_ATOM_COUNT>  (1) 
0

>  <PUBCHEM_COMPONENT_COUNT>  (1) 
1

>  <PUBCHEM_CACTVS_TAUTO_COUNT>  (1) 
6

>  <PUBCHEM_CONFORMER_ID>  (1) 
000066D100000004

>  <PUBCHEM_MMFF94_ENERGY>  (1) 
46.4518

>  <PUBCHEM_FEATURE_SELFOVERLAP>  (1) 
25.371

>  <PUBCHEM_SHAPE_FINGERPRINT>  (1) 
11543360 7 14851893577329900307
116883 192 18340207371383470445
11806522 49 18409167723049568912
12032990 46 18408886248041235811
12346645 6 18268992162250448812
13296908 3 18334853961379681107
13740256 8 18408889554907948146
14115302 16 17313394426155152618
14252887 29 18412543240710530506
15442244 35 18411421713418212873
15477762 27 18413109476366777718
15536298 74 18339358664333930121
15848700 24 18411410709236954439
16945 1 18118392956384335961
18186145 218 17749099015827628789
20281475 54 18411707555896284203
20339313 130 18411702114389063145
20374829 77 18336542729140083978
20645477 70 18337102492792176687
20671657 53 18408043996032252649
20871998 22 18411981343060857154
20871999 31 18262242097332698916
21296965 67 18340204103160920656
21501502 16 18338809948007895476
21501925 9 18411974793040649544
221490 88 18190748724485113603
23402539 116 18262513702601481982
23557571 272 18126851499985260510
23559900 14 18411410713748479000
2748010 2 18262221296579705101
276578 36 10303815380258176908
2871803 45 18338517418070214662
4463277 69 17703512090744817063
474 4 8718819890632890351
5104073 3 18410293653348328625
7364860 26 18269555099451084048
81228 2 18191597336981842544
83771 10 18343582915183130026
9709674 26 18117559750499599011

>  <PUBCHEM_SHAPE_MULTIPOLES>  (1) 
286.99
7.71
2.26
0.77
3.33
0.8
0.01
-5.17
0.36
-0.76
0.36
-0.24
-0.13
0.51

>  <PUBCHEM_SHAPE_SELFOVERLAP>  (1) 
587.073

>  <PUBCHEM_SHAPE_VOLUME>  (1) 
167.2

>  <PUBCHEM_COORDINATE_TYPE>  (1) 
2
5
10

$$$$
