26332
     RDKit          3D

  9  9  0  0  0  0  0  0  0  0999 V2000
    0.1239   -0.9239   -0.2243 N   0  0  0  0  0  0  0  0  0  0  0  0
    0.7964    1.7753    0.1334 N   0  0  0  0  0  0  0  0  0  0  0  0
   -2.2088   -0.3430   -0.5533 C   0  0  0  0  0  0  0  0  0  0  0  0
   -0.7996    0.0559   -0.2865 C   0  0  0  0  0  0  0  0  0  0  0  0
   -2.9880   -0.6252    0.7298 C   0  0  0  0  0  0  0  0  0  0  0  0
    1.3896   -0.5301    0.0196 C   0  0  0  0  0  0  0  0  0  0  0  0
   -0.4693    1.3817   -0.1108 C   0  0  0  0  0  0  0  0  0  0  0  0
    1.7199    0.7957    0.1954 C   0  0  0  0  0  0  0  0  0  0  0  0
    2.4358   -1.5864    0.0968 C   0  0  0  0  0  0  0  0  0  0  0  0
  1  4  2  0
  1  6  1  0
  2  7  2  0
  2  8  1  0
  3  4  1  0
  3  5  1  0
  4  7  1  0
  6  8  2  0
  6  9  1  0
M  END
>  <PUBCHEM_COMPOUND_CID>  (1) 
26332

>  <PUBCHEM_CONFORMER_RMSD>  (1) 
0.4

>  <PUBCHEM_CONFORMER_DIVERSEORDER>  (1) 
1
2
3
4

>  <PUBCHEM_MMFF94_PARTIAL_CHARGES>  (1) 
10
1 -0.62
15 0.15
16 0.15
2 -0.62
3 0.14
4 0.17
6 0.17
7 0.16
8 0.16
9 0.14

>  <PUBCHEM_EFFECTIVE_ROTOR_COUNT>  (1) 
1

>  <PUBCHEM_PHARMACOPHORE_FEATURES>  (1) 
4
1 1 acceptor
1 2 acceptor
1 5 hydrophobe
6 1 2 4 6 7 8 rings

>  <PUBCHEM_HEAVY_ATOM_COUNT>  (1) 
9

>  <PUBCHEM_ATOM_DEF_STEREO_COUNT>  (1) 
0

>  <PUBCHEM_ATOM_UDEF_STEREO_COUNT>  (1) 
0

>  <PUBCHEM_BOND_DEF_STEREO_COUNT>  (1) 
0

>  <PUBCHEM_BOND_UDEF_STEREO_COUNT>  (1) 
0

>  <PUBCHEM_ISOTOPIC_ATOM_COUNT>  (1) 
0

>  <PUBCHEM_COMPONENT_COUNT>  (1) 
1

>  <PUBCHEM_CACTVS_TAUTO_COUNT>  (1) 
2

>  <PUBCHEM_CONFORMER_ID>  (1) 
000066DC00000001

>  <PUBCHEM_MMFF94_ENERGY>  (1) 
17.5198

>  <PUBCHEM_FEATURE_SELFOVERLAP>  (1) 
20.301

>  <PUBCHEM_SHAPE_FINGERPRINT>  (1) 
10857977 72 18339345375868497330
16945 1 18339354292041281516
20871998 22 18199196096106292606
21040471 1 17618499221848386788
23552423 10 18188492354889087014
2748010 2 18268135483884116620
29004967 10 18334855051890002129

>  <PUBCHEM_SHAPE_MULTIPOLES>  (1) 
175.25
3.65
1.64
0.72
1.51
0.37
-0.02
-1.67
-0.54
-0.8
-0.07
0.26
-0.06
0.15

>  <PUBCHEM_SHAPE_SELFOVERLAP>  (1) 
352.951

>  <PUBCHEM_SHAPE_VOLUME>  (1) 
103.4

>  <PUBCHEM_COORDINATE_TYPE>  (1) 
2
5
10

$$$$
