2633
     RDKit          3D

 35 38  0  0  1  0  0  0  0  0999 V2000
   -1.2753   -0.6284    1.6612 S   0  0  0  0  0  0  0  0  0  0  0  0
   -5.8935   -0.0081    0.6976 S   0  0  0  0  0  0  0  0  0  0  0  0
    4.8036   -1.4075    0.3651 S   0  0  0  0  0  0  0  0  0  0  0  0
    5.3877    1.1147    0.8437 S   0  0  0  0  0  0  0  0  0  0  0  0
    0.2246    1.9358    1.2120 O   0  0  0  0  0  0  0  0  0  0  0  0
   -2.8973    0.8099   -3.1344 O   0  0  0  0  0  0  0  0  0  0  0  0
    2.4959    0.2325    1.7816 O   0  0  0  0  0  0  0  0  0  0  0  0
   -4.3703    1.7937   -1.6879 O   0  0  0  0  0  0  0  0  0  0  0  0
    8.7773   -2.0218   -1.2956 O   0  0  0  0  0  0  0  0  0  0  0  0
    7.9669    1.7551   -0.2029 O   0  0  0  0  0  0  0  0  0  0  0  0
    7.2193   -2.9611    0.0610 O   0  0  0  0  0  0  0  0  0  0  0  0
   -1.4222    0.4674   -0.7430 N   0  0  0  0  0  0  0  0  0  0  0  0
    1.7380    0.8093   -0.3251 N   0  0  0  0  0  0  0  0  0  0  0  0
   -8.6498   -0.1760    0.8697 N   0  0  0  0  0  0  0  0  0  0  0  0
   -7.7978   -1.6404   -0.4839 N   0  0  0  0  0  0  0  0  0  0  0  0
   -9.6952   -0.8675    0.3952 N   0  0  0  0  0  0  0  0  0  0  0  0
   -9.1681   -1.7615   -0.4325 N   0  0  0  0  0  0  0  0  0  0  0  0
    9.6676    0.3154    0.3157 N   0  0  0  0  0  0  0  0  0  0  0  0
    0.3417    1.0598    0.0684 C   0  0  0  0  0  0  0  0  0  0  0  0
   -0.4891   -0.2314    0.0711 C   0  0  0  0  0  0  0  0  0  0  0  0
   -0.5221    1.4895   -1.1344 C   0  0  0  0  0  0  0  0  0  0  0  0
   -2.7590    0.2270   -0.9131 C   0  0  0  0  0  0  0  0  0  0  0  0
   -3.4243   -0.6911   -0.1735 C   0  0  0  0  0  0  0  0  0  0  0  0
   -2.7257   -1.4716    0.9361 C   0  0  0  0  0  0  0  0  0  0  0  0
    2.7145    0.4099    0.5796 C   0  0  0  0  0  0  0  0  0  0  0  0
   -4.8728   -1.0741   -0.3352 C   0  0  0  0  0  0  0  0  0  0  0  0
   -3.4490    1.0400   -1.9270 C   0  0  0  0  0  0  0  0  0  0  0  0
    0.6012    3.2839    0.9843 C   0  0  0  0  0  0  0  0  0  0  0  0
    4.0937    0.2150   -0.0763 C   0  0  0  0  0  0  0  0  0  0  0  0
    6.1567   -0.3320    0.2887 C   0  0  0  0  0  0  0  0  0  0  0  0
   -7.4987   -0.6534    0.3289 C   0  0  0  0  0  0  0  0  0  0  0  0
    7.4316   -0.5668   -0.0291 C   0  0  0  0  0  0  0  0  0  0  0  0
    8.3621    0.6103    0.0045 C   0  0  0  0  0  0  0  0  0  0  0  0
    7.7803   -1.9711   -0.3834 C   0  0  0  0  0  0  0  0  0  0  0  0
   -8.8524    0.8946    1.8128 C   0  0  0  0  0  0  0  0  0  0  0  0
  1 20  1  0
  1 24  1  0
  2 26  1  0
  2 31  1  0
  3 29  1  0
  3 30  1  0
  4 29  1  0
  4 30  1  0
  5 19  1  0
  5 28  1  0
  6 27  1  0
  7 25  2  0
  8 27  2  0
  9 34  1  0
 10 33  2  0
 11 34  2  0
 12 20  1  0
 12 21  1  0
 12 22  1  0
 13 19  1  0
 13 25  1  0
 14 16  1  0
 14 31  1  0
 14 35  1  0
 15 17  1  0
 15 31  2  0
 16 17  2  0
 18 33  1  0
 19 20  1  0
 19 21  1  0
 22 23  2  0
 22 27  1  0
 23 24  1  0
 23 26  1  0
 25 29  1  0
 30 32  2  3
 32 33  1  0
 32 34  1  0
M  END
>  <PUBCHEM_COMPOUND_CID>  (1) 
2633

>  <PUBCHEM_CONFORMER_RMSD>  (1) 
1.2

>  <PUBCHEM_CONFORMER_DIVERSEORDER>  (1) 
2
150
126
139
72
134
3
135
155
66
80
133
108
50
152
38
52
110
106
54
57
73
17
107
26
159
147
101
151
35
68
36
158
13
93
121
144
32
64
53
142
87
7
25
129
89
137
115
45
156
143
42
114
9
44
122
119
39
31
74
46
102
21
94
75
71
58
96
123
37
43
10
41
34
8
138
22
20
15
67
131
98
116
145
141
148
78
140
19
112
127
154
86
33
124
61
28
99
157
77
92
29
82
65
83
27
69
51
149
118
5
117
47
59
105
14
125
146
30
153
113
12
76
104
62
103
85
84
109
136
40
60
48
81
97
111
90
16
100
1
49
24
120
88
4
18
55
91
56
128
95
132
79
23
63
130
6
11
70

>  <PUBCHEM_MMFF94_PARTIAL_CHARGES>  (1) 
39
1 -0.45
10 -0.57
11 -0.57
12 -0.59
13 -0.65
14 0.31
15 -0.34
16 -0.42
18 -0.8
19 0.48
2 -0.29
20 0.46
21 0.25
22 0.11
23 -0.28
24 0.37
25 0.58
26 0.37
27 0.71
28 0.28
29 0.49
3 -0.29
30 0.11
31 0.24
32 0.06
33 0.62
34 0.71
35 0.26
39 0.37
4 -0.29
48 0.5
5 -0.54
52 0.37
53 0.37
54 0.5
6 -0.65
7 -0.57
8 -0.57
9 -0.65

>  <PUBCHEM_EFFECTIVE_ROTOR_COUNT>  (1) 
11.4

>  <PUBCHEM_PHARMACOPHORE_FEATURES>  (1) 
18
1 10 acceptor
1 11 acceptor
1 12 cation
1 13 donor
1 18 donor
1 32 anion
1 5 acceptor
1 6 acceptor
1 7 acceptor
1 8 acceptor
1 9 acceptor
3 14 15 31 cation
3 6 8 27 anion
3 9 11 34 anion
4 12 19 20 21 rings
4 3 4 29 30 rings
5 14 15 16 17 31 rings
6 1 12 20 22 23 24 rings

>  <PUBCHEM_HEAVY_ATOM_COUNT>  (1) 
35

>  <PUBCHEM_ATOM_DEF_STEREO_COUNT>  (1) 
0

>  <PUBCHEM_ATOM_UDEF_STEREO_COUNT>  (1) 
2

>  <PUBCHEM_BOND_DEF_STEREO_COUNT>  (1) 
0

>  <PUBCHEM_BOND_UDEF_STEREO_COUNT>  (1) 
0

>  <PUBCHEM_ISOTOPIC_ATOM_COUNT>  (1) 
0

>  <PUBCHEM_COMPONENT_COUNT>  (1) 
1

>  <PUBCHEM_CACTVS_TAUTO_COUNT>  (1) 
4

>  <PUBCHEM_CONFORMER_ID>  (1) 
00000A4900000002

>  <PUBCHEM_MMFF94_ENERGY>  (1) 
89.4501

>  <PUBCHEM_FEATURE_SELFOVERLAP>  (1) 
91.992

>  <PUBCHEM_SHAPE_FINGERPRINT>  (1) 
10076449 9 17967814951162156397
10299344 5 18272370884046586178
10674148 151 18334293188616035425
11135926 11 14476958961423729901
12144603 126 18059578026984407788
12592606 108 18342738542072498899
12758862 11 17677054641140428209
13673619 4 18113614595378660621
14118638 360 16588295055999329448
14251764 46 18410575106517938219
15064986 266 18340494353299545216
15131766 46 16913109688996739177
15183329 4 15936411122589289030
15510794 2 18261388927622318478
1577012 14 14835829747066294392
15849732 13 16773801411633736785
18335252 98 18040995133650017226
18643901 69 18040435486542511415
19301679 30 17632024031388233814
20105231 36 17385728002149304459
21150785 3 14418132919909204242
21267235 1 17821729442528371773
21792961 116 18335133168165370428
232437 2 18413109463735161450
23522609 53 16988018197254230104
23559900 14 18334847334625529656
23569917 315 18262805207182293859
246663 6 17967252001113594723
335507 130 18114178657865177284
34797466 226 18113619006789809500
395649 100 9007048055773347761
439807 62 18413671306045826546
5381727 24 14836117776732661717
6081469 158 17775569732159033104

>  <PUBCHEM_SHAPE_MULTIPOLES>  (1) 
659.73
32.56
2.22
1.58
0.22
0.27
-0.62
-14.35
2.18
2.12
0.03
-2.14
0.57
1.02

>  <PUBCHEM_SHAPE_SELFOVERLAP>  (1) 
1354.146

>  <PUBCHEM_SHAPE_VOLUME>  (1) 
383.2

>  <PUBCHEM_COORDINATE_TYPE>  (1) 
2
5
10

$$$$
