26361
     RDKit          3D

 23 23  0  0  0  0  0  0  0  0999 V2000
   -3.2957    0.2632   -1.2150 O   0  0  0  0  0  0  0  0  0  0  0  0
    2.7806   -0.2650    0.1450 O   0  0  0  0  0  0  0  0  0  0  0  0
    2.1866   -2.4180    0.7023 O   0  0  0  0  0  0  0  0  0  0  0  0
    6.3583    0.4892    0.6304 N   0  0  0  0  0  0  0  0  0  0  0  0
   -6.7538   -0.0477    0.2208 C   0  0  0  0  0  0  0  0  0  0  0  0
   -7.9825    0.8650    0.2682 C   0  0  0  0  0  0  0  0  0  0  0  0
   -5.5599    0.5775   -0.4990 C   0  0  0  0  0  0  0  0  0  0  0  0
    4.9674    0.7163    0.2674 C   0  0  0  0  0  0  0  0  0  0  0  0
   -9.1693    0.2489    1.0100 C   0  0  0  0  0  0  0  0  0  0  0  0
    7.0597   -0.2353   -0.4322 C   0  0  0  0  0  0  0  0  0  0  0  0
    7.0351    1.7584    0.9083 C   0  0  0  0  0  0  0  0  0  0  0  0
   -4.3750   -0.3781   -0.5495 C   0  0  0  0  0  0  0  0  0  0  0  0
    4.1407   -0.5388    0.4979 C   0  0  0  0  0  0  0  0  0  0  0  0
  -10.3848    1.1625    0.9665 C   0  0  0  0  0  0  0  0  0  0  0  0
    8.4945   -0.5385   -0.0352 C   0  0  0  0  0  0  0  0  0  0  0  0
    7.0716    2.6430   -0.3263 C   0  0  0  0  0  0  0  0  0  0  0  0
   -2.0303   -0.1165   -0.8492 C   0  0  0  0  0  0  0  0  0  0  0  0
    0.5439   -0.8877   -0.1008 C   0  0  0  0  0  0  0  0  0  0  0  0
    1.8858   -1.2899    0.2901 C   0  0  0  0  0  0  0  0  0  0  0  0
   -1.7950   -1.4150   -0.3973 C   0  0  0  0  0  0  0  0  0  0  0  0
   -0.9786    0.7964   -0.9267 C   0  0  0  0  0  0  0  0  0  0  0  0
   -0.5079   -1.8006   -0.0231 C   0  0  0  0  0  0  0  0  0  0  0  0
    0.3085    0.4108   -0.5525 C   0  0  0  0  0  0  0  0  0  0  0  0
  1 12  1  0
  1 17  1  0
  2 13  1  0
  2 19  1  0
  3 19  2  0
  4  8  1  0
  4 10  1  0
  4 11  1  0
  5  6  1  0
  5  7  1  0
  6  9  1  0
  7 12  1  0
  8 13  1  0
  9 14  1  0
 10 15  1  0
 11 16  1  0
 17 20  2  0
 17 21  1  0
 18 19  1  0
 18 22  2  0
 18 23  1  0
 20 22  1  0
 21 23  2  0
M  END
>  <PUBCHEM_COMPOUND_CID>  (1) 
26361

>  <PUBCHEM_CONFORMER_RMSD>  (1) 
1.2

>  <PUBCHEM_CONFORMER_DIVERSEORDER>  (1) 
2
29
19
14
30
38
10
21
20
40
49
33
24
9
41
48
42
28
39
18
7
50
37
34
32
26
35
22
45
25
3
27
47
31
16
13
23
12
43
36
11
17
15
1
5
6
4
44
8
46

>  <PUBCHEM_MMFF94_PARTIAL_CHARGES>  (1) 
20
1 -0.36
10 0.27
11 0.27
12 0.28
13 0.28
17 0.08
18 0.09
19 0.63
2 -0.43
20 -0.15
21 -0.15
22 -0.15
23 -0.15
3 -0.57
4 -0.81
51 0.15
52 0.15
53 0.15
54 0.15
8 0.27

>  <PUBCHEM_EFFECTIVE_ROTOR_COUNT>  (1) 
13

>  <PUBCHEM_PHARMACOPHORE_FEATURES>  (1) 
6
1 1 acceptor
1 14 hydrophobe
1 3 acceptor
1 4 cation
4 5 6 7 9 hydrophobe
6 17 18 20 21 22 23 rings

>  <PUBCHEM_HEAVY_ATOM_COUNT>  (1) 
23

>  <PUBCHEM_ATOM_DEF_STEREO_COUNT>  (1) 
0

>  <PUBCHEM_ATOM_UDEF_STEREO_COUNT>  (1) 
0

>  <PUBCHEM_BOND_DEF_STEREO_COUNT>  (1) 
0

>  <PUBCHEM_BOND_UDEF_STEREO_COUNT>  (1) 
0

>  <PUBCHEM_ISOTOPIC_ATOM_COUNT>  (1) 
0

>  <PUBCHEM_COMPONENT_COUNT>  (1) 
1

>  <PUBCHEM_CACTVS_TAUTO_COUNT>  (1) 
1

>  <PUBCHEM_CONFORMER_ID>  (1) 
000066F900000002

>  <PUBCHEM_MMFF94_ENERGY>  (1) 
46.3524

>  <PUBCHEM_FEATURE_SELFOVERLAP>  (1) 
30.446

>  <PUBCHEM_SHAPE_FINGERPRINT>  (1) 
10 15 17894347787074316355
106641 1 17967253105247146537
10670039 82 13973971974567242307
11135609 127 15123211287619991448
11638347 137 16153420624103069584
14251764 18 18113898265215190123
14251764 46 18411983550479069831
14617042 71 18337674217063765972
14849402 71 18412544349392984441
15183329 4 14476968899676819706
15188451 53 12107782999632459030
15461852 350 16630237092179573997
15690457 1 12035447246564902433
15706992 2 18059584607132768329
15840311 113 18409733980091404948
18006028 8 8502655917465284814
18335252 98 16877661232026261194
20281389 69 18113890564386242916
20735858 18 16081087069831804403
21033648 29 18265602368798717368
21095123 293 17989490706534530569
22224240 67 18113898269288780507
23559900 14 18340198696857287802
249057 3 10807926073068763509
28498 318 10807938163090329033
3092352 35 17632573847405965703
3178227 256 18040998457580443629
3545911 37 18187358827695469622
3711267 37 17632023017818936985
5104073 3 17750785546279121513
5758199 1 18410009940556668235
59682541 35 17676209082966274289
6438161 24 8358255938956032241
9663363 56 12031784752564819166
9953998 17 18113620106338360723

>  <PUBCHEM_SHAPE_MULTIPOLES>  (1) 
450.74
31.39
1.83
0.96
33.58
0.17
0.02
17.12
-9.42
-2.85
-0.2
0.64
0.12
-0.54

>  <PUBCHEM_SHAPE_SELFOVERLAP>  (1) 
888.131

>  <PUBCHEM_SHAPE_VOLUME>  (1) 
271.6

>  <PUBCHEM_COORDINATE_TYPE>  (1) 
2
5
10

$$$$
