26368
     RDKit          3D

 12 12  0  0  0  0  0  0  0  0999 V2000
    3.4003   -0.3966    0.6793 O   0  0  0  0  0  0  0  0  0  0  0  0
   -2.7946   -1.8533    0.6145 O   0  0  0  0  0  0  0  0  0  0  0  0
   -1.2837    3.0166    0.5323 O   0  0  0  0  0  0  0  0  0  0  0  0
    1.4086   -0.4951    0.0662 N   0  0  0  0  0  0  0  0  0  0  0  0
   -0.9620   -1.0355    0.0440 N   0  0  0  0  0  0  0  0  0  0  0  0
   -0.2415    1.2880    0.0044 N   0  0  0  0  0  0  0  0  0  0  0  0
    2.6445   -0.8634   -0.1786 N   0  0  0  0  0  0  0  0  0  0  0  0
   -1.8884   -1.9269   -0.2214 N   0  0  0  0  0  0  0  0  0  0  0  0
   -0.5040    2.5383   -0.2974 N   0  0  0  0  0  0  0  0  0  0  0  0
    0.3845   -1.4582   -0.3811 C   0  0  0  0  0  0  0  0  0  0  0  0
    1.1030    0.8614   -0.4221 C   0  0  0  0  0  0  0  0  0  0  0  0
   -1.2669    0.3246   -0.4400 C   0  0  0  0  0  0  0  0  0  0  0  0
  1  7  2  0
  2  8  2  0
  3  9  2  0
  4  7  1  0
  4 10  1  0
  4 11  1  0
  5  8  1  0
  5 10  1  0
  5 12  1  0
  6  9  1  0
  6 11  1  0
  6 12  1  0
M  END
>  <PUBCHEM_COMPOUND_CID>  (1) 
26368

>  <PUBCHEM_CONFORMER_RMSD>  (1) 
0.6

>  <PUBCHEM_CONFORMER_DIVERSEORDER>  (1) 
1
9
13
6
3
5
11
12
14
7
10
4
2
8

>  <PUBCHEM_MMFF94_PARTIAL_CHARGES>  (1) 
12
1 -0.16
10 0.54
11 0.54
12 0.54
2 -0.16
3 -0.16
4 -0.36
5 -0.36
6 -0.36
7 -0.01
8 -0.01
9 -0.01

>  <PUBCHEM_EFFECTIVE_ROTOR_COUNT>  (1) 
4.2

>  <PUBCHEM_PHARMACOPHORE_FEATURES>  (1) 
1
6 4 5 6 10 11 12 rings

>  <PUBCHEM_HEAVY_ATOM_COUNT>  (1) 
12

>  <PUBCHEM_ATOM_DEF_STEREO_COUNT>  (1) 
0

>  <PUBCHEM_ATOM_UDEF_STEREO_COUNT>  (1) 
0

>  <PUBCHEM_BOND_DEF_STEREO_COUNT>  (1) 
0

>  <PUBCHEM_BOND_UDEF_STEREO_COUNT>  (1) 
0

>  <PUBCHEM_ISOTOPIC_ATOM_COUNT>  (1) 
0

>  <PUBCHEM_COMPONENT_COUNT>  (1) 
1

>  <PUBCHEM_CACTVS_TAUTO_COUNT>  (1) 
1

>  <PUBCHEM_CONFORMER_ID>  (1) 
0000670000000001

>  <PUBCHEM_MMFF94_ENERGY>  (1) 
35.9126

>  <PUBCHEM_FEATURE_SELFOVERLAP>  (1) 
5.074

>  <PUBCHEM_SHAPE_FINGERPRINT>  (1) 
1 1 17113256637836248069
13380535 76 17908974418549729342
16945 1 18338240345065152166
19021347 4 17906170650845213009
193761 8 17978510828035663215
20871998 184 18272087175834568446
21040471 1 17978232651772638388
241688 4 18410574023822000913
2748010 2 18339915034339197948
3071541 236 18045483249387483665
58734985 188 18122343746507355810
81228 2 18337673014192360745

>  <PUBCHEM_SHAPE_MULTIPOLES>  (1) 
199.46
3.47
2.87
0.69
2.06
2.1
0
-1.98
0.81
-2.13
0.26
0.01
0
0.01

>  <PUBCHEM_SHAPE_SELFOVERLAP>  (1) 
397.709

>  <PUBCHEM_SHAPE_VOLUME>  (1) 
116.3

>  <PUBCHEM_COORDINATE_TYPE>  (1) 
2
5
10

$$$$
