26363
     RDKit          3D

 29 32  0  0  1  0  0  0  0  0999 V2000
   -0.8831   -5.9087    0.6320 Cl  0  0  0  0  0  0  0  0  0  0  0  0
   -3.2551    2.0937   -0.3443 O   0  0  0  0  0  0  0  0  0  0  0  0
   -6.6627    0.8331    0.2651 N   0  0  0  0  0  0  0  0  0  0  0  0
    2.3213   -0.9626   -0.6270 C   0  0  0  0  0  0  0  0  0  0  0  0
    2.0383    0.2014    0.3747 C   0  0  0  0  0  0  0  0  0  0  0  0
    3.8233   -1.2768   -0.6835 C   0  0  0  0  0  0  0  0  0  0  0  0
    3.0846    1.3171    0.3308 C   0  0  0  0  0  0  0  0  0  0  0  0
    4.5879   -0.0604   -1.1934 C   0  0  0  0  0  0  0  0  0  0  0  0
    4.2835    1.1794   -0.3952 C   0  0  0  0  0  0  0  0  0  0  0  0
    1.5117   -2.2132   -0.3101 C   0  0  0  0  0  0  0  0  0  0  0  0
    0.6105    0.7122    0.1809 C   0  0  0  0  0  0  0  0  0  0  0  0
    2.8875    2.4882    1.0879 C   0  0  0  0  0  0  0  0  0  0  0  0
    5.2143    2.2315   -0.4089 C   0  0  0  0  0  0  0  0  0  0  0  0
   -0.3086    0.5868    1.2144 C   0  0  0  0  0  0  0  0  0  0  0  0
    0.2495    1.2949   -1.0270 C   0  0  0  0  0  0  0  0  0  0  0  0
    2.0748   -3.2209    0.4664 C   0  0  0  0  0  0  0  0  0  0  0  0
    0.2151   -2.3380   -0.7982 C   0  0  0  0  0  0  0  0  0  0  0  0
    3.8266    3.5198    1.0781 C   0  0  0  0  0  0  0  0  0  0  0  0
    4.9864    3.3949    0.3229 C   0  0  0  0  0  0  0  0  0  0  0  0
   -1.6115    1.0523    1.0369 C   0  0  0  0  0  0  0  0  0  0  0  0
   -1.0534    1.7604   -1.2044 C   0  0  0  0  0  0  0  0  0  0  0  0
    1.3332   -4.3657    0.7578 C   0  0  0  0  0  0  0  0  0  0  0  0
   -0.5264   -3.4829   -0.5066 C   0  0  0  0  0  0  0  0  0  0  0  0
   -1.9839    1.6391   -0.1724 C   0  0  0  0  0  0  0  0  0  0  0  0
    0.0326   -4.4968    0.2713 C   0  0  0  0  0  0  0  0  0  0  0  0
   -4.2885    1.4193    0.3719 C   0  0  0  0  0  0  0  0  0  0  0  0
   -5.5814    1.5241   -0.4212 C   0  0  0  0  0  0  0  0  0  0  0  0
   -7.8956    0.8935   -0.5090 C   0  0  0  0  0  0  0  0  0  0  0  0
   -9.0306    0.1842    0.2100 C   0  0  0  0  0  0  0  0  0  0  0  0
  1 25  1  0
  2 24  1  0
  2 26  1  0
  3 27  1  0
  3 28  1  0
  4  5  1  0
  4  6  1  0
  4 10  1  0
  5  7  1  0
  5 11  1  0
  6  8  1  0
  7  9  2  0
  7 12  1  0
  8  9  1  0
  9 13  1  0
 10 16  2  0
 10 17  1  0
 11 14  2  0
 11 15  1  0
 12 18  2  0
 13 19  2  0
 14 20  1  0
 15 21  2  0
 16 22  1  0
 17 23  2  0
 18 19  1  0
 20 24  2  0
 21 24  1  0
 22 25  2  0
 23 25  1  0
 26 27  1  0
 28 29  1  0
M  END
>  <PUBCHEM_COMPOUND_CID>  (1) 
26363

>  <PUBCHEM_CONFORMER_RMSD>  (1) 
1

>  <PUBCHEM_CONFORMER_DIVERSEORDER>  (1) 
4
65
7
35
32
48
44
54
57
2
53
27
25
46
5
50
55
14
38
22
11
30
23
62
61
13
63
29
6
36
20
1
47
58
24
51
52
28
19
42
41
16
56
12
17
40
60
31
64
39
26
15
34
18
10
33
37
21
9
8
3
43
59
49
45

>  <PUBCHEM_MMFF94_PARTIAL_CHARGES>  (1) 
40
1 -0.18
10 -0.14
11 -0.14
12 -0.15
13 -0.15
14 -0.15
15 -0.15
16 -0.15
17 -0.15
18 -0.15
19 -0.15
2 -0.36
20 -0.15
21 -0.15
22 -0.15
23 -0.15
24 0.08
25 0.18
26 0.28
27 0.27
28 0.27
3 -0.9
36 0.15
37 0.15
38 0.15
39 0.15
4 0.14
40 0.15
41 0.15
42 0.15
43 0.15
44 0.15
45 0.15
46 0.15
47 0.15
5 0.29
52 0.36
7 -0.14
8 0.14
9 -0.14

>  <PUBCHEM_EFFECTIVE_ROTOR_COUNT>  (1) 
7.8

>  <PUBCHEM_PHARMACOPHORE_FEATURES>  (1) 
7
1 2 acceptor
1 3 cation
1 3 donor
6 10 16 17 22 23 25 rings
6 11 14 15 20 21 24 rings
6 4 5 6 7 8 9 rings
6 7 9 12 13 18 19 rings

>  <PUBCHEM_HEAVY_ATOM_COUNT>  (1) 
29

>  <PUBCHEM_ATOM_DEF_STEREO_COUNT>  (1) 
0

>  <PUBCHEM_ATOM_UDEF_STEREO_COUNT>  (1) 
2

>  <PUBCHEM_BOND_DEF_STEREO_COUNT>  (1) 
0

>  <PUBCHEM_BOND_UDEF_STEREO_COUNT>  (1) 
0

>  <PUBCHEM_ISOTOPIC_ATOM_COUNT>  (1) 
0

>  <PUBCHEM_COMPONENT_COUNT>  (1) 
1

>  <PUBCHEM_CACTVS_TAUTO_COUNT>  (1) 
1

>  <PUBCHEM_CONFORMER_ID>  (1) 
000066FB00000004

>  <PUBCHEM_MMFF94_ENERGY>  (1) 
78.3531

>  <PUBCHEM_FEATURE_SELFOVERLAP>  (1) 
35.542

>  <PUBCHEM_SHAPE_FINGERPRINT>  (1) 
10165383 225 18409169944076026500
10316853 100 18410296921306672277
10688039 33 17545603817725951418
10930396 42 18050262810747267354
1100329 8 18411697648414723250
11014199 57 17114947691368630230
12597179 24 18260832618010116427
12730499 353 18410294696524617049
12788726 201 17615113826274218440
13149001 5 18128283167551948094
13533116 47 18341894040080797529
13540713 4 17914063255750204076
1361 2 18409449202311223565
13692114 37 18409721889542143563
14068700 686 18261672585134200565
14675020 138 18341878684818217609
14955137 171 18120929509094829994
15324884 4 17972633045405952058
15328684 2 16988290747488963515
15927050 60 18342171224195606943
16728300 4 17317858310915834928
16993438 75 18117563049224912971
17138139 8 17773292708361277103
18365409 1 18194684993598129679
19319366 153 18342448232205298031
19427546 62 18338516451354517272
21049683 118 18197192936565880008
21360442 67 18408885153283725571
21521721 280 18342462564791129353
22149856 69 18263383455692607681
22956985 138 17829601765057752114
23516275 137 17130734767425984919
23558518 356 18046624779603462984
23559900 14 17977093570537778969
23845131 108 18410007784034634298
239999 70 18059577931930566885
3178227 256 18338241449330689826
335352 9 18342465833767598468
3886686 26 18194934480344098818
4058900 60 18340780268550149976
4073 2 18410015451579853993
4340502 62 18343298175873317861
484989 97 18339376226750855774
5309563 4 17834674898886270162
621550 34 18262231132186890005
6442390 28 18409166640696958236
7399639 24 18261383412890299997
9658208 31 18268713977662090884
9777508 108 18195526119924611016

>  <PUBCHEM_SHAPE_MULTIPOLES>  (1) 
587.83
14.63
6.53
1.08
41.38
12.04
0.01
-15.25
-1.04
-3.49
1.72
-0.43
-0.19
1.09

>  <PUBCHEM_SHAPE_SELFOVERLAP>  (1) 
1254.32

>  <PUBCHEM_SHAPE_VOLUME>  (1) 
326.7

>  <PUBCHEM_COORDINATE_TYPE>  (1) 
2
5
10

$$$$
