26391
     RDKit          3D

 31 34  0  0  0  0  0  0  0  0999 V2000
   -0.4381   -1.7737   -0.7845 O   0  0  0  0  0  0  0  0  0  0  0  0
   -0.0203   -1.2900    2.7855 O   0  0  0  0  0  0  0  0  0  0  0  0
    5.3890    0.1255    0.4417 O   0  0  0  0  0  0  0  0  0  0  0  0
   -3.2493    3.7778   -0.5458 O   0  0  0  0  0  0  0  0  0  0  0  0
    5.2250    0.9206   -1.7539 O   0  0  0  0  0  0  0  0  0  0  0  0
   -1.5708    5.0176    0.5151 O   0  0  0  0  0  0  0  0  0  0  0  0
   -1.5470   -2.5664    1.6706 N   0  0  0  0  0  0  0  0  0  0  0  0
   -0.2012   -0.9421    0.3667 C   0  0  0  0  0  0  0  0  0  0  0  0
    1.3180   -0.6522    0.3866 C   0  0  0  0  0  0  0  0  0  0  0  0
   -1.0291    0.3402    0.1194 C   0  0  0  0  0  0  0  0  0  0  0  0
   -0.5495   -1.6197    1.7225 C   0  0  0  0  0  0  0  0  0  0  0  0
   -1.5224   -2.5992   -0.7335 C   0  0  0  0  0  0  0  0  0  0  0  0
   -2.0875   -3.0123    0.4653 C   0  0  0  0  0  0  0  0  0  0  0  0
    1.7795    0.5888    0.8160 C   0  0  0  0  0  0  0  0  0  0  0  0
   -0.8445    1.0680   -1.0532 C   0  0  0  0  0  0  0  0  0  0  0  0
    2.2153   -1.6339   -0.0243 C   0  0  0  0  0  0  0  0  0  0  0  0
   -1.9559    0.7609    1.0697 C   0  0  0  0  0  0  0  0  0  0  0  0
   -2.0208   -3.0816   -1.9434 C   0  0  0  0  0  0  0  0  0  0  0  0
   -3.1607   -3.9050    0.4688 C   0  0  0  0  0  0  0  0  0  0  0  0
    3.1495    0.8503    0.8348 C   0  0  0  0  0  0  0  0  0  0  0  0
   -1.5917    2.2243   -1.2770 C   0  0  0  0  0  0  0  0  0  0  0  0
    3.5854   -1.3724   -0.0054 C   0  0  0  0  0  0  0  0  0  0  0  0
   -2.7031    1.9173    0.8460 C   0  0  0  0  0  0  0  0  0  0  0  0
    4.0524   -0.1303    0.4240 C   0  0  0  0  0  0  0  0  0  0  0  0
   -2.5210    2.6491   -0.3275 C   0  0  0  0  0  0  0  0  0  0  0  0
   -3.1011   -3.9643   -1.9465 C   0  0  0  0  0  0  0  0  0  0  0  0
   -3.6710   -4.3751   -0.7413 C   0  0  0  0  0  0  0  0  0  0  0  0
    5.8844    0.6739   -0.7527 C   0  0  0  0  0  0  0  0  0  0  0  0
   -2.6484    4.9513   -0.0613 C   0  0  0  0  0  0  0  0  0  0  0  0
    7.3595    0.9184   -0.6330 C   0  0  0  0  0  0  0  0  0  0  0  0
   -3.5248    6.1340   -0.3494 C   0  0  0  0  0  0  0  0  0  0  0  0
  1  8  1  0
  1 12  1  0
  2 11  2  0
  3 24  1  0
  3 28  1  0
  4 25  1  0
  4 29  1  0
  5 28  2  0
  6 29  2  0
  7 11  1  0
  7 13  1  0
  8  9  1  0
  8 10  1  0
  8 11  1  0
  9 14  2  0
  9 16  1  0
 10 15  2  0
 10 17  1  0
 12 13  2  0
 12 18  1  0
 13 19  1  0
 14 20  1  0
 15 21  1  0
 16 22  2  0
 17 23  2  0
 18 26  2  0
 19 27  2  0
 20 24  2  0
 21 25  2  0
 22 24  1  0
 23 25  1  0
 26 27  1  0
 28 30  1  0
 29 31  1  0
M  END
>  <PUBCHEM_COMPOUND_CID>  (1) 
26391

>  <PUBCHEM_CONFORMER_RMSD>  (1) 
0.8

>  <PUBCHEM_CONFORMER_DIVERSEORDER>  (1) 
1
41
17
10
36
37
20
13
48
52
53
21
30
22
34
25
54
16
24
3
56
28
40
6
19
32
49
45
51
14
9
39
15
23
2
35
46
42
29
47
12
8
55
27
18
43
7
26
50
38
31
5
4
33
11
57
44

>  <PUBCHEM_MMFF94_PARTIAL_CHARGES>  (1) 
44
1 -0.36
10 -0.14
11 0.57
12 0.08
13 0.12
14 -0.15
15 -0.15
16 -0.15
17 -0.15
18 -0.15
19 -0.15
2 -0.57
20 -0.15
21 -0.15
22 -0.15
23 -0.15
24 0.08
25 0.08
26 -0.15
27 -0.15
28 0.66
29 0.66
3 -0.23
30 0.06
31 0.06
32 0.37
33 0.15
34 0.15
35 0.15
36 0.15
37 0.15
38 0.15
39 0.15
4 -0.23
40 0.15
41 0.15
42 0.15
43 0.15
44 0.15
5 -0.57
6 -0.57
7 -0.55
8 0.63
9 -0.14

>  <PUBCHEM_EFFECTIVE_ROTOR_COUNT>  (1) 
6.6

>  <PUBCHEM_PHARMACOPHORE_FEATURES>  (1) 
9
1 1 acceptor
1 2 acceptor
1 5 acceptor
1 6 acceptor
1 7 donor
6 1 7 8 11 12 13 rings
6 10 15 17 21 23 25 rings
6 12 13 18 19 26 27 rings
6 9 14 16 20 22 24 rings

>  <PUBCHEM_HEAVY_ATOM_COUNT>  (1) 
31

>  <PUBCHEM_ATOM_DEF_STEREO_COUNT>  (1) 
0

>  <PUBCHEM_ATOM_UDEF_STEREO_COUNT>  (1) 
0

>  <PUBCHEM_BOND_DEF_STEREO_COUNT>  (1) 
0

>  <PUBCHEM_BOND_UDEF_STEREO_COUNT>  (1) 
0

>  <PUBCHEM_ISOTOPIC_ATOM_COUNT>  (1) 
0

>  <PUBCHEM_COMPONENT_COUNT>  (1) 
1

>  <PUBCHEM_CACTVS_TAUTO_COUNT>  (1) 
2

>  <PUBCHEM_CONFORMER_ID>  (1) 
0000671700000001

>  <PUBCHEM_MMFF94_ENERGY>  (1) 
107.9792

>  <PUBCHEM_FEATURE_SELFOVERLAP>  (1) 
45.706

>  <PUBCHEM_SHAPE_FINGERPRINT>  (1) 
10937287 8 18122058698123486781
11045515 52 18123178276028516767
11101153 10 18048039859674683044
11115154 58 18193827370571678735
11477941 20 18196659716592644756
11505856 67 18334866025500646508
11578080 2 17273397586102804203
11763715 3 18121232132009847710
12293681 160 17751060612859223963
12788726 201 18335126614166908179
13540713 5 18114447982548784218
13590594 115 18193275420097651603
13690498 29 18200321043226182406
13757389 114 18337403642829909356
13911987 19 16972267374415058959
13944108 23 16967734066894553108
14114211 80 18125448505605449936
14294032 229 18412272713547727145
14347332 77 18340484586480610702
14508225 48 18124590040373511999
14556957 393 18116724117219420508
14713325 29 18413389851953283934
14790565 3 18049163268131650756
14955137 171 17761499487959654979
15081414 286 17691117566758100879
15163728 17 18052547564452239116
15198563 99 18341046432157757461
15439362 3 17981041913099087526
15664445 248 17404588161033765540
15876981 60 18261964058557062356
15878777 1 14364667651164969907
16087824 20 18410855470015854335
16114785 44 18187938273774191786
1813 80 17912375525710684598
20101258 96 18266184013826841072
20238998 120 18194116541807341263
21120745 212 18265061403780999652
21641784 216 18194976359726059300
21927370 108 18120385499129539178
23929065 36 18195783328362551528
283562 15 18261667185980364914
3610482 184 17968679167755133284
376196 1 17683812007966519129
38695281 34 17764015879180193867
394222 165 17756140090269977880
4058900 60 17908994196716307056
484985 159 15123509237384517326
497634 4 17344647030973607074
5219985 13 18120937205053952796
5969126 39 18267301118147148142
6058803 2 18187634775028360002
6700243 42 17913242938012180124
70251023 43 18125156293426140690
7808743 9 18335423435578894280

>  <PUBCHEM_SHAPE_MULTIPOLES>  (1) 
597.77
10.06
7.58
1.65
25.56
10.19
0.22
1.05
-3.57
-16.6
-1.81
-0.45
-1.15
-0.97

>  <PUBCHEM_SHAPE_SELFOVERLAP>  (1) 
1319.378

>  <PUBCHEM_SHAPE_VOLUME>  (1) 
315.4

>  <PUBCHEM_COORDINATE_TYPE>  (1) 
2
5
10

$$$$
