26419
     RDKit          3D

 15 16  0  0  0  0  0  0  0  0999 V2000
    0.5607   -3.3003    0.1153 Br  0  0  0  0  0  0  0  0  0  0  0  0
   -2.1217   -1.9158    0.0653 O   0  0  0  0  0  0  0  0  0  0  0  0
   -2.9605    2.0176    0.5471 O   0  0  0  0  0  0  0  0  0  0  0  0
   -3.7529    0.1722   -0.5173 O   0  0  0  0  0  0  0  0  0  0  0  0
    0.9478    0.9115   -0.0433 C   0  0  0  0  0  0  0  0  0  0  0  0
    1.2681   -0.4659    0.0088 C   0  0  0  0  0  0  0  0  0  0  0  0
   -0.4010    1.3027   -0.0579 C   0  0  0  0  0  0  0  0  0  0  0  0
   -1.4191    0.3493   -0.0215 C   0  0  0  0  0  0  0  0  0  0  0  0
    0.2305   -1.4117    0.0445 C   0  0  0  0  0  0  0  0  0  0  0  0
   -1.1041   -1.0052    0.0295 C   0  0  0  0  0  0  0  0  0  0  0  0
    1.9855    1.8572   -0.0790 C   0  0  0  0  0  0  0  0  0  0  0  0
    2.6168   -0.8573    0.0229 C   0  0  0  0  0  0  0  0  0  0  0  0
    3.3199    1.4504   -0.0637 C   0  0  0  0  0  0  0  0  0  0  0  0
    3.6350    0.0959   -0.0130 C   0  0  0  0  0  0  0  0  0  0  0  0
   -2.8048    0.7994   -0.0377 C   0  0  0  0  0  0  0  0  0  0  0  0
  1  9  1  0
  2 10  1  0
  3 15  1  0
  4 15  2  0
  5  6  1  0
  5  7  2  0
  5 11  1  0
  6  9  2  0
  6 12  1  0
  7  8  1  0
  8 10  2  0
  8 15  1  0
  9 10  1  0
 11 13  2  0
 12 14  2  0
 13 14  1  0
M  END
>  <PUBCHEM_COMPOUND_CID>  (1) 
26419

>  <PUBCHEM_CONFORMER_RMSD>  (1) 
0.4

>  <PUBCHEM_CONFORMER_DIVERSEORDER>  (1) 
2
1
3

>  <PUBCHEM_MMFF94_PARTIAL_CHARGES>  (1) 
20
1 -0.11
10 0.08
11 -0.15
12 -0.15
13 -0.15
14 -0.15
15 0.63
16 0.15
17 0.15
18 0.15
19 0.15
2 -0.53
20 0.15
21 0.45
22 0.5
3 -0.65
4 -0.57
7 -0.15
8 0.09
9 0.11

>  <PUBCHEM_EFFECTIVE_ROTOR_COUNT>  (1) 
1

>  <PUBCHEM_PHARMACOPHORE_FEATURES>  (1) 
7
1 1 hydrophobe
1 2 donor
1 3 acceptor
1 4 acceptor
3 3 4 15 anion
6 5 6 11 12 13 14 rings
6 5 6 7 8 9 10 rings

>  <PUBCHEM_HEAVY_ATOM_COUNT>  (1) 
15

>  <PUBCHEM_ATOM_DEF_STEREO_COUNT>  (1) 
0

>  <PUBCHEM_ATOM_UDEF_STEREO_COUNT>  (1) 
0

>  <PUBCHEM_BOND_DEF_STEREO_COUNT>  (1) 
0

>  <PUBCHEM_BOND_UDEF_STEREO_COUNT>  (1) 
0

>  <PUBCHEM_ISOTOPIC_ATOM_COUNT>  (1) 
0

>  <PUBCHEM_COMPONENT_COUNT>  (1) 
1

>  <PUBCHEM_CACTVS_TAUTO_COUNT>  (1) 
4

>  <PUBCHEM_CONFORMER_ID>  (1) 
0000673300000002

>  <PUBCHEM_MMFF94_ENERGY>  (1) 
49.1404

>  <PUBCHEM_FEATURE_SELFOVERLAP>  (1) 
35.604

>  <PUBCHEM_SHAPE_FINGERPRINT>  (1) 
10411042 1 16897365911364259114
10465860 228 18053954948067827145
10608611 8 18340485694054684768
10967382 1 18410292471694192590
10980938 120 18336547092789556664
11132069 177 18410287025860368656
11471102 20 18337667508070836613
12491281 212 18408893953017535544
13140716 1 18410012134883737858
13380535 76 18409445886253306819
13897977 150 18409446972858654422
14144814 61 18410293592517406008
14251717 144 18410849924005020719
14325111 11 18410575110580900564
14790565 3 15307331458858456797
14897335 6 18410851079293285388
15309172 13 18409454695204604001
15442244 35 18339078164541369586
15536298 74 18343582928342221588
15775835 57 18260832613614986764
16945 1 18265331716121363510
18186145 218 18340489967346625892
193761 8 17401485949205276820
20510252 161 18198910403328856977
20645476 183 17969238887355097102
20645477 70 18263636269740011295
21267235 1 18410864260611389174
21501502 16 18336826506561812340
21524375 3 18335416872198621602
2334 1 18337674246942952686
23402539 116 18198050585230882223
23402655 69 18341884165829665029
23463225 33 18334853875337975330
23559900 14 18342184380376162724
25 1 18336265639298271020
2748010 2 18337115669255793222
3071541 12 18195532480301788206
3071541 250 17691133638610644886
3091708 16 9121475329342923915
335352 9 18194402178079659486
352729 6 18338239382945362203
528886 8 18410287021449239904
53812653 166 18412822508285066800
54173680 148 17904483253006038218
69090 78 18412820317698615551
7364860 26 18196089941392773118
81228 2 17759796335709907466

>  <PUBCHEM_SHAPE_MULTIPOLES>  (1) 
297.03
5.34
2.85
0.64
0.72
2.2
0
-2.49
-0.18
-0.07
0.18
0.04
0
-0.18

>  <PUBCHEM_SHAPE_SELFOVERLAP>  (1) 
641.832

>  <PUBCHEM_SHAPE_VOLUME>  (1) 
168.2

>  <PUBCHEM_COORDINATE_TYPE>  (1) 
2
5
10

$$$$
