26417
     RDKit          3D

 30 34  0  0  0  0  0  0  0  0999 V2000
    7.9724   -0.4095    0.8433 Cl  0  0  0  0  0  0  0  0  0  0  0  0
   -3.5633    1.4074   -1.0453 O   0  0  0  0  0  0  0  0  0  0  0  0
   -6.6239   -0.2179    0.1909 N   0  0  0  0  0  0  0  0  0  0  0  0
    2.7330    2.0319   -0.0054 N   0  0  0  0  0  0  0  0  0  0  0  0
   -7.8636   -0.6749   -0.4362 C   0  0  0  0  0  0  0  0  0  0  0  0
   -7.0485    0.7066    1.2418 C   0  0  0  0  0  0  0  0  0  0  0  0
   -8.7799   -0.9129    0.7550 C   0  0  0  0  0  0  0  0  0  0  0  0
   -8.2463   -0.0023    1.8566 C   0  0  0  0  0  0  0  0  0  0  0  0
   -5.7156    0.4031   -0.7617 C   0  0  0  0  0  0  0  0  0  0  0  0
   -4.4247    0.8232   -0.0771 C   0  0  0  0  0  0  0  0  0  0  0  0
    1.9361    0.9251   -0.1453 C   0  0  0  0  0  0  0  0  0  0  0  0
    2.7397   -0.1878   -0.0205 C   0  0  0  0  0  0  0  0  0  0  0  0
    4.0718    0.2597    0.2031 C   0  0  0  0  0  0  0  0  0  0  0  0
    4.0400    1.6558    0.2084 C   0  0  0  0  0  0  0  0  0  0  0  0
    0.5180    1.0499   -0.3775 C   0  0  0  0  0  0  0  0  0  0  0  0
   -2.2158    1.2898   -0.8247 C   0  0  0  0  0  0  0  0  0  0  0  0
    2.2404   -1.5326   -0.1115 C   0  0  0  0  0  0  0  0  0  0  0  0
   -0.3635    1.1025    0.7023 C   0  0  0  0  0  0  0  0  0  0  0  0
    0.0278    1.1176   -1.6816 C   0  0  0  0  0  0  0  0  0  0  0  0
    5.3057   -0.3913    0.4023 C   0  0  0  0  0  0  0  0  0  0  0  0
   -1.7349    1.2229    0.4780 C   0  0  0  0  0  0  0  0  0  0  0  0
   -1.3437    1.2380   -1.9060 C   0  0  0  0  0  0  0  0  0  0  0  0
    5.1846    2.4367    0.4038 C   0  0  0  0  0  0  0  0  0  0  0  0
    6.4590    0.3770    0.5990 C   0  0  0  0  0  0  0  0  0  0  0  0
    6.3970    1.7690    0.5994 C   0  0  0  0  0  0  0  0  0  0  0  0
    1.8010   -2.1918    1.0357 C   0  0  0  0  0  0  0  0  0  0  0  0
    2.1966   -2.1761   -1.3475 C   0  0  0  0  0  0  0  0  0  0  0  0
    1.3165   -3.4967    0.9468 C   0  0  0  0  0  0  0  0  0  0  0  0
    1.7121   -3.4811   -1.4365 C   0  0  0  0  0  0  0  0  0  0  0  0
    1.2721   -4.1415   -0.2894 C   0  0  0  0  0  0  0  0  0  0  0  0
  1 24  1  0
  2 10  1  0
  2 16  1  0
  3  5  1  0
  3  6  1  0
  3  9  1  0
  4 11  1  0
  4 14  1  0
  5  7  1  0
  6  8  1  0
  7  8  1  0
  9 10  1  0
 11 12  2  0
 11 15  1  0
 12 13  1  0
 12 17  1  0
 13 14  2  0
 13 20  1  0
 14 23  1  0
 15 18  2  0
 15 19  1  0
 16 21  2  0
 16 22  1  0
 17 26  2  0
 17 27  1  0
 18 21  1  0
 19 22  2  0
 20 24  2  0
 23 25  2  0
 24 25  1  0
 26 28  1  0
 27 29  2  0
 28 30  2  0
 29 30  1  0
M  END
>  <PUBCHEM_COMPOUND_CID>  (1) 
26417

>  <PUBCHEM_CONFORMER_RMSD>  (1) 
0.8

>  <PUBCHEM_CONFORMER_DIVERSEORDER>  (1) 
1
29
46
24
44
23
19
43
38
2
34
40
16
6
33
30
26
35
31
42
17
45
11
36
48
14
21
32
27
39
18
15
13
25
9
20
10
12
28
37
8
41
3
5
47
22
7
4

>  <PUBCHEM_MMFF94_PARTIAL_CHARGES>  (1) 
40
1 -0.18
10 0.28
11 -0.2
12 -0.05
14 -0.15
15 0.05
16 0.08
17 0.05
18 -0.15
19 -0.15
2 -0.36
20 -0.15
21 -0.15
22 -0.15
23 -0.15
24 0.18
25 -0.15
26 -0.15
27 -0.15
28 -0.15
29 -0.15
3 -0.81
30 -0.15
4 0.03
43 0.27
44 0.15
45 0.15
46 0.15
47 0.15
48 0.15
49 0.15
5 0.27
50 0.15
51 0.15
52 0.15
53 0.15
54 0.15
55 0.15
6 0.27
9 0.27

>  <PUBCHEM_EFFECTIVE_ROTOR_COUNT>  (1) 
7

>  <PUBCHEM_PHARMACOPHORE_FEATURES>  (1) 
9
1 2 acceptor
1 3 cation
1 4 cation
1 4 donor
5 3 5 6 7 8 rings
5 4 11 12 13 14 rings
6 13 14 20 23 24 25 rings
6 15 16 18 19 21 22 rings
6 17 26 27 28 29 30 rings

>  <PUBCHEM_HEAVY_ATOM_COUNT>  (1) 
30

>  <PUBCHEM_ATOM_DEF_STEREO_COUNT>  (1) 
0

>  <PUBCHEM_ATOM_UDEF_STEREO_COUNT>  (1) 
0

>  <PUBCHEM_BOND_DEF_STEREO_COUNT>  (1) 
0

>  <PUBCHEM_BOND_UDEF_STEREO_COUNT>  (1) 
0

>  <PUBCHEM_ISOTOPIC_ATOM_COUNT>  (1) 
0

>  <PUBCHEM_COMPONENT_COUNT>  (1) 
1

>  <PUBCHEM_CACTVS_TAUTO_COUNT>  (1) 
1

>  <PUBCHEM_CONFORMER_ID>  (1) 
0000673100000001

>  <PUBCHEM_MMFF94_ENERGY>  (1) 
79.4118

>  <PUBCHEM_FEATURE_SELFOVERLAP>  (1) 
45.764

>  <PUBCHEM_SHAPE_FINGERPRINT>  (1) 
10258939 38 17894905192347044221
10674148 151 15626502805101235030
11135926 11 18340757191922431767
11421498 54 17703790263223902136
11719270 70 18410288116692339106
12166972 35 12251902598840188431
12596602 18 17917999352309900777
12664476 115 12031788072722134519
12730499 353 18409165493829666964
13692114 37 18271518797327821482
14028597 1 17846504707987978665
15183329 4 7997976769392057861
15328684 2 17346043260644141219
15347590 135 18272934912364093929
15849732 13 12612754609952545056
16990366 60 17977103457843534530
17492 89 18125723383648478743
17852330 53 18199189473514435307
19315958 150 18412269407440559393
20771845 140 17203320084000431198
21033648 29 12607106414662861421
21133410 38 18273493482168895783
21197605 99 18408605885488052211
21344244 181 18060427889670711158
21521721 280 18271522100078297848
21623969 137 18335140886854610547
21781051 124 18187656799646897310
22149856 69 18335996272647309849
22224240 67 18411978091770808992
22956985 138 17681262275405277242
23516275 137 17488206871167972983
23569917 315 18338801114009663258
23576562 1 8430013374767243705
3178227 256 18411134749526026008
3663271 9 18059583464929891697
4093350 32 16773804662122322222
4340502 62 18413108368048820901
4461854 278 18335709368473429203
4874694 18 18335412436594670373
5104073 3 18266462001965710857
5758199 1 18202001061821685321
58260988 521 18187641376340053974
6009941 240 13398341426229835188
6081469 158 11819267842170613456

>  <PUBCHEM_SHAPE_MULTIPOLES>  (1) 
603.42
22.34
3.41
1.39
41.08
4.45
-0.24
-3.44
10.4
-4.12
-0.45
1.25
0.15
0.89

>  <PUBCHEM_SHAPE_SELFOVERLAP>  (1) 
1324.078

>  <PUBCHEM_SHAPE_VOLUME>  (1) 
328.9

>  <PUBCHEM_COORDINATE_TYPE>  (1) 
2
5
10

$$$$
