26421
     RDKit          3D

 10 10  0  0  0  0  0  0  0  0999 V2000
   -1.7676   -1.4503    0.1038 O   0  0  0  0  0  0  0  0  0  0  0  0
    0.0793   -0.1152   -0.3475 N   0  0  0  0  0  0  0  0  0  0  0  0
    2.8899    0.2598    0.2192 C   0  0  0  0  0  0  0  0  0  0  0  0
    2.1989   -1.0822    0.4556 C   0  0  0  0  0  0  0  0  0  0  0  0
    1.8935    1.4133    0.3245 C   0  0  0  0  0  0  0  0  0  0  0  0
    0.9942   -1.2526   -0.4658 C   0  0  0  0  0  0  0  0  0  0  0  0
    0.6931    1.1958   -0.5941 C   0  0  0  0  0  0  0  0  0  0  0  0
   -1.2679   -0.3347   -0.0624 C   0  0  0  0  0  0  0  0  0  0  0  0
   -2.1435    0.8882    0.0458 C   0  0  0  0  0  0  0  0  0  0  0  0
   -3.5698    0.4778    0.3208 C   0  0  0  0  0  0  0  0  0  0  0  0
  1  8  2  0
  2  6  1  0
  2  7  1  0
  2  8  1  0
  3  4  1  0
  3  5  1  0
  4  6  1  0
  5  7  1  0
  8  9  1  0
  9 10  1  0
M  END
>  <PUBCHEM_COMPOUND_CID>  (1) 
26421

>  <PUBCHEM_CONFORMER_RMSD>  (1) 
0.6

>  <PUBCHEM_CONFORMER_DIVERSEORDER>  (1) 
1
5
6
4
7
3
8
2

>  <PUBCHEM_MMFF94_PARTIAL_CHARGES>  (1) 
6
1 -0.57
2 -0.66
6 0.3
7 0.3
8 0.57
9 0.06

>  <PUBCHEM_EFFECTIVE_ROTOR_COUNT>  (1) 
3.2

>  <PUBCHEM_PHARMACOPHORE_FEATURES>  (1) 
3
1 1 acceptor
1 10 hydrophobe
6 2 3 4 5 6 7 rings

>  <PUBCHEM_HEAVY_ATOM_COUNT>  (1) 
10

>  <PUBCHEM_ATOM_DEF_STEREO_COUNT>  (1) 
0

>  <PUBCHEM_ATOM_UDEF_STEREO_COUNT>  (1) 
0

>  <PUBCHEM_BOND_DEF_STEREO_COUNT>  (1) 
0

>  <PUBCHEM_BOND_UDEF_STEREO_COUNT>  (1) 
0

>  <PUBCHEM_ISOTOPIC_ATOM_COUNT>  (1) 
0

>  <PUBCHEM_COMPONENT_COUNT>  (1) 
1

>  <PUBCHEM_CACTVS_TAUTO_COUNT>  (1) 
1

>  <PUBCHEM_CONFORMER_ID>  (1) 
0000673500000001

>  <PUBCHEM_MMFF94_ENERGY>  (1) 
8.6679

>  <PUBCHEM_FEATURE_SELFOVERLAP>  (1) 
15.223

>  <PUBCHEM_SHAPE_FINGERPRINT>  (1) 
10219947 1 18411699846403614132
12251169 10 18409160004813931682
12696612 119 18261960737966800645
12932764 1 17967245386478960463
13380535 76 18412824698639461239
13922767 16 18266736892419829449
14325111 11 18412261757238843281
14390081 3 18130786780449079105
15775835 57 18270966850658216696
16945 1 18410004403958526396
17834069 15 18263077734559471309
19973954 147 18411140276663411737
20871998 22 17981607066038948190
21040471 1 18195809793840122628
23235685 24 18341608213521312200
23552423 10 18188211029887994159
29004967 10 17749108885425215144
5084963 1 17969774366381058268

>  <PUBCHEM_SHAPE_MULTIPOLES>  (1) 
194.94
4.76
1.53
0.72
2.58
0.07
-0.01
-0.57
0.92
-0.41
-0.02
-0.1
-0.02
-0.02

>  <PUBCHEM_SHAPE_SELFOVERLAP>  (1) 
376.263

>  <PUBCHEM_SHAPE_VOLUME>  (1) 
117.6

>  <PUBCHEM_COORDINATE_TYPE>  (1) 
2
5
10

$$$$
