2642
     RDKit          3D

 42 46  0  0  1  0  0  0  0  0999 V2000
    1.8535    0.0388   -2.0040 S   0  0  0  0  0  0  0  0  0  0  0  0
    6.5153    0.1220   -0.8789 S   0  0  0  0  0  0  0  0  0  0  0  0
    1.5914   -3.3873    1.1307 O   0  0  0  0  0  0  0  0  0  0  0  0
    4.0846   -1.0669    2.7289 O   0  0  0  0  0  0  0  0  0  0  0  0
   -1.9917   -0.4976   -1.5565 O   0  0  0  0  0  0  0  0  0  0  0  0
    4.9310   -2.5293    1.1876 O   0  0  0  0  0  0  0  0  0  0  0  0
   -2.7401    1.4831    1.8301 O   0  0  0  0  0  0  0  0  0  0  0  0
   -6.7950   -5.2695   -0.7606 O   0  0  0  0  0  0  0  0  0  0  0  0
   -4.7536    2.0346   -1.7086 O   0  0  0  0  0  0  0  0  0  0  0  0
    2.1716   -1.2624    0.2886 N   0  0  0  0  0  0  0  0  0  0  0  0
   -0.9890   -1.6782    0.1707 N   0  0  0  0  0  0  0  0  0  0  0  0
   -3.9415    0.2913    0.2261 N   0  0  0  0  0  0  0  0  0  0  0  0
    9.1610    0.7599   -0.8896 N   0  0  0  0  0  0  0  0  0  0  0  0
    8.0047    1.9157    0.5350 N   0  0  0  0  0  0  0  0  0  0  0  0
   10.0446    1.5758   -0.2980 N   0  0  0  0  0  0  0  0  0  0  0  0
   -5.3401    4.6779    1.2481 N   0  0  0  0  0  0  0  0  0  0  0  0
    9.3316    2.2805    0.5721 N   0  0  0  0  0  0  0  0  0  0  0  0
    1.1627   -0.4986   -0.4229 C   0  0  0  0  0  0  0  0  0  0  0  0
    0.3308   -1.7995   -0.4441 C   0  0  0  0  0  0  0  0  0  0  0  0
    1.4230   -2.3652    0.5079 C   0  0  0  0  0  0  0  0  0  0  0  0
    3.4259   -0.8071    0.5399 C   0  0  0  0  0  0  0  0  0  0  0  0
    3.9276    0.2745   -0.1023 C   0  0  0  0  0  0  0  0  0  0  0  0
    3.1863    1.0071   -1.2184 C   0  0  0  0  0  0  0  0  0  0  0  0
   -2.0578   -1.0260   -0.4482 C   0  0  0  0  0  0  0  0  0  0  0  0
    5.2774    0.8895    0.1795 C   0  0  0  0  0  0  0  0  0  0  0  0
    4.2378   -1.5796    1.4921 C   0  0  0  0  0  0  0  0  0  0  0  0
   -3.3105   -0.9914    0.4176 C   0  0  0  0  0  0  0  0  0  0  0  0
   -4.2439   -2.1368    0.1022 C   0  0  0  0  0  0  0  0  0  0  0  0
   -4.7326   -2.2774   -1.1863 C   0  0  0  0  0  0  0  0  0  0  0  0
   -4.5920   -3.0242    1.1072 C   0  0  0  0  0  0  0  0  0  0  0  0
   -3.5953    1.4141    0.9541 C   0  0  0  0  0  0  0  0  0  0  0  0
    7.9622    0.9985   -0.3619 C   0  0  0  0  0  0  0  0  0  0  0  0
   -5.5938   -3.3353   -1.4779 C   0  0  0  0  0  0  0  0  0  0  0  0
   -5.4532   -4.0821    0.8153 C   0  0  0  0  0  0  0  0  0  0  0  0
   -4.3793    2.6036    0.5743 C   0  0  0  0  0  0  0  0  0  0  0  0
   -5.9540   -4.2376   -0.4772 C   0  0  0  0  0  0  0  0  0  0  0  0
   -4.9263    2.8369   -0.7974 C   0  0  0  0  0  0  0  0  0  0  0  0
   -4.6239    3.5396    1.5019 C   0  0  0  0  0  0  0  0  0  0  0  0
    9.5919   -0.1648   -1.9076 C   0  0  0  0  0  0  0  0  0  0  0  0
   -5.7008    4.0958   -1.0244 C   0  0  0  0  0  0  0  0  0  0  0  0
   -5.8683    4.9485    0.0037 C   0  0  0  0  0  0  0  0  0  0  0  0
   -6.6321    6.2291   -0.1487 C   0  0  0  0  0  0  0  0  0  0  0  0
  1 18  1  0
  1 23  1  0
  2 25  1  0
  2 32  1  0
  3 20  2  0
  4 26  1  0
  5 24  2  0
  6 26  2  0
  7 31  2  0
  8 36  1  0
  9 37  2  0
 10 18  1  0
 10 20  1  0
 10 21  1  0
 11 19  1  0
 11 24  1  0
 12 27  1  0
 12 31  1  0
 13 15  1  0
 13 32  1  0
 13 39  1  0
 14 17  1  0
 14 32  2  0
 15 17  2  0
 16 38  1  0
 16 41  1  0
 18 19  1  0
 19 20  1  0
 21 22  2  0
 21 26  1  0
 22 23  1  0
 22 25  1  0
 24 27  1  0
 27 28  1  0
 28 29  2  0
 28 30  1  0
 29 33  1  0
 30 34  2  0
 31 35  1  0
 33 36  2  0
 34 36  1  0
 35 37  1  0
 35 38  2  0
 37 40  1  0
 40 41  2  0
 41 42  1  0
M  END
>  <PUBCHEM_COMPOUND_CID>  (1) 
2642

>  <PUBCHEM_CONFORMER_RMSD>  (1) 
1.2

>  <PUBCHEM_CONFORMER_DIVERSEORDER>  (1) 
3
196
121
254
135
165
56
183
174
308
244
145
155
170
114
231
83
305
147
88
194
269
321
95
241
288
97
36
311
12
173
46
167
290
233
261
78
294
293
187
109
96
162
15
207
206
278
119
297
148
281
93
140
214
218
318
11
115
82
68
256
195
315
319
239
282
67
70
129
134
181
242
253
103
227
54
152
277
116
139
271
228
198
224
176
1
143
172
49
47
202
299
322
111
53
238
153
120
197
193
257
292
89
171
309
212
226
190
123
285
27
312
22
10
191
298
77
169
158
262
307
216
151
189
251
259
74
204
178
249
324
300
274
99
272
150
219
100
316
19
90
127
310
164
75
108
323
104
287
306
246
60
33
94
320
20
65
264
98
215
142
64
144
236
136
229
314
284
247
62
237
283
84
55
81
154
28
66
63
87
131
105
79
280
7
73
232
45
265
44
217
275
209
304
157
159
255
296
17
125
101
248
141
168
175
76
234
286
243
80
180
32
132
85
210
289
26
258
235
220
160
102
205
52
273
276
240
267
279
137
34
270
118
203
301
268
260
302
188
72
117
35
199
317
124
221
192
266
245
313
39
211
91
106
58
86
71
303
13
122
222
61
182
133
59
223
48
138
2
230
43
38
263
31
92
57
51
107
146
126
128
184
42
291
252
185
186
6
130
110
213
14
161
113
163
201
225
30
37
112
24
4
18
200
25
23
50
29
208
166
41
40
5
179
156
69
250
295
9
177
8
21
16
149

>  <PUBCHEM_MMFF94_PARTIAL_CHARGES>  (1) 
52
1 -0.45
10 -0.39
11 -0.65
12 -0.73
13 0.31
14 -0.34
15 -0.42
16 -0.6
18 0.44
19 0.28
2 -0.29
20 0.58
21 0.12
22 -0.28
23 0.37
24 0.57
25 0.37
26 0.71
27 0.5
28 -0.14
29 -0.15
3 -0.57
30 -0.15
31 0.62
32 0.24
33 -0.15
34 -0.15
35 0.03
36 0.08
37 0.54
38 -0.05
39 0.26
4 -0.65
40 -0.14
41 -0.04
42 0.14
45 0.37
5 -0.57
51 0.37
52 0.5
53 0.15
54 0.15
55 0.15
56 0.15
57 0.15
6 -0.57
61 0.4
62 0.15
63 0.45
7 -0.57
8 -0.53
9 -0.57

>  <PUBCHEM_EFFECTIVE_ROTOR_COUNT>  (1) 
11.6

>  <PUBCHEM_PHARMACOPHORE_FEATURES>  (1) 
19
1 11 donor
1 12 donor
1 16 cation
1 16 donor
1 3 acceptor
1 35 anion
1 4 acceptor
1 5 acceptor
1 6 acceptor
1 7 acceptor
1 8 donor
1 9 acceptor
3 13 14 32 cation
3 4 6 26 anion
4 10 18 19 20 rings
5 13 14 15 17 32 rings
6 1 10 18 21 22 23 rings
6 16 35 37 38 40 41 rings
6 28 29 30 33 34 36 rings

>  <PUBCHEM_HEAVY_ATOM_COUNT>  (1) 
42

>  <PUBCHEM_ATOM_DEF_STEREO_COUNT>  (1) 
0

>  <PUBCHEM_ATOM_UDEF_STEREO_COUNT>  (1) 
3

>  <PUBCHEM_BOND_DEF_STEREO_COUNT>  (1) 
0

>  <PUBCHEM_BOND_UDEF_STEREO_COUNT>  (1) 
0

>  <PUBCHEM_ISOTOPIC_ATOM_COUNT>  (1) 
0

>  <PUBCHEM_COMPONENT_COUNT>  (1) 
1

>  <PUBCHEM_CACTVS_TAUTO_COUNT>  (1) 
84

>  <PUBCHEM_CONFORMER_ID>  (1) 
00000A5200000003

>  <PUBCHEM_MMFF94_ENERGY>  (1) 
107.435

>  <PUBCHEM_FEATURE_SELFOVERLAP>  (1) 
96.74

>  <PUBCHEM_SHAPE_FINGERPRINT>  (1) 
12106331 60 18268422606748810815
12133447 93 18336559253066059332
12788726 201 18337940231144381803
14068700 675 18191305086591478663
14118638 360 18261104206030828730
14394314 77 18333733494897527916
14512766 119 18340773641515709156
15328684 2 18041825269488012336
15347591 1 18339079294313830614
15439362 3 17980765939680129543
1577012 14 18334293159231921258
16114785 44 18187939344212896995
18393751 57 18047756993345092765
24771293 8 18040437707604742310
249057 25 17822861991028589548
57527293 21 17896028850628754458
58083652 198 16009311032791840988
6523845 18 17203332268648836430
6673363 416 18267869574042777882
6677587 24 16234440174975199565
9896288 288 18410017654191727719

>  <PUBCHEM_SHAPE_MULTIPOLES>  (1) 
791.11
27.62
7.31
1.67
64.59
4.6
0.11
16.64
-4.57
-26.82
0.43
0.52
-0.17
-2.1

>  <PUBCHEM_SHAPE_SELFOVERLAP>  (1) 
1685.811

>  <PUBCHEM_SHAPE_VOLUME>  (1) 
441.6

>  <PUBCHEM_COORDINATE_TYPE>  (1) 
2
5
10

$$$$
