26430
     RDKit          3D

 23 25  0  0  1  0  0  0  0  0999 V2000
   -1.4124    1.7907    1.7906 S   0  0  0  0  0  0  0  0  0  0  0  0
    4.2768    2.0316   -1.0291 S   0  0  0  0  0  0  0  0  0  0  0  0
   -0.6036    0.1690   -0.7351 N   0  0  0  0  0  0  0  0  0  0  0  0
    0.8976   -3.4299    1.0924 N   0  0  0  0  0  0  0  0  0  0  0  0
    0.6796   -1.9606   -0.9034 C   0  0  0  0  0  0  0  0  0  0  0  0
   -0.1733   -0.9090   -1.6348 C   0  0  0  0  0  0  0  0  0  0  0  0
    0.0061   -2.5410    0.3549 C   0  0  0  0  0  0  0  0  0  0  0  0
    1.0856   -3.0979   -1.8478 C   0  0  0  0  0  0  0  0  0  0  0  0
    0.4024    1.0108   -0.1967 C   0  0  0  0  0  0  0  0  0  0  0  0
   -1.9971    0.3283   -0.5269 C   0  0  0  0  0  0  0  0  0  0  0  0
    0.1493    1.8137    0.9330 C   0  0  0  0  0  0  0  0  0  0  0  0
   -2.4878    1.0635    0.5704 C   0  0  0  0  0  0  0  0  0  0  0  0
    1.6836    1.1132   -0.7816 C   0  0  0  0  0  0  0  0  0  0  0  0
   -2.9524   -0.2053   -1.4194 C   0  0  0  0  0  0  0  0  0  0  0  0
    0.2353   -3.9425    2.2928 C   0  0  0  0  0  0  0  0  0  0  0  0
    2.1349   -2.7356    1.4518 C   0  0  0  0  0  0  0  0  0  0  0  0
    1.1480    2.6533    1.4578 C   0  0  0  0  0  0  0  0  0  0  0  0
   -3.8707    1.2251    0.7679 C   0  0  0  0  0  0  0  0  0  0  0  0
    2.6709    1.9530   -0.2590 C   0  0  0  0  0  0  0  0  0  0  0  0
   -4.3255   -0.0374   -1.2211 C   0  0  0  0  0  0  0  0  0  0  0  0
    2.4038    2.7216    0.8638 C   0  0  0  0  0  0  0  0  0  0  0  0
   -4.7852    0.6759   -0.1247 C   0  0  0  0  0  0  0  0  0  0  0  0
    4.8341    0.3095   -0.8958 C   0  0  0  0  0  0  0  0  0  0  0  0
  1 11  1  0
  1 12  1  0
  2 19  1  0
  2 23  1  0
  3  6  1  0
  3  9  1  0
  3 10  1  0
  4  7  1  0
  4 15  1  0
  4 16  1  0
  5  6  1  0
  5  7  1  0
  5  8  1  0
  9 11  2  0
  9 13  1  0
 10 12  2  0
 10 14  1  0
 11 17  1  0
 12 18  1  0
 13 19  2  0
 14 20  2  0
 17 21  2  0
 18 22  2  0
 19 21  1  0
 20 22  1  0
M  END
>  <PUBCHEM_COMPOUND_CID>  (1) 
26430

>  <PUBCHEM_CONFORMER_RMSD>  (1) 
0.8

>  <PUBCHEM_CONFORMER_DIVERSEORDER>  (1) 
1
13
18
7
14
10
11
2
5
16
12
15
17
19
6
9
3
4
8

>  <PUBCHEM_MMFF94_PARTIAL_CHARGES>  (1) 
28
1 -0.2
10 0.1
11 0.1
12 0.1
13 -0.15
14 -0.15
15 0.27
16 0.27
17 -0.15
18 -0.15
19 0.1
2 -0.33
20 -0.15
21 -0.15
22 -0.15
23 0.23
3 -0.57
32 0.15
33 0.15
4 -0.81
40 0.15
41 0.15
42 0.15
43 0.15
44 0.15
6 0.37
7 0.27
9 0.1

>  <PUBCHEM_EFFECTIVE_ROTOR_COUNT>  (1) 
5.4

>  <PUBCHEM_PHARMACOPHORE_FEATURES>  (1) 
7
1 23 hydrophobe
1 3 cation
1 4 cation
1 8 hydrophobe
6 1 3 9 10 11 12 rings
6 10 12 14 18 20 22 rings
6 9 11 13 17 19 21 rings

>  <PUBCHEM_HEAVY_ATOM_COUNT>  (1) 
23

>  <PUBCHEM_ATOM_DEF_STEREO_COUNT>  (1) 
0

>  <PUBCHEM_ATOM_UDEF_STEREO_COUNT>  (1) 
1

>  <PUBCHEM_BOND_DEF_STEREO_COUNT>  (1) 
0

>  <PUBCHEM_BOND_UDEF_STEREO_COUNT>  (1) 
0

>  <PUBCHEM_ISOTOPIC_ATOM_COUNT>  (1) 
0

>  <PUBCHEM_COMPONENT_COUNT>  (1) 
1

>  <PUBCHEM_CACTVS_TAUTO_COUNT>  (1) 
1

>  <PUBCHEM_CONFORMER_ID>  (1) 
0000673E00000001

>  <PUBCHEM_MMFF94_ENERGY>  (1) 
83.3964

>  <PUBCHEM_FEATURE_SELFOVERLAP>  (1) 
35.551

>  <PUBCHEM_SHAPE_FINGERPRINT>  (1) 
107951 10 18189339142167497398
10906281 52 17773056322152303596
1100329 8 18408878521443166890
11578080 2 17824540760527270157
11582403 64 12509076508603214782
12160290 23 17616229812515521718
12549972 3 17912363435989390464
12553582 1 17764033467630563519
12592029 89 18259700082220610384
12644460 14 18130239164156593689
12788726 201 17988660575244990144
13004483 165 17110702490053420043
13083527 12 18192418676283052969
13135754 10 17244714699431063914
133893 2 18119496922309637311
13681431 1 18123176905801509063
14787075 74 18337959991223060190
14955137 171 18130498635399012474
15209289 33 18131075977719284133
1813 80 17980756039517131511
19591789 44 17987234624131327677
20567600 347 18339637953599431451
20600515 1 17256786911543286765
20645476 183 18192712477826979036
21421861 104 18124328103219108857
21524375 3 18341047518488992805
23419403 2 17832193481262045667
23558518 356 17835508697945700436
23559900 14 17485927424385136439
23598288 3 16315019953514482826
2748010 2 15612404089410554705
3380486 145 16686259686856504646
3383291 50 18130230466890563302
35225 105 17903639923060257410
3759504 43 18190183584071835100
394222 165 18343017787850010497
404807 78 17249737290745164407
4058900 60 18262250953223544812
4340502 62 18263664947463363681
6138700 20 18201730505384785420
81228 2 17401469946009296255
90316 7 17113819592353584051
9709674 26 17341808181649676012
9981440 41 16623181722704995904

>  <PUBCHEM_SHAPE_MULTIPOLES>  (1) 
471.07
7.06
4.48
1.96
1.74
4.86
0.47
-4.74
-2.67
-3.1
2.62
-0.05
1.23
-0.75

>  <PUBCHEM_SHAPE_SELFOVERLAP>  (1) 
965.335

>  <PUBCHEM_SHAPE_VOLUME>  (1) 
274.9

>  <PUBCHEM_COORDINATE_TYPE>  (1) 
2
5
10

$$$$
