26433
     RDKit          3D

 15 16  0  0  0  0  0  0  0  0999 V2000
   -4.1120    0.3606   -0.1259 O   0  0  0  0  0  0  0  0  0  0  0  0
    2.0478    2.2826    0.3803 O   0  0  0  0  0  0  0  0  0  0  0  0
    1.4556   -0.0394    0.0005 N   0  0  0  0  0  0  0  0  0  0  0  0
    3.6325    0.5659    0.1659 N   0  0  0  0  0  0  0  0  0  0  0  0
    2.2823   -1.1629   -0.1211 C   0  0  0  0  0  0  0  0  0  0  0  0
    0.0315    0.0626   -0.0312 C   0  0  0  0  0  0  0  0  0  0  0  0
    2.3236    1.1065    0.1941 C   0  0  0  0  0  0  0  0  0  0  0  0
    3.5654   -0.7806   -0.0274 C   0  0  0  0  0  0  0  0  0  0  0  0
   -0.7589   -1.0000    0.4134 C   0  0  0  0  0  0  0  0  0  0  0  0
   -0.5780    1.2258   -0.5085 C   0  0  0  0  0  0  0  0  0  0  0  0
    1.8385   -2.5461   -0.4296 C   0  0  0  0  0  0  0  0  0  0  0  0
   -2.1498   -0.9004    0.3808 C   0  0  0  0  0  0  0  0  0  0  0  0
   -1.9689    1.3257   -0.5409 C   0  0  0  0  0  0  0  0  0  0  0  0
   -2.7549    0.2625   -0.0962 C   0  0  0  0  0  0  0  0  0  0  0  0
   -4.8548   -0.7627    0.3456 C   0  0  0  0  0  0  0  0  0  0  0  0
  1 14  1  0
  1 15  1  0
  2  7  2  0
  3  5  1  0
  3  6  1  0
  3  7  1  0
  4  7  1  0
  4  8  1  0
  5  8  2  0
  5 11  1  0
  6  9  2  0
  6 10  1  0
  9 12  1  0
 10 13  2  0
 12 14  2  0
 13 14  1  0
M  END
>  <PUBCHEM_COMPOUND_CID>  (1) 
26433

>  <PUBCHEM_CONFORMER_RMSD>  (1) 
0.6

>  <PUBCHEM_CONFORMER_DIVERSEORDER>  (1) 
1
3
2

>  <PUBCHEM_MMFF94_PARTIAL_CHARGES>  (1) 
21
1 -0.36
10 -0.15
11 0.14
12 -0.15
13 -0.15
14 0.08
15 0.28
16 0.15
17 0.37
18 0.15
19 0.15
2 -0.57
23 0.15
24 0.15
3 -0.29
4 -0.54
5 -0.03
6 0.12
7 0.69
8 -0.04
9 -0.15

>  <PUBCHEM_EFFECTIVE_ROTOR_COUNT>  (1) 
2

>  <PUBCHEM_PHARMACOPHORE_FEATURES>  (1) 
5
1 1 acceptor
1 2 acceptor
1 4 donor
5 3 4 5 7 8 rings
6 6 9 10 12 13 14 rings

>  <PUBCHEM_HEAVY_ATOM_COUNT>  (1) 
15

>  <PUBCHEM_ATOM_DEF_STEREO_COUNT>  (1) 
0

>  <PUBCHEM_ATOM_UDEF_STEREO_COUNT>  (1) 
0

>  <PUBCHEM_BOND_DEF_STEREO_COUNT>  (1) 
0

>  <PUBCHEM_BOND_UDEF_STEREO_COUNT>  (1) 
0

>  <PUBCHEM_ISOTOPIC_ATOM_COUNT>  (1) 
0

>  <PUBCHEM_COMPONENT_COUNT>  (1) 
1

>  <PUBCHEM_CACTVS_TAUTO_COUNT>  (1) 
2

>  <PUBCHEM_CONFORMER_ID>  (1) 
0000674100000001

>  <PUBCHEM_MMFF94_ENERGY>  (1) 
67.5571

>  <PUBCHEM_FEATURE_SELFOVERLAP>  (1) 
25.371

>  <PUBCHEM_SHAPE_FINGERPRINT>  (1) 
10608611 8 18408599240835723357
10967382 1 18410855464613150102
11132069 177 18336538417066518569
11471102 20 18412542111139295508
12032990 46 18260834799969507811
12251169 10 18343301478702798063
12346645 6 18342459257196449022
12932764 1 17131253693299320137
13380535 76 18408602582483809970
13897977 150 18410570721097735935
14144814 61 18339643343319041008
14251717 144 18413669110394547495
14252887 29 18334586741273059443
14325111 11 18336544924000039661
15196674 1 18336264552645158293
15219456 202 18410007706651175061
15442244 35 18053667975395470192
15536298 74 18413107268547612385
16945 1 18412539899231079652
17802600 8 18335415755470103904
17834074 16 18411140238304313059
18186145 218 18341051809414502621
19026448 5 17561082519035730229
19049666 15 18191864522412214700
200 152 18060134332222404555
20201158 50 18410293584133043754
20279233 1 18261117369630349995
20510252 161 18338515244800834825
20528008 55 18408601483082568585
20588541 1 18408044004869990124
20645477 70 18341889646012859775
21267235 1 18410864226557670870
21501502 16 18266745675247855800
23402539 116 18187917387601477255
23402655 69 18341325609295315557
23557571 272 17458621190864615421
23559900 14 18335698317273851114
2748010 2 18120941860824141174
3060560 45 18273218599422866278
33824 294 18410572894409560850
5104073 3 18337952294435554793
581208 293 18412821404177784702
69090 78 18411976983896262279
7364860 26 18413670214622843284
8809292 202 18259990383249846882
9709674 26 18409453574508842019

>  <PUBCHEM_SHAPE_MULTIPOLES>  (1) 
286.99
7.33
1.98
0.69
4.99
0.18
-0.02
0.99
0.49
-1.3
-0.11
0.06
0
0.65

>  <PUBCHEM_SHAPE_SELFOVERLAP>  (1) 
612.879

>  <PUBCHEM_SHAPE_VOLUME>  (1) 
160.1

>  <PUBCHEM_COORDINATE_TYPE>  (1) 
2
5
10

$$$$
