26434
     RDKit          3D

 11 11  0  0  0  0  0  0  0  0999 V2000
    1.0096   -2.3489   -0.1856 O   0  0  0  0  0  0  0  0  0  0  0  0
    0.5714   -0.0067   -0.3231 N   0  0  0  0  0  0  0  0  0  0  0  0
    2.5554   -0.6785    0.4711 N   0  0  0  0  0  0  0  0  0  0  0  0
   -0.7649    0.0135   -0.8653 C   0  0  0  0  0  0  0  0  0  0  0  0
   -1.8343   -0.0009    0.2219 C   0  0  0  0  0  0  0  0  0  0  0  0
   -3.2539   -0.0072   -0.3498 C   0  0  0  0  0  0  0  0  0  0  0  0
    1.3297    1.1052    0.0042 C   0  0  0  0  0  0  0  0  0  0  0  0
    1.3273   -1.1792   -0.0362 C   0  0  0  0  0  0  0  0  0  0  0  0
    2.5149    0.6908    0.4783 C   0  0  0  0  0  0  0  0  0  0  0  0
   -4.2967   -0.0824    0.7546 C   0  0  0  0  0  0  0  0  0  0  0  0
    0.8414    2.4942   -0.1702 C   0  0  0  0  0  0  0  0  0  0  0  0
  1  8  2  0
  2  4  1  0
  2  7  1  0
  2  8  1  0
  3  8  1  0
  3  9  1  0
  4  5  1  0
  5  6  1  0
  6 10  1  0
  7  9  2  0
  7 11  1  0
M  END
>  <PUBCHEM_COMPOUND_CID>  (1) 
26434

>  <PUBCHEM_CONFORMER_RMSD>  (1) 
0.6

>  <PUBCHEM_CONFORMER_DIVERSEORDER>  (1) 
1
7
10
9
3
4
5
2
6
8

>  <PUBCHEM_MMFF94_PARTIAL_CHARGES>  (1) 
10
1 -0.57
11 0.14
18 0.15
19 0.37
2 -0.47
3 -0.54
4 0.3
7 -0.03
8 0.69
9 -0.04

>  <PUBCHEM_EFFECTIVE_ROTOR_COUNT>  (1) 
3

>  <PUBCHEM_PHARMACOPHORE_FEATURES>  (1) 
4
1 1 acceptor
1 10 hydrophobe
1 3 donor
5 2 3 7 8 9 rings

>  <PUBCHEM_HEAVY_ATOM_COUNT>  (1) 
11

>  <PUBCHEM_ATOM_DEF_STEREO_COUNT>  (1) 
0

>  <PUBCHEM_ATOM_UDEF_STEREO_COUNT>  (1) 
0

>  <PUBCHEM_BOND_DEF_STEREO_COUNT>  (1) 
0

>  <PUBCHEM_BOND_UDEF_STEREO_COUNT>  (1) 
0

>  <PUBCHEM_ISOTOPIC_ATOM_COUNT>  (1) 
0

>  <PUBCHEM_COMPONENT_COUNT>  (1) 
1

>  <PUBCHEM_CACTVS_TAUTO_COUNT>  (1) 
2

>  <PUBCHEM_CONFORMER_ID>  (1) 
0000674200000001

>  <PUBCHEM_MMFF94_ENERGY>  (1) 
20.6684

>  <PUBCHEM_FEATURE_SELFOVERLAP>  (1) 
20.297

>  <PUBCHEM_SHAPE_FINGERPRINT>  (1) 
10219947 1 18410288120844835976
12932764 1 18411703192810846557
13380536 305 18338525256258663084
14251717 144 18410847794123475439
15501101 241 18187365441317267229
15775835 57 17703508899747555081
161256 15 18200031708105963398
20201158 50 18333730204498144891
20559304 39 18341901787763994985
20645477 70 18339070494183830239
20871998 22 18055355734540230502
21040471 1 18051123985041589180
2748010 2 18051961537739042356
29004967 10 18335976480836044824

>  <PUBCHEM_SHAPE_MULTIPOLES>  (1) 
210.54
5.42
1.91
0.79
7.04
0.2
0.01
-0.08
-1.47
-1.55
0.14
0.24
0.02
0

>  <PUBCHEM_SHAPE_SELFOVERLAP>  (1) 
414.92

>  <PUBCHEM_SHAPE_VOLUME>  (1) 
126.1

>  <PUBCHEM_COORDINATE_TYPE>  (1) 
2
5
10

$$$$
