26441
     RDKit          3D

 16 16  0  0  0  0  0  0  0  0999 V2000
   -0.6726   -1.9142   -0.0484 S   0  0  0  0  0  0  0  0  0  0  0  0
    1.6166    0.7816    0.4425 O   0  0  0  0  0  0  0  0  0  0  0  0
   -1.7509   -2.8652   -0.2697 O   0  0  0  0  0  0  0  0  0  0  0  0
    0.4653   -1.8815   -0.9543 O   0  0  0  0  0  0  0  0  0  0  0  0
    1.1984    0.6038   -1.8142 O   0  0  0  0  0  0  0  0  0  0  0  0
   -0.0993   -2.0882    1.5508 N   0  0  0  0  0  0  0  0  0  0  0  0
   -1.3656   -0.3080    0.0237 C   0  0  0  0  0  0  0  0  0  0  0  0
   -0.6059    0.8240   -0.2711 C   0  0  0  0  0  0  0  0  0  0  0  0
    3.0246    0.6947    0.1980 C   0  0  0  0  0  0  0  0  0  0  0  0
    0.7974    0.7242   -0.6506 C   0  0  0  0  0  0  0  0  0  0  0  0
   -2.7062   -0.1737    0.3846 C   0  0  0  0  0  0  0  0  0  0  0  0
   -1.1868    2.0905   -0.2046 C   0  0  0  0  0  0  0  0  0  0  0  0
    3.7700    0.8089    1.5189 C   0  0  0  0  0  0  0  0  0  0  0  0
    3.3295   -0.6147   -0.5135 C   0  0  0  0  0  0  0  0  0  0  0  0
   -3.2870    1.0928    0.4512 C   0  0  0  0  0  0  0  0  0  0  0  0
   -2.5273    2.2249    0.1566 C   0  0  0  0  0  0  0  0  0  0  0  0
  1  3  2  0
  1  4  2  0
  1  6  1  0
  1  7  1  0
  2  9  1  0
  2 10  1  0
  5 10  2  0
  7  8  2  0
  7 11  1  0
  8 10  1  0
  8 12  1  0
  9 13  1  0
  9 14  1  0
 11 15  2  0
 12 16  2  0
 15 16  1  0
M  END
>  <PUBCHEM_COMPOUND_CID>  (1) 
26441

>  <PUBCHEM_CONFORMER_RMSD>  (1) 
0.6

>  <PUBCHEM_CONFORMER_DIVERSEORDER>  (1) 
5
6
9
12
3
4
13
14
8
7
10
17
1
2
18
11
16
15

>  <PUBCHEM_MMFF94_PARTIAL_CHARGES>  (1) 
20
1 1.45
10 0.63
11 -0.15
12 -0.15
15 -0.15
16 -0.15
18 0.15
19 0.15
2 -0.43
26 0.15
27 0.15
28 0.42
29 0.42
3 -0.65
4 -0.65
5 -0.57
6 -0.98
7 -0.01
8 0.09
9 0.28

>  <PUBCHEM_EFFECTIVE_ROTOR_COUNT>  (1) 
4

>  <PUBCHEM_PHARMACOPHORE_FEATURES>  (1) 
6
1 3 acceptor
1 4 acceptor
1 5 acceptor
1 6 donor
3 9 13 14 hydrophobe
6 7 8 11 12 15 16 rings

>  <PUBCHEM_HEAVY_ATOM_COUNT>  (1) 
16

>  <PUBCHEM_ATOM_DEF_STEREO_COUNT>  (1) 
0

>  <PUBCHEM_ATOM_UDEF_STEREO_COUNT>  (1) 
0

>  <PUBCHEM_BOND_DEF_STEREO_COUNT>  (1) 
0

>  <PUBCHEM_BOND_UDEF_STEREO_COUNT>  (1) 
0

>  <PUBCHEM_ISOTOPIC_ATOM_COUNT>  (1) 
0

>  <PUBCHEM_COMPONENT_COUNT>  (1) 
1

>  <PUBCHEM_CACTVS_TAUTO_COUNT>  (1) 
1

>  <PUBCHEM_CONFORMER_ID>  (1) 
0000674900000005

>  <PUBCHEM_MMFF94_ENERGY>  (1) 
30.3618

>  <PUBCHEM_FEATURE_SELFOVERLAP>  (1) 
30.469

>  <PUBCHEM_SHAPE_FINGERPRINT>  (1) 
11132069 177 18411979169770767993
12251169 10 18408879668267753152
12423570 1 11307898143196577159
12500047 106 18413106143762241468
12553582 1 17618515710154288574
13004483 165 17267190924858751446
13140716 1 18122914393585477705
13380535 76 18341612573145148463
13538477 17 17969795248538542244
13581323 91 18335144214742270856
15076042 46 18189346816825421780
15669948 3 18263652920964402932
15775835 57 18411422769489388489
16945 1 18411139155624122173
17804303 29 18340495452489133966
18186145 218 17988369161059523424
19930374 2 17969209054127390485
20361792 2 16588294012786558460
20510252 161 18272370867035808281
20524608 308 18343022215576398006
20645476 183 17169859835836643903
20871998 184 18270406125576794143
21501502 16 18122061167977686248
21524375 3 18339360760367374923
22344851 341 18120101571942234291
2334 1 17762345008284977093
23402539 116 18200580514826946727
23559900 14 18343309146089905292
257057 1 17548969409480036615
27216 239 17415254390375372992
2748010 2 18192728747568771405
305870 269 18192151495152773033
4072396 5 18187081724847818849
43471831 8 18261109613146305947
4663303 62 17912368623782109535
53812653 166 18196662791155816276
5706482 22 18339912753964745297
58807428 26 18336267825726814507
6338986 31 17765993187734394087
69090 78 18201715158844208991
7364860 26 17764594213980535607
77492 1 17603591854289010684
81228 2 18264764548499534153

>  <PUBCHEM_SHAPE_MULTIPOLES>  (1) 
304.66
5.26
2.62
1.17
3.16
1.49
-0.05
-2.2
-1.45
-1.59
-0.1
0.78
0.08
0.29

>  <PUBCHEM_SHAPE_SELFOVERLAP>  (1) 
619.17

>  <PUBCHEM_SHAPE_VOLUME>  (1) 
178.3

>  <PUBCHEM_COORDINATE_TYPE>  (1) 
2
5
10

$$$$
