2645
     RDKit          3D

 37 39  0  0  1  0  0  0  0  0999 V2000
   -1.3916    3.9993   -0.9098 S   0  0  0  0  0  0  0  0  0  0  0  0
    3.8769   -0.0735    3.2416 S   0  0  0  0  0  0  0  0  0  0  0  0
   -0.7813   -0.4571   -2.0851 O   0  0  0  0  0  0  0  0  0  0  0  0
   -2.9866   -0.9126    0.1434 O   0  0  0  0  0  0  0  0  0  0  0  0
   -4.8448    2.8112    2.0442 O   0  0  0  0  0  0  0  0  0  0  0  0
   -4.5719   -0.0484   -1.3076 O   0  0  0  0  0  0  0  0  0  0  0  0
    2.6246    3.4978   -0.8429 O   0  0  0  0  0  0  0  0  0  0  0  0
   -2.6043   -3.2289    0.5184 O   0  0  0  0  0  0  0  0  0  0  0  0
    6.1085    1.0891   -0.4813 O   0  0  0  0  0  0  0  0  0  0  0  0
   -0.8922   -4.5760    0.1844 O   0  0  0  0  0  0  0  0  0  0  0  0
   -1.6172   -3.2621   -1.5647 O   0  0  0  0  0  0  0  0  0  0  0  0
   -1.5729    1.3529   -0.7975 N   0  0  0  0  0  0  0  0  0  0  0  0
    1.6458    1.3740   -1.0459 N   0  0  0  0  0  0  0  0  0  0  0  0
    5.0254    1.7865   -1.0342 N   0  0  0  0  0  0  0  0  0  0  0  0
    4.3706   -0.5551    0.7502 N   0  0  0  0  0  0  0  0  0  0  0  0
    4.6576   -2.3954    2.2068 N   0  0  0  0  0  0  0  0  0  0  0  0
   -0.6480    2.4169   -0.4522 C   0  0  0  0  0  0  0  0  0  0  0  0
    0.3126    1.7860   -1.4838 C   0  0  0  0  0  0  0  0  0  0  0  0
   -0.7156    0.6203   -1.5409 C   0  0  0  0  0  0  0  0  0  0  0  0
   -2.8663    1.3139   -0.3857 C   0  0  0  0  0  0  0  0  0  0  0  0
   -3.4762    2.4057    0.1341 C   0  0  0  0  0  0  0  0  0  0  0  0
   -2.8158    3.7805    0.2101 C   0  0  0  0  0  0  0  0  0  0  0  0
   -4.8809    2.4207    0.6878 C   0  0  0  0  0  0  0  0  0  0  0  0
   -3.5934    0.0521   -0.5895 C   0  0  0  0  0  0  0  0  0  0  0  0
    2.6562    2.2798   -0.7734 C   0  0  0  0  0  0  0  0  0  0  0  0
    3.9395    1.6181   -0.3418 C   0  0  0  0  0  0  0  0  0  0  0  0
   -3.5554   -2.2357    0.0800 C   0  0  0  0  0  0  0  0  0  0  0  0
   -6.1465    2.8437    2.6222 C   0  0  0  0  0  0  0  0  0  0  0  0
    3.9956    0.7703    0.8533 C   0  0  0  0  0  0  0  0  0  0  0  0
   -4.7457   -2.3088    1.0258 C   0  0  0  0  0  0  0  0  0  0  0  0
    3.6905    1.2133    2.1232 C   0  0  0  0  0  0  0  0  0  0  0  0
    4.3437   -1.0985    1.9469 C   0  0  0  0  0  0  0  0  0  0  0  0
   -1.6966   -3.6489   -0.4066 C   0  0  0  0  0  0  0  0  0  0  0  0
    0.1294   -5.1301   -0.6514 C   0  0  0  0  0  0  0  0  0  0  0  0
    7.2470    1.3264   -1.2947 C   0  0  0  0  0  0  0  0  0  0  0  0
    0.4032   -6.5640   -0.2239 C   0  0  0  0  0  0  0  0  0  0  0  0
    1.3761   -4.2633   -0.5595 C   0  0  0  0  0  0  0  0  0  0  0  0
  1 17  1  0
  1 22  1  0
  2 31  1  0
  2 32  1  0
  3 19  2  0
  4 24  1  0
  4 27  1  0
  5 23  1  0
  5 28  1  0
  6 24  2  0
  7 25  2  0
  8 27  1  0
  8 33  1  0
  9 14  1  0
  9 35  1  0
 10 33  1  0
 10 34  1  0
 11 33  2  0
 12 17  1  0
 12 19  1  0
 12 20  1  0
 13 18  1  0
 13 25  1  0
 14 26  2  0
 15 29  1  0
 15 32  2  0
 16 32  1  0
 17 18  1  0
 18 19  1  0
 20 21  2  0
 20 24  1  0
 21 22  1  0
 21 23  1  0
 25 26  1  0
 26 29  1  0
 27 30  1  0
 29 31  2  0
 34 36  1  0
 34 37  1  0
M  END
>  <PUBCHEM_COMPOUND_CID>  (1) 
2645

>  <PUBCHEM_CONFORMER_RMSD>  (1) 
1.2

>  <PUBCHEM_CONFORMER_DIVERSEORDER>  (1) 
1
337
61
176
51
46
300
145
128
159
231
285
327
90
275
296
110
280
130
228
301
167
104
303
138
143
113
281
188
247
168
84
206
245
101
96
295
238
241
18
181
293
131
99
158
152
316
49
43
262
91
320
297
283
16
55
56
93
239
312
28
17
221
81
336
321
121
117
199
119
70
32
141
310
248
282
194
313
124
100
174
172
330
154
102
294
214
307
103
177
195
287
25
140
193
79
150
308
47
198
54
179
226
31
236
324
246
75
200
86
284
170
277
256
34
107
58
187
116
331
322
183
267
223
311
265
10
157
14
155
83
319
302
166
133
227
39
88
264
53
67
142
52
299
204
169
97
89
115
252
318
224
156
180
105
192
147
261
85
289
13
219
249
171
212
9
94
196
173
189
333
114
120
76
213
22
197
232
36
185
203
72
288
122
30
201
136
304
220
279
78
71
332
59
314
95
65
74
270
66
80
41
7
251
272
178
215
323
37
335
244
63
5
242
210
151
23
305
286
165
111
269
112
290
149
21
161
274
216
218
68
175
255
163
144
217
276
64
225
222
73
98
33
19
8
2
160
259
127
15
237
260
273
182
38
129
35
229
208
263
209
230
271
48
234
126
45
125
328
325
298
57
62
69
235
108
135
326
29
148
132
207
24
309
186
123
278
137
87
266
109
12
106
40
190
44
329
257
4
60
334
184
268
77
211
205
202
306
50
27
6
258
139
240
82
11
191
292
146
42
20
153
338
317
250
162
243
164
315
3
253
26
254
118
291
233
92
134

>  <PUBCHEM_MMFF94_PARTIAL_CHARGES>  (1) 
38
1 -0.45
10 -0.43
11 -0.57
12 -0.39
13 -0.65
14 -0.51
15 -0.57
16 -0.88
17 0.44
18 0.28
19 0.58
2 -0.08
20 0.12
21 -0.28
22 0.37
23 0.42
24 0.71
25 0.63
26 0.54
27 0.56
28 0.28
29 0.14
3 -0.57
31 -0.11
32 0.46
33 0.87
34 0.28
35 0.28
4 -0.43
42 0.37
5 -0.56
52 0.15
57 0.4
58 0.4
6 -0.57
7 -0.57
8 -0.43
9 -0.22

>  <PUBCHEM_EFFECTIVE_ROTOR_COUNT>  (1) 
14.6

>  <PUBCHEM_PHARMACOPHORE_FEATURES>  (1) 
12
1 13 donor
1 14 acceptor
1 16 donor
1 3 acceptor
1 5 acceptor
1 6 acceptor
1 7 acceptor
3 15 16 32 cation
3 34 36 37 hydrophobe
4 12 17 18 19 rings
5 2 15 29 31 32 rings
6 1 12 17 20 21 22 rings

>  <PUBCHEM_HEAVY_ATOM_COUNT>  (1) 
37

>  <PUBCHEM_ATOM_DEF_STEREO_COUNT>  (1) 
0

>  <PUBCHEM_ATOM_UDEF_STEREO_COUNT>  (1) 
3

>  <PUBCHEM_BOND_DEF_STEREO_COUNT>  (1) 
0

>  <PUBCHEM_BOND_UDEF_STEREO_COUNT>  (1) 
1

>  <PUBCHEM_ISOTOPIC_ATOM_COUNT>  (1) 
0

>  <PUBCHEM_COMPONENT_COUNT>  (1) 
1

>  <PUBCHEM_CACTVS_TAUTO_COUNT>  (1) 
4

>  <PUBCHEM_CONFORMER_ID>  (1) 
00000A5500000001

>  <PUBCHEM_MMFF94_ENERGY>  (1) 
85.3016

>  <PUBCHEM_FEATURE_SELFOVERLAP>  (1) 
61.159

>  <PUBCHEM_SHAPE_FINGERPRINT>  (1) 
10290309 65 18121224181720343556
10462674 296 16975615933568259158
11513181 2 18412259558575109406
11552529 35 18193551405230113860
12218070 45 18120059954421540074
12422481 6 18187650142130883065
14705955 166 17416990433214719545
15001296 14 17612583836659264150
150020 26 17619607113358037546
15064986 96 17688015423892644737
15297060 5 18343311348906948880
15484559 13 15225335855631670748
15537594 2 17821451257333521120
16728300 4 18041264548570122699
20764821 26 18336540521980834542
21033648 29 16773788182765882248
21703447 108 16107537290933420567
23516275 137 17974598839237306090
3882209 13 16975869893992674967
463206 1 17684931693002891218
9896288 288 18341628039739281467

>  <PUBCHEM_SHAPE_MULTIPOLES>  (1) 
691.41
13.06
7.84
2.24
8.63
13.99
-1.82
-9.43
-5.83
-3.36
1.43
1.25
-0.78
-3.09

>  <PUBCHEM_SHAPE_SELFOVERLAP>  (1) 
1412.93

>  <PUBCHEM_SHAPE_VOLUME>  (1) 
404

>  <PUBCHEM_COORDINATE_TYPE>  (1) 
2
5
10

$$$$
