26455
     RDKit          3D

 20 21  0  0  1  0  0  0  0  0999 V2000
   -1.3390   -0.1201    0.7346 O   0  0  0  0  0  0  0  0  0  0  0  0
   -0.8677   -2.8014    1.3640 O   0  0  0  0  0  0  0  0  0  0  0  0
   -3.2102   -0.6771   -1.3849 O   0  0  0  0  0  0  0  0  0  0  0  0
    6.1294    1.4916   -0.7856 O   0  0  0  0  0  0  0  0  0  0  0  0
    1.9598   -0.8577   -0.0488 N   0  0  0  0  0  0  0  0  0  0  0  0
   -0.1699   -2.1537    0.2883 C   0  0  0  0  0  0  0  0  0  0  0  0
   -1.0851   -1.0867   -0.2941 C   0  0  0  0  0  0  0  0  0  0  0  0
    1.1134   -1.5601    0.9079 C   0  0  0  0  0  0  0  0  0  0  0  0
   -2.4012   -1.6860   -0.7721 C   0  0  0  0  0  0  0  0  0  0  0  0
    0.1568   -3.2261   -0.7601 C   0  0  0  0  0  0  0  0  0  0  0  0
    3.1778   -0.3781    0.5892 C   0  0  0  0  0  0  0  0  0  0  0  0
   -2.3590    0.7317    0.4017 C   0  0  0  0  0  0  0  0  0  0  0  0
   -3.2591    0.4669   -0.6327 C   0  0  0  0  0  0  0  0  0  0  0  0
    4.0568    0.3464   -0.4252 C   0  0  0  0  0  0  0  0  0  0  0  0
   -2.4824    1.9002    1.1537 C   0  0  0  0  0  0  0  0  0  0  0  0
   -4.2566    1.3911   -0.9445 C   0  0  0  0  0  0  0  0  0  0  0  0
    5.3500    0.8411    0.2085 C   0  0  0  0  0  0  0  0  0  0  0  0
   -3.4887    2.8176    0.8502 C   0  0  0  0  0  0  0  0  0  0  0  0
   -4.3711    2.5659   -0.2010 C   0  0  0  0  0  0  0  0  0  0  0  0
    7.3458    1.9944   -0.2492 C   0  0  0  0  0  0  0  0  0  0  0  0
  1  7  1  0
  1 12  1  0
  2  6  1  0
  3  9  1  0
  3 13  1  0
  4 17  1  0
  4 20  1  0
  5  8  1  0
  5 11  1  0
  6  7  1  0
  6  8  1  0
  6 10  1  0
  7  9  1  0
 11 14  1  0
 12 13  2  0
 12 15  1  0
 13 16  1  0
 14 17  1  0
 15 18  2  0
 16 19  2  0
 18 19  1  0
M  END
>  <PUBCHEM_COMPOUND_CID>  (1) 
26455

>  <PUBCHEM_CONFORMER_RMSD>  (1) 
0.8

>  <PUBCHEM_CONFORMER_DIVERSEORDER>  (1) 
16
147
320
144
229
62
143
283
166
360
137
221
271
324
342
310
18
76
196
1
31
36
230
371
41
180
331
250
372
319
340
6
289
186
253
314
354
317
290
54
252
261
296
45
64
67
190
334
177
42
136
50
329
258
369
152
220
21
17
117
129
273
165
306
183
375
242
278
365
119
195
104
298
11
326
267
111
14
96
120
255
279
211
257
192
232
142
219
364
30
140
118
2
335
135
299
176
361
169
154
311
305
209
153
200
333
366
307
34
363
193
115
92
362
277
355
308
23
27
28
348
215
139
265
358
40
29
75
379
327
240
266
262
173
93
155
208
336
236
37
343
304
52
280
197
233
114
367
370
161
151
309
4
222
269
178
72
373
312
225
292
239
194
122
318
357
302
322
344
7
204
377
134
181
109
268
160
216
57
227
121
207
249
274
141
88
341
13
368
187
48
313
60
353
150
349
281
55
285
69
347
10
199
237
59
350
323
251
112
73
74
316
378
203
81
145
164
148
260
337
47
101
352
162
303
168
179
293
325
201
9
167
35
158
217
275
51
359
108
376
321
263
20
189
125
103
238
287
284
272
288
244
78
65
294
234
174
226
106
124
297
332
43
61
116
97
295
58
110
100
328
128
300
202
241
206
282
149
198
132
246
146
228
351
86
99
98
182
159
210
79
63
259
12
231
191
223
127
133
315
374
68
170
218
184
276
264
26
270
224
39
157
254
205
89
156
32
235
126
15
25
163
171
346
107
301
83
338
339
53
44
91
24
130
90
185
247
84
256
102
286
214
213
85
77
356
3
105
131
175
71
248
70
82
94
345
138
113
46
330
56
22
19
291
123
243
245
188
49
38
212
8
172
66
95
87
5
33
80

>  <PUBCHEM_MMFF94_PARTIAL_CHARGES>  (1) 
24
1 -0.36
11 0.27
12 0.08
13 0.08
15 -0.15
16 -0.15
17 0.28
18 -0.15
19 -0.15
2 -0.68
20 0.28
29 0.36
3 -0.36
32 0.4
35 0.15
36 0.15
39 0.15
4 -0.56
40 0.15
5 -0.9
6 0.28
7 0.28
8 0.27
9 0.28

>  <PUBCHEM_EFFECTIVE_ROTOR_COUNT>  (1) 
7.8

>  <PUBCHEM_PHARMACOPHORE_FEATURES>  (1) 
9
1 1 acceptor
1 2 acceptor
1 2 donor
1 3 acceptor
1 4 acceptor
1 5 cation
1 5 donor
6 1 3 7 9 12 13 rings
6 12 13 15 16 18 19 rings

>  <PUBCHEM_HEAVY_ATOM_COUNT>  (1) 
20

>  <PUBCHEM_ATOM_DEF_STEREO_COUNT>  (1) 
0

>  <PUBCHEM_ATOM_UDEF_STEREO_COUNT>  (1) 
2

>  <PUBCHEM_BOND_DEF_STEREO_COUNT>  (1) 
0

>  <PUBCHEM_BOND_UDEF_STEREO_COUNT>  (1) 
0

>  <PUBCHEM_ISOTOPIC_ATOM_COUNT>  (1) 
0

>  <PUBCHEM_COMPONENT_COUNT>  (1) 
1

>  <PUBCHEM_CACTVS_TAUTO_COUNT>  (1) 
1

>  <PUBCHEM_CONFORMER_ID>  (1) 
0000675700000010

>  <PUBCHEM_MMFF94_ENERGY>  (1) 
52.977

>  <PUBCHEM_FEATURE_SELFOVERLAP>  (1) 
45.717

>  <PUBCHEM_SHAPE_FINGERPRINT>  (1) 
10291535 26 18340209703924836488
10411042 1 17690279734567001351
10871710 139 18412822469657053157
11046707 91 9367349236564464554
12107183 9 18262226704919321530
12390115 104 18410867550593001418
13103583 49 11530762557345456566
14142880 1 18259983803380951015
14251764 75 17984151352841135737
14257110 125 18409449163540148512
14739800 52 18197192928514054568
14767858 380 18270098185744725293
14931854 50 18202274771598213029
14950920 106 13984670273738636588
15163728 17 18271534108685421278
15183329 4 18342181034448841966
15342168 16 18193835947262055101
167882 2 18271530784972117078
17834072 32 18409451371348543440
1813 80 11095582477727234571
20058555 10 17977948209802967836
21033648 29 15864629453596901559
21401589 2 18335712627899218729
2255824 54 17764303943143690835
23559900 14 17486197925272701254
270888 7 18335981969720463812
283562 15 18261954167163496259
2838139 119 18336263432191716900
3472631 163 18341894052222057125
351380 3 10663818585721758436
394222 165 18120085083684650515
441001 317 18338799026549139832
474 4 18191020106277908275
484985 159 10087652455015547881
5104073 3 17676480692825028394
531348 171 18060142046659317814
6299153 45 18263073341762515346
6327066 14 18408319965098695764
633830 44 18265329512766834718
7288768 16 18113623365152928187
76465 3 9367333843111401914
7808743 9 18409728465416355904
9981440 41 18411134744999418226

>  <PUBCHEM_SHAPE_MULTIPOLES>  (1) 
383.13
12.85
3.56
1.12
27.92
0.95
-0.07
-15.11
3.15
-1.54
-0.29
-0.6
0.14
-1.11

>  <PUBCHEM_SHAPE_SELFOVERLAP>  (1) 
785.462

>  <PUBCHEM_SHAPE_VOLUME>  (1) 
220.3

>  <PUBCHEM_COORDINATE_TYPE>  (1) 
2
5
10

$$$$
