26472
     RDKit          3D

 34 37  0  0  0  0  0  0  0  0999 V2000
    5.6223   -0.9506    1.4319 O   0  0  0  0  0  0  0  0  0  0  0  0
    5.2914    1.0679    2.5056 O   0  0  0  0  0  0  0  0  0  0  0  0
   -2.8738    1.3648   -1.2038 O   0  0  0  0  0  0  0  0  0  0  0  0
    0.9998    0.9420    0.4289 N   0  0  0  0  0  0  0  0  0  0  0  0
    3.9408    0.4616    0.5892 C   0  0  0  0  0  0  0  0  0  0  0  0
    3.2593    1.8269    0.8732 C   0  0  0  0  0  0  0  0  0  0  0  0
    2.8693   -0.6292    0.8573 C   0  0  0  0  0  0  0  0  0  0  0  0
    1.9534    2.0049    0.0933 C   0  0  0  0  0  0  0  0  0  0  0  0
    1.5490   -0.3818    0.1155 C   0  0  0  0  0  0  0  0  0  0  0  0
    4.6157    0.4189   -0.7897 C   0  0  0  0  0  0  0  0  0  0  0  0
   -0.2694    1.1505   -0.2672 C   0  0  0  0  0  0  0  0  0  0  0  0
    5.0206    0.2567    1.6306 C   0  0  0  0  0  0  0  0  0  0  0  0
   -1.4094    0.4856    0.4980 C   0  0  0  0  0  0  0  0  0  0  0  0
    4.2333   -0.5437   -1.7241 C   0  0  0  0  0  0  0  0  0  0  0  0
    5.6117    1.3424   -1.1075 C   0  0  0  0  0  0  0  0  0  0  0  0
   -2.7623    0.6972   -0.1754 C   0  0  0  0  0  0  0  0  0  0  0  0
   -3.9658    0.0368    0.5078 C   0  0  0  0  0  0  0  0  0  0  0  0
    4.8467   -0.5823   -2.9763 C   0  0  0  0  0  0  0  0  0  0  0  0
    6.2249    1.3037   -2.3598 C   0  0  0  0  0  0  0  0  0  0  0  0
    5.8425    0.3413   -3.2941 C   0  0  0  0  0  0  0  0  0  0  0  0
    6.6696   -1.2745    2.3519 C   0  0  0  0  0  0  0  0  0  0  0  0
   -4.1658   -1.4155    0.0989 C   0  0  0  0  0  0  0  0  0  0  0  0
   -5.2369    0.8679    0.3881 C   0  0  0  0  0  0  0  0  0  0  0  0
    7.2316   -2.6353    2.0001 C   0  0  0  0  0  0  0  0  0  0  0  0
   -4.7370   -2.3199    0.9943 C   0  0  0  0  0  0  0  0  0  0  0  0
   -6.0928    0.6812   -0.6975 C   0  0  0  0  0  0  0  0  0  0  0  0
   -3.7785   -1.8422   -1.1715 C   0  0  0  0  0  0  0  0  0  0  0  0
   -5.5447    1.8160    1.3638 C   0  0  0  0  0  0  0  0  0  0  0  0
   -4.9206   -3.6509    0.6194 C   0  0  0  0  0  0  0  0  0  0  0  0
   -7.2564    1.4425   -0.8071 C   0  0  0  0  0  0  0  0  0  0  0  0
   -3.9622   -3.1732   -1.5462 C   0  0  0  0  0  0  0  0  0  0  0  0
   -6.7085    2.5772    1.2542 C   0  0  0  0  0  0  0  0  0  0  0  0
   -4.5333   -4.0774   -0.6507 C   0  0  0  0  0  0  0  0  0  0  0  0
   -7.5642    2.3906    0.1688 C   0  0  0  0  0  0  0  0  0  0  0  0
  1 12  1  0
  1 21  1  0
  2 12  2  0
  3 16  2  0
  4  8  1  0
  4  9  1  0
  4 11  1  0
  5  6  1  0
  5  7  1  0
  5 10  1  0
  5 12  1  0
  6  8  1  0
  7  9  1  0
 10 14  2  0
 10 15  1  0
 11 13  1  0
 13 16  1  0
 14 18  1  0
 15 19  2  0
 16 17  1  0
 17 22  1  0
 17 23  1  0
 18 20  2  0
 19 20  1  0
 21 24  1  0
 22 25  2  0
 22 27  1  0
 23 26  2  0
 23 28  1  0
 25 29  1  0
 26 30  1  0
 27 31  2  0
 28 32  2  0
 29 33  2  0
 30 34  2  0
 31 33  1  0
 32 34  1  0
M  END
>  <PUBCHEM_COMPOUND_CID>  (1) 
26472

>  <PUBCHEM_CONFORMER_RMSD>  (1) 
1.2

>  <PUBCHEM_CONFORMER_DIVERSEORDER>  (1) 
1
93
67
74
41
37
124
102
100
45
34
78
114
38
118
54
76
109
71
39
84
95
70
43
92
103
55
99
104
60
42
10
108
28
75
32
121
35
52
63
24
36
115
79
101
61
11
77
47
117
72
4
30
90
122
119
97
68
56
98
86
13
17
107
16
2
9
82
123
110
120
48
8
88
80
89
69
53
106
51
105
65
21
22
49
31
113
111
112
46
44
14
26
33
96
23
81
58
91
5
85
12
73
83
3
57
29
40
59
87
27
19
62
6
94
7
116
18
64
15
20
50
66
25

>  <PUBCHEM_MMFF94_PARTIAL_CHARGES>  (1) 
46
1 -0.43
10 -0.14
11 0.27
12 0.66
13 0.06
14 -0.15
15 -0.15
16 0.45
17 0.35
18 -0.15
19 -0.15
2 -0.57
20 -0.15
21 0.28
22 -0.14
23 -0.14
25 -0.15
26 -0.15
27 -0.15
28 -0.15
29 -0.15
3 -0.57
30 -0.15
31 -0.15
32 -0.15
33 -0.15
34 -0.15
4 -0.81
47 0.15
48 0.15
5 0.2
50 0.15
51 0.15
52 0.15
58 0.15
59 0.15
60 0.15
61 0.15
62 0.15
63 0.15
64 0.15
65 0.15
66 0.15
67 0.15
8 0.27
9 0.27

>  <PUBCHEM_EFFECTIVE_ROTOR_COUNT>  (1) 
11.2

>  <PUBCHEM_PHARMACOPHORE_FEATURES>  (1) 
7
1 2 acceptor
1 3 acceptor
1 4 cation
6 10 14 15 18 19 20 rings
6 22 25 27 29 31 33 rings
6 23 26 28 30 32 34 rings
6 4 5 6 7 8 9 rings

>  <PUBCHEM_HEAVY_ATOM_COUNT>  (1) 
34

>  <PUBCHEM_ATOM_DEF_STEREO_COUNT>  (1) 
0

>  <PUBCHEM_ATOM_UDEF_STEREO_COUNT>  (1) 
0

>  <PUBCHEM_BOND_DEF_STEREO_COUNT>  (1) 
0

>  <PUBCHEM_BOND_UDEF_STEREO_COUNT>  (1) 
0

>  <PUBCHEM_ISOTOPIC_ATOM_COUNT>  (1) 
0

>  <PUBCHEM_COMPONENT_COUNT>  (1) 
1

>  <PUBCHEM_CACTVS_TAUTO_COUNT>  (1) 
3

>  <PUBCHEM_CONFORMER_ID>  (1) 
0000676800000001

>  <PUBCHEM_MMFF94_ENERGY>  (1) 
88.6204

>  <PUBCHEM_FEATURE_SELFOVERLAP>  (1) 
35.523

>  <PUBCHEM_SHAPE_FINGERPRINT>  (1) 
10169797 241 18126852831425337098
10554248 39 17167858686383707258
10864689 126 17988373559106152182
11331351 85 17895750699888354348
11796584 16 18272651263806441705
12616971 3 17458059365443551771
12643181 29 18343028769812471767
13008946 335 18127716867977892409
14118638 360 18120655992106839237
15082195 135 16879635010449334822
15131766 46 15938127554354917549
15183329 4 18411705361595861457
15361156 5 17968103044556960617
15684393 108 17459196342525316123
1577012 14 17967534597113692886
15799311 1 18186525418470189818
19303781 99 17024011680661624850
2303208 19 17560813168329807278
23081809 10 17894630387200654706
23522609 53 17969525790765022029
23559900 14 18060709402616136013
24771293 8 17897168129559847420
25269216 80 18190194553581917615
3383291 50 18201437009227681391
3610482 184 17822021921031764775
4073 2 18201437012366912833
4144715 1 18129949008893222849
44317340 157 16877948234947745852
5104073 3 18270392905562229041
613672 6 17418089927504338016
6698420 124 17345771702957406619

>  <PUBCHEM_SHAPE_MULTIPOLES>  (1) 
677.12
23.98
3.54
2.49
0.68
3.67
-0.99
-2.16
1.59
7.26
0.32
-6.94
0.39
-3.38

>  <PUBCHEM_SHAPE_SELFOVERLAP>  (1) 
1447.034

>  <PUBCHEM_SHAPE_VOLUME>  (1) 
372.1

>  <PUBCHEM_COORDINATE_TYPE>  (1) 
2
5
10

$$$$
