26479
     RDKit          3D

 15 15  0  0  0  0  0  0  0  0999 V2000
    1.8850    0.2485   -0.9623 O   0  0  0  0  0  0  0  0  0  0  0  0
    2.4411   -0.2070    1.2489 O   0  0  0  0  0  0  0  0  0  0  0  0
   -2.5866   -1.2758   -0.0664 N   0  0  0  0  0  0  0  0  0  0  0  0
    4.0285   -0.3759   -0.4344 N   0  0  0  0  0  0  0  0  0  0  0  0
   -1.6391   -0.2292   -0.1028 C   0  0  0  0  0  0  0  0  0  0  0  0
   -1.9936    1.0676    0.2691 C   0  0  0  0  0  0  0  0  0  0  0  0
   -0.3358   -0.5045   -0.5167 C   0  0  0  0  0  0  0  0  0  0  0  0
   -1.0446    2.0890    0.2270 C   0  0  0  0  0  0  0  0  0  0  0  0
    0.6130    0.5170   -0.5589 C   0  0  0  0  0  0  0  0  0  0  0  0
    0.2587    1.8137   -0.1869 C   0  0  0  0  0  0  0  0  0  0  0  0
   -3.3821    1.3910    0.7163 C   0  0  0  0  0  0  0  0  0  0  0  0
   -2.3643   -2.4357    0.7720 C   0  0  0  0  0  0  0  0  0  0  0  0
   -3.7980   -1.1943   -0.8564 C   0  0  0  0  0  0  0  0  0  0  0  0
    2.7687   -0.1249    0.0687 C   0  0  0  0  0  0  0  0  0  0  0  0
    5.1490   -0.7796    0.3828 C   0  0  0  0  0  0  0  0  0  0  0  0
  1  9  1  0
  1 14  1  0
  2 14  2  0
  3  5  1  0
  3 12  1  0
  3 13  1  0
  4 14  1  0
  4 15  1  0
  5  6  2  0
  5  7  1  0
  6  8  1  0
  6 11  1  0
  7  9  2  0
  8 10  2  0
  9 10  1  0
M  END
>  <PUBCHEM_COMPOUND_CID>  (1) 
26479

>  <PUBCHEM_CONFORMER_RMSD>  (1) 
0.6

>  <PUBCHEM_CONFORMER_DIVERSEORDER>  (1) 
1
16
31
8
11
33
23
30
21
9
5
24
28
27
10
18
20
22
14
26
12
6
15
32
29
19
25
4
7
17
13
3
2

>  <PUBCHEM_MMFF94_PARTIAL_CHARGES>  (1) 
19
1 -0.23
10 -0.15
11 0.14
12 0.37
13 0.37
14 0.78
15 0.3
16 0.15
17 0.15
18 0.15
2 -0.57
28 0.37
3 -0.84
4 -0.73
5 0.1
6 -0.14
7 -0.15
8 -0.15
9 0.08

>  <PUBCHEM_EFFECTIVE_ROTOR_COUNT>  (1) 
4

>  <PUBCHEM_PHARMACOPHORE_FEATURES>  (1) 
4
1 2 acceptor
1 3 cation
1 4 donor
6 5 6 7 8 9 10 rings

>  <PUBCHEM_HEAVY_ATOM_COUNT>  (1) 
15

>  <PUBCHEM_ATOM_DEF_STEREO_COUNT>  (1) 
0

>  <PUBCHEM_ATOM_UDEF_STEREO_COUNT>  (1) 
0

>  <PUBCHEM_BOND_DEF_STEREO_COUNT>  (1) 
0

>  <PUBCHEM_BOND_UDEF_STEREO_COUNT>  (1) 
0

>  <PUBCHEM_ISOTOPIC_ATOM_COUNT>  (1) 
0

>  <PUBCHEM_COMPONENT_COUNT>  (1) 
1

>  <PUBCHEM_CACTVS_TAUTO_COUNT>  (1) 
2

>  <PUBCHEM_CONFORMER_ID>  (1) 
0000676F00000001

>  <PUBCHEM_MMFF94_ENERGY>  (1) 
59.988

>  <PUBCHEM_FEATURE_SELFOVERLAP>  (1) 
20.297

>  <PUBCHEM_SHAPE_FINGERPRINT>  (1) 
10130415 120 18337955713788632191
11046707 91 18334574642334271054
11132069 177 18342743966157049900
12251169 10 18340211795205092464
12500047 106 18267017267462860704
13140716 1 18341905125032835473
13214271 11 17989482996324006588
14115302 16 17968096481788845399
15375462 189 17967534549705600640
15653759 3 17988640783602387544
16945 1 18340497659923274733
17804303 29 18343867710085255440
18175812 5 17775000180825306420
18186145 218 11458419150614490750
19422 9 18334019406316011470
200 152 16732979804494880292
20871998 184 18131071523732229189
21501502 16 18269564986550312293
21501925 9 18270395113133058005
21650355 55 18411417297790970856
232386 152 18410020956693972109
23366157 5 18043534021847449492
23402539 116 18343294843537677133
23419403 2 17770744044729893897
23559900 14 18411412917551900944
2748010 2 18271247256573341997
5104073 3 18342174471343272848
5493415 88 18193277609786959427
75552 356 18411139125559298913
81228 2 18270133331029909289
9709674 26 18341901749241366270

>  <PUBCHEM_SHAPE_MULTIPOLES>  (1) 
286.99
7.61
2.08
0.93
8.74
0.07
-0.05
3.12
-0.63
-2.16
-0.37
-0.05
0.12
-0.44

>  <PUBCHEM_SHAPE_SELFOVERLAP>  (1) 
585.175

>  <PUBCHEM_SHAPE_VOLUME>  (1) 
166.9

>  <PUBCHEM_COORDINATE_TYPE>  (1) 
2
5
10

$$$$
