26474
     RDKit          3D

 14 14  0  0  0  0  0  0  0  0999 V2000
    3.7830    0.2035   -0.9566 O   0  0  0  0  0  0  0  0  0  0  0  0
   -0.1429   -1.3997    0.0250 C   0  0  0  0  0  0  0  0  0  0  0  0
    1.2350   -0.8312   -0.4390 C   0  0  0  0  0  0  0  0  0  0  0  0
   -1.2376   -0.3181   -0.0179 C   0  0  0  0  0  0  0  0  0  0  0  0
    0.0328   -2.0569    1.4152 C   0  0  0  0  0  0  0  0  0  0  0  0
   -0.5447   -2.5375   -0.9469 C   0  0  0  0  0  0  0  0  0  0  0  0
    1.8134    0.2776    0.4483 C   0  0  0  0  0  0  0  0  0  0  0  0
   -1.9289   -0.0477    1.1354 C   0  0  0  0  0  0  0  0  0  0  0  0
   -1.4701    0.3240   -1.2072 C   0  0  0  0  0  0  0  0  0  0  0  0
    3.1979    0.7143   -0.0029 C   0  0  0  0  0  0  0  0  0  0  0  0
   -2.9207    0.9322    1.0966 C   0  0  0  0  0  0  0  0  0  0  0  0
   -2.4619    1.3039   -1.2460 C   0  0  0  0  0  0  0  0  0  0  0  0
   -3.1874    1.6081   -0.0941 C   0  0  0  0  0  0  0  0  0  0  0  0
    3.8321    1.8276    0.7901 C   0  0  0  0  0  0  0  0  0  0  0  0
  1 10  2  0
  2  3  1  0
  2  4  1  0
  2  5  1  0
  2  6  1  0
  3  7  1  0
  4  8  2  0
  4  9  1  0
  7 10  1  0
  8 11  1  0
  9 12  2  0
 10 14  1  0
 11 13  2  0
 12 13  1  0
M  END
>  <PUBCHEM_COMPOUND_CID>  (1) 
26474

>  <PUBCHEM_CONFORMER_RMSD>  (1) 
0.6

>  <PUBCHEM_CONFORMER_DIVERSEORDER>  (1) 
1
26
29
13
24
11
19
27
31
14
25
18
17
12
22
30
28
16
23
20
6
21
4
15
7
5
9
10
2
3
8

>  <PUBCHEM_MMFF94_PARTIAL_CHARGES>  (1) 
16
1 -0.57
10 0.45
11 -0.15
12 -0.15
13 -0.15
14 0.06
2 0.14
25 0.15
26 0.15
27 0.15
28 0.15
29 0.15
4 -0.14
7 0.06
8 -0.15
9 -0.15

>  <PUBCHEM_EFFECTIVE_ROTOR_COUNT>  (1) 
4

>  <PUBCHEM_PHARMACOPHORE_FEATURES>  (1) 
3
1 1 acceptor
3 2 5 6 hydrophobe
6 4 8 9 11 12 13 rings

>  <PUBCHEM_HEAVY_ATOM_COUNT>  (1) 
14

>  <PUBCHEM_ATOM_DEF_STEREO_COUNT>  (1) 
0

>  <PUBCHEM_ATOM_UDEF_STEREO_COUNT>  (1) 
0

>  <PUBCHEM_BOND_DEF_STEREO_COUNT>  (1) 
0

>  <PUBCHEM_BOND_UDEF_STEREO_COUNT>  (1) 
0

>  <PUBCHEM_ISOTOPIC_ATOM_COUNT>  (1) 
0

>  <PUBCHEM_COMPONENT_COUNT>  (1) 
1

>  <PUBCHEM_CACTVS_TAUTO_COUNT>  (1) 
3

>  <PUBCHEM_CONFORMER_ID>  (1) 
0000676A00000001

>  <PUBCHEM_MMFF94_ENERGY>  (1) 
41.0065

>  <PUBCHEM_FEATURE_SELFOVERLAP>  (1) 
15.223

>  <PUBCHEM_SHAPE_FINGERPRINT>  (1) 
10465860 71 13183018527379819496
10922049 32 18340497698277137507
11127187 94 12607404394819491305
12173636 292 18131356340262216805
122479 349 18408889572319666104
13024252 1 16588853715465265355
15309172 13 18335421253080990341
15534591 1 17346330262700045849
15775835 57 18408601444116685044
16945 1 18126549335697800519
1741750 31 18271519883874737690
18186145 218 18202005404397429964
19786989 88 18195804077360029399
20281407 28 10665224852324030808
20361792 2 9007050283847842225
20645477 56 18200035182750395024
20653085 51 18060705000258411010
20671657 1 18267578022904369050
20671657 53 12679457573736222402
20871999 31 12751241380783605633
21296965 12 18334293149966668863
21486144 27 18342744043899029972
21524375 3 18408882914846115578
22079108 93 18130795585548644329
22802520 49 13182151008753363099
23382010 3 17489010634971734594
23419403 2 17547910283155951499
23500284 214 18341053003499989096
25 1 18271814462622640408
27216 239 18262518229143655816
305870 269 18041554746086990458
430814 3 18272368629352221039
5706482 22 18113886195697751186
81228 2 17974850880286412090
90316 7 15068624842599404733

>  <PUBCHEM_SHAPE_MULTIPOLES>  (1) 
282.24
5.89
2.26
1.34
4.83
1.05
-0.07
-4.96
-0.13
-0.09
-0.04
-0.49
0.14
0.38

>  <PUBCHEM_SHAPE_SELFOVERLAP>  (1) 
571.737

>  <PUBCHEM_SHAPE_VOLUME>  (1) 
165.8

>  <PUBCHEM_COORDINATE_TYPE>  (1) 
2
5
10

$$$$
