26488
     RDKit          3D

 29 33  0  0  1  0  0  0  0  0999 V2000
    1.7639   -1.1441    0.9149 O   0  0  0  0  0  0  0  0  0  0  0  0
    1.3189   -2.6458   -1.3347 O   0  0  0  0  0  0  0  0  0  0  0  0
   -7.1386   -0.3890    0.2136 O   0  0  0  0  0  0  0  0  0  0  0  0
   -3.6306    2.0934    1.5561 O   0  0  0  0  0  0  0  0  0  0  0  0
    6.0273    1.0153    0.7444 O   0  0  0  0  0  0  0  0  0  0  0  0
    6.4921   -1.1065    1.5046 O   0  0  0  0  0  0  0  0  0  0  0  0
    0.9645   -0.5278   -0.1049 C   0  0  0  0  0  0  0  0  0  0  0  0
    1.5270    0.9019   -0.3608 C   0  0  0  0  0  0  0  0  0  0  0  0
   -0.5196   -0.5292    0.3677 C   0  0  0  0  0  0  0  0  0  0  0  0
   -1.4555    0.3423   -0.5223 C   0  0  0  0  0  0  0  0  0  0  0  0
   -2.9287    0.3613    0.0178 C   0  0  0  0  0  0  0  0  0  0  0  0
    2.8443    0.6296   -1.1632 C   0  0  0  0  0  0  0  0  0  0  0  0
    0.5605    1.7140   -1.2618 C   0  0  0  0  0  0  0  0  0  0  0  0
   -0.8706    1.7512   -0.7355 C   0  0  0  0  0  0  0  0  0  0  0  0
    1.2428   -1.2340   -1.4495 C   0  0  0  0  0  0  0  0  0  0  0  0
   -3.4381   -1.0989    0.1660 C   0  0  0  0  0  0  0  0  0  0  0  0
   -1.0926   -1.9543    0.5146 C   0  0  0  0  0  0  0  0  0  0  0  0
    2.5658   -0.6561   -1.9705 C   0  0  0  0  0  0  0  0  0  0  0  0
   -2.5249   -1.9625    1.0400 C   0  0  0  0  0  0  0  0  0  0  0  0
   -3.8839    1.1218   -0.9391 C   0  0  0  0  0  0  0  0  0  0  0  0
    1.7788    1.6962    0.9388 C   0  0  0  0  0  0  0  0  0  0  0  0
   -4.8943   -1.1648    0.6436 C   0  0  0  0  0  0  0  0  0  0  0  0
   -5.3537    1.0311   -0.5172 C   0  0  0  0  0  0  0  0  0  0  0  0
    4.0916    0.4595   -0.3443 C   0  0  0  0  0  0  0  0  0  0  0  0
   -5.8151   -0.4068   -0.3107 C   0  0  0  0  0  0  0  0  0  0  0  0
   -2.9544    1.0915    1.3479 C   0  0  0  0  0  0  0  0  0  0  0  0
    4.9813    1.5986   -0.0398 C   0  0  0  0  0  0  0  0  0  0  0  0
    4.5516   -0.6672    0.1930 C   0  0  0  0  0  0  0  0  0  0  0  0
    5.7904   -0.3208    0.8912 C   0  0  0  0  0  0  0  0  0  0  0  0
  1  7  1  0
  2 15  1  0
  3 25  1  0
  4 26  2  0
  5 27  1  0
  5 29  1  0
  6 29  2  0
  7  8  1  0
  7  9  1  0
  7 15  1  0
  8 12  1  0
  8 13  1  0
  8 21  1  0
  9 10  1  0
  9 17  1  0
 10 11  1  0
 10 14  1  0
 11 16  1  0
 11 20  1  0
 11 26  1  0
 12 18  1  0
 12 24  1  0
 13 14  1  0
 15 18  1  0
 16 19  1  0
 16 22  1  0
 17 19  1  0
 20 23  1  0
 22 25  1  0
 23 25  1  0
 24 27  1  0
 24 28  2  0
 28 29  1  0
M  END
>  <PUBCHEM_COMPOUND_CID>  (1) 
26488

>  <PUBCHEM_CONFORMER_RMSD>  (1) 
0.8

>  <PUBCHEM_CONFORMER_DIVERSEORDER>  (1) 
4
3
14
10
12
9
13
1
8
7
5
11
2
6

>  <PUBCHEM_MMFF94_PARTIAL_CHARGES>  (1) 
21
1 -0.68
11 0.06
12 0.14
15 0.28
2 -0.68
24 -0.28
25 0.28
26 0.45
27 0.42
28 -0.14
29 0.71
3 -0.68
4 -0.57
5 -0.43
52 0.4
56 0.06
57 0.4
6 -0.57
60 0.15
61 0.4
7 0.28

>  <PUBCHEM_EFFECTIVE_ROTOR_COUNT>  (1) 
4.6

>  <PUBCHEM_PHARMACOPHORE_FEATURES>  (1) 
13
1 1 acceptor
1 1 donor
1 2 acceptor
1 2 donor
1 3 acceptor
1 3 donor
1 4 acceptor
1 6 acceptor
5 5 24 27 28 29 rings
5 7 8 12 15 18 rings
6 11 16 20 22 23 25 rings
6 7 8 9 10 13 14 rings
6 9 10 11 16 17 19 rings

>  <PUBCHEM_HEAVY_ATOM_COUNT>  (1) 
29

>  <PUBCHEM_ATOM_DEF_STEREO_COUNT>  (1) 
7

>  <PUBCHEM_ATOM_UDEF_STEREO_COUNT>  (1) 
2

>  <PUBCHEM_BOND_DEF_STEREO_COUNT>  (1) 
0

>  <PUBCHEM_BOND_UDEF_STEREO_COUNT>  (1) 
0

>  <PUBCHEM_ISOTOPIC_ATOM_COUNT>  (1) 
0

>  <PUBCHEM_COMPONENT_COUNT>  (1) 
1

>  <PUBCHEM_CACTVS_TAUTO_COUNT>  (1) 
1

>  <PUBCHEM_CONFORMER_ID>  (1) 
0000677800000004

>  <PUBCHEM_MMFF94_ENERGY>  (1) 
100.7712

>  <PUBCHEM_FEATURE_SELFOVERLAP>  (1) 
66.171

>  <PUBCHEM_SHAPE_FINGERPRINT>  (1) 
10 15 18060412552167871104
10366900 7 17846500348411595481
10675989 125 16674130381180150781
10906281 52 18264790855232367925
11315181 36 18411140259420466648
11646440 116 18411146848464768785
11719270 70 18342455932881621958
11796584 16 14779270825699227840
12035758 1 18272077336423111592
12107698 1 17418371411393054953
12166972 35 17822293517468189525
12236239 1 16732984253558772583
12422481 6 18261671463962268654
12633257 1 18408045096013645344
13140716 1 18263089975068786245
13224815 77 18342747299563108181
13402501 40 18410011048399644365
13533116 47 17822005403094037682
13914758 101 16660352667897523991
14251764 18 18335136514604283544
14466204 15 18202283580881754696
15238133 3 17531252746561261295
15537594 2 9367348111198857877
15788980 27 17385447617677236452
16728300 4 17826490207876644426
17349148 13 18409731789662897365
17980427 23 18201447981977793529
1813 80 15719388413687161334
19377110 9 17775289335398578467
200 152 18060702801762669837
20511986 3 18261660536980067723
21033648 29 18058717143739448816
21267235 1 17967536769860833483
21859007 373 17241875502641251279
22224240 67 17917703634789197574
23402539 116 18335977640313795247
23559900 14 18269549593656419217
23569917 315 18261116261782989619
23622692 88 13623529056665945315
3004659 81 17748831817501642974
335352 9 18113617906275823199
34797466 226 16845300470512438396
350125 39 18336548317113958721
3633792 109 18115014209456380063
3680242 22 18113907043432024048
392239 28 18060143184250241897
404807 14 17328299148226451282
4072396 5 18412262844129475878
4073 2 17313670481410208712
4325135 7 11600007665301445570
4340502 62 17275103929454301222
465052 167 18260548935610002212
5104073 3 17986966158468391691
58260988 393 16271938085877275667
59755656 215 18113618946059289754
59755656 520 17894905265894264379
6004065 56 18200868591242530077
70251023 43 15696620770533700198
9981440 41 18259991457482593603

>  <PUBCHEM_SHAPE_MULTIPOLES>  (1) 
561.59
13.99
2.1
1.41
0.36
0.25
0.16
0.06
-3.68
-0.27
-0.06
0.69
0.04
0.08

>  <PUBCHEM_SHAPE_SELFOVERLAP>  (1) 
1223.189

>  <PUBCHEM_SHAPE_VOLUME>  (1) 
301.9

>  <PUBCHEM_COORDINATE_TYPE>  (1) 
2
5
10

$$$$
