26482
     RDKit          3D

 15 16  0  0  1  0  0  0  0  0999 V2000
    1.5556   -2.8892   -0.1723 N   0  0  0  0  0  0  0  0  0  0  0  0
    0.6812   -1.7272   -0.3818 C   0  0  0  0  0  0  0  0  0  0  0  0
   -0.5394   -1.7833    0.5769 C   0  0  0  0  0  0  0  0  0  0  0  0
    1.4667   -0.4323   -0.2617 C   0  0  0  0  0  0  0  0  0  0  0  0
   -1.5312   -0.6913    0.3559 C   0  0  0  0  0  0  0  0  0  0  0  0
    1.1198    0.6382   -1.0626 C   0  0  0  0  0  0  0  0  0  0  0  0
    2.5063   -0.3611    0.6450 C   0  0  0  0  0  0  0  0  0  0  0  0
   -1.4054    0.5151    1.0447 C   0  0  0  0  0  0  0  0  0  0  0  0
   -2.5849   -0.8767   -0.5391 C   0  0  0  0  0  0  0  0  0  0  0  0
    1.8411    1.8271   -0.9523 C   0  0  0  0  0  0  0  0  0  0  0  0
    3.2275    0.8277    0.7553 C   0  0  0  0  0  0  0  0  0  0  0  0
   -2.3331    1.5362    0.8382 C   0  0  0  0  0  0  0  0  0  0  0  0
   -3.5125    0.1444   -0.7457 C   0  0  0  0  0  0  0  0  0  0  0  0
    2.8949    1.9218   -0.0433 C   0  0  0  0  0  0  0  0  0  0  0  0
   -3.3866    1.3509   -0.0571 C   0  0  0  0  0  0  0  0  0  0  0  0
  1  2  1  0
  2  3  1  0
  2  4  1  0
  3  5  1  0
  4  6  2  0
  4  7  1  0
  5  8  2  0
  5  9  1  0
  6 10  1  0
  7 11  2  0
  8 12  1  0
  9 13  2  0
 10 14  2  0
 11 14  1  0
 12 15  2  0
 13 15  1  0
M  END
>  <PUBCHEM_COMPOUND_CID>  (1) 
26482

>  <PUBCHEM_CONFORMER_RMSD>  (1) 
0.6

>  <PUBCHEM_CONFORMER_DIVERSEORDER>  (1) 
1
8
3
9
5
11
10
7
2
6
4
12

>  <PUBCHEM_MMFF94_PARTIAL_CHARGES>  (1) 
27
1 -0.99
10 -0.15
11 -0.15
12 -0.15
13 -0.15
14 -0.15
15 -0.15
19 0.36
2 0.41
20 0.36
21 0.15
22 0.15
23 0.15
24 0.15
25 0.15
26 0.15
27 0.15
28 0.15
29 0.15
3 0.14
30 0.15
4 -0.14
5 -0.14
6 -0.15
7 -0.15
8 -0.15
9 -0.15

>  <PUBCHEM_EFFECTIVE_ROTOR_COUNT>  (1) 
3

>  <PUBCHEM_PHARMACOPHORE_FEATURES>  (1) 
4
1 1 cation
1 1 donor
6 4 6 7 10 11 14 rings
6 5 8 9 12 13 15 rings

>  <PUBCHEM_HEAVY_ATOM_COUNT>  (1) 
15

>  <PUBCHEM_ATOM_DEF_STEREO_COUNT>  (1) 
0

>  <PUBCHEM_ATOM_UDEF_STEREO_COUNT>  (1) 
1

>  <PUBCHEM_BOND_DEF_STEREO_COUNT>  (1) 
0

>  <PUBCHEM_BOND_UDEF_STEREO_COUNT>  (1) 
0

>  <PUBCHEM_ISOTOPIC_ATOM_COUNT>  (1) 
0

>  <PUBCHEM_COMPONENT_COUNT>  (1) 
1

>  <PUBCHEM_CACTVS_TAUTO_COUNT>  (1) 
1

>  <PUBCHEM_CONFORMER_ID>  (1) 
0000677200000001

>  <PUBCHEM_MMFF94_ENERGY>  (1) 
38.9913

>  <PUBCHEM_FEATURE_SELFOVERLAP>  (1) 
20.297

>  <PUBCHEM_SHAPE_FINGERPRINT>  (1) 
12162725 195 18410007758227764249
13380535 76 18408320016432256395
13618510 140 18336833077577166092
13693222 7 18340782459046059593
14250199 8 18268996388709121879
15276787 5 15719380737720656041
15490181 8 18336275620850116426
15775835 57 18343304777296002513
15852999 172 18260542363809139411
16945 1 18337400356767833931
18186145 218 18339928117178846581
18522851 12 9439130891574983629
18981168 100 18120124811809877635
192875 21 18338218466533823533
20510252 161 17980490279730460698
21130352 189 17974575697346911230
21524375 3 18337106864557070578
21947302 44 18409172077898682111
230 275 18341058453517828498
23402539 116 18128807736670095423
23419403 2 17049035345159045626
23557571 272 17489305338817124975
2748010 2 18265353848204137798
305870 269 18410294713793819098
474 4 18335139774078415777
49207404 50 18045533917781456513
5262128 65 17059236828537045684
6333272 397 18336265734014424371
7364860 26 18199751349430690718
7832392 63 17836368151177462409
81228 2 17262171731439671858
84936 182 18273208673252343712
9981440 41 18339634667722558570

>  <PUBCHEM_SHAPE_MULTIPOLES>  (1) 
303.71
5.67
2.41
1.04
1.56
0.95
0
-2.65
0
-0.94
-0.11
0.01
-0.21
-0.34

>  <PUBCHEM_SHAPE_SELFOVERLAP>  (1) 
646.772

>  <PUBCHEM_SHAPE_VOLUME>  (1) 
168.7

>  <PUBCHEM_COORDINATE_TYPE>  (1) 
2
5
10

$$$$
