26487
     RDKit          3D

 24 24  0  0  1  0  0  0  0  0999 V2000
    5.2469   -1.7288    1.0606 O   0  0  0  0  0  0  0  0  0  0  0  0
    0.1870    4.1237   -1.2933 O   0  0  0  0  0  0  0  0  0  0  0  0
   -5.4467   -0.7130   -1.6818 O   0  0  0  0  0  0  0  0  0  0  0  0
   -3.4363   -0.3192   -2.6616 O   0  0  0  0  0  0  0  0  0  0  0  0
    3.1281   -0.6828    0.4867 C   0  0  0  0  0  0  0  0  0  0  0  0
    2.8781    0.3307   -0.6472 C   0  0  0  0  0  0  0  0  0  0  0  0
    2.3499   -1.9769    0.3065 C   0  0  0  0  0  0  0  0  0  0  0  0
    0.8409   -1.7352    0.3602 C   0  0  0  0  0  0  0  0  0  0  0  0
    4.6174   -0.9190    0.3957 C   0  0  0  0  0  0  0  0  0  0  0  0
    4.2556    0.6523   -1.1533 C   0  0  0  0  0  0  0  0  0  0  0  0
    0.0651   -3.0459    0.2156 C   0  0  0  0  0  0  0  0  0  0  0  0
    2.1491    1.5440   -0.1737 C   0  0  0  0  0  0  0  0  0  0  0  0
    5.2502   -0.0368   -0.5924 C   0  0  0  0  0  0  0  0  0  0  0  0
   -1.4551   -2.8623    0.2547 C   0  0  0  0  0  0  0  0  0  0  0  0
    0.9873    1.9670   -0.6929 C   0  0  0  0  0  0  0  0  0  0  0  0
    0.2575    3.1904   -0.2137 C   0  0  0  0  0  0  0  0  0  0  0  0
   -2.0436   -1.9459   -0.8218 C   0  0  0  0  0  0  0  0  0  0  0  0
   -1.1809    2.8918    0.2308 C   0  0  0  0  0  0  0  0  0  0  0  0
   -1.2652    1.8258    1.3272 C   0  0  0  0  0  0  0  0  0  0  0  0
   -2.7031    1.4684    1.7175 C   0  0  0  0  0  0  0  0  0  0  0  0
   -3.5552   -1.7564   -0.6995 C   0  0  0  0  0  0  0  0  0  0  0  0
   -2.7907    0.4565    2.8606 C   0  0  0  0  0  0  0  0  0  0  0  0
   -4.2368    0.1287    3.2010 C   0  0  0  0  0  0  0  0  0  0  0  0
   -4.0996   -0.8568   -1.7858 C   0  0  0  0  0  0  0  0  0  0  0  0
  1  9  2  0
  2 16  1  0
  3 24  1  0
  4 24  2  0
  5  6  1  0
  5  7  1  0
  5  9  1  0
  6 10  1  0
  6 12  1  0
  7  8  1  0
  8 11  1  0
  9 13  1  0
 10 13  2  0
 11 14  1  0
 12 15  2  0
 14 17  1  0
 15 16  1  0
 16 18  1  0
 17 21  1  0
 18 19  1  0
 19 20  1  0
 20 22  1  0
 21 24  1  0
 22 23  1  0
M  END
>  <PUBCHEM_COMPOUND_CID>  (1) 
26487

>  <PUBCHEM_CONFORMER_RMSD>  (1) 
1

>  <PUBCHEM_CONFORMER_DIVERSEORDER>  (1) 
1
246
192
64
111
116
170
102
240
114
85
290
144
83
121
21
157
89
72
196
319
71
181
187
230
180
39
43
68
145
80
279
263
322
210
325
215
185
275
101
36
206
9
228
182
133
16
52
27
15
244
26
165
32
40
209
142
162
10
259
262
309
47
317
293
84
269
257
38
299
300
243
55
7
241
78
172
110
301
261
304
176
164
234
205
91
22
74
53
106
233
24
258
66
276
219
179
316
200
190
280
99
152
128
115
174
253
105
320
222
75
148
307
324
203
62
298
134
58
104
175
277
41
283
171
239
310
235
207
286
242
124
211
6
312
125
112
311
237
137
87
188
54
260
73
267
42
212
238
11
126
167
49
44
169
303
270
60
248
216
184
318
135
93
193
245
198
296
2
204
191
161
251
313
131
256
194
282
292
236
224
177
79
197
127
153
214
271
201
122
288
5
226
57
306
315
17
173
208
274
308
150
118
88
139
231
63
264
132
266
81
254
146
23
56
113
297
8
97
250
291
213
314
120
155
323
281
108
268
223
28
48
19
130
321
287
82
232
12
183
160
229
249
247
163
95
65
98
46
273
302
33
138
202
45
252
227
294
29
96
159
156
50
186
129
221
4
86
220
168
289
13
166
265
149
218
30
103
141
70
25
100
35
143
217
178
31
76
123
90
136
61
272
20
285
225
158
92
94
109
14
295
140
119
77
147
107
278
255
154
195
199
51
189
37
284
151
18
305
3
34
67
117
69
59

>  <PUBCHEM_MMFF94_PARTIAL_CHARGES>  (1) 
20
1 -0.57
10 -0.29
12 -0.29
13 -0.14
15 -0.29
16 0.42
2 -0.68
21 0.06
24 0.66
3 -0.65
31 0.15
34 0.15
35 0.15
38 0.15
4 -0.57
5 0.06
52 0.4
56 0.5
6 0.28
9 0.49

>  <PUBCHEM_EFFECTIVE_ROTOR_COUNT>  (1) 
13.4

>  <PUBCHEM_PHARMACOPHORE_FEATURES>  (1) 
11
1 1 acceptor
1 2 acceptor
1 2 donor
1 23 hydrophobe
1 3 acceptor
1 4 acceptor
3 14 17 21 hydrophobe
3 3 4 24 anion
3 7 8 11 hydrophobe
4 18 19 20 22 hydrophobe
5 5 6 9 10 13 rings

>  <PUBCHEM_HEAVY_ATOM_COUNT>  (1) 
24

>  <PUBCHEM_ATOM_DEF_STEREO_COUNT>  (1) 
3

>  <PUBCHEM_ATOM_UDEF_STEREO_COUNT>  (1) 
0

>  <PUBCHEM_BOND_DEF_STEREO_COUNT>  (1) 
0

>  <PUBCHEM_BOND_UDEF_STEREO_COUNT>  (1) 
1

>  <PUBCHEM_ISOTOPIC_ATOM_COUNT>  (1) 
0

>  <PUBCHEM_COMPONENT_COUNT>  (1) 
1

>  <PUBCHEM_CACTVS_TAUTO_COUNT>  (1) 
7

>  <PUBCHEM_CONFORMER_ID>  (1) 
0000677700000001

>  <PUBCHEM_MMFF94_ENERGY>  (1) 
16.7686

>  <PUBCHEM_FEATURE_SELFOVERLAP>  (1) 
55.88

>  <PUBCHEM_SHAPE_FINGERPRINT>  (1) 
12166972 35 18268982258451672343
12553582 1 18335997427597509616
12633257 1 17845946147322679520
12788726 201 18413669110837419012
1361 2 17546154204668579589
14251757 17 18117820317358897077
14464042 87 18201998837429500615
14931854 50 18336533967538559567
15322687 12 18190435295489356087
15420108 30 17626401025797710569
20261772 1 18339099102754792914
20600515 1 17907820180237807995
20775438 99 16616405445465227823
21315764 21 18117830226154644405
23419403 2 17414959643580556200
469060 322 18410567353885502681
6438718 38 17988935465477244630
7064713 232 17986412021550316521

>  <PUBCHEM_SHAPE_MULTIPOLES>  (1) 
470.43
10.15
4.06
2.33
3.7
2.05
0.82
-3.85
-0.46
-0.75
-0.62
-4.56
0.35
-2.68

>  <PUBCHEM_SHAPE_SELFOVERLAP>  (1) 
919.568

>  <PUBCHEM_SHAPE_VOLUME>  (1) 
282.4

>  <PUBCHEM_COORDINATE_TYPE>  (1) 
2
5
10

$$$$
