26498
     RDKit          3D

 13 13  0  0  0  0  0  0  0  0999 V2000
    0.4935    0.8588    0.0351 N   0  0  0  0  0  0  0  0  0  0  0  0
   -2.9602   -0.4946   -0.2254 N   0  0  0  0  0  0  0  0  0  0  0  0
   -5.2201   -1.0033   -0.2787 N   0  0  0  0  0  0  0  0  0  0  0  0
   -4.6398    1.0449    0.5355 N   0  0  0  0  0  0  0  0  0  0  0  0
    1.7986    0.3248   -0.3490 C   0  0  0  0  0  0  0  0  0  0  0  0
    2.8953    1.3442   -0.0216 C   0  0  0  0  0  0  0  0  0  0  0  0
    2.0489   -1.0059    0.3691 C   0  0  0  0  0  0  0  0  0  0  0  0
    4.2832    0.7899   -0.3388 C   0  0  0  0  0  0  0  0  0  0  0  0
    3.4375   -1.5574    0.0507 C   0  0  0  0  0  0  0  0  0  0  0  0
    4.5320   -0.5412    0.3646 C   0  0  0  0  0  0  0  0  0  0  0  0
   -0.5622   -0.0984   -0.2579 C   0  0  0  0  0  0  0  0  0  0  0  0
   -1.9207    0.4815    0.1089 C   0  0  0  0  0  0  0  0  0  0  0  0
   -4.1861   -0.1433    0.0075 C   0  0  0  0  0  0  0  0  0  0  0  0
  1  5  1  0
  1 11  1  0
  2 12  1  0
  2 13  2  3
  3 13  1  0
  4 13  1  0
  5  6  1  0
  5  7  1  0
  6  8  1  0
  7  9  1  0
  8 10  1  0
  9 10  1  0
 11 12  1  0
M  END
>  <PUBCHEM_COMPOUND_CID>  (1) 
26498

>  <PUBCHEM_CONFORMER_RMSD>  (1) 
0.6

>  <PUBCHEM_CONFORMER_DIVERSEORDER>  (1) 
1
26
50
71
4
73
20
42
23
29
30
53
3
39
22
24
62
65
61
64
27
6
68
5
34
55
60
47
2
52
46
28
54
41
8
35
10
58
44
69
25
51
36
33
59
72
14
18
11
43
57
37
74
45
32
31
17
70
38
56
66
16
21
67
15
9
49
12
40
7
48
13
63
19

>  <PUBCHEM_MMFF94_PARTIAL_CHARGES>  (1) 
13
1 -0.9
11 0.27
12 0.25
13 0.55
2 -0.7
25 0.36
3 -0.85
30 0.4
31 0.4
32 0.4
33 0.4
4 -0.85
5 0.27

>  <PUBCHEM_EFFECTIVE_ROTOR_COUNT>  (1) 
5.2

>  <PUBCHEM_PHARMACOPHORE_FEATURES>  (1) 
6
1 1 cation
1 1 donor
1 3 donor
1 4 donor
4 2 3 4 13 cation
6 5 6 7 8 9 10 rings

>  <PUBCHEM_HEAVY_ATOM_COUNT>  (1) 
13

>  <PUBCHEM_ATOM_DEF_STEREO_COUNT>  (1) 
0

>  <PUBCHEM_ATOM_UDEF_STEREO_COUNT>  (1) 
0

>  <PUBCHEM_BOND_DEF_STEREO_COUNT>  (1) 
0

>  <PUBCHEM_BOND_UDEF_STEREO_COUNT>  (1) 
0

>  <PUBCHEM_ISOTOPIC_ATOM_COUNT>  (1) 
0

>  <PUBCHEM_COMPONENT_COUNT>  (1) 
1

>  <PUBCHEM_CACTVS_TAUTO_COUNT>  (1) 
2

>  <PUBCHEM_CONFORMER_ID>  (1) 
0000678200000001

>  <PUBCHEM_MMFF94_ENERGY>  (1) 
14.238

>  <PUBCHEM_FEATURE_SELFOVERLAP>  (1) 
30.502

>  <PUBCHEM_SHAPE_FINGERPRINT>  (1) 
10912923 1 18343304777527773449
11471102 20 18334295379434386500
12107183 9 17692255132044040025
13167823 11 18413668032727027871
14123238 8 18260267460142746135
14251717 144 18335701633199866618
14252887 29 18059863839725165166
15242433 33 18411419522546912071
15477762 27 18335702715821567654
17834072 33 18341330075960927023
17834076 25 18260831514124341092
200 152 18342455945855707145
20279233 1 17167867464853411194
20645477 70 18335983090807044374
22485316 2 18410291415195515351
23402539 116 18342733005901631605
23402655 69 18411138047817893902
23557571 272 16298658404718311646
33824 294 18260264140571337682
42 15 18409167692663005509
4214541 1 18410855439207453621
42788 4 18412545418090072572
5104073 3 18410856559993315825
522135 26 18407760335402355118
77779 3 18410294700877203725

>  <PUBCHEM_SHAPE_MULTIPOLES>  (1) 
247.61
11.49
1.33
0.66
10.57
0.1
0.01
1.16
0.33
-0.86
0.04
-0.05
-0.01
-0.53

>  <PUBCHEM_SHAPE_SELFOVERLAP>  (1) 
476.642

>  <PUBCHEM_SHAPE_VOLUME>  (1) 
148.5

>  <PUBCHEM_COORDINATE_TYPE>  (1) 
2
5
10

$$$$
