26494
     RDKit          3D

 13 13  0  0  0  0  0  0  0  0999 V2000
   -0.8754   -0.4307    0.3716 N   0  0  0  0  0  0  0  0  0  0  0  0
    2.7873   -0.5702   -0.2968 N   0  0  0  0  0  0  0  0  0  0  0  0
    5.0846   -0.3512   -0.5052 N   0  0  0  0  0  0  0  0  0  0  0  0
    3.9804    1.3212    0.5803 N   0  0  0  0  0  0  0  0  0  0  0  0
   -3.6732    0.4812    0.1802 C   0  0  0  0  0  0  0  0  0  0  0  0
   -2.4868    1.4459    0.2998 C   0  0  0  0  0  0  0  0  0  0  0  0
   -3.2791   -0.8930    0.7359 C   0  0  0  0  0  0  0  0  0  0  0  0
   -1.1885    0.8581   -0.2592 C   0  0  0  0  0  0  0  0  0  0  0  0
   -1.9548   -1.4045    0.1628 C   0  0  0  0  0  0  0  0  0  0  0  0
    0.3927   -0.9548   -0.1354 C   0  0  0  0  0  0  0  0  0  0  0  0
   -4.1839    0.3858   -1.2598 C   0  0  0  0  0  0  0  0  0  0  0  0
    1.5316   -0.0019    0.1983 C   0  0  0  0  0  0  0  0  0  0  0  0
    3.8653    0.1140   -0.0723 C   0  0  0  0  0  0  0  0  0  0  0  0
  1  8  1  0
  1  9  1  0
  1 10  1  0
  2 12  1  0
  2 13  2  3
  3 13  1  0
  4 13  1  0
  5  6  1  0
  5  7  1  0
  5 11  1  0
  6  8  1  0
  7  9  1  0
 10 12  1  0
M  END
>  <PUBCHEM_COMPOUND_CID>  (1) 
26494

>  <PUBCHEM_CONFORMER_RMSD>  (1) 
0.6

>  <PUBCHEM_CONFORMER_DIVERSEORDER>  (1) 
1
47
40
23
37
7
27
21
18
44
8
5
41
25
14
19
2
46
30
45
38
48
11
43
17
49
29
24
4
20
33
26
34
15
42
35
12
39
9
10
28
32
16
31
13
6
3
22
36

>  <PUBCHEM_MMFF94_PARTIAL_CHARGES>  (1) 
13
1 -0.81
10 0.27
12 0.25
13 0.55
2 -0.7
3 -0.85
30 0.4
31 0.4
32 0.4
33 0.4
4 -0.85
8 0.27
9 0.27

>  <PUBCHEM_EFFECTIVE_ROTOR_COUNT>  (1) 
4.2

>  <PUBCHEM_PHARMACOPHORE_FEATURES>  (1) 
5
1 1 cation
1 3 donor
1 4 donor
4 2 3 4 13 cation
6 1 5 6 7 8 9 rings

>  <PUBCHEM_HEAVY_ATOM_COUNT>  (1) 
13

>  <PUBCHEM_ATOM_DEF_STEREO_COUNT>  (1) 
0

>  <PUBCHEM_ATOM_UDEF_STEREO_COUNT>  (1) 
0

>  <PUBCHEM_BOND_DEF_STEREO_COUNT>  (1) 
0

>  <PUBCHEM_BOND_UDEF_STEREO_COUNT>  (1) 
0

>  <PUBCHEM_ISOTOPIC_ATOM_COUNT>  (1) 
0

>  <PUBCHEM_COMPONENT_COUNT>  (1) 
1

>  <PUBCHEM_CACTVS_TAUTO_COUNT>  (1) 
2

>  <PUBCHEM_CONFORMER_ID>  (1) 
0000677E00000001

>  <PUBCHEM_MMFF94_ENERGY>  (1) 
22.4385

>  <PUBCHEM_FEATURE_SELFOVERLAP>  (1) 
25.428

>  <PUBCHEM_SHAPE_FINGERPRINT>  (1) 
10014705 185 18040992964543904781
10680689 15 18409174336993542059
11132069 177 18187364341504952365
11543360 7 16773789324809619925
11615757 297 16917068871263697712
13081056 2 18343022203018511272
13214271 11 18334295379334367727
14123238 8 10015860981609484874
15242439 84 18411139126028816910
18186145 218 18409170995793510514
190213 19 18041000639402406182
200 152 17275383200838345407
20279233 1 18273221889056578302
20300324 65 17988921172015812029
20528008 55 18410289216008735957
20645477 56 17822291241573021581
20645477 70 17988366958058039582
21339142 51 18260548952721332053
23402539 116 18131064909583001749
23402655 69 18130501917001784213
23559900 14 18410292506613178226
3545911 37 18260270732755085171
4028521 119 18334850598188368261
4175511 318 17894907417445389975
6333449 129 18410576193244838667

>  <PUBCHEM_SHAPE_MULTIPOLES>  (1) 
247.61
9.57
1.31
0.84
9.2
0.05
-0.12
1.36
-1.17
-0.56
0.16
-0.53
0.05
0.57

>  <PUBCHEM_SHAPE_SELFOVERLAP>  (1) 
478.66

>  <PUBCHEM_SHAPE_VOLUME>  (1) 
146.7

>  <PUBCHEM_COORDINATE_TYPE>  (1) 
2
5
10

$$$$
