26492
     RDKit          3D

 13 13  0  0  1  0  0  0  0  0999 V2000
   -1.0541   -0.1156    0.3118 N   0  0  0  0  0  0  0  0  0  0  0  0
    2.6163   -0.6098   -0.0729 N   0  0  0  0  0  0  0  0  0  0  0  0
    4.9295   -0.5668   -0.2000 N   0  0  0  0  0  0  0  0  0  0  0  0
    3.8842    1.3965    0.2983 N   0  0  0  0  0  0  0  0  0  0  0  0
   -2.2094   -1.0215    0.4589 C   0  0  0  0  0  0  0  0  0  0  0  0
   -3.4594   -0.2077    0.8450 C   0  0  0  0  0  0  0  0  0  0  0  0
   -1.2725    0.9530   -0.6694 C   0  0  0  0  0  0  0  0  0  0  0  0
   -3.7414    0.9293   -0.1326 C   0  0  0  0  0  0  0  0  0  0  0  0
   -2.4993    1.7928   -0.3132 C   0  0  0  0  0  0  0  0  0  0  0  0
    0.1978   -0.8203    0.0505 C   0  0  0  0  0  0  0  0  0  0  0  0
   -2.4928   -1.9235   -0.7525 C   0  0  0  0  0  0  0  0  0  0  0  0
    1.3777    0.1344    0.1657 C   0  0  0  0  0  0  0  0  0  0  0  0
    3.7234    0.0593    0.0104 C   0  0  0  0  0  0  0  0  0  0  0  0
  1  5  1  0
  1  7  1  0
  1 10  1  0
  2 12  1  0
  2 13  2  3
  3 13  1  0
  4 13  1  0
  5  6  1  0
  5 11  1  0
  6  8  1  0
  7  9  1  0
  8  9  1  0
 10 12  1  0
M  END
>  <PUBCHEM_COMPOUND_CID>  (1) 
26492

>  <PUBCHEM_CONFORMER_RMSD>  (1) 
0.6

>  <PUBCHEM_CONFORMER_DIVERSEORDER>  (1) 
6
80
32
61
82
64
70
72
35
67
37
30
17
69
81
52
9
74
19
59
1
63
78
57
50
56
5
46
79
48
31
28
66
13
41
55
38
60
8
47
62
65
27
18
71
77
11
83
26
53
24
33
20
12
21
22
23
68
76
49
54
40
36
2
3
15
58
44
34
7
51
29
39
14
10
73
43
16
4
45
25
75
42

>  <PUBCHEM_MMFF94_PARTIAL_CHARGES>  (1) 
13
1 -0.81
10 0.27
12 0.25
13 0.55
2 -0.7
3 -0.85
30 0.4
31 0.4
32 0.4
33 0.4
4 -0.85
5 0.27
7 0.27

>  <PUBCHEM_EFFECTIVE_ROTOR_COUNT>  (1) 
4.2

>  <PUBCHEM_PHARMACOPHORE_FEATURES>  (1) 
5
1 1 cation
1 3 donor
1 4 donor
4 2 3 4 13 cation
6 1 5 6 7 8 9 rings

>  <PUBCHEM_HEAVY_ATOM_COUNT>  (1) 
13

>  <PUBCHEM_ATOM_DEF_STEREO_COUNT>  (1) 
0

>  <PUBCHEM_ATOM_UDEF_STEREO_COUNT>  (1) 
1

>  <PUBCHEM_BOND_DEF_STEREO_COUNT>  (1) 
0

>  <PUBCHEM_BOND_UDEF_STEREO_COUNT>  (1) 
0

>  <PUBCHEM_ISOTOPIC_ATOM_COUNT>  (1) 
0

>  <PUBCHEM_COMPONENT_COUNT>  (1) 
1

>  <PUBCHEM_CACTVS_TAUTO_COUNT>  (1) 
2

>  <PUBCHEM_CONFORMER_ID>  (1) 
0000677C00000006

>  <PUBCHEM_MMFF94_ENERGY>  (1) 
21.1893

>  <PUBCHEM_FEATURE_SELFOVERLAP>  (1) 
25.428

>  <PUBCHEM_SHAPE_FINGERPRINT>  (1) 
10014705 185 18334570252830364885
10608611 8 18410853252789603080
10680689 15 18410298025145071570
11132069 177 18335416885083543012
12932764 1 18411974767455598570
13024252 1 17167581592589837867
13214271 11 18040720260085552155
13897977 58 18260275160919160524
14325111 11 18409729564880309362
15219456 202 18269843025146777127
15669948 3 18410001139836421315
18186145 218 18059861670893066810
1986462 14 18409731759550620942
20279233 1 18059861640453918478
20645464 45 18202571657249150407
20645477 56 18410578349117941733
20645477 70 17346043255979888870
20871998 184 18412550924924182287
22485316 2 18342737421059433426
2306618 200 18201725028900712153
23402539 116 18260261962437148174
23557571 272 18271535268099412916
23559900 14 18271803502493842122
4175511 318 18131631179662005655
58051976 100 18412826880498802014
6333449 129 18411134723703117293
77779 3 18409451388586123098

>  <PUBCHEM_SHAPE_MULTIPOLES>  (1) 
247.61
8.58
1.63
0.78
10.14
0.04
-0.01
0.85
0.29
-1.21
-0.29
-0.43
-0.07
0.2

>  <PUBCHEM_SHAPE_SELFOVERLAP>  (1) 
478.575

>  <PUBCHEM_SHAPE_VOLUME>  (1) 
148.7

>  <PUBCHEM_COORDINATE_TYPE>  (1) 
2
5
10

$$$$
