26504
     RDKit          3D

 12 11  0  0  1  0  0  0  0  0999 V2000
   -1.2066    0.9939    0.1141 N   0  0  0  0  0  0  0  0  0  0  0  0
    2.1633   -0.4949   -0.4471 N   0  0  0  0  0  0  0  0  0  0  0  0
    4.3678   -1.2049   -0.5160 N   0  0  0  0  0  0  0  0  0  0  0  0
    3.8702    0.4859    0.9293 N   0  0  0  0  0  0  0  0  0  0  0  0
   -2.9290   -0.7996   -0.0508 C   0  0  0  0  0  0  0  0  0  0  0  0
   -2.5311    0.6470   -0.3904 C   0  0  0  0  0  0  0  0  0  0  0  0
   -0.1885    0.1196   -0.4697 C   0  0  0  0  0  0  0  0  0  0  0  0
   -2.8889   -1.0038    1.4661 C   0  0  0  0  0  0  0  0  0  0  0  0
   -4.3164   -1.1676   -0.5828 C   0  0  0  0  0  0  0  0  0  0  0  0
   -0.8980    2.3956   -0.1721 C   0  0  0  0  0  0  0  0  0  0  0  0
    1.1757    0.4154    0.1370 C   0  0  0  0  0  0  0  0  0  0  0  0
    3.3815   -0.3866   -0.0175 C   0  0  0  0  0  0  0  0  0  0  0  0
  1  6  1  0
  1  7  1  0
  1 10  1  0
  2 11  1  0
  2 12  2  3
  3 12  1  0
  4 12  1  0
  5  6  1  0
  5  8  1  0
  5  9  1  0
  7 11  1  0
M  END
>  <PUBCHEM_COMPOUND_CID>  (1) 
26504

>  <PUBCHEM_CONFORMER_RMSD>  (1) 
0.6

>  <PUBCHEM_CONFORMER_DIVERSEORDER>  (1) 
3
23
1
22
17
19
26
6
25
11
14
21
16
15
4
9
10
13
27
7
24
8
18
5
12
2
20

>  <PUBCHEM_MMFF94_PARTIAL_CHARGES>  (1) 
13
1 -0.81
10 0.27
11 0.25
12 0.55
2 -0.7
29 0.4
3 -0.85
30 0.4
31 0.4
32 0.4
4 -0.85
6 0.27
7 0.27

>  <PUBCHEM_EFFECTIVE_ROTOR_COUNT>  (1) 
5

>  <PUBCHEM_PHARMACOPHORE_FEATURES>  (1) 
5
1 1 cation
1 3 donor
1 4 donor
3 5 8 9 hydrophobe
4 2 3 4 12 cation

>  <PUBCHEM_HEAVY_ATOM_COUNT>  (1) 
12

>  <PUBCHEM_ATOM_DEF_STEREO_COUNT>  (1) 
0

>  <PUBCHEM_ATOM_UDEF_STEREO_COUNT>  (1) 
0

>  <PUBCHEM_BOND_DEF_STEREO_COUNT>  (1) 
0

>  <PUBCHEM_BOND_UDEF_STEREO_COUNT>  (1) 
0

>  <PUBCHEM_ISOTOPIC_ATOM_COUNT>  (1) 
0

>  <PUBCHEM_COMPONENT_COUNT>  (1) 
1

>  <PUBCHEM_CACTVS_TAUTO_COUNT>  (1) 
2

>  <PUBCHEM_CONFORMER_ID>  (1) 
0000678800000003

>  <PUBCHEM_MMFF94_ENERGY>  (1) 
27.319

>  <PUBCHEM_FEATURE_SELFOVERLAP>  (1) 
25.428

>  <PUBCHEM_SHAPE_FINGERPRINT>  (1) 
11127187 94 17386009515865005755
11543360 7 15213308572412317350
12032990 46 18411982472447364958
12932764 1 17560508535195320108
177051 138 18410293609997669734
20201158 50 18259704514711483307
20211469 26 18343582953937971511
20281407 28 18342459244126826730
20671657 53 17240762908305798741
20711985 327 18201727292311670333
20711985 344 18187633657973008657
20871999 31 17968086500538011845
21061003 4 18341056289176259777
21119208 17 15647047179481419591
21499 59 8934729864071884649
21501925 9 18410570729603443428
22485316 2 18343015601527150759
23402539 116 18335413547851515862
23402655 69 13767920213365002446
23403322 49 18334294271159205531
23557571 272 18337395924604509492
53428517 46 17967541163707258035
5493415 88 18115593806391655027
81228 2 18191883240201918205
9882013 296 17703791461208378178

>  <PUBCHEM_SHAPE_MULTIPOLES>  (1) 
227.03
8.35
1.65
0.94
4.9
0.98
0.26
-4.4
-0.17
-0.74
-0.04
-0.36
-0.22
0.51

>  <PUBCHEM_SHAPE_SELFOVERLAP>  (1) 
418.835

>  <PUBCHEM_SHAPE_VOLUME>  (1) 
143.4

>  <PUBCHEM_COORDINATE_TYPE>  (1) 
2
5
10

$$$$
