26516
     RDKit          3D

 20 23  0  0  1  0  0  0  0  0999 V2000
   -0.1550    1.6707    1.1194 O   0  0  0  0  0  0  0  0  0  0  0  0
    0.7127   -2.5714   -0.5128 O   0  0  0  0  0  0  0  0  0  0  0  0
   -1.1421    0.7168   -1.8826 O   0  0  0  0  0  0  0  0  0  0  0  0
   -5.3953    0.6094   -0.1217 O   0  0  0  0  0  0  0  0  0  0  0  0
   -0.0698   -0.5186    0.2934 N   0  0  0  0  0  0  0  0  0  0  0  0
   -3.2475    0.6619   -0.9561 N   0  0  0  0  0  0  0  0  0  0  0  0
    2.7736    1.3624    0.0852 C   0  0  0  0  0  0  0  0  0  0  0  0
    3.1935   -0.6832   -0.7025 C   0  0  0  0  0  0  0  0  0  0  0  0
    1.9306    0.4564    1.0033 C   0  0  0  0  0  0  0  0  0  0  0  0
    2.2201   -0.9518    0.4612 C   0  0  0  0  0  0  0  0  0  0  0  0
    2.6936    0.6492   -1.2675 C   0  0  0  0  0  0  0  0  0  0  0  0
    4.2579    1.1530    0.4404 C   0  0  0  0  0  0  0  0  0  0  0  0
    4.5478   -0.2584   -0.1033 C   0  0  0  0  0  0  0  0  0  0  0  0
    0.4437    0.6430    0.8336 C   0  0  0  0  0  0  0  0  0  0  0  0
    0.8805   -1.4814    0.0166 C   0  0  0  0  0  0  0  0  0  0  0  0
   -1.4732   -0.7098    0.0409 C   0  0  0  0  0  0  0  0  0  0  0  0
   -2.2879   -0.5605    1.3159 C   0  0  0  0  0  0  0  0  0  0  0  0
   -1.9012    0.3021   -1.0069 C   0  0  0  0  0  0  0  0  0  0  0  0
   -3.7612   -0.7373    0.9961 C   0  0  0  0  0  0  0  0  0  0  0  0
   -4.2210    0.2474   -0.0524 C   0  0  0  0  0  0  0  0  0  0  0  0
  1 14  2  0
  2 15  2  0
  3 18  2  0
  4 20  2  0
  5 14  1  0
  5 15  1  0
  5 16  1  0
  6 18  1  0
  6 20  1  0
  7  9  1  0
  7 11  1  0
  7 12  1  0
  8 10  1  0
  8 11  1  0
  8 13  1  0
  9 10  1  0
  9 14  1  0
 10 15  1  0
 12 13  1  0
 16 17  1  0
 16 18  1  0
 17 19  1  0
 19 20  1  0
M  END
>  <PUBCHEM_COMPOUND_CID>  (1) 
26516

>  <PUBCHEM_CONFORMER_RMSD>  (1) 
0.6

>  <PUBCHEM_CONFORMER_DIVERSEORDER>  (1) 
1
16
36
14
38
46
13
25
22
11
6
35
9
23
27
41
24
26
18
47
15
28
39
17
5
37
34
31
20
29
42
10
21
19
44
12
2
32
8
43
45
30
33
40
7
4
3

>  <PUBCHEM_MMFF94_PARTIAL_CHARGES>  (1) 
15
1 -0.57
10 0.06
14 0.57
15 0.57
16 0.36
18 0.57
19 0.06
2 -0.57
20 0.57
3 -0.57
36 0.37
4 -0.57
5 -0.42
6 -0.49
9 0.06

>  <PUBCHEM_EFFECTIVE_ROTOR_COUNT>  (1) 
2.6

>  <PUBCHEM_PHARMACOPHORE_FEATURES>  (1) 
8
1 1 acceptor
1 2 acceptor
1 3 acceptor
1 4 acceptor
1 6 donor
5 5 9 10 14 15 rings
6 6 16 17 18 19 20 rings
7 7 8 9 10 11 12 13 rings

>  <PUBCHEM_HEAVY_ATOM_COUNT>  (1) 
20

>  <PUBCHEM_ATOM_DEF_STEREO_COUNT>  (1) 
0

>  <PUBCHEM_ATOM_UDEF_STEREO_COUNT>  (1) 
5

>  <PUBCHEM_BOND_DEF_STEREO_COUNT>  (1) 
0

>  <PUBCHEM_BOND_UDEF_STEREO_COUNT>  (1) 
0

>  <PUBCHEM_ISOTOPIC_ATOM_COUNT>  (1) 
0

>  <PUBCHEM_COMPONENT_COUNT>  (1) 
1

>  <PUBCHEM_CACTVS_TAUTO_COUNT>  (1) 
3

>  <PUBCHEM_CONFORMER_ID>  (1) 
0000679400000001

>  <PUBCHEM_MMFF94_ENERGY>  (1) 
52.2146

>  <PUBCHEM_FEATURE_SELFOVERLAP>  (1) 
40.691

>  <PUBCHEM_SHAPE_FINGERPRINT>  (1) 
11031198 65 18413102844963542639
11132069 177 17749107811693901749
11471102 20 18343303664983531154
12236239 1 16989126448369721595
12403814 3 17967526921717082167
12592029 89 17967527939946260490
12730499 353 18409172091321797363
13221675 6 17632861918855934251
14115302 16 18411989095724791836
14289901 80 16805324396299437112
14943859 89 18131633412813001099
14993402 34 16630526241403076873
15048467 5 18261114062964565269
15219456 202 18187645782259191587
15309172 13 18341054094105210027
15375358 24 17894349969424221635
16752209 62 15769211640411345379
16945 1 18273500096143145946
18175812 5 18040720298212841103
18186145 218 18272940448629224070
19050596 39 16081087103774733289
19862831 5 17418091022763007403
200 152 18202562856375825281
20645477 70 18130790014501625902
22854114 59 18409168826835006579
231179 274 18260545623683944826
23402539 116 17167857603777538251
23402655 69 17988926673394125633
23419403 2 16318015156844084674
23493267 7 17967531263786444602
23557571 272 17530967938805992837
23559900 14 17386007221999243210
25 1 18342452642757012946
2748010 2 17698443570454225658
296302 2 16128373809278059792
3060560 45 18273213092974079726
4047638 21 18186801370203145680
4072396 5 18339067212580733954
474 4 17201905149874119696
4990 188 17703794729678568679
57426455 114 12679456478403445959
633830 44 17702686413373013137
74978 22 16701730670067718169
77492 1 16917068849910362275
8272917 22 18059300834111300759

>  <PUBCHEM_SHAPE_MULTIPOLES>  (1) 
378.15
8.56
1.53
1.26
4.44
0.5
-0.16
-1.66
-0.1
-0.57
-0.05
0.26
-0.22
0.64

>  <PUBCHEM_SHAPE_SELFOVERLAP>  (1) 
842.693

>  <PUBCHEM_SHAPE_VOLUME>  (1) 
207

>  <PUBCHEM_COORDINATE_TYPE>  (1) 
2
5
10

$$$$
