26524
     RDKit          3D

  9  8  0  0  0  0  0  0  0  0999 V2000
   -3.2348   -0.8073   -0.3055 O   0  0  0  0  0  0  0  0  0  0  0  0
    3.2306    0.8116   -0.3097 O   0  0  0  0  0  0  0  0  0  0  0  0
   -2.5455    0.9697    0.8179 O   0  0  0  0  0  0  0  0  0  0  0  0
    2.5501   -0.9638    0.8216 O   0  0  0  0  0  0  0  0  0  0  0  0
   -1.1896    0.0239   -0.6282 N   0  0  0  0  0  0  0  0  0  0  0  0
    1.1894   -0.0310   -0.6283 N   0  0  0  0  0  0  0  0  0  0  0  0
   -2.4032    0.0512    0.0061 N   0  0  0  0  0  0  0  0  0  0  0  0
    2.4031   -0.0495    0.0057 N   0  0  0  0  0  0  0  0  0  0  0  0
   -0.0001   -0.0047    0.2204 C   0  0  0  0  0  0  0  0  0  0  0  0
  1  7  1  0
  2  8  1  0
  3  7  2  0
  4  8  2  0
  5  7  1  0
  5  9  1  0
  6  8  1  0
  6  9  1  0
M  CHG  4   1  -1   2  -1   7   1   8   1
M  END
>  <PUBCHEM_COMPOUND_CID>  (1) 
26524

>  <PUBCHEM_CONFORMER_RMSD>  (1) 
0.6

>  <PUBCHEM_CONFORMER_DIVERSEORDER>  (1) 
2
16
15
11
22
7
1
6
21
3
20
13
18
9
19
14
4
12
5
10
17
8

>  <PUBCHEM_MMFF94_PARTIAL_CHARGES>  (1) 
11
1 -0.52
12 0.36
13 0.36
2 -0.52
3 -0.52
4 -0.52
5 -0.62
6 -0.62
7 1.03
8 1.03
9 0.54

>  <PUBCHEM_EFFECTIVE_ROTOR_COUNT>  (1) 
4

>  <PUBCHEM_PHARMACOPHORE_FEATURES>  (1) 
6
1 1 acceptor
1 2 acceptor
1 3 acceptor
1 4 acceptor
1 5 donor
1 6 donor

>  <PUBCHEM_HEAVY_ATOM_COUNT>  (1) 
9

>  <PUBCHEM_ATOM_DEF_STEREO_COUNT>  (1) 
0

>  <PUBCHEM_ATOM_UDEF_STEREO_COUNT>  (1) 
0

>  <PUBCHEM_BOND_DEF_STEREO_COUNT>  (1) 
0

>  <PUBCHEM_BOND_UDEF_STEREO_COUNT>  (1) 
0

>  <PUBCHEM_ISOTOPIC_ATOM_COUNT>  (1) 
0

>  <PUBCHEM_COMPONENT_COUNT>  (1) 
1

>  <PUBCHEM_CACTVS_TAUTO_COUNT>  (1) 
1

>  <PUBCHEM_CONFORMER_ID>  (1) 
0000679C00000002

>  <PUBCHEM_MMFF94_ENERGY>  (1) 
15.6863

>  <PUBCHEM_FEATURE_SELFOVERLAP>  (1) 
30.635

>  <PUBCHEM_SHAPE_FINGERPRINT>  (1) 
10857977 72 17489862756746992107
11062470 55 17095519608631051503
12932764 1 18114184098966346060
14325111 11 18407759231105324999
14390081 3 15841548539966371891
29004967 10 16732706034388870300
3248919 1 18202278070079621167
5460574 1 9223234048145490023

>  <PUBCHEM_SHAPE_MULTIPOLES>  (1) 
141.81
5.62
0.85
0.77
0
0
-0.06
0
-0.24
0
-0.12
0
0
-0.58

>  <PUBCHEM_SHAPE_SELFOVERLAP>  (1) 
264.101

>  <PUBCHEM_SHAPE_VOLUME>  (1) 
89.8

>  <PUBCHEM_COORDINATE_TYPE>  (1) 
2
5
10

$$$$
