26530
     RDKit          3D

 13 13  0  0  0  0  0  0  0  0999 V2000
   -4.6873   -0.0431    1.0895 O   0  0  0  0  0  0  0  0  0  0  0  0
   -0.5177    0.1220   -0.1316 C   0  0  0  0  0  0  0  0  0  0  0  0
   -1.9409    0.1382    0.4414 C   0  0  0  0  0  0  0  0  0  0  0  0
    0.5636    0.1618    0.9547 C   0  0  0  0  0  0  0  0  0  0  0  0
   -3.0058    0.0265   -0.6495 C   0  0  0  0  0  0  0  0  0  0  0  0
    1.9689    0.0582    0.4175 C   0  0  0  0  0  0  0  0  0  0  0  0
   -4.4261   -0.0405   -0.1125 C   0  0  0  0  0  0  0  0  0  0  0  0
    2.5510   -1.1919    0.2706 C   0  0  0  0  0  0  0  0  0  0  0  0
    2.6557    1.2143    0.0789 C   0  0  0  0  0  0  0  0  0  0  0  0
    3.8507   -1.2881   -0.2265 C   0  0  0  0  0  0  0  0  0  0  0  0
    3.9554    1.1180   -0.4183 C   0  0  0  0  0  0  0  0  0  0  0  0
   -5.5203   -0.1421   -1.1433 C   0  0  0  0  0  0  0  0  0  0  0  0
    4.5528   -0.1332   -0.5709 C   0  0  0  0  0  0  0  0  0  0  0  0
  1  7  2  0
  2  3  1  0
  2  4  1  0
  3  5  1  0
  4  6  1  0
  5  7  1  0
  6  8  2  0
  6  9  1  0
  7 12  1  0
  8 10  1  0
  9 11  2  0
 10 13  2  0
 11 13  1  0
M  END
>  <PUBCHEM_COMPOUND_CID>  (1) 
26530

>  <PUBCHEM_CONFORMER_RMSD>  (1) 
0.6

>  <PUBCHEM_CONFORMER_DIVERSEORDER>  (1) 
1
34
90
33
83
7
11
55
65
39
77
86
38
9
78
58
35
23
47
32
63
21
68
31
87
62
73
72
52
36
26
6
5
67
46
30
66
56
22
74
89
18
64
76
40
48
44
49
17
70
71
16
8
50
24
84
54
53
2
60
27
42
88
75
69
79
10
12
85
82
51
43
28
37
25
81
45
19
15
4
3
13
80
14
59
57
20
29
41
61

>  <PUBCHEM_MMFF94_PARTIAL_CHARGES>  (1) 
16
1 -0.57
10 -0.15
11 -0.15
12 0.06
13 -0.15
22 0.15
23 0.15
24 0.15
25 0.15
29 0.15
4 0.14
5 0.06
6 -0.14
7 0.45
8 -0.15
9 -0.15

>  <PUBCHEM_EFFECTIVE_ROTOR_COUNT>  (1) 
5

>  <PUBCHEM_PHARMACOPHORE_FEATURES>  (1) 
3
1 1 acceptor
4 2 3 4 5 hydrophobe
6 6 8 9 10 11 13 rings

>  <PUBCHEM_HEAVY_ATOM_COUNT>  (1) 
13

>  <PUBCHEM_ATOM_DEF_STEREO_COUNT>  (1) 
0

>  <PUBCHEM_ATOM_UDEF_STEREO_COUNT>  (1) 
0

>  <PUBCHEM_BOND_DEF_STEREO_COUNT>  (1) 
0

>  <PUBCHEM_BOND_UDEF_STEREO_COUNT>  (1) 
0

>  <PUBCHEM_ISOTOPIC_ATOM_COUNT>  (1) 
0

>  <PUBCHEM_COMPONENT_COUNT>  (1) 
1

>  <PUBCHEM_CACTVS_TAUTO_COUNT>  (1) 
3

>  <PUBCHEM_CONFORMER_ID>  (1) 
000067A200000001

>  <PUBCHEM_MMFF94_ENERGY>  (1) 
20.5327

>  <PUBCHEM_FEATURE_SELFOVERLAP>  (1) 
15.223

>  <PUBCHEM_SHAPE_FINGERPRINT>  (1) 
10680689 15 17603307064166902435
10912923 1 17704074005953699187
11287383 113 17822015340804289641
114248 4 17967254204073056451
11471102 20 18408042918559859848
12251169 10 9439401324533291048
13167823 11 17988921193406382743
13760787 5 18272653450345754265
13836976 161 18342459248965431846
14123238 8 18343019995310148199
15242433 33 18343864433009364983
15242439 84 17822008701143545995
15477762 27 18341615872223415542
17834072 33 18343298206280636031
17834076 25 14779265306808189485
200 152 18272934907710033769
20279233 1 17458069261290834162
20645477 70 18337110077414517810
22289505 5 18041271102157278244
22646028 1 17489868232830248901
23402539 116 16988842753106149353
23402655 69 18408323289424000868
23557571 272 16515961459058038287
23590187 302 18412824690117936040
29717793 49 17989489593282886588
3060560 45 18334295370929172942
4047638 21 17603587443784573160
42 15 11887957657113250861
42788 4 15213018250077108133
465052 167 17274823592569967039
4990 188 17821730515879831578
522135 26 18341892987391472390
5281201 14 18260267408708841972
5374978 207 8935002576872297382
77779 3 18409450280226169345

>  <PUBCHEM_SHAPE_MULTIPOLES>  (1) 
261.66
12.22
1.07
0.96
12.04
0.05
0.02
0.7
-2.91
-1.46
-0.04
0.68
0
-0.14

>  <PUBCHEM_SHAPE_SELFOVERLAP>  (1) 
520.712

>  <PUBCHEM_SHAPE_VOLUME>  (1) 
155.1

>  <PUBCHEM_COORDINATE_TYPE>  (1) 
2
5
10

$$$$
