2653
     RDKit          3D

 28 31  0  0  1  0  0  0  0  0999 V2000
    0.5982   -2.7619    0.5212 S   0  0  0  0  0  0  0  0  0  0  0  0
    4.7573   -0.4018    0.8899 S   0  0  0  0  0  0  0  0  0  0  0  0
    7.7244    0.1494    1.2934 S   0  0  0  0  0  0  0  0  0  0  0  0
   -1.3414    1.4414    0.9721 O   0  0  0  0  0  0  0  0  0  0  0  0
    1.6833    2.2078   -1.1299 O   0  0  0  0  0  0  0  0  0  0  0  0
    2.0366    2.1183    1.1279 O   0  0  0  0  0  0  0  0  0  0  0  0
   -4.2301    0.1640    1.1334 O   0  0  0  0  0  0  0  0  0  0  0  0
    0.1240   -0.1845    0.0947 N   0  0  0  0  0  0  0  0  0  0  0  0
   -2.9080   -1.0930   -0.3021 N   0  0  0  0  0  0  0  0  0  0  0  0
   -6.4434   -0.0053   -0.5369 N   0  0  0  0  0  0  0  0  0  0  0  0
   -7.3544   -0.6471    0.1881 N   0  0  0  0  0  0  0  0  0  0  0  0
    6.5799    0.1667   -0.9994 N   0  0  0  0  0  0  0  0  0  0  0  0
   -8.0233    1.4276   -0.2794 N   0  0  0  0  0  0  0  0  0  0  0  0
   -8.3291    0.2401    0.3462 N   0  0  0  0  0  0  0  0  0  0  0  0
    7.9107    0.4572   -1.2435 N   0  0  0  0  0  0  0  0  0  0  0  0
   -0.4144   -1.4850   -0.2600 C   0  0  0  0  0  0  0  0  0  0  0  0
   -1.6884   -1.0583    0.5014 C   0  0  0  0  0  0  0  0  0  0  0  0
   -1.0208    0.3444    0.5786 C   0  0  0  0  0  0  0  0  0  0  0  0
    1.4212    0.1721   -0.0903 C   0  0  0  0  0  0  0  0  0  0  0  0
    2.3779   -0.7504   -0.3508 C   0  0  0  0  0  0  0  0  0  0  0  0
    2.1141   -2.2544   -0.3596 C   0  0  0  0  0  0  0  0  0  0  0  0
    3.8223   -0.4272   -0.6485 C   0  0  0  0  0  0  0  0  0  0  0  0
    1.7509    1.5962    0.0691 C   0  0  0  0  0  0  0  0  0  0  0  0
   -4.0934   -0.4686    0.0895 C   0  0  0  0  0  0  0  0  0  0  0  0
   -5.1997   -0.6636   -0.9244 C   0  0  0  0  0  0  0  0  0  0  0  0
    6.3694   -0.0111    0.2749 C   0  0  0  0  0  0  0  0  0  0  0  0
   -6.8412    1.2478   -0.8223 C   0  0  0  0  0  0  0  0  0  0  0  0
    8.6172    0.4793   -0.1336 C   0  0  0  0  0  0  0  0  0  0  0  0
  1 16  1  0
  1 21  1  0
  2 22  1  0
  2 26  1  0
  3 26  1  0
  3 28  1  0
  4 18  2  0
  5 23  1  0
  6 23  2  0
  7 24  2  0
  8 16  1  0
  8 18  1  0
  8 19  1  0
  9 17  1  0
  9 24  1  0
 10 11  1  0
 10 25  1  0
 10 27  1  0
 11 14  2  0
 12 15  1  0
 12 26  2  0
 13 14  1  0
 13 27  2  0
 15 28  2  0
 16 17  1  0
 17 18  1  0
 19 20  2  0
 19 23  1  0
 20 21  1  0
 20 22  1  0
 24 25  1  0
M  END
>  <PUBCHEM_COMPOUND_CID>  (1) 
2653

>  <PUBCHEM_CONFORMER_RMSD>  (1) 
1

>  <PUBCHEM_CONFORMER_DIVERSEORDER>  (1) 
1
217
271
269
285
45
184
115
35
95
291
194
79
103
273
72
261
152
223
219
193
28
287
253
232
141
278
175
89
201
128
221
144
29
226
227
10
191
290
64
53
85
24
8
177
202
260
7
280
284
86
11
154
288
197
75
224
279
91
22
135
208
254
272
61
218
210
143
59
286
212
266
14
133
150
244
68
195
192
160
9
110
235
233
275
249
173
114
156
101
31
258
90
205
238
267
155
69
214
70
259
268
236
2
264
245
122
82
123
67
6
213
178
119
247
136
157
107
42
237
167
256
105
129
170
21
124
25
148
250
41
229
211
169
117
263
153
65
176
120
190
257
187
283
58
230
158
88
130
81
13
234
102
196
209
113
282
93
203
16
106
243
182
215
104
188
50
163
289
99
94
220
44
180
162
276
83
159
87
5
100
265
172
239
92
262
140
17
199
116
240
145
131
51
34
171
12
161
118
207
216
248
73
66
26
185
151
164
165
168
46
200
181
142
56
125
121
183
277
132
109
39
270
179
19
49
43
231
204
252
48
23
38
74
78
57
242
112
80
63
97
55
127
62
189
98
76
166
126
222
246
77
186
27
96
274
84
206
281
52
146
33
225
71
241
228
54
137
32
20
111
37
147
30
198
251
139
138
3
47
15
255
108
18
36
60
134
149
174
40
4

>  <PUBCHEM_MMFF94_PARTIAL_CHARGES>  (1) 
31
1 -0.45
10 0.31
11 -0.42
12 -0.34
13 -0.34
15 -0.34
16 0.44
17 0.28
18 0.58
19 0.12
2 -0.29
20 -0.28
21 0.37
22 0.37
23 0.71
24 0.57
25 0.32
26 0.43
27 0.04
28 0.23
3 -0.08
33 0.37
38 0.5
39 0.15
4 -0.57
40 0.15
5 -0.65
6 -0.57
7 -0.57
8 -0.39
9 -0.65

>  <PUBCHEM_EFFECTIVE_ROTOR_COUNT>  (1) 
8.6

>  <PUBCHEM_PHARMACOPHORE_FEATURES>  (1) 
13
1 12 acceptor
1 15 acceptor
1 4 acceptor
1 5 acceptor
1 6 acceptor
1 7 acceptor
1 9 donor
3 10 13 27 cation
3 5 6 23 anion
4 8 16 17 18 rings
5 10 11 13 14 27 rings
5 3 12 15 26 28 rings
6 1 8 16 19 20 21 rings

>  <PUBCHEM_HEAVY_ATOM_COUNT>  (1) 
28

>  <PUBCHEM_ATOM_DEF_STEREO_COUNT>  (1) 
0

>  <PUBCHEM_ATOM_UDEF_STEREO_COUNT>  (1) 
2

>  <PUBCHEM_BOND_DEF_STEREO_COUNT>  (1) 
0

>  <PUBCHEM_BOND_UDEF_STEREO_COUNT>  (1) 
0

>  <PUBCHEM_ISOTOPIC_ATOM_COUNT>  (1) 
0

>  <PUBCHEM_COMPONENT_COUNT>  (1) 
1

>  <PUBCHEM_CACTVS_TAUTO_COUNT>  (1) 
2

>  <PUBCHEM_CONFORMER_ID>  (1) 
00000A5D00000001

>  <PUBCHEM_MMFF94_ENERGY>  (1) 
54.8426

>  <PUBCHEM_FEATURE_SELFOVERLAP>  (1) 
67.785

>  <PUBCHEM_SHAPE_FINGERPRINT>  (1) 
10050765 1 9005896883413200114
11315181 36 16917351450785793443
12011746 2 18342739637589586362
12664476 115 18114176424968090573
12838862 33 18341035368237378642
14123256 10 18060137639146820858
14170010 4 18342455945676358986
14251764 18 17822007614205694247
14251764 46 17346597478633175210
15131766 46 16590860393728016724
15439362 3 17680154264105943836
15461852 350 17560797775393962863
15849732 13 17489868254347452844
16087824 20 18271526391399869105
16120349 18 17022622013621764078
18365409 1 17274532247558444566
18681886 176 17561073735490448123
20238998 120 18410292515040550492
20554085 129 18342447150301424794
21298829 104 18341334396919865241
21792934 111 18340758274971290200
22224240 67 18272929436602433906
22311459 1 18411981364878708418
23559900 14 18342452694354454739
249057 3 17489866072324627159
3009799 131 18343019990820131906
3178227 256 18261683635514814979
335352 9 18412261765580793358
350125 39 18408600357579987373
3633792 109 18202565099003180712
4325135 7 13470688148222040825
4339292 15 18263645225512591603
5758199 1 18411418401613487683
59755656 215 18342455928459657478
6081469 158 18130791132057857278

>  <PUBCHEM_SHAPE_MULTIPOLES>  (1) 
524.45
24.72
1.94
1.06
8.46
0.44
0.04
-7.68
-1.9
0.14
0.03
-0.91
-0.18
0.01

>  <PUBCHEM_SHAPE_SELFOVERLAP>  (1) 
1084.598

>  <PUBCHEM_SHAPE_VOLUME>  (1) 
302.2

>  <PUBCHEM_COORDINATE_TYPE>  (1) 
2
5
10

$$$$
