26533
     RDKit          3D

 15 16  0  0  1  0  0  0  0  0999 V2000
    1.7351    0.7442    1.3813 S   0  0  0  0  0  0  0  0  0  0  0  0
   -1.4738   -0.6696    2.1568 O   0  0  0  0  0  0  0  0  0  0  0  0
    0.1415   -1.8055    0.3125 N   0  0  0  0  0  0  0  0  0  0  0  0
   -0.3786   -0.4688   -0.0146 C   0  0  0  0  0  0  0  0  0  0  0  0
   -1.1750   -0.6009   -1.3333 C   0  0  0  0  0  0  0  0  0  0  0  0
   -2.0040    0.6429   -1.6694 C   0  0  0  0  0  0  0  0  0  0  0  0
   -2.9839    0.9604   -0.5443 C   0  0  0  0  0  0  0  0  0  0  0  0
   -1.3957   -0.0854    1.0749 C   0  0  0  0  0  0  0  0  0  0  0  0
   -2.2739    1.1198    0.7901 C   0  0  0  0  0  0  0  0  0  0  0  0
    0.7813    0.5422   -0.0257 C   0  0  0  0  0  0  0  0  0  0  0  0
    1.1191   -2.2352   -0.6758 C   0  0  0  0  0  0  0  0  0  0  0  0
    1.1950    1.3590   -1.0541 C   0  0  0  0  0  0  0  0  0  0  0  0
    1.6944   -3.5939   -0.3330 C   0  0  0  0  0  0  0  0  0  0  0  0
    2.3113    2.1624   -0.6818 C   0  0  0  0  0  0  0  0  0  0  0  0
    2.7073    1.9283    0.6165 C   0  0  0  0  0  0  0  0  0  0  0  0
  1 10  1  0
  1 15  1  0
  2  8  2  0
  3  4  1  0
  3 11  1  0
  4  5  1  0
  4  8  1  0
  4 10  1  0
  5  6  1  0
  6  7  1  0
  7  9  1  0
  8  9  1  0
 10 12  2  0
 11 13  1  0
 12 14  1  0
 14 15  2  0
M  END
>  <PUBCHEM_COMPOUND_CID>  (1) 
26533

>  <PUBCHEM_CONFORMER_RMSD>  (1) 
0.6

>  <PUBCHEM_CONFORMER_DIVERSEORDER>  (1) 
1
21
6
3
17
15
5
4
18
13
2
19
11
10
16
12
9
20
14
8
7

>  <PUBCHEM_MMFF94_PARTIAL_CHARGES>  (1) 
15
1 -0.08
10 -0.14
11 0.27
12 -0.15
14 -0.15
15 -0.11
2 -0.57
24 0.36
27 0.15
3 -0.9
31 0.15
32 0.15
4 0.51
8 0.45
9 0.06

>  <PUBCHEM_EFFECTIVE_ROTOR_COUNT>  (1) 
4

>  <PUBCHEM_PHARMACOPHORE_FEATURES>  (1) 
5
1 2 acceptor
1 3 cation
1 3 donor
5 1 10 12 14 15 rings
6 4 5 6 7 8 9 rings

>  <PUBCHEM_HEAVY_ATOM_COUNT>  (1) 
15

>  <PUBCHEM_ATOM_DEF_STEREO_COUNT>  (1) 
0

>  <PUBCHEM_ATOM_UDEF_STEREO_COUNT>  (1) 
1

>  <PUBCHEM_BOND_DEF_STEREO_COUNT>  (1) 
0

>  <PUBCHEM_BOND_UDEF_STEREO_COUNT>  (1) 
0

>  <PUBCHEM_ISOTOPIC_ATOM_COUNT>  (1) 
0

>  <PUBCHEM_COMPONENT_COUNT>  (1) 
1

>  <PUBCHEM_CACTVS_TAUTO_COUNT>  (1) 
2

>  <PUBCHEM_CONFORMER_ID>  (1) 
000067A500000001

>  <PUBCHEM_MMFF94_ENERGY>  (1) 
20.6333

>  <PUBCHEM_FEATURE_SELFOVERLAP>  (1) 
25.371

>  <PUBCHEM_SHAPE_FINGERPRINT>  (1) 
1 1 18411976962215340382
12423570 1 11611180988425547969
12716301 132 16444198508387674797
13024252 1 15432539173693430557
13132413 78 17695361273830796504
13299463 15 13542189436684530721
14181834 199 17843946070851313991
14817 1 10173714927919364931
15490181 8 18336815472474467215
15775835 57 17989208165693598033
15852999 172 18187916313775107665
15906896 17 17753598345756698179
16945 1 18196354953601205925
19765921 60 17775279525503415881
20511035 2 17750216153790600348
21296965 12 18114454681990630405
21524375 3 18042947934651522861
21947302 44 18114454561789581261
23419403 2 17682439933181534962
23526113 38 17825393976907231403
23557571 272 17046828002652418140
2748010 2 18263373627851969740
305870 269 18342451534745225340
3250762 1 18261691297857933003
68419 9 16988849328379202635
7364860 26 18271235011241292247
81228 2 17334786769182363586

>  <PUBCHEM_SHAPE_MULTIPOLES>  (1) 
301.69
3.72
3
1.62
0.81
3.1
0.35
-2.1
-0.11
-2.94
-0.55
0.6
-0.18
0.2

>  <PUBCHEM_SHAPE_SELFOVERLAP>  (1) 
611.919

>  <PUBCHEM_SHAPE_VOLUME>  (1) 
177

>  <PUBCHEM_COORDINATE_TYPE>  (1) 
2
5
10

$$$$
