26554
     RDKit          3D

 28 30  0  0  0  0  0  0  0  0999 V2000
    4.4590    1.3756    0.3518 S   0  0  0  0  0  0  0  0  0  0  0  0
    4.5737    1.7778    1.7476 O   0  0  0  0  0  0  0  0  0  0  0  0
    5.0699    2.1910   -0.6884 O   0  0  0  0  0  0  0  0  0  0  0  0
   -3.5349    0.6221   -0.9854 O   0  0  0  0  0  0  0  0  0  0  0  0
   -2.3402    0.5091    0.9960 O   0  0  0  0  0  0  0  0  0  0  0  0
   -4.8742   -3.1698   -0.3011 O   0  0  0  0  0  0  0  0  0  0  0  0
   -3.3868   -1.8333   -1.2069 O   0  0  0  0  0  0  0  0  0  0  0  0
   -1.2809    0.8914   -1.0617 N   0  0  0  0  0  0  0  0  0  0  0  0
   -4.4283   -2.0215   -0.5348 N   0  0  0  0  0  0  0  0  0  0  0  0
    2.7691    1.2330   -0.0645 C   0  0  0  0  0  0  0  0  0  0  0  0
    5.1940   -0.2357    0.2771 C   0  0  0  0  0  0  0  0  0  0  0  0
    2.3656    1.3541   -1.3942 C   0  0  0  0  0  0  0  0  0  0  0  0
    1.8227    0.9982    0.9329 C   0  0  0  0  0  0  0  0  0  0  0  0
    0.0692    1.0049   -0.7292 C   0  0  0  0  0  0  0  0  0  0  0  0
    1.0157    1.2400   -1.7265 C   0  0  0  0  0  0  0  0  0  0  0  0
    0.4728    0.8841    0.6006 C   0  0  0  0  0  0  0  0  0  0  0  0
    5.7440   -0.6678   -0.9147 C   0  0  0  0  0  0  0  0  0  0  0  0
    5.1998   -1.0237    1.4121 C   0  0  0  0  0  0  0  0  0  0  0  0
    6.3218   -1.9358   -0.9736 C   0  0  0  0  0  0  0  0  0  0  0  0
    5.7777   -2.2919    1.3531 C   0  0  0  0  0  0  0  0  0  0  0  0
    6.3388   -2.7480    0.1603 C   0  0  0  0  0  0  0  0  0  0  0  0
   -2.3667    0.6601   -0.2200 C   0  0  0  0  0  0  0  0  0  0  0  0
   -4.6950    0.3941   -0.2379 C   0  0  0  0  0  0  0  0  0  0  0  0
   -5.1274   -0.8950   -0.0205 C   0  0  0  0  0  0  0  0  0  0  0  0
   -5.3636    1.4934    0.2556 C   0  0  0  0  0  0  0  0  0  0  0  0
   -6.2872   -1.0962    0.7279 C   0  0  0  0  0  0  0  0  0  0  0  0
   -6.5234    1.2923    1.0040 C   0  0  0  0  0  0  0  0  0  0  0  0
   -6.9853   -0.0026    1.2402 C   0  0  0  0  0  0  0  0  0  0  0  0
  1  2  2  0
  1  3  2  0
  1 10  1  0
  1 11  1  0
  4 22  1  0
  4 23  1  0
  5 22  2  0
  6  9  1  0
  7  9  2  0
  8 14  1  0
  8 22  1  0
  9 24  1  0
 10 12  2  0
 10 13  1  0
 11 17  2  0
 11 18  1  0
 12 15  1  0
 13 16  2  0
 14 15  2  0
 14 16  1  0
 17 19  1  0
 18 20  2  0
 19 21  2  0
 20 21  1  0
 23 24  2  0
 23 25  1  0
 24 26  1  0
 25 27  2  0
 26 28  2  0
 27 28  1  0
M  CHG  2   6  -1   9   1
M  END
>  <PUBCHEM_COMPOUND_CID>  (1) 
26554

>  <PUBCHEM_CONFORMER_RMSD>  (1) 
0.8

>  <PUBCHEM_CONFORMER_DIVERSEORDER>  (1) 
1
59
57
41
6
44
60
19
56
54
10
46
18
14
52
11
62
51
45
40
21
23
29
24
43
20
42
61
4
5
38
48
49
7
50
47
3
8
55
12
34
13
33
36
32
53
22
17
31
35
58
30
39
25
26
9
27
37
2
28
16
15

>  <PUBCHEM_MMFF94_PARTIAL_CHARGES>  (1) 
42
1 1.32
10 -0.01
11 -0.01
12 -0.15
13 -0.15
14 0.12
15 -0.15
16 -0.15
17 -0.15
18 -0.15
19 -0.15
2 -0.65
20 -0.15
21 -0.15
22 0.78
23 0.08
24 0.13
25 -0.15
26 -0.15
27 -0.15
28 -0.15
29 0.15
3 -0.65
30 0.15
31 0.15
32 0.15
33 0.15
34 0.15
35 0.15
36 0.15
37 0.37
38 0.15
39 0.15
4 -0.23
40 0.15
41 0.15
42 0.15
5 -0.57
6 -0.52
7 -0.52
8 -0.55
9 0.91

>  <PUBCHEM_EFFECTIVE_ROTOR_COUNT>  (1) 
7

>  <PUBCHEM_PHARMACOPHORE_FEATURES>  (1) 
10
1 2 acceptor
1 3 acceptor
1 5 acceptor
1 6 acceptor
1 6 anion
1 7 acceptor
1 8 donor
6 10 12 13 14 15 16 rings
6 11 17 18 19 20 21 rings
6 23 24 25 26 27 28 rings

>  <PUBCHEM_HEAVY_ATOM_COUNT>  (1) 
28

>  <PUBCHEM_ATOM_DEF_STEREO_COUNT>  (1) 
0

>  <PUBCHEM_ATOM_UDEF_STEREO_COUNT>  (1) 
0

>  <PUBCHEM_BOND_DEF_STEREO_COUNT>  (1) 
0

>  <PUBCHEM_BOND_UDEF_STEREO_COUNT>  (1) 
0

>  <PUBCHEM_ISOTOPIC_ATOM_COUNT>  (1) 
0

>  <PUBCHEM_COMPONENT_COUNT>  (1) 
1

>  <PUBCHEM_CACTVS_TAUTO_COUNT>  (1) 
2

>  <PUBCHEM_CONFORMER_ID>  (1) 
000067BA00000001

>  <PUBCHEM_MMFF94_ENERGY>  (1) 
80.0113

>  <PUBCHEM_FEATURE_SELFOVERLAP>  (1) 
50.847

>  <PUBCHEM_SHAPE_FINGERPRINT>  (1) 
10 15 16272205297468192480
10316853 100 18186804660734358914
10319926 262 18060135449188117321
11101153 10 9007051371118750283
11331351 85 18113057112618356205
11387372 6 17895202147208914123
11524674 6 17561361773488391711
11719270 70 17489310758717713014
11796584 16 18272373079070195790
11991303 11 14346088545912470657
12166972 35 18187652400783306340
12236239 1 18260551147465964257
12422481 6 18131349713302195038
12616971 3 17346588677908160628
13533116 47 18409730673298805304
1361 4 18264490761467531658
13668630 136 17095245856522549401
13685833 64 18260549996303523960
13690498 29 17458622259615334908
13782708 43 18408599262283796215
13835254 42 18186801353657585724
14211702 104 18262802989744233875
14347332 77 17968090872482539460
14347424 109 17917705799774539936
14420673 8 18412266121237086271
14739800 52 10303814246555882918
15001296 14 18041835241853563714
15183329 4 18260824908111582223
15289351 153 9367344830861955582
15348495 7 17917426579175514105
15352257 5 18260832583307895546
15475509 35 18339073801551098346
15799311 1 18261969504095460322
15961568 22 9583516512266989587
16096371 109 15482674537925994782
16110190 28 18412261723164441887
18927931 339 16515405175616468201
20715895 44 11455880374403557078
21033648 29 15769784533356826081
21130935 74 18411420639502218339
21150785 3 12324249377373974273
21599406 157 13767920196095521571
21641784 216 14418127379681033438
21792934 111 15769504110309479889
21792965 106 13973967592835866618
220451 1 18410296946965992036
2303208 19 17967527956646159396
23081809 10 17989201581550912061
23516275 137 18195270869776572170
23522609 53 17898321366358496500
23559900 14 18271518793037960409
23569943 247 17823411587391247986
2748736 6 11671774966605237618
2838139 119 8790876377070091222
3004659 81 18411421700712301628
312425 54 18341890813816215635
34797466 226 13623538930843309498
3663271 9 18271805773703548713
3886686 26 16765654872064012554
4072396 5 16200430252396991644
4073 2 18190745426160772200
465052 167 18412544272267501022
5104073 3 18060136582737847241
5372103 7 13841422626845729526
543368 44 10519984868543553295
57091435 61 10159688102340272654
9831232 110 18260829242213690390

>  <PUBCHEM_SHAPE_MULTIPOLES>  (1) 
534.9
21.48
2.66
1.43
8.18
1.73
0.05
10.24
4.75
-1.95
-0.19
-0.81
-0.14
-0.9

>  <PUBCHEM_SHAPE_SELFOVERLAP>  (1) 
1155.36

>  <PUBCHEM_SHAPE_VOLUME>  (1) 
291.8

>  <PUBCHEM_COORDINATE_TYPE>  (1) 
2
5
10

$$$$
