26566
     RDKit          3D

 20 23  0  0  0  0  0  0  0  0999 V2000
   -0.4532    0.5502    0.0003 C   0  0  0  0  0  0  0  0  0  0  0  0
    0.4534   -0.5501    0.0003 C   0  0  0  0  0  0  0  0  0  0  0  0
   -1.8811    0.3286    0.0004 C   0  0  0  0  0  0  0  0  0  0  0  0
    1.8813   -0.3286    0.0003 C   0  0  0  0  0  0  0  0  0  0  0  0
    0.1075    1.8436    0.0003 C   0  0  0  0  0  0  0  0  0  0  0  0
   -0.1074   -1.8436    0.0002 C   0  0  0  0  0  0  0  0  0  0  0  0
   -2.3759   -0.9975   -0.0001 C   0  0  0  0  0  0  0  0  0  0  0  0
    2.3759    0.9975   -0.0001 C   0  0  0  0  0  0  0  0  0  0  0  0
    1.4830    2.0639   -0.0001 C   0  0  0  0  0  0  0  0  0  0  0  0
   -1.4830   -2.0640   -0.0002 C   0  0  0  0  0  0  0  0  0  0  0  0
   -2.8576    1.3600    0.0009 C   0  0  0  0  0  0  0  0  0  0  0  0
    2.8576   -1.3599    0.0006 C   0  0  0  0  0  0  0  0  0  0  0  0
   -0.6274    3.1482   -0.0020 C   0  0  0  0  0  0  0  0  0  0  0  0
    0.6268   -3.1487   -0.0016 C   0  0  0  0  0  0  0  0  0  0  0  0
   -3.7581   -1.2555   -0.0003 C   0  0  0  0  0  0  0  0  0  0  0  0
    3.7581    1.2556   -0.0001 C   0  0  0  0  0  0  0  0  0  0  0  0
   -4.2303    1.0942    0.0006 C   0  0  0  0  0  0  0  0  0  0  0  0
    4.2304   -1.0941    0.0004 C   0  0  0  0  0  0  0  0  0  0  0  0
   -4.6811   -0.2156    0.0000 C   0  0  0  0  0  0  0  0  0  0  0  0
    4.6811    0.2157    0.0001 C   0  0  0  0  0  0  0  0  0  0  0  0
  1  2  1  0
  1  3  1  0
  1  5  2  0
  2  4  2  0
  2  6  1  0
  3  7  2  0
  3 11  1  0
  4  8  1  0
  4 12  1  0
  5  9  1  0
  5 13  1  0
  6 10  2  0
  6 14  1  0
  7 10  1  0
  7 15  1  0
  8  9  2  0
  8 16  1  0
 11 17  2  0
 12 18  2  0
 15 19  2  0
 16 20  2  0
 17 19  1  0
 18 20  1  0
M  END
>  <PUBCHEM_COMPOUND_CID>  (1) 
26566

>  <PUBCHEM_CONFORMER_RMSD>  (1) 
0.6

>  <PUBCHEM_CONFORMER_DIVERSEORDER>  (1) 
1

>  <PUBCHEM_MMFF94_PARTIAL_CHARGES>  (1) 
24
10 -0.15
11 -0.15
12 -0.15
13 0.14
14 0.14
15 -0.15
16 -0.15
17 -0.15
18 -0.15
19 -0.15
20 -0.15
21 0.15
22 0.15
23 0.15
24 0.15
31 0.15
32 0.15
33 0.15
34 0.15
35 0.15
36 0.15
5 -0.14
6 -0.14
9 -0.15

>  <PUBCHEM_EFFECTIVE_ROTOR_COUNT>  (1) 
0

>  <PUBCHEM_PHARMACOPHORE_FEATURES>  (1) 
4
6 1 2 3 6 7 10 rings
6 1 2 4 5 8 9 rings
6 3 7 11 15 17 19 rings
6 4 8 12 16 18 20 rings

>  <PUBCHEM_HEAVY_ATOM_COUNT>  (1) 
20

>  <PUBCHEM_ATOM_DEF_STEREO_COUNT>  (1) 
0

>  <PUBCHEM_ATOM_UDEF_STEREO_COUNT>  (1) 
0

>  <PUBCHEM_BOND_DEF_STEREO_COUNT>  (1) 
0

>  <PUBCHEM_BOND_UDEF_STEREO_COUNT>  (1) 
0

>  <PUBCHEM_ISOTOPIC_ATOM_COUNT>  (1) 
0

>  <PUBCHEM_COMPONENT_COUNT>  (1) 
1

>  <PUBCHEM_CACTVS_TAUTO_COUNT>  (1) 
1

>  <PUBCHEM_CONFORMER_ID>  (1) 
000067C600000001

>  <PUBCHEM_MMFF94_ENERGY>  (1) 
104.929

>  <PUBCHEM_FEATURE_SELFOVERLAP>  (1) 
20.367

>  <PUBCHEM_SHAPE_FINGERPRINT>  (1) 
10062212 137 18411692197272919535
10411042 1 16681192055482374986
10616163 171 18339080380480756611
10693767 8 18130206195745634863
10967382 1 18410575071794046758
1100329 8 18338516477012869305
11132069 177 18411695482843500520
11471102 20 18410570690937934991
11680986 33 18122062271599204001
12011746 2 18410856559639789924
12403259 226 18266174127339665537
12403814 3 17603300453632128381
12592029 89 18408325458240463763
12788726 201 18200605717637647424
12838862 33 18338496599989067504
13132413 78 18412545422633089829
13140716 1 18410856572524691833
13583140 156 14404899129206134606
138480 1 17834114143450562630
13862211 1 18410568479019604675
14178342 30 17692234653729831560
14223421 5 18122344579667655663
14790565 3 18410865347159474472
15099037 51 18410292523160025223
15196674 1 18410575093253013505
15442244 35 18411136982365356448
15536298 74 18342738537502815632
16945 1 18194682570640195590
17804303 29 18411984693024838021
1813 80 17385722508690901692
193761 8 17762055441241604101
19591789 44 18410574011106189539
200 152 18059851783983794469
20028762 73 18057604463727197263
20510252 161 18271525304044753376
20905425 154 18053102826403203006
21029758 11 18341609343445948633
21267235 1 18410583893688794090
21279426 13 18266741268484719093
21421861 104 17899417480555540019
221490 88 18191593162273344883
2334 1 18338799038616305671
23402539 116 18271800237532778758
23463225 33 18408885139591435764
23559900 14 18343300388604252056
23566358 2 17979634541687568902
2748010 2 18410856606884429871
3004659 81 18261116241119613550
335352 9 18338516322394046903
34934 24 18339356491660395640
350125 39 18265901431260212273
43471831 8 18263641775535053130
495365 180 17346307254765898042
5104073 3 18410856581114627024
59755656 215 18265335014814665223
6138700 20 18338520712595142678
69090 78 18413105090988923198
7364860 26 18268712710145630711
7832392 63 18268425913814859230
9709674 26 18412269466542057702

>  <PUBCHEM_SHAPE_MULTIPOLES>  (1) 
411.59
8.03
2.98
0.62
0
0
0
0
0
0
0
0
0
0

>  <PUBCHEM_SHAPE_SELFOVERLAP>  (1) 
940.552

>  <PUBCHEM_SHAPE_VOLUME>  (1) 
197.7

>  <PUBCHEM_COORDINATE_TYPE>  (1) 
2
5
10

$$$$
