26562
     RDKit          3D

 22 25  0  0  1  0  0  0  0  0999 V2000
   -8.0188   -0.7980    0.0613 F   0  0  0  0  0  0  0  0  0  0  0  0
   -2.3657    1.9183   -0.0863 O   0  0  0  0  0  0  0  0  0  0  0  0
    2.2303   -0.3149    0.0295 N   0  0  0  0  0  0  0  0  0  0  0  0
    4.2753    0.4295   -0.9005 C   0  0  0  0  0  0  0  0  0  0  0  0
    4.2090    0.6834    0.6328 C   0  0  0  0  0  0  0  0  0  0  0  0
    5.5075   -0.5083   -1.0247 C   0  0  0  0  0  0  0  0  0  0  0  0
    5.4009   -0.1351    1.1788 C   0  0  0  0  0  0  0  0  0  0  0  0
    5.4157   -1.3566    0.2480 C   0  0  0  0  0  0  0  0  0  0  0  0
    2.9372   -0.2006   -1.2685 C   0  0  0  0  0  0  0  0  0  0  0  0
    2.8825    0.1368    1.0352 C   0  0  0  0  0  0  0  0  0  0  0  0
    6.7251    0.3102   -0.6473 C   0  0  0  0  0  0  0  0  0  0  0  0
    6.6605    0.5333    0.6750 C   0  0  0  0  0  0  0  0  0  0  0  0
    0.8895   -0.9168    0.1003 C   0  0  0  0  0  0  0  0  0  0  0  0
   -0.1535    0.1873   -0.0295 C   0  0  0  0  0  0  0  0  0  0  0  0
   -1.5817   -0.3626   -0.0023 C   0  0  0  0  0  0  0  0  0  0  0  0
   -2.6476    0.7230   -0.0464 C   0  0  0  0  0  0  0  0  0  0  0  0
   -4.0818    0.3170   -0.0187 C   0  0  0  0  0  0  0  0  0  0  0  0
   -4.3878   -1.0241    0.0457 C   0  0  0  0  0  0  0  0  0  0  0  0
   -5.0475    1.2977   -0.0576 C   0  0  0  0  0  0  0  0  0  0  0  0
   -5.7297   -1.4041    0.0724 C   0  0  0  0  0  0  0  0  0  0  0  0
   -6.3893    0.9177   -0.0310 C   0  0  0  0  0  0  0  0  0  0  0  0
   -6.7303   -0.4332    0.0339 C   0  0  0  0  0  0  0  0  0  0  0  0
  1 22  1  0
  2 16  2  0
  3  9  1  0
  3 10  2  0
  3 13  1  0
  4  5  1  0
  4  6  1  0
  4  9  1  0
  5  7  1  0
  5 10  1  0
  6  8  1  0
  6 11  1  0
  7  8  1  0
  7 12  1  0
 11 12  2  0
 13 14  1  0
 14 15  1  0
 15 16  1  0
 16 17  1  0
 17 18  2  0
 17 19  1  0
 18 20  1  0
 19 21  2  0
 20 22  2  0
 21 22  1  0
M  CHG  1   3   1
M  END
>  <PUBCHEM_COMPOUND_CID>  (1) 
26562

>  <PUBCHEM_CONFORMER_RMSD>  (1) 
0.8

>  <PUBCHEM_CONFORMER_DIVERSEORDER>  (1) 
1
124
106
146
44
129
145
138
136
225
160
57
152
16
191
165
118
133
197
65
83
149
114
3
178
9
211
130
204
169
91
183
132
217
33
81
162
46
122
111
182
121
188
176
69
150
143
48
40
32
131
12
210
119
56
185
94
173
38
61
212
154
128
155
18
109
167
157
101
62
205
196
75
99
72
142
104
51
97
180
84
59
156
134
50
45
10
25
20
68
67
125
26
209
139
52
53
190
15
74
55
206
168
63
181
31
126
4
7
166
110
13
5
11
175
213
64
222
192
120
107
159
17
208
23
147
27
108
95
186
216
103
171
70
219
88
30
2
202
47
141
36
35
161
153
29
60
22
54
49
223
224
200
86
37
85
115
148
89
163
214
34
41
76
201
215
96
151
123
199
39
105
220
112
82
218
158
90
170
58
164
179
194
73
42
140
117
203
14
43
116
102
172
78
28
19
137
135
8
193
207
98
144
195
177
66
6
127
71
24
87
93
100
92
80
174
221
184
79
189
187
113
198
21
77

>  <PUBCHEM_MMFF94_PARTIAL_CHARGES>  (1) 
26
1 -0.19
10 0.28
11 -0.29
12 -0.29
13 0.35
15 0.06
16 0.42
17 0.09
18 -0.15
19 -0.15
2 -0.57
20 -0.15
21 -0.15
22 0.19
3 -0.09
31 0.06
32 0.15
33 0.15
40 0.15
41 0.15
42 0.15
43 0.15
5 0.06
6 0.14
7 0.14
9 0.35

>  <PUBCHEM_EFFECTIVE_ROTOR_COUNT>  (1) 
5.4

>  <PUBCHEM_PHARMACOPHORE_FEATURES>  (1) 
4
1 2 acceptor
5 3 4 5 9 10 rings
6 17 18 19 20 21 22 rings
7 4 5 6 7 8 11 12 rings

>  <PUBCHEM_HEAVY_ATOM_COUNT>  (1) 
22

>  <PUBCHEM_ATOM_DEF_STEREO_COUNT>  (1) 
0

>  <PUBCHEM_ATOM_UDEF_STEREO_COUNT>  (1) 
4

>  <PUBCHEM_BOND_DEF_STEREO_COUNT>  (1) 
0

>  <PUBCHEM_BOND_UDEF_STEREO_COUNT>  (1) 
0

>  <PUBCHEM_ISOTOPIC_ATOM_COUNT>  (1) 
0

>  <PUBCHEM_COMPONENT_COUNT>  (1) 
1

>  <PUBCHEM_CACTVS_TAUTO_COUNT>  (1) 
2

>  <PUBCHEM_CONFORMER_ID>  (1) 
000067C200000001

>  <PUBCHEM_MMFF94_ENERGY>  (1) 
73.5259

>  <PUBCHEM_FEATURE_SELFOVERLAP>  (1) 
20.393

>  <PUBCHEM_SHAPE_FINGERPRINT>  (1) 
10 15 18201993361625481096
10299344 5 18040154020071131179
10595046 47 18187927239966206496
10968037 39 18335138696690275975
11315181 36 18408044022820278569
11524674 6 16845572037337123743
11646440 116 17418094325608864848
11719270 70 18343581811361393086
12091667 2 17385724686750737309
12166972 35 17749111097233718140
12236239 1 17821728325319766948
12516196 113 18413670210022317137
12730499 353 17561085791748348566
12916748 109 18343582928474181424
13073987 5 17274828991338602426
13533116 47 17095515163466559704
13668630 136 16370728127786243643
13914758 101 15864344719351819717
14123256 10 18260547831729697083
14170010 4 16774074090448808528
1420 363 18202846556441013687
14251764 18 17749109997499913557
14251764 46 17749108894379133587
14933364 13 18272652346085595504
15183329 4 16515402971364373993
15419008 47 17989484113016069353
15716309 27 17704352173832089119
17844677 252 17988929972056038657
19489759 90 18259704493494875761
20157964 124 17132113550927765304
20281389 69 18259982665088062189
21150785 3 18187369844085903052
21267235 1 18336831979136072627
21521721 280 16558746845366442738
21623969 137 16773802497558823767
221357 26 17132113520457261216
22224240 67 16225765238120940696
23035841 295 18335139791590464475
23081809 10 17603866676166045008
23559900 14 18115025350564992929
29717793 49 17603589612664059894
34797466 226 17988931089306555236
3545911 37 17989205945026233198
4073 2 18040721410989627722
4325135 7 18113336414678340863
4340502 62 17775286054133475862
5283156 175 18040714749626693691
542803 24 17675925395564330806
59682541 35 18272650203440331443
59755656 215 18343024363276681366
59755656 520 17022900181505987595

>  <PUBCHEM_SHAPE_MULTIPOLES>  (1) 
434.63
22.9
1.25
0.95
14.3
0.06
0.04
-1.47
-0.37
1.22
-0.02
-1.52
0
0.24

>  <PUBCHEM_SHAPE_SELFOVERLAP>  (1) 
953.704

>  <PUBCHEM_SHAPE_VOLUME>  (1) 
241.4

>  <PUBCHEM_COORDINATE_TYPE>  (1) 
2
5
10

$$$$
