26565
     RDKit          3D

 10  9  0  0  0  0  0  0  0  0999 V2000
    0.3034    2.4450    0.3131 O   0  0  0  0  0  0  0  0  0  0  0  0
    0.4000    0.0020    0.0777 C   0  0  0  0  0  0  0  0  0  0  0  0
   -0.9888    0.0059   -0.6449 C   0  0  0  0  0  0  0  0  0  0  0  0
    1.4750    0.0920   -1.0551 C   0  0  0  0  0  0  0  0  0  0  0  0
    0.5928   -1.2696    0.9557 C   0  0  0  0  0  0  0  0  0  0  0  0
    0.5165    1.2307    1.0204 C   0  0  0  0  0  0  0  0  0  0  0  0
   -2.2226   -0.0757    0.2615 C   0  0  0  0  0  0  0  0  0  0  0  0
    2.9291    0.1538   -0.6021 C   0  0  0  0  0  0  0  0  0  0  0  0
    0.5019   -2.6033    0.2244 C   0  0  0  0  0  0  0  0  0  0  0  0
   -3.5072    0.0193   -0.5507 C   0  0  0  0  0  0  0  0  0  0  0  0
  1  6  1  0
  2  3  1  0
  2  4  1  0
  2  5  1  0
  2  6  1  0
  3  7  1  0
  4  8  1  0
  5  9  1  0
  7 10  1  0
M  END
>  <PUBCHEM_COMPOUND_CID>  (1) 
26565

>  <PUBCHEM_CONFORMER_RMSD>  (1) 
0.6

>  <PUBCHEM_CONFORMER_DIVERSEORDER>  (1) 
1
6
13
4
2
7
5
14
10
9
15
11
3
12
8

>  <PUBCHEM_MMFF94_PARTIAL_CHARGES>  (1) 
3
1 -0.68
30 0.4
6 0.28

>  <PUBCHEM_EFFECTIVE_ROTOR_COUNT>  (1) 
5

>  <PUBCHEM_PHARMACOPHORE_FEATURES>  (1) 
6
1 1 acceptor
1 1 donor
1 10 hydrophobe
1 8 hydrophobe
1 9 hydrophobe
5 2 3 4 5 7 hydrophobe

>  <PUBCHEM_HEAVY_ATOM_COUNT>  (1) 
10

>  <PUBCHEM_ATOM_DEF_STEREO_COUNT>  (1) 
0

>  <PUBCHEM_ATOM_UDEF_STEREO_COUNT>  (1) 
0

>  <PUBCHEM_BOND_DEF_STEREO_COUNT>  (1) 
0

>  <PUBCHEM_BOND_UDEF_STEREO_COUNT>  (1) 
0

>  <PUBCHEM_ISOTOPIC_ATOM_COUNT>  (1) 
0

>  <PUBCHEM_COMPONENT_COUNT>  (1) 
1

>  <PUBCHEM_CACTVS_TAUTO_COUNT>  (1) 
1

>  <PUBCHEM_CONFORMER_ID>  (1) 
000067C500000001

>  <PUBCHEM_MMFF94_ENERGY>  (1) 
17.7777

>  <PUBCHEM_FEATURE_SELFOVERLAP>  (1) 
30.472

>  <PUBCHEM_SHAPE_FINGERPRINT>  (1) 
12138202 97 17976543028807822068
12423570 1 12091939930719613210
12932764 1 18340193151490097343
137420 1 10831140173476678534
14128692 85 18047752589853322207
16945 1 18188506699794941166
187816 3 18339654394792081316
21040471 1 18117272777431628987
21930827 45 17975973481684296816
23235685 24 17748823042503661895
23552423 10 17974853860998821195
2748010 2 18048314741348560123
29004967 10 17632028510580207126
3250762 1 17691411132252379088
4369600 1 18413672404681637442
5084963 1 18058731450059239769
528862 383 18040989596999835970
68250623 7 17836660621064637922

>  <PUBCHEM_SHAPE_MULTIPOLES>  (1) 
199.93
3.7
2.07
1.05
2.63
0.53
0.02
-0.25
-1.3
-0.69
0.6
-0.22
-0.07
-0.07

>  <PUBCHEM_SHAPE_SELFOVERLAP>  (1) 
359.802

>  <PUBCHEM_SHAPE_VOLUME>  (1) 
129.9

>  <PUBCHEM_COORDINATE_TYPE>  (1) 
2
5
10

$$$$
