26579
     RDKit          3D

 14 14  0  0  0  0  0  0  0  0999 V2000
    0.9094    0.4082   -0.9065 O   0  0  0  0  0  0  0  0  0  0  0  0
    3.1034    0.2702   -0.4233 O   0  0  0  0  0  0  0  0  0  0  0  0
   -1.1840   -2.6644    0.8019 O   0  0  0  0  0  0  0  0  0  0  0  0
    0.2326   -2.2657   -0.9304 O   0  0  0  0  0  0  0  0  0  0  0  0
    1.6215    0.6422    1.3026 O   0  0  0  0  0  0  0  0  0  0  0  0
   -1.1580   -0.5042   -0.1010 C   0  0  0  0  0  0  0  0  0  0  0  0
   -0.3743    0.5843   -0.4836 C   0  0  0  0  0  0  0  0  0  0  0  0
   -2.4697   -0.3026    0.3286 C   0  0  0  0  0  0  0  0  0  0  0  0
   -0.9021    1.8746   -0.4362 C   0  0  0  0  0  0  0  0  0  0  0  0
   -2.9976    0.9876    0.3758 C   0  0  0  0  0  0  0  0  0  0  0  0
   -2.2137    2.0762   -0.0066 C   0  0  0  0  0  0  0  0  0  0  0  0
   -0.6265   -1.8595   -0.1427 C   0  0  0  0  0  0  0  0  0  0  0  0
    1.8661    0.4586    0.1169 C   0  0  0  0  0  0  0  0  0  0  0  0
    4.1928    0.2947    0.5047 C   0  0  0  0  0  0  0  0  0  0  0  0
  1  7  1  0
  1 13  1  0
  2 13  1  0
  2 14  1  0
  3 12  1  0
  4 12  2  0
  5 13  2  0
  6  7  2  0
  6  8  1  0
  6 12  1  0
  7  9  1  0
  8 10  2  0
  9 11  2  0
 10 11  1  0
M  END
>  <PUBCHEM_COMPOUND_CID>  (1) 
26579

>  <PUBCHEM_CONFORMER_RMSD>  (1) 
0.6

>  <PUBCHEM_CONFORMER_DIVERSEORDER>  (1) 
1
20
16
4
7
17
8
25
19
18
15
2
3
24
23
6
5
10
22
9
21
11
12
14
13

>  <PUBCHEM_MMFF94_PARTIAL_CHARGES>  (1) 
19
1 -0.23
10 -0.15
11 -0.15
12 0.63
13 0.87
14 0.28
15 0.15
16 0.15
17 0.15
18 0.15
19 0.5
2 -0.43
3 -0.65
4 -0.57
5 -0.57
6 0.09
7 0.08
8 -0.15
9 -0.15

>  <PUBCHEM_EFFECTIVE_ROTOR_COUNT>  (1) 
4

>  <PUBCHEM_PHARMACOPHORE_FEATURES>  (1) 
4
1 3 acceptor
1 4 acceptor
3 3 4 12 anion
6 6 7 8 9 10 11 rings

>  <PUBCHEM_HEAVY_ATOM_COUNT>  (1) 
14

>  <PUBCHEM_ATOM_DEF_STEREO_COUNT>  (1) 
0

>  <PUBCHEM_ATOM_UDEF_STEREO_COUNT>  (1) 
0

>  <PUBCHEM_BOND_DEF_STEREO_COUNT>  (1) 
0

>  <PUBCHEM_BOND_UDEF_STEREO_COUNT>  (1) 
0

>  <PUBCHEM_ISOTOPIC_ATOM_COUNT>  (1) 
0

>  <PUBCHEM_COMPONENT_COUNT>  (1) 
1

>  <PUBCHEM_CACTVS_TAUTO_COUNT>  (1) 
1

>  <PUBCHEM_CONFORMER_ID>  (1) 
000067D300000001

>  <PUBCHEM_MMFF94_ENERGY>  (1) 
44.8845

>  <PUBCHEM_FEATURE_SELFOVERLAP>  (1) 
20.355

>  <PUBCHEM_SHAPE_FINGERPRINT>  (1) 
13024252 1 14129051509036306845
13380535 76 18411699846498761191
15076042 46 18264775522130367365
15309172 13 18335704897053284265
15669948 3 18336830913314335316
15775835 57 18342175522956151489
16945 1 18334582364390011781
193761 8 17689723377830640133
19422 9 17749395879545690456
20510252 161 18343023272207249665
20645464 45 18131350812755435916
20871998 184 18269281325123686991
21501502 16 18124027923854697093
21524375 3 18341326695758361447
22344851 341 18050013190339560883
23402539 116 18342448292482611199
23559900 14 18201725025391539764
257057 1 17550094209717138959
2748010 2 18119547439851947341
305870 269 18192148192227860009
3250762 1 17251170614928874477
43471831 8 18262236612512152083
4663303 62 17842284661627028383
53812653 166 18272374114036131089
5706482 22 18339070515035797395
7364860 26 17838899226944440447
81228 2 18122606504042886249

>  <PUBCHEM_SHAPE_MULTIPOLES>  (1) 
258.77
4.88
2.36
0.9
4.93
1.44
-0.06
-1.94
-1.04
-1.39
0.05
0.2
0.07
0.27

>  <PUBCHEM_SHAPE_SELFOVERLAP>  (1) 
542.913

>  <PUBCHEM_SHAPE_VOLUME>  (1) 
144

>  <PUBCHEM_COORDINATE_TYPE>  (1) 
2
5
10

$$$$
