26577
     RDKit          3D

 11 10  0  0  0  0  0  0  0  0999 V2000
   -2.3949    0.0693   -0.5044 S   0  0  0  0  0  0  0  0  0  0  0  0
    0.5747   -0.3376    0.2438 O   0  0  0  0  0  0  0  0  0  0  0  0
    2.4084   -1.5381   -0.4596 O   0  0  0  0  0  0  0  0  0  0  0  0
   -1.6626   -1.1978    0.5758 C   0  0  0  0  0  0  0  0  0  0  0  0
   -0.2330   -1.5170    0.1670 C   0  0  0  0  0  0  0  0  0  0  0  0
   -4.0225    0.1645    0.2745 C   0  0  0  0  0  0  0  0  0  0  0  0
   -4.8949    1.1814   -0.4366 C   0  0  0  0  0  0  0  0  0  0  0  0
    1.8822   -0.4946   -0.0995 C   0  0  0  0  0  0  0  0  0  0  0  0
    2.5919    0.8086    0.0299 C   0  0  0  0  0  0  0  0  0  0  0  0
    1.8523    2.0309    0.4806 C   0  0  0  0  0  0  0  0  0  0  0  0
    3.8985    0.8304   -0.2714 C   0  0  0  0  0  0  0  0  0  0  0  0
  1  4  1  0
  1  6  1  0
  2  5  1  0
  2  8  1  0
  3  8  2  0
  4  5  1  0
  6  7  1  0
  8  9  1  0
  9 10  1  0
  9 11  2  0
M  END
>  <PUBCHEM_COMPOUND_CID>  (1) 
26577

>  <PUBCHEM_CONFORMER_RMSD>  (1) 
0.6

>  <PUBCHEM_CONFORMER_DIVERSEORDER>  (1) 
1
253
30
135
79
155
183
117
149
251
26
120
60
210
20
137
247
72
152
224
167
105
134
245
161
181
115
98
193
92
70
237
116
74
131
211
219
132
142
49
3
229
242
238
14
147
125
205
216
171
227
133
239
231
78
82
240
29
200
17
248
203
178
199
195
18
84
138
127
112
89
234
172
249
106
68
232
4
128
94
201
166
230
16
25
244
64
13
186
188
197
250
54
194
243
58
110
158
184
76
37
221
24
10
214
81
233
215
108
95
148
241
252
151
187
119
159
62
114
209
34
107
71
5
55
91
207
121
104
191
40
176
225
222
56
129
96
189
101
228
169
236
2
217
220
51
50
162
144
57
38
160
163
28
246
174
7
77
27
179
61
35
43
53
118
44
23
212
45
73
69
97
141
206
157
139
87
146
154
22
143
208
85
103
67
9
145
190
86
168
19
170
113
196
218
48
66
122
80
202
52
63
88
47
8
42
93
123
192
33
153
156
136
75
235
39
213
99
11
180
59
6
12
164
126
21
124
100
165
31
111
177
65
102
41
46
182
204
140
185
226
36
173
109
83
198
150
32
175
130
223
15
90

>  <PUBCHEM_MMFF94_PARTIAL_CHARGES>  (1) 
12
1 -0.46
10 0.14
11 -0.3
2 -0.43
24 0.15
25 0.15
3 -0.57
4 0.23
5 0.28
6 0.23
8 0.71
9 -0.12

>  <PUBCHEM_EFFECTIVE_ROTOR_COUNT>  (1) 
6

>  <PUBCHEM_PHARMACOPHORE_FEATURES>  (1) 
2
1 3 acceptor
1 7 hydrophobe

>  <PUBCHEM_HEAVY_ATOM_COUNT>  (1) 
11

>  <PUBCHEM_ATOM_DEF_STEREO_COUNT>  (1) 
0

>  <PUBCHEM_ATOM_UDEF_STEREO_COUNT>  (1) 
0

>  <PUBCHEM_BOND_DEF_STEREO_COUNT>  (1) 
0

>  <PUBCHEM_BOND_UDEF_STEREO_COUNT>  (1) 
0

>  <PUBCHEM_ISOTOPIC_ATOM_COUNT>  (1) 
0

>  <PUBCHEM_COMPONENT_COUNT>  (1) 
1

>  <PUBCHEM_CACTVS_TAUTO_COUNT>  (1) 
1

>  <PUBCHEM_CONFORMER_ID>  (1) 
000067D100000001

>  <PUBCHEM_MMFF94_ENERGY>  (1) 
14.2674

>  <PUBCHEM_FEATURE_SELFOVERLAP>  (1) 
10.148

>  <PUBCHEM_SHAPE_FINGERPRINT>  (1) 
10608611 8 18338234989357062985
11471102 20 18413388713470114542
122479 349 18259988201685788291
13922767 16 18410007723878582026
14252887 29 12613025076891172152
15775835 57 18334012804539859671
177051 138 9583518720111521627
17834072 32 18189341345280329780
17834072 33 18273205410036917709
18186145 218 18272661129699852187
20606313 2 18341894069364521844
20645477 70 18201725002894005647
21119208 17 17203892967806714125
212847 35 18261109647263249413
23402539 116 18341885316284489348
23402655 69 18273495663193765949
23500284 214 18187086169859089947
25 1 18410571790428613055
548570 60 18260264149118905189

>  <PUBCHEM_SHAPE_MULTIPOLES>  (1) 
218.49
8.42
1.8
0.74
6.84
0.13
0
4.02
1
-0.58
-0.14
0.13
0.02
0.56

>  <PUBCHEM_SHAPE_SELFOVERLAP>  (1) 
392.817

>  <PUBCHEM_SHAPE_VOLUME>  (1) 
142.2

>  <PUBCHEM_COORDINATE_TYPE>  (1) 
2
5
10

$$$$
