26587
     RDKit          3D

 19 21  0  0  0  0  0  0  0  0999 V2000
    2.2527    2.8119    1.1957 O   0  0  0  0  0  0  0  0  0  0  0  0
    2.3439    2.9476   -1.0714 O   0  0  0  0  0  0  0  0  0  0  0  0
   -0.2262   -1.2673    0.0059 N   0  0  0  0  0  0  0  0  0  0  0  0
   -5.0540   -0.1087    0.0057 N   0  0  0  0  0  0  0  0  0  0  0  0
    1.9154   -0.1626   -0.0173 C   0  0  0  0  0  0  0  0  0  0  0  0
    1.1190   -1.3268    0.0024 C   0  0  0  0  0  0  0  0  0  0  0  0
    1.2674    1.0799   -0.0337 C   0  0  0  0  0  0  0  0  0  0  0  0
   -0.8127   -0.0484   -0.0103 C   0  0  0  0  0  0  0  0  0  0  0  0
   -0.1185    1.1443   -0.0302 C   0  0  0  0  0  0  0  0  0  0  0  0
   -2.2562   -0.0693   -0.0048 C   0  0  0  0  0  0  0  0  0  0  0  0
    3.3171   -0.2617   -0.0202 C   0  0  0  0  0  0  0  0  0  0  0  0
    1.7631   -2.5607    0.0188 C   0  0  0  0  0  0  0  0  0  0  0  0
    3.9350   -1.5088   -0.0037 C   0  0  0  0  0  0  0  0  0  0  0  0
    3.1567   -2.6595    0.0158 C   0  0  0  0  0  0  0  0  0  0  0  0
   -2.9612   -0.0971   -1.2046 C   0  0  0  0  0  0  0  0  0  0  0  0
   -2.9526   -0.0614    1.2003 C   0  0  0  0  0  0  0  0  0  0  0  0
    1.9937    2.3462   -0.0546 C   0  0  0  0  0  0  0  0  0  0  0  0
   -4.3454   -0.1158   -1.1456 C   0  0  0  0  0  0  0  0  0  0  0  0
   -4.3372   -0.0817    1.1518 C   0  0  0  0  0  0  0  0  0  0  0  0
  1 17  1  0
  2 17  2  0
  3  6  2  0
  3  8  1  0
  4 18  2  0
  4 19  1  0
  5  6  1  0
  5  7  2  0
  5 11  1  0
  6 12  1  0
  7  9  1  0
  7 17  1  0
  8  9  2  0
  8 10  1  0
 10 15  2  0
 10 16  1  0
 11 13  2  0
 12 14  2  0
 13 14  1  0
 15 18  1  0
 16 19  2  0
M  END
>  <PUBCHEM_COMPOUND_CID>  (1) 
26587

>  <PUBCHEM_CONFORMER_RMSD>  (1) 
0.6

>  <PUBCHEM_CONFORMER_DIVERSEORDER>  (1) 
1
2
3

>  <PUBCHEM_MMFF94_PARTIAL_CHARGES>  (1) 
27
1 -0.65
11 -0.15
12 -0.15
13 -0.15
14 -0.15
15 -0.15
16 -0.15
17 0.63
18 0.16
19 0.16
2 -0.57
20 0.15
21 0.15
22 0.15
23 0.15
24 0.15
25 0.15
26 0.15
27 0.15
28 0.15
29 0.5
3 -0.62
4 -0.62
6 0.31
7 0.09
8 0.31
9 -0.15

>  <PUBCHEM_EFFECTIVE_ROTOR_COUNT>  (1) 
2

>  <PUBCHEM_PHARMACOPHORE_FEATURES>  (1) 
8
1 1 acceptor
1 2 acceptor
1 3 acceptor
1 4 acceptor
3 1 2 17 anion
6 3 5 6 7 8 9 rings
6 4 10 15 16 18 19 rings
6 5 6 11 12 13 14 rings

>  <PUBCHEM_HEAVY_ATOM_COUNT>  (1) 
19

>  <PUBCHEM_ATOM_DEF_STEREO_COUNT>  (1) 
0

>  <PUBCHEM_ATOM_UDEF_STEREO_COUNT>  (1) 
0

>  <PUBCHEM_BOND_DEF_STEREO_COUNT>  (1) 
0

>  <PUBCHEM_BOND_UDEF_STEREO_COUNT>  (1) 
0

>  <PUBCHEM_ISOTOPIC_ATOM_COUNT>  (1) 
0

>  <PUBCHEM_COMPONENT_COUNT>  (1) 
1

>  <PUBCHEM_CACTVS_TAUTO_COUNT>  (1) 
1

>  <PUBCHEM_CONFORMER_ID>  (1) 
000067DB00000001

>  <PUBCHEM_MMFF94_ENERGY>  (1) 
68.7155

>  <PUBCHEM_FEATURE_SELFOVERLAP>  (1) 
40.687

>  <PUBCHEM_SHAPE_FINGERPRINT>  (1) 
10967382 1 18410575098075585942
11471102 20 18409166606089144078
11796584 16 16516245124389254154
12236239 1 17775283851073461799
12553582 1 18340768122482597142
12616971 3 18060420218874242351
12707595 3 18187926123253928867
13134695 92 18337947900916027998
13140716 1 18266737068423642770
13533116 47 18341055198708182379
13862211 1 18338513028867027466
14347332 77 17836937703134681718
16945 1 18410293609976674526
17134986 127 17973452288975112772
17357779 13 18115578254062050933
17818456 19 17487067656635042161
1813 80 18057335993562545654
18186145 218 18340492273838879493
18222031 100 18271519785006613406
18785283 64 18115876354936389076
200 152 18272644615856567151
20645477 70 18334288795028060175
20671657 1 18271806877472986316
21041028 32 18269561541590778776
21065201 7 16660081105689579739
21267235 1 18340213968743647174
21639500 275 18339918311610247709
21641784 216 17898594002871968524
22112679 90 17346600781283892409
221490 88 18335425724358710603
22182313 1 18189593009052523796
2255824 54 18413110584499839342
22854114 111 18412266172475831537
22943178 12 17968098659600807075
23175994 123 18189904119081757631
2334 1 17978228588818115134
23402539 116 18197211447785552734
23419403 2 14859411925855063026
23526113 38 17822297833772886250
23559900 14 18187083974719370873
2748010 2 18120382218122183814
3091708 16 9287495014343077960
312423 11 18201733846695365313
350125 39 18048887591207159338
458136 41 18191882316435569156
474 4 18270111464939961952
495365 180 18339353179697571009
5281201 14 18187081737431943173
5895379 119 15410072706500408553
602551 16 15195269972052299535
6049 1 17967532355135632845
7364860 26 18413386557792274760
7471813 234 17988629771143132409
7495541 125 17968106329800799315
7615 1 17989489615311617425
77492 1 17775568650217553623
81228 2 17546169602004100288
8272917 22 18411423916467079133
84936 182 17915456301420085064
9709674 26 18260550060854939443
9971528 1 18201998794484953026
9981440 41 17551774242004127264

>  <PUBCHEM_SHAPE_MULTIPOLES>  (1) 
369.31
8.29
2.75
1.01
8.37
1.34
-0.02
-2.27
0
-4.47
0
0.89
0.24
-0.03

>  <PUBCHEM_SHAPE_SELFOVERLAP>  (1) 
828.556

>  <PUBCHEM_SHAPE_VOLUME>  (1) 
194

>  <PUBCHEM_COORDINATE_TYPE>  (1) 
2
5
10

$$$$
