26586
     RDKit          3D

 23 26  0  0  1  0  0  0  0  0999 V2000
   -2.1621    1.0006    0.0615 O   0  0  0  0  0  0  0  0  0  0  0  0
    3.8761   -1.6035    0.8244 N   0  0  0  0  0  0  0  0  0  0  0  0
    3.0998    2.5405    0.0418 N   0  0  0  0  0  0  0  0  0  0  0  0
    3.0333   -1.1236   -0.2888 C   0  0  0  0  0  0  0  0  0  0  0  0
    3.8103   -1.4896   -1.5645 C   0  0  0  0  0  0  0  0  0  0  0  0
    5.0743   -2.1794   -1.0726 C   0  0  0  0  0  0  0  0  0  0  0  0
    4.6795   -2.7054    0.2929 C   0  0  0  0  0  0  0  0  0  0  0  0
    2.7743    0.3540   -0.1472 C   0  0  0  0  0  0  0  0  0  0  0  0
    1.5032    0.9850   -0.0509 C   0  0  0  0  0  0  0  0  0  0  0  0
    3.1096   -2.0023    1.9982 C   0  0  0  0  0  0  0  0  0  0  0  0
    3.7361    1.3351   -0.0874 C   0  0  0  0  0  0  0  0  0  0  0  0
    1.7356    2.3570    0.0668 C   0  0  0  0  0  0  0  0  0  0  0  0
    0.1731    0.5202   -0.0525 C   0  0  0  0  0  0  0  0  0  0  0  0
    0.7001    3.2912    0.1834 C   0  0  0  0  0  0  0  0  0  0  0  0
   -0.8729    1.4430    0.0635 C   0  0  0  0  0  0  0  0  0  0  0  0
   -0.6111    2.8068    0.1795 C   0  0  0  0  0  0  0  0  0  0  0  0
   -2.3637   -0.4057   -0.0601 C   0  0  0  0  0  0  0  0  0  0  0  0
   -3.8426   -0.6380   -0.0624 C   0  0  0  0  0  0  0  0  0  0  0  0
   -4.5113   -0.8519    1.1397 C   0  0  0  0  0  0  0  0  0  0  0  0
   -4.5408   -0.6392   -1.2667 C   0  0  0  0  0  0  0  0  0  0  0  0
   -5.8892   -1.0686    1.1374 C   0  0  0  0  0  0  0  0  0  0  0  0
   -5.9188   -0.8558   -1.2689 C   0  0  0  0  0  0  0  0  0  0  0  0
   -6.5929   -1.0705   -0.0669 C   0  0  0  0  0  0  0  0  0  0  0  0
  1 15  1  0
  1 17  1  0
  2  4  1  0
  2  7  1  0
  2 10  1  0
  3 11  1  0
  3 12  1  0
  4  5  1  0
  4  8  1  0
  5  6  1  0
  6  7  1  0
  8  9  1  0
  8 11  2  0
  9 12  2  0
  9 13  1  0
 12 14  1  0
 13 15  2  0
 14 16  2  0
 15 16  1  0
 17 18  1  0
 18 19  2  0
 18 20  1  0
 19 21  1  0
 20 22  2  0
 21 23  2  0
 22 23  1  0
M  END
>  <PUBCHEM_COMPOUND_CID>  (1) 
26586

>  <PUBCHEM_CONFORMER_RMSD>  (1) 
0.8

>  <PUBCHEM_CONFORMER_DIVERSEORDER>  (1) 
1
34
77
65
64
14
52
18
68
29
80
88
86
83
13
39
49
91
55
82
78
26
35
23
60
9
31
95
37
41
58
50
59
74
62
45
93
67
33
72
7
94
84
46
47
75
87
12
79
56
71
66
32
81
21
16
90
28
2
69
61
53
10
42
70
73
76
85
92
89
17
48
43
20
15
6
25
51
54
63
30
11
19
24
36
5
27
44
22
40
57
8
3
38
4

>  <PUBCHEM_MMFF94_PARTIAL_CHARGES>  (1) 
30
1 -0.36
10 0.27
11 -0.3
12 -0.15
13 -0.15
14 -0.15
15 0.08
16 -0.15
17 0.42
18 -0.14
19 -0.15
2 -0.81
20 -0.15
21 -0.15
22 -0.15
23 -0.15
3 0.03
34 0.15
35 0.27
36 0.15
37 0.15
38 0.15
4 0.45
41 0.15
42 0.15
43 0.15
44 0.15
45 0.15
7 0.27
8 -0.18

>  <PUBCHEM_EFFECTIVE_ROTOR_COUNT>  (1) 
5

>  <PUBCHEM_PHARMACOPHORE_FEATURES>  (1) 
8
1 1 acceptor
1 2 cation
1 3 cation
1 3 donor
5 2 4 5 6 7 rings
5 3 8 9 11 12 rings
6 18 19 20 21 22 23 rings
6 9 12 13 14 15 16 rings

>  <PUBCHEM_HEAVY_ATOM_COUNT>  (1) 
23

>  <PUBCHEM_ATOM_DEF_STEREO_COUNT>  (1) 
0

>  <PUBCHEM_ATOM_UDEF_STEREO_COUNT>  (1) 
1

>  <PUBCHEM_BOND_DEF_STEREO_COUNT>  (1) 
0

>  <PUBCHEM_BOND_UDEF_STEREO_COUNT>  (1) 
0

>  <PUBCHEM_ISOTOPIC_ATOM_COUNT>  (1) 
0

>  <PUBCHEM_COMPONENT_COUNT>  (1) 
1

>  <PUBCHEM_CACTVS_TAUTO_COUNT>  (1) 
1

>  <PUBCHEM_CONFORMER_ID>  (1) 
000067DA00000001

>  <PUBCHEM_MMFF94_ENERGY>  (1) 
56.3301

>  <PUBCHEM_FEATURE_SELFOVERLAP>  (1) 
40.689

>  <PUBCHEM_SHAPE_FINGERPRINT>  (1) 
10411042 1 18339927009293510038
10673678 19 17316213711334332876
11069576 57 17387688311133613826
114674 6 18334010640055717162
11796584 16 17603857936355776683
11991303 11 17754179678867154733
12107183 9 18128269895908266433
12236239 1 17488752310654953661
12422481 6 17346041065461704141
12553582 1 18411978031520298398
12760667 363 18411419471408263487
13073987 5 18341617057755923161
13140716 1 18198061383143089872
13533116 47 18342740771234053881
13540713 4 18268413673512201564
13540713 5 18267604432954164944
13617811 41 15719385179788037151
13631057 29 18264775359850336674
13692114 37 17699566940753023097
13782708 43 18114182004020039315
13911852 28 18341614767863140575
13955234 65 18197779001659163672
14251740 57 18201718457463728626
14767858 380 18261976089208409454
14863182 85 18339364179805271836
14866123 147 18123192303834674505
14931854 50 17895484618122093006
15250474 111 17771614922374080887
15324115 91 16081079364322872338
15475509 84 17703801275251680225
15537594 2 18341899648622095879
17349148 13 17775011215097125023
17492 89 18123191204434089158
1813 80 18272094872352444919
18222031 100 18272086080501895687
18681886 176 15983710050531063233
193927 3 18412268298231416079
20028762 73 18059855056312083711
20369508 70 18334007298486926762
20403669 9 18412547582906915127
20567600 234 11959722798892278475
20645477 70 18410008870650589813
20832881 197 18335139774336638507
21033650 10 16009304302087711029
21279426 13 18261384521724604421
21478907 32 18411982416940493729
21703447 108 18410001139958033288
22033318 11 17983614907969194681
22061861 79 18261107491912425151
22224240 67 17985819565989930912
2303208 19 17749395905827346923
23559900 14 17895195545088986933
23622692 118 18339923714964143996
239999 70 18187927339072337576
25222932 49 17982455098578092143
3004659 81 18187645782180037902
312423 11 18339373988814308280
314194 84 18342177816795643991
3421961 26 18412826910384010464
345986 75 17988927768996194481
34797466 226 16660649617646599189
351380 3 18412266112293873303
4073 2 18044378464325968979
44062 13 18263641758587253725
46194498 28 17531246222395675973
465052 167 18343309170968503399
5104073 3 18272652303130999257
59755656 215 18410013278010059924
70251023 43 18338525144731665450
7064713 232 16558751213358739319
7970288 3 18339922602257190190
8863177 126 18115320002443573275
960060 61 17458065945412888894

>  <PUBCHEM_SHAPE_MULTIPOLES>  (1) 
457.5
14.37
3.36
1.24
19.04
1.97
-0.12
-12.47
1.26
-4.53
-0.34
0
-0.89
0.05

>  <PUBCHEM_SHAPE_SELFOVERLAP>  (1) 
1001.828

>  <PUBCHEM_SHAPE_VOLUME>  (1) 
251.1

>  <PUBCHEM_COORDINATE_TYPE>  (1) 
2
5
10

$$$$
