266
     RDKit          3D

 10  9  0  0  0  0  0  0  0  0999 V2000
   -2.0723    0.0995   -0.0913 P   0  0  0  0  0  0  0  0  0  0  0  0
   -0.5326    0.5928   -0.0753 O   0  0  0  0  0  0  0  0  0  0  0  0
    0.4726   -1.4574    0.0805 O   0  0  0  0  0  0  0  0  0  0  0  0
   -2.3073   -0.4911    1.3954 O   0  0  0  0  0  0  0  0  0  0  0  0
   -2.8993    1.4894   -0.0690 O   0  0  0  0  0  0  0  0  0  0  0  0
   -2.4393   -0.8240   -1.2157 O   0  0  0  0  0  0  0  0  0  0  0  0
    1.8133    0.5744    0.0038 C   0  0  0  0  0  0  0  0  0  0  0  0
    3.0747   -0.2867    0.0169 C   0  0  0  0  0  0  0  0  0  0  0  0
    4.3498    0.5414   -0.0650 C   0  0  0  0  0  0  0  0  0  0  0  0
    0.5404   -0.2384    0.0197 C   0  0  0  0  0  0  0  0  0  0  0  0
  1  2  1  0
  1  4  1  0
  1  5  1  0
  1  6  2  0
  2 10  1  0
  3 10  2  0
  7  8  1  0
  7 10  1  0
  8  9  1  0
M  END
>  <PUBCHEM_COMPOUND_CID>  (1) 
266

>  <PUBCHEM_CONFORMER_RMSD>  (1) 
0.6

>  <PUBCHEM_CONFORMER_DIVERSEORDER>  (1) 
1
32
34
20
9
21
10
33
11
15
26
31
6
28
14
4
16
30
19
7
23
17
2
13
29
8
12
27
24
5
22
25
3
18

>  <PUBCHEM_MMFF94_PARTIAL_CHARGES>  (1) 
10
1 1.51
10 0.66
18 0.5
19 0.5
2 -0.42
3 -0.57
4 -0.77
5 -0.77
6 -0.7
7 0.06

>  <PUBCHEM_EFFECTIVE_ROTOR_COUNT>  (1) 
4

>  <PUBCHEM_PHARMACOPHORE_FEATURES>  (1) 
6
1 3 acceptor
1 4 acceptor
1 5 acceptor
1 6 acceptor
1 9 hydrophobe
4 1 4 5 6 anion

>  <PUBCHEM_HEAVY_ATOM_COUNT>  (1) 
10

>  <PUBCHEM_ATOM_DEF_STEREO_COUNT>  (1) 
0

>  <PUBCHEM_ATOM_UDEF_STEREO_COUNT>  (1) 
0

>  <PUBCHEM_BOND_DEF_STEREO_COUNT>  (1) 
0

>  <PUBCHEM_BOND_UDEF_STEREO_COUNT>  (1) 
0

>  <PUBCHEM_ISOTOPIC_ATOM_COUNT>  (1) 
0

>  <PUBCHEM_COMPONENT_COUNT>  (1) 
1

>  <PUBCHEM_CACTVS_TAUTO_COUNT>  (1) 
1

>  <PUBCHEM_CONFORMER_ID>  (1) 
0000010A00000001

>  <PUBCHEM_MMFF94_ENERGY>  (1) 
-28.4682

>  <PUBCHEM_FEATURE_SELFOVERLAP>  (1) 
30.484

>  <PUBCHEM_SHAPE_FINGERPRINT>  (1) 
12932764 1 18131349713359612410
14325111 11 18410292502027911076
14390081 3 18411979135300220753
15775835 57 18272087175644495204
18186145 218 17418096529280365688
190213 19 17458061582274417352
20645464 45 17603590690484378403
23402539 116 16226314993887648207
3248919 1 17894347782979789422
5084963 1 17988917933140927009

>  <PUBCHEM_SHAPE_MULTIPOLES>  (1) 
180.3
6.41
1.12
0.86
4.64
0.02
0.07
1.3
-0.17
-0.48
-0.04
-0.66
-0.17
-0.06

>  <PUBCHEM_SHAPE_SELFOVERLAP>  (1) 
322.608

>  <PUBCHEM_SHAPE_VOLUME>  (1) 
116.9

>  <PUBCHEM_COORDINATE_TYPE>  (1) 
2
5
10

$$$$
