26602
     RDKit          3D

 17 17  0  0  0  0  0  0  0  0999 V2000
   -4.6133   -2.2992    0.4682 Cl  0  0  0  0  0  0  0  0  0  0  0  0
    2.7499   -1.0663    0.5366 O   0  0  0  0  0  0  0  0  0  0  0  0
    2.4056    0.2067   -1.3437 O   0  0  0  0  0  0  0  0  0  0  0  0
    1.4455    0.7434    0.6976 N   0  0  0  0  0  0  0  0  0  0  0  0
    0.7336    1.9398    0.2805 C   0  0  0  0  0  0  0  0  0  0  0  0
   -0.2606    1.6126   -0.8654 C   0  0  0  0  0  0  0  0  0  0  0  0
    1.7669    2.9503   -0.2452 C   0  0  0  0  0  0  0  0  0  0  0  0
    0.0216    2.5541    1.4950 C   0  0  0  0  0  0  0  0  0  0  0  0
   -1.3567    0.6270   -0.5286 C   0  0  0  0  0  0  0  0  0  0  0  0
   -1.1383   -0.7247   -0.7344 C   0  0  0  0  0  0  0  0  0  0  0  0
   -2.5571    1.0966   -0.0221 C   0  0  0  0  0  0  0  0  0  0  0  0
    2.2160   -0.0136   -0.1520 C   0  0  0  0  0  0  0  0  0  0  0  0
   -2.1499   -1.6337   -0.4247 C   0  0  0  0  0  0  0  0  0  0  0  0
   -3.5687    0.1875    0.2876 C   0  0  0  0  0  0  0  0  0  0  0  0
   -3.3651   -1.1778    0.0865 C   0  0  0  0  0  0  0  0  0  0  0  0
    3.5829   -1.9505   -0.2218 C   0  0  0  0  0  0  0  0  0  0  0  0
    4.0877   -3.0519    0.6858 C   0  0  0  0  0  0  0  0  0  0  0  0
  1 15  1  0
  2 12  1  0
  2 16  1  0
  3 12  2  0
  4  5  1  0
  4 12  1  0
  5  6  1  0
  5  7  1  0
  5  8  1  0
  6  9  1  0
  9 10  2  0
  9 11  1  0
 10 13  1  0
 11 14  2  0
 13 15  2  0
 14 15  1  0
 16 17  1  0
M  END
>  <PUBCHEM_COMPOUND_CID>  (1) 
26602

>  <PUBCHEM_CONFORMER_RMSD>  (1) 
0.8

>  <PUBCHEM_CONFORMER_DIVERSEORDER>  (1) 
1
6
14
17
9
7
11
20
5
12
19
15
8
4
10
13
18
3
16
2

>  <PUBCHEM_MMFF94_PARTIAL_CHARGES>  (1) 
19
1 -0.18
10 -0.15
11 -0.15
12 0.78
13 -0.15
14 -0.15
15 0.18
16 0.28
2 -0.43
26 0.37
27 0.15
28 0.15
29 0.15
3 -0.57
30 0.15
4 -0.73
5 0.3
6 0.14
9 -0.14

>  <PUBCHEM_EFFECTIVE_ROTOR_COUNT>  (1) 
6

>  <PUBCHEM_PHARMACOPHORE_FEATURES>  (1) 
4
1 3 acceptor
1 4 donor
3 5 7 8 hydrophobe
6 9 10 11 13 14 15 rings

>  <PUBCHEM_HEAVY_ATOM_COUNT>  (1) 
17

>  <PUBCHEM_ATOM_DEF_STEREO_COUNT>  (1) 
0

>  <PUBCHEM_ATOM_UDEF_STEREO_COUNT>  (1) 
0

>  <PUBCHEM_BOND_DEF_STEREO_COUNT>  (1) 
0

>  <PUBCHEM_BOND_UDEF_STEREO_COUNT>  (1) 
0

>  <PUBCHEM_ISOTOPIC_ATOM_COUNT>  (1) 
0

>  <PUBCHEM_COMPONENT_COUNT>  (1) 
1

>  <PUBCHEM_CACTVS_TAUTO_COUNT>  (1) 
2

>  <PUBCHEM_CONFORMER_ID>  (1) 
000067EA00000001

>  <PUBCHEM_MMFF94_ENERGY>  (1) 
36.8915

>  <PUBCHEM_FEATURE_SELFOVERLAP>  (1) 
20.297

>  <PUBCHEM_SHAPE_FINGERPRINT>  (1) 
10618630 7 18338515231873539798
12006461 19 18408041823037387227
12506688 2 18412261731395037170
12523318 42 17615660983585803194
12553582 1 18343016701155206758
12633257 1 18200892703178386867
12824470 246 18335985268275926562
13140716 1 18342738468551340969
13533116 47 18197218264457957347
14178342 30 17334765870024313147
14251731 5 18409167692616071954
14252887 29 17826233171089098713
15375462 189 18341053003394221116
15422964 175 17900542577873222755
15442244 35 18412829075211057873
16945 1 17840013380190003653
17804303 29 18412269432556281103
19422 9 18333740104176105567
19784866 135 18195522589150205730
201361 129 18054515978113156513
20281475 54 18335706030855805805
20291156 8 18263361408781133034
20559304 39 18127695035461815537
20600515 1 18127414453822725132
20645477 70 18191290779723164295
20871998 22 18409724079964622160
22445834 79 18126285474597910765
2255824 54 18120095245276299588
23559900 14 18335412521902938701
238078 22 18338808806005232038
31174 14 18269834396958074613
3421961 26 18338233868201975651
5486654 36 18335713714932457747
5902787 121 18411418393128554334
7097593 13 18199747101881978303
7364860 26 18198061580473818636
81228 2 17770790009142653272

>  <PUBCHEM_SHAPE_MULTIPOLES>  (1) 
335
7.4
3.55
1.02
1.75
0.13
0.07
8.01
1
-2.61
0.84
-0.23
-0.3
-0.27

>  <PUBCHEM_SHAPE_SELFOVERLAP>  (1) 
670.387

>  <PUBCHEM_SHAPE_VOLUME>  (1) 
199.2

>  <PUBCHEM_COORDINATE_TYPE>  (1) 
2
5
10

$$$$
