26622
     RDKit          3D

 17 17  0  0  0  0  0  0  0  0999 V2000
   -3.3432    2.5550    0.2216 Cl  0  0  0  0  0  0  0  0  0  0  0  0
    3.5388   -1.3384    0.2550 O   0  0  0  0  0  0  0  0  0  0  0  0
    3.4554    1.4334    0.0701 O   0  0  0  0  0  0  0  0  0  0  0  0
   -4.4790   -0.5176   -0.5146 O   0  0  0  0  0  0  0  0  0  0  0  0
   -2.5278   -0.6532    0.7375 N   0  0  0  0  0  0  0  0  0  0  0  0
   -1.1506   -1.6211   -1.0692 C   0  0  0  0  0  0  0  0  0  0  0  0
    0.0683   -0.8165   -0.7678 C   0  0  0  0  0  0  0  0  0  0  0  0
   -2.0370   -1.8741    0.1566 C   0  0  0  0  0  0  0  0  0  0  0  0
    1.2504   -1.4555   -0.3935 C   0  0  0  0  0  0  0  0  0  0  0  0
    0.0263    0.5747   -0.8597 C   0  0  0  0  0  0  0  0  0  0  0  0
    2.3906   -0.7033   -0.1113 C   0  0  0  0  0  0  0  0  0  0  0  0
    2.3487    0.6879   -0.2029 C   0  0  0  0  0  0  0  0  0  0  0  0
    1.1666    1.3269   -0.5772 C   0  0  0  0  0  0  0  0  0  0  0  0
   -3.7247   -0.0693    0.3472 C   0  0  0  0  0  0  0  0  0  0  0  0
   -4.0461    1.1923    1.1069 C   0  0  0  0  0  0  0  0  0  0  0  0
    3.7349   -1.5706    1.6484 C   0  0  0  0  0  0  0  0  0  0  0  0
    3.3286    2.8493   -0.0473 C   0  0  0  0  0  0  0  0  0  0  0  0
  1 15  1  0
  2 11  1  0
  2 16  1  0
  3 12  1  0
  3 17  1  0
  4 14  2  0
  5  8  1  0
  5 14  1  0
  6  7  1  0
  6  8  1  0
  7  9  2  0
  7 10  1  0
  9 11  1  0
 10 13  2  0
 11 12  2  0
 12 13  1  0
 14 15  1  0
M  END
>  <PUBCHEM_COMPOUND_CID>  (1) 
26622

>  <PUBCHEM_CONFORMER_RMSD>  (1) 
0.8

>  <PUBCHEM_CONFORMER_DIVERSEORDER>  (1) 
18
70
60
4
38
32
80
58
65
37
54
82
24
26
44
27
75
14
53
25
79
19
7
57
62
48
68
77
12
17
41
36
31
10
8
83
50
61
71
35
16
30
47
3
46
20
81
55
39
56
63
67
13
59
49
6
43
2
51
64
52
21
34
11
45
84
1
23
74
72
15
40
69
76
29
78
42
73
66
9
33
22
28
5

>  <PUBCHEM_MMFF94_PARTIAL_CHARGES>  (1) 
21
1 -0.29
10 -0.15
11 0.08
12 0.08
13 -0.15
14 0.57
15 0.35
16 0.28
17 0.28
2 -0.36
22 0.15
23 0.15
24 0.15
25 0.37
3 -0.36
4 -0.57
5 -0.73
6 0.14
7 -0.14
8 0.3
9 -0.15

>  <PUBCHEM_EFFECTIVE_ROTOR_COUNT>  (1) 
7

>  <PUBCHEM_PHARMACOPHORE_FEATURES>  (1) 
5
1 2 acceptor
1 3 acceptor
1 4 acceptor
1 5 donor
6 7 9 10 11 12 13 rings

>  <PUBCHEM_HEAVY_ATOM_COUNT>  (1) 
17

>  <PUBCHEM_ATOM_DEF_STEREO_COUNT>  (1) 
0

>  <PUBCHEM_ATOM_UDEF_STEREO_COUNT>  (1) 
0

>  <PUBCHEM_BOND_DEF_STEREO_COUNT>  (1) 
0

>  <PUBCHEM_BOND_UDEF_STEREO_COUNT>  (1) 
0

>  <PUBCHEM_ISOTOPIC_ATOM_COUNT>  (1) 
0

>  <PUBCHEM_COMPONENT_COUNT>  (1) 
1

>  <PUBCHEM_CACTVS_TAUTO_COUNT>  (1) 
2

>  <PUBCHEM_CONFORMER_ID>  (1) 
000067FE00000012

>  <PUBCHEM_MMFF94_ENERGY>  (1) 
52.6849

>  <PUBCHEM_FEATURE_SELFOVERLAP>  (1) 
25.377

>  <PUBCHEM_SHAPE_FINGERPRINT>  (1) 
10382601 240 18187362190406948896
10465860 228 18337114570050159636
10759866 29 18336838571125505528
10980938 120 18411986892163943372
11759241 127 13038896724948950099
12162725 195 18341617005873242047
12251169 10 18410569574521082298
12403260 363 18341604889801960223
12633257 1 18266746770681340089
12644460 14 18114175363678144760
12670546 56 18335698347396644617
12788726 201 16322624168071280591
12892183 10 18114472252881082691
14178342 30 17899132999413074962
14251764 38 18339920399350118469
14739800 52 17773580814820513480
14790565 3 18045793531433497036
14957384 54 18116704128452530745
15042514 8 17615401468787367202
15209294 21 18270396238899935600
15442244 35 18410012113287581726
15527383 91 18186515497617916714
17834072 32 18270126716949383889
18186145 218 17630622136745936631
192875 21 18341883092103392101
201361 129 18265335186935142472
20739085 24 18186523194194023748
21524375 3 18202847639100248887
23402539 116 18342733027840802303
23559900 14 17774169985216875942
2748010 2 17621306949739519374
2838139 119 14260764223532042530
351380 180 18339077095447908185
5104073 3 18408047320911836603
7615 1 18129645530318746726

>  <PUBCHEM_SHAPE_MULTIPOLES>  (1) 
329.13
8.34
2.74
1.09
3.67
1.59
-0.23
2.08
-2.77
-0.81
-0.1
-0.19
-0.31
-1.16

>  <PUBCHEM_SHAPE_SELFOVERLAP>  (1) 
657.472

>  <PUBCHEM_SHAPE_VOLUME>  (1) 
195.7

>  <PUBCHEM_COORDINATE_TYPE>  (1) 
2
5
10

$$$$
