26631
     RDKit          3D

 17 17  0  0  0  0  0  0  0  0999 V2000
   -6.4809    2.6416   -0.0476 I   0  0  0  0  0  0  0  0  0  0  0  0
    5.6645    0.0367   -0.0072 O   0  0  0  0  0  0  0  0  0  0  0  0
   -2.0582   -0.3691    0.0068 O   0  0  0  0  0  0  0  0  0  0  0  0
   -0.5135   -2.0553   -0.0164 O   0  0  0  0  0  0  0  0  0  0  0  0
    0.1211    0.2025    0.0086 N   0  0  0  0  0  0  0  0  0  0  0  0
    1.5156    0.1612    0.0051 C   0  0  0  0  0  0  0  0  0  0  0  0
    2.2489    1.3476    0.0170 C   0  0  0  0  0  0  0  0  0  0  0  0
    2.1764   -1.0672   -0.0116 C   0  0  0  0  0  0  0  0  0  0  0  0
    4.3041    0.0775   -0.0046 C   0  0  0  0  0  0  0  0  0  0  0  0
    3.6431    1.3058    0.0121 C   0  0  0  0  0  0  0  0  0  0  0  0
    3.5707   -1.1091   -0.0165 C   0  0  0  0  0  0  0  0  0  0  0  0
   -0.7797   -0.8597   -0.0016 C   0  0  0  0  0  0  0  0  0  0  0  0
    6.3517    1.2870    0.0076 C   0  0  0  0  0  0  0  0  0  0  0  0
   -3.1065   -1.3452   -0.0030 C   0  0  0  0  0  0  0  0  0  0  0  0
   -4.4054   -0.6736    0.0075 C   0  0  0  0  0  0  0  0  0  0  0  0
   -5.4723   -0.1216    0.0162 C   0  0  0  0  0  0  0  0  0  0  0  0
   -6.7796    0.5409    0.0274 C   0  0  0  0  0  0  0  0  0  0  0  0
  1 17  1  0
  2  9  1  0
  2 13  1  0
  3 12  1  0
  3 14  1  0
  4 12  2  0
  5  6  1  0
  5 12  1  0
  6  7  2  0
  6  8  1  0
  7 10  1  0
  8 11  2  0
  9 10  2  0
  9 11  1  0
 14 15  1  0
 15 16  3  0
 16 17  1  0
M  END
>  <PUBCHEM_COMPOUND_CID>  (1) 
26631

>  <PUBCHEM_CONFORMER_RMSD>  (1) 
0.6

>  <PUBCHEM_CONFORMER_DIVERSEORDER>  (1) 
1
82
11
84
29
86
17
18
72
68
76
16
71
24
5
91
10
48
90
35
78
21
25
67
49
3
77
80
75
45
4
74
19
61
27
53
69
79
34
70
23
85
28
52
57
22
62
41
81
58
20
89
54
42
2
59
37
65
12
88
26
40
73
8
55
60
83
13
39
43
56
47
38
32
6
9
36
46
31
33
7
44
87
14
66
30
15
50
51
63
64

>  <PUBCHEM_MMFF94_PARTIAL_CHARGES>  (1) 
22
1 -0.19
10 -0.15
11 -0.15
12 0.78
13 0.28
14 0.48
15 -0.2
16 -0.2
17 0.39
18 0.15
19 0.15
2 -0.36
20 0.15
21 0.15
22 0.37
3 -0.43
4 -0.57
5 -0.55
6 0.12
7 -0.15
8 -0.15
9 0.08

>  <PUBCHEM_EFFECTIVE_ROTOR_COUNT>  (1) 
5

>  <PUBCHEM_PHARMACOPHORE_FEATURES>  (1) 
5
1 1 hydrophobe
1 2 acceptor
1 4 acceptor
1 5 donor
6 6 7 8 9 10 11 rings

>  <PUBCHEM_HEAVY_ATOM_COUNT>  (1) 
17

>  <PUBCHEM_ATOM_DEF_STEREO_COUNT>  (1) 
0

>  <PUBCHEM_ATOM_UDEF_STEREO_COUNT>  (1) 
0

>  <PUBCHEM_BOND_DEF_STEREO_COUNT>  (1) 
0

>  <PUBCHEM_BOND_UDEF_STEREO_COUNT>  (1) 
0

>  <PUBCHEM_ISOTOPIC_ATOM_COUNT>  (1) 
0

>  <PUBCHEM_COMPONENT_COUNT>  (1) 
1

>  <PUBCHEM_CACTVS_TAUTO_COUNT>  (1) 
2

>  <PUBCHEM_CONFORMER_ID>  (1) 
0000680700000001

>  <PUBCHEM_MMFF94_ENERGY>  (1) 
43.0942

>  <PUBCHEM_FEATURE_SELFOVERLAP>  (1) 
25.372

>  <PUBCHEM_SHAPE_FINGERPRINT>  (1) 
106641 1 9295289397149827820
11089746 13 17846213388592901001
117890 112 18410856563940031623
12091667 2 18411138065551936707
12236239 1 18131069359153419462
12616971 3 14201404914683811251
13167372 99 18410010996870670745
13533116 47 16558758871438707502
13785724 45 17761489188644176707
1420 363 8790886293938262537
14251764 18 18260265274336890187
14729087 3 18413666911666723601
15048467 5 18410574002331326820
15183329 4 18342173346067323321
15501527 16 18409731721587063533
155225 5 18197216937160712273
17844677 252 18262528103869100273
20281389 69 18335701629189794441
20621476 66 18409733950284836485
20621476 8 18412266112572961030
21054139 6 11672060835449699285
23035841 295 8646771101789102421
23402539 116 18130784598700567015
23402655 69 18342454863307911151
23559900 14 17987794240958096776
2838139 119 18343015597817953901
29717793 49 17561090202521278516
300161 21 18131629006203124039
3545911 37 18411138056392134011
4073 2 18041003980760966690
4340502 62 16153706522769676554
4463277 17 18410012147731871972
5104073 3 18115020947484484736
59755656 215 18341336599789578503
59755656 520 17749104513407516819
7062679 6 18335707126742743173
7495541 125 11891343057995159383

>  <PUBCHEM_SHAPE_MULTIPOLES>  (1) 
339.2
18.46
2.1
0.62
13.38
0.78
0
10.93
0.01
2.16
0.02
0.16
0.06
0.07

>  <PUBCHEM_SHAPE_SELFOVERLAP>  (1) 
667.192

>  <PUBCHEM_SHAPE_VOLUME>  (1) 
204.8

>  <PUBCHEM_COORDINATE_TYPE>  (1) 
2
5
10

$$$$
