26640
     RDKit          3D

 13 13  0  0  1  0  0  0  0  0999 V2000
   -2.6433   -0.2524    0.0435 N   0  0  0  0  0  0  0  0  0  0  0  0
   -1.2555    0.2741    0.3799 C   0  0  0  0  0  0  0  0  0  0  0  0
   -0.3017   -0.0198   -0.7844 C   0  0  0  0  0  0  0  0  0  0  0  0
   -3.1701    0.4601   -1.1939 C   0  0  0  0  0  0  0  0  0  0  0  0
   -2.5665   -1.7482   -0.2265 C   0  0  0  0  0  0  0  0  0  0  0  0
   -3.5811    0.0042    1.2144 C   0  0  0  0  0  0  0  0  0  0  0  0
   -1.3753    1.7695    0.6425 C   0  0  0  0  0  0  0  0  0  0  0  0
    1.1529   -0.0519   -0.3811 C   0  0  0  0  0  0  0  0  0  0  0  0
    1.8961    1.1170   -0.4259 C   0  0  0  0  0  0  0  0  0  0  0  0
    1.7186   -1.2496    0.0264 C   0  0  0  0  0  0  0  0  0  0  0  0
    3.2401    1.0872   -0.0533 C   0  0  0  0  0  0  0  0  0  0  0  0
    3.0624   -1.2793    0.3991 C   0  0  0  0  0  0  0  0  0  0  0  0
    3.8232   -0.1109    0.3593 C   0  0  0  0  0  0  0  0  0  0  0  0
  1  2  1  0
  1  4  1  0
  1  5  1  0
  1  6  1  0
  2  3  1  0
  2  7  1  0
  3  8  1  0
  8  9  2  0
  8 10  1  0
  9 11  1  0
 10 12  2  0
 11 13  2  0
 12 13  1  0
M  CHG  1   1   1
M  END
>  <PUBCHEM_COMPOUND_CID>  (1) 
26640

>  <PUBCHEM_CONFORMER_RMSD>  (1) 
0.6

>  <PUBCHEM_CONFORMER_DIVERSEORDER>  (1) 
2
9
1
5
3
7
8
6
4

>  <PUBCHEM_MMFF94_PARTIAL_CHARGES>  (1) 
17
1 -1.01
10 -0.15
11 -0.15
12 -0.15
13 -0.15
2 0.5
29 0.15
3 0.14
30 0.15
31 0.15
32 0.15
33 0.15
4 0.5
5 0.5
6 0.5
8 -0.14
9 -0.15

>  <PUBCHEM_EFFECTIVE_ROTOR_COUNT>  (1) 
3

>  <PUBCHEM_PHARMACOPHORE_FEATURES>  (1) 
2
1 1 cation
6 8 9 10 11 12 13 rings

>  <PUBCHEM_HEAVY_ATOM_COUNT>  (1) 
13

>  <PUBCHEM_ATOM_DEF_STEREO_COUNT>  (1) 
0

>  <PUBCHEM_ATOM_UDEF_STEREO_COUNT>  (1) 
1

>  <PUBCHEM_BOND_DEF_STEREO_COUNT>  (1) 
0

>  <PUBCHEM_BOND_UDEF_STEREO_COUNT>  (1) 
0

>  <PUBCHEM_ISOTOPIC_ATOM_COUNT>  (1) 
0

>  <PUBCHEM_COMPONENT_COUNT>  (1) 
1

>  <PUBCHEM_CACTVS_TAUTO_COUNT>  (1) 
1

>  <PUBCHEM_CONFORMER_ID>  (1) 
0000681000000002

>  <PUBCHEM_MMFF94_ENERGY>  (1) 
51.5015

>  <PUBCHEM_FEATURE_SELFOVERLAP>  (1) 
10.148

>  <PUBCHEM_SHAPE_FINGERPRINT>  (1) 
10922523 26 17749385936495882047
11132069 177 18411973680987004586
12251169 10 18412549790387813994
12382932 28 18273224105344053459
12500047 106 18261662718997423551
12932764 1 18333456451524375439
13296908 3 17603586322238920175
13693222 15 18410294713524650971
13764800 53 16128109844729924323
14144814 61 18412546483452874160
14325111 11 18408039636877694204
14445660 50 18201447990540679019
15375462 189 18339368581703424211
15775835 57 17917997182691948610
16945 1 18342181046236530332
18186145 218 18411704291984948382
19050596 39 18413389851852758482
200 152 18341599421934091791
20201158 50 18261108560678715098
20279233 1 17675922088397464263
20281407 28 17023185972839823314
20525323 117 17917431982334192449
20528008 55 18411411813133200799
20559304 39 18341618109669372088
20645477 70 18262789679545462734
20871998 22 18124033430361915070
22169311 21 18187075161388554582
22445834 79 18336266730362610034
22959321 105 18334008432252635583
23402539 116 18271232847337644933
26918003 58 18186522111545611121
3248919 1 17917994966394027791
3312278 4 18411136969617689067
57812782 119 17676203584780322720
581208 293 18187361060708964374
69090 78 18333728027118725539

>  <PUBCHEM_SHAPE_MULTIPOLES>  (1) 
262.55
6.93
1.56
0.98
0.57
0.09
0.01
0.52
-0.83
0.04
-0.09
-0.74
-0.1
-0.3

>  <PUBCHEM_SHAPE_SELFOVERLAP>  (1) 
523.37

>  <PUBCHEM_SHAPE_VOLUME>  (1) 
157.9

>  <PUBCHEM_COORDINATE_TYPE>  (1) 
2
5
10

$$$$
