26642
     RDKit          3D

 24 24  0  0  1  0  0  0  0  0999 V2000
    3.3124   -0.3651    0.4429 S   0  0  0  0  0  0  0  0  0  0  0  0
    0.7145   -0.1517    0.8974 O   0  0  0  0  0  0  0  0  0  0  0  0
   -0.3806    2.8228    2.0375 O   0  0  0  0  0  0  0  0  0  0  0  0
    0.3458    3.0690   -0.0193 O   0  0  0  0  0  0  0  0  0  0  0  0
   -5.2269   -0.3105   -1.2224 O   0  0  0  0  0  0  0  0  0  0  0  0
   -5.0029    1.8470   -0.8841 O   0  0  0  0  0  0  0  0  0  0  0  0
    1.4039    0.1216   -1.3053 O   0  0  0  0  0  0  0  0  0  0  0  0
   -0.3488    2.4696    0.8351 N   0  0  0  0  0  0  0  0  0  0  0  0
   -4.5447    0.6791   -0.8623 N   0  0  0  0  0  0  0  0  0  0  0  0
   -0.8239   -2.4117    0.0833 C   0  0  0  0  0  0  0  0  0  0  0  0
   -1.3738   -1.0235    0.0552 C   0  0  0  0  0  0  0  0  0  0  0  0
   -1.6032   -3.3878    1.0056 C   0  0  0  0  0  0  0  0  0  0  0  0
   -0.7560   -3.0229   -1.3316 C   0  0  0  0  0  0  0  0  0  0  0  0
   -0.5959    0.0614    0.4598 C   0  0  0  0  0  0  0  0  0  0  0  0
   -2.6821   -0.8187   -0.3827 C   0  0  0  0  0  0  0  0  0  0  0  0
   -1.6199   -2.9356    2.4607 C   0  0  0  0  0  0  0  0  0  0  0  0
   -1.1265    1.3510    0.4265 C   0  0  0  0  0  0  0  0  0  0  0  0
   -3.2127    0.4709   -0.4159 C   0  0  0  0  0  0  0  0  0  0  0  0
   -2.4348    1.5558   -0.0113 C   0  0  0  0  0  0  0  0  0  0  0  0
    5.7198   -0.4805   -0.9712 C   0  0  0  0  0  0  0  0  0  0  0  0
    6.4268    0.5092   -0.0410 C   0  0  0  0  0  0  0  0  0  0  0  0
    4.2218   -0.2173   -1.1232 C   0  0  0  0  0  0  0  0  0  0  0  0
    1.6603   -0.0933   -0.1256 C   0  0  0  0  0  0  0  0  0  0  0  0
    7.9275    0.2614   -0.0082 C   0  0  0  0  0  0  0  0  0  0  0  0
  1 22  1  0
  1 23  1  0
  2 14  1  0
  2 23  1  0
  3  8  1  0
  4  8  2  0
  5  9  1  0
  6  9  2  0
  7 23  2  0
  8 17  1  0
  9 18  1  0
 10 11  1  0
 10 12  1  0
 10 13  1  0
 11 14  2  0
 11 15  1  0
 12 16  1  0
 14 17  1  0
 15 18  2  0
 17 19  2  0
 18 19  1  0
 20 21  1  0
 20 22  1  0
 21 24  1  0
M  CHG  4   3  -1   5  -1   8   1   9   1
M  END
>  <PUBCHEM_COMPOUND_CID>  (1) 
26642

>  <PUBCHEM_CONFORMER_RMSD>  (1) 
1

>  <PUBCHEM_CONFORMER_DIVERSEORDER>  (1) 
1
35
43
38
13
17
33
25
23
14
45
21
57
20
15
32
59
50
22
53
34
24
26
55
54
11
10
46
49
51
2
40
30
52
44
36
41
58
5
56
8
47
39
7
19
31
12
18
29
37
42
6
3
28
9
48
16
27
4

>  <PUBCHEM_MMFF94_PARTIAL_CHARGES>  (1) 
20
1 -0.37
10 0.14
11 -0.14
14 0.08
15 -0.15
17 0.13
18 0.13
19 -0.15
2 -0.23
22 0.23
23 0.86
3 -0.52
31 0.15
35 0.15
4 -0.52
5 -0.52
6 -0.52
7 -0.57
8 0.91
9 0.91

>  <PUBCHEM_EFFECTIVE_ROTOR_COUNT>  (1) 
10

>  <PUBCHEM_PHARMACOPHORE_FEATURES>  (1) 
11
1 13 hydrophobe
1 16 hydrophobe
1 24 hydrophobe
1 3 acceptor
1 3 anion
1 4 acceptor
1 5 acceptor
1 5 anion
1 6 acceptor
4 1 20 21 22 hydrophobe
6 11 14 15 17 18 19 rings

>  <PUBCHEM_HEAVY_ATOM_COUNT>  (1) 
24

>  <PUBCHEM_ATOM_DEF_STEREO_COUNT>  (1) 
0

>  <PUBCHEM_ATOM_UDEF_STEREO_COUNT>  (1) 
1

>  <PUBCHEM_BOND_DEF_STEREO_COUNT>  (1) 
0

>  <PUBCHEM_BOND_UDEF_STEREO_COUNT>  (1) 
0

>  <PUBCHEM_ISOTOPIC_ATOM_COUNT>  (1) 
0

>  <PUBCHEM_COMPONENT_COUNT>  (1) 
1

>  <PUBCHEM_CACTVS_TAUTO_COUNT>  (1) 
1

>  <PUBCHEM_CONFORMER_ID>  (1) 
0000681200000001

>  <PUBCHEM_MMFF94_ENERGY>  (1) 
62.5654

>  <PUBCHEM_FEATURE_SELFOVERLAP>  (1) 
55.986

>  <PUBCHEM_SHAPE_FINGERPRINT>  (1) 
10165383 225 18113894928210237605
10366900 7 17917710184988785978
107951 10 18113903753456219442
10906281 52 18201175285813729860
11135609 187 18339078177162904037
11315181 36 18131918182905126280
11680986 33 18125715931674771377
12035758 1 18196400154380861859
12236239 1 17967527944146041426
12293681 160 18270112405754194721
12616971 3 16298390197644852718
12788726 201 18200309914523014736
13149001 5 18339634667865080061
13533116 47 18268703927697133138
14674994 50 16342850100537276702
14844126 61 18337955705283886514
16114785 44 17273443610724149050
17492 54 18336531747499305199
187816 3 18342175544467898157
20645476 183 17967532385079266131
23402539 116 18272930496863159900
23419403 2 15264501924476624255
23557571 272 18272655658328365392
23559900 14 18342170107683022632
23598288 3 18190472746987569966
266924 87 18056480543361479413
2748010 2 18122049061071046533
283562 15 18199189494789083529
2838139 119 16877660145478715845
3178227 256 18409177614986934609
3380486 145 17841718705132917074
3633792 109 18043521716702154470
3759504 43 17967253100514862011
4409770 3 18187653556604243563
484989 97 18117276063910363695
497634 4 14476967766243290512
559249 180 18186238446521207630
57527306 92 16081080459814008605
59755656 520 17458340845359204506
7226269 152 18411981342934451528
9981440 41 18340776948746145138

>  <PUBCHEM_SHAPE_MULTIPOLES>  (1) 
452.58
12.34
3.39
1.47
27.24
1.17
-0.55
-2.79
4.14
-3.69
-1.43
-0.74
0.55
0.98

>  <PUBCHEM_SHAPE_SELFOVERLAP>  (1) 
906.95

>  <PUBCHEM_SHAPE_VOLUME>  (1) 
269.1

>  <PUBCHEM_COORDINATE_TYPE>  (1) 
2
5
10

$$$$
