26654
     RDKit          3D

  7  7  0  0  1  0  0  0  0  0999 V2000
    2.3397    0.7955    0.3956 Br  0  0  0  0  0  0  0  0  0  0  0  0
   -2.0257    1.1124   -0.4473 Cl  0  0  0  0  0  0  0  0  0  0  0  0
    0.6310    0.5429   -0.5309 C   0  0  0  0  0  0  0  0  0  0  0  0
   -0.5218    0.7300    0.4470 C   0  0  0  0  0  0  0  0  0  0  0  0
    0.5162   -0.8967   -1.0228 C   0  0  0  0  0  0  0  0  0  0  0  0
   -0.6462   -0.6337    1.1207 C   0  0  0  0  0  0  0  0  0  0  0  0
   -0.2932   -1.6505    0.0377 C   0  0  0  0  0  0  0  0  0  0  0  0
  1  3  1  0
  2  4  1  0
  3  4  1  0
  3  5  1  0
  4  6  1  0
  5  7  1  0
  6  7  1  0
M  END
>  <PUBCHEM_COMPOUND_CID>  (1) 
26654

>  <PUBCHEM_CONFORMER_RMSD>  (1) 
0.4

>  <PUBCHEM_CONFORMER_DIVERSEORDER>  (1) 
1
8
6
5
7
3
4
2

>  <PUBCHEM_MMFF94_PARTIAL_CHARGES>  (1) 
4
1 -0.23
2 -0.29
3 0.23
4 0.29

>  <PUBCHEM_EFFECTIVE_ROTOR_COUNT>  (1) 
1

>  <PUBCHEM_PHARMACOPHORE_FEATURES>  (1) 
2
1 1 hydrophobe
5 3 4 5 6 7 rings

>  <PUBCHEM_HEAVY_ATOM_COUNT>  (1) 
7

>  <PUBCHEM_ATOM_DEF_STEREO_COUNT>  (1) 
0

>  <PUBCHEM_ATOM_UDEF_STEREO_COUNT>  (1) 
2

>  <PUBCHEM_BOND_DEF_STEREO_COUNT>  (1) 
0

>  <PUBCHEM_BOND_UDEF_STEREO_COUNT>  (1) 
0

>  <PUBCHEM_ISOTOPIC_ATOM_COUNT>  (1) 
0

>  <PUBCHEM_COMPONENT_COUNT>  (1) 
1

>  <PUBCHEM_CACTVS_TAUTO_COUNT>  (1) 
1

>  <PUBCHEM_CONFORMER_ID>  (1) 
0000681E00000001

>  <PUBCHEM_MMFF94_ENERGY>  (1) 
10.9003

>  <PUBCHEM_FEATURE_SELFOVERLAP>  (1) 
10.148

>  <PUBCHEM_SHAPE_FINGERPRINT>  (1) 
137420 1 13163145790936733638
18185500 45 16756915403594976070
21040471 1 18334586715102276820
29004967 10 17548417007950281507
5943 1 16823260669364341051
68250623 7 18265310885509281699

>  <PUBCHEM_SHAPE_MULTIPOLES>  (1) 
151.87
2.4
1.58
1.07
0.97
0.39
-0.04
-1.29
-0.09
-0.4
0.09
-0.04
0.16
0.3

>  <PUBCHEM_SHAPE_SELFOVERLAP>  (1) 
272.291

>  <PUBCHEM_SHAPE_VOLUME>  (1) 
101.7

>  <PUBCHEM_COORDINATE_TYPE>  (1) 
2
5
10

$$$$
