2665
     RDKit          3D

 34 38  0  0  1  0  0  0  0  0999 V2000
    3.6012    3.5249   -0.2245 O   0  0  0  0  0  0  0  0  0  0  0  0
    6.0426    2.7355    0.8385 O   0  0  0  0  0  0  0  0  0  0  0  0
   -5.6577    0.5692    2.5677 O   0  0  0  0  0  0  0  0  0  0  0  0
   -7.4083    1.5193    0.6327 O   0  0  0  0  0  0  0  0  0  0  0  0
    2.4665   -2.5266   -0.0670 N   0  0  0  0  0  0  0  0  0  0  0  0
   -1.9875   -0.3155   -2.2890 N   0  0  0  0  0  0  0  0  0  0  0  0
   -0.3139   -1.8685   -0.6342 C   0  0  0  0  0  0  0  0  0  0  0  0
    0.1024   -3.2781   -0.1650 C   0  0  0  0  0  0  0  0  0  0  0  0
    2.1519   -1.1832   -0.6160 C   0  0  0  0  0  0  0  0  0  0  0  0
    0.7108   -0.8073   -0.1972 C   0  0  0  0  0  0  0  0  0  0  0  0
    1.5543   -3.5480   -0.5981 C   0  0  0  0  0  0  0  0  0  0  0  0
   -1.7240   -1.4758   -0.1940 C   0  0  0  0  0  0  0  0  0  0  0  0
    3.8611   -2.8859   -0.3363 C   0  0  0  0  0  0  0  0  0  0  0  0
   -0.0683   -3.5053    1.3435 C   0  0  0  0  0  0  0  0  0  0  0  0
    3.1775   -0.1250   -0.2057 C   0  0  0  0  0  0  0  0  0  0  0  0
   -2.1592   -0.1512   -0.8329 C   0  0  0  0  0  0  0  0  0  0  0  0
    4.7753   -1.9697    0.4733 C   0  0  0  0  0  0  0  0  0  0  0  0
    4.4389   -0.5141    0.2877 C   0  0  0  0  0  0  0  0  0  0  0  0
   -3.5681    0.2700   -0.4372 C   0  0  0  0  0  0  0  0  0  0  0  0
    0.3053   -4.9210    1.7275 C   0  0  0  0  0  0  0  0  0  0  0  0
    2.9297    1.2456   -0.3913 C   0  0  0  0  0  0  0  0  0  0  0  0
   -2.5181    0.8316   -3.0180 C   0  0  0  0  0  0  0  0  0  0  0  0
    5.3860    0.4564    0.6495 C   0  0  0  0  0  0  0  0  0  0  0  0
   -4.4493    0.7943   -1.4045 C   0  0  0  0  0  0  0  0  0  0  0  0
   -4.0334    0.8852   -2.8502 C   0  0  0  0  0  0  0  0  0  0  0  0
    3.8827    2.2043   -0.0404 C   0  0  0  0  0  0  0  0  0  0  0  0
    5.1072    1.8106    0.4874 C   0  0  0  0  0  0  0  0  0  0  0  0
   -3.9920    0.2235    0.9009 C   0  0  0  0  0  0  0  0  0  0  0  0
   -5.7413    1.1965   -1.0348 C   0  0  0  0  0  0  0  0  0  0  0  0
   -5.2758    0.6375    1.2615 C   0  0  0  0  0  0  0  0  0  0  0  0
   -6.1522    1.1174    0.2936 C   0  0  0  0  0  0  0  0  0  0  0  0
    2.9814    4.2123    0.8603 C   0  0  0  0  0  0  0  0  0  0  0  0
    6.9773    3.1265   -0.1657 C   0  0  0  0  0  0  0  0  0  0  0  0
   -5.4030    1.7147    3.3778 C   0  0  0  0  0  0  0  0  0  0  0  0
  1 26  1  0
  1 32  1  0
  2 27  1  0
  2 33  1  0
  3 30  1  0
  3 34  1  0
  4 31  1  0
  5  9  1  0
  5 11  1  0
  5 13  1  0
  6 16  1  0
  6 22  1  0
  7  8  1  0
  7 10  1  0
  7 12  1  0
  8 11  1  0
  8 14  1  0
  9 10  1  0
  9 15  1  0
 12 16  1  0
 13 17  1  0
 14 20  1  0
 15 18  2  0
 15 21  1  0
 16 19  1  0
 17 18  1  0
 18 23  1  0
 19 24  2  0
 19 28  1  0
 21 26  2  0
 22 25  1  0
 23 27  2  0
 24 25  1  0
 24 29  1  0
 26 27  1  0
 28 30  2  0
 29 31  2  0
 30 31  1  0
M  END
>  <PUBCHEM_COMPOUND_CID>  (1) 
2665

>  <PUBCHEM_CONFORMER_RMSD>  (1) 
1

>  <PUBCHEM_CONFORMER_DIVERSEORDER>  (1) 
2
23
21
27
54
14
57
12
29
60
55
48
46
26
8
35
49
58
5
42
51
3
9
41
34
10
56
7
38
13
15
40
59
39
37
4
22
44
31
1
36
43
25
53
17
52
19
28
45
47
11
50
24
32
18
20
61
33
16
6
30

>  <PUBCHEM_MMFF94_PARTIAL_CHARGES>  (1) 
34
1 -0.36
11 0.27
13 0.27
15 -0.14
16 0.41
17 0.14
18 -0.14
19 -0.14
2 -0.36
21 -0.15
22 0.27
23 -0.15
24 -0.14
25 0.14
26 0.08
27 0.08
28 -0.15
29 -0.15
3 -0.36
30 0.08
31 0.08
32 0.28
33 0.28
34 0.28
4 -0.53
5 -0.81
51 0.36
55 0.15
58 0.15
6 -0.9
61 0.15
62 0.15
69 0.45
9 0.41

>  <PUBCHEM_EFFECTIVE_ROTOR_COUNT>  (1) 
8

>  <PUBCHEM_PHARMACOPHORE_FEATURES>  (1) 
13
1 1 acceptor
1 2 acceptor
1 20 hydrophobe
1 3 acceptor
1 4 donor
1 5 cation
1 6 cation
1 6 donor
6 15 18 21 23 26 27 rings
6 19 24 28 29 30 31 rings
6 5 7 8 9 10 11 rings
6 5 9 13 15 17 18 rings
6 6 16 19 22 24 25 rings

>  <PUBCHEM_HEAVY_ATOM_COUNT>  (1) 
34

>  <PUBCHEM_ATOM_DEF_STEREO_COUNT>  (1) 
0

>  <PUBCHEM_ATOM_UDEF_STEREO_COUNT>  (1) 
4

>  <PUBCHEM_BOND_DEF_STEREO_COUNT>  (1) 
0

>  <PUBCHEM_BOND_UDEF_STEREO_COUNT>  (1) 
0

>  <PUBCHEM_ISOTOPIC_ATOM_COUNT>  (1) 
0

>  <PUBCHEM_COMPONENT_COUNT>  (1) 
1

>  <PUBCHEM_CACTVS_TAUTO_COUNT>  (1) 
9

>  <PUBCHEM_CONFORMER_ID>  (1) 
00000A6900000002

>  <PUBCHEM_MMFF94_ENERGY>  (1) 
117.9499

>  <PUBCHEM_FEATURE_SELFOVERLAP>  (1) 
66.04

>  <PUBCHEM_SHAPE_FINGERPRINT>  (1) 
10074138 170 17386573603768918659
10319926 262 16588023468469857253
10411042 1 17764025766923812526
10615611 76 17775011137793144377
10842077 115 17263250317807817400
11112241 14 18334579010827538939
11410812 94 15051469189148031248
12128747 34 16589412095610277666
12236239 1 17560228129739611807
12422481 6 17749396992042434277
12925494 130 18267580393631137424
13782708 43 17749956544582473891
15131766 46 18272357669118402061
15328829 1 17703494520830070797
15419008 47 17823704057731584118
16112460 7 18342461435072325280
1768 85 18408038503080272301
17913733 40 18260829259393546675
18393751 57 18040714801050302151
19309040 13 18059860605567085326
19319366 153 18201999893838656579
1979834 28 18113909238371231565
20501277 246 17677912140483342771
20511986 3 17703496715110296929
21033648 144 18336536192210292767
21033648 29 17676760986015890949
21033650 10 15410905071294481395
21458453 9 17750252433626970715
21716022 299 14547342995400404550
22122407 14 18197784293850175809
23569914 152 9508969508550765401
23845131 108 18333449863404116611
3178227 256 18188489052434426098
38570 142 18131081441123016988
392239 28 18409173177921941515
397830 11 18188220883186751259
5104073 3 18334008432596183394
5109719 28 18410300198804510819
5252454 2 18190184670967534804
57724786 102 18343585135976575862
5911458 16 17704078373978189689
6608658 132 17060341799659112305

>  <PUBCHEM_SHAPE_MULTIPOLES>  (1) 
666.26
16.76
5.13
2.23
7.87
2.81
0.13
-16.97
5.11
-8.22
2.01
5.35
-0.74
0.06

>  <PUBCHEM_SHAPE_SELFOVERLAP>  (1) 
1427.558

>  <PUBCHEM_SHAPE_VOLUME>  (1) 
367.9

>  <PUBCHEM_COORDINATE_TYPE>  (1) 
2
5
10

$$$$
