26657
     RDKit          3D

 16 16  0  0  1  0  0  0  0  0999 V2000
    2.3923   -1.0214    1.6357 O   0  0  0  0  0  0  0  0  0  0  0  0
    1.3518   -1.1231   -0.4380 N   0  0  0  0  0  0  0  0  0  0  0  0
    1.2212    3.5763   -0.1251 N   0  0  0  0  0  0  0  0  0  0  0  0
    0.3239   -2.0724   -0.0788 C   0  0  0  0  0  0  0  0  0  0  0  0
   -0.9531   -1.8488   -0.9041 C   0  0  0  0  0  0  0  0  0  0  0  0
   -1.7733   -0.6783   -0.4160 C   0  0  0  0  0  0  0  0  0  0  0  0
    0.8468   -3.4929   -0.2683 C   0  0  0  0  0  0  0  0  0  0  0  0
    3.2440    0.3393   -0.1783 C   0  0  0  0  0  0  0  0  0  0  0  0
    2.3088   -0.6741    0.4607 C   0  0  0  0  0  0  0  0  0  0  0  0
    2.5347    1.5884   -0.7013 C   0  0  0  0  0  0  0  0  0  0  0  0
    1.8648    2.3858    0.4193 C   0  0  0  0  0  0  0  0  0  0  0  0
   -2.7498   -0.8875    0.5444 C   0  0  0  0  0  0  0  0  0  0  0  0
   -1.5342    0.5827   -0.9379 C   0  0  0  0  0  0  0  0  0  0  0  0
   -3.5074    0.1934    0.9952 C   0  0  0  0  0  0  0  0  0  0  0  0
   -2.2920    1.6636   -0.4871 C   0  0  0  0  0  0  0  0  0  0  0  0
   -3.2786    1.4690    0.4795 C   0  0  0  0  0  0  0  0  0  0  0  0
  1  9  2  0
  2  4  1  0
  2  9  1  0
  3 11  1  0
  4  5  1  0
  4  7  1  0
  5  6  1  0
  6 12  2  0
  6 13  1  0
  8  9  1  0
  8 10  1  0
 10 11  1  0
 12 14  1  0
 13 15  2  0
 14 16  2  0
 15 16  1  0
M  END
>  <PUBCHEM_COMPOUND_CID>  (1) 
26657

>  <PUBCHEM_CONFORMER_RMSD>  (1) 
0.8

>  <PUBCHEM_CONFORMER_DIVERSEORDER>  (1) 
1
20
86
91
83
9
77
82
35
60
100
72
58
96
57
19
99
76
123
5
119
55
2
13
88
69
80
24
113
27
121
79
93
107
41
8
66
14
52
56
46
31
34
71
12
45
54
84
23
92
32
65
62
115
22
75
97
7
33
114
6
36
40
63
11
47
68
29
108
16
48
112
25
122
70
116
50
120
44
104
49
15
117
73
21
39
101
106
10
74
64
89
28
18
103
59
98
17
51
102
95
53
78
43
109
37
4
118
105
30
85
3
111
94
38
110
87
26
61
42
90
67
81

>  <PUBCHEM_MMFF94_PARTIAL_CHARGES>  (1) 
22
1 -0.57
11 0.27
12 -0.15
13 -0.15
14 -0.15
15 -0.15
16 -0.15
2 -0.73
20 0.37
3 -0.99
30 0.15
31 0.15
32 0.15
33 0.15
34 0.15
35 0.36
36 0.36
4 0.3
5 0.14
6 -0.14
8 0.06
9 0.57

>  <PUBCHEM_EFFECTIVE_ROTOR_COUNT>  (1) 
7

>  <PUBCHEM_PHARMACOPHORE_FEATURES>  (1) 
5
1 1 acceptor
1 2 donor
1 3 cation
1 3 donor
6 6 12 13 14 15 16 rings

>  <PUBCHEM_HEAVY_ATOM_COUNT>  (1) 
16

>  <PUBCHEM_ATOM_DEF_STEREO_COUNT>  (1) 
0

>  <PUBCHEM_ATOM_UDEF_STEREO_COUNT>  (1) 
1

>  <PUBCHEM_BOND_DEF_STEREO_COUNT>  (1) 
0

>  <PUBCHEM_BOND_UDEF_STEREO_COUNT>  (1) 
0

>  <PUBCHEM_ISOTOPIC_ATOM_COUNT>  (1) 
0

>  <PUBCHEM_COMPONENT_COUNT>  (1) 
1

>  <PUBCHEM_CACTVS_TAUTO_COUNT>  (1) 
2

>  <PUBCHEM_CONFORMER_ID>  (1) 
0000682100000001

>  <PUBCHEM_MMFF94_ENERGY>  (1) 
21.8345

>  <PUBCHEM_FEATURE_SELFOVERLAP>  (1) 
25.371

>  <PUBCHEM_SHAPE_FINGERPRINT>  (1) 
10366900 7 17967824859303555443
104564 63 17334781881588637182
12633257 1 18188216381849768833
12696612 119 18336264552661073615
128993 33 18339363092382012736
13618510 140 18412826867323541677
14026960 21 18337680805695591483
14251711 518 18337099185255668168
14386348 128 18336549425067990612
15775835 57 18336554918404846212
16945 1 18410573951198297631
17357990 137 18411127061429110162
18219364 16 18335413543725594077
192875 21 18123715821112829607
20671657 1 18271248209692006878
20681677 76 18191307079276825383
21041028 32 17833274116714277630
21524375 3 18410856607053826182
2748010 2 17619336611558550854
31174 14 18264501585375350507
44154327 71 18047760574450512405
526903 126 17475229579536172321
5939293 188 18411980230696534596
6333272 397 18412829109718606159
7097593 13 18042107796146563362
7364860 26 18267311932300111335
7832392 63 18341332301075713780
81228 2 17692803109578638034

>  <PUBCHEM_SHAPE_MULTIPOLES>  (1) 
313.44
5.55
3.66
1.04
1.39
0.11
-0.17
2.2
-1.22
-1.86
0.36
0.02
-0.11
-0.3

>  <PUBCHEM_SHAPE_SELFOVERLAP>  (1) 
624.39

>  <PUBCHEM_SHAPE_VOLUME>  (1) 
185.4

>  <PUBCHEM_COORDINATE_TYPE>  (1) 
2
5
10

$$$$
