26662
     RDKit          3D

 25 27  0  0  0  0  0  0  0  0999 V2000
    0.7714   -2.3944   -0.9647 S   0  0  0  0  0  0  0  0  0  0  0  0
   -2.2983    0.7179    1.6852 O   0  0  0  0  0  0  0  0  0  0  0  0
    2.1056    1.8272    1.5906 O   0  0  0  0  0  0  0  0  0  0  0  0
   -0.9007   -0.5917    0.3199 N   0  0  0  0  0  0  0  0  0  0  0  0
    1.4409   -0.0009    0.2681 N   0  0  0  0  0  0  0  0  0  0  0  0
   -0.1945    1.6160    1.0948 C   0  0  0  0  0  0  0  0  0  0  0  0
   -0.4543    2.5454   -0.0899 C   0  0  0  0  0  0  0  0  0  0  0  0
   -1.8224    3.2187    0.0160 C   0  0  0  0  0  0  0  0  0  0  0  0
   -1.2276    0.5321    1.1020 C   0  0  0  0  0  0  0  0  0  0  0  0
    1.2282    1.1510    1.0487 C   0  0  0  0  0  0  0  0  0  0  0  0
   -2.0643    4.1730   -1.1532 C   0  0  0  0  0  0  0  0  0  0  0  0
    0.4213   -0.9342   -0.1440 C   0  0  0  0  0  0  0  0  0  0  0  0
   -2.0102   -1.4657    0.0389 C   0  0  0  0  0  0  0  0  0  0  0  0
    2.8194   -0.2470   -0.0686 C   0  0  0  0  0  0  0  0  0  0  0  0
   -3.4100    4.8703   -1.0341 C   0  0  0  0  0  0  0  0  0  0  0  0
   -2.7763   -1.2512   -1.0977 C   0  0  0  0  0  0  0  0  0  0  0  0
    3.6003   -1.0211    0.7773 C   0  0  0  0  0  0  0  0  0  0  0  0
   -2.2947   -2.5083    0.9086 C   0  0  0  0  0  0  0  0  0  0  0  0
    3.3441    0.2933   -1.2336 C   0  0  0  0  0  0  0  0  0  0  0  0
   -3.8507   -2.0979   -1.3704 C   0  0  0  0  0  0  0  0  0  0  0  0
    4.9353   -1.2599    0.4512 C   0  0  0  0  0  0  0  0  0  0  0  0
   -3.3691   -3.3550    0.6357 C   0  0  0  0  0  0  0  0  0  0  0  0
    4.6792    0.0544   -1.5598 C   0  0  0  0  0  0  0  0  0  0  0  0
   -4.1470   -3.1497   -0.5038 C   0  0  0  0  0  0  0  0  0  0  0  0
    5.4747   -0.7223   -0.7173 C   0  0  0  0  0  0  0  0  0  0  0  0
  1 12  2  0
  2  9  2  0
  3 10  2  0
  4  9  1  0
  4 12  1  0
  4 13  1  0
  5 10  1  0
  5 12  1  0
  5 14  1  0
  6  7  1  0
  6  9  1  0
  6 10  1  0
  7  8  1  0
  8 11  1  0
 11 15  1  0
 13 16  2  0
 13 18  1  0
 14 17  2  0
 14 19  1  0
 16 20  1  0
 17 21  1  0
 18 22  2  0
 19 23  2  0
 20 24  2  0
 21 25  2  0
 22 24  1  0
 23 25  1  0
M  END
>  <PUBCHEM_COMPOUND_CID>  (1) 
26662

>  <PUBCHEM_CONFORMER_RMSD>  (1) 
0.8

>  <PUBCHEM_CONFORMER_DIVERSEORDER>  (1) 
1
8
4
7
6
11
3
10
9
2
5

>  <PUBCHEM_MMFF94_PARTIAL_CHARGES>  (1) 
31
1 -0.38
10 0.57
12 0.5
13 0.12
14 0.12
16 -0.15
17 -0.15
18 -0.15
19 -0.15
2 -0.57
20 -0.15
21 -0.15
22 -0.15
23 -0.15
24 -0.15
25 -0.15
3 -0.57
36 0.15
37 0.15
38 0.15
39 0.15
4 -0.24
40 0.15
41 0.15
42 0.15
43 0.15
44 0.15
45 0.15
5 -0.24
6 0.12
9 0.57

>  <PUBCHEM_EFFECTIVE_ROTOR_COUNT>  (1) 
5.6

>  <PUBCHEM_PHARMACOPHORE_FEATURES>  (1) 
8
1 1 acceptor
1 15 hydrophobe
1 2 acceptor
1 3 acceptor
1 6 anion
6 13 16 18 20 22 24 rings
6 14 17 19 21 23 25 rings
6 4 5 6 9 10 12 rings

>  <PUBCHEM_HEAVY_ATOM_COUNT>  (1) 
25

>  <PUBCHEM_ATOM_DEF_STEREO_COUNT>  (1) 
0

>  <PUBCHEM_ATOM_UDEF_STEREO_COUNT>  (1) 
0

>  <PUBCHEM_BOND_DEF_STEREO_COUNT>  (1) 
0

>  <PUBCHEM_BOND_UDEF_STEREO_COUNT>  (1) 
0

>  <PUBCHEM_ISOTOPIC_ATOM_COUNT>  (1) 
0

>  <PUBCHEM_COMPONENT_COUNT>  (1) 
1

>  <PUBCHEM_CACTVS_TAUTO_COUNT>  (1) 
1

>  <PUBCHEM_CONFORMER_ID>  (1) 
0000682600000001

>  <PUBCHEM_MMFF94_ENERGY>  (1) 
115.9138

>  <PUBCHEM_FEATURE_SELFOVERLAP>  (1) 
40.597

>  <PUBCHEM_SHAPE_FINGERPRINT>  (1) 
11045515 52 18337955717830431047
11578080 2 18338786846159844112
12363563 72 18200319947414052610
12553582 1 18341059626139554282
12714826 92 18272941518023404842
12788726 201 18262508217859595555
13052359 8 18266734671578657744
13140716 1 18130796680248411824
13149001 5 17986653914446744912
13540713 4 18058996346968980392
13899415 180 18197762500463130903
13911987 19 17176892471523408876
14251757 5 18334289869033726189
14508225 48 18339641256118214869
14556957 393 18116735060796396212
15664445 248 17832712644219407564
15775530 1 18270941523305268104
16752209 62 18412819162701014162
17357779 13 18131063878738077279
17539 30 18411132528800983205
1813 80 18127988596260213111
18222031 100 17774163542644911262
19427546 20 18409172087047786140
20691752 17 18264494047496626696
20739085 24 17982191185769848003
21304303 282 18119507865843979671
21344244 181 17555734309599579589
21641784 216 18264510523028422388
22182313 1 17987215859604204536
22907989 373 18411142424316235620
23419403 2 17130398337656497041
23559900 14 18120366811705669826
23598288 3 18042420044531904648
238 59 17258221766039342333
2748010 2 18200020888640317593
3388396 114 17682990990930547892
38695281 34 17758674451877717805
4409770 3 18336827472966559073
5080951 261 17917134006188173622
59025328 239 17268027618778568709
59755656 520 17842007580454738832
7164475 11 18408888421621819790
7970288 3 18129949004393183326

>  <PUBCHEM_SHAPE_MULTIPOLES>  (1) 
496.64
8.94
5.24
1.47
9.66
5.55
0
-4.28
-2.81
-9.84
-1.44
0.04
0.26
0.68

>  <PUBCHEM_SHAPE_SELFOVERLAP>  (1) 
1050.786

>  <PUBCHEM_SHAPE_VOLUME>  (1) 
278.6

>  <PUBCHEM_COORDINATE_TYPE>  (1) 
2
5
10

$$$$
