26661
     RDKit          3D

 20 21  0  0  1  0  0  0  0  0999 V2000
   -1.5499    2.5938    0.6613 O   0  0  0  0  0  0  0  0  0  0  0  0
    2.8395    1.6807    1.6280 O   0  0  0  0  0  0  0  0  0  0  0  0
    1.9482   -2.5735   -0.5143 O   0  0  0  0  0  0  0  0  0  0  0  0
    0.6444    2.1083    1.0942 N   0  0  0  0  0  0  0  0  0  0  0  0
    2.9353   -0.5144   -0.0367 N   0  0  0  0  0  0  0  0  0  0  0  0
   -0.6186    0.6966   -0.5300 C   0  0  0  0  0  0  0  0  0  0  0  0
   -0.9580    1.2457   -1.9213 C   0  0  0  0  0  0  0  0  0  0  0  0
   -1.7171   -0.2318   -0.0971 C   0  0  0  0  0  0  0  0  0  0  0  0
    0.6840   -0.0682   -0.5998 C   0  0  0  0  0  0  0  0  0  0  0  0
   -0.5648    1.8808    0.4530 C   0  0  0  0  0  0  0  0  0  0  0  0
    1.7958    0.2268    0.0818 C   0  0  0  0  0  0  0  0  0  0  0  0
    0.1328    2.1660   -2.4267 C   0  0  0  0  0  0  0  0  0  0  0  0
   -1.6297   -0.8731    1.1326 C   0  0  0  0  0  0  0  0  0  0  0  0
   -2.8095   -0.4394   -0.9307 C   0  0  0  0  0  0  0  0  0  0  0  0
    1.8248    1.3889    0.9980 C   0  0  0  0  0  0  0  0  0  0  0  0
   -2.6497   -1.7351    1.5348 C   0  0  0  0  0  0  0  0  0  0  0  0
   -3.8298   -1.3014   -0.5283 C   0  0  0  0  0  0  0  0  0  0  0  0
   -3.7498   -1.9493    0.7045 C   0  0  0  0  0  0  0  0  0  0  0  0
    2.9379   -1.8706   -0.3278 C   0  0  0  0  0  0  0  0  0  0  0  0
    4.3343   -2.4305   -0.3757 C   0  0  0  0  0  0  0  0  0  0  0  0
  1 10  2  0
  2 15  2  0
  3 19  2  0
  4 10  1  0
  4 15  1  0
  5 11  1  0
  5 19  1  0
  6  7  1  0
  6  8  1  0
  6  9  1  0
  6 10  1  0
  7 12  1  0
  8 13  2  0
  8 14  1  0
  9 11  2  0
 11 15  1  0
 13 16  1  0
 14 17  2  0
 16 18  2  0
 17 18  1  0
 19 20  1  0
M  END
>  <PUBCHEM_COMPOUND_CID>  (1) 
26661

>  <PUBCHEM_CONFORMER_RMSD>  (1) 
0.6

>  <PUBCHEM_CONFORMER_DIVERSEORDER>  (1) 
1
10
5
9
7
12
16
14
4
17
13
8
2
6
15
3
11

>  <PUBCHEM_MMFF94_PARTIAL_CHARGES>  (1) 
26
1 -0.57
10 0.57
11 0.12
13 -0.15
14 -0.15
15 0.62
16 -0.15
17 -0.15
18 -0.15
19 0.57
2 -0.57
20 0.06
23 0.15
27 0.37
28 0.15
29 0.15
3 -0.57
30 0.37
31 0.15
32 0.15
33 0.15
4 -0.49
5 -0.54
6 0.34
8 -0.14
9 -0.29

>  <PUBCHEM_EFFECTIVE_ROTOR_COUNT>  (1) 
4.4

>  <PUBCHEM_PHARMACOPHORE_FEATURES>  (1) 
8
1 1 acceptor
1 12 hydrophobe
1 2 acceptor
1 3 acceptor
1 4 donor
1 5 donor
6 4 6 9 10 11 15 rings
6 8 13 14 16 17 18 rings

>  <PUBCHEM_HEAVY_ATOM_COUNT>  (1) 
20

>  <PUBCHEM_ATOM_DEF_STEREO_COUNT>  (1) 
0

>  <PUBCHEM_ATOM_UDEF_STEREO_COUNT>  (1) 
1

>  <PUBCHEM_BOND_DEF_STEREO_COUNT>  (1) 
0

>  <PUBCHEM_BOND_UDEF_STEREO_COUNT>  (1) 
0

>  <PUBCHEM_ISOTOPIC_ATOM_COUNT>  (1) 
0

>  <PUBCHEM_COMPONENT_COUNT>  (1) 
1

>  <PUBCHEM_CACTVS_TAUTO_COUNT>  (1) 
6

>  <PUBCHEM_CONFORMER_ID>  (1) 
0000682500000001

>  <PUBCHEM_MMFF94_ENERGY>  (1) 
65.9615

>  <PUBCHEM_FEATURE_SELFOVERLAP>  (1) 
40.596

>  <PUBCHEM_SHAPE_FINGERPRINT>  (1) 
11578080 2 18409449176198879716
11582403 64 15958269468756518861
12202030 40 18335415751375447310
12506688 2 18410580599464910190
12633257 1 17559136310049811387
13134695 92 18270118041130711701
13140716 1 18058733490163723448
13544592 145 18262506010325227885
13544653 18 18410858780138213087
13583140 156 17415272004394585675
14004458 79 16878760752296687213
14022347 108 17458338637603192913
14787075 74 15186245425287317339
14863182 85 18051424164179173150
15422964 175 18339076111399328673
16945 1 18197494249622035441
17357779 13 18408317774454326183
1813 80 17822297906934866837
18927931 339 17628350468915343478
19049666 15 18410282615008057433
20600515 1 17532073046612962605
20645477 70 18268975631111406279
21285901 2 18042104570979142863
22721475 48 18336271162747909694
23419403 2 18339342111503487509
23526113 38 18265588005800351109
23557571 272 17968078833747335060
23559900 14 18335696139794185868
2748010 2 18337376193302795892
31174 14 18131064978455277362
3797600 57 15982852465778496647
568465 68 18121774203900552049
5845 1 13938029260607159628
6443956 14 18410298051257896651
7364860 26 17390799121459104813
81228 2 18113896022846824189
84936 31 17902514023121960957

>  <PUBCHEM_SHAPE_MULTIPOLES>  (1) 
384.02
6.07
3.08
1.67
0.91
0.02
-0.31
-5.97
0.26
1.09
-0.12
-0.08
1.02
1.42

>  <PUBCHEM_SHAPE_SELFOVERLAP>  (1) 
823.874

>  <PUBCHEM_SHAPE_VOLUME>  (1) 
210.9

>  <PUBCHEM_COORDINATE_TYPE>  (1) 
2
5
10

$$$$
