26683
     RDKit          3D

 22 24  0  0  0  0  0  0  0  0999 V2000
   -6.6038   -1.9082    0.2600 Cl  0  0  0  0  0  0  0  0  0  0  0  0
    5.4112   -2.2654    0.0701 O   0  0  0  0  0  0  0  0  0  0  0  0
   -0.1598   -0.8570   -0.4945 O   0  0  0  0  0  0  0  0  0  0  0  0
    3.7334    0.0336    0.0917 N   0  0  0  0  0  0  0  0  0  0  0  0
    0.5057    1.9311    0.3049 N   0  0  0  0  0  0  0  0  0  0  0  0
    2.5999    0.8152   -0.3983 C   0  0  0  0  0  0  0  0  0  0  0  0
    3.2819   -1.2526    0.6404 C   0  0  0  0  0  0  0  0  0  0  0  0
    4.7135   -0.1922   -0.9797 C   0  0  0  0  0  0  0  0  0  0  0  0
    1.6420    1.1280    0.7476 C   0  0  0  0  0  0  0  0  0  0  0  0
    4.4825   -2.0547    1.1342 C   0  0  0  0  0  0  0  0  0  0  0  0
    5.8802   -1.0201   -0.4484 C   0  0  0  0  0  0  0  0  0  0  0  0
   -0.6767    1.4372   -0.1580 C   0  0  0  0  0  0  0  0  0  0  0  0
    0.4890    3.2937    0.2993 C   0  0  0  0  0  0  0  0  0  0  0  0
   -1.4780    2.5132   -0.4699 C   0  0  0  0  0  0  0  0  0  0  0  0
   -0.7405    3.6878   -0.1804 C   0  0  0  0  0  0  0  0  0  0  0  0
   -0.9950    0.0474   -0.2830 C   0  0  0  0  0  0  0  0  0  0  0  0
   -2.4038   -0.4447   -0.1458 C   0  0  0  0  0  0  0  0  0  0  0  0
   -3.2607    0.2486    0.6731 C   0  0  0  0  0  0  0  0  0  0  0  0
   -2.7754   -1.5659   -0.8464 C   0  0  0  0  0  0  0  0  0  0  0  0
   -4.5724   -0.2083    0.7997 C   0  0  0  0  0  0  0  0  0  0  0  0
   -4.0873   -2.0229   -0.7199 C   0  0  0  0  0  0  0  0  0  0  0  0
   -4.9859   -1.3440    0.1032 C   0  0  0  0  0  0  0  0  0  0  0  0
  1 22  1  0
  2 10  1  0
  2 11  1  0
  3 16  2  0
  4  6  1  0
  4  7  1  0
  4  8  1  0
  5  9  1  0
  5 12  1  0
  5 13  1  0
  6  9  1  0
  7 10  1  0
  8 11  1  0
 12 14  2  0
 12 16  1  0
 13 15  2  0
 14 15  1  0
 16 17  1  0
 17 18  2  0
 17 19  1  0
 18 20  1  0
 19 21  2  0
 20 22  2  0
 21 22  1  0
M  END
>  <PUBCHEM_COMPOUND_CID>  (1) 
26683

>  <PUBCHEM_CONFORMER_RMSD>  (1) 
0.8

>  <PUBCHEM_CONFORMER_DIVERSEORDER>  (1) 
1
84
62
34
76
50
78
91
71
26
8
63
43
64
11
58
15
70
27
20
55
12
52
77
67
89
73
7
40
72
83
81
82
49
41
60
54
79
44
42
48
29
32
75
18
23
35
56
17
39
9
22
61
69
53
28
3
47
88
19
21
14
24
6
33
10
68
2
13
66
74
51
65
87
59
16
36
85
25
45
46
4
80
37
57
86
90
31
30
5
38

>  <PUBCHEM_MMFF94_PARTIAL_CHARGES>  (1) 
29
1 -0.18
10 0.28
11 0.28
12 -0.24
13 -0.3
14 -0.15
15 -0.15
16 0.57
17 0.09
18 -0.15
19 -0.15
2 -0.56
20 -0.15
21 -0.15
22 0.18
3 -0.57
35 0.15
36 0.15
37 0.15
38 0.15
39 0.15
4 -0.81
40 0.15
41 0.15
5 0.05
6 0.27
7 0.27
8 0.27
9 0.26

>  <PUBCHEM_EFFECTIVE_ROTOR_COUNT>  (1) 
6.2

>  <PUBCHEM_PHARMACOPHORE_FEATURES>  (1) 
7
1 2 acceptor
1 3 acceptor
1 4 cation
1 5 cation
5 5 12 13 14 15 rings
6 17 18 19 20 21 22 rings
6 2 4 7 8 10 11 rings

>  <PUBCHEM_HEAVY_ATOM_COUNT>  (1) 
22

>  <PUBCHEM_ATOM_DEF_STEREO_COUNT>  (1) 
0

>  <PUBCHEM_ATOM_UDEF_STEREO_COUNT>  (1) 
0

>  <PUBCHEM_BOND_DEF_STEREO_COUNT>  (1) 
0

>  <PUBCHEM_BOND_UDEF_STEREO_COUNT>  (1) 
0

>  <PUBCHEM_ISOTOPIC_ATOM_COUNT>  (1) 
0

>  <PUBCHEM_COMPONENT_COUNT>  (1) 
1

>  <PUBCHEM_CACTVS_TAUTO_COUNT>  (1) 
1

>  <PUBCHEM_CONFORMER_ID>  (1) 
0000683B00000001

>  <PUBCHEM_MMFF94_ENERGY>  (1) 
47.0499

>  <PUBCHEM_FEATURE_SELFOVERLAP>  (1) 
35.522

>  <PUBCHEM_SHAPE_FINGERPRINT>  (1) 
10411042 1 18410575093284947869
10616163 171 18194962942448868030
10622 236 17752189601375196746
11045515 52 18040714749273792532
11265709 11 18411139142718283564
11809386 21 18116145563855839274
11991303 11 17679859302641604453
12107183 9 18342750589803937321
12516196 113 18410292540318905802
12553582 1 18411125953037345206
12633257 1 16128370518995429430
12760667 363 18408323263496253370
12788726 201 18262234417883792146
13009979 54 18059026076400190017
13103583 49 18131362898946173697
13533116 47 18196934603189282035
13631057 29 18409731721528800992
13862211 1 18412265047236773511
13911852 28 18410570682749420635
13955234 65 17981046637173392281
14251764 30 18260555562481309499
14347332 77 18264772061041426190
14739800 52 16700332164535011489
14767858 380 18188224194959970948
14866123 147 18267586806513331921
15042514 8 18267867189956653149
15352361 1 18410854369407123570
15537594 2 18410299133289078814
15885798 251 18411981368698954480
15927050 60 17692534833088688654
17349148 13 17774726480366824439
17492 89 18193275196538130674
1813 80 18340217357182329933
18222031 100 18343011233603446039
19319366 153 18040994090253351314
19784866 135 18340200800088691624
19784866 140 18113335301643553379
20403669 9 18342461443313983214
20832881 197 18334856138959800915
21267235 1 18411990173376844431
21279426 13 18261941991173162101
21478907 32 18410008814863942317
22182313 1 18193810799685809125
22950370 63 18410296921111577706
2297311 6 18342185423325280310
235170 7 15936684900373116974
23522609 53 18122379892963564688
23559900 14 18194959867436887699
3004659 81 18113053840111043342
314194 84 18337396061921889819
335352 9 18411699868860003109
3421961 26 18340203123586974729
345986 75 18335689512453809946
351380 3 18410012135005569894
4409770 3 18118960296390783765
44880168 125 17346315943459202774
46194498 28 17241323728013392477
463206 1 18335419122909788586
465052 167 18341619256046040055
5104073 3 18202562882193310392
56633871 153 18201999928214479375
6058803 2 17841723108519055737
7164475 11 18334858260795211156
7237137 82 18260270702996497244
77188 2 18410856598416860477
7970288 3 18409727374131393403
8863177 126 17898582122898053483

>  <PUBCHEM_SHAPE_MULTIPOLES>  (1) 
432.92
13.3
3.51
0.92
1.33
3.22
0.03
-14.29
0.46
0.12
0.06
0.21
-0.2
-0.6

>  <PUBCHEM_SHAPE_SELFOVERLAP>  (1) 
917.201

>  <PUBCHEM_SHAPE_VOLUME>  (1) 
245

>  <PUBCHEM_COORDINATE_TYPE>  (1) 
2
5
10

$$$$
