26685
     RDKit          3D

 20 21  0  0  1  0  0  0  0  0999 V2000
   -2.2939    1.3670    1.1419 F   0  0  0  0  0  0  0  0  0  0  0  0
    0.0804   -1.4243   -0.3658 O   0  0  0  0  0  0  0  0  0  0  0  0
    1.1810    1.2534    0.2508 N   0  0  0  0  0  0  0  0  0  0  0  0
    3.9592   -1.2677    0.4734 N   0  0  0  0  0  0  0  0  0  0  0  0
    3.0972   -0.3003   -0.2049 C   0  0  0  0  0  0  0  0  0  0  0  0
    2.1369    0.3114    0.8268 C   0  0  0  0  0  0  0  0  0  0  0  0
    3.9772    0.7494   -0.8820 C   0  0  0  0  0  0  0  0  0  0  0  0
   -0.0503    0.9299   -0.2340 C   0  0  0  0  0  0  0  0  0  0  0  0
    1.4079    2.5910    0.1252 C   0  0  0  0  0  0  0  0  0  0  0  0
    4.8455   -1.9239   -0.4871 C   0  0  0  0  0  0  0  0  0  0  0  0
    3.1537   -2.2589    1.1857 C   0  0  0  0  0  0  0  0  0  0  0  0
   -0.6331    2.0936   -0.6851 C   0  0  0  0  0  0  0  0  0  0  0  0
    0.2893    3.1444   -0.4578 C   0  0  0  0  0  0  0  0  0  0  0  0
   -0.6054   -0.3890   -0.2554 C   0  0  0  0  0  0  0  0  0  0  0  0
   -2.0828   -0.6098   -0.1581 C   0  0  0  0  0  0  0  0  0  0  0  0
   -2.8386    0.2975    0.5444 C   0  0  0  0  0  0  0  0  0  0  0  0
   -2.6196   -1.7126   -0.7776 C   0  0  0  0  0  0  0  0  0  0  0  0
   -4.2150    0.0894    0.6329 C   0  0  0  0  0  0  0  0  0  0  0  0
   -3.9960   -1.9208   -0.6893 C   0  0  0  0  0  0  0  0  0  0  0  0
   -4.7937   -1.0198    0.0161 C   0  0  0  0  0  0  0  0  0  0  0  0
  1 16  1  0
  2 14  2  0
  3  6  1  0
  3  8  1  0
  3  9  1  0
  4  5  1  0
  4 10  1  0
  4 11  1  0
  5  6  1  0
  5  7  1  0
  8 12  2  0
  8 14  1  0
  9 13  2  0
 12 13  1  0
 14 15  1  0
 15 16  2  0
 15 17  1  0
 16 18  1  0
 17 19  2  0
 18 20  2  0
 19 20  1  0
M  END
>  <PUBCHEM_COMPOUND_CID>  (1) 
26685

>  <PUBCHEM_CONFORMER_RMSD>  (1) 
0.8

>  <PUBCHEM_CONFORMER_DIVERSEORDER>  (1) 
38
81
96
39
73
99
44
75
15
104
63
43
34
106
7
77
100
65
89
50
83
69
18
105
101
72
60
54
107
86
91
93
78
9
87
19
71
90
94
88
45
6
21
52
51
23
82
33
27
5
37
61
48
11
16
64
67
2
29
32
55
85
46
70
68
17
79
102
74
97
92
49
1
12
4
36
40
8
98
26
56
20
62
25
35
47
14
53
24
30
76
103
3
10
42
95
58
84
59
80
57
66
31
13
41
28
22

>  <PUBCHEM_MMFF94_PARTIAL_CHARGES>  (1) 
26
1 -0.19
10 0.27
11 0.27
12 -0.15
13 -0.15
14 0.57
15 0.09
16 0.19
17 -0.15
18 -0.15
19 -0.15
2 -0.57
20 -0.15
27 0.15
3 0.05
34 0.15
35 0.15
36 0.15
37 0.15
38 0.15
39 0.15
4 -0.81
5 0.27
6 0.26
8 -0.24
9 -0.3

>  <PUBCHEM_EFFECTIVE_ROTOR_COUNT>  (1) 
5

>  <PUBCHEM_PHARMACOPHORE_FEATURES>  (1) 
5
1 2 acceptor
1 3 cation
1 4 cation
5 3 8 9 12 13 rings
6 15 16 17 18 19 20 rings

>  <PUBCHEM_HEAVY_ATOM_COUNT>  (1) 
20

>  <PUBCHEM_ATOM_DEF_STEREO_COUNT>  (1) 
0

>  <PUBCHEM_ATOM_UDEF_STEREO_COUNT>  (1) 
1

>  <PUBCHEM_BOND_DEF_STEREO_COUNT>  (1) 
0

>  <PUBCHEM_BOND_UDEF_STEREO_COUNT>  (1) 
0

>  <PUBCHEM_ISOTOPIC_ATOM_COUNT>  (1) 
0

>  <PUBCHEM_COMPONENT_COUNT>  (1) 
1

>  <PUBCHEM_CACTVS_TAUTO_COUNT>  (1) 
1

>  <PUBCHEM_CONFORMER_ID>  (1) 
0000683D00000026

>  <PUBCHEM_MMFF94_ENERGY>  (1) 
52.9708

>  <PUBCHEM_FEATURE_SELFOVERLAP>  (1) 
25.372

>  <PUBCHEM_SHAPE_FINGERPRINT>  (1) 
10062212 137 18130505336075333183
11578080 2 18128511878012396089
12403259 327 15554443028761595710
12553582 1 18336255774017296738
12633257 1 17775293720364892313
12788726 201 18117278056326257426
13009979 54 18202015334208831593
13533116 47 18196932395565905947
13583140 156 14189279465855251310
14790565 3 17904203981411451740
15042514 8 18122060901673603748
15196674 1 18411982459557201220
15342816 4 18410863165795506374
15375462 189 18335140886364006842
15442244 35 18340770428953608633
15536298 74 18128255781886036881
15664445 248 18269292295166760148
15885798 251 18410009914412032160
17349148 13 17917709141243180943
17492 89 18195807603476165927
17804303 29 18131635586214087609
17818456 19 18060148626290635321
1813 80 18041002825640993660
18186145 218 17970335126449784695
18222031 100 18341885303468444999
19141452 34 18273214171089920607
19784866 135 18266169539976840906
20281475 54 18411700984902406404
20291156 8 18410853265415704458
20645477 70 18117546543306053255
20871998 22 18410003364708666808
21267235 1 18411709772073528838
221490 88 18046632471309985827
22182313 1 18191279706886395428
2255824 54 18191868044433246444
22950370 63 18410017628205197718
23463225 33 18412263973378625605
235170 7 15719392815269354458
23559900 14 18059852925923278273
3091708 16 9570960098315479648
314173 41 18408325514233261190
335352 9 18412265004772287125
3421961 26 18339356469821731328
4409770 3 17901659371885376557
465052 167 18412271661444360783
5104073 3 18129669733103025387
6992083 37 18270975556862842057
7097593 13 18198054974945654911
7164475 11 18188771631222369988
7364860 26 18054790851703923680
7970288 3 18409161087183795786
83771 10 18408603652041215488
9709674 26 18119527897645814091
9981440 41 17186993736207929465

>  <PUBCHEM_SHAPE_MULTIPOLES>  (1) 
388.49
9
2.97
0.96
0.21
1.36
-0.08
-6.53
0.11
-1.46
0.22
-0.11
-0.12
-0.93

>  <PUBCHEM_SHAPE_SELFOVERLAP>  (1) 
828.393

>  <PUBCHEM_SHAPE_VOLUME>  (1) 
219.9

>  <PUBCHEM_COORDINATE_TYPE>  (1) 
2
5
10

$$$$
