26687
     RDKit          3D

 17 18  0  0  0  0  0  0  0  0999 V2000
    0.6069    2.1347   -0.0271 O   0  0  0  0  0  0  0  0  0  0  0  0
   -1.1243   -2.9197    0.0419 O   0  0  0  0  0  0  0  0  0  0  0  0
    2.4855    0.1519    0.0068 N   0  0  0  0  0  0  0  0  0  0  0  0
    1.1589   -0.1719    0.0085 C   0  0  0  0  0  0  0  0  0  0  0  0
    3.3504   -0.2602    1.0934 C   0  0  0  0  0  0  0  0  0  0  0  0
    3.1164    0.6882   -1.1820 C   0  0  0  0  0  0  0  0  0  0  0  0
   -1.2421    0.6838   -0.0112 C   0  0  0  0  0  0  0  0  0  0  0  0
    0.2060    0.9754   -0.0116 C   0  0  0  0  0  0  0  0  0  0  0  0
   -1.7036   -0.6328    0.0082 C   0  0  0  0  0  0  0  0  0  0  0  0
    0.6905   -1.4258    0.0268 C   0  0  0  0  0  0  0  0  0  0  0  0
   -0.7495   -1.7536    0.0273 C   0  0  0  0  0  0  0  0  0  0  0  0
    2.9060    0.3361    2.4130 C   0  0  0  0  0  0  0  0  0  0  0  0
    3.0542   -0.2933   -2.3341 C   0  0  0  0  0  0  0  0  0  0  0  0
   -2.1592    1.7417   -0.0304 C   0  0  0  0  0  0  0  0  0  0  0  0
   -3.0785   -0.8949    0.0094 C   0  0  0  0  0  0  0  0  0  0  0  0
   -3.5295    1.4780   -0.0296 C   0  0  0  0  0  0  0  0  0  0  0  0
   -3.9882    0.1624   -0.0093 C   0  0  0  0  0  0  0  0  0  0  0  0
  1  8  2  0
  2 11  2  0
  3  4  1  0
  3  5  1  0
  3  6  1  0
  4  8  1  0
  4 10  2  0
  5 12  1  0
  6 13  1  0
  7  8  1  0
  7  9  2  0
  7 14  1  0
  9 11  1  0
  9 15  1  0
 10 11  1  0
 14 16  2  0
 15 17  2  0
 16 17  1  0
M  END
>  <PUBCHEM_COMPOUND_CID>  (1) 
26687

>  <PUBCHEM_CONFORMER_RMSD>  (1) 
0.6

>  <PUBCHEM_CONFORMER_DIVERSEORDER>  (1) 
1
2
5
6
3
4

>  <PUBCHEM_MMFF94_PARTIAL_CHARGES>  (1) 
20
1 -0.57
10 -0.14
11 0.47
14 -0.15
15 -0.15
16 -0.15
17 -0.15
2 -0.57
22 0.15
29 0.15
3 -0.84
30 0.15
31 0.15
32 0.15
4 0.11
5 0.37
6 0.37
7 0.09
8 0.47
9 0.09

>  <PUBCHEM_EFFECTIVE_ROTOR_COUNT>  (1) 
3

>  <PUBCHEM_PHARMACOPHORE_FEATURES>  (1) 
5
1 1 acceptor
1 2 acceptor
1 3 cation
6 4 7 8 9 10 11 rings
6 7 9 14 15 16 17 rings

>  <PUBCHEM_HEAVY_ATOM_COUNT>  (1) 
17

>  <PUBCHEM_ATOM_DEF_STEREO_COUNT>  (1) 
0

>  <PUBCHEM_ATOM_UDEF_STEREO_COUNT>  (1) 
0

>  <PUBCHEM_BOND_DEF_STEREO_COUNT>  (1) 
0

>  <PUBCHEM_BOND_UDEF_STEREO_COUNT>  (1) 
0

>  <PUBCHEM_ISOTOPIC_ATOM_COUNT>  (1) 
0

>  <PUBCHEM_COMPONENT_COUNT>  (1) 
1

>  <PUBCHEM_CACTVS_TAUTO_COUNT>  (1) 
1

>  <PUBCHEM_CONFORMER_ID>  (1) 
0000683F00000001

>  <PUBCHEM_MMFF94_ENERGY>  (1) 
51.1706

>  <PUBCHEM_FEATURE_SELFOVERLAP>  (1) 
25.393

>  <PUBCHEM_SHAPE_FINGERPRINT>  (1) 
10967382 1 18410293571517017735
11132069 177 18410567354075484513
11640471 11 17386868242708809460
12236239 1 17748827423808062556
13140716 1 18122341543553279491
13538477 17 18041559247334009754
13760787 19 17095532819818780083
14144814 61 18334858328992344409
14178342 30 18268143150548725609
14289901 80 15626214741191109075
15309172 13 18337964415271054849
15669948 3 18263083365171938646
15775835 57 17968103031255139172
16752209 62 18408882940905894311
16945 1 18410855503331237227
1813 80 13829036537747631532
18186145 218 17917435289395538089
19026448 4 16702302351884902509
19026448 5 16805042917407534489
19049666 15 17703796860114177288
193761 8 17833833046794210861
19422 9 17603305959669295411
19765921 60 17314813986124629988
19786989 88 14635154594088269132
20233049 118 18333737926775685124
20510252 161 18272653445850645601
20559304 39 18187359922389624328
20600515 1 18340476829453319128
20645476 183 17604445092312666486
2255824 54 16443068283786063714
232386 152 18262226824508076482
2334 1 17689998255573943275
23402539 116 18271227370420639142
23419403 2 16831155390764757469
23463225 33 18188484666544199362
23493267 7 17750257870596768090
23526113 38 17774460333864655590
23557571 272 17844806077923087883
23559900 14 18343312466115442996
23598291 2 17313386673833771668
2748010 2 18267023847642778727
4072396 5 18116975733757555305
43471831 8 18336261233126549323
53812653 166 18271797999939207113
7364860 26 17911793570669298835
77492 1 17676205779650977290
81228 2 18126564754746613067
88987 49 18339076094462188830
90316 7 17896579735502290736
9981440 41 17033626124142109364

>  <PUBCHEM_SHAPE_MULTIPOLES>  (1) 
333.13
6.4
2.03
1.46
0.87
0.73
0.06
-1.23
-0.07
1.22
-0.01
-2.6
-0.11
0.1

>  <PUBCHEM_SHAPE_SELFOVERLAP>  (1) 
711.672

>  <PUBCHEM_SHAPE_VOLUME>  (1) 
185.7

>  <PUBCHEM_COORDINATE_TYPE>  (1) 
2
5
10

$$$$
