26705
     RDKit          3D

 18 18  0  0  0  0  0  0  0  0999 V2000
    1.4130   -0.6207   -1.2109 O   0  0  0  0  0  0  0  0  0  0  0  0
    3.9192   -0.1794   -0.1447 N   0  0  0  0  0  0  0  0  0  0  0  0
    0.5229    0.8799    0.3600 N   0  0  0  0  0  0  0  0  0  0  0  0
   -5.0522   -0.1511    0.0916 C   0  0  0  0  0  0  0  0  0  0  0  0
    2.8874    0.8448    0.0137 C   0  0  0  0  0  0  0  0  0  0  0  0
   -3.5877    0.1197    0.1626 C   0  0  0  0  0  0  0  0  0  0  0  0
    3.6330   -1.3300    0.7113 C   0  0  0  0  0  0  0  0  0  0  0  0
    5.2381    0.3719    0.1642 C   0  0  0  0  0  0  0  0  0  0  0  0
   -0.8672    0.6228    0.2932 C   0  0  0  0  0  0  0  0  0  0  0  0
    1.5371    0.2656   -0.3717 C   0  0  0  0  0  0  0  0  0  0  0  0
   -5.4051   -1.5939    0.5006 C   0  0  0  0  0  0  0  0  0  0  0  0
   -5.6416    0.1564   -1.2982 C   0  0  0  0  0  0  0  0  0  0  0  0
   -3.0986    1.0876    1.0400 C   0  0  0  0  0  0  0  0  0  0  0  0
   -2.7065   -0.5947   -0.6489 C   0  0  0  0  0  0  0  0  0  0  0  0
   -1.7286    1.3409    1.1058 C   0  0  0  0  0  0  0  0  0  0  0  0
   -1.3364   -0.3415   -0.5831 C   0  0  0  0  0  0  0  0  0  0  0  0
    4.6887   -2.4065    0.5655 C   0  0  0  0  0  0  0  0  0  0  0  0
    5.5844    1.5282   -0.7510 C   0  0  0  0  0  0  0  0  0  0  0  0
  1 10  2  0
  2  5  1  0
  2  7  1  0
  2  8  1  0
  3  9  1  0
  3 10  1  0
  4  6  1  0
  4 11  1  0
  4 12  1  0
  5 10  1  0
  6 13  2  0
  6 14  1  0
  7 17  1  0
  8 18  1  0
  9 15  2  0
  9 16  1  0
 13 15  1  0
 14 16  2  0
M  END
>  <PUBCHEM_COMPOUND_CID>  (1) 
26705

>  <PUBCHEM_CONFORMER_RMSD>  (1) 
0.8

>  <PUBCHEM_CONFORMER_DIVERSEORDER>  (1) 
1
14
21
6
12
11
5
22
16
9
8
15
20
2
23
7
13
10
17
19
18
4
3

>  <PUBCHEM_MMFF94_PARTIAL_CHARGES>  (1) 
19
1 -0.57
10 0.57
13 -0.15
14 -0.15
15 -0.15
16 -0.15
2 -0.81
3 -0.55
32 0.15
33 0.15
34 0.37
35 0.15
36 0.15
4 0.14
5 0.33
6 -0.14
7 0.27
8 0.27
9 0.12

>  <PUBCHEM_EFFECTIVE_ROTOR_COUNT>  (1) 
7

>  <PUBCHEM_PHARMACOPHORE_FEATURES>  (1) 
5
1 1 acceptor
1 2 cation
1 3 donor
3 4 11 12 hydrophobe
6 6 9 13 14 15 16 rings

>  <PUBCHEM_HEAVY_ATOM_COUNT>  (1) 
18

>  <PUBCHEM_ATOM_DEF_STEREO_COUNT>  (1) 
0

>  <PUBCHEM_ATOM_UDEF_STEREO_COUNT>  (1) 
0

>  <PUBCHEM_BOND_DEF_STEREO_COUNT>  (1) 
0

>  <PUBCHEM_BOND_UDEF_STEREO_COUNT>  (1) 
0

>  <PUBCHEM_ISOTOPIC_ATOM_COUNT>  (1) 
0

>  <PUBCHEM_COMPONENT_COUNT>  (1) 
1

>  <PUBCHEM_CACTVS_TAUTO_COUNT>  (1) 
2

>  <PUBCHEM_CONFORMER_ID>  (1) 
0000685100000001

>  <PUBCHEM_MMFF94_ENERGY>  (1) 
44.481

>  <PUBCHEM_FEATURE_SELFOVERLAP>  (1) 
25.371

>  <PUBCHEM_SHAPE_FINGERPRINT>  (1) 
10366900 7 17489869349231933611
10447042 23 18412256225194352758
10912923 1 18272094863857663944
10968037 39 18272654588295926813
11796584 16 18113611275247569635
11858739 19 18335133146632752151
12107183 9 17763467214588569536
12236239 1 18411138030321558912
12403259 415 14764629681624013672
12596602 18 18408041822810618586
12788726 201 17917436401554678441
13167823 11 18411418371775245130
13533116 47 18412259511076715634
13862211 1 17846491543939739143
14123238 8 18059858367551630065
1420 363 17703799140557208013
14251718 22 18113900497954489041
17349148 13 17918272047766874645
17834072 33 18409449215169251432
18222031 100 17418369203315484640
19433438 28 13326856617050652338
19489759 90 17167577194369454997
200 152 18411980261040451825
20279233 1 15936413334107062864
20645477 70 18040994004232153314
21065198 48 18341616971381628656
21267235 1 17917159376174752197
220451 1 18412268350082214411
2297311 6 16773811298094902192
23402539 116 17561078099556925125
23536379 177 17894345571298569837
23557571 272 16056893419868586665
23559900 14 18337386149438246169
26918003 58 18411980273909509931
300161 21 18261386776075746540
3004659 81 18187081716210437338
351380 3 18060700606322244558
465052 167 18343023281282337918
474229 33 18060140954866958894
5104073 3 18130509643241450312
5374978 207 17703785920895706528
542803 24 18343867718532804132
573450 72 18201718388543597337
57483677 66 18407758144837522643
9971528 1 17312825953031648308

>  <PUBCHEM_SHAPE_MULTIPOLES>  (1) 
354.6
14.5
1.66
1.06
1.96
0.74
0.06
2.39
1.22
1.75
-0.36
-0.6
-0.1
-0.92

>  <PUBCHEM_SHAPE_SELFOVERLAP>  (1) 
710.487

>  <PUBCHEM_SHAPE_VOLUME>  (1) 
210.3

>  <PUBCHEM_COORDINATE_TYPE>  (1) 
2
5
10

$$$$
