26711
     RDKit          3D

 15 16  0  0  0  0  0  0  0  0999 V2000
   -3.1553   -2.2227   -0.1111 F   0  0  0  0  0  0  0  0  0  0  0  0
   -0.2406    2.3888    0.1030 N   0  0  0  0  0  0  0  0  0  0  0  0
    2.4014   -0.8708    2.0715 N   0  0  0  0  0  0  0  0  0  0  0  0
    2.1095   -0.3618   -0.3933 C   0  0  0  0  0  0  0  0  0  0  0  0
    0.9620    0.5472   -0.1955 C   0  0  0  0  0  0  0  0  0  0  0  0
    2.2510   -1.4603    0.7419 C   0  0  0  0  0  0  0  0  0  0  0  0
   -0.4087    0.1745   -0.1103 C   0  0  0  0  0  0  0  0  0  0  0  0
    1.9898   -1.1608   -1.7443 C   0  0  0  0  0  0  0  0  0  0  0  0
    3.5232    0.3315   -0.4936 C   0  0  0  0  0  0  0  0  0  0  0  0
    1.0332    1.9146   -0.0609 C   0  0  0  0  0  0  0  0  0  0  0  0
   -1.1417    1.3484    0.0769 C   0  0  0  0  0  0  0  0  0  0  0  0
   -1.0983   -1.0527   -0.1747 C   0  0  0  0  0  0  0  0  0  0  0  0
   -2.5354    1.3565    0.2036 C   0  0  0  0  0  0  0  0  0  0  0  0
   -2.4923   -1.0598   -0.0497 C   0  0  0  0  0  0  0  0  0  0  0  0
   -3.1977    0.1274    0.1366 C   0  0  0  0  0  0  0  0  0  0  0  0
  1 14  1  0
  2 10  1  0
  2 11  1  0
  3  6  1  0
  4  5  1  0
  4  6  1  0
  4  8  1  0
  4  9  1  0
  5  7  1  0
  5 10  2  0
  7 11  2  0
  7 12  1  0
 11 13  1  0
 12 14  2  0
 13 15  2  0
 14 15  1  0
M  END
>  <PUBCHEM_COMPOUND_CID>  (1) 
26711

>  <PUBCHEM_CONFORMER_RMSD>  (1) 
0.6

>  <PUBCHEM_CONFORMER_DIVERSEORDER>  (1) 
1
4
3
7
5
6
2

>  <PUBCHEM_MMFF94_PARTIAL_CHARGES>  (1) 
19
1 -0.19
10 -0.3
11 -0.15
12 -0.15
13 -0.15
14 0.19
15 -0.15
2 0.03
24 0.15
25 0.27
26 0.15
27 0.36
28 0.36
29 0.15
3 -0.99
30 0.15
4 0.18
5 -0.18
6 0.27

>  <PUBCHEM_EFFECTIVE_ROTOR_COUNT>  (1) 
2

>  <PUBCHEM_PHARMACOPHORE_FEATURES>  (1) 
7
1 2 cation
1 2 donor
1 3 cation
1 3 donor
3 4 8 9 hydrophobe
5 2 5 7 10 11 rings
6 7 11 12 13 14 15 rings

>  <PUBCHEM_HEAVY_ATOM_COUNT>  (1) 
15

>  <PUBCHEM_ATOM_DEF_STEREO_COUNT>  (1) 
0

>  <PUBCHEM_ATOM_UDEF_STEREO_COUNT>  (1) 
0

>  <PUBCHEM_BOND_DEF_STEREO_COUNT>  (1) 
0

>  <PUBCHEM_BOND_UDEF_STEREO_COUNT>  (1) 
0

>  <PUBCHEM_ISOTOPIC_ATOM_COUNT>  (1) 
0

>  <PUBCHEM_COMPONENT_COUNT>  (1) 
1

>  <PUBCHEM_CACTVS_TAUTO_COUNT>  (1) 
1

>  <PUBCHEM_CONFORMER_ID>  (1) 
0000685700000001

>  <PUBCHEM_MMFF94_ENERGY>  (1) 
31.3513

>  <PUBCHEM_FEATURE_SELFOVERLAP>  (1) 
35.612

>  <PUBCHEM_SHAPE_FINGERPRINT>  (1) 
11578080 2 17532064177801130140
11806522 49 18194122047464668028
12382932 28 18343016666473149528
12423570 1 11167403694134437678
12524768 44 18271530809870780989
12932764 1 18040440953587421133
13083527 12 17693338503100476939
13538477 17 18189054196603711366
14144814 61 18410295783171961185
14252887 29 18200048337744884907
15375462 175 18052554170047987230
15375462 189 18187368735282753299
15775835 57 18041285378448779837
16752209 62 18047186350276517205
16945 1 18267586810354546749
17990270 104 18270971235777400695
20510252 161 17986117314048891913
20645476 183 17460059325845129599
20645477 70 18052818345598537055
20871998 184 18131354102668463733
20871998 22 18271540757062569831
21501502 16 18267875045741734653
21501925 9 18269546290472724611
22802520 49 17842860835900779238
232386 152 18261387802478264170
2334 1 18339927146516341525
23402539 116 18410573985853214438
23419403 2 15829650844980536917
23463225 33 18336266734509656695
23552423 10 18189339142030282213
23559900 14 18198908007549567022
2748010 2 18340768238536118621
3312278 4 18408328791008042637
34934 24 18409446981454214572
5902787 121 18409164445783845835
7364860 26 18057045932793417377
74978 22 18409446990465973389
77492 1 17822016358959555910
81228 2 18127413345668337305

>  <PUBCHEM_SHAPE_MULTIPOLES>  (1) 
291.46
5.14
2.13
1.12
0.53
0.35
-0.24
-1.55
-0.09
0.8
0
-1.15
-0.47
-0.27

>  <PUBCHEM_SHAPE_SELFOVERLAP>  (1) 
625.243

>  <PUBCHEM_SHAPE_VOLUME>  (1) 
164.2

>  <PUBCHEM_COORDINATE_TYPE>  (1) 
2
5
10

$$$$
