26714
     RDKit          3D

 13 14  0  0  0  0  0  0  0  0999 V2000
    0.6344   -1.8760   -0.0026 N   0  0  0  0  0  0  0  0  0  0  0  0
   -4.6354    0.6478   -0.4069 N   0  0  0  0  0  0  0  0  0  0  0  0
   -1.1171   -0.5627    0.3639 C   0  0  0  0  0  0  0  0  0  0  0  0
    0.0360    0.2604    0.2307 C   0  0  0  0  0  0  0  0  0  0  0  0
    1.1212   -0.5882    0.0013 C   0  0  0  0  0  0  0  0  0  0  0  0
   -2.4989   -0.1056    0.6143 C   0  0  0  0  0  0  0  0  0  0  0  0
   -0.7170   -1.8708    0.2156 C   0  0  0  0  0  0  0  0  0  0  0  0
    2.4257   -0.1145   -0.1786 C   0  0  0  0  0  0  0  0  0  0  0  0
    0.2614    1.6504    0.2834 C   0  0  0  0  0  0  0  0  0  0  0  0
   -3.2843    0.1704   -0.6809 C   0  0  0  0  0  0  0  0  0  0  0  0
    2.6250    1.2678   -0.1222 C   0  0  0  0  0  0  0  0  0  0  0  0
    1.5610    2.1385    0.1050 C   0  0  0  0  0  0  0  0  0  0  0  0
    3.5880   -1.0175   -0.4231 C   0  0  0  0  0  0  0  0  0  0  0  0
  1  5  1  0
  1  7  1  0
  2 10  1  0
  3  4  1  0
  3  6  1  0
  3  7  2  0
  4  5  2  0
  4  9  1  0
  5  8  1  0
  6 10  1  0
  8 11  2  0
  8 13  1  0
  9 12  2  0
 11 12  1  0
M  END
>  <PUBCHEM_COMPOUND_CID>  (1) 
26714

>  <PUBCHEM_CONFORMER_RMSD>  (1) 
0.6

>  <PUBCHEM_CONFORMER_DIVERSEORDER>  (1) 
1
3
4
5
2

>  <PUBCHEM_MMFF94_PARTIAL_CHARGES>  (1) 
19
1 0.03
10 0.27
11 -0.15
12 -0.15
13 0.14
16 0.15
17 0.27
18 0.15
2 -0.99
21 0.15
22 0.15
26 0.36
27 0.36
3 -0.18
5 -0.15
6 0.18
7 -0.3
8 -0.14
9 -0.15

>  <PUBCHEM_EFFECTIVE_ROTOR_COUNT>  (1) 
2

>  <PUBCHEM_PHARMACOPHORE_FEATURES>  (1) 
6
1 1 cation
1 1 donor
1 2 cation
1 2 donor
5 1 3 4 5 7 rings
6 4 5 8 9 11 12 rings

>  <PUBCHEM_HEAVY_ATOM_COUNT>  (1) 
13

>  <PUBCHEM_ATOM_DEF_STEREO_COUNT>  (1) 
0

>  <PUBCHEM_ATOM_UDEF_STEREO_COUNT>  (1) 
0

>  <PUBCHEM_BOND_DEF_STEREO_COUNT>  (1) 
0

>  <PUBCHEM_BOND_UDEF_STEREO_COUNT>  (1) 
0

>  <PUBCHEM_ISOTOPIC_ATOM_COUNT>  (1) 
0

>  <PUBCHEM_COMPONENT_COUNT>  (1) 
1

>  <PUBCHEM_CACTVS_TAUTO_COUNT>  (1) 
1

>  <PUBCHEM_CONFORMER_ID>  (1) 
0000685A00000001

>  <PUBCHEM_MMFF94_ENERGY>  (1) 
15.3259

>  <PUBCHEM_FEATURE_SELFOVERLAP>  (1) 
30.538

>  <PUBCHEM_SHAPE_FINGERPRINT>  (1) 
10130415 120 18334856104457650682
10608611 8 18264488571297402529
11206711 2 18265063431163513412
11401426 45 18343013380976213706
11471102 20 18410854352258864013
124424 183 18113901541658045778
12654215 9 18335698329974325124
12730499 353 18187925050524564719
13380535 21 18048332311901493032
13571099 22 18343305876865347196
13922767 16 18411132545775059056
14251717 144 18413386519016152447
14325111 11 18337954605412737281
14648413 74 18120376711810723160
14911166 2 18410862040318902302
14993402 34 18342744000611681870
15219456 202 18262242226186901491
15279308 100 18336269053865934124
16945 1 18340781372445733522
18186145 218 18342466958157141697
193761 8 17979640361711353746
20233049 118 18186801348765472980
20511035 2 18195252345660751238
20606313 2 18411698781330962989
20645477 70 18342740714887984047
21029758 11 18272090470433271336
21501502 16 18194117658045151030
22713019 99 18201726115474833238
2334 1 18123476243679299706
23402539 116 18200868470682719934
23402655 69 18342170056048528101
23552423 10 18048324632758521506
23559900 14 18341625858460326476
25 1 18335417946272579663
2748010 2 18195539305252721938
3060560 45 18341887463990015031
3071541 158 18261681449524160660
34934 24 18411131476982226010
528886 8 18411697720495010098
63268167 104 18341621463579829664

>  <PUBCHEM_SHAPE_MULTIPOLES>  (1) 
257.57
5.78
1.98
0.72
4.59
0.15
0.01
0.72
1.38
-0.97
-0.09
0.2
0.01
0.32

>  <PUBCHEM_SHAPE_SELFOVERLAP>  (1) 
551.406

>  <PUBCHEM_SHAPE_VOLUME>  (1) 
145.2

>  <PUBCHEM_COORDINATE_TYPE>  (1) 
2
5
10

$$$$
