26716
     RDKit          3D

  8  7  0  0  0  0  0  0  0  0999 V2000
   -1.5490   -1.4467   -0.6415 Cl  0  0  0  0  0  0  0  0  0  0  0  0
   -1.5491    1.4467   -0.6414 Cl  0  0  0  0  0  0  0  0  0  0  0  0
    1.5490    1.4467    0.6415 Cl  0  0  0  0  0  0  0  0  0  0  0  0
    1.5491   -1.4468    0.6414 Cl  0  0  0  0  0  0  0  0  0  0  0  0
   -0.7719    0.0000    0.1251 C   0  0  0  0  0  0  0  0  0  0  0  0
    0.7719    0.0000   -0.1251 C   0  0  0  0  0  0  0  0  0  0  0  0
   -1.1773   -0.0001    1.6058 C   0  0  0  0  0  0  0  0  0  0  0  0
    1.1775    0.0001   -1.6058 C   0  0  0  0  0  0  0  0  0  0  0  0
  1  5  1  0
  2  5  1  0
  3  6  1  0
  4  6  1  0
  5  6  1  0
  5  7  1  0
  6  8  1  0
M  END
>  <PUBCHEM_COMPOUND_CID>  (1) 
26716

>  <PUBCHEM_CONFORMER_RMSD>  (1) 
0.4

>  <PUBCHEM_CONFORMER_DIVERSEORDER>  (1) 
1
2
3

>  <PUBCHEM_MMFF94_PARTIAL_CHARGES>  (1) 
6
1 -0.29
2 -0.29
3 -0.29
4 -0.29
5 0.58
6 0.58

>  <PUBCHEM_EFFECTIVE_ROTOR_COUNT>  (1) 
1

>  <PUBCHEM_PHARMACOPHORE_FEATURES>  (1) 
0

>  <PUBCHEM_HEAVY_ATOM_COUNT>  (1) 
8

>  <PUBCHEM_ATOM_DEF_STEREO_COUNT>  (1) 
0

>  <PUBCHEM_ATOM_UDEF_STEREO_COUNT>  (1) 
0

>  <PUBCHEM_BOND_DEF_STEREO_COUNT>  (1) 
0

>  <PUBCHEM_BOND_UDEF_STEREO_COUNT>  (1) 
0

>  <PUBCHEM_ISOTOPIC_ATOM_COUNT>  (1) 
0

>  <PUBCHEM_COMPONENT_COUNT>  (1) 
1

>  <PUBCHEM_CACTVS_TAUTO_COUNT>  (1) 
1

>  <PUBCHEM_CONFORMER_ID>  (1) 
0000685C00000001

>  <PUBCHEM_MMFF94_ENERGY>  (1) 
15.6008

>  <PUBCHEM_FEATURE_SELFOVERLAP>  (1) 
0

>  <PUBCHEM_SHAPE_FINGERPRINT>  (1) 
12423570 1 9291347440824703432
21040471 1 18188490151396953341
23552333 60 18200870811297575235
24536 1 17203333290417723752
29004967 10 17972872846141162811
5084963 1 17984417705390243384
5943 1 11843073449574094524

>  <PUBCHEM_SHAPE_MULTIPOLES>  (1) 
172.12
2.36
1.73
1.47
0
0
0
0
0
0
0
0
0
0

>  <PUBCHEM_SHAPE_SELFOVERLAP>  (1) 
283.555

>  <PUBCHEM_SHAPE_VOLUME>  (1) 
121

>  <PUBCHEM_COORDINATE_TYPE>  (1) 
2
5
10

$$$$
