26725
     RDKit          3D

 10  9  0  0  0  0  0  0  0  0999 V2000
    1.5287    0.8343   -0.0191 N   0  0  0  0  0  0  0  0  0  0  0  0
   -1.5577    0.0266    0.1007 C   0  0  0  0  0  0  0  0  0  0  0  0
   -0.2906   -0.5870    0.7740 C   0  0  0  0  0  0  0  0  0  0  0  0
    1.0994   -0.5315    0.0890 C   0  0  0  0  0  0  0  0  0  0  0  0
   -1.7922    1.4849    0.5348 C   0  0  0  0  0  0  0  0  0  0  0  0
   -1.3014    0.0460   -1.4257 C   0  0  0  0  0  0  0  0  0  0  0  0
   -2.8291   -0.7953    0.3533 C   0  0  0  0  0  0  0  0  0  0  0  0
    1.1512   -1.1690   -1.2975 C   0  0  0  0  0  0  0  0  0  0  0  0
    2.1159   -1.2478    0.9966 C   0  0  0  0  0  0  0  0  0  0  0  0
    1.8759    1.9388   -0.1062 C   0  0  0  0  0  0  0  0  0  0  0  0
  1  4  1  0
  1 10  3  0
  2  3  1  0
  2  5  1  0
  2  6  1  0
  2  7  1  0
  3  4  1  0
  4  8  1  0
  4  9  1  0
M  CHG  2   1   1  10  -1
M  END
>  <PUBCHEM_COMPOUND_CID>  (1) 
26725

>  <PUBCHEM_CONFORMER_RMSD>  (1) 
0.4

>  <PUBCHEM_CONFORMER_DIVERSEORDER>  (1) 
1
2

>  <PUBCHEM_MMFF94_PARTIAL_CHARGES>  (1) 
3
1 0.1
10 -0.37
4 0.27

>  <PUBCHEM_EFFECTIVE_ROTOR_COUNT>  (1) 
2

>  <PUBCHEM_PHARMACOPHORE_FEATURES>  (1) 
2
3 4 8 9 hydrophobe
4 2 5 6 7 hydrophobe

>  <PUBCHEM_HEAVY_ATOM_COUNT>  (1) 
10

>  <PUBCHEM_ATOM_DEF_STEREO_COUNT>  (1) 
0

>  <PUBCHEM_ATOM_UDEF_STEREO_COUNT>  (1) 
0

>  <PUBCHEM_BOND_DEF_STEREO_COUNT>  (1) 
0

>  <PUBCHEM_BOND_UDEF_STEREO_COUNT>  (1) 
0

>  <PUBCHEM_ISOTOPIC_ATOM_COUNT>  (1) 
0

>  <PUBCHEM_COMPONENT_COUNT>  (1) 
1

>  <PUBCHEM_CACTVS_TAUTO_COUNT>  (1) 
1

>  <PUBCHEM_CONFORMER_ID>  (1) 
0000686500000001

>  <PUBCHEM_MMFF94_ENERGY>  (1) 
39.7991

>  <PUBCHEM_FEATURE_SELFOVERLAP>  (1) 
10.149

>  <PUBCHEM_SHAPE_FINGERPRINT>  (1) 
12897270 3 18200318847838647133
12932764 1 18041289789849723683
15310529 11 17988651799929763967
16945 1 17971186182297738269
19973954 147 18340493278861246121
20082192 1 18129957679978025211
20653091 64 18333732394846901080
21040471 1 16702301234966688767
21922407 69 18342447183985409679
23235685 24 18192432098051019792
23235687 12 18342175548884249563
23552423 10 18201165351664994607
24536 1 18271801281288861695
29004967 10 18201157629071196706
3248919 1 18059857242755508307
369184 2 18113893858230403019
5084963 1 17095244683321464963

>  <PUBCHEM_SHAPE_MULTIPOLES>  (1) 
200.81
3.45
1.7
1.2
1.02
0.77
0.35
-0.1
-0.51
-0.75
-0.1
-0.05
-0.31
-0.17

>  <PUBCHEM_SHAPE_SELFOVERLAP>  (1) 
374.017

>  <PUBCHEM_SHAPE_VOLUME>  (1) 
127.4

>  <PUBCHEM_COORDINATE_TYPE>  (1) 
2
5
10

$$$$
