2672
     RDKit          3D

 28 30  0  0  1  0  0  0  0  0999 V2000
    0.3904   -1.6668   -1.9469 S   0  0  0  0  0  0  0  0  0  0  0  0
   -5.2483    0.4717   -0.7040 S   0  0  0  0  0  0  0  0  0  0  0  0
   -1.3169   -0.7529    2.2813 O   0  0  0  0  0  0  0  0  0  0  0  0
    4.6722   -0.2757   -0.5488 O   0  0  0  0  0  0  0  0  0  0  0  0
    1.0318    1.7218    1.7395 O   0  0  0  0  0  0  0  0  0  0  0  0
    2.3024    0.1365    2.7910 O   0  0  0  0  0  0  0  0  0  0  0  0
   -4.0129   -1.7988    1.0295 O   0  0  0  0  0  0  0  0  0  0  0  0
    6.0503    1.5783   -0.5825 O   0  0  0  0  0  0  0  0  0  0  0  0
    0.3395   -1.1522    0.6544 N   0  0  0  0  0  0  0  0  0  0  0  0
   -2.3623   -1.8763   -0.6011 N   0  0  0  0  0  0  0  0  0  0  0  0
   -1.4067    2.9540   -0.3675 N   0  0  0  0  0  0  0  0  0  0  0  0
    0.1711   -2.2675   -0.2568 C   0  0  0  0  0  0  0  0  0  0  0  0
   -1.2818   -2.3464    0.2646 C   0  0  0  0  0  0  0  0  0  0  0  0
   -0.8266   -1.2945    1.3185 C   0  0  0  0  0  0  0  0  0  0  0  0
    1.4191   -0.3297    0.6668 C   0  0  0  0  0  0  0  0  0  0  0  0
    2.2951   -0.3112   -0.3640 C   0  0  0  0  0  0  0  0  0  0  0  0
    2.1055   -1.1170   -1.6469 C   0  0  0  0  0  0  0  0  0  0  0  0
    3.5343    0.5509   -0.4266 C   0  0  0  0  0  0  0  0  0  0  0  0
    1.6036    0.6067    1.8558 C   0  0  0  0  0  0  0  0  0  0  0  0
   -3.6544   -1.6397   -0.1364 C   0  0  0  0  0  0  0  0  0  0  0  0
   -4.5995   -1.1409   -1.2029 C   0  0  0  0  0  0  0  0  0  0  0  0
    5.8825    0.3668   -0.6179 C   0  0  0  0  0  0  0  0  0  0  0  0
   -3.7479    1.4404   -0.5725 C   0  0  0  0  0  0  0  0  0  0  0  0
    6.9934   -0.6310   -0.7444 C   0  0  0  0  0  0  0  0  0  0  0  0
   -2.9278    1.6115   -1.6823 C   0  0  0  0  0  0  0  0  0  0  0  0
   -3.3987    2.0255    0.6397 C   0  0  0  0  0  0  0  0  0  0  0  0
   -1.7789    2.3705   -1.5289 C   0  0  0  0  0  0  0  0  0  0  0  0
   -2.2286    2.7659    0.6893 C   0  0  0  0  0  0  0  0  0  0  0  0
  1 12  1  0
  1 17  1  0
  2 21  1  0
  2 23  1  0
  3 14  2  0
  4 18  1  0
  4 22  1  0
  5 19  1  0
  6 19  2  0
  7 20  2  0
  8 22  2  0
  9 12  1  0
  9 14  1  0
  9 15  1  0
 10 13  1  0
 10 20  1  0
 11 27  2  0
 11 28  1  0
 12 13  1  0
 13 14  1  0
 15 16  2  0
 15 19  1  0
 16 17  1  0
 16 18  1  0
 20 21  1  0
 22 24  1  0
 23 25  2  0
 23 26  1  0
 25 27  1  0
 26 28  2  0
M  CHG  1   5  -1
M  END
>  <PUBCHEM_COMPOUND_CID>  (1) 
2672

>  <PUBCHEM_CONFORMER_RMSD>  (1) 
1

>  <PUBCHEM_CONFORMER_DIVERSEORDER>  (1) 
1
171
127
80
173
145
112
159
26
132
5
36
163
68
122
176
22
142
107
58
184
158
111
16
10
185
79
135
181
73
137
53
48
31
130
64
149
166
105
56
2
133
156
17
81
143
128
83
186
115
157
165
170
125
93
20
154
139
106
138
40
164
19
100
110
27
169
102
150
60
98
161
32
34
146
87
168
113
65
85
118
4
99
71
41
151
162
177
57
52
175
44
67
45
33
96
95
131
134
43
6
120
23
55
9
77
88
172
103
108
123
37
61
148
152
42
94
153
167
72
91
104
49
70
66
174
92
141
7
76
47
116
21
30
78
155
160
86
119
121
109
46
147
84
13
3
35
74
126
50
12
39
179
82
101
75
117
62
129
51
89
97
63
136
183
140
15
69
18
11
90
8
28
180
54
182
29
25
114
178
124
59
14
144
24
38

>  <PUBCHEM_MMFF94_PARTIAL_CHARGES>  (1) 
33
1 -0.45
10 -0.65
11 -0.62
12 0.44
13 0.28
14 0.58
15 -0.14
16 -0.28
17 0.37
18 0.42
19 1.05
2 -0.33
20 0.57
21 0.29
22 0.66
23 0.1
24 0.06
25 -0.15
26 -0.15
27 0.16
28 0.16
3 -0.57
33 0.37
4 -0.43
41 0.15
42 0.15
43 0.15
44 0.15
5 -0.9
6 -0.9
7 -0.57
8 -0.57
9 -0.39

>  <PUBCHEM_EFFECTIVE_ROTOR_COUNT>  (1) 
9.6

>  <PUBCHEM_PHARMACOPHORE_FEATURES>  (1) 
11
1 10 donor
1 11 acceptor
1 3 acceptor
1 5 acceptor
1 6 acceptor
1 7 acceptor
1 8 acceptor
3 5 6 19 anion
4 9 12 13 14 rings
6 1 9 12 15 16 17 rings
6 11 23 25 26 27 28 rings

>  <PUBCHEM_HEAVY_ATOM_COUNT>  (1) 
28

>  <PUBCHEM_ATOM_DEF_STEREO_COUNT>  (1) 
0

>  <PUBCHEM_ATOM_UDEF_STEREO_COUNT>  (1) 
2

>  <PUBCHEM_BOND_DEF_STEREO_COUNT>  (1) 
0

>  <PUBCHEM_BOND_UDEF_STEREO_COUNT>  (1) 
0

>  <PUBCHEM_ISOTOPIC_ATOM_COUNT>  (1) 
0

>  <PUBCHEM_COMPONENT_COUNT>  (1) 
1

>  <PUBCHEM_CACTVS_TAUTO_COUNT>  (1) 
2

>  <PUBCHEM_CONFORMER_ID>  (1) 
00000A7000000001

>  <PUBCHEM_MMFF94_ENERGY>  (1) 
64.6325

>  <PUBCHEM_FEATURE_SELFOVERLAP>  (1) 
56.141

>  <PUBCHEM_SHAPE_FINGERPRINT>  (1) 
10165383 225 18200603488702263953
10366900 7 18059841832397286077
10498660 4 18335976472768389061
10670039 82 18334850619351838550
10759866 29 17895461532155198259
12596602 18 17167859789847229314
128993 33 17764867992750638621
13402501 40 18272650168774475453
13911987 19 17346329253783696900
13947920 75 18186235135058808648
13994607 96 17386014974641468001
14713325 29 18410301306315683742
15183329 4 18187364299483934566
15575132 122 17822565015409971189
17357779 13 18342174514050156961
17492 54 18041261220096633589
19958102 18 18411143494121782038
21236236 1 18409733958621329940
22182313 1 17702930552747704888
23557571 272 18411420652846452263
23559900 14 18270954756373676637
238 59 17487022641251143437
3493558 16 18262529181774491228
35225 105 18116689903399085709
3524813 1 18131346432178866315
469060 322 17896060839666130841
5283173 99 18271250417922063564
7808743 9 18262797363553068213

>  <PUBCHEM_SHAPE_MULTIPOLES>  (1) 
533.77
11.66
2.96
1.97
16.26
0.83
0.78
2.06
-4.32
-2.9
-0.25
0.18
0.07
0.75

>  <PUBCHEM_SHAPE_SELFOVERLAP>  (1) 
1102.518

>  <PUBCHEM_SHAPE_VOLUME>  (1) 
306.2

>  <PUBCHEM_COORDINATE_TYPE>  (1) 
2
5
10

$$$$
