26727
     RDKit          3D

 12 12  0  0  1  0  0  0  0  0999 V2000
   -4.2280    0.1543    0.0541 N   0  0  0  0  0  0  0  0  0  0  0  0
   -1.9026    0.3746    0.8157 C   0  0  0  0  0  0  0  0  0  0  0  0
   -2.8298    0.0984   -0.3831 C   0  0  0  0  0  0  0  0  0  0  0  0
   -0.4420    0.3791    0.4614 C   0  0  0  0  0  0  0  0  0  0  0  0
    0.2837   -0.8036    0.5271 C   0  0  0  0  0  0  0  0  0  0  0  0
    1.6392   -0.7990    0.1983 C   0  0  0  0  0  0  0  0  0  0  0  0
    2.2578    0.3882   -0.1935 C   0  0  0  0  0  0  0  0  0  0  0  0
    0.1654    1.5662    0.0723 C   0  0  0  0  0  0  0  0  0  0  0  0
   -2.5797   -1.2697   -1.0178 C   0  0  0  0  0  0  0  0  0  0  0  0
    1.5209    1.5710   -0.2564 C   0  0  0  0  0  0  0  0  0  0  0  0
    2.4076   -2.0774    0.2727 C   0  0  0  0  0  0  0  0  0  0  0  0
    3.7075    0.4180   -0.5507 C   0  0  0  0  0  0  0  0  0  0  0  0
  1  3  1  0
  2  3  1  0
  2  4  1  0
  3  9  1  0
  4  5  2  0
  4  8  1  0
  5  6  1  0
  6  7  2  0
  6 11  1  0
  7 10  1  0
  7 12  1  0
  8 10  2  0
M  END
>  <PUBCHEM_COMPOUND_CID>  (1) 
26727

>  <PUBCHEM_CONFORMER_RMSD>  (1) 
0.6

>  <PUBCHEM_CONFORMER_DIVERSEORDER>  (1) 
1
14
3
8
11
7
10
4
13
9
2
6
12
5

>  <PUBCHEM_MMFF94_PARTIAL_CHARGES>  (1) 
16
1 -0.99
10 -0.15
11 0.14
12 0.14
16 0.15
17 0.15
2 0.14
21 0.15
22 0.36
23 0.36
3 0.27
4 -0.14
5 -0.15
6 -0.14
7 -0.14
8 -0.15

>  <PUBCHEM_EFFECTIVE_ROTOR_COUNT>  (1) 
2

>  <PUBCHEM_PHARMACOPHORE_FEATURES>  (1) 
3
1 1 cation
1 1 donor
6 4 5 6 7 8 10 rings

>  <PUBCHEM_HEAVY_ATOM_COUNT>  (1) 
12

>  <PUBCHEM_ATOM_DEF_STEREO_COUNT>  (1) 
0

>  <PUBCHEM_ATOM_UDEF_STEREO_COUNT>  (1) 
1

>  <PUBCHEM_BOND_DEF_STEREO_COUNT>  (1) 
0

>  <PUBCHEM_BOND_UDEF_STEREO_COUNT>  (1) 
0

>  <PUBCHEM_ISOTOPIC_ATOM_COUNT>  (1) 
0

>  <PUBCHEM_COMPONENT_COUNT>  (1) 
1

>  <PUBCHEM_CACTVS_TAUTO_COUNT>  (1) 
1

>  <PUBCHEM_CONFORMER_ID>  (1) 
0000686700000001

>  <PUBCHEM_MMFF94_ENERGY>  (1) 
21.8544

>  <PUBCHEM_FEATURE_SELFOVERLAP>  (1) 
15.223

>  <PUBCHEM_SHAPE_FINGERPRINT>  (1) 
11031198 65 18113626702358159199
11401426 45 18410570712856077888
11471102 20 18334294262194308837
12138202 97 17168431574574823970
12162725 195 8430319052000574879
12423570 1 12505216286697599610
12897270 3 18409448119651923621
12932764 1 18201716258477292521
13380535 76 18260833726191020666
14128692 85 18130785710944089577
14251717 144 18408885127007415602
14576447 43 18269827765439262855
14911166 2 18335431187825642916
14993402 34 18273217499351802636
15477762 27 18408885152687425175
15757776 16 18410851070919641686
15775835 57 18408887356053088631
16945 1 18335148608852484968
18619055 16 18339634551758453831
20201158 50 18187368731077443562
20645476 183 18343581880344243911
20645477 70 18336261241700581519
21119208 17 18272373083285996253
21501502 16 18191873314542773904
22802520 49 16952514798344891639
23402539 116 15357971313300362439
23402655 69 18335978697355960301
23552423 10 18268987764356697701
25 1 18186519929470122249
2748010 2 18118686504972798156
528886 8 18335982046923802080
53812654 25 18272639126477003714
63268167 104 18409167701252979209

>  <PUBCHEM_SHAPE_MULTIPOLES>  (1) 
241.97
5.86
1.7
0.85
2.97
0.35
-0.04
0.57
-1.11
-0.97
-0.03
0.23
0.09
-0.61

>  <PUBCHEM_SHAPE_SELFOVERLAP>  (1) 
489.779

>  <PUBCHEM_SHAPE_VOLUME>  (1) 
142.5

>  <PUBCHEM_COORDINATE_TYPE>  (1) 
2
5
10

$$$$
