26723
     RDKit          3D

 13 12  0  0  1  0  0  0  0  0999 V2000
   -1.8102    0.2633    0.0504 N   0  0  0  0  0  0  0  0  0  0  0  0
    2.0076    0.8668   -0.3700 C   0  0  0  0  0  0  0  0  0  0  0  0
    0.5225    1.0871    0.0096 C   0  0  0  0  0  0  0  0  0  0  0  0
   -0.4369   -0.0695   -0.3283 C   0  0  0  0  0  0  0  0  0  0  0  0
    2.5971   -0.3802    0.3218 C   0  0  0  0  0  0  0  0  0  0  0  0
    2.7968    2.1362   -0.0238 C   0  0  0  0  0  0  0  0  0  0  0  0
    4.0558   -0.6629   -0.0506 C   0  0  0  0  0  0  0  0  0  0  0  0
   -0.3821   -0.3871   -1.8237 C   0  0  0  0  0  0  0  0  0  0  0  0
   -2.7132   -0.8371   -0.2845 C   0  0  0  0  0  0  0  0  0  0  0  0
   -1.8860    0.5709    1.4779 C   0  0  0  0  0  0  0  0  0  0  0  0
    4.5901   -1.8820    0.6866 C   0  0  0  0  0  0  0  0  0  0  0  0
   -4.1014   -0.4916    0.0368 C   0  0  0  0  0  0  0  0  0  0  0  0
   -5.2400   -0.2137    0.2978 C   0  0  0  0  0  0  0  0  0  0  0  0
  1  4  1  0
  1  9  1  0
  1 10  1  0
  2  3  1  0
  2  5  1  0
  2  6  1  0
  3  4  1  0
  4  8  1  0
  5  7  1  0
  7 11  1  0
  9 12  1  0
 12 13  3  0
M  END
>  <PUBCHEM_COMPOUND_CID>  (1) 
26723

>  <PUBCHEM_CONFORMER_RMSD>  (1) 
0.6

>  <PUBCHEM_CONFORMER_DIVERSEORDER>  (1) 
28
115
168
123
23
107
5
171
96
143
136
164
105
75
53
146
93
127
162
157
110
144
184
68
117
126
121
78
21
101
166
36
165
137
120
178
108
130
86
135
154
122
81
132
173
22
20
31
172
159
114
102
38
160
99
170
57
141
155
71
138
60
103
13
112
147
73
180
64
39
140
167
85
42
129
76
77
94
128
100
150
174
1
124
125
63
58
158
2
89
148
116
19
50
139
49
29
10
15
176
179
56
149
47
133
106
26
9
33
161
51
134
59
183
14
37
34
45
88
40
119
151
82
48
145
87
181
18
3
163
69
113
169
142
7
74
41
95
97
152
92
43
175
62
54
27
177
35
153
55
84
72
17
30
156
109
118
46
90
80
44
98
131
24
65
79
70
83
111
4
104
12
16
8
11
32
67
91
6
182
52
25
66
61

>  <PUBCHEM_MMFF94_PARTIAL_CHARGES>  (1) 
7
1 -0.81
10 0.27
12 -0.2
13 -0.18
36 0.18
4 0.27
9 0.47

>  <PUBCHEM_EFFECTIVE_ROTOR_COUNT>  (1) 
6

>  <PUBCHEM_PHARMACOPHORE_FEATURES>  (1) 
5
1 1 cation
1 11 hydrophobe
1 13 hydrophobe
1 6 hydrophobe
4 2 3 5 7 hydrophobe

>  <PUBCHEM_HEAVY_ATOM_COUNT>  (1) 
13

>  <PUBCHEM_ATOM_DEF_STEREO_COUNT>  (1) 
0

>  <PUBCHEM_ATOM_UDEF_STEREO_COUNT>  (1) 
2

>  <PUBCHEM_BOND_DEF_STEREO_COUNT>  (1) 
0

>  <PUBCHEM_BOND_UDEF_STEREO_COUNT>  (1) 
0

>  <PUBCHEM_ISOTOPIC_ATOM_COUNT>  (1) 
0

>  <PUBCHEM_COMPONENT_COUNT>  (1) 
1

>  <PUBCHEM_CACTVS_TAUTO_COUNT>  (1) 
1

>  <PUBCHEM_CONFORMER_ID>  (1) 
000068630000001C

>  <PUBCHEM_MMFF94_ENERGY>  (1) 
22.745

>  <PUBCHEM_FEATURE_SELFOVERLAP>  (1) 
25.58

>  <PUBCHEM_SHAPE_FINGERPRINT>  (1) 
10465860 71 14707215421788373006
11132069 177 15267063674809657949
11401426 45 16271926009078013565
12251169 10 17131825474254056746
13533116 47 18410293626903304027
13544592 145 17385723607848815603
13690532 89 18409166593114623410
14251718 22 10375861971133380353
14455015 7 17822017505884759347
14911166 2 14418136222976405719
15375462 478 18060137630604378564
17834072 33 18410014372762243332
17834072 8 17676478424792151751
17846911 113 16343988013672873091
17862501 102 18131349700385299459
18186145 218 17313094285413752869
19026448 4 17967809496516637397
200 152 18413105056982339963
20279233 1 16950564423747187728
20559304 39 17703796929055414312
20645477 70 18259984890044580402
20871998 22 18199473169247667366
20871999 31 15285351778352132159
21501925 9 18131635569113274652
22485316 2 18335982059766505718
22713019 99 17385725776865465434
23048698 100 18341336677167593856
23402539 116 18059850650307828125
23559900 14 18187646959074930064
3286 77 18187644691574602446
4072396 5 17489590039477603799
42 15 18130787849800964226
465052 167 18410018740385767911
5104073 3 18200881776776279091
522135 26 18334015016574741212
5374978 207 17418376912828968209
94968 8 18040996216193006370

>  <PUBCHEM_SHAPE_MULTIPOLES>  (1) 
262.55
9.58
1.56
1.12
3.5
0.32
0.2
-3.89
-2.03
-2.29
-0.17
0.28
-0.07
-0.71

>  <PUBCHEM_SHAPE_SELFOVERLAP>  (1) 
482.846

>  <PUBCHEM_SHAPE_VOLUME>  (1) 
167.2

>  <PUBCHEM_COORDINATE_TYPE>  (1) 
2
5
10

$$$$
