26722
     RDKit          3D

 13 12  0  0  1  0  0  0  0  0999 V2000
   -1.9072    0.1230    0.1972 N   0  0  0  0  0  0  0  0  0  0  0  0
   -1.2659    1.4366    0.1312 C   0  0  0  0  0  0  0  0  0  0  0  0
    0.1663    1.3771    0.6886 C   0  0  0  0  0  0  0  0  0  0  0  0
    1.0876    0.4538   -0.1191 C   0  0  0  0  0  0  0  0  0  0  0  0
    2.5056    0.4468    0.4585 C   0  0  0  0  0  0  0  0  0  0  0  0
    3.4774   -0.4401   -0.3253 C   0  0  0  0  0  0  0  0  0  0  0  0
   -1.2597    1.9316   -1.3148 C   0  0  0  0  0  0  0  0  0  0  0  0
    4.8997   -0.4284    0.2364 C   0  0  0  0  0  0  0  0  0  0  0  0
   -3.2663    0.1911   -0.3377 C   0  0  0  0  0  0  0  0  0  0  0  0
   -1.9231   -0.3684    1.5742 C   0  0  0  0  0  0  0  0  0  0  0  0
    5.8059   -1.3788   -0.5314 C   0  0  0  0  0  0  0  0  0  0  0  0
   -3.8987   -1.1316   -0.3307 C   0  0  0  0  0  0  0  0  0  0  0  0
   -4.4216   -2.2125   -0.3270 C   0  0  0  0  0  0  0  0  0  0  0  0
  1  2  1  0
  1  9  1  0
  1 10  1  0
  2  3  1  0
  2  7  1  0
  3  4  1  0
  4  5  1  0
  5  6  1  0
  6  8  1  0
  8 11  1  0
  9 12  1  0
 12 13  3  0
M  END
>  <PUBCHEM_COMPOUND_CID>  (1) 
26722

>  <PUBCHEM_CONFORMER_RMSD>  (1) 
0.8

>  <PUBCHEM_CONFORMER_DIVERSEORDER>  (1) 
67
136
62
147
71
142
24
89
124
113
143
93
85
20
32
31
156
126
58
149
33
66
18
153
39
129
140
9
26
54
111
37
121
78
123
19
41
4
151
138
56
45
148
83
79
10
97
12
107
146
115
38
61
108
87
95
57
144
65
109
118
134
35
50
5
77
112
145
99
86
40
150
70
7
152
22
1
135
116
27
30
68
43
72
139
154
17
52
29
94
88
101
53
114
51
46
110
49
155
105
64
122
36
81
100
28
98
119
25
59
120
75
23
92
132
8
44
16
47
60
21
14
133
15
103
84
106
3
74
117
131
13
96
127
125
137
91
6
11
80
55
34
128
104
76
141
69
48
2
63
130
90
82
73
102
42

>  <PUBCHEM_MMFF94_PARTIAL_CHARGES>  (1) 
7
1 -0.81
10 0.27
12 -0.2
13 -0.18
2 0.27
36 0.18
9 0.47

>  <PUBCHEM_EFFECTIVE_ROTOR_COUNT>  (1) 
7

>  <PUBCHEM_PHARMACOPHORE_FEATURES>  (1) 
4
1 1 cation
1 11 hydrophobe
1 13 hydrophobe
5 3 4 5 6 8 hydrophobe

>  <PUBCHEM_HEAVY_ATOM_COUNT>  (1) 
13

>  <PUBCHEM_ATOM_DEF_STEREO_COUNT>  (1) 
0

>  <PUBCHEM_ATOM_UDEF_STEREO_COUNT>  (1) 
1

>  <PUBCHEM_BOND_DEF_STEREO_COUNT>  (1) 
0

>  <PUBCHEM_BOND_UDEF_STEREO_COUNT>  (1) 
0

>  <PUBCHEM_ISOTOPIC_ATOM_COUNT>  (1) 
0

>  <PUBCHEM_COMPONENT_COUNT>  (1) 
1

>  <PUBCHEM_CACTVS_TAUTO_COUNT>  (1) 
1

>  <PUBCHEM_CONFORMER_ID>  (1) 
0000686200000043

>  <PUBCHEM_MMFF94_ENERGY>  (1) 
14.751

>  <PUBCHEM_FEATURE_SELFOVERLAP>  (1) 
20.297

>  <PUBCHEM_SHAPE_FINGERPRINT>  (1) 
100836 57 8214147373524762822
11046707 91 18413670214248348882
12916754 54 18413671318424488488
13288520 33 18343303656203737878
14123255 352 8358264738990886134
14178000 29 18263078975984290309
1420 369 18272936041787485382
14251764 75 11965876674889407751
14252887 29 16343710915557877340
14445660 50 12247670583133202208
15209294 21 10519993668409309843
17834072 8 18334002892536088685
17870717 6 18260832561722048991
18186145 218 15574997316284527701
187816 3 17312819385947485601
193927 3 18270410489295494655
19784866 240 18340492270023998839
200 152 18412544305988955072
20112054 13 10015589419121900875
20281475 54 18341336681562878785
20300324 65 18040434365260647828
20374829 77 18335414677649506035
20605781 2 8214151758786579311
20671657 53 18336269045445161957
20871999 31 17676760998753255349
21426921 1 18336263427501455156
21637258 2 17775276210147515311
22620623 9 17895735354048930989
23379529 103 17828769783064738027
23402539 116 17531246132153557861
23403322 49 18410855451570142114
23559900 14 18410001161322008736
26918003 58 17489870440549038195
270888 7 8286214841698233943
27216 239 9222933881523997645
2871803 45 18261105283840331354
3286 77 17917149502071325808
4028521 119 12540689323290683710
76465 3 18201152277969129559
77188 2 18199748210374587281

>  <PUBCHEM_SHAPE_MULTIPOLES>  (1) 
262.55
10.98
1.92
1.06
12.65
0.16
-0.14
8.82
1.85
-1.65
0.47
-0.42
-0.19
0.36

>  <PUBCHEM_SHAPE_SELFOVERLAP>  (1) 
480.185

>  <PUBCHEM_SHAPE_VOLUME>  (1) 
168

>  <PUBCHEM_COORDINATE_TYPE>  (1) 
2
5
10

$$$$
