26734
     RDKit          3D

 21 21  0  0  1  0  0  0  0  0999 V2000
    0.1708   -2.0428    0.2737 O   0  0  0  0  0  0  0  0  0  0  0  0
   -1.7577   -0.8439    2.0864 O   0  0  0  0  0  0  0  0  0  0  0  0
    3.1785    0.0664    0.0959 N   0  0  0  0  0  0  0  0  0  0  0  0
    3.1427    0.4132   -1.3271 C   0  0  0  0  0  0  0  0  0  0  0  0
    2.7148    1.1972    0.9034 C   0  0  0  0  0  0  0  0  0  0  0  0
    2.3736   -1.1175    0.3575 C   0  0  0  0  0  0  0  0  0  0  0  0
    0.9139   -0.8594    0.0202 C   0  0  0  0  0  0  0  0  0  0  0  0
    1.7092    0.6978   -1.7663 C   0  0  0  0  0  0  0  0  0  0  0  0
    3.7500   -0.7240   -2.1424 C   0  0  0  0  0  0  0  0  0  0  0  0
    3.5653    2.4326    0.6214 C   0  0  0  0  0  0  0  0  0  0  0  0
    2.7674    0.8215    2.3809 C   0  0  0  0  0  0  0  0  0  0  0  0
   -1.2103   -1.8637   -0.0244 C   0  0  0  0  0  0  0  0  0  0  0  0
   -1.9381   -3.1770    0.2670 C   0  0  0  0  0  0  0  0  0  0  0  0
   -1.7340   -0.7366    0.8610 C   0  0  0  0  0  0  0  0  0  0  0  0
   -1.4626   -4.3081   -0.6354 C   0  0  0  0  0  0  0  0  0  0  0  0
   -2.2375    0.5241    0.2390 C   0  0  0  0  0  0  0  0  0  0  0  0
   -2.8033    0.4598   -1.0135 C   0  0  0  0  0  0  0  0  0  0  0  0
   -2.1162    1.6999    0.9429 C   0  0  0  0  0  0  0  0  0  0  0  0
   -3.2738    1.6372   -1.5946 C   0  0  0  0  0  0  0  0  0  0  0  0
   -2.5869    2.8773    0.3617 C   0  0  0  0  0  0  0  0  0  0  0  0
   -3.1657    2.8460   -0.9071 C   0  0  0  0  0  0  0  0  0  0  0  0
  1  7  1  0
  1 12  1  0
  2 14  2  0
  3  4  1  0
  3  5  1  0
  3  6  1  0
  4  8  1  0
  4  9  1  0
  5 10  1  0
  5 11  1  0
  6  7  1  0
 12 13  1  0
 12 14  1  0
 13 15  1  0
 14 16  1  0
 16 17  2  0
 16 18  1  0
 17 19  1  0
 18 20  2  0
 19 21  2  0
 20 21  1  0
M  END
>  <PUBCHEM_COMPOUND_CID>  (1) 
26734

>  <PUBCHEM_CONFORMER_RMSD>  (1) 
0.8

>  <PUBCHEM_CONFORMER_DIVERSEORDER>  (1) 
1
50
15
27
12
47
6
22
34
16
38
55
13
36
14
11
45
2
52
53
42
17
32
37
25
28
8
24
46
4
43
39
51
18
9
40
49
33
30
41
44
23
21
7
31
35
48
10
26
5
54
20
3
19
29

>  <PUBCHEM_MMFF94_PARTIAL_CHARGES>  (1) 
20
1 -0.56
12 0.34
14 0.42
16 0.09
17 -0.15
18 -0.15
19 -0.15
2 -0.57
20 -0.15
21 -0.15
3 -0.81
4 0.27
46 0.15
47 0.15
48 0.15
49 0.15
5 0.27
50 0.15
6 0.27
7 0.28

>  <PUBCHEM_EFFECTIVE_ROTOR_COUNT>  (1) 
9

>  <PUBCHEM_PHARMACOPHORE_FEATURES>  (1) 
7
1 1 acceptor
1 15 hydrophobe
1 2 acceptor
1 3 cation
3 4 8 9 hydrophobe
3 5 10 11 hydrophobe
6 16 17 18 19 20 21 rings

>  <PUBCHEM_HEAVY_ATOM_COUNT>  (1) 
21

>  <PUBCHEM_ATOM_DEF_STEREO_COUNT>  (1) 
0

>  <PUBCHEM_ATOM_UDEF_STEREO_COUNT>  (1) 
1

>  <PUBCHEM_BOND_DEF_STEREO_COUNT>  (1) 
0

>  <PUBCHEM_BOND_UDEF_STEREO_COUNT>  (1) 
0

>  <PUBCHEM_ISOTOPIC_ATOM_COUNT>  (1) 
0

>  <PUBCHEM_COMPONENT_COUNT>  (1) 
1

>  <PUBCHEM_CACTVS_TAUTO_COUNT>  (1) 
2

>  <PUBCHEM_CONFORMER_ID>  (1) 
0000686E00000001

>  <PUBCHEM_MMFF94_ENERGY>  (1) 
88.6893

>  <PUBCHEM_FEATURE_SELFOVERLAP>  (1) 
35.523

>  <PUBCHEM_SHAPE_FINGERPRINT>  (1) 
10165383 225 17980240480147997161
10498660 4 18194402414392570088
11582403 64 16767829933396119642
11640471 11 17749094591499903624
12156800 1 15442057641655274397
12173636 292 18410853223009376597
12788726 201 18042398217682348755
128993 33 18189075164623793264
13294875 104 18267012861290690946
13583140 156 17773575300303797898
13681431 1 17183345019776960051
14251751 93 17823725064601264270
1813 80 17690291825247819979
18186145 218 18201436917914854521
18981168 100 18411141359221952156
20567600 299 17329967124202160421
20600515 1 17546728617483330746
21304303 282 17691070073257908951
21524375 3 18115585920726425307
22749437 52 18334566923888124364
22907989 373 18261406580270247173
23503958 25 18261408774824708552
23557571 272 18198060493783704726
23559900 14 18200891569866203142
238 59 18058165025255814695
350125 39 18337122154904791315
474 4 17826796928443890421
5262128 65 16988560148115462936
57100710 29 17894915139427297036
6049 1 18058182768045321430
7399639 24 17699573851069740382
7615 1 17023176193151811090
81228 2 18051707825421059075
84936 182 17981875350949176625

>  <PUBCHEM_SHAPE_MULTIPOLES>  (1) 
415.45
6.85
4.06
1.91
3.41
3.15
0.01
-4.13
1.49
-3.88
0.18
1.19
-0.43
1.39

>  <PUBCHEM_SHAPE_SELFOVERLAP>  (1) 
836.077

>  <PUBCHEM_SHAPE_VOLUME>  (1) 
246.4

>  <PUBCHEM_COORDINATE_TYPE>  (1) 
2
5
10

$$$$
