26735
     RDKit          3D

 23 25  0  0  1  0  0  0  0  0999 V2000
   -1.3739    0.9639   -0.4298 N   0  0  0  0  0  0  0  0  0  0  0  0
    1.3672    0.9483   -0.4366 N   0  0  0  0  0  0  0  0  0  0  0  0
   -4.9278   -1.8445   -0.1134 N   0  0  0  0  0  0  0  0  0  0  0  0
    5.7016    0.2547    0.7249 N   0  0  0  0  0  0  0  0  0  0  0  0
   -0.7777    1.4841   -1.6659 C   0  0  0  0  0  0  0  0  0  0  0  0
    0.7710    1.4751   -1.6697 C   0  0  0  0  0  0  0  0  0  0  0  0
   -1.2881    1.8985    0.7020 C   0  0  0  0  0  0  0  0  0  0  0  0
    1.2981    1.8841    0.6952 C   0  0  0  0  0  0  0  0  0  0  0  0
    0.0098    2.7069    0.8011 C   0  0  0  0  0  0  0  0  0  0  0  0
   -2.7599    0.5466   -0.6389 C   0  0  0  0  0  0  0  0  0  0  0  0
    2.7473    0.5153   -0.6527 C   0  0  0  0  0  0  0  0  0  0  0  0
   -3.3562   -0.1408    0.5870 C   0  0  0  0  0  0  0  0  0  0  0  0
    3.3307   -0.2084    0.5584 C   0  0  0  0  0  0  0  0  0  0  0  0
   -4.7776   -0.5994    0.3716 C   0  0  0  0  0  0  0  0  0  0  0  0
    4.7638   -0.6351    0.3551 C   0  0  0  0  0  0  0  0  0  0  0  0
   -5.8058    0.2648    0.6773 C   0  0  0  0  0  0  0  0  0  0  0  0
    5.0147   -1.8781   -0.1833 C   0  0  0  0  0  0  0  0  0  0  0  0
   -7.1035   -0.1881    0.4668 C   0  0  0  0  0  0  0  0  0  0  0  0
    6.3456   -2.2405   -0.3581 C   0  0  0  0  0  0  0  0  0  0  0  0
   -6.2032   -2.2498   -0.3050 C   0  0  0  0  0  0  0  0  0  0  0  0
    6.9836   -0.1326    0.5398 C   0  0  0  0  0  0  0  0  0  0  0  0
   -7.3146   -1.4682   -0.0335 C   0  0  0  0  0  0  0  0  0  0  0  0
    7.3549   -1.3569    0.0078 C   0  0  0  0  0  0  0  0  0  0  0  0
  1  5  1  0
  1  7  1  0
  1 10  1  0
  2  6  1  0
  2  8  1  0
  2 11  1  0
  3 14  2  0
  3 20  1  0
  4 15  2  0
  4 21  1  0
  5  6  1  0
  7  9  1  0
  8  9  1  0
 10 12  1  0
 11 13  1  0
 12 14  1  0
 13 15  1  0
 14 16  1  0
 15 17  1  0
 16 18  2  0
 17 19  2  0
 18 22  1  0
 19 23  1  0
 20 22  2  0
 21 23  2  0
M  END
>  <PUBCHEM_COMPOUND_CID>  (1) 
26735

>  <PUBCHEM_CONFORMER_RMSD>  (1) 
1

>  <PUBCHEM_CONFORMER_DIVERSEORDER>  (1) 
1
236
496
627
175
619
783
277
38
226
90
422
701
31
418
298
483
111
168
811
609
387
70
718
60
453
211
75
34
354
3
328
251
212
871
106
125
411
192
634
5
798
815
228
292
92
469
495
424
300
481
230
584
6
191
84
906
651
863
306
399
564
633
169
20
818
25
307
682
548
738
28
21
415
19
522
617
63
317
858
471
73
416
33
98
365
61
30
514
383
699
792
768
480
821
49
234
403
655
171
876
16
178
87
229
301
914
22
43
473
702
173
352
222
260
47
65
151
204
264
256
88
421
9
880
252
259
273
766
123
136
518
103
530
427
208
464
769
279
182
319
312
673
554
131
278
172
45
102
775
119
120
520
801
257
12
53
269
85
461
32
546
898
299
128
486
8
72
691
549
284
304
250
330
36
892
2
663
127
266
26
233
430
14
441
7
671
446
450
285
97
338
485
39
71
505
148
81
377
726
79
563
875
382

>  <PUBCHEM_MMFF94_PARTIAL_CHARGES>  (1) 
30
1 -0.81
10 0.27
11 0.27
12 0.14
13 0.14
14 0.17
15 0.17
16 -0.15
17 -0.15
18 -0.15
19 -0.15
2 -0.81
20 0.16
21 0.16
22 -0.15
23 -0.15
3 -0.62
4 -0.62
42 0.15
43 0.15
44 0.15
45 0.15
46 0.15
47 0.15
48 0.15
49 0.15
5 0.27
6 0.27
7 0.27
8 0.27

>  <PUBCHEM_EFFECTIVE_ROTOR_COUNT>  (1) 
7.4

>  <PUBCHEM_PHARMACOPHORE_FEATURES>  (1) 
7
1 1 cation
1 2 cation
1 3 acceptor
1 4 acceptor
6 3 14 16 18 20 22 rings
6 4 15 17 19 21 23 rings
7 1 2 5 6 7 8 9 rings

>  <PUBCHEM_HEAVY_ATOM_COUNT>  (1) 
23

>  <PUBCHEM_ATOM_DEF_STEREO_COUNT>  (1) 
0

>  <PUBCHEM_ATOM_UDEF_STEREO_COUNT>  (1) 
0

>  <PUBCHEM_BOND_DEF_STEREO_COUNT>  (1) 
0

>  <PUBCHEM_BOND_UDEF_STEREO_COUNT>  (1) 
0

>  <PUBCHEM_ISOTOPIC_ATOM_COUNT>  (1) 
0

>  <PUBCHEM_COMPONENT_COUNT>  (1) 
1

>  <PUBCHEM_CACTVS_TAUTO_COUNT>  (1) 
2

>  <PUBCHEM_CONFORMER_ID>  (1) 
0000686F00000001

>  <PUBCHEM_MMFF94_ENERGY>  (1) 
57.6602

>  <PUBCHEM_FEATURE_SELFOVERLAP>  (1) 
35.527

>  <PUBCHEM_SHAPE_FINGERPRINT>  (1) 
10 15 16343983628247552504
10369192 42 8502657000360987715
10669705 176 8358257051020545217
10670039 82 13407062696537303783
10674148 151 17240480295806767597
10753850 27 18040715865780094560
12107183 9 18271536308405197753
12516196 113 18342457045356941440
12592606 108 18411978092572948063
12596602 18 17917994962209876258
12633257 1 15051439531644451856
12760667 363 18335141990518748537
12895836 83 10737291263940555369
12895837 130 9222643615050153090
13533116 47 18409732902239262088
13668630 136 18040152946535340875
13673619 4 18186237329307471677
13685833 64 18410011035335192978
13885169 127 18337107878786803749
14123256 34 18334580152666730611
14216079 64 18334856104273417363
14251751 18 18408604768848705349
14251764 30 18413103940175045410
14420673 8 18410295826755156627
14556957 393 15502948415186652430
14767858 380 15357695271262193560
15183329 4 15647051555857752961
15301273 46 16845302617927339436
15510800 12 18188225255005120275
15728490 51 18341610456264445606
16992779 147 16987135327997790688
1768 124 18131070437127401487
18335252 98 18342175558397278874
18643901 69 18114466673444427494
190975 80 18272085028625064282
19438510 23 10447931676345957493
19784866 240 18259991470034802053
20028762 73 18412827988616591286
20157964 124 11169908369333923192
20281389 69 11815901141228353794
20526848 3 10087639307978177650
20567600 254 12463571760031112713
20715895 44 8214138569448285658
21033648 29 15410350875180598945
21150785 3 12540698124158422049
21267235 1 18272371941584207724
21304304 249 18412546526503430447
21307412 95 17676211294932922107
21403212 168 12607404368975451545
21637258 2 18186798088779871557
22224240 67 15195563502775349853
23198884 109 11169912784122121907
23522609 53 18120408473078903901
23559900 14 17823421685555483949
3004659 81 17967531289540534136
3009799 131 14779549002372858028
3014063 24 18410290332964373551
3627633 1 18337108956228340813
4107672 100 17677044625967706013
437815 12 18409450301780114521
445580 204 10881392123837031959
465052 167 18202284714731774660
543368 44 9439409021753157699
559249 180 18411138048625190631
5718773 13 18341047532165581423
5758199 1 11672067445593706599
59682541 35 18201146733677755040
59682541 52 14995999943801223862
6138700 20 18407760335566431291
636775 8 18270408192485186366
6438161 24 18410011074718178207
77188 2 18411419539743618833
9689198 14 9079119977251838939

>  <PUBCHEM_SHAPE_MULTIPOLES>  (1) 
453.41
22.29
2.51
1.09
0.11
0.08
-0.35
-19.15
3.4
-0.07
-0.06
0.03
0.54
0.03

>  <PUBCHEM_SHAPE_SELFOVERLAP>  (1) 
942.026

>  <PUBCHEM_SHAPE_VOLUME>  (1) 
253.9

>  <PUBCHEM_COORDINATE_TYPE>  (1) 
2
5
10

$$$$
