26747
     RDKit          3D

 28 30  0  0  1  0  0  0  0  0999 V2000
    1.0625   -0.1048   -1.6666 O   0  0  0  0  0  0  0  0  0  0  0  0
   -1.9378    1.5372   -2.0313 O   0  0  0  0  0  0  0  0  0  0  0  0
   -1.5107   -0.5949   -1.2100 N   0  0  0  0  0  0  0  0  0  0  0  0
   -0.0636    0.7283    0.2676 C   0  0  0  0  0  0  0  0  0  0  0  0
   -1.3092   -0.1931    0.1799 C   0  0  0  0  0  0  0  0  0  0  0  0
    1.2876    0.1416   -0.2655 C   0  0  0  0  0  0  0  0  0  0  0  0
   -2.5877    0.4014    0.7283 C   0  0  0  0  0  0  0  0  0  0  0  0
    2.4557    1.1200   -0.0869 C   0  0  0  0  0  0  0  0  0  0  0  0
    1.6590   -1.2130    0.3682 C   0  0  0  0  0  0  0  0  0  0  0  0
   -1.3733   -2.0217   -1.4728 C   0  0  0  0  0  0  0  0  0  0  0  0
   -1.8137    0.3236   -2.2158 C   0  0  0  0  0  0  0  0  0  0  0  0
   -2.7749    1.7719    0.6715 C   0  0  0  0  0  0  0  0  0  0  0  0
   -3.5435   -0.4376    1.2751 C   0  0  0  0  0  0  0  0  0  0  0  0
    2.4881    1.9021    1.0424 C   0  0  0  0  0  0  0  0  0  0  0  0
    2.2820   -2.1473   -0.4181 C   0  0  0  0  0  0  0  0  0  0  0  0
    3.4207    1.1730   -1.0636 C   0  0  0  0  0  0  0  0  0  0  0  0
    1.3490   -1.4180    1.6877 C   0  0  0  0  0  0  0  0  0  0  0  0
   -2.6963   -2.7437   -1.3218 C   0  0  0  0  0  0  0  0  0  0  0  0
   -3.9536    2.3202    1.1772 C   0  0  0  0  0  0  0  0  0  0  0  0
   -4.7223    0.1107    1.7805 C   0  0  0  0  0  0  0  0  0  0  0  0
    3.5501    2.7917    1.2048 C   0  0  0  0  0  0  0  0  0  0  0  0
    2.6184   -3.3735    0.1554 C   0  0  0  0  0  0  0  0  0  0  0  0
    4.4829    2.0624   -0.9011 C   0  0  0  0  0  0  0  0  0  0  0  0
    1.6856   -2.6442    2.2613 C   0  0  0  0  0  0  0  0  0  0  0  0
   -1.9955   -0.2317   -3.6063 C   0  0  0  0  0  0  0  0  0  0  0  0
   -4.9274    1.4895    1.7317 C   0  0  0  0  0  0  0  0  0  0  0  0
    4.5476    2.8719    0.2330 C   0  0  0  0  0  0  0  0  0  0  0  0
    2.3202   -3.6220    1.4951 C   0  0  0  0  0  0  0  0  0  0  0  0
  1  6  1  0
  2 11  2  0
  3  5  1  0
  3 10  1  0
  3 11  1  0
  4  5  1  0
  4  6  1  0
  5  7  1  0
  6  8  1  0
  6  9  1  0
  7 12  2  0
  7 13  1  0
  8 14  2  0
  8 16  1  0
  9 15  2  0
  9 17  1  0
 10 18  1  0
 11 25  1  0
 12 19  1  0
 13 20  2  0
 14 21  1  0
 15 22  1  0
 16 23  2  0
 17 24  2  0
 19 26  2  0
 20 26  1  0
 21 27  2  0
 22 28  2  0
 23 27  1  0
 24 28  1  0
M  END
>  <PUBCHEM_COMPOUND_CID>  (1) 
26747

>  <PUBCHEM_CONFORMER_RMSD>  (1) 
1

>  <PUBCHEM_CONFORMER_DIVERSEORDER>  (1) 
1
13
2
12
3
9
7
10
8
4
6
11
5

>  <PUBCHEM_MMFF94_PARTIAL_CHARGES>  (1) 
42
1 -0.68
10 0.3
11 0.57
12 -0.15
13 -0.15
14 -0.15
15 -0.15
16 -0.15
17 -0.15
19 -0.15
2 -0.57
20 -0.15
21 -0.15
22 -0.15
23 -0.15
24 -0.15
25 0.06
26 -0.15
27 -0.15
28 -0.15
3 -0.66
34 0.4
35 0.15
36 0.15
37 0.15
38 0.15
39 0.15
40 0.15
44 0.15
45 0.15
46 0.15
47 0.15
48 0.15
49 0.15
5 0.44
53 0.15
54 0.15
55 0.15
6 0.57
7 -0.14
8 -0.14
9 -0.14

>  <PUBCHEM_EFFECTIVE_ROTOR_COUNT>  (1) 
8

>  <PUBCHEM_PHARMACOPHORE_FEATURES>  (1) 
6
1 1 acceptor
1 1 donor
1 2 acceptor
6 7 12 13 19 20 26 rings
6 8 14 16 21 23 27 rings
6 9 15 17 22 24 28 rings

>  <PUBCHEM_HEAVY_ATOM_COUNT>  (1) 
28

>  <PUBCHEM_ATOM_DEF_STEREO_COUNT>  (1) 
0

>  <PUBCHEM_ATOM_UDEF_STEREO_COUNT>  (1) 
1

>  <PUBCHEM_BOND_DEF_STEREO_COUNT>  (1) 
0

>  <PUBCHEM_BOND_UDEF_STEREO_COUNT>  (1) 
0

>  <PUBCHEM_ISOTOPIC_ATOM_COUNT>  (1) 
0

>  <PUBCHEM_COMPONENT_COUNT>  (1) 
1

>  <PUBCHEM_CACTVS_TAUTO_COUNT>  (1) 
1

>  <PUBCHEM_CONFORMER_ID>  (1) 
0000687B00000001

>  <PUBCHEM_MMFF94_ENERGY>  (1) 
100.3523

>  <PUBCHEM_FEATURE_SELFOVERLAP>  (1) 
30.446

>  <PUBCHEM_SHAPE_FINGERPRINT>  (1) 
10006869 2 18198347256340657929
10165383 225 17896908550151331004
10369192 42 17968673721351999764
10906281 52 16443604875103379079
11421498 54 17984412216369726919
11578080 2 17532092687456398149
121448 382 17976519922094629748
12160290 23 17540243677007639322
12549972 3 17097754778078470805
12633257 1 17905623098982836961
12788726 201 17560223856363183927
12892183 10 18261692410618206457
12930653 34 18263944287271973683
133893 2 18118654713514168434
13533116 47 18334867065636086259
13583140 156 18409449150887537169
13681431 1 18047167684760027498
14178342 30 18043265728035160603
14955137 171 18124886646752602194
15842332 3 17988060241109643519
17974551 9 17753914717738490665
17980427 23 17629451182753744666
17980427 26 18341609339551888780
1813 80 17839740370704739694
19319366 153 18340779220583053856
21033648 29 17386014902097327937
21756936 100 18125162882122458584
22182313 1 17095798820144322439
229495 10 18187920647576632885
23227448 37 17845100738776769625
23558518 356 17624689446717399408
23559900 14 17459483156156373033
25147074 1 18059278912107553279
25222932 49 18198078056807234099
283562 15 17981033438332358435
3380486 145 17614243738582702986
392239 28 17905621243356479267
4340502 62 18189352284761863035
469060 322 17824533308753274981
5252454 2 18341897406581192832
5895379 119 17055291587606348584
59755656 520 18263086685951895696
6049 1 17314227756983889671
633830 44 18271528710280957484
6442390 28 18190195648803540936
7288768 16 18051692441090921560
7615 1 17844783971842115757
81228 2 17179678672805707586
9981440 41 17317282337667263540

>  <PUBCHEM_SHAPE_MULTIPOLES>  (1) 
559.51
8.56
3.97
2.56
2.68
2.09
-1.65
-6.32
3.03
-4.06
1.44
2.02
0.66
-2.14

>  <PUBCHEM_SHAPE_SELFOVERLAP>  (1) 
1204.496

>  <PUBCHEM_SHAPE_VOLUME>  (1) 
305.7

>  <PUBCHEM_COORDINATE_TYPE>  (1) 
2
5
10

$$$$
