26743
     RDKit          3D

 12 13  0  0  0  0  0  0  0  0999 V2000
    0.8795    2.4152    0.1926 S   0  0  0  0  0  0  0  0  0  0  0  0
   -4.2120   -1.0833    0.2878 N   0  0  0  0  0  0  0  0  0  0  0  0
   -0.8749    0.6259   -0.3299 C   0  0  0  0  0  0  0  0  0  0  0  0
   -2.1761   -0.0176   -0.6413 C   0  0  0  0  0  0  0  0  0  0  0  0
    0.3607   -0.0897   -0.1831 C   0  0  0  0  0  0  0  0  0  0  0  0
    1.4169    0.7790    0.1084 C   0  0  0  0  0  0  0  0  0  0  0  0
   -2.9507   -0.4296    0.6203 C   0  0  0  0  0  0  0  0  0  0  0  0
   -0.7325    1.9815   -0.1520 C   0  0  0  0  0  0  0  0  0  0  0  0
    0.6414   -1.4736   -0.2868 C   0  0  0  0  0  0  0  0  0  0  0  0
    2.7301    0.3048    0.2967 C   0  0  0  0  0  0  0  0  0  0  0  0
    1.9428   -1.9472   -0.1006 C   0  0  0  0  0  0  0  0  0  0  0  0
    2.9747   -1.0654    0.1880 C   0  0  0  0  0  0  0  0  0  0  0  0
  1  6  1  0
  1  8  1  0
  2  7  1  0
  3  4  1  0
  3  5  1  0
  3  8  2  0
  4  7  1  0
  5  6  2  0
  5  9  1  0
  6 10  1  0
  9 11  2  0
 10 12  2  0
 11 12  1  0
M  END
>  <PUBCHEM_COMPOUND_CID>  (1) 
26743

>  <PUBCHEM_CONFORMER_RMSD>  (1) 
0.6

>  <PUBCHEM_CONFORMER_DIVERSEORDER>  (1) 
1
4
3
2
5

>  <PUBCHEM_MMFF94_PARTIAL_CHARGES>  (1) 
18
1 -0.08
10 -0.15
11 -0.15
12 -0.15
17 0.15
18 0.15
19 0.15
2 -0.99
20 0.15
21 0.15
22 0.36
23 0.36
3 -0.18
4 0.18
6 0.04
7 0.27
8 -0.11
9 -0.15

>  <PUBCHEM_EFFECTIVE_ROTOR_COUNT>  (1) 
2

>  <PUBCHEM_PHARMACOPHORE_FEATURES>  (1) 
4
1 2 cation
1 2 donor
5 1 3 5 6 8 rings
6 5 6 9 10 11 12 rings

>  <PUBCHEM_HEAVY_ATOM_COUNT>  (1) 
12

>  <PUBCHEM_ATOM_DEF_STEREO_COUNT>  (1) 
0

>  <PUBCHEM_ATOM_UDEF_STEREO_COUNT>  (1) 
0

>  <PUBCHEM_BOND_DEF_STEREO_COUNT>  (1) 
0

>  <PUBCHEM_BOND_UDEF_STEREO_COUNT>  (1) 
0

>  <PUBCHEM_ISOTOPIC_ATOM_COUNT>  (1) 
0

>  <PUBCHEM_COMPONENT_COUNT>  (1) 
1

>  <PUBCHEM_CACTVS_TAUTO_COUNT>  (1) 
1

>  <PUBCHEM_CONFORMER_ID>  (1) 
0000687700000001

>  <PUBCHEM_MMFF94_ENERGY>  (1) 
16.9313

>  <PUBCHEM_FEATURE_SELFOVERLAP>  (1) 
20.357

>  <PUBCHEM_SHAPE_FINGERPRINT>  (1) 
10219947 1 18412826914689299763
108231 29 18409448076871146946
11471102 20 18410849993014634797
11471102 22 18337680805463502595
12032990 46 18339927013409415070
14251717 144 18339639057416751511
14252887 29 18201447964475885119
15501101 241 18335140938009271813
16945 1 18341038701121587308
17844478 74 18408886200453639172
17990270 104 18408039615286917105
20201158 50 18261111880952309099
20645477 70 18263354953840841687
20871998 184 17985821536635289582
20871998 22 18270690757264972023
21061003 4 18341610399717714161
21501502 16 18264777566651098152
2334 1 17690834983832873724
23552423 10 18118405038564767260
23559900 14 16830368776791879390
25610 137 18408888425505304348
2748010 2 18197484139543204020
3312278 4 18193274092203339292
54173680 148 17834958568612147098
5493415 88 18336257955575365744
81228 2 17907291057494542016
8809292 202 18047755897025431026

>  <PUBCHEM_SHAPE_MULTIPOLES>  (1) 
245.82
4.94
2.3
0.73
3.96
0.87
0
-2.71
-0.85
-0.72
-0.03
0.15
0
0.28

>  <PUBCHEM_SHAPE_SELFOVERLAP>  (1) 
511.734

>  <PUBCHEM_SHAPE_VOLUME>  (1) 
142.7

>  <PUBCHEM_COORDINATE_TYPE>  (1) 
2
5
10

$$$$
