26740
     RDKit          3D

 11 10  0  0  0  0  0  0  0  0999 V2000
    3.1271   -1.9618   -0.3393 Cl  0  0  0  0  0  0  0  0  0  0  0  0
   -3.5426   -0.7237    1.3146 Cl  0  0  0  0  0  0  0  0  0  0  0  0
    1.4985    0.4780    0.1885 Si  0  0  0  0  0  4  0  0  0  0  0  0
   -1.3520    0.0405   -0.5499 Si  0  0  0  0  0  4  0  0  0  0  0  0
    0.3079   -0.0491   -0.9070 N   0  0  0  0  0  0  0  0  0  0  0  0
    3.1561   -0.1866   -0.4085 C   0  0  0  0  0  0  0  0  0  0  0  0
   -1.7778   -0.6961    1.1119 C   0  0  0  0  0  0  0  0  0  0  0  0
    1.2455   -0.0801    1.9562 C   0  0  0  0  0  0  0  0  0  0  0  0
    1.6212    2.3565    0.1569 C   0  0  0  0  0  0  0  0  0  0  0  0
   -2.0268    1.7884   -0.6460 C   0  0  0  0  0  0  0  0  0  0  0  0
   -2.2571   -0.9659   -1.8774 C   0  0  0  0  0  0  0  0  0  0  0  0
  1  6  1  0
  2  7  1  0
  3  5  1  0
  3  6  1  0
  3  8  1  0
  3  9  1  0
  4  5  1  0
  4  7  1  0
  4 10  1  0
  4 11  1  0
M  END
>  <PUBCHEM_COMPOUND_CID>  (1) 
26740

>  <PUBCHEM_CONFORMER_RMSD>  (1) 
0.6

>  <PUBCHEM_CONFORMER_DIVERSEORDER>  (1) 
7
6
20
4
23
19
3
24
22
14
5
1
13
17
10
18
25
2
9
11
16
21
8
15
12

>  <PUBCHEM_MMFF94_PARTIAL_CHARGES>  (1) 
12
1 -0.29
10 -0.08
11 -0.08
12 0.36
2 -0.29
3 0.59
4 0.59
5 -1.05
6 0.21
7 0.21
8 -0.08
9 -0.08

>  <PUBCHEM_EFFECTIVE_ROTOR_COUNT>  (1) 
4

>  <PUBCHEM_PHARMACOPHORE_FEATURES>  (1) 
0

>  <PUBCHEM_HEAVY_ATOM_COUNT>  (1) 
11

>  <PUBCHEM_ATOM_DEF_STEREO_COUNT>  (1) 
0

>  <PUBCHEM_ATOM_UDEF_STEREO_COUNT>  (1) 
0

>  <PUBCHEM_BOND_DEF_STEREO_COUNT>  (1) 
0

>  <PUBCHEM_BOND_UDEF_STEREO_COUNT>  (1) 
0

>  <PUBCHEM_ISOTOPIC_ATOM_COUNT>  (1) 
0

>  <PUBCHEM_COMPONENT_COUNT>  (1) 
1

>  <PUBCHEM_CACTVS_TAUTO_COUNT>  (1) 
1

>  <PUBCHEM_CONFORMER_ID>  (1) 
0000687400000007

>  <PUBCHEM_MMFF94_ENERGY>  (1) 
7.4724

>  <PUBCHEM_FEATURE_SELFOVERLAP>  (1) 
0

>  <PUBCHEM_SHAPE_FINGERPRINT>  (1) 
11206711 2 15719393957856930863
12932741 1 17822278128352006149
12932764 1 18131068246883165644
14252887 29 17897463897875586027
14648413 74 18410566284571047348
14817 1 7913068211886435009
15775835 57 17060063704124772240
16945 1 18337668745337863932
18511873 20 17560814207432460802
20082192 1 18058431252977337413
20653085 51 18270103652821692453
20653091 64 17203034305365801578
20711978 78 18263648514085052065
20711983 138 17967256411944729099
20711985 344 17972017168286147164
207724 885 18060138695898575812
22802520 49 18334574612037566860
228727 97 13406798851968507647
23419403 2 14494752464963912732
23526113 38 18192986020040999606
23552423 10 18129929208629160268
23557571 272 16805326617272192188
23598291 2 17845945137709881108
2748010 2 17604419816556463677
31174 14 18337964509496682161
3248919 1 18040424486956907084
449060 23 17458921417051718731
5084963 1 17774427395217150100
74978 22 16630520764939927354
8030462 33 17749932415096813573
81228 2 17907292153328264216

>  <PUBCHEM_SHAPE_MULTIPOLES>  (1) 
261.56
5.32
1.93
1.69
0.13
0.68
-0.29
-1.95
-0.3
-0.93
0.27
0.99
-0.42
0.51

>  <PUBCHEM_SHAPE_SELFOVERLAP>  (1) 
434.706

>  <PUBCHEM_SHAPE_VOLUME>  (1) 
180.3

>  <PUBCHEM_COORDINATE_TYPE>  (1) 
2
5
10

$$$$
