26746
     RDKit          3D

 26 28  0  0  1  0  0  0  0  0999 V2000
    1.0258   -0.3296   -1.7931 O   0  0  0  0  0  0  0  0  0  0  0  0
   -2.5937   -2.6135   -0.6748 O   0  0  0  0  0  0  0  0  0  0  0  0
   -1.5834   -0.6423   -1.3883 N   0  0  0  0  0  0  0  0  0  0  0  0
    1.1956    0.1459   -0.4442 C   0  0  0  0  0  0  0  0  0  0  0  0
   -0.1528    0.8608   -0.0908 C   0  0  0  0  0  0  0  0  0  0  0  0
   -1.4308   -0.0193   -0.0869 C   0  0  0  0  0  0  0  0  0  0  0  0
    2.3947    1.1003   -0.3725 C   0  0  0  0  0  0  0  0  0  0  0  0
    1.4795   -1.0916    0.4291 C   0  0  0  0  0  0  0  0  0  0  0  0
   -2.7070    0.7035    0.2840 C   0  0  0  0  0  0  0  0  0  0  0  0
    3.4054    0.9519   -1.2915 C   0  0  0  0  0  0  0  0  0  0  0  0
    1.0999   -1.0563    1.7458 C   0  0  0  0  0  0  0  0  0  0  0  0
    2.4078    2.0631    0.6077 C   0  0  0  0  0  0  0  0  0  0  0  0
    2.0980   -2.1676   -0.1530 C   0  0  0  0  0  0  0  0  0  0  0  0
   -3.0903    0.7596    1.6130 C   0  0  0  0  0  0  0  0  0  0  0  0
   -3.4647    1.2933   -0.7133 C   0  0  0  0  0  0  0  0  0  0  0  0
   -2.1536   -1.8881   -1.5629 C   0  0  0  0  0  0  0  0  0  0  0  0
    4.4956    1.8196   -1.2265 C   0  0  0  0  0  0  0  0  0  0  0  0
    1.3568   -2.1763    2.5364 C   0  0  0  0  0  0  0  0  0  0  0  0
    3.4981    2.9307    0.6726 C   0  0  0  0  0  0  0  0  0  0  0  0
    2.3550   -3.2877    0.6377 C   0  0  0  0  0  0  0  0  0  0  0  0
   -4.2670    1.4260    1.9552 C   0  0  0  0  0  0  0  0  0  0  0  0
   -4.6413    1.9595   -0.3711 C   0  0  0  0  0  0  0  0  0  0  0  0
    4.5421    2.8089   -0.2444 C   0  0  0  0  0  0  0  0  0  0  0  0
    1.9843   -3.2922    1.9824 C   0  0  0  0  0  0  0  0  0  0  0  0
   -5.0426    2.0260    0.9632 C   0  0  0  0  0  0  0  0  0  0  0  0
   -2.2113   -2.2848   -3.0138 C   0  0  0  0  0  0  0  0  0  0  0  0
  1  4  1  0
  2 16  2  0
  3  6  1  0
  3 16  1  0
  4  5  1  0
  4  7  1  0
  4  8  1  0
  5  6  1  0
  6  9  1  0
  7 10  2  0
  7 12  1  0
  8 11  2  0
  8 13  1  0
  9 14  2  0
  9 15  1  0
 10 17  1  0
 11 18  1  0
 12 19  2  0
 13 20  2  0
 14 21  1  0
 15 22  2  0
 16 26  1  0
 17 23  2  0
 18 24  2  0
 19 23  1  0
 20 24  1  0
 21 25  2  0
 22 25  1  0
M  END
>  <PUBCHEM_COMPOUND_CID>  (1) 
26746

>  <PUBCHEM_CONFORMER_RMSD>  (1) 
0.8

>  <PUBCHEM_CONFORMER_DIVERSEORDER>  (1) 
2
14
19
16
7
18
22
9
21
17
20
13
11
6
10
12
15
3
8
1
4
5

>  <PUBCHEM_MMFF94_PARTIAL_CHARGES>  (1) 
42
1 -0.68
10 -0.15
11 -0.15
12 -0.15
13 -0.15
14 -0.15
15 -0.15
16 0.57
17 -0.15
18 -0.15
19 -0.15
2 -0.57
20 -0.15
21 -0.15
22 -0.15
23 -0.15
24 -0.15
25 -0.15
26 0.06
3 -0.73
30 0.37
31 0.4
32 0.15
33 0.15
34 0.15
35 0.15
36 0.15
37 0.15
38 0.15
39 0.15
4 0.57
40 0.15
41 0.15
42 0.15
43 0.15
44 0.15
45 0.15
46 0.15
6 0.44
7 -0.14
8 -0.14
9 -0.14

>  <PUBCHEM_EFFECTIVE_ROTOR_COUNT>  (1) 
7

>  <PUBCHEM_PHARMACOPHORE_FEATURES>  (1) 
7
1 1 acceptor
1 1 donor
1 2 acceptor
1 3 donor
6 7 10 12 17 19 23 rings
6 8 11 13 18 20 24 rings
6 9 14 15 21 22 25 rings

>  <PUBCHEM_HEAVY_ATOM_COUNT>  (1) 
26

>  <PUBCHEM_ATOM_DEF_STEREO_COUNT>  (1) 
0

>  <PUBCHEM_ATOM_UDEF_STEREO_COUNT>  (1) 
1

>  <PUBCHEM_BOND_DEF_STEREO_COUNT>  (1) 
0

>  <PUBCHEM_BOND_UDEF_STEREO_COUNT>  (1) 
0

>  <PUBCHEM_ISOTOPIC_ATOM_COUNT>  (1) 
0

>  <PUBCHEM_COMPONENT_COUNT>  (1) 
1

>  <PUBCHEM_CACTVS_TAUTO_COUNT>  (1) 
2

>  <PUBCHEM_CONFORMER_ID>  (1) 
0000687A00000002

>  <PUBCHEM_MMFF94_ENERGY>  (1) 
86.4556

>  <PUBCHEM_FEATURE_SELFOVERLAP>  (1) 
35.53

>  <PUBCHEM_SHAPE_FINGERPRINT>  (1) 
10190108 129 18046929318312467387
10369192 42 17096390447821200628
11421498 54 18052528057043181111
121448 382 17973716167211854630
12160290 23 17101155903120440850
12553582 1 17902493909985655978
12788726 201 17620464045148422128
12892183 10 17968673622731184281
12930653 34 18115886242024957963
133893 2 17752172116177796586
13533116 47 18115596924907671121
13583140 156 18334301963714450361
13878862 14 18044638820864920957
14178342 30 17968950819376765947
14251751 93 17987523782498692500
14955137 171 18120942698469994794
15842332 3 18270097076999980415
16752209 62 17774707745566895135
17357779 13 10519156845719121856
17980427 23 18123155027687055114
17980427 26 18334572447864491558
1813 80 17837209281857512098
19319366 153 18335712640831885264
21421861 104 18189613839717528600
21756936 100 18044669821938505756
21796203 349 17902249814030026674
22849341 161 18052253994968617378
22907989 373 17560229353857908965
23419403 2 17260255025026908254
23558518 356 18050010196889858348
23559900 14 17417531298129591895
25147074 1 18341596123383760959
266924 1 18269538576569361327
283562 15 17979347887207424875
34934 24 18411423907898672157
376196 1 17916019247664438824
394222 165 18341623576698464912
4340502 62 17968675877356575265
469060 322 17750514173345007573
474 4 18335145348777615684
495365 180 17822568292585769793
5252454 2 18411982468322001725
59755656 520 18042413589691735784
633830 44 18336831995725494708
81228 2 17176589027935833634
9841814 1 17971470689611174202

>  <PUBCHEM_SHAPE_MULTIPOLES>  (1) 
518.35
8.94
4.06
2.28
5.28
1.82
-0.25
-8.46
0.51
-3.32
0.76
0.97
1.74
-3.09

>  <PUBCHEM_SHAPE_SELFOVERLAP>  (1) 
1120.232

>  <PUBCHEM_SHAPE_VOLUME>  (1) 
282

>  <PUBCHEM_COORDINATE_TYPE>  (1) 
2
5
10

$$$$
