26752
     RDKit          3D

 14 15  0  0  0  0  0  0  0  0999 V2000
    2.1155    2.1238   -0.0161 O   0  0  0  0  0  0  0  0  0  0  0  0
   -3.9916   -0.3166    0.0065 O   0  0  0  0  0  0  0  0  0  0  0  0
    1.5829   -0.2089   -0.0062 N   0  0  0  0  0  0  0  0  0  0  0  0
    3.7478    0.4745    0.0001 N   0  0  0  0  0  0  0  0  0  0  0  0
    2.3859   -1.4190   -0.0742 C   0  0  0  0  0  0  0  0  0  0  0  0
    3.8227   -0.9551    0.0838 C   0  0  0  0  0  0  0  0  0  0  0  0
    0.1583   -0.2359   -0.0035 C   0  0  0  0  0  0  0  0  0  0  0  0
    2.4201    0.9385   -0.0057 C   0  0  0  0  0  0  0  0  0  0  0  0
   -0.5624    0.9582    0.0002 C   0  0  0  0  0  0  0  0  0  0  0  0
   -0.5156   -1.4573   -0.0032 C   0  0  0  0  0  0  0  0  0  0  0  0
   -1.9569    0.9312    0.0044 C   0  0  0  0  0  0  0  0  0  0  0  0
   -1.9102   -1.4844    0.0009 C   0  0  0  0  0  0  0  0  0  0  0  0
   -2.6310   -0.2901    0.0046 C   0  0  0  0  0  0  0  0  0  0  0  0
   -4.6656    0.9411    0.0083 C   0  0  0  0  0  0  0  0  0  0  0  0
  1  8  2  0
  2 13  1  0
  2 14  1  0
  3  5  1  0
  3  7  1  0
  3  8  1  0
  4  6  1  0
  4  8  1  0
  5  6  1  0
  7  9  2  0
  7 10  1  0
  9 11  1  0
 10 12  2  0
 11 13  2  0
 12 13  1  0
M  END
>  <PUBCHEM_COMPOUND_CID>  (1) 
26752

>  <PUBCHEM_CONFORMER_RMSD>  (1) 
0.6

>  <PUBCHEM_CONFORMER_DIVERSEORDER>  (1) 
1
3
2

>  <PUBCHEM_MMFF94_PARTIAL_CHARGES>  (1) 
19
1 -0.57
10 -0.15
11 -0.15
12 -0.15
13 0.08
14 0.28
19 0.37
2 -0.36
20 0.15
21 0.15
22 0.15
23 0.15
3 -0.48
4 -0.73
5 0.3
6 0.3
7 0.12
8 0.69
9 -0.15

>  <PUBCHEM_EFFECTIVE_ROTOR_COUNT>  (1) 
2.8

>  <PUBCHEM_PHARMACOPHORE_FEATURES>  (1) 
5
1 1 acceptor
1 2 acceptor
1 4 donor
5 3 4 5 6 8 rings
6 7 9 10 11 12 13 rings

>  <PUBCHEM_HEAVY_ATOM_COUNT>  (1) 
14

>  <PUBCHEM_ATOM_DEF_STEREO_COUNT>  (1) 
0

>  <PUBCHEM_ATOM_UDEF_STEREO_COUNT>  (1) 
0

>  <PUBCHEM_BOND_DEF_STEREO_COUNT>  (1) 
0

>  <PUBCHEM_BOND_UDEF_STEREO_COUNT>  (1) 
0

>  <PUBCHEM_ISOTOPIC_ATOM_COUNT>  (1) 
0

>  <PUBCHEM_COMPONENT_COUNT>  (1) 
1

>  <PUBCHEM_CACTVS_TAUTO_COUNT>  (1) 
2

>  <PUBCHEM_CONFORMER_ID>  (1) 
0000688000000001

>  <PUBCHEM_MMFF94_ENERGY>  (1) 
52.1214

>  <PUBCHEM_FEATURE_SELFOVERLAP>  (1) 
25.371

>  <PUBCHEM_SHAPE_FINGERPRINT>  (1) 
10130415 120 18413386531695280706
10608611 8 18410007775323451713
10967382 1 18410856534070673230
11132069 177 18341607135610972163
11471102 20 18411416198252605550
12032990 46 18335708255986644075
12251169 10 18411135835846523722
12932764 1 17313088770216834891
13380535 76 18412827979757254431
13690532 89 18338516344074858162
13922767 16 18412260627403910176
14144814 61 18411138013421316722
14325111 11 18410856577099253093
15196674 1 18410856585414881091
15442244 35 18267868276878245610
15536298 74 18342457066873871736
15775835 57 18335143093797822742
16945 1 18412269419260058774
17802600 8 18409162190799544700
18186145 218 17895186714625761295
18522853 276 18342454824985423944
19591789 44 15677189904035586710
200 152 17917706898842906215
20201158 50 18413390929879240366
20528008 55 18412823599037818299
20645477 70 18341331102295067863
21267235 1 18339089207029219354
21501502 16 18268144438658748654
23402539 116 18201992210231399797
23402655 69 18342737407726112837
23463225 33 18410293605549741038
23559900 14 18342736321705957330
2748010 2 18265899253168630150
5104073 3 18410011069573645411
69090 78 18341889697394062103
7364860 26 18343301509326874736
8809292 202 18260833725901058698
9709674 26 18411986879132024031

>  <PUBCHEM_SHAPE_MULTIPOLES>  (1) 
266.41
7.55
1.7
0.59
2.52
0.15
0
0.79
-0.08
-0.52
0.01
0.02
-0.02
-0.01

>  <PUBCHEM_SHAPE_SELFOVERLAP>  (1) 
563.697

>  <PUBCHEM_SHAPE_VOLUME>  (1) 
149.5

>  <PUBCHEM_COORDINATE_TYPE>  (1) 
2
5
10

$$$$
