26768
     RDKit          3D

  9  8  0  0  0  0  0  0  0  0999 V2000
    0.0000    0.0000    0.4276 S   0  0  0  0  0  0  0  0  0  0  0  0
   -2.9522   -1.0186    0.7813 O   0  0  0  0  0  0  0  0  0  0  0  0
    2.9523    1.0188    0.7812 O   0  0  0  0  0  0  0  0  0  0  0  0
   -3.5053    0.9583   -0.2527 N   0  0  0  0  0  0  0  0  0  0  0  0
    3.5052   -0.9583   -0.2526 N   0  0  0  0  0  0  0  0  0  0  0  0
   -1.3698   -0.0536   -0.7520 C   0  0  0  0  0  0  0  0  0  0  0  0
    1.3697    0.0534   -0.7521 C   0  0  0  0  0  0  0  0  0  0  0  0
   -2.6704   -0.1042    0.0096 C   0  0  0  0  0  0  0  0  0  0  0  0
    2.6704    0.1043    0.0096 C   0  0  0  0  0  0  0  0  0  0  0  0
  1  6  1  0
  1  7  1  0
  2  8  2  0
  3  9  2  0
  4  8  1  0
  5  9  1  0
  6  8  1  0
  7  9  1  0
M  END
>  <PUBCHEM_COMPOUND_CID>  (1) 
26768

>  <PUBCHEM_CONFORMER_RMSD>  (1) 
0.6

>  <PUBCHEM_CONFORMER_DIVERSEORDER>  (1) 
4
43
36
17
39
30
8
44
1
34
45
19
38
16
13
2
18
40
6
42
21
15
32
7
20
14
41
31
22
37
33
28
9
29
27
35
5
12
3
23
25
24
10
26
11

>  <PUBCHEM_MMFF94_PARTIAL_CHARGES>  (1) 
13
1 -0.46
14 0.37
15 0.37
16 0.37
17 0.37
2 -0.57
3 -0.57
4 -0.8
5 -0.8
6 0.29
7 0.29
8 0.57
9 0.57

>  <PUBCHEM_EFFECTIVE_ROTOR_COUNT>  (1) 
4

>  <PUBCHEM_PHARMACOPHORE_FEATURES>  (1) 
4
1 2 acceptor
1 3 acceptor
1 4 donor
1 5 donor

>  <PUBCHEM_HEAVY_ATOM_COUNT>  (1) 
9

>  <PUBCHEM_ATOM_DEF_STEREO_COUNT>  (1) 
0

>  <PUBCHEM_ATOM_UDEF_STEREO_COUNT>  (1) 
0

>  <PUBCHEM_BOND_DEF_STEREO_COUNT>  (1) 
0

>  <PUBCHEM_BOND_UDEF_STEREO_COUNT>  (1) 
0

>  <PUBCHEM_ISOTOPIC_ATOM_COUNT>  (1) 
0

>  <PUBCHEM_COMPONENT_COUNT>  (1) 
1

>  <PUBCHEM_CACTVS_TAUTO_COUNT>  (1) 
3

>  <PUBCHEM_CONFORMER_ID>  (1) 
0000689000000004

>  <PUBCHEM_MMFF94_ENERGY>  (1) 
14.9303

>  <PUBCHEM_FEATURE_SELFOVERLAP>  (1) 
20.297

>  <PUBCHEM_SHAPE_FINGERPRINT>  (1) 
11062470 55 17632857520783081788
12932764 1 18131351942299933084
14325111 11 18334858333128971614
14390081 3 18413105048387286373
177051 138 18113903792199900619
190213 19 18186800287918892309
20651381 32 17847057770362324369
3248919 1 17967812781781503559

>  <PUBCHEM_SHAPE_MULTIPOLES>  (1) 
167.36
6.62
0.94
0.87
0
0
-0.01
0
0.46
0
0.1
0
0
0.56

>  <PUBCHEM_SHAPE_SELFOVERLAP>  (1) 
300.761

>  <PUBCHEM_SHAPE_VOLUME>  (1) 
108.3

>  <PUBCHEM_COORDINATE_TYPE>  (1) 
2
5
10

$$$$
