26784
     RDKit          3D

 20 22  0  0  0  0  0  0  0  0999 V2000
    2.5414   -2.4147   -0.0991 O   0  0  0  0  0  0  0  0  0  0  0  0
    0.5804   -3.5261    0.3926 O   0  0  0  0  0  0  0  0  0  0  0  0
    3.0278    3.0570   -0.1300 O   0  0  0  0  0  0  0  0  0  0  0  0
   -2.9381   -0.3946   -0.0771 N   0  0  0  0  0  0  0  0  0  0  0  0
    0.6657   -1.1879    0.4115 N   0  0  0  0  0  0  0  0  0  0  0  0
   -2.9919    0.8794    0.6538 C   0  0  0  0  0  0  0  0  0  0  0  0
   -3.8114   -0.3663   -1.2588 C   0  0  0  0  0  0  0  0  0  0  0  0
   -4.4175    1.1941    1.1095 C   0  0  0  0  0  0  0  0  0  0  0  0
   -5.2639   -0.0924   -0.8655 C   0  0  0  0  0  0  0  0  0  0  0  0
   -5.3875    1.2000   -0.0665 C   0  0  0  0  0  0  0  0  0  0  0  0
   -1.5622   -0.7041   -0.4648 C   0  0  0  0  0  0  0  0  0  0  0  0
   -0.6861   -0.8555    0.7700 C   0  0  0  0  0  0  0  0  0  0  0  0
    1.6856   -0.2926    0.1611 C   0  0  0  0  0  0  0  0  0  0  0  0
    1.1805   -2.4671    0.2547 C   0  0  0  0  0  0  0  0  0  0  0  0
    2.7970   -1.0522   -0.1418 C   0  0  0  0  0  0  0  0  0  0  0  0
    1.7169    1.0862    0.1768 C   0  0  0  0  0  0  0  0  0  0  0  0
    4.0099   -0.4714   -0.4474 C   0  0  0  0  0  0  0  0  0  0  0  0
    2.9356    1.6971   -0.1301 C   0  0  0  0  0  0  0  0  0  0  0  0
    4.0728    0.9250   -0.4396 C   0  0  0  0  0  0  0  0  0  0  0  0
    1.8450    3.7861    0.1907 C   0  0  0  0  0  0  0  0  0  0  0  0
  1 14  1  0
  1 15  1  0
  2 14  2  0
  3 18  1  0
  3 20  1  0
  4  6  1  0
  4  7  1  0
  4 11  1  0
  5 12  1  0
  5 13  1  0
  5 14  1  0
  6  8  1  0
  7  9  1  0
  8 10  1  0
  9 10  1  0
 11 12  1  0
 13 15  2  0
 13 16  1  0
 15 17  1  0
 16 18  2  0
 17 19  2  0
 18 19  1  0
M  END
>  <PUBCHEM_COMPOUND_CID>  (1) 
26784

>  <PUBCHEM_CONFORMER_RMSD>  (1) 
0.8

>  <PUBCHEM_CONFORMER_DIVERSEORDER>  (1) 
1
17
5
14
9
18
7
16
6
4
8
15
3
20
2
11
10
13
12
19

>  <PUBCHEM_MMFF94_PARTIAL_CHARGES>  (1) 
20
1 -0.23
11 0.27
12 0.3
13 0.12
14 0.78
15 0.08
16 -0.15
17 -0.15
18 0.08
19 -0.15
2 -0.57
20 0.28
3 -0.36
35 0.15
36 0.15
37 0.15
4 -0.81
5 -0.48
6 0.27
7 0.27

>  <PUBCHEM_EFFECTIVE_ROTOR_COUNT>  (1) 
5.2

>  <PUBCHEM_PHARMACOPHORE_FEATURES>  (1) 
6
1 2 acceptor
1 3 acceptor
1 4 cation
5 1 5 13 14 15 rings
6 13 15 16 17 18 19 rings
6 4 6 7 8 9 10 rings

>  <PUBCHEM_HEAVY_ATOM_COUNT>  (1) 
20

>  <PUBCHEM_ATOM_DEF_STEREO_COUNT>  (1) 
0

>  <PUBCHEM_ATOM_UDEF_STEREO_COUNT>  (1) 
0

>  <PUBCHEM_BOND_DEF_STEREO_COUNT>  (1) 
0

>  <PUBCHEM_BOND_UDEF_STEREO_COUNT>  (1) 
0

>  <PUBCHEM_ISOTOPIC_ATOM_COUNT>  (1) 
0

>  <PUBCHEM_COMPONENT_COUNT>  (1) 
1

>  <PUBCHEM_CACTVS_TAUTO_COUNT>  (1) 
1

>  <PUBCHEM_CONFORMER_ID>  (1) 
000068A000000001

>  <PUBCHEM_MMFF94_ENERGY>  (1) 
48.2527

>  <PUBCHEM_FEATURE_SELFOVERLAP>  (1) 
30.559

>  <PUBCHEM_SHAPE_FINGERPRINT>  (1) 
10366900 7 18041002812893280305
10411042 1 17832987140037980850
10693767 8 18058171631401670694
11471102 20 18409167679904866510
12107183 9 17549828781323321715
12236239 1 17989203711759478583
12730499 353 18333456447667608859
12769317 202 18336815442510182901
13009979 54 17557707954045886203
14528608 73 18410569604960023367
14848178 96 18337670939750180173
17134986 127 18337672043951842454
17834072 33 18413385441422615831
18186145 218 18409728473610437062
20645477 70 18340768131120063071
21033648 29 17313374618034866373
21041028 32 17975972060213911894
21478907 32 17833833768644570438
21709351 56 18412819175327141871
21860390 5 18343028800109553092
221357 26 18337388236607742261
22289505 5 18262794047584945837
2255824 54 18411979122473626995
23402655 69 18342739636930151534
23558518 356 17755298216872490610
23598291 2 17986679177390865603
25 1 18408045121693661250
3060560 45 18412262826891701502
335352 9 18409169909779013494
341906 21 15357688648875985983
43658 37 18267297818968686328
4409770 3 15174488781449648967
474 4 18409727391500315593
5312625 73 18337954597308320259
543358 83 18341334383765658563
633830 44 18341894121057136679
8272917 22 18340489954630594055
84936 182 18201154472349511848
9971528 1 18271521992835776050
9981440 41 17836634598105913568

>  <PUBCHEM_SHAPE_MULTIPOLES>  (1) 
384.02
10.27
3.41
0.9
12.42
0.94
0.04
3.99
1.79
-3.91
-0.44
0.81
0
-0.64

>  <PUBCHEM_SHAPE_SELFOVERLAP>  (1) 
815.523

>  <PUBCHEM_SHAPE_VOLUME>  (1) 
215.5

>  <PUBCHEM_COORDINATE_TYPE>  (1) 
2
5
10

$$$$
