26789
     RDKit          3D

 15 15  0  0  0  0  0  0  0  0999 V2000
    4.0234    1.2685   -0.3149 F   0  0  0  0  0  0  0  0  0  0  0  0
    4.2274   -0.6076    0.7539 F   0  0  0  0  0  0  0  0  0  0  0  0
    3.8255   -0.6152   -1.3831 F   0  0  0  0  0  0  0  0  0  0  0  0
   -2.9741   -0.0417   -0.4485 N   0  0  0  0  0  0  0  0  0  0  0  0
   -5.0673    0.0031   -1.4334 N   0  0  0  0  0  0  0  0  0  0  0  0
   -4.9960    0.0669    0.8438 N   0  0  0  0  0  0  0  0  0  0  0  0
   -0.7205   -0.0213    0.5320 C   0  0  0  0  0  0  0  0  0  0  0  0
    2.0261    0.0012    0.0436 C   0  0  0  0  0  0  0  0  0  0  0  0
   -2.1888   -0.0333    0.7922 C   0  0  0  0  0  0  0  0  0  0  0  0
   -0.0441    1.1922    0.4086 C   0  0  0  0  0  0  0  0  0  0  0  0
   -0.0237   -1.2237    0.4113 C   0  0  0  0  0  0  0  0  0  0  0  0
    1.3291    1.2035    0.1643 C   0  0  0  0  0  0  0  0  0  0  0  0
    1.3497   -1.2125    0.1672 C   0  0  0  0  0  0  0  0  0  0  0  0
    3.4945    0.0128   -0.2174 C   0  0  0  0  0  0  0  0  0  0  0  0
   -4.2614    0.0072   -0.3195 C   0  0  0  0  0  0  0  0  0  0  0  0
  1 14  1  0
  2 14  1  0
  3 14  1  0
  4  9  1  0
  4 15  2  3
  5 15  1  0
  6 15  1  0
  7  9  1  0
  7 10  2  0
  7 11  1  0
  8 12  2  0
  8 13  1  0
  8 14  1  0
 10 12  1  0
 11 13  2  0
M  END
>  <PUBCHEM_COMPOUND_CID>  (1) 
26789

>  <PUBCHEM_CONFORMER_RMSD>  (1) 
0.6

>  <PUBCHEM_CONFORMER_DIVERSEORDER>  (1) 
1
7
3
2
4
5
6

>  <PUBCHEM_MMFF94_PARTIAL_CHARGES>  (1) 
23
1 -0.34
10 -0.15
11 -0.15
12 -0.15
13 -0.15
14 1.16
15 0.55
18 0.15
19 0.15
2 -0.34
20 0.15
21 0.15
22 0.4
23 0.4
24 0.4
25 0.4
3 -0.34
4 -0.7
5 -0.85
6 -0.85
7 -0.14
8 -0.14
9 0.39

>  <PUBCHEM_EFFECTIVE_ROTOR_COUNT>  (1) 
3

>  <PUBCHEM_PHARMACOPHORE_FEATURES>  (1) 
4
1 5 donor
1 6 donor
4 4 5 6 15 cation
6 7 8 10 11 12 13 rings

>  <PUBCHEM_HEAVY_ATOM_COUNT>  (1) 
15

>  <PUBCHEM_ATOM_DEF_STEREO_COUNT>  (1) 
0

>  <PUBCHEM_ATOM_UDEF_STEREO_COUNT>  (1) 
0

>  <PUBCHEM_BOND_DEF_STEREO_COUNT>  (1) 
0

>  <PUBCHEM_BOND_UDEF_STEREO_COUNT>  (1) 
0

>  <PUBCHEM_ISOTOPIC_ATOM_COUNT>  (1) 
0

>  <PUBCHEM_COMPONENT_COUNT>  (1) 
1

>  <PUBCHEM_CACTVS_TAUTO_COUNT>  (1) 
2

>  <PUBCHEM_CONFORMER_ID>  (1) 
000068A500000001

>  <PUBCHEM_MMFF94_ENERGY>  (1) 
34.3015

>  <PUBCHEM_FEATURE_SELFOVERLAP>  (1) 
20.353

>  <PUBCHEM_SHAPE_FINGERPRINT>  (1) 
11401426 45 18412538825425971722
11471102 20 18409166623385018800
11796584 16 15123517973506161613
12236239 1 17703796907928432441
12251169 10 9511456736801672521
13760787 19 16733272325985311826
13760787 5 18409453574244500488
14251717 144 18343865506772248886
14576447 43 18059281145923245807
14911166 2 18410017645463973758
14943859 89 17022902367427367849
14993402 34 18202566189286349102
15848700 24 18272936007675484884
16945 1 18337686247482478634
17834072 33 17131829906349323321
18186145 218 18410570712950854697
19026448 4 16225775124645052080
19026448 5 16343716412667720706
200 152 18060701693376192969
20645477 70 18335424534605225474
21119208 17 18131912663476557503
21256008 61 17918269870207919009
231179 274 17458057170931580245
23402539 116 17060337405622250537
23402655 69 18338228281166876821
23557571 272 13613980871746436265
23559900 14 18410860992932288466
2748010 2 18122354741929523810
29717793 49 17346594175924975589
3060560 45 18411978061653459542
4047638 21 17967255312438408368
4072396 5 18261375733751908194
42 15 15195288612104654069
4990 188 18272653445660487911
69090 78 17846777425041237902
7495541 125 17458639963929418929
81539 233 17603865576665343851

>  <PUBCHEM_SHAPE_MULTIPOLES>  (1) 
271.93
9.65
1.13
0.98
6.73
0.06
0.2
0.15
2.36
-0.78
-0.08
0.45
-0.07
-0.02

>  <PUBCHEM_SHAPE_SELFOVERLAP>  (1) 
565.99

>  <PUBCHEM_SHAPE_VOLUME>  (1) 
155.1

>  <PUBCHEM_COORDINATE_TYPE>  (1) 
2
5
10

$$$$
