26797
     RDKit          3D

 24 26  0  0  0  0  0  0  0  0999 V2000
    5.8335   -0.5128   -0.2864 O   0  0  0  0  0  0  0  0  0  0  0  0
   -0.3615    1.9468    1.2452 O   0  0  0  0  0  0  0  0  0  0  0  0
   -2.8021   -1.1513   -2.1331 O   0  0  0  0  0  0  0  0  0  0  0  0
    3.4865    1.0833   -0.0725 N   0  0  0  0  0  0  0  0  0  0  0  0
   -2.6699    1.6118   -0.3527 N   0  0  0  0  0  0  0  0  0  0  0  0
    2.1874    1.4052    0.5144 C   0  0  0  0  0  0  0  0  0  0  0  0
    4.5457    1.1336    0.9448 C   0  0  0  0  0  0  0  0  0  0  0  0
    3.4590   -0.2427   -0.7054 C   0  0  0  0  0  0  0  0  0  0  0  0
    1.1170    1.4518   -0.5668 C   0  0  0  0  0  0  0  0  0  0  0  0
    5.8889    0.7830    0.3113 C   0  0  0  0  0  0  0  0  0  0  0  0
    4.8280   -0.5619   -1.2994 C   0  0  0  0  0  0  0  0  0  0  0  0
   -0.2297    1.8116    0.0286 C   0  0  0  0  0  0  0  0  0  0  0  0
   -1.3817    1.9620   -0.9446 C   0  0  0  0  0  0  0  0  0  0  0  0
   -3.2287    0.3694   -0.3586 C   0  0  0  0  0  0  0  0  0  0  0  0
   -3.4829    2.4986    0.2873 C   0  0  0  0  0  0  0  0  0  0  0  0
   -4.4367    0.4589    0.2972 C   0  0  0  0  0  0  0  0  0  0  0  0
   -4.5974    1.8060    0.7060 C   0  0  0  0  0  0  0  0  0  0  0  0
   -2.6398   -0.7947   -0.9470 C   0  0  0  0  0  0  0  0  0  0  0  0
   -1.7371   -1.6943   -0.1589 C   0  0  0  0  0  0  0  0  0  0  0  0
   -1.4956   -1.3866    1.1574 C   0  0  0  0  0  0  0  0  0  0  0  0
   -1.1919   -2.7862   -0.7883 C   0  0  0  0  0  0  0  0  0  0  0  0
   -0.6555   -2.2244    1.8911 C   0  0  0  0  0  0  0  0  0  0  0  0
   -0.3519   -3.6241   -0.0546 C   0  0  0  0  0  0  0  0  0  0  0  0
   -0.0837   -3.3431    1.2850 C   0  0  0  0  0  0  0  0  0  0  0  0
  1 10  1  0
  1 11  1  0
  2 12  2  0
  3 18  2  0
  4  6  1  0
  4  7  1  0
  4  8  1  0
  5 13  1  0
  5 14  1  0
  5 15  1  0
  6  9  1  0
  7 10  1  0
  8 11  1  0
  9 12  1  0
 12 13  1  0
 14 16  2  0
 14 18  1  0
 15 17  2  0
 16 17  1  0
 18 19  1  0
 19 20  2  0
 19 21  1  0
 20 22  1  0
 21 23  2  0
 22 24  2  0
 23 24  1  0
M  END
>  <PUBCHEM_COMPOUND_CID>  (1) 
26797

>  <PUBCHEM_CONFORMER_RMSD>  (1) 
1

>  <PUBCHEM_CONFORMER_DIVERSEORDER>  (1) 
1
344
84
254
76
458
422
406
294
319
258
496
60
270
525
402
236
505
149
510
184
311
6
225
192
523
202
131
186
333
489
241
404
279
235
388
435
491
91
222
193
153
529
364
111
475
104
371
218
411
534
154
4
64
262
11
514
328
96
474
465
470
29
290
59
26
87
375
168
12
227
287
293
5
442
7
86
2
259
73
9
314
272
22
303
145
484
173
21
19
38
34
81
313
20
53
23
405
117
75
398
42
74
291
448
47
144
403
271
379
25
83
92
13
308
162
82
68
45
101
298
507
233
438
427
10
43
70
200
127
281
33
103
95
51
67
17
208
157

>  <PUBCHEM_MMFF94_PARTIAL_CHARGES>  (1) 
32
1 -0.56
10 0.28
11 0.28
12 0.45
13 0.32
14 -0.24
15 -0.3
16 -0.15
17 -0.15
18 0.57
19 0.09
2 -0.57
20 -0.15
21 -0.15
22 -0.15
23 -0.15
24 -0.15
3 -0.57
39 0.15
4 -0.81
40 0.15
41 0.15
42 0.15
43 0.15
44 0.15
45 0.15
46 0.15
5 0.05
6 0.27
7 0.27
8 0.27
9 0.06

>  <PUBCHEM_EFFECTIVE_ROTOR_COUNT>  (1) 
8.2

>  <PUBCHEM_PHARMACOPHORE_FEATURES>  (1) 
8
1 1 acceptor
1 2 acceptor
1 3 acceptor
1 4 cation
1 5 cation
5 5 14 15 16 17 rings
6 1 4 7 8 10 11 rings
6 19 20 21 22 23 24 rings

>  <PUBCHEM_HEAVY_ATOM_COUNT>  (1) 
24

>  <PUBCHEM_ATOM_DEF_STEREO_COUNT>  (1) 
0

>  <PUBCHEM_ATOM_UDEF_STEREO_COUNT>  (1) 
0

>  <PUBCHEM_BOND_DEF_STEREO_COUNT>  (1) 
0

>  <PUBCHEM_BOND_UDEF_STEREO_COUNT>  (1) 
0

>  <PUBCHEM_ISOTOPIC_ATOM_COUNT>  (1) 
0

>  <PUBCHEM_COMPONENT_COUNT>  (1) 
1

>  <PUBCHEM_CACTVS_TAUTO_COUNT>  (1) 
3

>  <PUBCHEM_CONFORMER_ID>  (1) 
000068AD00000001

>  <PUBCHEM_MMFF94_ENERGY>  (1) 
52.1902

>  <PUBCHEM_FEATURE_SELFOVERLAP>  (1) 
40.597

>  <PUBCHEM_SHAPE_FINGERPRINT>  (1) 
107951 10 17894638032316645827
11036077 3 18336553728883333209
11578080 2 17201912863334410648
12035759 4 18198878411035341223
12156800 1 15723102576069995403
12166972 35 12679162930152834345
12821665 9 17973452285165728060
13135754 10 17460337635320317019
13402501 40 18342463612688939294
13726171 33 17830497021326596828
14251740 79 18271813376238618368
14251751 93 18410853248716129917
14251757 5 18263944266134591108
14659021 117 18125702729045341566
14866123 147 18338518646504876891
15209289 33 18411418431962965265
17859628 97 18408887308771511881
21403212 168 18271251509044749785
23419403 2 17549316550559934619
23559900 14 18273209837964311080
23728640 28 18337674229863472955
3298306 158 18191020101893341581
3383291 50 18336827610179283363
3411729 13 18050577244643415977
4015057 19 17988065816141418992
404807 14 15618944521026423398
4073 2 18411138083043023008
445580 42 18041838553341686922
5265222 85 18337404806976737596
5309563 4 16823908642844360106
5364581 5 17982152716281294704
57091435 65 18044931269013048018
59755656 215 18409728440157962861
6138700 20 18338240353581461055
7226269 152 18272651225489904944
9709674 26 18269833288920101516

>  <PUBCHEM_SHAPE_MULTIPOLES>  (1) 
466.34
10.34
3.8
1.39
15.17
3.06
0.02
-5.1
0.6
-2.49
-0.76
-0.26
0.63
0.05

>  <PUBCHEM_SHAPE_SELFOVERLAP>  (1) 
991.222

>  <PUBCHEM_SHAPE_VOLUME>  (1) 
260.5

>  <PUBCHEM_COORDINATE_TYPE>  (1) 
2
5
10

$$$$
