26791
     RDKit          3D

 32 35  0  0  1  0  0  0  0  0999 V2000
    2.2112   -0.5115   -1.7500 Cl  0  0  0  0  0  0  0  0  0  0  0  0
    1.0101   -2.9856    0.0301 Cl  0  0  0  0  0  0  0  0  0  0  0  0
   -6.2224   -1.8392   -0.1510 P   0  0  0  0  0  0  0  0  0  0  0  0
   -2.1884    0.8520   -1.6323 O   0  0  0  0  0  0  0  0  0  0  0  0
   -3.9048    1.5023    1.2705 O   0  0  0  0  0  0  0  0  0  0  0  0
   -5.3282   -0.5858    0.3580 O   0  0  0  0  0  0  0  0  0  0  0  0
    7.0393   -1.3640   -1.3769 O   0  0  0  0  0  0  0  0  0  0  0  0
   -6.6849   -1.4003   -1.6372 O   0  0  0  0  0  0  0  0  0  0  0  0
   -7.5789   -1.6972    0.7177 O   0  0  0  0  0  0  0  0  0  0  0  0
   -5.5469   -3.1761   -0.0577 O   0  0  0  0  0  0  0  0  0  0  0  0
   -0.8699    0.6428    0.4200 C   0  0  0  0  0  0  0  0  0  0  0  0
    0.2436    1.5265   -0.1817 C   0  0  0  0  0  0  0  0  0  0  0  0
    1.6346    1.1916    0.3786 C   0  0  0  0  0  0  0  0  0  0  0  0
    2.0409   -0.3217    0.0775 C   0  0  0  0  0  0  0  0  0  0  0  0
   -2.1053    1.2812   -0.2774 C   0  0  0  0  0  0  0  0  0  0  0  0
   -0.2952    2.9488   -0.0103 C   0  0  0  0  0  0  0  0  0  0  0  0
   -0.5522   -0.8131    0.0483 C   0  0  0  0  0  0  0  0  0  0  0  0
   -1.8324    2.8104   -0.1696 C   0  0  0  0  0  0  0  0  0  0  0  0
    0.8508   -1.2627    0.5347 C   0  0  0  0  0  0  0  0  0  0  0  0
    3.4817   -0.6149    0.7345 C   0  0  0  0  0  0  0  0  0  0  0  0
    2.6934    2.2051   -0.0899 C   0  0  0  0  0  0  0  0  0  0  0  0
   -0.9985    0.7637    1.9654 C   0  0  0  0  0  0  0  0  0  0  0  0
    4.0578    1.9084    0.5187 C   0  0  0  0  0  0  0  0  0  0  0  0
    4.4607    0.4798    0.2615 C   0  0  0  0  0  0  0  0  0  0  0  0
   -3.4194    0.8804    0.3267 C   0  0  0  0  0  0  0  0  0  0  0  0
   -2.3543    3.6486   -1.3326 C   0  0  0  0  0  0  0  0  0  0  0  0
    3.4250   -0.5812    2.2841 C   0  0  0  0  0  0  0  0  0  0  0  0
    4.0420   -1.9975    0.4161 C   0  0  0  0  0  0  0  0  0  0  0  0
    5.5992    0.2291   -0.4057 C   0  0  0  0  0  0  0  0  0  0  0  0
   -4.1015   -0.3224   -0.2895 C   0  0  0  0  0  0  0  0  0  0  0  0
    5.1748   -2.2505   -0.2469 C   0  0  0  0  0  0  0  0  0  0  0  0
    6.0182   -1.1470   -0.7339 C   0  0  0  0  0  0  0  0  0  0  0  0
  1 14  1  0
  2 19  1  0
  3  6  1  0
  3  8  1  0
  3  9  1  0
  3 10  2  0
  4 15  1  0
  5 25  2  0
  6 30  1  0
  7 32  2  0
 11 12  1  0
 11 15  1  0
 11 17  1  0
 11 22  1  0
 12 13  1  0
 12 16  1  0
 13 14  1  0
 13 21  1  0
 14 19  1  0
 14 20  1  0
 15 18  1  0
 15 25  1  0
 16 18  1  0
 17 19  1  0
 18 26  1  0
 20 24  1  0
 20 27  1  0
 20 28  1  0
 21 23  1  0
 23 24  1  0
 24 29  2  0
 25 30  1  0
 28 31  2  0
 29 32  1  0
 31 32  1  0
M  END
>  <PUBCHEM_COMPOUND_CID>  (1) 
26791

>  <PUBCHEM_CONFORMER_RMSD>  (1) 
0.8

>  <PUBCHEM_CONFORMER_DIVERSEORDER>  (1) 
1
309
215
235
286
107
252
3
165
56
225
69
328
284
341
68
230
155
308
199
18
153
327
72
310
8
126
299
248
162
249
237
196
115
59
340
112
53
95
31
127
268
111
257
295
94
70
202
159
313
187
7
63
133
184
73
315
19
344
265
10
206
191
22
160
140
291
114
117
251
331
246
200
28
288
232
325
50
106
188
289
49
108
11
229
55
20
228
292
121
277
238
85
51
79
236
332
213
138
2
224
36
48
326
281
113
101
43
255
242
167
54
294
305
136
267
15
39
52
154
99
122
92
345
124
166
298
173
156
163
137
14
316
75
337
217
297
146
17
129
241
119
185
103
58
9
276
21
144
128
123
250
91
132
193
293
283
100
275
226
81
343
89
152
192
311
5
204
302
125
174
110
233
321
74
334
208
272
271
141
231
12
170
34
263
195
318
234
158
287
151
180
197
38
171
223
149
261
46
209
164
253
109
182
134
104
207
16
61
44
304
37
203
169
96
76
172
35
88
317
130
312
97
150
157
147
57
245
168
198
222
221
23
13
142
116
29
105
220
82
330
266
176
67
240
84
306
259
264
322
60
83
77
339
139
120
98
189
219
216
333
282
244
102
256
42
135
145
62
71
148
273
227
336
243
4
118
78
181
66
342
319
296
314
41
186
25
179
26
143
301
87
24
177
260
211
258
210
274
65
279
320
175
93
161
90
324
30
40
201
214
307
323
278
47
32
86
194
183
45
280
239
6
33
205
262
335
218
254
27
64
338
285
80
300
329
269
247
131
303
178
190
290
270
212

>  <PUBCHEM_MMFF94_PARTIAL_CHARGES>  (1) 
28
1 -0.29
10 -0.7
14 0.29
15 0.34
19 0.29
2 -0.29
20 0.28
23 0.14
24 -0.28
25 0.45
28 -0.29
29 -0.14
3 1.51
30 0.34
31 -0.14
32 0.54
4 -0.68
5 -0.57
54 0.4
55 0.15
56 0.15
59 0.15
6 -0.55
60 0.5
61 0.5
7 -0.57
8 -0.77
9 -0.77

>  <PUBCHEM_EFFECTIVE_ROTOR_COUNT>  (1) 
5.4

>  <PUBCHEM_PHARMACOPHORE_FEATURES>  (1) 
12
1 10 acceptor
1 4 acceptor
1 4 donor
1 5 acceptor
1 7 acceptor
1 8 acceptor
1 9 acceptor
4 3 8 9 10 anion
5 11 12 15 16 18 rings
6 11 12 13 14 17 19 rings
6 13 14 20 21 23 24 rings
6 20 24 28 29 31 32 rings

>  <PUBCHEM_HEAVY_ATOM_COUNT>  (1) 
32

>  <PUBCHEM_ATOM_DEF_STEREO_COUNT>  (1) 
3

>  <PUBCHEM_ATOM_UDEF_STEREO_COUNT>  (1) 
5

>  <PUBCHEM_BOND_DEF_STEREO_COUNT>  (1) 
0

>  <PUBCHEM_BOND_UDEF_STEREO_COUNT>  (1) 
0

>  <PUBCHEM_ISOTOPIC_ATOM_COUNT>  (1) 
0

>  <PUBCHEM_COMPONENT_COUNT>  (1) 
1

>  <PUBCHEM_CACTVS_TAUTO_COUNT>  (1) 
6

>  <PUBCHEM_CONFORMER_ID>  (1) 
000068A700000001

>  <PUBCHEM_MMFF94_ENERGY>  (1) 
79.0717

>  <PUBCHEM_FEATURE_SELFOVERLAP>  (1) 
61.027

>  <PUBCHEM_SHAPE_FINGERPRINT>  (1) 
10076449 9 17917718994304404510
10366900 7 17821734918479896680
11578080 2 13190918595692753159
117089 54 18126853690266802806
11963148 33 18410568474741384254
12166972 35 18273218607780763704
12236239 1 17989209243593044537
12403259 226 18337667525599397968
12403259 415 18340763729147843304
12422481 6 17561362907064300239
12616971 3 14548724106663637904
12788726 201 18114176415385944083
13224815 77 18115589236525814128
13533116 47 18202001083634210152
1361 2 18336264655808769864
13673619 4 18202282502459555481
13690498 29 18187643588105786829
13782708 43 18060417989021837942
14117953 113 18413668011901187791
14347332 77 18335978675421934304
14955137 171 17847061103478726321
15131766 46 15049732084459538507
15142383 8 13254804516228793546
15361156 5 18041575641287936765
17349148 13 17749678380850779880
17492 89 18337384916677091450
18608769 82 18411698803312403010
18681886 176 18409448086025596808
20028762 73 18272368676529010974
21033648 29 18261950744380197904
21267235 1 18412832390698840075
221357 26 18410011031435935920
22149856 69 18342186591719811635
22393880 68 18263358093319568676
23522609 53 18123505767528033912
23559900 14 18336821979698645400
2838139 119 8358270228634310899
3004659 81 18113614608099655051
350125 39 18410578340522842800
465052 167 18202004326529288174
484989 97 18263089966763915866
5104073 3 18130501955371589008

>  <PUBCHEM_SHAPE_MULTIPOLES>  (1) 
625.05
15.29
3.49
1.38
11.27
0.8
-0.15
-12.26
2.69
2.53
0.59
-0.26
0.04
0.45

>  <PUBCHEM_SHAPE_SELFOVERLAP>  (1) 
1303.033

>  <PUBCHEM_SHAPE_VOLUME>  (1) 
360.8

>  <PUBCHEM_COORDINATE_TYPE>  (1) 
2
5
10

$$$$
