26805
     RDKit          3D

 21 23  0  0  0  0  0  0  0  0999 V2000
    0.9005   -0.0758   -0.0002 O   0  0  0  0  0  0  0  0  0  0  0  0
   -5.6066    2.7666    0.0010 O   0  0  0  0  0  0  0  0  0  0  0  0
   -5.3293   -1.8143    0.0000 O   0  0  0  0  0  0  0  0  0  0  0  0
   -3.7151   -0.1098   -0.0001 N   0  0  0  0  0  0  0  0  0  0  0  0
   -5.8472    0.4543    0.0003 N   0  0  0  0  0  0  0  0  0  0  0  0
   -2.6108   -0.8834   -0.0001 N   0  0  0  0  0  0  0  0  0  0  0  0
    7.0089    1.6160   -0.0002 N   0  0  0  0  0  0  0  0  0  0  0  0
   -3.6578    1.3199   -0.0003 C   0  0  0  0  0  0  0  0  0  0  0  0
    1.9658   -0.9146   -0.0001 C   0  0  0  0  0  0  0  0  0  0  0  0
    3.2553   -0.2680    0.0008 C   0  0  0  0  0  0  0  0  0  0  0  0
   -5.1416    1.6353   -0.0002 C   0  0  0  0  0  0  0  0  0  0  0  0
   -0.2068   -0.8632   -0.0004 C   0  0  0  0  0  0  0  0  0  0  0  0
   -5.0001   -0.6361    0.0001 C   0  0  0  0  0  0  0  0  0  0  0  0
    1.5610   -2.2242   -0.0006 C   0  0  0  0  0  0  0  0  0  0  0  0
    0.1460   -2.1927   -0.0006 C   0  0  0  0  0  0  0  0  0  0  0  0
    4.4203   -1.0348    0.0016 C   0  0  0  0  0  0  0  0  0  0  0  0
    3.3368    1.1246   -0.0005 C   0  0  0  0  0  0  0  0  0  0  0  0
   -1.4782   -0.2240   -0.0003 C   0  0  0  0  0  0  0  0  0  0  0  0
    5.7487    0.9833   -0.0002 C   0  0  0  0  0  0  0  0  0  0  0  0
    5.6669   -0.4093    0.0011 C   0  0  0  0  0  0  0  0  0  0  0  0
    4.5835    1.7503   -0.0011 C   0  0  0  0  0  0  0  0  0  0  0  0
  1  9  1  0
  1 12  1  0
  2 11  2  0
  3 13  2  0
  4  6  1  0
  4  8  1  0
  4 13  1  0
  5 11  1  0
  5 13  1  0
  6 18  2  0
  7 19  1  0
  8 11  1  0
  9 10  1  0
  9 14  2  0
 10 16  2  0
 10 17  1  0
 12 15  2  0
 12 18  1  0
 14 15  1  0
 16 20  1  0
 17 21  2  0
 19 20  2  0
 19 21  1  0
M  END
>  <PUBCHEM_COMPOUND_CID>  (1) 
26805

>  <PUBCHEM_CONFORMER_RMSD>  (1) 
0.6

>  <PUBCHEM_CONFORMER_DIVERSEORDER>  (1) 
1
4
10
8
12
7
13
15
9
14
2
3
6
16
5
11

>  <PUBCHEM_MMFF94_PARTIAL_CHARGES>  (1) 
31
1 -0.28
10 0.05
11 0.57
12 0.05
13 0.69
14 -0.15
15 -0.15
16 -0.15
17 -0.15
18 0.47
19 0.1
2 -0.57
20 -0.15
21 -0.15
24 0.37
25 0.15
26 0.15
27 0.15
28 0.15
29 0.06
3 -0.57
30 0.15
31 0.15
32 0.4
33 0.4
4 -0.3
5 -0.49
6 -0.51
7 -0.9
8 0.36
9 0.09

>  <PUBCHEM_EFFECTIVE_ROTOR_COUNT>  (1) 
3.6

>  <PUBCHEM_PHARMACOPHORE_FEATURES>  (1) 
10
1 1 acceptor
1 2 acceptor
1 3 acceptor
1 5 donor
1 6 acceptor
1 7 cation
1 7 donor
5 1 9 12 14 15 rings
5 4 5 8 11 13 rings
6 10 16 17 19 20 21 rings

>  <PUBCHEM_HEAVY_ATOM_COUNT>  (1) 
21

>  <PUBCHEM_ATOM_DEF_STEREO_COUNT>  (1) 
0

>  <PUBCHEM_ATOM_UDEF_STEREO_COUNT>  (1) 
0

>  <PUBCHEM_BOND_DEF_STEREO_COUNT>  (1) 
0

>  <PUBCHEM_BOND_UDEF_STEREO_COUNT>  (1) 
1

>  <PUBCHEM_ISOTOPIC_ATOM_COUNT>  (1) 
0

>  <PUBCHEM_COMPONENT_COUNT>  (1) 
1

>  <PUBCHEM_CACTVS_TAUTO_COUNT>  (1) 
6

>  <PUBCHEM_CONFORMER_ID>  (1) 
000068B500000001

>  <PUBCHEM_MMFF94_ENERGY>  (1) 
55.8094

>  <PUBCHEM_FEATURE_SELFOVERLAP>  (1) 
50.749

>  <PUBCHEM_SHAPE_FINGERPRINT>  (1) 
10 15 18259992557072816097
10411042 1 17689998934738965094
10595046 47 18411415107811349899
12107183 9 17689151206434592459
12236239 1 18343300366406742054
12403259 415 18059568135242001032
12633257 1 16153714253383566279
13073987 5 18259987050735124363
13167372 99 18410292480595519584
13402501 40 18409446985786377884
13631057 29 18199747102563031911
13785724 45 17833263122131432354
14251764 18 18187359952992472042
14528608 73 18413106164735846655
14933364 13 18411704283120648620
15196674 1 18410573980872353569
15778101 99 18340772551115774385
15961568 22 18334859402645017821
17844677 252 18411426119896039083
20281389 69 18333449824384803045
21033648 29 18341604962595144616
21315763 129 18410573998120989493
23035841 295 10087647000274888060
23272321 79 18409730677192488471
23402539 116 18343297084909179926
23402655 69 18273210885181515374
23559900 14 18125438614369282455
245318 6 17461178804591976940
2838139 119 18342171215383684276
2916195 48 18341047501467242416
293599 30 18412826902115666694
300161 21 18113614548307729543
314194 84 10665234764950450480
335352 9 18410857664665216558
34797466 226 17917718993671174735
351380 3 8935000360806426400
4073 2 18113907073491969075
4325135 7 18342454885394684031
4340502 62 16515400768695134674
441001 317 18410293597497753241
5104073 3 18114749226990660387
54446538 1 18410009970078009917
59682541 35 18262528091221686411
59682541 52 17203060586629441284
59755656 520 18114176471363703178
636775 72 18197211663056631592
77188 2 17401203374749632754
9996256 80 18341330080145540303

>  <PUBCHEM_SHAPE_MULTIPOLES>  (1) 
394.64
17.38
2.33
0.59
2.97
0.29
0
9.46
0
0.99
0
-0.07
-0.01
0

>  <PUBCHEM_SHAPE_SELFOVERLAP>  (1) 
867.558

>  <PUBCHEM_SHAPE_VOLUME>  (1) 
214.3

>  <PUBCHEM_COORDINATE_TYPE>  (1) 
2
5
10

$$$$
