26816
     RDKit          3D

 18 18  0  0  0  0  0  0  0  0999 V2000
    1.3854   -1.3887    1.4129 O   0  0  0  0  0  0  0  0  0  0  0  0
   -4.4820    0.5581    0.1565 O   0  0  0  0  0  0  0  0  0  0  0  0
   -0.2279    0.4986    2.3013 O   0  0  0  0  0  0  0  0  0  0  0  0
    3.4282    0.0767   -0.6346 C   0  0  0  0  0  0  0  0  0  0  0  0
    3.0254   -1.3749   -0.9085 C   0  0  0  0  0  0  0  0  0  0  0  0
    4.9415    0.2780   -0.5301 C   0  0  0  0  0  0  0  0  0  0  0  0
    1.5110   -1.5814   -0.9874 C   0  0  0  0  0  0  0  0  0  0  0  0
    5.2872    1.7399   -0.2437 C   0  0  0  0  0  0  0  0  0  0  0  0
    0.8192   -1.2603    0.3297 C   0  0  0  0  0  0  0  0  0  0  0  0
   -0.5897   -0.7683    0.2980 C   0  0  0  0  0  0  0  0  0  0  0  0
    6.7910    1.9536   -0.1759 C   0  0  0  0  0  0  0  0  0  0  0  0
   -1.0341    0.0832    1.2841 C   0  0  0  0  0  0  0  0  0  0  0  0
   -1.3963   -1.1938   -0.7345 C   0  0  0  0  0  0  0  0  0  0  0  0
   -2.3536    0.5332    1.2360 C   0  0  0  0  0  0  0  0  0  0  0  0
   -3.1945    0.1195    0.2029 C   0  0  0  0  0  0  0  0  0  0  0  0
   -2.7158   -0.7441   -0.7825 C   0  0  0  0  0  0  0  0  0  0  0  0
   -5.0790    0.6843   -1.1333 C   0  0  0  0  0  0  0  0  0  0  0  0
   -6.1160    1.7864   -1.0909 C   0  0  0  0  0  0  0  0  0  0  0  0
  1  9  2  0
  2 15  1  0
  2 17  1  0
  3 12  1  0
  4  5  1  0
  4  6  1  0
  5  7  1  0
  6  8  1  0
  7  9  1  0
  8 11  1  0
  9 10  1  0
 10 12  2  0
 10 13  1  0
 12 14  1  0
 13 16  2  0
 14 15  2  0
 15 16  1  0
 17 18  1  0
M  END
>  <PUBCHEM_COMPOUND_CID>  (1) 
26816

>  <PUBCHEM_CONFORMER_RMSD>  (1) 
0.8

>  <PUBCHEM_CONFORMER_DIVERSEORDER>  (1) 
1
291
409
255
256
429
218
457
46
353
147
247
59
258
60
455
362
187
185
168
237
113
54
289
355
17
420
110
204
397
342
112
117
38
295
405
287
290
98
19
22
361
40
462
323
145
90
141
456
95
437
216
383
236
62
369
376
12
301
122
279
352
428
249
300
441
367
132
123
320
10
298
299
351
178
152
214
260
283
24
235
226
84
468
393
293
94
55
338
459
372
211
410
341
65
463
114
460
37
436
327
424
3
201
230
100
337
104
270
16
340
203
307
386
305
130
433
239
314
392
398
149
306
74
465
79
127
467
445
245
45
31
57
373
190
26
103
286
407
2
365
250
227
347
329
128
292
421
231
411
315
36
118
155
174
402
308
53
273
164
267
274
242
385
390
15
356
97
175
379
160
378
105
81
200
368
56
76
417
228
399
115
344
120
394
262
396
400
21
276
167
324
382
321
47
363
243
30
111
87
335
447
99
266
251
188
52
138
183
229
116
332
198
176
140
82
466
63
146
269
193
469
32
375
108
209
443
234
171
434
354
370
205
11
223
50
357
280
391
358
20
387
225
282
449
348
414
67
345
49
165
126
133
454
360
48
252
419
44
210
92
253
304
89
302
389
401
91
173
395
381
326
134
71
309
431
125
374
426
66
51
343
6
277
408
195
88
159
371
263
151
403
189
156
191
158
143
35
7
422
58
162
142
23
444
163
296
8
331
346
451
217
85
124
78
404
264
350
213
181
461
177
80
458
197
166
14
212
439
336
34
240
33
330
316
169
384
317
109
13
425
339
4
131
101
418
427
70
119
184
161
268
196
453
278
9
415
170
311
464
150
28
285
325
83
153
224
64
432
334
244
388
27
377
416
154
179
41
281
271
68
136
18
248
25
148
199
275
5
180
303
107
232
208
29
364
215
96
61
222
202
349
207
73
446
241
129
328
310
106
312
430
259
233
220
423
406
452
72
206
412
448
450
186
43
333
272
121
257
265
318
246
194
254
42
313
435
139
69
77
221
86
294
102
359
39
440
322
261
288
442
284
192
182
137
219
144
319
297
438
157
413
366
238
172
135
380
75
93

>  <PUBCHEM_MMFF94_PARTIAL_CHARGES>  (1) 
16
1 -0.57
10 0.09
12 0.08
13 -0.15
14 -0.15
15 0.08
16 -0.15
17 0.28
2 -0.36
3 -0.53
32 0.15
33 0.15
34 0.15
37 0.45
7 0.06
9 0.42

>  <PUBCHEM_EFFECTIVE_ROTOR_COUNT>  (1) 
8

>  <PUBCHEM_PHARMACOPHORE_FEATURES>  (1) 
6
1 1 acceptor
1 11 hydrophobe
1 2 acceptor
1 3 donor
5 4 5 6 7 8 hydrophobe
6 10 12 13 14 15 16 rings

>  <PUBCHEM_HEAVY_ATOM_COUNT>  (1) 
18

>  <PUBCHEM_ATOM_DEF_STEREO_COUNT>  (1) 
0

>  <PUBCHEM_ATOM_UDEF_STEREO_COUNT>  (1) 
0

>  <PUBCHEM_BOND_DEF_STEREO_COUNT>  (1) 
0

>  <PUBCHEM_BOND_UDEF_STEREO_COUNT>  (1) 
0

>  <PUBCHEM_ISOTOPIC_ATOM_COUNT>  (1) 
0

>  <PUBCHEM_COMPONENT_COUNT>  (1) 
1

>  <PUBCHEM_CACTVS_TAUTO_COUNT>  (1) 
9

>  <PUBCHEM_CONFORMER_ID>  (1) 
000068C000000001

>  <PUBCHEM_MMFF94_ENERGY>  (1) 
37.8851

>  <PUBCHEM_FEATURE_SELFOVERLAP>  (1) 
30.446

>  <PUBCHEM_SHAPE_FINGERPRINT>  (1) 
10014705 185 18410296938412805318
10042902 136 13470103238544486485
10692045 39 16443613607130594112
11961588 58 18341604928108766183
12251169 10 13623535683806101926
12596602 18 15502662658729050228
12633257 1 14851613197443067742
12895836 83 18410287008954637511
13551218 46 12179832914664845040
13685833 64 10015865384051261932
13955234 65 17533494535054814275
14123256 34 8935010286992974596
14251732 14 16056595465318379381
14251764 18 13912613783390784270
14251764 30 11455896858150669596
14341114 176 11746937594733762934
14420673 8 12973868305275638920
14455015 7 10087639295061354628
14739800 52 17386271092015958957
14767858 380 17489866042228266229
14931854 50 17632588162658764648
15061688 2 18259706718119337814
15501527 24 17346599672897259460
17492 54 17632295683379138566
17959699 21 18341050731140451404
18222031 100 14692562204781960783
193927 3 13182729369096909175
19784866 240 11527946776886386303
20621476 21 12391504330360393893
20871999 31 17203611458691713683
21033648 29 17531253868096429350
21150785 3 18272644658996001797
212916 134 16370728136170215832
21403212 168 13623797346093200089
21452121 103 15864626159731408219
21618674 25 17240768345887499523
21637258 2 11743841343972274036
22765269 38 18409165532753671052
22926399 37 18201727257872557266
23016692 55 14692569914374922493
23402539 116 14923943496314316331
23559900 14 17130982230461479336
2838139 119 18333724719619556796
2916195 48 18186802499663597509
328317 168 18202291333587347564
351380 3 8214153928267394324
4072396 5 13045946776959291715
465052 167 8574424352935095116
474 4 18337963376105181860
495365 180 17168710713015862402
5104073 3 16081654353702984097
5207 217 18060139885662636702
5283384 27 18335133220132785540
532947 4 16772372131974006200
58807428 26 14129061404419378809
59682541 52 17774173314406881060

>  <PUBCHEM_SHAPE_MULTIPOLES>  (1) 
352.82
13.89
1.84
1.46
7.53
0.27
0.63
12.31
-5.88
1.44
-0.4
-0.85
0.06
0.52

>  <PUBCHEM_SHAPE_SELFOVERLAP>  (1) 
707.943

>  <PUBCHEM_SHAPE_VOLUME>  (1) 
207.8

>  <PUBCHEM_COORDINATE_TYPE>  (1) 
2
5
10

$$$$
