26813
     RDKit          3D

 23 25  0  0  1  0  0  0  0  0999 V2000
   -2.5756   -2.1020   -0.5340 S   0  0  0  0  0  0  0  0  0  0  0  0
   -1.1831    1.9954   -1.3148 O   0  0  0  0  0  0  0  0  0  0  0  0
   -3.7947    1.9985    1.3182 O   0  0  0  0  0  0  0  0  0  0  0  0
   -5.7149    1.5385    0.1793 O   0  0  0  0  0  0  0  0  0  0  0  0
    2.0517   -1.8372   -0.3450 O   0  0  0  0  0  0  0  0  0  0  0  0
   -2.2750    0.4073    0.0478 N   0  0  0  0  0  0  0  0  0  0  0  0
    0.8129   -0.0090    0.3681 N   0  0  0  0  0  0  0  0  0  0  0  0
    6.7119    0.5813   -0.6835 N   0  0  0  0  0  0  0  0  0  0  0  0
   -1.5636   -0.8442    0.3258 C   0  0  0  0  0  0  0  0  0  0  0  0
   -4.1243   -1.1145   -0.2310 C   0  0  0  0  0  0  0  0  0  0  0  0
   -3.6644    0.3536   -0.3725 C   0  0  0  0  0  0  0  0  0  0  0  0
   -0.3740   -0.2665   -0.4528 C   0  0  0  0  0  0  0  0  0  0  0  0
   -1.2607    0.9756   -0.6678 C   0  0  0  0  0  0  0  0  0  0  0  0
   -5.1657   -1.4835   -1.2894 C   0  0  0  0  0  0  0  0  0  0  0  0
   -4.6459   -1.4745    1.1677 C   0  0  0  0  0  0  0  0  0  0  0  0
   -4.5254    1.3454    0.3818 C   0  0  0  0  0  0  0  0  0  0  0  0
    1.9418   -0.8306    0.3504 C   0  0  0  0  0  0  0  0  0  0  0  0
    3.0216   -0.3381    1.2937 C   0  0  0  0  0  0  0  0  0  0  0  0
    4.3182   -0.0151    0.5992 C   0  0  0  0  0  0  0  0  0  0  0  0
    5.2773   -1.0004    0.4503 C   0  0  0  0  0  0  0  0  0  0  0  0
    4.5354    1.2632    0.1179 C   0  0  0  0  0  0  0  0  0  0  0  0
    6.4528   -0.6527   -0.1959 C   0  0  0  0  0  0  0  0  0  0  0  0
    5.7438    1.5096   -0.5136 C   0  0  0  0  0  0  0  0  0  0  0  0
  1  9  1  0
  1 10  1  0
  2 13  2  0
  3 16  1  0
  4 16  2  0
  5 17  2  0
  6  9  1  0
  6 11  1  0
  6 13  1  0
  7 12  1  0
  7 17  1  0
  8 22  2  0
  8 23  1  0
  9 12  1  0
 10 11  1  0
 10 14  1  0
 10 15  1  0
 11 16  1  0
 12 13  1  0
 17 18  1  0
 18 19  1  0
 19 20  2  0
 19 21  1  0
 20 22  1  0
 21 23  2  0
M  END
>  <PUBCHEM_COMPOUND_CID>  (1) 
26813

>  <PUBCHEM_CONFORMER_RMSD>  (1) 
0.8

>  <PUBCHEM_CONFORMER_DIVERSEORDER>  (1) 
11
134
1
103
146
84
48
10
97
45
90
52
92
142
132
144
65
96
138
120
62
105
74
122
123
140
3
82
29
39
126
60
59
116
14
107
44
9
64
110
21
61
69
104
85
41
80
35
49
71
145
13
28
136
118
98
58
108
137
54
22
75
24
12
115
15
67
7
127
43
46
87
68
135
147
109
77
143
38
125
117
73
114
2
19
53
66
26
20
47
121
81
88
94
37
124
130
89
128
102
112
16
55
113
131
79
86
106
42
70
32
4
51
27
93
50
36
119
31
5
18
56
95
111
133
57
33
34
141
72
40
100
63
83
78
6
30
76
8
25
91
17
129
99
23
139
101

>  <PUBCHEM_MMFF94_PARTIAL_CHARGES>  (1) 
27
1 -0.45
10 0.23
11 0.36
12 0.28
13 0.58
16 0.66
17 0.57
18 0.2
19 -0.14
2 -0.57
20 -0.15
21 -0.15
22 0.16
23 0.16
3 -0.65
33 0.37
34 0.5
37 0.15
38 0.15
39 0.15
4 -0.57
40 0.15
5 -0.57
6 -0.59
7 -0.65
8 -0.62
9 0.44

>  <PUBCHEM_EFFECTIVE_ROTOR_COUNT>  (1) 
5.8

>  <PUBCHEM_PHARMACOPHORE_FEATURES>  (1) 
11
1 2 acceptor
1 3 acceptor
1 4 acceptor
1 5 acceptor
1 7 donor
1 8 acceptor
3 10 14 15 hydrophobe
3 3 4 16 anion
4 6 9 12 13 rings
6 8 19 20 21 22 23 rings
7 1 6 9 10 11 12 13 rings

>  <PUBCHEM_HEAVY_ATOM_COUNT>  (1) 
23

>  <PUBCHEM_ATOM_DEF_STEREO_COUNT>  (1) 
0

>  <PUBCHEM_ATOM_UDEF_STEREO_COUNT>  (1) 
3

>  <PUBCHEM_BOND_DEF_STEREO_COUNT>  (1) 
0

>  <PUBCHEM_BOND_UDEF_STEREO_COUNT>  (1) 
0

>  <PUBCHEM_ISOTOPIC_ATOM_COUNT>  (1) 
0

>  <PUBCHEM_COMPONENT_COUNT>  (1) 
1

>  <PUBCHEM_CACTVS_TAUTO_COUNT>  (1) 
2

>  <PUBCHEM_CONFORMER_ID>  (1) 
000068BD0000000B

>  <PUBCHEM_MMFF94_ENERGY>  (1) 
60.5454

>  <PUBCHEM_FEATURE_SELFOVERLAP>  (1) 
59.619

>  <PUBCHEM_SHAPE_FINGERPRINT>  (1) 
10 15 18260274019291316409
10366900 7 18040148531044885576
10595046 47 18411698816202436682
106641 1 18041008341043984321
10912923 1 18261384534029160362
11315181 36 18334574672472797743
11524674 6 16917065576918846030
12107183 9 17763461712582599538
12236239 1 18333449850555267150
12390115 104 18060148609031235515
12596602 18 18040156210356707793
13583140 156 16486964094981040079
13631057 29 18042687376561527387
14251764 18 18410293619136094051
14341114 176 17894915092731256556
14341114 328 18186516588339039712
14528608 73 18409726296631710702
14840074 17 17749108906879096134
14933364 13 18409452492376978440
15183329 4 18060706070148483512
15250474 111 18337936949030115322
17844677 252 17989205979723809448
17980427 23 18408608071916037253
19489759 90 17775283863615362033
19784866 170 18408604734288668991
21236236 1 18412261744522675015
21267235 1 18337674221669384855
21424621 283 14274837886557451879
22061861 79 15841557366588538292
221357 26 18407757054517183804
2297311 6 17989209273810432441
23081809 10 18408879638202793762
23402539 116 17894909624589139718
23522609 53 18263949695016120100
23559900 14 17988915669993784211
3004659 81 18412825768888008858
34797466 226 17632024168732443236
4073 2 18186527617989714026
4214541 1 18342173366845548107
4325135 7 18412543232215684238
497634 4 18410289233336363581
5104073 3 18335133202873171880
542803 24 18260545623926628882
59755656 215 18202006491335730502

>  <PUBCHEM_SHAPE_MULTIPOLES>  (1) 
438.76
16.64
2.03
1.07
16.83
0.24
0.06
1.39
-0.6
-1.87
-0.13
-0.56
0.03
-1

>  <PUBCHEM_SHAPE_SELFOVERLAP>  (1) 
919.459

>  <PUBCHEM_SHAPE_VOLUME>  (1) 
250.8

>  <PUBCHEM_COORDINATE_TYPE>  (1) 
2
5
10

$$$$
