26814
     RDKit          3D

 13 13  0  0  0  0  0  0  0  0999 V2000
   -5.2547   -0.5164   -0.0004 I   0  0  0  0  0  0  0  0  0  0  0  0
    4.1740   -0.0111    1.4605 Cl  0  0  0  0  0  0  0  0  0  0  0  0
    4.1722   -0.0082   -1.4614 Cl  0  0  0  0  0  0  0  0  0  0  0  0
    1.8634   -1.4298   -0.0012 O   0  0  0  0  0  0  0  0  0  0  0  0
    0.8866    0.7082    0.0005 N   0  0  0  0  0  0  0  0  0  0  0  0
   -0.4816    0.4354    0.0003 C   0  0  0  0  0  0  0  0  0  0  0  0
   -1.4017    1.4837    0.0006 C   0  0  0  0  0  0  0  0  0  0  0  0
   -0.9293   -0.8857   -0.0001 C   0  0  0  0  0  0  0  0  0  0  0  0
   -2.7696    1.2109    0.0004 C   0  0  0  0  0  0  0  0  0  0  0  0
   -2.2973   -1.1586   -0.0003 C   0  0  0  0  0  0  0  0  0  0  0  0
    1.9534   -0.2043    0.0004 C   0  0  0  0  0  0  0  0  0  0  0  0
   -3.2175   -0.1102    0.0000 C   0  0  0  0  0  0  0  0  0  0  0  0
    3.3020    0.4864    0.0005 C   0  0  0  0  0  0  0  0  0  0  0  0
  1 12  1  0
  2 13  1  0
  3 13  1  0
  4 11  2  0
  5  6  1  0
  5 11  1  0
  6  7  2  0
  6  8  1  0
  7  9  1  0
  8 10  2  0
  9 12  2  0
 10 12  1  0
 11 13  1  0
M  END
>  <PUBCHEM_COMPOUND_CID>  (1) 
26814

>  <PUBCHEM_CONFORMER_RMSD>  (1) 
0.6

>  <PUBCHEM_CONFORMER_DIVERSEORDER>  (1) 
1
5
4
2
6
3

>  <PUBCHEM_MMFF94_PARTIAL_CHARGES>  (1) 
18
1 -0.08
10 -0.15
11 0.57
12 0.08
13 0.64
14 0.37
15 0.15
16 0.15
17 0.15
18 0.15
2 -0.29
3 -0.29
4 -0.57
5 -0.55
6 0.12
7 -0.15
8 -0.15
9 -0.15

>  <PUBCHEM_EFFECTIVE_ROTOR_COUNT>  (1) 
3

>  <PUBCHEM_PHARMACOPHORE_FEATURES>  (1) 
4
1 1 hydrophobe
1 4 acceptor
1 5 donor
6 6 7 8 9 10 12 rings

>  <PUBCHEM_HEAVY_ATOM_COUNT>  (1) 
13

>  <PUBCHEM_ATOM_DEF_STEREO_COUNT>  (1) 
0

>  <PUBCHEM_ATOM_UDEF_STEREO_COUNT>  (1) 
0

>  <PUBCHEM_BOND_DEF_STEREO_COUNT>  (1) 
0

>  <PUBCHEM_BOND_UDEF_STEREO_COUNT>  (1) 
0

>  <PUBCHEM_ISOTOPIC_ATOM_COUNT>  (1) 
0

>  <PUBCHEM_COMPONENT_COUNT>  (1) 
1

>  <PUBCHEM_CACTVS_TAUTO_COUNT>  (1) 
2

>  <PUBCHEM_CONFORMER_ID>  (1) 
000068BE00000001

>  <PUBCHEM_MMFF94_ENERGY>  (1) 
31.3717

>  <PUBCHEM_FEATURE_SELFOVERLAP>  (1) 
20.297

>  <PUBCHEM_SHAPE_FINGERPRINT>  (1) 
11132069 177 18273210923788579171
11401426 45 18341606028258398517
12932764 1 17560791113461622094
13296908 3 17775286054043473148
13690532 89 18186516614203749705
13862211 1 18410005577049373387
14123238 8 17894351094520919991
14144814 61 18409446960042421832
14252887 29 17775293763135288095
14325111 11 18338798910020643777
14993402 34 18040159530324261589
17834072 33 17023188270636809695
18186145 218 17846501387630235072
19026448 4 17060338513386137696
19026448 5 17022903440995248228
200 152 17846495946259903877
20279233 1 17989487429014904030
20510252 161 18130507436113894209
20645477 56 17632006528763597336
20645477 70 18271528585083490366
22485316 2 16343701053648385839
23048698 100 16660644055300109424
23402539 116 18342729733389493399
23402655 69 18339354176878881693
23557571 272 18272381836318868269
23559900 14 18271527503436825678
43471831 8 18335136432599569667
449060 50 17131825508455695792
474 4 16661787650741595044
5104073 3 18341331072535882235
5374978 207 18408598184463490976
69090 78 18131626807591292855

>  <PUBCHEM_SHAPE_MULTIPOLES>  (1) 
272.36
10.09
1.28
0.99
0.91
0.09
0
-1.2
0
0.64
0
-1.42
-0.04
0

>  <PUBCHEM_SHAPE_SELFOVERLAP>  (1) 
519.84

>  <PUBCHEM_SHAPE_VOLUME>  (1) 
171.4

>  <PUBCHEM_COORDINATE_TYPE>  (1) 
2
5
10

$$$$
