26820
     RDKit          3D

 15 16  0  0  0  0  0  0  0  0999 V2000
   -1.6332   -3.4189   -0.0001 I   0  0  0  0  0  0  0  0  0  0  0  0
   -4.7924    1.6985   -0.0003 I   0  0  0  0  0  0  0  0  0  0  0  0
    3.6565   -0.9969    0.0009 F   0  0  0  0  0  0  0  0  0  0  0  0
    3.5197    0.8760   -1.0844 F   0  0  0  0  0  0  0  0  0  0  0  0
    3.4974    0.8785    1.0900 F   0  0  0  0  0  0  0  0  0  0  0  0
    0.7392    1.2169   -0.0014 N   0  0  0  0  0  0  0  0  0  0  0  0
    0.8244   -1.0041    0.0001 N   0  0  0  0  0  0  0  0  0  0  0  0
   -0.5673    0.8005   -0.0011 C   0  0  0  0  0  0  0  0  0  0  0  0
   -0.4876   -0.5893   -0.0002 C   0  0  0  0  0  0  0  0  0  0  0  0
    1.5322    0.1033   -0.0010 C   0  0  0  0  0  0  0  0  0  0  0  0
   -1.7752    1.4990   -0.0014 C   0  0  0  0  0  0  0  0  0  0  0  0
   -1.6733   -1.3433    0.0005 C   0  0  0  0  0  0  0  0  0  0  0  0
    3.0028    0.2104   -0.0008 C   0  0  0  0  0  0  0  0  0  0  0  0
   -2.9454    0.7328   -0.0010 C   0  0  0  0  0  0  0  0  0  0  0  0
   -2.8977   -0.6633    0.0002 C   0  0  0  0  0  0  0  0  0  0  0  0
  1 12  1  0
  2 14  1  0
  3 13  1  0
  4 13  1  0
  5 13  1  0
  6  8  1  0
  6 10  1  0
  7  9  1  0
  7 10  2  0
  8  9  2  0
  8 11  1  0
  9 12  1  0
 10 13  1  0
 11 14  2  0
 12 15  2  0
 14 15  1  0
M  END
>  <PUBCHEM_COMPOUND_CID>  (1) 
26820

>  <PUBCHEM_CONFORMER_RMSD>  (1) 
0.4

>  <PUBCHEM_CONFORMER_DIVERSEORDER>  (1) 
1

>  <PUBCHEM_MMFF94_PARTIAL_CHARGES>  (1) 
18
1 -0.08
10 0.01
11 -0.15
12 0.08
13 1.2
14 0.08
15 -0.15
16 0.27
17 0.15
18 0.15
2 -0.08
3 -0.34
4 -0.34
5 -0.34
6 0.03
7 -0.57
8 -0.15
9 0.23

>  <PUBCHEM_EFFECTIVE_ROTOR_COUNT>  (1) 
1

>  <PUBCHEM_PHARMACOPHORE_FEATURES>  (1) 
6
1 1 hydrophobe
1 2 hydrophobe
1 6 donor
3 6 7 10 cation
5 6 7 8 9 10 rings
6 8 9 11 12 14 15 rings

>  <PUBCHEM_HEAVY_ATOM_COUNT>  (1) 
15

>  <PUBCHEM_ATOM_DEF_STEREO_COUNT>  (1) 
0

>  <PUBCHEM_ATOM_UDEF_STEREO_COUNT>  (1) 
0

>  <PUBCHEM_BOND_DEF_STEREO_COUNT>  (1) 
0

>  <PUBCHEM_BOND_UDEF_STEREO_COUNT>  (1) 
0

>  <PUBCHEM_ISOTOPIC_ATOM_COUNT>  (1) 
0

>  <PUBCHEM_COMPONENT_COUNT>  (1) 
1

>  <PUBCHEM_CACTVS_TAUTO_COUNT>  (1) 
2

>  <PUBCHEM_CONFORMER_ID>  (1) 
000068C400000001

>  <PUBCHEM_MMFF94_ENERGY>  (1) 
18.0775

>  <PUBCHEM_FEATURE_SELFOVERLAP>  (1) 
30.553

>  <PUBCHEM_SHAPE_FINGERPRINT>  (1) 
10608611 8 18343015631476111264
10967382 1 18338516309799489795
11132069 177 18409725162180355744
12173636 292 18410849924342936341
12500047 106 18412541028670406370
12553582 1 17689723377393433278
13380535 76 18341895152102722327
14178342 30 18265036106697685874
14325111 11 18410855455975788192
14897335 6 18339638950010576237
15042514 8 18336269032903209891
15309172 13 18339088090479757705
15669948 3 18336264651572142750
16945 1 18338797917809247943
18186145 218 18337953381041245957
193761 8 17906171003560071297
20279233 1 17847062185973677188
204376 136 18337395946564369217
20510252 161 18272653446066728569
20645476 183 18114481027293715607
20645477 56 18410290319836780857
20871998 184 18129104600784179175
212916 134 18198602402950533665
21501502 16 18119248608321887485
21524375 3 18270961216109166383
23402539 116 18271796905054940421
23402655 69 18198612239164808077
23463225 33 18334574595042210034
23557571 272 18128828606132509924
23558518 356 17972595768999999313
23559900 14 18343584045334515804
2748010 2 18265344914957011759
298252 57 18408884006337482411
3071541 12 17691408508438759405
3071541 37 18192434065699533199
3084891 72 18270116812485130875
3091708 16 9053073625043226059
366044 4 18410009897664699195
43471831 8 18264205825316626339
474229 33 18408888426264875131
5104073 3 18409446994338760056
53812653 166 18342170047105126609
54173680 148 18265897050161948955
69090 78 18412258415938786431
7364860 26 17979916004175496715
81228 2 18119798369011011091
81539 233 18190741926015665847
9709674 26 18271810141917715670

>  <PUBCHEM_SHAPE_MULTIPOLES>  (1) 
300.78
7.26
2.85
0.74
1.17
3.54
0
-4.53
0
-2.24
0
0.19
-0.06
0

>  <PUBCHEM_SHAPE_SELFOVERLAP>  (1) 
612.076

>  <PUBCHEM_SHAPE_VOLUME>  (1) 
182.8

>  <PUBCHEM_COORDINATE_TYPE>  (1) 
2
5
10

$$$$
