26837
     RDKit          3D

 22 24  0  0  1  0  0  0  0  0999 V2000
   -0.3668   -0.7573   -1.0655 O   0  0  0  0  0  0  0  0  0  0  0  0
   -3.3557    0.2760   -0.3764 O   0  0  0  0  0  0  0  0  0  0  0  0
   -2.4181   -0.7824    2.7139 N   0  0  0  0  0  0  0  0  0  0  0  0
    0.3901   -0.2584    0.0538 C   0  0  0  0  0  0  0  0  0  0  0  0
   -0.3998   -0.7321    1.3237 C   0  0  0  0  0  0  0  0  0  0  0  0
   -1.8820   -0.2824    1.4375 C   0  0  0  0  0  0  0  0  0  0  0  0
    0.5034    1.2693   -0.0311 C   0  0  0  0  0  0  0  0  0  0  0  0
    1.7987   -0.8753   -0.0526 C   0  0  0  0  0  0  0  0  0  0  0  0
   -2.7595   -0.7255    0.2795 C   0  0  0  0  0  0  0  0  0  0  0  0
    0.4355    1.8630   -1.2684 C   0  0  0  0  0  0  0  0  0  0  0  0
    2.5066   -1.0762    1.1035 C   0  0  0  0  0  0  0  0  0  0  0  0
    0.6684    1.9791    1.1336 C   0  0  0  0  0  0  0  0  0  0  0  0
    2.2741   -1.1922   -1.2984 C   0  0  0  0  0  0  0  0  0  0  0  0
   -3.0459   -1.9434   -0.2059 C   0  0  0  0  0  0  0  0  0  0  0  0
    0.5388    3.2519   -1.3455 C   0  0  0  0  0  0  0  0  0  0  0  0
    3.7814   -1.6342    1.0070 C   0  0  0  0  0  0  0  0  0  0  0  0
    0.7716    3.3681    1.0563 C   0  0  0  0  0  0  0  0  0  0  0  0
    3.5488   -1.7503   -1.3949 C   0  0  0  0  0  0  0  0  0  0  0  0
    0.7067    4.0044   -0.1832 C   0  0  0  0  0  0  0  0  0  0  0  0
    4.3025   -1.9714   -0.2422 C   0  0  0  0  0  0  0  0  0  0  0  0
   -3.9208   -1.6978   -1.2910 C   0  0  0  0  0  0  0  0  0  0  0  0
   -4.0778   -0.3328   -1.3536 C   0  0  0  0  0  0  0  0  0  0  0  0
  1  4  1  0
  2  9  1  0
  2 22  1  0
  3  6  1  0
  4  5  1  0
  4  7  1  0
  4  8  1  0
  5  6  1  0
  6  9  1  0
  7 10  2  0
  7 12  1  0
  8 11  2  0
  8 13  1  0
  9 14  2  0
 10 15  1  0
 11 16  1  0
 12 17  2  0
 13 18  2  0
 14 21  1  0
 15 19  2  0
 16 20  2  0
 17 19  1  0
 18 20  1  0
 21 22  2  0
M  END
>  <PUBCHEM_COMPOUND_CID>  (1) 
26837

>  <PUBCHEM_CONFORMER_RMSD>  (1) 
0.8

>  <PUBCHEM_CONFORMER_DIVERSEORDER>  (1) 
4
7
17
16
11
6
10
18
19
5
3
9
1
12
15
13
8
2
14

>  <PUBCHEM_MMFF94_PARTIAL_CHARGES>  (1) 
37
1 -0.68
10 -0.15
11 -0.15
12 -0.15
13 -0.15
14 -0.15
15 -0.15
16 -0.15
17 -0.15
18 -0.15
19 -0.15
2 -0.28
20 -0.15
21 -0.15
22 -0.01
26 0.4
27 0.15
28 0.15
29 0.15
3 -0.99
30 0.15
31 0.36
32 0.36
33 0.15
34 0.15
35 0.15
36 0.15
37 0.15
38 0.15
39 0.15
4 0.57
40 0.15
41 0.15
6 0.45
7 -0.14
8 -0.14
9 -0.04

>  <PUBCHEM_EFFECTIVE_ROTOR_COUNT>  (1) 
5

>  <PUBCHEM_PHARMACOPHORE_FEATURES>  (1) 
8
1 1 acceptor
1 1 donor
1 2 acceptor
1 3 cation
1 3 donor
5 2 9 14 21 22 rings
6 7 10 12 15 17 19 rings
6 8 11 13 16 18 20 rings

>  <PUBCHEM_HEAVY_ATOM_COUNT>  (1) 
22

>  <PUBCHEM_ATOM_DEF_STEREO_COUNT>  (1) 
0

>  <PUBCHEM_ATOM_UDEF_STEREO_COUNT>  (1) 
1

>  <PUBCHEM_BOND_DEF_STEREO_COUNT>  (1) 
0

>  <PUBCHEM_BOND_UDEF_STEREO_COUNT>  (1) 
0

>  <PUBCHEM_ISOTOPIC_ATOM_COUNT>  (1) 
0

>  <PUBCHEM_COMPONENT_COUNT>  (1) 
1

>  <PUBCHEM_CACTVS_TAUTO_COUNT>  (1) 
1

>  <PUBCHEM_CONFORMER_ID>  (1) 
000068D500000004

>  <PUBCHEM_MMFF94_ENERGY>  (1) 
63.6283

>  <PUBCHEM_FEATURE_SELFOVERLAP>  (1) 
40.596

>  <PUBCHEM_SHAPE_FINGERPRINT>  (1) 
10165383 225 16889533986342983349
11477941 20 17979110161590220196
11578080 2 17314812873342822453
12160290 23 17759256093612635288
12363563 72 18409729534568001806
12553582 1 18338535048726367826
12707595 3 18261683643936217035
12788726 201 17972314010692324314
13004483 165 18196081158047574210
13009979 54 17632031813352366851
13134695 92 18410007766791474701
13149001 5 18115031929742838163
133893 2 18194979645065005521
13681431 1 18337962280472082292
13899415 180 18266153128590519143
14181834 199 18270678804434128160
14251757 17 16588320417955168932
15309172 13 10519695670535506834
15849732 13 18057062219957893625
15906896 17 17684661926133136784
16752209 62 17970627385762724402
16945 1 18120675757424782056
17357779 13 18199732674912693116
17980427 23 17561084717589617689
1813 80 18342749493806450686
18186145 218 11241975884314015330
18981168 100 17024316442676186999
200 152 17822014151642304050
20197701 30 17550656051817034632
20600515 1 18341342127760771138
20671657 53 18412535518496715691
21304303 282 17108713516357864932
21524375 3 17475523153572866836
22112679 90 18052290369167881968
23419403 2 18049404211274817564
23526113 38 17968375748772304137
23557571 272 18268984281454842302
23559900 14 18265317581954185399
238 59 17975416024983588647
26353 1 18336837406967491500
5845 1 8496950517316197112
6049 1 17459763703520511227
6438718 38 17906474137561146369
6442390 28 17120024157870750752
6992083 37 17987253161168089451
70251023 43 18339645521464169602
7364860 26 18198057190906251533
7615 1 17774457099791250603
81228 2 18047202847224691824
9981440 41 17544182136053478785

>  <PUBCHEM_SHAPE_MULTIPOLES>  (1) 
436.03
6.63
3.85
1.82
1.68
5.47
-0.55
-7.15
1.54
-2
0.56
0.58
-0.17
0.02

>  <PUBCHEM_SHAPE_SELFOVERLAP>  (1) 
952.809

>  <PUBCHEM_SHAPE_VOLUME>  (1) 
236.6

>  <PUBCHEM_COORDINATE_TYPE>  (1) 
2
5
10

$$$$
