26839
     RDKit          3D

 10  9  0  0  1  0  0  0  0  0999 V2000
    2.0733    0.1712   -0.0035 C   0  0  0  0  0  0  0  0  0  0  0  0
    0.6558    0.5843    0.4895 C   0  0  0  0  0  0  0  0  0  0  0  0
   -0.5477   -0.1426   -0.1666 C   0  0  0  0  0  0  0  0  0  0  0  0
   -1.8836    0.4772    0.3019 C   0  0  0  0  0  0  0  0  0  0  0  0
    2.7025   -0.9187    0.8759 C   0  0  0  0  0  0  0  0  0  0  0  0
    2.0204   -0.3217   -1.4613 C   0  0  0  0  0  0  0  0  0  0  0  0
    2.9789    1.4189    0.0481 C   0  0  0  0  0  0  0  0  0  0  0  0
   -0.4914   -1.6368    0.1791 C   0  0  0  0  0  0  0  0  0  0  0  0
   -3.1119   -0.1534   -0.3608 C   0  0  0  0  0  0  0  0  0  0  0  0
   -4.3962    0.5216    0.0977 C   0  0  0  0  0  0  0  0  0  0  0  0
  1  2  1  0
  1  5  1  0
  1  6  1  0
  1  7  1  0
  2  3  1  0
  3  4  1  0
  3  8  1  0
  4  9  1  0
  9 10  1  0
M  END
>  <PUBCHEM_COMPOUND_CID>  (1) 
26839

>  <PUBCHEM_CONFORMER_RMSD>  (1) 
0.6

>  <PUBCHEM_CONFORMER_DIVERSEORDER>  (1) 
1
7
6
5
3
2
4

>  <PUBCHEM_MMFF94_PARTIAL_CHARGES>  (1) 
0

>  <PUBCHEM_EFFECTIVE_ROTOR_COUNT>  (1) 
4

>  <PUBCHEM_PHARMACOPHORE_FEATURES>  (1) 
4
1 10 hydrophobe
1 8 hydrophobe
4 1 5 6 7 hydrophobe
5 1 2 3 4 9 hydrophobe

>  <PUBCHEM_HEAVY_ATOM_COUNT>  (1) 
10

>  <PUBCHEM_ATOM_DEF_STEREO_COUNT>  (1) 
0

>  <PUBCHEM_ATOM_UDEF_STEREO_COUNT>  (1) 
1

>  <PUBCHEM_BOND_DEF_STEREO_COUNT>  (1) 
0

>  <PUBCHEM_BOND_UDEF_STEREO_COUNT>  (1) 
0

>  <PUBCHEM_ISOTOPIC_ATOM_COUNT>  (1) 
0

>  <PUBCHEM_COMPONENT_COUNT>  (1) 
1

>  <PUBCHEM_CACTVS_TAUTO_COUNT>  (1) 
1

>  <PUBCHEM_CONFORMER_ID>  (1) 
000068D700000001

>  <PUBCHEM_MMFF94_ENERGY>  (1) 
23.4677

>  <PUBCHEM_FEATURE_SELFOVERLAP>  (1) 
20.657

>  <PUBCHEM_SHAPE_FINGERPRINT>  (1) 
10219947 1 17967251979622875525
11062470 55 13470683750481309531
12932764 1 18187363229361474415
14325111 11 18409447003297906889
14344429 50 18408322172932924956
15775835 57 18333449867339484443
18186145 218 18412547595976179837
190213 19 16877661262507548949
20201158 50 17846503638092793422
20279233 1 16128649760784409631
20645477 70 17274830103835346487
21028194 46 18113335280448180911
21293036 1 18343866645080974573
23235685 24 18131066060692168196
23402539 116 18201144512209315916
23402655 69 17846781793381881805
3248919 1 17775570835976151187

>  <PUBCHEM_SHAPE_MULTIPOLES>  (1) 
205.8
6.43
1.27
0.96
5.85
0.19
-0.23
-1.54
0.05
-0.57
0.14
-0.59
0.13
-0.14

>  <PUBCHEM_SHAPE_SELFOVERLAP>  (1) 
370.728

>  <PUBCHEM_SHAPE_VOLUME>  (1) 
136.5

>  <PUBCHEM_COORDINATE_TYPE>  (1) 
2
5
10

$$$$
