26836
     RDKit          3D

 18 19  0  0  0  0  0  0  0  0999 V2000
    6.5501   -0.4592   -0.1829 Cl  0  0  0  0  0  0  0  0  0  0  0  0
   -1.2772    0.7901    0.9295 O   0  0  0  0  0  0  0  0  0  0  0  0
   -3.7767   -0.1119    0.0409 N   0  0  0  0  0  0  0  0  0  0  0  0
    0.0755    0.6967    1.2337 N   0  0  0  0  0  0  0  0  0  0  0  0
   -2.8449    0.5432   -0.8763 C   0  0  0  0  0  0  0  0  0  0  0  0
   -3.4181   -1.5189    0.2154 C   0  0  0  0  0  0  0  0  0  0  0  0
   -5.1485    0.0088   -0.4516 C   0  0  0  0  0  0  0  0  0  0  0  0
   -1.4283    0.4905   -0.3692 C   0  0  0  0  0  0  0  0  0  0  0  0
   -4.3765   -2.2159    1.1661 C   0  0  0  0  0  0  0  0  0  0  0  0
   -5.5593    1.4658   -0.5805 C   0  0  0  0  0  0  0  0  0  0  0  0
   -0.2583    0.1997   -0.9637 C   0  0  0  0  0  0  0  0  0  0  0  0
    0.6638    0.3428    0.0876 C   0  0  0  0  0  0  0  0  0  0  0  0
    2.0877    0.1495    0.0215 C   0  0  0  0  0  0  0  0  0  0  0  0
    2.6236   -0.7653   -0.8829 C   0  0  0  0  0  0  0  0  0  0  0  0
    2.9276    0.8767    0.8631 C   0  0  0  0  0  0  0  0  0  0  0  0
    4.0042   -0.9539   -0.9459 C   0  0  0  0  0  0  0  0  0  0  0  0
    4.3083    0.6883    0.7999 C   0  0  0  0  0  0  0  0  0  0  0  0
    4.8468   -0.2270   -0.1047 C   0  0  0  0  0  0  0  0  0  0  0  0
  1 18  1  0
  2  4  1  0
  2  8  1  0
  3  5  1  0
  3  6  1  0
  3  7  1  0
  4 12  2  0
  5  8  1  0
  6  9  1  0
  7 10  1  0
  8 11  2  0
 11 12  1  0
 12 13  1  0
 13 14  2  0
 13 15  1  0
 14 16  1  0
 15 17  2  0
 16 18  2  0
 17 18  1  0
M  END
>  <PUBCHEM_COMPOUND_CID>  (1) 
26836

>  <PUBCHEM_CONFORMER_RMSD>  (1) 
0.6

>  <PUBCHEM_CONFORMER_DIVERSEORDER>  (1) 
1
32
44
41
13
46
42
28
18
39
2
17
23
24
38
34
30
36
37
31
33
19
15
35
45
7
20
4
26
29
43
21
3
16
8
11
40
14
22
5
9
10
6
25
12
27

>  <PUBCHEM_MMFF94_PARTIAL_CHARGES>  (1) 
21
1 -0.18
11 -0.15
12 0.23
13 0.05
14 -0.15
15 -0.15
16 -0.15
17 -0.15
18 0.18
2 -0.02
3 -0.81
31 0.15
32 0.15
33 0.15
34 0.15
35 0.15
4 -0.41
5 0.45
6 0.27
7 0.27
8 -0.04

>  <PUBCHEM_EFFECTIVE_ROTOR_COUNT>  (1) 
5

>  <PUBCHEM_PHARMACOPHORE_FEATURES>  (1) 
4
1 3 cation
1 4 acceptor
5 2 4 8 11 12 rings
6 13 14 15 16 17 18 rings

>  <PUBCHEM_HEAVY_ATOM_COUNT>  (1) 
18

>  <PUBCHEM_ATOM_DEF_STEREO_COUNT>  (1) 
0

>  <PUBCHEM_ATOM_UDEF_STEREO_COUNT>  (1) 
0

>  <PUBCHEM_BOND_DEF_STEREO_COUNT>  (1) 
0

>  <PUBCHEM_BOND_UDEF_STEREO_COUNT>  (1) 
0

>  <PUBCHEM_ISOTOPIC_ATOM_COUNT>  (1) 
0

>  <PUBCHEM_COMPONENT_COUNT>  (1) 
1

>  <PUBCHEM_CACTVS_TAUTO_COUNT>  (1) 
1

>  <PUBCHEM_CONFORMER_ID>  (1) 
000068D400000001

>  <PUBCHEM_MMFF94_ENERGY>  (1) 
32.6319

>  <PUBCHEM_FEATURE_SELFOVERLAP>  (1) 
20.297

>  <PUBCHEM_SHAPE_FINGERPRINT>  (1) 
11045977 3 18342736355427333866
11089746 13 14476956792037450994
11128504 68 16298391291985728790
11287383 113 18334858355041742444
11315181 36 17917711305658849545
11796584 16 18335421248981682794
12236239 1 16298103172668107284
124424 183 17989486325514270477
12616971 3 15936413346649164423
12670546 56 14908178655249549875
12916748 109 11239998975170252597
13288520 33 18186522129084364415
13533116 47 18267297647745442898
13675066 3 18272368711035604085
13760787 5 16988843903571835169
1420 363 18202288004861300646
14251764 18 17203612584484854761
14252887 29 16917076538281500502
14386348 63 18343303673505140767
15242439 84 18413385428036553821
15375358 24 18273213093195528287
15788980 27 18202279225557731557
17349148 13 15357690894669289920
17834072 33 17313106371557141268
17844677 252 18408891762626704705
18186145 218 14635151273830584119
19489759 90 18413105040124542429
200 152 17132111321133051801
20645477 70 17489305235405406206
20681677 155 18040713650331285369
21054139 6 17023183881359997650
21267235 1 17275109414654837660
220451 1 17385441003617420410
23035841 295 17967531259449356802
23402539 116 16515402971316998766
23402655 69 15213287613035197231
23536379 177 17967532346371462252
23557571 272 18338233765223377388
23559900 14 18410852170352219704
26918003 58 18272931622096942874
29717793 49 16588308255304410662
300161 21 16588018021981820813
5283173 99 18200028426751689841
542803 24 16442782410098333508
54446538 1 12175616287319129418
59755656 215 18336546006416395902
602551 16 18113898324733108306
7495541 125 18336829783964847964

>  <PUBCHEM_SHAPE_MULTIPOLES>  (1) 
356.47
14.19
1.41
1.1
2.49
0.66
-0.08
1.68
0.92
-2.13
-0.27
0.16
0.02
1.51

>  <PUBCHEM_SHAPE_SELFOVERLAP>  (1) 
737.785

>  <PUBCHEM_SHAPE_VOLUME>  (1) 
207.3

>  <PUBCHEM_COORDINATE_TYPE>  (1) 
2
5
10

$$$$
