26832
     RDKit          3D

 19 21  0  0  1  0  0  0  0  0999 V2000
   -0.0936   -1.5930   -1.1798 O   0  0  0  0  0  0  0  0  0  0  0  0
   -2.7849   -0.0924    0.3087 N   0  0  0  0  0  0  0  0  0  0  0  0
    1.2458   -1.2456   -1.3066 N   0  0  0  0  0  0  0  0  0  0  0  0
   -4.1940   -0.3886    0.6031 C   0  0  0  0  0  0  0  0  0  0  0  0
   -2.6508    0.6537   -0.9503 C   0  0  0  0  0  0  0  0  0  0  0  0
   -5.0176    0.8959    0.7090 C   0  0  0  0  0  0  0  0  0  0  0  0
   -3.4239    1.9721   -0.8954 C   0  0  0  0  0  0  0  0  0  0  0  0
   -4.8915    1.7408   -0.5534 C   0  0  0  0  0  0  0  0  0  0  0  0
   -2.0024   -1.3272    0.2575 C   0  0  0  0  0  0  0  0  0  0  0  0
   -0.5437   -1.0473   -0.0452 C   0  0  0  0  0  0  0  0  0  0  0  0
   -2.1715   -2.1012    1.5668 C   0  0  0  0  0  0  0  0  0  0  0  0
    0.3947   -0.3537    0.6082 C   0  0  0  0  0  0  0  0  0  0  0  0
    1.5148   -0.5055   -0.2273 C   0  0  0  0  0  0  0  0  0  0  0  0
    2.8299    0.0384   -0.0182 C   0  0  0  0  0  0  0  0  0  0  0  0
    2.9834    1.2388    0.6729 C   0  0  0  0  0  0  0  0  0  0  0  0
    3.9467   -0.6363   -0.5074 C   0  0  0  0  0  0  0  0  0  0  0  0
    4.2587    1.7665    0.8754 C   0  0  0  0  0  0  0  0  0  0  0  0
    5.2220   -0.1086   -0.3047 C   0  0  0  0  0  0  0  0  0  0  0  0
    5.3778    1.0929    0.3867 C   0  0  0  0  0  0  0  0  0  0  0  0
  1  3  1  0
  1 10  1  0
  2  4  1  0
  2  5  1  0
  2  9  1  0
  3 13  2  0
  4  6  1  0
  5  7  1  0
  6  8  1  0
  7  8  1  0
  9 10  1  0
  9 11  1  0
 10 12  2  0
 12 13  1  0
 13 14  1  0
 14 15  2  0
 14 16  1  0
 15 17  1  0
 16 18  2  0
 17 19  2  0
 18 19  1  0
M  END
>  <PUBCHEM_COMPOUND_CID>  (1) 
26832

>  <PUBCHEM_CONFORMER_RMSD>  (1) 
0.6

>  <PUBCHEM_CONFORMER_DIVERSEORDER>  (1) 
1
46
49
51
38
58
33
45
61
57
13
35
23
31
54
52
22
53
40
34
21
29
62
32
60
26
30
56
28
11
48
44
25
5
27
37
3
43
8
41
47
42
17
59
6
14
50
7
39
20
18
24
4
19
15
16
36
9
55
2
12
10

>  <PUBCHEM_MMFF94_PARTIAL_CHARGES>  (1) 
21
1 -0.02
10 -0.04
12 -0.15
13 0.23
14 0.05
15 -0.15
16 -0.15
17 -0.15
18 -0.15
19 -0.15
2 -0.81
3 -0.41
34 0.15
35 0.15
36 0.15
37 0.15
38 0.15
39 0.15
4 0.27
5 0.27
9 0.45

>  <PUBCHEM_EFFECTIVE_ROTOR_COUNT>  (1) 
4.2

>  <PUBCHEM_PHARMACOPHORE_FEATURES>  (1) 
5
1 2 cation
1 3 acceptor
5 1 3 10 12 13 rings
6 14 15 16 17 18 19 rings
6 2 4 5 6 7 8 rings

>  <PUBCHEM_HEAVY_ATOM_COUNT>  (1) 
19

>  <PUBCHEM_ATOM_DEF_STEREO_COUNT>  (1) 
0

>  <PUBCHEM_ATOM_UDEF_STEREO_COUNT>  (1) 
1

>  <PUBCHEM_BOND_DEF_STEREO_COUNT>  (1) 
0

>  <PUBCHEM_BOND_UDEF_STEREO_COUNT>  (1) 
0

>  <PUBCHEM_ISOTOPIC_ATOM_COUNT>  (1) 
0

>  <PUBCHEM_COMPONENT_COUNT>  (1) 
1

>  <PUBCHEM_CACTVS_TAUTO_COUNT>  (1) 
1

>  <PUBCHEM_CONFORMER_ID>  (1) 
000068D000000001

>  <PUBCHEM_MMFF94_ENERGY>  (1) 
31.0545

>  <PUBCHEM_FEATURE_SELFOVERLAP>  (1) 
25.373

>  <PUBCHEM_SHAPE_FINGERPRINT>  (1) 
10014705 185 18271805756523542778
10646746 165 18333452040883028084
11089746 13 18343011199496733226
11128504 68 14979952601268253392
11405975 8 18333726936254944634
11595378 159 16950834821808270852
12236239 1 15863793906374589679
12403259 118 18265326395142394968
12403259 415 18412833485899539934
12507560 40 18410014381447266250
12596602 18 15792022193971410773
12633257 1 17386004004878522564
12670546 177 12175620707014264746
12670546 56 18113607993465111954
12892183 10 17385722457108816659
12969540 114 17989194949941714452
13103583 49 13912612606765268549
13402501 40 18411979148396645393
13583140 156 18339366361216239018
13675066 3 18338239370624709410
13914758 101 14418124107591056263
14123255 352 18410571769191237941
14178342 30 17603874441530785371
14251764 38 18413113861502701952
14252887 29 13912317959123516776
15188451 53 15936981846396392033
15209294 21 17676483943139454595
15375462 189 14129055945990607814
17349148 13 16056602041098055614
1813 80 14129061370397704702
18186145 218 17918277575664045686
193927 3 10737279104935522400
19862831 5 15339115740966277835
200 152 15841552963656229123
20374829 77 10807929354244377749
20645477 56 18335141981654585127
20645477 70 17775294837520970086
21033648 29 18271798073207021352
212916 134 18040148513532778275
221490 88 9007053578509939646
22224240 67 18261683597798859417
231179 274 18343022185880807534
23402539 116 18259981591884224143
23402655 69 17489868223966111764
23557571 272 18335714861572485839
23559900 14 18188221896620107102
2838139 119 18271235049933447317
2916195 48 18409728444010143009
314194 84 12396301478006357960
351380 180 18412824685569735080
3545911 37 18409735053732456146
4028521 119 18341891870473447009
4259306 186 8574712390548111265
4325135 7 17917427662240521831
465052 167 12612757904245195688
5104073 3 18115030693350926363
59682541 35 18261685818434354969
59755656 520 18259980466545114399
633830 44 18334851771110130790
90127 26 18337677524525187242

>  <PUBCHEM_SHAPE_MULTIPOLES>  (1) 
375.18
12.16
1.99
1.14
3.69
0.12
0
6.5
1.3
-1.35
0.16
-0.22
-0.2
1.7

>  <PUBCHEM_SHAPE_SELFOVERLAP>  (1) 
800.386

>  <PUBCHEM_SHAPE_VOLUME>  (1) 
210.6

>  <PUBCHEM_COORDINATE_TYPE>  (1) 
2
5
10

$$$$
