26841
     RDKit          3D

 28 29  0  0  0  0  0  0  0  0999 V2000
    1.3643   -1.3051    1.7191 O   0  0  0  0  0  0  0  0  0  0  0  0
    0.3720   -2.7936    0.2712 O   0  0  0  0  0  0  0  0  0  0  0  0
   -1.0455    4.4401    0.5378 N   0  0  0  0  0  0  0  0  0  0  0  0
    5.3071    0.4640   -0.8135 N   0  0  0  0  0  0  0  0  0  0  0  0
    0.3350   -0.3887   -0.2425 C   0  0  0  0  0  0  0  0  0  0  0  0
    0.1205    0.8076    0.7439 C   0  0  0  0  0  0  0  0  0  0  0  0
    1.5574   -0.1263   -1.1847 C   0  0  0  0  0  0  0  0  0  0  0  0
   -0.9866   -0.6533   -1.0018 C   0  0  0  0  0  0  0  0  0  0  0  0
   -0.3530    2.1165    0.0933 C   0  0  0  0  0  0  0  0  0  0  0  0
    2.9060    0.0900   -0.4771 C   0  0  0  0  0  0  0  0  0  0  0  0
    0.6786   -1.6499    0.5863 C   0  0  0  0  0  0  0  0  0  0  0  0
   -2.1427   -0.9384   -0.3065 C   0  0  0  0  0  0  0  0  0  0  0  0
   -0.6128    3.1897    1.1528 C   0  0  0  0  0  0  0  0  0  0  0  0
    4.0361    0.2514   -1.4959 C   0  0  0  0  0  0  0  0  0  0  0  0
   -0.9057   -0.5815   -2.3709 C   0  0  0  0  0  0  0  0  0  0  0  0
   -3.3184   -1.1706   -1.0594 C   0  0  0  0  0  0  0  0  0  0  0  0
   -2.0619   -0.8095   -3.1111 C   0  0  0  0  0  0  0  0  0  0  0  0
   -2.2002   -1.0064    1.0951 C   0  0  0  0  0  0  0  0  0  0  0  0
   -3.2612   -1.1023   -2.4611 C   0  0  0  0  0  0  0  0  0  0  0  0
   -4.5168   -1.4640   -0.3885 C   0  0  0  0  0  0  0  0  0  0  0  0
    1.7331   -2.3911    2.5746 C   0  0  0  0  0  0  0  0  0  0  0  0
   -3.3994   -1.2995    1.7449 C   0  0  0  0  0  0  0  0  0  0  0  0
   -1.2544    5.4695    1.5571 C   0  0  0  0  0  0  0  0  0  0  0  0
   -2.2704    4.2358   -0.2367 C   0  0  0  0  0  0  0  0  0  0  0  0
    5.6068   -0.6570    0.0790 C   0  0  0  0  0  0  0  0  0  0  0  0
    6.3889    0.6440   -1.7832 C   0  0  0  0  0  0  0  0  0  0  0  0
   -4.5555   -1.5279    1.0046 C   0  0  0  0  0  0  0  0  0  0  0  0
    2.4787   -1.8436    3.7730 C   0  0  0  0  0  0  0  0  0  0  0  0
  1 11  1  0
  1 21  1  0
  2 11  2  0
  3 13  1  0
  3 23  1  0
  3 24  1  0
  4 14  1  0
  4 25  1  0
  4 26  1  0
  5  6  1  0
  5  7  1  0
  5  8  1  0
  5 11  1  0
  6  9  1  0
  7 10  1  0
  8 12  2  0
  8 15  1  0
  9 13  1  0
 10 14  1  0
 12 16  1  0
 12 18  1  0
 15 17  2  0
 16 19  2  0
 16 20  1  0
 17 19  1  0
 18 22  2  0
 20 27  2  0
 21 28  1  0
 22 27  1  0
M  END
>  <PUBCHEM_COMPOUND_CID>  (1) 
26841

>  <PUBCHEM_CONFORMER_RMSD>  (1) 
1

>  <PUBCHEM_CONFORMER_DIVERSEORDER>  (1) 
1
35
12
31
36
37
39
41
45
7
19
17
29
38
24
4
2
46
30
21
43
42
23
33
16
34
44
9
10
22
26
25
18
32
5
11
20
14
40
47
8
27
3
28
13
15
6

>  <PUBCHEM_MMFF94_PARTIAL_CHARGES>  (1) 
28
1 -0.43
11 0.66
13 0.27
14 0.27
15 -0.15
17 -0.15
18 -0.15
19 -0.15
2 -0.57
20 -0.15
21 0.28
22 -0.15
23 0.27
24 0.27
25 0.27
26 0.27
27 -0.15
3 -0.81
4 -0.81
41 0.15
42 0.15
43 0.15
44 0.15
45 0.15
48 0.15
5 0.2
61 0.15
8 -0.14

>  <PUBCHEM_EFFECTIVE_ROTOR_COUNT>  (1) 
12

>  <PUBCHEM_PHARMACOPHORE_FEATURES>  (1) 
6
1 2 acceptor
1 3 cation
1 4 cation
5 5 6 7 9 10 hydrophobe
6 12 16 18 20 22 27 rings
6 8 12 15 16 17 19 rings

>  <PUBCHEM_HEAVY_ATOM_COUNT>  (1) 
28

>  <PUBCHEM_ATOM_DEF_STEREO_COUNT>  (1) 
0

>  <PUBCHEM_ATOM_UDEF_STEREO_COUNT>  (1) 
0

>  <PUBCHEM_BOND_DEF_STEREO_COUNT>  (1) 
0

>  <PUBCHEM_BOND_UDEF_STEREO_COUNT>  (1) 
0

>  <PUBCHEM_ISOTOPIC_ATOM_COUNT>  (1) 
0

>  <PUBCHEM_COMPONENT_COUNT>  (1) 
1

>  <PUBCHEM_CACTVS_TAUTO_COUNT>  (1) 
1

>  <PUBCHEM_CONFORMER_ID>  (1) 
000068D900000001

>  <PUBCHEM_MMFF94_ENERGY>  (1) 
94.6025

>  <PUBCHEM_FEATURE_SELFOVERLAP>  (1) 
30.473

>  <PUBCHEM_SHAPE_FINGERPRINT>  (1) 
11421498 54 18335425655443724106
11578080 2 17168422632526513391
11582403 64 15736645102413248079
11763715 3 17981565434678368178
12058002 1 17464022030023520718
12160290 23 17983273959773336673
12592029 89 16805311198577372258
12788726 201 18266729200128062737
133893 2 17622127559081080857
13911987 19 18261681483957908294
14028597 1 18186809058263281864
14955137 171 18198634426189983055
15238133 3 18121472723483069901
1813 80 18059570347282111228
20587220 46 15113586282615739789
20691752 17 17916848227649139438
23419403 2 17758691326613656707
23558518 356 18044681744693404926
23559900 14 16371279060394946855
23598288 3 18198059166754672930
266924 1 18188485753555884754
283562 15 18336839623318159256
513202 73 18056780761834225518
5171179 24 17988352784181016721
57527306 92 18129681767384799187
57527585 103 12902410966485274263
6086070 43 18339345475544418767

>  <PUBCHEM_SHAPE_MULTIPOLES>  (1) 
554.53
9.13
4.69
3
13.29
11.06
0.76
-3.26
-3.63
-3.78
3.44
0.62
-1.92
-2.11

>  <PUBCHEM_SHAPE_SELFOVERLAP>  (1) 
1141.237

>  <PUBCHEM_SHAPE_VOLUME>  (1) 
321.1

>  <PUBCHEM_COORDINATE_TYPE>  (1) 
2
5
10

$$$$
