26843
     RDKit          3D

 11 12  0  0  0  0  0  0  0  0999 V2000
    0.6450    1.8396    0.0000 N   0  0  0  0  0  0  0  0  0  0  0  0
    1.9657    1.4809    0.0001 N   0  0  0  0  0  0  0  0  0  0  0  0
   -0.0020   -0.4614    0.0000 C   0  0  0  0  0  0  0  0  0  0  0  0
    1.3453   -0.8229   -0.0001 C   0  0  0  0  0  0  0  0  0  0  0  0
   -0.3226    0.9070    0.0000 C   0  0  0  0  0  0  0  0  0  0  0  0
   -1.0231   -1.4267    0.0002 C   0  0  0  0  0  0  0  0  0  0  0  0
   -1.6661    1.2727   -0.0002 C   0  0  0  0  0  0  0  0  0  0  0  0
    1.8069   -2.2427   -0.0001 C   0  0  0  0  0  0  0  0  0  0  0  0
    2.2927    0.1775    0.0000 C   0  0  0  0  0  0  0  0  0  0  0  0
   -2.3600   -1.0379    0.0001 C   0  0  0  0  0  0  0  0  0  0  0  0
   -2.6817    0.3140   -0.0001 C   0  0  0  0  0  0  0  0  0  0  0  0
  1  2  2  0
  1  5  1  0
  2  9  1  0
  3  4  1  0
  3  5  2  0
  3  6  1  0
  4  8  1  0
  4  9  2  0
  5  7  1  0
  6 10  2  0
  7 11  2  0
 10 11  1  0
M  END
>  <PUBCHEM_COMPOUND_CID>  (1) 
26843

>  <PUBCHEM_CONFORMER_RMSD>  (1) 
0.4

>  <PUBCHEM_CONFORMER_DIVERSEORDER>  (1) 
1

>  <PUBCHEM_MMFF94_PARTIAL_CHARGES>  (1) 
15
1 -0.31
10 -0.15
11 -0.15
12 0.15
13 0.15
17 0.15
18 0.15
19 0.15
2 -0.31
4 -0.14
5 0.31
6 -0.15
7 -0.15
8 0.14
9 0.16

>  <PUBCHEM_EFFECTIVE_ROTOR_COUNT>  (1) 
0

>  <PUBCHEM_PHARMACOPHORE_FEATURES>  (1) 
2
6 1 2 3 4 5 9 rings
6 3 5 6 7 10 11 rings

>  <PUBCHEM_HEAVY_ATOM_COUNT>  (1) 
11

>  <PUBCHEM_ATOM_DEF_STEREO_COUNT>  (1) 
0

>  <PUBCHEM_ATOM_UDEF_STEREO_COUNT>  (1) 
0

>  <PUBCHEM_BOND_DEF_STEREO_COUNT>  (1) 
0

>  <PUBCHEM_BOND_UDEF_STEREO_COUNT>  (1) 
0

>  <PUBCHEM_ISOTOPIC_ATOM_COUNT>  (1) 
0

>  <PUBCHEM_COMPONENT_COUNT>  (1) 
1

>  <PUBCHEM_CACTVS_TAUTO_COUNT>  (1) 
1

>  <PUBCHEM_CONFORMER_ID>  (1) 
000068DB00000001

>  <PUBCHEM_MMFF94_ENERGY>  (1) 
33.7452

>  <PUBCHEM_FEATURE_SELFOVERLAP>  (1) 
10.18

>  <PUBCHEM_SHAPE_FINGERPRINT>  (1) 
12423570 1 17967532397710921725
12524768 44 18339362967964935711
12897270 3 18338236071541044087
16945 1 18410856594131448709
17990270 104 18410572864196888778
18185500 45 18411136935126107887
193761 8 18338797793107665700
19973954 147 18410857633566242907
20201158 50 18409443691604048871
21040471 1 17834114530170971520
23402655 69 18341035355991040645
23552423 10 18335143098066526807
23559900 14 17477482003065095398
241688 4 18049724018601925992
2748010 2 18266175024328330647
5084963 1 17986399007883674914
528886 8 18267017443477073897
63268167 104 18410858720187804681
66348 1 18411420579061205615
7364860 26 18343580720655340842

>  <PUBCHEM_SHAPE_MULTIPOLES>  (1) 
216.41
3.48
2.09
0.6
0.6
0.14
0
0.38
0
-0.71
0
0.02
0.03
0

>  <PUBCHEM_SHAPE_SELFOVERLAP>  (1) 
472.779

>  <PUBCHEM_SHAPE_VOLUME>  (1) 
117.4

>  <PUBCHEM_COORDINATE_TYPE>  (1) 
2
5
10

$$$$
