26850
     RDKit          3D

 18 19  0  0  0  0  0  0  0  0999 V2000
    0.0499   -1.4260    1.0570 O   0  0  0  0  0  0  0  0  0  0  0  0
    4.1559    0.0213   -0.0550 N   0  0  0  0  0  0  0  0  0  0  0  0
   -1.3144   -1.5038    0.8049 N   0  0  0  0  0  0  0  0  0  0  0  0
   -3.2440    1.2713   -0.4136 N   0  0  0  0  0  0  0  0  0  0  0  0
    2.7305   -0.2176   -0.2791 C   0  0  0  0  0  0  0  0  0  0  0  0
    1.9178    0.0857    0.9812 C   0  0  0  0  0  0  0  0  0  0  0  0
    4.3884    1.4176    0.3123 C   0  0  0  0  0  0  0  0  0  0  0  0
    4.9266   -0.3288   -1.2475 C   0  0  0  0  0  0  0  0  0  0  0  0
    0.4484   -0.1804    0.7652 C   0  0  0  0  0  0  0  0  0  0  0  0
    5.8321    1.6693    0.6046 C   0  0  0  0  0  0  0  0  0  0  0  0
    4.7030   -1.7531   -1.6403 C   0  0  0  0  0  0  0  0  0  0  0  0
   -0.5596    0.5919    0.3308 C   0  0  0  0  0  0  0  0  0  0  0  0
   -1.6559   -0.2867    0.3722 C   0  0  0  0  0  0  0  0  0  0  0  0
   -3.0160    0.0095    0.0096 C   0  0  0  0  0  0  0  0  0  0  0  0
   -3.9902   -0.9686    0.1070 C   0  0  0  0  0  0  0  0  0  0  0  0
   -5.2886   -0.6281   -0.2555 C   0  0  0  0  0  0  0  0  0  0  0  0
   -4.5180    1.5654   -0.7571 C   0  0  0  0  0  0  0  0  0  0  0  0
   -5.5659    0.6611   -0.6968 C   0  0  0  0  0  0  0  0  0  0  0  0
  1  3  1  0
  1  9  1  0
  2  5  1  0
  2  7  1  0
  2  8  1  0
  3 13  2  0
  4 14  2  0
  4 17  1  0
  5  6  1  0
  6  9  1  0
  7 10  1  0
  8 11  1  0
  9 12  2  0
 12 13  1  0
 13 14  1  0
 14 15  1  0
 15 16  2  0
 16 18  1  0
 17 18  2  0
M  END
>  <PUBCHEM_COMPOUND_CID>  (1) 
26850

>  <PUBCHEM_CONFORMER_RMSD>  (1) 
0.8

>  <PUBCHEM_CONFORMER_DIVERSEORDER>  (1) 
1
11
25
32
35
29
18
21
12
36
9
22
10
38
17
31
3
30
24
27
34
6
40
44
14
15
41
8
26
33
39
43
16
13
37
42
20
19
4
28
7
23
2
5

>  <PUBCHEM_MMFF94_PARTIAL_CHARGES>  (1) 
21
1 -0.02
12 -0.15
13 0.23
14 0.36
15 -0.15
16 -0.15
17 0.16
18 -0.15
2 -0.81
3 -0.41
33 0.15
34 0.15
35 0.15
36 0.15
37 0.15
4 -0.62
5 0.27
6 0.18
7 0.27
8 0.27
9 -0.04

>  <PUBCHEM_EFFECTIVE_ROTOR_COUNT>  (1) 
6

>  <PUBCHEM_PHARMACOPHORE_FEATURES>  (1) 
5
1 2 cation
1 3 acceptor
1 4 acceptor
5 1 3 9 12 13 rings
6 4 14 15 16 17 18 rings

>  <PUBCHEM_HEAVY_ATOM_COUNT>  (1) 
18

>  <PUBCHEM_ATOM_DEF_STEREO_COUNT>  (1) 
0

>  <PUBCHEM_ATOM_UDEF_STEREO_COUNT>  (1) 
0

>  <PUBCHEM_BOND_DEF_STEREO_COUNT>  (1) 
0

>  <PUBCHEM_BOND_UDEF_STEREO_COUNT>  (1) 
0

>  <PUBCHEM_ISOTOPIC_ATOM_COUNT>  (1) 
0

>  <PUBCHEM_COMPONENT_COUNT>  (1) 
1

>  <PUBCHEM_CACTVS_TAUTO_COUNT>  (1) 
1

>  <PUBCHEM_CONFORMER_ID>  (1) 
000068E200000001

>  <PUBCHEM_MMFF94_ENERGY>  (1) 
29.4895

>  <PUBCHEM_FEATURE_SELFOVERLAP>  (1) 
25.372

>  <PUBCHEM_SHAPE_FINGERPRINT>  (1) 
10378564 45 18337671889380570886
10447042 23 16988844960845628340
10670039 82 17023754394776681574
10912923 1 14923950088903934538
11287383 113 18272088322574816976
12236239 1 16805315622055778352
12390115 104 18264492785388644905
12596602 18 11746941979574034925
12670543 26 18342459188540210831
12916748 109 18187086165105323105
13288520 33 11600008773508574265
13533116 47 16558755590183621118
13631057 29 15792589607202442691
13668630 136 16774086159011426950
14251718 22 18342172306146926929
14528608 73 18259702298133565286
14573314 32 18411984641453393844
15183329 4 18202006477790977418
15348495 7 10665236955304676460
17844677 252 18201727227597205424
1813 80 14189575243078235248
18222031 100 13542466471049718362
19784866 140 17703791379889057347
200 152 16558753399059080194
20281389 69 17458056054140220421
204376 136 14779269704670104377
20645477 56 18336826497718722376
20645477 70 17775013366960389966
21150785 3 17632286930415338845
212847 35 15791451548063842644
22061861 79 17988928842479224094
221357 26 18201717340730339105
2297311 6 18411704284012205245
23366157 5 17170665576297723315
23402539 116 18334568074933526365
23536379 177 17561086886606104737
23559900 14 18342460348729883538
2767999 5 17313097561999202268
2916195 48 18335132141795190248
29717793 49 17203334373229588956
3004659 81 17917997144696898926
3472631 163 17531537593720438476
34797466 226 18342459270023439109
351380 3 14333411151027000612
49783359 22 8430313541689688753
4990 188 18413670201416240034
5104073 3 17749385911048105041
5281201 14 18272093790263740428
5283173 99 18341332197712266160
59682541 52 17845928520491806749
6025842 7 17775288270884745862
960060 61 17346881152548868800

>  <PUBCHEM_SHAPE_MULTIPOLES>  (1) 
349.62
14.77
1.61
1.13
2.91
0.01
-0.14
2.85
-4.87
1.25
-0.21
0.65
-0.28
1.97

>  <PUBCHEM_SHAPE_SELFOVERLAP>  (1) 
726.864

>  <PUBCHEM_SHAPE_VOLUME>  (1) 
200.7

>  <PUBCHEM_COORDINATE_TYPE>  (1) 
2
5
10

$$$$
