26855
     RDKit          3D

 22 24  0  0  0  0  0  0  0  0999 V2000
    4.7652    0.4769   -0.1337 O   0  0  0  0  0  0  0  0  0  0  0  0
   -6.5554   -2.6856   -0.3540 O   0  0  0  0  0  0  0  0  0  0  0  0
    3.9137    2.6005   -0.4304 O   0  0  0  0  0  0  0  0  0  0  0  0
   -1.7741    1.6151    0.1081 N   0  0  0  0  0  0  0  0  0  0  0  0
   -4.2893    0.1901    0.0636 N   0  0  0  0  0  0  0  0  0  0  0  0
    2.4895    0.7473   -0.3163 N   0  0  0  0  0  0  0  0  0  0  0  0
   -1.9634    0.3787    0.8766 C   0  0  0  0  0  0  0  0  0  0  0  0
   -3.0501    2.3248   -0.0440 C   0  0  0  0  0  0  0  0  0  0  0  0
   -3.0135   -0.5204    0.2149 C   0  0  0  0  0  0  0  0  0  0  0  0
   -4.0992    1.4253   -0.7066 C   0  0  0  0  0  0  0  0  0  0  0  0
   -0.7753    2.4730    0.7426 C   0  0  0  0  0  0  0  0  0  0  0  0
    0.5837    1.7773    0.8622 C   0  0  0  0  0  0  0  0  0  0  0  0
   -5.2892   -0.6678   -0.5692 C   0  0  0  0  0  0  0  0  0  0  0  0
    1.2019    1.3663   -0.4727 C   0  0  0  0  0  0  0  0  0  0  0  0
   -5.5679   -1.8910    0.2896 C   0  0  0  0  0  0  0  0  0  0  0  0
    2.7302   -0.6010   -0.1472 C   0  0  0  0  0  0  0  0  0  0  0  0
    3.7156    1.3977   -0.3082 C   0  0  0  0  0  0  0  0  0  0  0  0
    4.0993   -0.7362   -0.0405 C   0  0  0  0  0  0  0  0  0  0  0  0
    1.8755   -1.6815   -0.0814 C   0  0  0  0  0  0  0  0  0  0  0  0
    4.6939   -1.9675    0.1383 C   0  0  0  0  0  0  0  0  0  0  0  0
    2.4555   -2.9399    0.0999 C   0  0  0  0  0  0  0  0  0  0  0  0
    3.8531   -3.0819    0.2087 C   0  0  0  0  0  0  0  0  0  0  0  0
  1 17  1  0
  1 18  1  0
  2 15  1  0
  3 17  2  0
  4  7  1  0
  4  8  1  0
  4 11  1  0
  5  9  1  0
  5 10  1  0
  5 13  1  0
  6 14  1  0
  6 16  1  0
  6 17  1  0
  7  9  1  0
  8 10  1  0
 11 12  1  0
 12 14  1  0
 13 15  1  0
 16 18  2  0
 16 19  1  0
 18 20  1  0
 19 21  2  0
 20 22  2  0
 21 22  1  0
M  END
>  <PUBCHEM_COMPOUND_CID>  (1) 
26855

>  <PUBCHEM_CONFORMER_RMSD>  (1) 
0.8

>  <PUBCHEM_CONFORMER_DIVERSEORDER>  (1) 
1
123
57
45
134
100
71
92
68
127
33
98
87
55
129
112
133
74
66
69
3
135
86
10
35
93
64
72
95
101
56
38
136
90
42
117
24
124
29
126
108
82
60
81
118
7
15
58
116
25
84
50
48
49
128
97
89
67
119
121
17
122
110
43
83
6
30
8
102
23
99
106
109
22
78
88
31
37
51
115
77
27
54
61
65
14
44
16
70
85
63
19
111
96
20
40
18
32
41
103
47
2
114
125
46
131
94
26
76
4
21
13
39
11
113
120
80
91
79
53
52
62
105
73
130
12
28
36
59
104
34
9
132
5
107
75

>  <PUBCHEM_MMFF94_PARTIAL_CHARGES>  (1) 
26
1 -0.23
10 0.27
11 0.27
13 0.27
14 0.3
15 0.28
16 0.12
17 0.78
18 0.08
19 -0.15
2 -0.68
20 -0.15
21 -0.15
22 -0.15
3 -0.57
4 -0.81
41 0.15
42 0.4
43 0.15
44 0.15
45 0.15
5 -0.81
6 -0.48
7 0.27
8 0.27
9 0.27

>  <PUBCHEM_EFFECTIVE_ROTOR_COUNT>  (1) 
7.2

>  <PUBCHEM_PHARMACOPHORE_FEATURES>  (1) 
8
1 2 acceptor
1 2 donor
1 3 acceptor
1 4 cation
1 5 cation
5 1 6 16 17 18 rings
6 16 18 19 20 21 22 rings
6 4 5 7 8 9 10 rings

>  <PUBCHEM_HEAVY_ATOM_COUNT>  (1) 
22

>  <PUBCHEM_ATOM_DEF_STEREO_COUNT>  (1) 
0

>  <PUBCHEM_ATOM_UDEF_STEREO_COUNT>  (1) 
0

>  <PUBCHEM_BOND_DEF_STEREO_COUNT>  (1) 
0

>  <PUBCHEM_BOND_UDEF_STEREO_COUNT>  (1) 
0

>  <PUBCHEM_ISOTOPIC_ATOM_COUNT>  (1) 
0

>  <PUBCHEM_COMPONENT_COUNT>  (1) 
1

>  <PUBCHEM_CACTVS_TAUTO_COUNT>  (1) 
1

>  <PUBCHEM_CONFORMER_ID>  (1) 
000068E700000001

>  <PUBCHEM_MMFF94_ENERGY>  (1) 
47.2988

>  <PUBCHEM_FEATURE_SELFOVERLAP>  (1) 
40.711

>  <PUBCHEM_SHAPE_FINGERPRINT>  (1) 
10447042 23 18412819192227332156
10616163 171 18270402676623103365
108634 29 18114755905143033762
11315621 136 18339933632101731206
11796584 16 18198061378473101765
12107183 9 17763750892651738569
12596602 18 17203057382161819099
13167823 11 18340767057198423205
13533116 47 18411701006266343089
13955234 65 17841428438933950785
14576447 43 18410859841575208428
15196674 1 18410575041745093457
15352361 1 18411418380359859355
15537594 2 18059011812745052695
17492 89 18340207367078265334
18681886 176 18411979161998335672
200 152 18343017748805304224
20028762 73 18342173324440265974
20281475 54 18342177726412044193
20567600 247 18198901590921524695
20626108 58 18189323581622102272
20645477 70 18333168358383045016
21054139 6 18409174307598333444
21197605 99 18339644559101487798
221490 88 18335711494507893496
22393880 68 17822846468774155349
235170 7 17676195875667474469
23559900 14 18267015073072416672
239999 70 18202291303506999644
25222932 49 18129659841318504567
2871803 45 18407761421733792360
3004659 81 18260827055605441984
314194 84 18270680978146515851
329604 57 18410856568472544691
33382 64 18340209682587292961
33824 294 18410012148275177968
439807 62 18408040719827072887
46194498 28 17604425344596346101
463206 1 18340768268759417871
5104073 3 18201719513972943177
556388 4 18410009905643042002
6431902 208 18410570695808363503
7062679 13 18412260658128103147
9709674 26 18261682488563160032

>  <PUBCHEM_SHAPE_MULTIPOLES>  (1) 
420.2
13.53
3.67
0.78
12.29
1.11
0.05
8.83
-1.66
-0.58
0.13
0.23
-0.17
-0.56

>  <PUBCHEM_SHAPE_SELFOVERLAP>  (1) 
880.121

>  <PUBCHEM_SHAPE_VOLUME>  (1) 
238.7

>  <PUBCHEM_COORDINATE_TYPE>  (1) 
2
5
10

$$$$
