26879
     RDKit          3D

 14 16  0  0  1  0  0  0  0  0999 V2000
   -3.3517    1.4325   -0.3950 S   0  0  0  0  0  0  0  0  0  0  0  0
   -2.0554   -0.7198    0.1650 N   0  0  0  0  0  0  0  0  0  0  0  0
   -0.7955    0.7336   -1.0825 N   0  0  0  0  0  0  0  0  0  0  0  0
   -0.7739   -1.3466    0.2747 C   0  0  0  0  0  0  0  0  0  0  0  0
    0.0255   -0.5086   -0.7737 C   0  0  0  0  0  0  0  0  0  0  0  0
   -3.1691   -0.8449    1.0663 C   0  0  0  0  0  0  0  0  0  0  0  0
   -1.9268    0.4512   -0.5056 C   0  0  0  0  0  0  0  0  0  0  0  0
   -4.2501    0.0894    0.4966 C   0  0  0  0  0  0  0  0  0  0  0  0
    1.4237   -0.1825   -0.3066 C   0  0  0  0  0  0  0  0  0  0  0  0
    1.6639    0.9875    0.4150 C   0  0  0  0  0  0  0  0  0  0  0  0
    2.4771   -1.0510   -0.5954 C   0  0  0  0  0  0  0  0  0  0  0  0
    2.9556    1.2887    0.8468 C   0  0  0  0  0  0  0  0  0  0  0  0
    3.7687   -0.7497   -0.1634 C   0  0  0  0  0  0  0  0  0  0  0  0
    4.0079    0.4202    0.5578 C   0  0  0  0  0  0  0  0  0  0  0  0
  1  7  1  0
  1  8  1  0
  2  4  1  0
  2  6  1  0
  2  7  1  0
  3  5  1  0
  3  7  2  0
  4  5  1  0
  5  9  1  0
  6  8  1  0
  9 10  2  0
  9 11  1  0
 10 12  1  0
 11 13  2  0
 12 14  2  0
 13 14  1  0
M  END
>  <PUBCHEM_COMPOUND_CID>  (1) 
26879

>  <PUBCHEM_CONFORMER_RMSD>  (1) 
0.6

>  <PUBCHEM_CONFORMER_DIVERSEORDER>  (1) 
1
2

>  <PUBCHEM_MMFF94_PARTIAL_CHARGES>  (1) 
19
1 -0.37
10 -0.15
11 -0.15
12 -0.15
13 -0.15
14 -0.15
2 -0.79
22 0.15
23 0.15
24 0.15
25 0.15
26 0.15
3 -0.7
4 0.37
5 0.39
6 0.37
7 0.64
8 0.23
9 -0.14

>  <PUBCHEM_EFFECTIVE_ROTOR_COUNT>  (1) 
2

>  <PUBCHEM_PHARMACOPHORE_FEATURES>  (1) 
4
3 2 3 7 cation
5 1 2 6 7 8 rings
5 2 3 4 5 7 rings
6 9 10 11 12 13 14 rings

>  <PUBCHEM_HEAVY_ATOM_COUNT>  (1) 
14

>  <PUBCHEM_ATOM_DEF_STEREO_COUNT>  (1) 
1

>  <PUBCHEM_ATOM_UDEF_STEREO_COUNT>  (1) 
0

>  <PUBCHEM_BOND_DEF_STEREO_COUNT>  (1) 
0

>  <PUBCHEM_BOND_UDEF_STEREO_COUNT>  (1) 
0

>  <PUBCHEM_ISOTOPIC_ATOM_COUNT>  (1) 
0

>  <PUBCHEM_COMPONENT_COUNT>  (1) 
1

>  <PUBCHEM_CACTVS_TAUTO_COUNT>  (1) 
1

>  <PUBCHEM_CONFORMER_ID>  (1) 
000068FF00000001

>  <PUBCHEM_MMFF94_ENERGY>  (1) 
43.1734

>  <PUBCHEM_FEATURE_SELFOVERLAP>  (1) 
20.516

>  <PUBCHEM_SHAPE_FINGERPRINT>  (1) 
10608611 8 18412258441350199332
11132069 177 18113620075624502557
11471102 20 18131630071840004852
12119455 92 18060134323769620303
12251169 10 18334858358888186941
124424 183 18412540977294244622
12500047 106 18113613444121170447
12932764 1 18341894099556166590
13296908 3 18334012795860267318
13581323 91 17603584131863640990
13675066 3 18409451383811192379
13705890 14 8430315736333158526
13922767 16 18202561757143791760
14943859 89 16056880242924395839
15219456 202 18412825776522920934
15309172 13 17989488519514760246
15653759 3 18260548922134438576
16945 1 18335422425559550655
17844478 74 18408040706287900484
18175812 5 18409731768019216879
18186145 218 17775570831628475454
19049666 15 18193556662238442062
19107657 47 17917991654942477121
19422 9 16443070495198452626
200 152 17704063011074785367
20279233 1 18410011030903238047
20361792 2 15357693127936336967
20528008 55 18411416224228150559
20645464 45 18411700989207864791
20645477 70 17988076678108000958
20715346 28 18409730664049039463
21065199 12 18409167722701357610
21501502 16 18198336467181525062
22485316 2 12396301473716496297
22854114 59 18343303677847359955
23402539 116 18335133216291056983
23559900 14 18115028489837770950
351380 180 18342735204851079457
42 15 17968094201060880386
449060 50 18412263977742333524
474 4 16414048967762146592
53812653 166 18335419028261544242
69090 78 18272085019972196671
74978 22 15984810601656053480
77492 1 15841549656615768294
90316 7 16877937201065992837

>  <PUBCHEM_SHAPE_MULTIPOLES>  (1) 
282
7.86
1.39
0.98
0.25
0.13
-0.02
0.96
-1.6
0.03
-0.07
0.18
0.03
0.98

>  <PUBCHEM_SHAPE_SELFOVERLAP>  (1) 
595.445

>  <PUBCHEM_SHAPE_VOLUME>  (1) 
161.8

>  <PUBCHEM_COORDINATE_TYPE>  (1) 
2
5
10

$$$$
