26893
     RDKit          3D

 20 20  0  0  1  0  0  0  0  0999 V2000
    2.9216    2.5867   -0.1398 N   0  0  0  0  0  0  0  0  0  0  0  0
    2.3241   -1.7016    2.2820 N   0  0  0  0  0  0  0  0  0  0  0  0
    1.2897   -0.9418   -0.0395 C   0  0  0  0  0  0  0  0  0  0  0  0
    1.4420   -2.1415   -1.0685 C   0  0  0  0  0  0  0  0  0  0  0  0
    2.1327    0.2923   -0.5243 C   0  0  0  0  0  0  0  0  0  0  0  0
   -0.2027   -0.5453    0.0542 C   0  0  0  0  0  0  0  0  0  0  0  0
    2.1017    1.5119    0.4130 C   0  0  0  0  0  0  0  0  0  0  0  0
    0.6669   -3.4046   -0.6477 C   0  0  0  0  0  0  0  0  0  0  0  0
    2.8984   -2.5415   -1.3630 C   0  0  0  0  0  0  0  0  0  0  0  0
   -0.8132   -0.6249    1.2759 C   0  0  0  0  0  0  0  0  0  0  0  0
   -0.8308   -0.1362   -1.0903 C   0  0  0  0  0  0  0  0  0  0  0  0
    1.8626   -1.3690    1.2697 C   0  0  0  0  0  0  0  0  0  0  0  0
   -2.8403    0.1559    0.2189 C   0  0  0  0  0  0  0  0  0  0  0  0
   -2.1588   -0.2674    1.3598 C   0  0  0  0  0  0  0  0  0  0  0  0
   -2.1764    0.2214   -1.0062 C   0  0  0  0  0  0  0  0  0  0  0  0
   -4.2787    0.5391    0.3090 C   0  0  0  0  0  0  0  0  0  0  0  0
    2.9352    3.7379    0.7633 C   0  0  0  0  0  0  0  0  0  0  0  0
    2.4295    2.9805   -1.4601 C   0  0  0  0  0  0  0  0  0  0  0  0
   -5.1843   -0.3671   -0.5464 C   0  0  0  0  0  0  0  0  0  0  0  0
   -4.5193    2.0153   -0.0598 C   0  0  0  0  0  0  0  0  0  0  0  0
  1  7  1  0
  1 17  1  0
  1 18  1  0
  2 12  3  0
  3  4  1  0
  3  5  1  0
  3  6  1  0
  3 12  1  0
  4  8  1  0
  4  9  1  0
  5  7  1  0
  6 10  2  0
  6 11  1  0
 10 14  1  0
 11 15  2  0
 13 14  2  0
 13 15  1  0
 13 16  1  0
 16 19  1  0
 16 20  1  0
M  END
>  <PUBCHEM_COMPOUND_CID>  (1) 
26893

>  <PUBCHEM_CONFORMER_RMSD>  (1) 
0.8

>  <PUBCHEM_CONFORMER_DIVERSEORDER>  (1) 
1
46
8
51
9
29
36
28
50
16
40
53
14
30
52
35
49
41
15
44
13
48
27
45
25
23
10
33
20
43
34
37
32
18
31
19
38
39
26
24
42
12
47
17
6
7
11
22
2
3
21
4
5

>  <PUBCHEM_MMFF94_PARTIAL_CHARGES>  (1) 
18
1 -0.81
10 -0.15
11 -0.15
12 0.36
13 -0.14
14 -0.15
15 -0.15
16 0.14
17 0.27
18 0.27
2 -0.56
3 0.34
32 0.15
33 0.15
34 0.15
35 0.15
6 -0.14
7 0.27

>  <PUBCHEM_EFFECTIVE_ROTOR_COUNT>  (1) 
6

>  <PUBCHEM_PHARMACOPHORE_FEATURES>  (1) 
5
1 1 cation
1 2 acceptor
3 16 19 20 hydrophobe
3 4 8 9 hydrophobe
6 6 10 11 13 14 15 rings

>  <PUBCHEM_HEAVY_ATOM_COUNT>  (1) 
20

>  <PUBCHEM_ATOM_DEF_STEREO_COUNT>  (1) 
0

>  <PUBCHEM_ATOM_UDEF_STEREO_COUNT>  (1) 
1

>  <PUBCHEM_BOND_DEF_STEREO_COUNT>  (1) 
0

>  <PUBCHEM_BOND_UDEF_STEREO_COUNT>  (1) 
0

>  <PUBCHEM_ISOTOPIC_ATOM_COUNT>  (1) 
0

>  <PUBCHEM_COMPONENT_COUNT>  (1) 
1

>  <PUBCHEM_CACTVS_TAUTO_COUNT>  (1) 
1

>  <PUBCHEM_CONFORMER_ID>  (1) 
0000690D00000001

>  <PUBCHEM_MMFF94_ENERGY>  (1) 
60.6914

>  <PUBCHEM_FEATURE_SELFOVERLAP>  (1) 
25.371

>  <PUBCHEM_SHAPE_FINGERPRINT>  (1) 
12173636 292 17910111648480234708
12633257 1 16372113598263280008
12788726 201 17325781279293009898
13009979 54 17129602149551603754
13134695 92 18194689167916022334
13681431 1 18267033760495674678
13955234 65 18341621407935438163
14115302 16 17346313757003927959
14142880 1 17686606253380328380
14178342 30 17023756748234325139
14289901 80 18201439147730712555
14955137 171 18411133611544373938
16945 1 18266731390324136815
17134986 127 18269561700936916524
17980427 23 18055319596716868658
1813 80 18055918693379063310
18186145 218 17968663709872246861
19786989 88 18410845577788384471
20600515 1 17104507880255264396
20723712 36 18269817788593783128
21304303 282 17198228430277551140
21524375 3 18119809359626567040
2255824 54 18272375221995548247
23419403 2 17396479069884930946
23558518 356 17830449845537211406
23559900 14 18270681965957488359
3060560 45 18342179938462379790
31174 14 17968085391866535311
3286 77 17677322793492284099
394222 165 18263354940460094328
474 4 18412260670401185881
495365 180 18410009948888061989
5104073 3 18259989245959200737
59755656 520 18123180470951893172
7364860 26 18341055137940232748
81228 2 17256799002356383088
84936 182 18202285826785802865
9841814 1 18116148883184862723

>  <PUBCHEM_SHAPE_MULTIPOLES>  (1) 
401.63
7.5
3.85
1.54
10.69
1.81
-0.44
3.65
0.6
-5.61
0.72
-0.88
-0.45
0.11

>  <PUBCHEM_SHAPE_SELFOVERLAP>  (1) 
808.341

>  <PUBCHEM_SHAPE_VOLUME>  (1) 
236.5

>  <PUBCHEM_COORDINATE_TYPE>  (1) 
2
5
10

$$$$
