26905
     RDKit          3D

 14 15  0  0  0  0  0  0  0  0999 V2000
    0.7493   -2.7974   -0.0002 O   0  0  0  0  0  0  0  0  0  0  0  0
   -1.0440    2.9411   -0.0003 O   0  0  0  0  0  0  0  0  0  0  0  0
   -1.8167   -2.3460    0.0002 O   0  0  0  0  0  0  0  0  0  0  0  0
   -0.0326    0.8053   -0.0001 C   0  0  0  0  0  0  0  0  0  0  0  0
   -0.2281   -0.5784   -0.0001 C   0  0  0  0  0  0  0  0  0  0  0  0
    2.3622    0.4652   -0.0002 C   0  0  0  0  0  0  0  0  0  0  0  0
    1.2656    1.3277   -0.0001 C   0  0  0  0  0  0  0  0  0  0  0  0
    0.8745   -1.4400   -0.0002 C   0  0  0  0  0  0  0  0  0  0  0  0
    2.1672   -0.9151   -0.0003 C   0  0  0  0  0  0  0  0  0  0  0  0
   -1.1875    1.7247   -0.0001 C   0  0  0  0  0  0  0  0  0  0  0  0
   -1.5926   -1.1419    0.0001 C   0  0  0  0  0  0  0  0  0  0  0  0
   -2.5386    1.1272    0.0002 C   0  0  0  0  0  0  0  0  0  0  0  0
   -2.7252   -0.1935    0.0003 C   0  0  0  0  0  0  0  0  0  0  0  0
    3.7464    1.0211    0.0008 C   0  0  0  0  0  0  0  0  0  0  0  0
  1  8  1  0
  2 10  2  0
  3 11  2  0
  4  5  2  0
  4  7  1  0
  4 10  1  0
  5  8  1  0
  5 11  1  0
  6  7  2  0
  6  9  1  0
  6 14  1  0
  8  9  2  0
 10 12  1  0
 11 13  1  0
 12 13  2  0
M  END
>  <PUBCHEM_COMPOUND_CID>  (1) 
26905

>  <PUBCHEM_CONFORMER_RMSD>  (1) 
0.4

>  <PUBCHEM_CONFORMER_DIVERSEORDER>  (1) 
1

>  <PUBCHEM_MMFF94_PARTIAL_CHARGES>  (1) 
19
1 -0.53
10 0.47
11 0.47
12 -0.14
13 -0.14
14 0.14
15 0.15
16 0.15
17 0.15
18 0.15
2 -0.57
22 0.45
3 -0.57
4 0.09
5 0.09
6 -0.14
7 -0.15
8 0.08
9 -0.15

>  <PUBCHEM_EFFECTIVE_ROTOR_COUNT>  (1) 
0

>  <PUBCHEM_PHARMACOPHORE_FEATURES>  (1) 
5
1 1 donor
1 2 acceptor
1 3 acceptor
6 4 5 10 11 12 13 rings
6 4 5 6 7 8 9 rings

>  <PUBCHEM_HEAVY_ATOM_COUNT>  (1) 
14

>  <PUBCHEM_ATOM_DEF_STEREO_COUNT>  (1) 
0

>  <PUBCHEM_ATOM_UDEF_STEREO_COUNT>  (1) 
0

>  <PUBCHEM_BOND_DEF_STEREO_COUNT>  (1) 
0

>  <PUBCHEM_BOND_UDEF_STEREO_COUNT>  (1) 
0

>  <PUBCHEM_ISOTOPIC_ATOM_COUNT>  (1) 
0

>  <PUBCHEM_COMPONENT_COUNT>  (1) 
1

>  <PUBCHEM_CACTVS_TAUTO_COUNT>  (1) 
12

>  <PUBCHEM_CONFORMER_ID>  (1) 
0000691900000001

>  <PUBCHEM_MMFF94_ENERGY>  (1) 
38.4331

>  <PUBCHEM_FEATURE_SELFOVERLAP>  (1) 
25.393

>  <PUBCHEM_SHAPE_FINGERPRINT>  (1) 
108231 29 18127132102529982112
10967382 1 18410856568245561413
11132069 177 18340484564520308656
12382932 28 18411702109930507145
12423570 1 14310850959347567229
12524768 44 18337394825039828247
13140716 1 18338800151081758361
13380535 21 18340500975394953286
13380535 76 18410568453275986274
14614273 12 18260820480016001229
15775835 57 18342463625014775680
16945 1 18338516339579216389
193761 8 18194401091468893830
19973954 147 18122626050433879369
20510252 161 18270965768722110264
20588541 1 18412547621624618745
20871998 184 18200598119381097143
21501502 16 18339640014708804504
22802520 49 18128839498238371830
2334 1 18122625230068849505
23402539 116 18127401474362738190
23463225 33 18334288730830319658
23552423 10 18192434065077027879
23559900 14 18055643820437052174
241688 4 15240886059282738201
2748010 2 18195243540655930477
2897 32 18265335014645703901
353137 74 18408880707327832009
43471831 8 18335415781683383402
5255222 1 18412820261648133161
528886 8 18411414054984790618
53812653 166 18343580780605561176
54173680 148 18048880989948089354
7364860 26 18126001568643596654

>  <PUBCHEM_SHAPE_MULTIPOLES>  (1) 
270.51
4.25
2.74
0.6
1.97
0.35
0
-0.91
0
-0.73
0
0.02
-0.02
0

>  <PUBCHEM_SHAPE_SELFOVERLAP>  (1) 
596.301

>  <PUBCHEM_SHAPE_VOLUME>  (1) 
145.4

>  <PUBCHEM_COORDINATE_TYPE>  (1) 
2
5
10

$$$$
