26919
     RDKit          3D

 18 18  0  0  0  0  0  0  0  0999 V2000
   -0.3516   -0.1683    0.3891 C   0  0  0  0  0  0  0  0  0  0  0  0
   -0.8518    0.8424   -0.4319 C   0  0  0  0  0  0  0  0  0  0  0  0
   -1.2259   -1.2897    0.8458 C   0  0  0  0  0  0  0  0  0  0  0  0
   -2.2768    0.8349   -0.8788 C   0  0  0  0  0  0  0  0  0  0  0  0
    1.8025    0.8949    0.3721 C   0  0  0  0  0  0  0  0  0  0  0  0
    0.9832   -0.1419    0.7932 C   0  0  0  0  0  0  0  0  0  0  0  0
   -1.2020   -2.4767   -0.1278 C   0  0  0  0  0  0  0  0  0  0  0  0
    3.2446    0.9238    0.8097 C   0  0  0  0  0  0  0  0  0  0  0  0
   -3.1941    1.5867    0.0963 C   0  0  0  0  0  0  0  0  0  0  0  0
   -0.0171    1.8795   -0.8486 C   0  0  0  0  0  0  0  0  0  0  0  0
    4.1498    0.1805   -0.1750 C   0  0  0  0  0  0  0  0  0  0  0  0
    1.3176    1.9059   -0.4442 C   0  0  0  0  0  0  0  0  0  0  0  0
   -2.1304   -3.6019    0.3290 C   0  0  0  0  0  0  0  0  0  0  0  0
   -4.6552    1.5388   -0.3504 C   0  0  0  0  0  0  0  0  0  0  0  0
    5.6037    0.1853    0.2972 C   0  0  0  0  0  0  0  0  0  0  0  0
   -2.1341   -4.7575   -0.6590 C   0  0  0  0  0  0  0  0  0  0  0  0
   -5.5644    2.2496    0.6394 C   0  0  0  0  0  0  0  0  0  0  0  0
    6.5020   -0.5865   -0.6561 C   0  0  0  0  0  0  0  0  0  0  0  0
  1  2  2  0
  1  3  1  0
  1  6  1  0
  2  4  1  0
  2 10  1  0
  3  7  1  0
  4  9  1  0
  5  6  2  0
  5  8  1  0
  5 12  1  0
  7 13  1  0
  8 11  1  0
  9 14  1  0
 10 12  2  0
 11 15  1  0
 13 16  1  0
 14 17  1  0
 15 18  1  0
M  END
>  <PUBCHEM_COMPOUND_CID>  (1) 
26919

>  <PUBCHEM_CONFORMER_RMSD>  (1) 
0.8

>  <PUBCHEM_CONFORMER_DIVERSEORDER>  (1) 
1
262
203
301
277
328
60
28
244
97
165
263
172
200
298
62
54
314
267
291
215
16
280
3
48
34
271
162
189
100
152
93
99
211
168
95
241
2
70
311
323
238
268
68
279
305
112
242
249
198
270
258
30
254
20
190
150
228
164
282
143
325
147
75
297
27
191
63
239
179
278
105
43
121
240
324
204
167
327
38
197
159
331
46
13
80
218
307
42
264
273
287
208
206
181
110
329
192
138
281
246
195
136
269
285
217
322
155
251
73
24
140
180
221
85
303
174
61
290
106
274
201
315
151
300
53
163
72
134
157
312
82
210
81
260
224
214
231
87
131
148
309
39
127
135
296
33
320
212
36
169
261
166
103
292
29
202
276
58
245
31
88
139
109
107
153
306
317
318
185
74
308
115
91
111
10
321
289
94
225
133
302
119
330
51
7
227
178
66
177
294
284
11
12
255
222
253
130
248
35
295
304
235
156
252
37
132
21
184
199
137
213
250
71
265
14
56
275
23
257
176
19
122
220
266
84
9
118
86
193
173
124
114
170
182
25
154
79
256
230
59
52
236
205
310
272
57
4
92
146
32
117
293
259
219
47
232
187
207
104
5
142
128
229
316
78
18
175
158
149
283
194
188
226
183
77
223
233
17
141
326
116
299
216
55
313
160
6
8
286
319
50
98
125
45
64
237
288
89
90
83
41
196
69
186
108
123
129
209
161
96
15
120
22
234
76
247
26
243
102
65
67
40
145
113
171
44
101
49
144
126

>  <PUBCHEM_MMFF94_PARTIAL_CHARGES>  (1) 
12
1 -0.14
10 -0.15
12 -0.15
2 -0.14
23 0.15
3 0.14
30 0.15
33 0.15
4 0.14
5 -0.14
6 -0.15
8 0.14

>  <PUBCHEM_EFFECTIVE_ROTOR_COUNT>  (1) 
9

>  <PUBCHEM_PHARMACOPHORE_FEATURES>  (1) 
4
1 16 hydrophobe
1 17 hydrophobe
1 18 hydrophobe
6 1 2 5 6 10 12 rings

>  <PUBCHEM_HEAVY_ATOM_COUNT>  (1) 
18

>  <PUBCHEM_ATOM_DEF_STEREO_COUNT>  (1) 
0

>  <PUBCHEM_ATOM_UDEF_STEREO_COUNT>  (1) 
0

>  <PUBCHEM_BOND_DEF_STEREO_COUNT>  (1) 
0

>  <PUBCHEM_BOND_UDEF_STEREO_COUNT>  (1) 
0

>  <PUBCHEM_ISOTOPIC_ATOM_COUNT>  (1) 
0

>  <PUBCHEM_COMPONENT_COUNT>  (1) 
1

>  <PUBCHEM_CACTVS_TAUTO_COUNT>  (1) 
1

>  <PUBCHEM_CONFORMER_ID>  (1) 
0000692700000001

>  <PUBCHEM_MMFF94_ENERGY>  (1) 
21.3831

>  <PUBCHEM_FEATURE_SELFOVERLAP>  (1) 
20.297

>  <PUBCHEM_SHAPE_FINGERPRINT>  (1) 
10756046 70 17531541969659318405
11036077 3 18339082588468493189
116883 192 18121779692927103263
12549972 3 17702931664785597138
12643181 29 18411984621044661382
12715332 25 18334576836672383556
13540713 5 17897726693992494940
14790565 3 18193839228290352776
14866123 147 18409165549733593451
15042514 8 18335704996169536083
15927050 60 18339921519972852343
19141452 34 18409166615048324276
200 152 10952045645752665689
20286276 3 18194686093025477504
20681677 155 18408600362302040872
20871999 31 18188771768692984638
21307412 95 18129400223936960438
21478907 32 18049159162037069927
22224240 67 18411418380914111353
23402539 116 18272926107465034165
23558518 356 18045219594256672193
23559900 14 18341044195171164816
25147074 1 17751637882497295308
2748010 2 17610033712395765492
293599 30 18335419015355978577
59025328 239 16621769954175413511
59755656 520 18411696556886017877
7164475 11 17976256060467693573
81228 2 17754161300426950065

>  <PUBCHEM_SHAPE_MULTIPOLES>  (1) 
370.43
11.08
4.17
0.94
12.46
7.59
0
-4.47
0.21
-6.85
0.67
-0.01
-0.03
-0.15

>  <PUBCHEM_SHAPE_SELFOVERLAP>  (1) 
724.024

>  <PUBCHEM_SHAPE_VOLUME>  (1) 
219.6

>  <PUBCHEM_COORDINATE_TYPE>  (1) 
2
5
10

$$$$
