26918
     RDKit          3D

 22 24  0  0  0  0  0  0  0  0999 V2000
    6.7682    1.2196   -0.0002 Cl  0  0  0  0  0  0  0  0  0  0  0  0
    6.8896   -2.0141   -0.0007 Cl  0  0  0  0  0  0  0  0  0  0  0  0
    0.5677    0.0092    0.0006 O   0  0  0  0  0  0  0  0  0  0  0  0
   -5.9961   -2.6995   -0.0005 O   0  0  0  0  0  0  0  0  0  0  0  0
   -5.6253    1.8748   -0.0008 O   0  0  0  0  0  0  0  0  0  0  0  0
   -4.0462    0.1377    0.0000 N   0  0  0  0  0  0  0  0  0  0  0  0
   -6.1895   -0.3828   -0.0004 N   0  0  0  0  0  0  0  0  0  0  0  0
   -2.9263    0.8885   -0.0002 N   0  0  0  0  0  0  0  0  0  0  0  0
   -4.0182   -1.2929    0.0007 C   0  0  0  0  0  0  0  0  0  0  0  0
    1.6500    0.8261    0.0004 C   0  0  0  0  0  0  0  0  0  0  0  0
    2.9259    0.1532   -0.0002 C   0  0  0  0  0  0  0  0  0  0  0  0
   -5.5081   -1.5779    0.0004 C   0  0  0  0  0  0  0  0  0  0  0  0
   -0.5232    0.8192    0.0005 C   0  0  0  0  0  0  0  0  0  0  0  0
   -5.3203    0.6902   -0.0005 C   0  0  0  0  0  0  0  0  0  0  0  0
    1.2720    2.1436    0.0004 C   0  0  0  0  0  0  0  0  0  0  0  0
   -0.1432    2.1412    0.0003 C   0  0  0  0  0  0  0  0  0  0  0  0
   -1.8075    0.2061    0.0004 C   0  0  0  0  0  0  0  0  0  0  0  0
    4.1067    0.8958   -0.0003 C   0  0  0  0  0  0  0  0  0  0  0  0
    2.9786   -1.2408    0.0001 C   0  0  0  0  0  0  0  0  0  0  0  0
    5.3402    0.2444   -0.0003 C   0  0  0  0  0  0  0  0  0  0  0  0
    4.2120   -1.8920    0.0002 C   0  0  0  0  0  0  0  0  0  0  0  0
    5.3928   -1.1496    0.0001 C   0  0  0  0  0  0  0  0  0  0  0  0
  1 20  1  0
  2 22  1  0
  3 10  1  0
  3 13  1  0
  4 12  2  0
  5 14  2  0
  6  8  1  0
  6  9  1  0
  6 14  1  0
  7 12  1  0
  7 14  1  0
  8 17  2  0
  9 12  1  0
 10 11  1  0
 10 15  2  0
 11 18  2  0
 11 19  1  0
 13 16  2  0
 13 17  1  0
 15 16  1  0
 18 20  1  0
 19 21  2  0
 20 22  2  0
 21 22  1  0
M  END
>  <PUBCHEM_COMPOUND_CID>  (1) 
26918

>  <PUBCHEM_CONFORMER_RMSD>  (1) 
0.6

>  <PUBCHEM_CONFORMER_DIVERSEORDER>  (1) 
1
15
32
18
7
9
39
27
23
30
19
5
13
25
22
4
38
21
24
36
14
6
16
8
10
2
20
31
34
3
37
33
17
12
35
29
26
28
11

>  <PUBCHEM_MMFF94_PARTIAL_CHARGES>  (1) 
29
1 -0.18
10 0.09
11 0.05
12 0.57
13 0.05
14 0.69
15 -0.15
16 -0.15
17 0.47
18 -0.15
19 -0.15
2 -0.18
20 0.18
21 -0.15
22 0.18
25 0.37
26 0.15
27 0.15
28 0.06
29 0.15
3 -0.28
30 0.15
31 0.15
4 -0.57
5 -0.57
6 -0.3
7 -0.49
8 -0.51
9 0.36

>  <PUBCHEM_EFFECTIVE_ROTOR_COUNT>  (1) 
3.6

>  <PUBCHEM_PHARMACOPHORE_FEATURES>  (1) 
8
1 3 acceptor
1 4 acceptor
1 5 acceptor
1 7 donor
1 8 acceptor
5 3 10 13 15 16 rings
5 6 7 9 12 14 rings
6 11 18 19 20 21 22 rings

>  <PUBCHEM_HEAVY_ATOM_COUNT>  (1) 
22

>  <PUBCHEM_ATOM_DEF_STEREO_COUNT>  (1) 
0

>  <PUBCHEM_ATOM_UDEF_STEREO_COUNT>  (1) 
0

>  <PUBCHEM_BOND_DEF_STEREO_COUNT>  (1) 
0

>  <PUBCHEM_BOND_UDEF_STEREO_COUNT>  (1) 
1

>  <PUBCHEM_ISOTOPIC_ATOM_COUNT>  (1) 
0

>  <PUBCHEM_COMPONENT_COUNT>  (1) 
1

>  <PUBCHEM_CACTVS_TAUTO_COUNT>  (1) 
3

>  <PUBCHEM_CONFORMER_ID>  (1) 
0000692600000001

>  <PUBCHEM_MMFF94_ENERGY>  (1) 
46.1329

>  <PUBCHEM_FEATURE_SELFOVERLAP>  (1) 
40.6

>  <PUBCHEM_SHAPE_FINGERPRINT>  (1) 
10835480 77 18410285908847748445
11315181 36 18272373092456355065
11524674 6 16917347039311172751
11578080 2 16700310144902264146
11796584 16 18341332197790926083
11963148 33 18411132507654298854
12236239 1 18343021081868536128
12516196 113 18342175579012506224
12596602 18 17846782909819912010
13167823 11 18410571821152715119
13288520 33 18410575098365697349
13402501 40 18409168813644792627
13685833 64 18408326605339265547
13740256 8 18410293622845654717
13862211 1 18409449176583286554
13899415 154 17489310819575469624
14251732 16 18412544340443781880
14251764 18 18272373075255263193
14461889 52 18338510963139966682
15183329 4 18260544498740207939
15196674 1 18410856555476918435
17492 89 18122905331516303734
17844677 252 18411987983402693257
17857418 61 18411138047833808935
20028762 73 18339922624396645298
21049683 271 18337676446389253876
21130935 74 18342457032678060330
21267235 1 18341898442680569862
21623969 137 18131917052680381574
22224240 67 16630516328982665390
22950370 63 18409730651174894797
23035841 295 18408886209048946066
23402539 116 18410571777992169165
23522609 53 18121813644438479828
23536379 177 18409730646948512393
23559900 14 18339072800581274521
3004659 81 18186239515935954674
335352 9 18410291385954021709
351380 3 18412542110986639558
4073 2 18186807997222035594
4214541 1 18410855465309657697
4325135 7 18333734633078919204
4463277 17 18411699876790573796
465052 167 18201722860132021134
5104073 3 18202845439459698560
559249 180 18411980244198199215
59682541 35 18271515486566718432
636775 8 18199477572238616270
999808 66 17968670410201220451

>  <PUBCHEM_SHAPE_MULTIPOLES>  (1) 
423.94
19.42
2.39
0.6
6.35
0.5
0
8.28
0
0.28
0
-0.13
0
0

>  <PUBCHEM_SHAPE_SELFOVERLAP>  (1) 
911.706

>  <PUBCHEM_SHAPE_VOLUME>  (1) 
237.1

>  <PUBCHEM_COORDINATE_TYPE>  (1) 
2
5
10

$$$$
