2691
     RDKit          3D

 36 39  0  0  1  0  0  0  0  0999 V2000
    2.8913    0.1077    0.1874 O   0  0  0  0  0  0  0  0  0  0  0  0
    1.6122    0.7475    3.4767 O   0  0  0  0  0  0  0  0  0  0  0  0
    0.9043    2.8524    1.2915 O   0  0  0  0  0  0  0  0  0  0  0  0
    4.7147    1.6819   -0.6293 O   0  0  0  0  0  0  0  0  0  0  0  0
   -6.1059    2.8269   -0.1778 O   0  0  0  0  0  0  0  0  0  0  0  0
   -4.8007    3.2982    1.6204 O   0  0  0  0  0  0  0  0  0  0  0  0
    2.0234   -1.7068    1.4279 N   0  0  0  0  0  0  0  0  0  0  0  0
    3.3240    3.5467   -0.7176 N   0  0  0  0  0  0  0  0  0  0  0  0
    1.5923   -3.8138    2.0208 N   0  0  0  0  0  0  0  0  0  0  0  0
    0.9258   -1.6530   -0.7387 N   0  0  0  0  0  0  0  0  0  0  0  0
   -0.0997   -3.8034   -1.2682 N   0  0  0  0  0  0  0  0  0  0  0  0
   -0.2290   -1.9903   -2.7458 N   0  0  0  0  0  0  0  0  0  0  0  0
    0.0075   -5.6781    0.2153 N   0  0  0  0  0  0  0  0  0  0  0  0
    1.5426    0.6598    2.0643 C   0  0  0  0  0  0  0  0  0  0  0  0
    2.5430   -0.3436    1.5083 C   0  0  0  0  0  0  0  0  0  0  0  0
    1.9867    1.9436    1.3974 C   0  0  0  0  0  0  0  0  0  0  0  0
    2.4380    1.4583    0.0323 C   0  0  0  0  0  0  0  0  0  0  0  0
    3.6192    2.2159   -0.4765 C   0  0  0  0  0  0  0  0  0  0  0  0
    1.3037   -2.2509    0.4011 C   0  0  0  0  0  0  0  0  0  0  0  0
    2.1707   -2.6856    2.3762 C   0  0  0  0  0  0  0  0  0  0  0  0
    1.0465   -3.5563    0.7884 C   0  0  0  0  0  0  0  0  0  0  0  0
    0.3151   -4.3424   -0.0964 C   0  0  0  0  0  0  0  0  0  0  0  0
    4.3009    4.4994   -1.1935 C   0  0  0  0  0  0  0  0  0  0  0  0
    0.2265   -2.5112   -1.5129 C   0  0  0  0  0  0  0  0  0  0  0  0
    5.6576    3.8537   -1.3863 C   0  0  0  0  0  0  0  0  0  0  0  0
    0.0256   -0.6470   -3.1591 C   0  0  0  0  0  0  0  0  0  0  0  0
   -1.2786    0.1343   -3.3121 C   0  0  0  0  0  0  0  0  0  0  0  0
   -2.0962    0.1761   -2.0441 C   0  0  0  0  0  0  0  0  0  0  0  0
   -3.5971    0.2524    0.2847 C   0  0  0  0  0  0  0  0  0  0  0  0
   -3.0317   -0.8183   -1.8059 C   0  0  0  0  0  0  0  0  0  0  0  0
   -1.8964    1.2079   -1.1407 C   0  0  0  0  0  0  0  0  0  0  0  0
   -4.4050    0.2939    1.5373 C   0  0  0  0  0  0  0  0  0  0  0  0
   -3.7872   -0.7799   -0.6339 C   0  0  0  0  0  0  0  0  0  0  0  0
   -2.6517    1.2462    0.0313 C   0  0  0  0  0  0  0  0  0  0  0  0
   -5.7177    1.0744    1.3996 C   0  0  0  0  0  0  0  0  0  0  0  0
   -5.4747    2.5033    0.9777 C   0  0  0  0  0  0  0  0  0  0  0  0
  1 15  1  0
  1 17  1  0
  2 14  1  0
  3 16  1  0
  4 18  2  0
  5 36  1  0
  6 36  2  0
  7 15  1  0
  7 19  1  0
  7 20  1  0
  8 18  1  0
  8 23  1  0
  9 20  2  0
  9 21  1  0
 10 19  1  0
 10 24  2  0
 11 22  2  0
 11 24  1  0
 12 24  1  0
 12 26  1  0
 13 22  1  0
 14 15  1  0
 14 16  1  0
 16 17  1  0
 17 18  1  0
 19 21  2  0
 21 22  1  0
 23 25  1  0
 26 27  1  0
 27 28  1  0
 28 30  2  0
 28 31  1  0
 29 32  1  0
 29 33  2  0
 29 34  1  0
 30 33  1  0
 31 34  2  0
 32 35  1  0
 35 36  1  0
M  END
>  <PUBCHEM_COMPOUND_CID>  (1) 
2691

>  <PUBCHEM_CONFORMER_RMSD>  (1) 
1.4

>  <PUBCHEM_CONFORMER_DIVERSEORDER>  (1) 
9
588
405
528
24
473
91
68
248
548
2
460
285
49
330
311
691
232
259
119
595
374
6
191
501
8
48
116
293
38
459
100
731
95
84
121
318
408
189
361
26
130
355
364
206
197
243
249
55
388
607
636
201
98
710
75
273
655
39
394
144
22
365
140
320
306
222
319
368
373
236
382
45
182
492
11
662
597
60
58
109
694
103
392
51
297
704
545
270
301
7
3
88
690
93
186
479
341
155
372
582
10
260
105
134
64
156
428
177
358
96
499
722
136
40
415
290
65
15
564
87
471
53
649
615
442
566
169
16
131
13
167
678
79
110
33
728
133
27
139
82
362
456
505
112
244
174
92
4
14
729
111
12
253
634
313
617
73
332
70
411
145
210
85
343
25
452
578
533
66
477
594
128
17
584
123
158
444
20
19
431
23
376
57
558
490
541
486
656
309
288
284
524
464
192
426
560
31
363
701
643
421
46
199
340
676
29
234
233
487
606
397
719
163
90
1
5
294
559
62
138

>  <PUBCHEM_MMFF94_PARTIAL_CHARGES>  (1) 
47
1 -0.56
10 -0.57
11 -0.62
12 -0.87
13 -0.9
14 0.28
15 0.54
16 0.28
17 0.34
18 0.57
19 0.11
2 -0.68
20 0.04
21 0.23
22 0.41
23 0.3
24 0.72
26 0.37
27 0.14
28 -0.14
29 -0.14
3 -0.68
30 -0.15
31 -0.15
32 0.14
33 -0.15
34 -0.15
35 0.06
36 0.66
4 -0.57
41 0.4
42 0.4
43 0.15
44 0.37
47 0.4
5 -0.65
55 0.4
56 0.4
57 0.15
58 0.15
6 -0.57
61 0.15
62 0.15
65 0.5
7 0.05
8 -0.73
9 -0.57

>  <PUBCHEM_EFFECTIVE_ROTOR_COUNT>  (1) 
12

>  <PUBCHEM_PHARMACOPHORE_FEATURES>  (1) 
19
1 1 acceptor
1 12 donor
1 13 cation
1 13 donor
1 2 acceptor
1 2 donor
1 3 acceptor
1 3 donor
1 4 acceptor
1 5 acceptor
1 6 acceptor
1 8 donor
3 5 6 36 anion
3 7 9 20 cation
4 10 11 12 24 cation
5 1 14 15 16 17 rings
5 7 9 19 20 21 rings
6 10 11 19 21 22 24 rings
6 28 29 30 31 33 34 rings

>  <PUBCHEM_HEAVY_ATOM_COUNT>  (1) 
36

>  <PUBCHEM_ATOM_DEF_STEREO_COUNT>  (1) 
0

>  <PUBCHEM_ATOM_UDEF_STEREO_COUNT>  (1) 
4

>  <PUBCHEM_BOND_DEF_STEREO_COUNT>  (1) 
0

>  <PUBCHEM_BOND_UDEF_STEREO_COUNT>  (1) 
0

>  <PUBCHEM_ISOTOPIC_ATOM_COUNT>  (1) 
0

>  <PUBCHEM_COMPONENT_COUNT>  (1) 
1

>  <PUBCHEM_CACTVS_TAUTO_COUNT>  (1) 
18

>  <PUBCHEM_CONFORMER_ID>  (1) 
00000A8300000009

>  <PUBCHEM_MMFF94_ENERGY>  (1) 
87.0984

>  <PUBCHEM_FEATURE_SELFOVERLAP>  (1) 
96.633

>  <PUBCHEM_SHAPE_FINGERPRINT>  (1) 
10190108 129 17766275371634566130
11093857 51 16343143507122909261
12047536 79 18121810265507033281
12156800 1 17324408401349381950
12633257 1 18194950847826627171
13965767 371 16554211179297391203
14713325 29 17834402589839047094
14932702 115 16893650562135636111
151778 21 18409444761225024689
15219462 58 15359351105771870810
15264996 19 17978239575392080571
19311894 1 18048311438672392276
19319366 153 18341895177545861992
21860390 5 17985824822749994627
22149856 69 15338259158313189765
27425 322 18267033914740783133
3044373 193 18125716783012414133
35225 105 17900518362236074479
4058900 60 18340784679628924417
469060 322 15071692690515298190
50150288 127 16527835381300364981
513532 50 12678597691355909595

>  <PUBCHEM_SHAPE_MULTIPOLES>  (1) 
670.78
10
6.52
3.06
6.84
4.8
-0.73
-16.8
1.7
-4.39
0.53
0.08
0.54
-3.89

>  <PUBCHEM_SHAPE_SELFOVERLAP>  (1) 
1441.527

>  <PUBCHEM_SHAPE_VOLUME>  (1) 
364

>  <PUBCHEM_COORDINATE_TYPE>  (1) 
2
5
10

$$$$
