2692
     RDKit          3D

 25 28  0  0  1  0  0  0  0  0999 V2000
    3.6455   -0.5340    1.0554 O   0  0  0  0  0  0  0  0  0  0  0  0
    3.1754    2.1577   -1.2659 O   0  0  0  0  0  0  0  0  0  0  0  0
    5.6090    0.3717   -1.8194 O   0  0  0  0  0  0  0  0  0  0  0  0
    4.9761   -2.9718    0.6456 O   0  0  0  0  0  0  0  0  0  0  0  0
    1.4364    0.0471    0.4277 N   0  0  0  0  0  0  0  0  0  0  0  0
   -3.1621   -0.3300    0.4449 N   0  0  0  0  0  0  0  0  0  0  0  0
   -0.3006   -1.3377    0.2404 N   0  0  0  0  0  0  0  0  0  0  0  0
    0.2616    2.1453    0.7712 N   0  0  0  0  0  0  0  0  0  0  0  0
   -2.1571    1.8190    0.7595 N   0  0  0  0  0  0  0  0  0  0  0  0
    2.8253    0.4969    0.4755 C   0  0  0  0  0  0  0  0  0  0  0  0
    3.4218    0.8154   -0.8869 C   0  0  0  0  0  0  0  0  0  0  0  0
    4.8950    0.5950   -0.6203 C   0  0  0  0  0  0  0  0  0  0  0  0
    4.8890   -0.6007    0.3271 C   0  0  0  0  0  0  0  0  0  0  0  0
   -4.5157    0.1692    0.5442 C   0  0  0  0  0  0  0  0  0  0  0  0
   -4.9481    0.8513   -0.7581 C   0  0  0  0  0  0  0  0  0  0  0  0
   -5.4879   -0.9491    0.9349 C   0  0  0  0  0  0  0  0  0  0  0  0
   -5.1825   -0.1472   -1.8915 C   0  0  0  0  0  0  0  0  0  0  0  0
   -5.7214   -1.9447   -0.2014 C   0  0  0  0  0  0  0  0  0  0  0  0
   -6.1616   -1.2435   -1.4827 C   0  0  0  0  0  0  0  0  0  0  0  0
    4.9812   -1.9620   -0.3506 C   0  0  0  0  0  0  0  0  0  0  0  0
    0.3193    0.8210    0.5653 C   0  0  0  0  0  0  0  0  0  0  0  0
   -0.7467   -0.0564    0.4466 C   0  0  0  0  0  0  0  0  0  0  0  0
   -2.0415    0.4739    0.5497 C   0  0  0  0  0  0  0  0  0  0  0  0
    1.0125   -1.2409    0.2339 C   0  0  0  0  0  0  0  0  0  0  0  0
   -1.0231    2.5546    0.8551 C   0  0  0  0  0  0  0  0  0  0  0  0
  1 10  1  0
  1 13  1  0
  2 11  1  0
  3 12  1  0
  4 20  1  0
  5 10  1  0
  5 21  1  0
  5 24  1  0
  6 14  1  0
  6 23  1  0
  7 22  1  0
  7 24  2  0
  8 21  1  0
  8 25  2  0
  9 23  2  0
  9 25  1  0
 10 11  1  0
 11 12  1  0
 12 13  1  0
 13 20  1  0
 14 15  1  0
 14 16  1  0
 15 17  1  0
 16 18  1  0
 17 19  1  0
 18 19  1  0
 21 22  2  0
 22 23  1  0
M  END
>  <PUBCHEM_COMPOUND_CID>  (1) 
2692

>  <PUBCHEM_CONFORMER_RMSD>  (1) 
1

>  <PUBCHEM_CONFORMER_DIVERSEORDER>  (1) 
1
522
35
285
139
323
125
452
448
34
379
119
127
28
183
541
3
537
455
519
463
292
122
10
510
370
168
121
49
344
106
346
74
473
229
402
123
16
6
271
77
57
152
92
31
315
204
47
219
181
528
130
334
207
4
176
180
324
15
343
433
482
274
114
415
431
44
502
53
172
137
348
440
350
286
241
59
118
255
99
66
70
275
62
174
105
93
69
164
305
72
263
351
5
331
60
242
20
107
9
2
18
150
230
505
264
58
187
193
26
71
464
146

>  <PUBCHEM_MMFF94_PARTIAL_CHARGES>  (1) 
26
1 -0.56
10 0.54
11 0.28
12 0.28
13 0.28
14 0.37
2 -0.68
20 0.28
21 0.11
22 0.23
23 0.41
24 0.04
25 0.47
3 -0.68
4 -0.68
43 0.4
44 0.15
45 0.4
46 0.4
47 0.4
48 0.15
5 0.05
6 -0.87
7 -0.57
8 -0.57
9 -0.62

>  <PUBCHEM_EFFECTIVE_ROTOR_COUNT>  (1) 
6.2

>  <PUBCHEM_PHARMACOPHORE_FEATURES>  (1) 
16
1 1 acceptor
1 2 acceptor
1 2 donor
1 3 acceptor
1 3 donor
1 4 acceptor
1 4 donor
1 6 cation
1 6 donor
3 5 7 24 cation
3 5 8 21 cation
3 8 9 25 cation
5 1 10 11 12 13 rings
5 5 7 21 22 24 rings
6 14 15 16 17 18 19 rings
6 8 9 21 22 23 25 rings

>  <PUBCHEM_HEAVY_ATOM_COUNT>  (1) 
25

>  <PUBCHEM_ATOM_DEF_STEREO_COUNT>  (1) 
0

>  <PUBCHEM_ATOM_UDEF_STEREO_COUNT>  (1) 
4

>  <PUBCHEM_BOND_DEF_STEREO_COUNT>  (1) 
0

>  <PUBCHEM_BOND_UDEF_STEREO_COUNT>  (1) 
0

>  <PUBCHEM_ISOTOPIC_ATOM_COUNT>  (1) 
0

>  <PUBCHEM_COMPONENT_COUNT>  (1) 
1

>  <PUBCHEM_CACTVS_TAUTO_COUNT>  (1) 
3

>  <PUBCHEM_CONFORMER_ID>  (1) 
00000A8400000001

>  <PUBCHEM_MMFF94_ENERGY>  (1) 
49.5672

>  <PUBCHEM_FEATURE_SELFOVERLAP>  (1) 
81.808

>  <PUBCHEM_SHAPE_FINGERPRINT>  (1) 
11089746 13 15357692011392480884
11963148 33 18201997746171166159
12166972 35 18186526522382442453
12236239 1 18260833691667602384
12422481 6 16486976146200344015
13150687 139 18057625333790446796
13533116 47 18410857642689207010
13782708 43 16702303433947779166
13862211 1 18272647956919260251
14347332 77 18340487746974796454
14528608 73 17603584153269951191
15183329 4 17022894632075333413
15348495 7 12031781483245374847
17349148 13 18341337725081370849
17492 89 18127134074463660006
17857418 61 18272929388793466522
1813 80 17560805463333084009
18222031 100 18060415837242969393
200 152 18410855451907719913
20028762 73 17560797779562752191
21033648 29 15647054910201285941
21267235 1 18341059557287643539
21641784 216 18260841366637745005
22061861 79 18187080654920920679
23081809 10 18342177747891583659
23402539 116 18272931605370734953
23522609 53 17984735343781201041
23559900 14 18259704514500220776
25147074 1 18268717104081531497
2767999 5 12107780826737787823
2838139 119 15285348518661618373
2916195 48 13407077028610827549
29717793 49 18335138657376167942
3004659 81 18260264140433986226
312425 54 14692576524414163087
314194 84 18343023315473193371
34797466 226 16733275633025473399
397830 11 14404889332612936547
4015057 19 18187654634387437689
4098825 35 17894628107575229845
465052 167 18060704996127130198
5104073 3 18130786694818642616
59682541 52 16298653997834251306
6328613 192 10665240241108008718
6669772 16 18053936531306343928
7495541 125 17346590872630583184

>  <PUBCHEM_SHAPE_MULTIPOLES>  (1) 
466.11
15.63
2.3
1.31
5.1
0.04
-0.57
7.96
-5.32
-1.08
0.33
0.44
-0.1
-1.28

>  <PUBCHEM_SHAPE_SELFOVERLAP>  (1) 
999.833

>  <PUBCHEM_SHAPE_VOLUME>  (1) 
253.7

>  <PUBCHEM_COORDINATE_TYPE>  (1) 
2
5
10

$$$$
