26937
     RDKit          3D

 17 17  0  0  1  0  0  0  0  0999 V2000
    6.0122   -0.4239    0.2051 Cl  0  0  0  0  0  0  0  0  0  0  0  0
   -0.2213    1.7117    1.0515 O   0  0  0  0  0  0  0  0  0  0  0  0
   -4.4272   -0.4159   -0.3977 N   0  0  0  0  0  0  0  0  0  0  0  0
   -0.7429    0.4630    0.5697 C   0  0  0  0  0  0  0  0  0  0  0  0
   -2.2479    0.6995    0.1775 C   0  0  0  0  0  0  0  0  0  0  0  0
    0.0937    0.0486   -0.6741 C   0  0  0  0  0  0  0  0  0  0  0  0
   -3.0004   -0.6125   -0.1473 C   0  0  0  0  0  0  0  0  0  0  0  0
   -0.5896   -0.5474    1.7140 C   0  0  0  0  0  0  0  0  0  0  0  0
   -2.3976    1.7154   -0.9729 C   0  0  0  0  0  0  0  0  0  0  0  0
    1.5864   -0.0702   -0.4520 C   0  0  0  0  0  0  0  0  0  0  0  0
   -5.0904    0.1005    0.7995 C   0  0  0  0  0  0  0  0  0  0  0  0
   -5.0491   -1.6685   -0.8258 C   0  0  0  0  0  0  0  0  0  0  0  0
    2.3889    1.0399   -0.6484 C   0  0  0  0  0  0  0  0  0  0  0  0
    2.1152   -1.2864   -0.0572 C   0  0  0  0  0  0  0  0  0  0  0  0
    3.7643    0.9302   -0.4437 C   0  0  0  0  0  0  0  0  0  0  0  0
    3.4906   -1.3962    0.1476 C   0  0  0  0  0  0  0  0  0  0  0  0
    4.3151   -0.2879   -0.0458 C   0  0  0  0  0  0  0  0  0  0  0  0
  1 17  1  0
  2  4  1  0
  3  7  1  0
  3 11  1  0
  3 12  1  0
  4  5  1  0
  4  6  1  0
  4  8  1  0
  5  7  1  0
  5  9  1  0
  6 10  1  0
 10 13  2  0
 10 14  1  0
 13 15  1  0
 14 16  2  0
 15 17  2  0
 16 17  1  0
M  END
>  <PUBCHEM_COMPOUND_CID>  (1) 
26937

>  <PUBCHEM_CONFORMER_RMSD>  (1) 
0.6

>  <PUBCHEM_CONFORMER_DIVERSEORDER>  (1) 
1
21
48
51
9
17
34
36
45
33
43
39
23
20
49
44
24
31
6
18
46
26
27
22
40
47
37
30
4
5
42
28
52
2
50
35
12
38
41
19
32
14
7
15
25
8
3
16
11
10
29
13

>  <PUBCHEM_MMFF94_PARTIAL_CHARGES>  (1) 
19
1 -0.18
10 -0.14
11 0.27
12 0.27
13 -0.15
14 -0.15
15 -0.15
16 -0.15
17 0.18
2 -0.68
29 0.4
3 -0.81
36 0.15
37 0.15
38 0.15
39 0.15
4 0.28
6 0.14
7 0.27

>  <PUBCHEM_EFFECTIVE_ROTOR_COUNT>  (1) 
5

>  <PUBCHEM_PHARMACOPHORE_FEATURES>  (1) 
5
1 2 acceptor
1 2 donor
1 3 cation
1 9 hydrophobe
6 10 13 14 15 16 17 rings

>  <PUBCHEM_HEAVY_ATOM_COUNT>  (1) 
17

>  <PUBCHEM_ATOM_DEF_STEREO_COUNT>  (1) 
0

>  <PUBCHEM_ATOM_UDEF_STEREO_COUNT>  (1) 
2

>  <PUBCHEM_BOND_DEF_STEREO_COUNT>  (1) 
0

>  <PUBCHEM_BOND_UDEF_STEREO_COUNT>  (1) 
0

>  <PUBCHEM_ISOTOPIC_ATOM_COUNT>  (1) 
0

>  <PUBCHEM_COMPONENT_COUNT>  (1) 
1

>  <PUBCHEM_CACTVS_TAUTO_COUNT>  (1) 
1

>  <PUBCHEM_CONFORMER_ID>  (1) 
0000693900000001

>  <PUBCHEM_MMFF94_ENERGY>  (1) 
48.2216

>  <PUBCHEM_FEATURE_SELFOVERLAP>  (1) 
25.371

>  <PUBCHEM_SHAPE_FINGERPRINT>  (1) 
10354089 29 10159699109734712950
10366900 7 18186811279267827480
11045515 52 18408040693329801717
11089746 13 11241974801992546406
11132069 177 13470680430265919817
12236239 1 18202003231233564694
12403260 363 18113898252061458044
124424 183 16371012892987386460
128620 24 18059858359188399596
13167823 11 18410855443059380871
13288520 33 18272089383347349711
13533116 47 17968087591697179538
13675066 3 14764350444462355369
14252887 29 15051744096164612869
14943859 89 13334739041679891041
15048467 5 17703797981570296105
17349148 13 18040716961297441816
17492 89 18268710502532739462
17834072 33 18335422374615931652
1813 80 15841555192755065369
18186145 218 16732983150258605661
187816 3 17385724703355522145
19433438 38 18187080616160505572
19784866 170 13039189207900394532
200 152 18411982451125528666
20279233 1 17386016048504728242
20281475 54 18343018917669067239
20645477 70 18041282088857765810
21267235 1 18410582773155906710
22485316 2 18272370871673146831
23402539 116 17967249789105308141
23402655 69 18187643553208062517
23557571 272 18201442432621246408
23559900 14 17822859804864303004
26918003 58 18334017198143873066
293599 30 7925914785617634126
3268164 11 17023177202627323461
3286 77 18412542136872721884
347723 3 16153425034844636309
351380 180 18040715870338831836
4214541 1 18335701602939975373
474229 33 18273493485592956942
4990 188 15285359517946327347
5104073 3 18264486200602056392
69090 78 18187085065609701499
7495541 125 17988921223070038704
83771 10 18344143709353099605
9709674 26 18260838055175390826

>  <PUBCHEM_SHAPE_MULTIPOLES>  (1) 
340.87
11.71
1.53
1.08
0.46
0.14
0.27
-3.51
-0.97
-0.43
-0.19
-0.65
0.01
-0.51

>  <PUBCHEM_SHAPE_SELFOVERLAP>  (1) 
674.278

>  <PUBCHEM_SHAPE_VOLUME>  (1) 
206.1

>  <PUBCHEM_COORDINATE_TYPE>  (1) 
2
5
10

$$$$
