26940
     RDKit          3D

 16 17  0  0  0  0  0  0  0  0999 V2000
    1.8124    2.7161   -0.8631 Cl  0  0  0  0  0  0  0  0  0  0  0  0
    4.8348   -1.7262   -0.4774 Cl  0  0  0  0  0  0  0  0  0  0  0  0
   -0.1146    1.1531    0.8327 O   0  0  0  0  0  0  0  0  0  0  0  0
   -4.9061   -1.1341   -0.8214 N   0  0  0  0  0  0  0  0  0  0  0  0
   -1.2868    0.5924    0.4281 C   0  0  0  0  0  0  0  0  0  0  0  0
    1.0596    0.4927    0.5116 C   0  0  0  0  0  0  0  0  0  0  0  0
   -1.4115    0.0962   -0.8696 C   0  0  0  0  0  0  0  0  0  0  0  0
   -2.3642    0.5155    1.3108 C   0  0  0  0  0  0  0  0  0  0  0  0
   -3.6908   -0.5538   -0.4022 C   0  0  0  0  0  0  0  0  0  0  0  0
    2.0232    1.1120   -0.2649 C   0  0  0  0  0  0  0  0  0  0  0  0
    1.2329   -0.7947    0.9910 C   0  0  0  0  0  0  0  0  0  0  0  0
   -2.6135   -0.4768   -1.2848 C   0  0  0  0  0  0  0  0  0  0  0  0
   -3.5663   -0.0576    0.8955 C   0  0  0  0  0  0  0  0  0  0  0  0
    3.1967    0.4231   -0.5722 C   0  0  0  0  0  0  0  0  0  0  0  0
    2.4061   -1.4834    0.6837 C   0  0  0  0  0  0  0  0  0  0  0  0
    3.3881   -0.8746   -0.0979 C   0  0  0  0  0  0  0  0  0  0  0  0
  1 10  1  0
  2 16  1  0
  3  5  1  0
  3  6  1  0
  4  9  1  0
  5  7  2  0
  5  8  1  0
  6 10  2  0
  6 11  1  0
  7 12  1  0
  8 13  2  0
  9 12  2  0
  9 13  1  0
 10 14  1  0
 11 15  2  0
 14 16  2  0
 15 16  1  0
M  END
>  <PUBCHEM_COMPOUND_CID>  (1) 
26940

>  <PUBCHEM_CONFORMER_RMSD>  (1) 
0.6

>  <PUBCHEM_CONFORMER_DIVERSEORDER>  (1) 
1
2
5
6
7
3
4

>  <PUBCHEM_MMFF94_PARTIAL_CHARGES>  (1) 
25
1 -0.18
10 0.18
11 -0.15
12 -0.15
13 -0.15
14 -0.15
15 -0.15
16 0.18
17 0.15
18 0.15
19 0.15
2 -0.18
20 0.15
21 0.15
22 0.15
23 0.15
24 0.4
25 0.4
3 -0.17
4 -0.9
5 0.08
6 0.08
7 -0.15
8 -0.15
9 0.1

>  <PUBCHEM_EFFECTIVE_ROTOR_COUNT>  (1) 
2

>  <PUBCHEM_PHARMACOPHORE_FEATURES>  (1) 
5
1 3 acceptor
1 4 cation
1 4 donor
6 5 7 8 9 12 13 rings
6 6 10 11 14 15 16 rings

>  <PUBCHEM_HEAVY_ATOM_COUNT>  (1) 
16

>  <PUBCHEM_ATOM_DEF_STEREO_COUNT>  (1) 
0

>  <PUBCHEM_ATOM_UDEF_STEREO_COUNT>  (1) 
0

>  <PUBCHEM_BOND_DEF_STEREO_COUNT>  (1) 
0

>  <PUBCHEM_BOND_UDEF_STEREO_COUNT>  (1) 
0

>  <PUBCHEM_ISOTOPIC_ATOM_COUNT>  (1) 
0

>  <PUBCHEM_COMPONENT_COUNT>  (1) 
1

>  <PUBCHEM_CACTVS_TAUTO_COUNT>  (1) 
1

>  <PUBCHEM_CONFORMER_ID>  (1) 
0000693C00000001

>  <PUBCHEM_MMFF94_ENERGY>  (1) 
59.6873

>  <PUBCHEM_FEATURE_SELFOVERLAP>  (1) 
25.371

>  <PUBCHEM_SHAPE_FINGERPRINT>  (1) 
10366900 7 17168142330086631399
10498660 4 14201396084156866679
11046707 91 17989204806865252474
11471102 20 18259705622760044672
11578080 2 18129639942445690328
11615757 297 18335422374167609923
11806522 49 18341892983386616648
12236239 1 18202005425460744952
12251169 10 13758064208234041322
12553582 1 18261674762038495898
13288520 33 17845938429366525342
13581323 91 16917349233801680393
14252887 29 13398641549511302988
14576447 43 18409448060055579642
15477762 27 18409166623617023500
16752209 62 17632006482273155597
16945 1 18187083970540604224
17804303 29 16774078470845919155
1813 80 18270130011193912598
18186145 218 17313104163675198497
18915474 69 18271805773819645095
193927 3 18201167576474138198
19422 9 18273220815346168817
19784866 170 12031786968240410474
19784866 240 18343865502561788279
200 152 18408322172553181939
20279233 1 17167858686040530329
20361792 2 18340478997957797836
20388580 30 18411983563727806428
20600515 1 16629696032567373512
20645477 70 18334571382179761111
20671657 53 18334857178109803668
20715895 44 7995489678586014823
21634736 98 18339079405803112622
21713013 43 18040992977492486919
22112679 90 17917161540891368057
221490 88 18115882960590945762
2255824 54 18338520841148262212
22646028 28 18202561774102374679
232386 152 17418370307132356252
23402539 116 18265336114843283290
23598291 2 18341908367442973828
2838139 119 14130495245677985102
296302 2 9439400216025618087
3060560 45 17967525800841549934
312423 11 18341907311165719281
4028521 119 14129059196954076079
42 15 17132114628200003383
465052 167 17988082326602048119
474 4 17982446298269528912
7364860 26 18271240638055067160
77492 1 18202012044179648881

>  <PUBCHEM_SHAPE_MULTIPOLES>  (1) 
322.16
8.52
1.87
1.21
2.01
1.02
-0.02
-4.6
2.03
-2.05
0.36
0.75
-0.03
-0.67

>  <PUBCHEM_SHAPE_SELFOVERLAP>  (1) 
678.352

>  <PUBCHEM_SHAPE_VOLUME>  (1) 
183.6

>  <PUBCHEM_COORDINATE_TYPE>  (1) 
2
5
10

$$$$
