26965
     RDKit          3D

 14 14  0  0  0  0  0  0  0  0999 V2000
    0.2478    0.9619   -0.3295 Si  0  0  0  0  0  4  0  0  0  0  0  0
    2.9678   -0.5595    0.2396 Si  0  0  0  0  0  4  0  0  0  0  0  0
    1.3313   -0.2347    0.1050 O   0  0  0  0  0  0  0  0  0  0  0  0
   -1.4757    0.2093   -0.0860 C   0  0  0  0  0  0  0  0  0  0  0  0
    0.4492    1.4215   -2.1403 C   0  0  0  0  0  0  0  0  0  0  0  0
    0.4718    2.5074    0.7052 C   0  0  0  0  0  0  0  0  0  0  0  0
    3.7971    0.6230    1.4446 C   0  0  0  0  0  0  0  0  0  0  0  0
    3.8237   -0.4051   -1.4280 C   0  0  0  0  0  0  0  0  0  0  0  0
    3.2244   -2.3144    0.8703 C   0  0  0  0  0  0  0  0  0  0  0  0
   -1.8083   -0.9304   -0.7873 C   0  0  0  0  0  0  0  0  0  0  0  0
   -2.3516    0.8215    0.7853 C   0  0  0  0  0  0  0  0  0  0  0  0
   -3.0762   -1.4838   -0.6090 C   0  0  0  0  0  0  0  0  0  0  0  0
   -3.6195    0.2680    0.9637 C   0  0  0  0  0  0  0  0  0  0  0  0
   -3.9817   -0.8847    0.2665 C   0  0  0  0  0  0  0  0  0  0  0  0
  1  3  1  0
  1  4  1  0
  1  5  1  0
  1  6  1  0
  2  3  1  0
  2  7  1  0
  2  8  1  0
  2  9  1  0
  4 10  2  0
  4 11  1  0
 10 12  1  0
 11 13  2  0
 12 14  2  0
 13 14  1  0
M  END
>  <PUBCHEM_COMPOUND_CID>  (1) 
26965

>  <PUBCHEM_CONFORMER_RMSD>  (1) 
0.6

>  <PUBCHEM_CONFORMER_DIVERSEORDER>  (1) 
4
6
7
5
1
3
2

>  <PUBCHEM_MMFF94_PARTIAL_CHARGES>  (1) 
19
1 0.68
10 -0.15
11 -0.15
12 -0.15
13 -0.15
14 -0.15
2 0.54
3 -0.59
30 0.15
31 0.15
32 0.15
33 0.15
34 0.15
4 -0.22
5 -0.08
6 -0.08
7 -0.08
8 -0.08
9 -0.08

>  <PUBCHEM_EFFECTIVE_ROTOR_COUNT>  (1) 
3

>  <PUBCHEM_PHARMACOPHORE_FEATURES>  (1) 
1
6 4 10 11 12 13 14 rings

>  <PUBCHEM_HEAVY_ATOM_COUNT>  (1) 
14

>  <PUBCHEM_ATOM_DEF_STEREO_COUNT>  (1) 
0

>  <PUBCHEM_ATOM_UDEF_STEREO_COUNT>  (1) 
0

>  <PUBCHEM_BOND_DEF_STEREO_COUNT>  (1) 
0

>  <PUBCHEM_BOND_UDEF_STEREO_COUNT>  (1) 
0

>  <PUBCHEM_ISOTOPIC_ATOM_COUNT>  (1) 
0

>  <PUBCHEM_COMPONENT_COUNT>  (1) 
1

>  <PUBCHEM_CACTVS_TAUTO_COUNT>  (1) 
1

>  <PUBCHEM_CONFORMER_ID>  (1) 
0000695500000004

>  <PUBCHEM_MMFF94_ENERGY>  (1) 
16.1799

>  <PUBCHEM_FEATURE_SELFOVERLAP>  (1) 
5.074

>  <PUBCHEM_SHAPE_FINGERPRINT>  (1) 
10618630 7 18188206507588293690
11132069 177 18343578542774462976
11578080 2 18261658320899178700
12251169 10 17988640847773864681
12507560 40 17132114645437745624
12553582 1 18334579048638452934
12616999 72 17531258266032508278
12633257 1 17559680538109121666
12932764 1 18339921524446147634
13296908 3 18411974733132653328
14252887 29 18060142063453739738
14787075 74 18197777902653762376
15342816 4 18411136948348912550
15375462 189 18408891728255949274
15375462 478 17560797766603671809
16945 1 18186519929776213932
17804303 29 18060708277334236691
1813 80 18040437681001722252
18175812 5 16917353614805641428
18522851 12 18409455752025430706
19107657 47 13686300136487809802
19422 9 18188497869421438234
200 152 16226044470998043904
20281407 28 18260825981879442140
20281475 54 18260830397074349314
20291156 8 18409451353915349842
20339313 130 17676211302937001565
20361792 2 17821725035395910997
204376 136 13758353392587520669
20653085 51 9150885131055821228
20671657 53 16587738720543450604
22445834 79 18341330084645878579
22485316 2 18409163294579590731
2255824 54 18116157859956791444
231179 274 11815628457864880579
232386 152 18272380809947966653
23402539 116 17095517358389986988
23526113 38 14924240334373188172
23557571 272 17459446906717161276
23559900 14 17632024065563518324
23598291 2 18269005326441372949
25 1 10591774224182351896
31174 14 18272073995102111552
7364860 26 17986395705012119856
81228 2 17242439530537005124
83771 10 18334013869712880590
90316 7 18271249313672876865
9882013 296 17988350572556701792

>  <PUBCHEM_SHAPE_MULTIPOLES>  (1) 
318.67
7.59
2.06
1.52
0.63
0.16
0.47
-3.63
-1.54
-0.62
-0.18
-0.77
0.45
-0.47

>  <PUBCHEM_SHAPE_SELFOVERLAP>  (1) 
597.326

>  <PUBCHEM_SHAPE_VOLUME>  (1) 
199.4

>  <PUBCHEM_COORDINATE_TYPE>  (1) 
2
5
10

$$$$
