26970
     RDKit          3D

  8  8  0  0  1  0  0  0  0  0999 V2000
   -2.1478    0.9960   -0.2270 O   0  0  0  0  0  0  0  0  0  0  0  0
   -1.0925    0.4009    0.5096 C   0  0  0  0  0  0  0  0  0  0  0  0
   -1.9058   -0.4016   -0.4337 C   0  0  0  0  0  0  0  0  0  0  0  0
    0.2737    0.8953    0.0618 C   0  0  0  0  0  0  0  0  0  0  0  0
    1.3488   -0.1726    0.2612 C   0  0  0  0  0  0  0  0  0  0  0  0
   -2.9705   -1.2785    0.1056 C   0  0  0  0  0  0  0  0  0  0  0  0
    2.7142    0.3160   -0.2215 C   0  0  0  0  0  0  0  0  0  0  0  0
    3.7800   -0.7555   -0.0560 C   0  0  0  0  0  0  0  0  0  0  0  0
  1  2  1  0
  1  3  1  0
  2  3  1  0
  2  4  1  0
  3  6  1  0
  4  5  1  0
  5  7  1  0
  7  8  1  0
M  END
>  <PUBCHEM_COMPOUND_CID>  (1) 
26970

>  <PUBCHEM_CONFORMER_RMSD>  (1) 
0.6

>  <PUBCHEM_CONFORMER_DIVERSEORDER>  (1) 
2
45
46
7
5
47
37
33
3
48
29
42
20
10
23
22
12
38
31
26
34
17
18
30
36
32
1
44
19
25
27
43
24
40
9
11
39
41
16
28
35
15
14
4
6
21
13
8

>  <PUBCHEM_MMFF94_PARTIAL_CHARGES>  (1) 
7
1 -0.3
10 0.1
2 -0.05
3 -0.05
4 0.09
6 0.09
9 0.1

>  <PUBCHEM_EFFECTIVE_ROTOR_COUNT>  (1) 
3.6

>  <PUBCHEM_PHARMACOPHORE_FEATURES>  (1) 
2
1 1 acceptor
1 8 hydrophobe

>  <PUBCHEM_HEAVY_ATOM_COUNT>  (1) 
8

>  <PUBCHEM_ATOM_DEF_STEREO_COUNT>  (1) 
0

>  <PUBCHEM_ATOM_UDEF_STEREO_COUNT>  (1) 
2

>  <PUBCHEM_BOND_DEF_STEREO_COUNT>  (1) 
0

>  <PUBCHEM_BOND_UDEF_STEREO_COUNT>  (1) 
0

>  <PUBCHEM_ISOTOPIC_ATOM_COUNT>  (1) 
0

>  <PUBCHEM_COMPONENT_COUNT>  (1) 
1

>  <PUBCHEM_CACTVS_TAUTO_COUNT>  (1) 
1

>  <PUBCHEM_CONFORMER_ID>  (1) 
0000695A00000002

>  <PUBCHEM_MMFF94_ENERGY>  (1) 
4.1805

>  <PUBCHEM_FEATURE_SELFOVERLAP>  (1) 
10.148

>  <PUBCHEM_SHAPE_FINGERPRINT>  (1) 
12897270 3 18040992955626785894
12932764 1 17603579703852786984
14325111 11 18410293605866174120
14390081 3 7781522511689341183
177051 138 18343021086474798326
21293036 1 14707206655960471363
23552423 10 18260547831202104888
29004967 10 16845857888431450640
3248919 1 17489873704687357164

>  <PUBCHEM_SHAPE_MULTIPOLES>  (1) 
158.77
5.85
1.14
0.69
3.25
0.09
-0.01
2.21
0.34
-0.48
0
-0.05
0
0.02

>  <PUBCHEM_SHAPE_SELFOVERLAP>  (1) 
290.984

>  <PUBCHEM_SHAPE_VOLUME>  (1) 
103.1

>  <PUBCHEM_COORDINATE_TYPE>  (1) 
2
5
10

$$$$
