26977
     RDKit          3D

 29 31  0  0  1  0  0  0  0  0999 V2000
   -2.0543    0.6063    0.3052 O   0  0  0  0  0  0  0  0  0  0  0  0
   -0.9727    2.4561    1.1231 O   0  0  0  0  0  0  0  0  0  0  0  0
   -0.3889   -4.0435    0.0127 N   0  0  0  0  0  0  0  0  0  0  0  0
    0.2134    0.9839   -0.4520 C   0  0  0  0  0  0  0  0  0  0  0  0
    0.4215    2.1088   -1.5509 C   0  0  0  0  0  0  0  0  0  0  0  0
   -0.1059   -0.4092   -1.1079 C   0  0  0  0  0  0  0  0  0  0  0  0
   -3.2192    0.9713    1.0426 C   0  0  0  0  0  0  0  0  0  0  0  0
    1.4410    0.7553    0.4761 C   0  0  0  0  0  0  0  0  0  0  0  0
   -0.9838    1.4421    0.4316 C   0  0  0  0  0  0  0  0  0  0  0  0
   -3.9574   -0.3023    1.4544 C   0  0  0  0  0  0  0  0  0  0  0  0
   -4.1039    1.8859    0.1938 C   0  0  0  0  0  0  0  0  0  0  0  0
   -0.0404   -1.6215   -0.1635 C   0  0  0  0  0  0  0  0  0  0  0  0
   -4.5635   -1.0315    0.2547 C   0  0  0  0  0  0  0  0  0  0  0  0
   -4.7070    1.1528   -1.0047 C   0  0  0  0  0  0  0  0  0  0  0  0
   -5.4509   -0.1085   -0.5753 C   0  0  0  0  0  0  0  0  0  0  0  0
    0.7584    3.4951   -0.9678 C   0  0  0  0  0  0  0  0  0  0  0  0
   -0.7674    2.2868   -2.5124 C   0  0  0  0  0  0  0  0  0  0  0  0
    2.6842    0.3344   -0.0239 C   0  0  0  0  0  0  0  0  0  0  0  0
   -0.4634   -2.9003   -0.8895 C   0  0  0  0  0  0  0  0  0  0  0  0
    1.2634    0.9855    1.8407 C   0  0  0  0  0  0  0  0  0  0  0  0
    3.7622    0.1445    0.8732 C   0  0  0  0  0  0  0  0  0  0  0  0
    2.3237    0.7992    2.7226 C   0  0  0  0  0  0  0  0  0  0  0  0
    2.8810    0.0977   -1.3941 C   0  0  0  0  0  0  0  0  0  0  0  0
    3.5656    0.3814    2.2435 C   0  0  0  0  0  0  0  0  0  0  0  0
    5.0054   -0.2763    0.3735 C   0  0  0  0  0  0  0  0  0  0  0  0
    4.1230   -0.3203   -1.8731 C   0  0  0  0  0  0  0  0  0  0  0  0
   -0.2972   -5.2927   -0.7450 C   0  0  0  0  0  0  0  0  0  0  0  0
   -1.5504   -4.0739    0.9032 C   0  0  0  0  0  0  0  0  0  0  0  0
    5.1832   -0.5071   -0.9909 C   0  0  0  0  0  0  0  0  0  0  0  0
  1  7  1  0
  1  9  1  0
  2  9  2  0
  3 19  1  0
  3 27  1  0
  3 28  1  0
  4  5  1  0
  4  6  1  0
  4  8  1  0
  4  9  1  0
  5 16  1  0
  5 17  1  0
  6 12  1  0
  7 10  1  0
  7 11  1  0
  8 18  1  0
  8 20  2  0
 10 13  1  0
 11 14  1  0
 12 19  1  0
 13 15  1  0
 14 15  1  0
 18 21  2  0
 18 23  1  0
 20 22  1  0
 21 24  1  0
 21 25  1  0
 22 24  2  0
 23 26  2  0
 25 29  2  0
 26 29  1  0
M  END
>  <PUBCHEM_COMPOUND_CID>  (1) 
26977

>  <PUBCHEM_CONFORMER_RMSD>  (1) 
1

>  <PUBCHEM_CONFORMER_DIVERSEORDER>  (1) 
1
71
40
33
56
52
53
88
21
42
29
61
50
49
13
27
28
57
73
19
72
74
10
91
41
75
58
46
77
82
83
67
89
95
38
78
84
34
44
5
97
66
16
24
63
86
92
12
6
59
55
80
31
65
62
2
69
18
90
37
9
43
60
81
17
23
25
76
68
47
7
3
30
35
93
4
36
15
54
48
39
11
79
22
45
51
94
85
32
96
64
20
70
87
14
8
26

>  <PUBCHEM_MMFF94_PARTIAL_CHARGES>  (1) 
24
1 -0.43
19 0.27
2 -0.57
20 -0.15
22 -0.15
23 -0.15
24 -0.15
25 -0.15
26 -0.15
27 0.27
28 0.27
29 -0.15
3 -0.81
4 0.2
54 0.15
55 0.15
56 0.15
57 0.15
58 0.15
59 0.15
66 0.15
7 0.28
8 -0.14
9 0.66

>  <PUBCHEM_EFFECTIVE_ROTOR_COUNT>  (1) 
10.2

>  <PUBCHEM_PHARMACOPHORE_FEATURES>  (1) 
7
1 2 acceptor
1 3 cation
3 5 16 17 hydrophobe
4 4 5 6 12 hydrophobe
6 18 21 23 25 26 29 rings
6 7 10 11 13 14 15 rings
6 8 18 20 21 22 24 rings

>  <PUBCHEM_HEAVY_ATOM_COUNT>  (1) 
29

>  <PUBCHEM_ATOM_DEF_STEREO_COUNT>  (1) 
0

>  <PUBCHEM_ATOM_UDEF_STEREO_COUNT>  (1) 
1

>  <PUBCHEM_BOND_DEF_STEREO_COUNT>  (1) 
0

>  <PUBCHEM_BOND_UDEF_STEREO_COUNT>  (1) 
0

>  <PUBCHEM_ISOTOPIC_ATOM_COUNT>  (1) 
0

>  <PUBCHEM_COMPONENT_COUNT>  (1) 
1

>  <PUBCHEM_CACTVS_TAUTO_COUNT>  (1) 
1

>  <PUBCHEM_CONFORMER_ID>  (1) 
0000696100000001

>  <PUBCHEM_MMFF94_ENERGY>  (1) 
94.6328

>  <PUBCHEM_FEATURE_SELFOVERLAP>  (1) 
35.565

>  <PUBCHEM_SHAPE_FINGERPRINT>  (1) 
10940486 97 18120941861008933646
11578080 2 12605391244874066922
12236239 1 17530687589459126240
13583140 156 17060051498176506661
13782708 43 18058457500255784918
14178342 30 18269569273349427001
14787075 74 17703796894606050564
15219462 58 17769356250275286681
1601671 61 18260267417219817317
17349148 13 18409450297828265577
18222031 100 18335416876572970045
18681886 176 18334580182525981057
20028762 73 18200876287856145111
20511986 3 17385435561820250044
20600515 1 18049415305042960976
21033648 29 18273206508831562833
21330990 113 18339362959301050668
22393880 68 17916575454613527397
22956985 138 17829602860264103491
23559900 14 18272374208509860160
3052486 1 18335420235290195090
3383291 50 17986675862289238638
602551 16 18411981394764177178
81228 2 18196629995118054886

>  <PUBCHEM_SHAPE_MULTIPOLES>  (1) 
580.09
9.29
4.43
2.11
2.37
7.27
0.44
-0.91
0.26
2.49
-1.34
-1.52
-0.94
0.64

>  <PUBCHEM_SHAPE_SELFOVERLAP>  (1) 
1212.811

>  <PUBCHEM_SHAPE_VOLUME>  (1) 
328.6

>  <PUBCHEM_COORDINATE_TYPE>  (1) 
2
5
10

$$$$
