26979
     RDKit          3D

  4  3  0  0  0  0  0  0  0  0999 V2000
    0.0000    0.0222    0.4359 P   0  0  0  0  0  0  0  0  0  0  0  0
    1.2717   -0.7183   -0.1423 F   0  0  0  0  0  0  0  0  0  0  0  0
   -1.2732   -0.7158   -0.1423 F   0  0  0  0  0  0  0  0  0  0  0  0
    0.0015    1.4118   -0.1514 O   0  0  0  0  0  0  0  0  0  0  0  0
  1  2  1  0
  1  3  1  0
  1  4  2  0
M  END
>  <PUBCHEM_COMPOUND_CID>  (1) 
26979

>  <PUBCHEM_CONFORMER_RMSD>  (1) 
0.4

>  <PUBCHEM_CONFORMER_DIVERSEORDER>  (1) 
1

>  <PUBCHEM_MMFF94_PARTIAL_CHARGES>  (1) 
5
1 1.39
2 -0.33
3 -0.33
4 -0.7
5 -0.04

>  <PUBCHEM_EFFECTIVE_ROTOR_COUNT>  (1) 
0

>  <PUBCHEM_PHARMACOPHORE_FEATURES>  (1) 
1
1 4 acceptor

>  <PUBCHEM_HEAVY_ATOM_COUNT>  (1) 
4

>  <PUBCHEM_ATOM_DEF_STEREO_COUNT>  (1) 
0

>  <PUBCHEM_ATOM_UDEF_STEREO_COUNT>  (1) 
0

>  <PUBCHEM_BOND_DEF_STEREO_COUNT>  (1) 
0

>  <PUBCHEM_BOND_UDEF_STEREO_COUNT>  (1) 
0

>  <PUBCHEM_ISOTOPIC_ATOM_COUNT>  (1) 
0

>  <PUBCHEM_COMPONENT_COUNT>  (1) 
1

>  <PUBCHEM_CACTVS_TAUTO_COUNT>  (1) 
2

>  <PUBCHEM_CONFORMER_ID>  (1) 
0000696300000001

>  <PUBCHEM_MMFF94_ENERGY>  (1) 
0.1597

>  <PUBCHEM_FEATURE_SELFOVERLAP>  (1) 
5.074

>  <PUBCHEM_SHAPE_FINGERPRINT>  (1) 
139733 1 8718827591345325459
21015797 1 8862128002681818817
5943 1 13324558693451209113

>  <PUBCHEM_SHAPE_MULTIPOLES>  (1) 
65.75
1.21
1.21
0.63
0.03
0.44
-0.1
-0.48
0.11
-0.03
0.11
0
0.01
0

>  <PUBCHEM_SHAPE_SELFOVERLAP>  (1) 
101.722

>  <PUBCHEM_SHAPE_VOLUME>  (1) 
47.8

>  <PUBCHEM_COORDINATE_TYPE>  (1) 
2
5
10

$$$$
