26978
     RDKit          3D

 26 27  0  0  1  0  0  0  0  0999 V2000
   -2.5751    0.9497   -0.0098 O   0  0  0  0  0  0  0  0  0  0  0  0
   -1.3992    2.7268    0.8380 O   0  0  0  0  0  0  0  0  0  0  0  0
   -1.3238   -3.8372   -0.0126 N   0  0  0  0  0  0  0  0  0  0  0  0
   -0.2280    1.0950   -0.5832 C   0  0  0  0  0  0  0  0  0  0  0  0
    0.1713    2.1532   -1.6955 C   0  0  0  0  0  0  0  0  0  0  0  0
   -0.6188   -0.2889   -1.2195 C   0  0  0  0  0  0  0  0  0  0  0  0
    0.8936    0.7951    0.4525 C   0  0  0  0  0  0  0  0  0  0  0  0
   -0.7418   -1.4643   -0.2351 C   0  0  0  0  0  0  0  0  0  0  0  0
   -1.4464    1.6915    0.1805 C   0  0  0  0  0  0  0  0  0  0  0  0
   -0.9138    2.3979   -2.7597 C   0  0  0  0  0  0  0  0  0  0  0  0
    0.5847    3.5260   -1.1301 C   0  0  0  0  0  0  0  0  0  0  0  0
    2.1297    0.2464    0.0736 C   0  0  0  0  0  0  0  0  0  0  0  0
   -1.2193   -2.7281   -0.9536 C   0  0  0  0  0  0  0  0  0  0  0  0
    0.6268    1.0935    1.7891 C   0  0  0  0  0  0  0  0  0  0  0  0
    3.1089   -0.0028    1.0644 C   0  0  0  0  0  0  0  0  0  0  0  0
    1.5900    0.8486    2.7634 C   0  0  0  0  0  0  0  0  0  0  0  0
    2.4154   -0.0602   -1.2669 C   0  0  0  0  0  0  0  0  0  0  0  0
    2.8235    0.3040    2.4049 C   0  0  0  0  0  0  0  0  0  0  0  0
    4.3451   -0.5513    0.6857 C   0  0  0  0  0  0  0  0  0  0  0  0
    3.6488   -0.6050   -1.6251 C   0  0  0  0  0  0  0  0  0  0  0  0
   -3.7621    1.4467    0.6163 C   0  0  0  0  0  0  0  0  0  0  0  0
   -0.0037   -4.4089    0.2586 C   0  0  0  0  0  0  0  0  0  0  0  0
   -2.2269   -4.8675   -0.5284 C   0  0  0  0  0  0  0  0  0  0  0  0
    4.6118   -0.8502   -0.6507 C   0  0  0  0  0  0  0  0  0  0  0  0
   -4.8913    0.5208    0.3070 C   0  0  0  0  0  0  0  0  0  0  0  0
   -5.5994   -0.1305    1.2364 C   0  0  0  0  0  0  0  0  0  0  0  0
  1  9  1  0
  1 21  1  0
  2  9  2  0
  3 13  1  0
  3 22  1  0
  3 23  1  0
  4  5  1  0
  4  6  1  0
  4  7  1  0
  4  9  1  0
  5 10  1  0
  5 11  1  0
  6  8  1  0
  7 12  2  0
  7 14  1  0
  8 13  1  0
 12 15  1  0
 12 17  1  0
 14 16  2  0
 15 18  2  0
 15 19  1  0
 16 18  1  0
 17 20  2  0
 19 24  2  0
 20 24  1  0
 21 25  1  0
 25 26  2  0
M  END
>  <PUBCHEM_COMPOUND_CID>  (1) 
26978

>  <PUBCHEM_CONFORMER_RMSD>  (1) 
1

>  <PUBCHEM_CONFORMER_DIVERSEORDER>  (1) 
1
72
46
31
10
65
53
24
42
61
18
56
19
74
9
5
23
36
17
3
52
62
34
8
57
71
73
39
67
60
70
75
43
12
69
35
11
66
49
26
50
16
37
58
21
33
45
40
2
4
29
7
20
64
51
15
30
44
13
32
27
28
54
47
14
63
48
55
68
6
59
41
76
38
22
25

>  <PUBCHEM_MMFF94_PARTIAL_CHARGES>  (1) 
29
1 -0.43
13 0.27
14 -0.15
16 -0.15
17 -0.15
18 -0.15
19 -0.15
2 -0.57
20 -0.15
21 0.42
22 0.27
23 0.27
24 -0.15
25 -0.29
26 -0.3
3 -0.81
4 0.2
40 0.15
41 0.15
42 0.15
43 0.15
44 0.15
45 0.15
54 0.15
55 0.15
56 0.15
57 0.15
7 -0.14
9 0.66

>  <PUBCHEM_EFFECTIVE_ROTOR_COUNT>  (1) 
10

>  <PUBCHEM_PHARMACOPHORE_FEATURES>  (1) 
7
1 2 acceptor
1 26 hydrophobe
1 3 cation
3 5 10 11 hydrophobe
4 4 5 6 8 hydrophobe
6 12 15 17 19 20 24 rings
6 7 12 14 15 16 18 rings

>  <PUBCHEM_HEAVY_ATOM_COUNT>  (1) 
26

>  <PUBCHEM_ATOM_DEF_STEREO_COUNT>  (1) 
0

>  <PUBCHEM_ATOM_UDEF_STEREO_COUNT>  (1) 
1

>  <PUBCHEM_BOND_DEF_STEREO_COUNT>  (1) 
0

>  <PUBCHEM_BOND_UDEF_STEREO_COUNT>  (1) 
0

>  <PUBCHEM_ISOTOPIC_ATOM_COUNT>  (1) 
0

>  <PUBCHEM_COMPONENT_COUNT>  (1) 
1

>  <PUBCHEM_CACTVS_TAUTO_COUNT>  (1) 
1

>  <PUBCHEM_CONFORMER_ID>  (1) 
0000696200000001

>  <PUBCHEM_MMFF94_ENERGY>  (1) 
94.0053

>  <PUBCHEM_FEATURE_SELFOVERLAP>  (1) 
35.565

>  <PUBCHEM_SHAPE_FINGERPRINT>  (1) 
10064457 181 18342736308214524155
1100329 8 18339369677083621343
11578080 2 17628652030504142096
12633257 1 17986082241429816498
12788726 201 17690560110617166171
133893 2 17040047868077596996
13692114 37 17988645263961198623
14787075 74 17775004552891036733
14866123 147 18412820283176464091
15219462 58 17768230333331019289
16945 1 18271815587920208116
18681886 176 18334868237798810029
19591789 44 18124036732395323654
200 152 16298392305735511232
20028762 73 18272937167739220159
20600515 1 18340761654092673988
20642791 13 17912063242864857650
20691752 17 18268971159691326244
21033648 29 18200864102843872881
21330990 113 18266463109407552221
21421861 104 17685778325588339883
21452121 199 17906729559640740182
22956985 138 17829329077906135827
23598288 3 17315607644135076096
3052486 1 18335980977540807411
465052 167 17895208709543557633
81228 2 18196346303674456030

>  <PUBCHEM_SHAPE_MULTIPOLES>  (1) 
518.35
7.46
4.71
2.22
3.87
6.7
0.39
0.83
2.32
3.82
-1.79
-1.2
-1.39
-0.08

>  <PUBCHEM_SHAPE_SELFOVERLAP>  (1) 
1074.964

>  <PUBCHEM_SHAPE_VOLUME>  (1) 
297.4

>  <PUBCHEM_COORDINATE_TYPE>  (1) 
2
5
10

$$$$
