26989
     RDKit          3D

  9  8  0  0  1  0  0  0  0  0999 V2000
   -0.6338    0.0957   -1.8327 O   0  0  0  0  0  0  0  0  0  0  0  0
   -0.0741    0.5670    0.4810 C   0  0  0  0  0  0  0  0  0  0  0  0
   -0.8359   -0.3636   -0.4945 C   0  0  0  0  0  0  0  0  0  0  0  0
    1.4469    0.6162    0.1959 C   0  0  0  0  0  0  0  0  0  0  0  0
   -2.3485   -0.4787   -0.2518 C   0  0  0  0  0  0  0  0  0  0  0  0
   -0.6149    2.0042    0.4528 C   0  0  0  0  0  0  0  0  0  0  0  0
    2.1339   -0.7495    0.2730 C   0  0  0  0  0  0  0  0  0  0  0  0
   -2.7108   -1.0659    1.1022 C   0  0  0  0  0  0  0  0  0  0  0  0
    3.6373   -0.6254    0.0741 C   0  0  0  0  0  0  0  0  0  0  0  0
  1  3  1  0
  2  3  1  0
  2  4  1  0
  2  6  1  0
  3  5  1  0
  4  7  1  0
  5  8  1  0
  7  9  1  0
M  END
>  <PUBCHEM_COMPOUND_CID>  (1) 
26989

>  <PUBCHEM_CONFORMER_RMSD>  (1) 
0.6

>  <PUBCHEM_CONFORMER_DIVERSEORDER>  (1) 
1
17
50
19
42
11
36
32
18
54
46
16
37
21
20
5
51
30
52
8
38
23
10
4
44
3
41
48
6
27
39
40
49
2
28
13
43
12
14
34
9
53
35
33
31
47
15
25
22
45
29
26
24
7

>  <PUBCHEM_MMFF94_PARTIAL_CHARGES>  (1) 
3
1 -0.68
27 0.4
3 0.28

>  <PUBCHEM_EFFECTIVE_ROTOR_COUNT>  (1) 
4

>  <PUBCHEM_PHARMACOPHORE_FEATURES>  (1) 
5
1 1 acceptor
1 1 donor
1 6 hydrophobe
1 8 hydrophobe
1 9 hydrophobe

>  <PUBCHEM_HEAVY_ATOM_COUNT>  (1) 
9

>  <PUBCHEM_ATOM_DEF_STEREO_COUNT>  (1) 
0

>  <PUBCHEM_ATOM_UDEF_STEREO_COUNT>  (1) 
2

>  <PUBCHEM_BOND_DEF_STEREO_COUNT>  (1) 
0

>  <PUBCHEM_BOND_UDEF_STEREO_COUNT>  (1) 
0

>  <PUBCHEM_ISOTOPIC_ATOM_COUNT>  (1) 
0

>  <PUBCHEM_COMPONENT_COUNT>  (1) 
1

>  <PUBCHEM_CACTVS_TAUTO_COUNT>  (1) 
1

>  <PUBCHEM_CONFORMER_ID>  (1) 
0000696D00000001

>  <PUBCHEM_MMFF94_ENERGY>  (1) 
7.7887

>  <PUBCHEM_FEATURE_SELFOVERLAP>  (1) 
25.373

>  <PUBCHEM_SHAPE_FINGERPRINT>  (1) 
12897270 3 16298379171572253418
12932764 1 17346022399771393842
14128692 85 17313959643724523611
14390081 3 11527680669271337163
20201158 50 18259701198717338026
20711983 138 18335976493510080458
20711985 344 18190722159869651657
20871998 184 17917429761814942996
21040471 1 15338293379436028925
21061003 4 18411696616830865920
21293036 1 12324246087223290747
23211744 25 13046217338118063813
23211744 41 12247418807691605259
25610 137 18335709389963518256
29004967 10 18337666537381795561

>  <PUBCHEM_SHAPE_MULTIPOLES>  (1) 
179.35
4.52
1.43
1.12
2.84
0.76
-0.39
-2.31
0.87
-0.35
0.33
-0.57
-0.09
0.18

>  <PUBCHEM_SHAPE_SELFOVERLAP>  (1) 
318.389

>  <PUBCHEM_SHAPE_VOLUME>  (1) 
118.3

>  <PUBCHEM_COORDINATE_TYPE>  (1) 
2
5
10

$$$$
