26982
     RDKit          3D

 10 11  0  0  0  0  0  0  0  0999 V2000
    3.4216   -0.0205    0.0001 N   0  0  0  0  0  0  0  0  0  0  0  0
   -0.0318    1.1195   -0.0023 C   0  0  0  0  0  0  0  0  0  0  0  0
   -1.3427   -1.1229    0.0023 C   0  0  0  0  0  0  0  0  0  0  0  0
   -0.9407    1.0381   -1.2509 C   0  0  0  0  0  0  0  0  0  0  0  0
   -0.9404    1.0432    1.2468 C   0  0  0  0  0  0  0  0  0  0  0  0
   -1.7196   -0.2984   -1.2485 C   0  0  0  0  0  0  0  0  0  0  0  0
   -1.7200   -0.2929    1.2496 C   0  0  0  0  0  0  0  0  0  0  0  0
    0.8464   -0.1207    0.0002 C   0  0  0  0  0  0  0  0  0  0  0  0
    0.1648   -1.2800    0.0027 C   0  0  0  0  0  0  0  0  0  0  0  0
    2.2625   -0.0654    0.0001 C   0  0  0  0  0  0  0  0  0  0  0  0
  1 10  3  0
  2  4  1  0
  2  5  1  0
  2  8  1  0
  3  6  1  0
  3  7  1  0
  3  9  1  0
  4  6  1  0
  5  7  1  0
  8  9  2  0
  8 10  1  0
M  END
>  <PUBCHEM_COMPOUND_CID>  (1) 
26982

>  <PUBCHEM_CONFORMER_RMSD>  (1) 
0.4

>  <PUBCHEM_CONFORMER_DIVERSEORDER>  (1) 
1

>  <PUBCHEM_MMFF94_PARTIAL_CHARGES>  (1) 
7
1 -0.56
10 0.49
2 0.14
21 0.15
3 0.14
8 -0.07
9 -0.29

>  <PUBCHEM_EFFECTIVE_ROTOR_COUNT>  (1) 
0.8

>  <PUBCHEM_PHARMACOPHORE_FEATURES>  (1) 
2
1 1 acceptor
8 2 3 4 5 6 7 8 9 rings

>  <PUBCHEM_HEAVY_ATOM_COUNT>  (1) 
10

>  <PUBCHEM_ATOM_DEF_STEREO_COUNT>  (1) 
0

>  <PUBCHEM_ATOM_UDEF_STEREO_COUNT>  (1) 
0

>  <PUBCHEM_BOND_DEF_STEREO_COUNT>  (1) 
0

>  <PUBCHEM_BOND_UDEF_STEREO_COUNT>  (1) 
0

>  <PUBCHEM_ISOTOPIC_ATOM_COUNT>  (1) 
0

>  <PUBCHEM_COMPONENT_COUNT>  (1) 
1

>  <PUBCHEM_CACTVS_TAUTO_COUNT>  (1) 
1

>  <PUBCHEM_CONFORMER_ID>  (1) 
0000696600000001

>  <PUBCHEM_MMFF94_ENERGY>  (1) 
21.3068

>  <PUBCHEM_FEATURE_SELFOVERLAP>  (1) 
10.148

>  <PUBCHEM_SHAPE_FINGERPRINT>  (1) 
12423570 1 11602819047661191427
13024252 1 14923945647696760114
137420 1 11118231116216060577
16945 1 18199774520910777203
20653085 51 17532081696777057548
29004967 10 17531539783372939816
369184 2 18335136492707369482
5084963 1 18334857246850359882
68250623 7 16843053992157490615

>  <PUBCHEM_SHAPE_MULTIPOLES>  (1) 
200.81
3.08
1.28
1.25
3.44
0.01
0
-0.27
0
-0.36
0
-0.82
0.24
0

>  <PUBCHEM_SHAPE_SELFOVERLAP>  (1) 
425.254

>  <PUBCHEM_SHAPE_VOLUME>  (1) 
108

>  <PUBCHEM_COORDINATE_TYPE>  (1) 
2
5
10

$$$$
