27009
     RDKit          3D

 16 16  0  0  0  0  0  0  0  0999 V2000
   -2.0026   -0.0125   -0.8370 O   0  0  0  0  0  0  0  0  0  0  0  0
   -0.5016    1.9969    0.3623 O   0  0  0  0  0  0  0  0  0  0  0  0
   -2.4576   -0.8968    1.2646 O   0  0  0  0  0  0  0  0  0  0  0  0
   -4.1758   -0.1973   -0.1283 N   0  0  0  0  0  0  0  0  0  0  0  0
    2.0448   -0.5831   -0.1080 C   0  0  0  0  0  0  0  0  0  0  0  0
    0.0790    0.8167    0.0077 C   0  0  0  0  0  0  0  0  0  0  0  0
   -0.6742   -0.1913   -0.5943 C   0  0  0  0  0  0  0  0  0  0  0  0
    1.4384    0.6208    0.2509 C   0  0  0  0  0  0  0  0  0  0  0  0
    1.2917   -1.5911   -0.7100 C   0  0  0  0  0  0  0  0  0  0  0  0
   -0.0679   -1.3952   -0.9532 C   0  0  0  0  0  0  0  0  0  0  0  0
    3.4622   -0.7880    0.1464 C   0  0  0  0  0  0  0  0  0  0  0  0
    4.3782    0.1844    0.3566 C   0  0  0  0  0  0  0  0  0  0  0  0
   -2.8557   -0.4160    0.2077 C   0  0  0  0  0  0  0  0  0  0  0  0
   -0.5037    3.0371   -0.6135 C   0  0  0  0  0  0  0  0  0  0  0  0
    5.8289   -0.0730    0.6055 C   0  0  0  0  0  0  0  0  0  0  0  0
   -5.2842   -0.5116    0.7428 C   0  0  0  0  0  0  0  0  0  0  0  0
  1  7  1  0
  1 13  1  0
  2  6  1  0
  2 14  1  0
  3 13  2  0
  4 13  1  0
  4 16  1  0
  5  8  2  0
  5  9  1  0
  5 11  1  0
  6  7  2  0
  6  8  1  0
  7 10  1  0
  9 10  2  0
 11 12  2  0
 12 15  1  0
M  END
>  <PUBCHEM_COMPOUND_CID>  (1) 
27009

>  <PUBCHEM_CONFORMER_RMSD>  (1) 
0.6

>  <PUBCHEM_CONFORMER_DIVERSEORDER>  (1) 
2
46
28
49
36
58
11
42
26
56
18
32
57
55
37
31
3
51
43
52
41
47
7
35
45
19
25
34
5
10
21
33
20
22
39
50
53
29
40
54
13
24
15
23
4
38
27
16
48
14
6
44
8
9
17
30
12
1

>  <PUBCHEM_MMFF94_PARTIAL_CHARGES>  (1) 
22
1 -0.23
10 -0.15
11 -0.18
12 -0.29
13 0.78
14 0.28
15 0.14
16 0.3
17 0.15
18 0.15
19 0.15
2 -0.36
20 0.15
21 0.15
28 0.37
3 -0.57
4 -0.73
5 0.03
6 0.08
7 0.08
8 -0.15
9 -0.15

>  <PUBCHEM_EFFECTIVE_ROTOR_COUNT>  (1) 
5

>  <PUBCHEM_PHARMACOPHORE_FEATURES>  (1) 
5
1 15 hydrophobe
1 2 acceptor
1 3 acceptor
1 4 donor
6 5 6 7 8 9 10 rings

>  <PUBCHEM_HEAVY_ATOM_COUNT>  (1) 
16

>  <PUBCHEM_ATOM_DEF_STEREO_COUNT>  (1) 
0

>  <PUBCHEM_ATOM_UDEF_STEREO_COUNT>  (1) 
0

>  <PUBCHEM_BOND_DEF_STEREO_COUNT>  (1) 
0

>  <PUBCHEM_BOND_UDEF_STEREO_COUNT>  (1) 
1

>  <PUBCHEM_ISOTOPIC_ATOM_COUNT>  (1) 
0

>  <PUBCHEM_COMPONENT_COUNT>  (1) 
1

>  <PUBCHEM_CACTVS_TAUTO_COUNT>  (1) 
2

>  <PUBCHEM_CONFORMER_ID>  (1) 
0000698100000002

>  <PUBCHEM_MMFF94_ENERGY>  (1) 
50.257

>  <PUBCHEM_FEATURE_SELFOVERLAP>  (1) 
25.371

>  <PUBCHEM_SHAPE_FINGERPRINT>  (1) 
10465860 250 18113617893527921595
106641 1 18200591517990281922
11132069 177 18060135457772972022
12236239 1 16988563498606425191
12251169 10 18131633404265329467
12390115 104 17774173305543223840
124424 183 18186519930008322435
12555020 224 8574438642708384472
13140716 1 18198616834241276610
13214271 11 18342453742458499567
14252887 29 18271537419968211919
14787075 74 17968940919646103106
14943859 89 13542462072708009222
15048467 5 16702302369075412530
16945 1 17989210351868400838
19784866 170 18342179925244836654
200 152 14779262008199589522
20510252 161 18201153244415821024
20600515 1 17967829231849112975
20645477 56 10375571695346998794
20871998 22 18270974435718005271
21029758 27 18408604790218345460
21267235 1 18411983521538100250
21339142 126 18342166752864976732
21637258 2 16370997550852723619
22182313 1 18128818534729580788
22218785 32 9151172047497607121
23402539 116 18411129247271941207
23557571 272 18262244309283100164
25 1 8646776577566358737
26918003 58 17894348886749623898
2748010 2 17911499193911004918
3250762 1 17693663614781443367
347723 3 12901542442667769159
5104073 3 18196924488689065186
69474 34 18271522086992942360
81228 2 18046931293649035913

>  <PUBCHEM_SHAPE_MULTIPOLES>  (1) 
306.68
9.32
1.91
0.93
2.29
1.8
0.01
-2.17
3.56
-0.37
-0.48
-0.29
-0.14
0.43

>  <PUBCHEM_SHAPE_SELFOVERLAP>  (1) 
626.519

>  <PUBCHEM_SHAPE_VOLUME>  (1) 
177

>  <PUBCHEM_COORDINATE_TYPE>  (1) 
2
5
10

$$$$
