27021
     RDKit          3D

 18 20  0  0  1  0  0  0  0  0999 V2000
    0.2412    0.2312    1.5778 O   0  0  0  0  0  0  0  0  0  0  0  0
   -2.5669    0.5810   -0.4860 C   0  0  0  0  0  0  0  0  0  0  0  0
   -2.1323    0.0577    0.9189 C   0  0  0  0  0  0  0  0  0  0  0  0
   -1.7759   -0.5279   -1.2411 C   0  0  0  0  0  0  0  0  0  0  0  0
   -2.5410   -1.4380    0.8832 C   0  0  0  0  0  0  0  0  0  0  0  0
   -2.3126   -1.8308   -0.6010 C   0  0  0  0  0  0  0  0  0  0  0  0
   -0.3744   -0.3456   -0.6943 C   0  0  0  0  0  0  0  0  0  0  0  0
   -0.6142    0.0275    0.7368 C   0  0  0  0  0  0  0  0  0  0  0  0
   -2.1053    2.0196   -0.8111 C   0  0  0  0  0  0  0  0  0  0  0  0
   -4.0861    0.5433   -0.7473 C   0  0  0  0  0  0  0  0  0  0  0  0
   -2.6029    0.8212    2.1331 C   0  0  0  0  0  0  0  0  0  0  0  0
    0.8128   -0.4353   -1.2895 C   0  0  0  0  0  0  0  0  0  0  0  0
    2.1223   -0.1846   -0.6552 C   0  0  0  0  0  0  0  0  0  0  0  0
    2.6617    1.0892   -0.6997 C   0  0  0  0  0  0  0  0  0  0  0  0
    2.7810   -1.2289   -0.0298 C   0  0  0  0  0  0  0  0  0  0  0  0
    3.8985    1.3264   -0.0999 C   0  0  0  0  0  0  0  0  0  0  0  0
    4.0178   -0.9918    0.5701 C   0  0  0  0  0  0  0  0  0  0  0  0
    4.5766    0.2858    0.5350 C   0  0  0  0  0  0  0  0  0  0  0  0
  1  8  2  0
  2  3  1  0
  2  4  1  0
  2  9  1  0
  2 10  1  0
  3  5  1  0
  3  8  1  0
  3 11  1  0
  4  6  1  0
  4  7  1  0
  5  6  1  0
  7  8  1  0
  7 12  2  0
 12 13  1  0
 13 14  2  0
 13 15  1  0
 14 16  1  0
 15 17  2  0
 16 18  2  0
 17 18  1  0
M  END
>  <PUBCHEM_COMPOUND_CID>  (1) 
27021

>  <PUBCHEM_CONFORMER_RMSD>  (1) 
0.6

>  <PUBCHEM_CONFORMER_DIVERSEORDER>  (1) 
2
1

>  <PUBCHEM_MMFF94_PARTIAL_CHARGES>  (1) 
18
1 -0.57
12 -0.18
13 0.03
14 -0.15
15 -0.15
16 -0.15
17 -0.15
18 -0.15
3 0.06
33 0.15
34 0.15
35 0.15
36 0.15
37 0.15
38 0.15
4 0.14
7 -0.12
8 0.49

>  <PUBCHEM_EFFECTIVE_ROTOR_COUNT>  (1) 
1.6

>  <PUBCHEM_PHARMACOPHORE_FEATURES>  (1) 
4
1 1 acceptor
3 2 9 10 hydrophobe
6 13 14 15 16 17 18 rings
7 2 3 4 5 6 7 8 rings

>  <PUBCHEM_HEAVY_ATOM_COUNT>  (1) 
18

>  <PUBCHEM_ATOM_DEF_STEREO_COUNT>  (1) 
0

>  <PUBCHEM_ATOM_UDEF_STEREO_COUNT>  (1) 
2

>  <PUBCHEM_BOND_DEF_STEREO_COUNT>  (1) 
0

>  <PUBCHEM_BOND_UDEF_STEREO_COUNT>  (1) 
1

>  <PUBCHEM_ISOTOPIC_ATOM_COUNT>  (1) 
0

>  <PUBCHEM_COMPONENT_COUNT>  (1) 
1

>  <PUBCHEM_CACTVS_TAUTO_COUNT>  (1) 
1

>  <PUBCHEM_CONFORMER_ID>  (1) 
0000698D00000002

>  <PUBCHEM_MMFF94_ENERGY>  (1) 
77.0442

>  <PUBCHEM_FEATURE_SELFOVERLAP>  (1) 
20.297

>  <PUBCHEM_SHAPE_FINGERPRINT>  (1) 
10498660 4 15554452859957015160
11315181 36 17917708007545816378
11370993 70 18334570235513663858
12077114 3 18261951847511241636
12236239 1 18131345315698255630
12346177 29 15791727537839990291
12403814 3 18412828001669505557
12507557 5 18201431523937006400
12592029 89 18188206481897975139
128620 24 14261344760964576596
12932764 1 18262816115364094446
13024252 1 16515405179552538015
13224815 77 15698001825435617478
13296908 3 17313108566127297054
13583140 156 18340762736735474122
13675066 3 17168147823133460373
13693222 15 18187370973134858934
13764800 53 16916521292892934994
14004511 7 17095521768873130532
14142880 1 17917717847026241633
14289901 80 18114181977611269296
15309172 13 16415484877986667750
16945 1 18191889863109553951
17349148 13 17346026780237128902
17804303 29 15213025950658090404
18186145 218 18342749494233562574
200 152 17968652830177150471
20279233 1 18040718060767020990
20525323 117 17203615852068685027
21864079 5 16988572324679913888
22646028 28 13984666983629793224
2306618 200 18272087193098878841
23402539 116 18334846209085064165
23419403 2 17700395156385778351
23493267 7 17632030692640163622
23559900 14 18334570227345254674
296302 2 18343862225348526604
3268164 11 15195277608266910657
474 4 18197774621499344840
69090 78 18186795859950158559
74978 22 14201406022716314758
9709674 26 18335140882022209814

>  <PUBCHEM_SHAPE_MULTIPOLES>  (1) 
364.56
7.77
1.57
1.49
6.51
0.08
0.54
0.78
0.7
-0.38
-0.2
-0.99
0.09
-0.11

>  <PUBCHEM_SHAPE_SELFOVERLAP>  (1) 
798.842

>  <PUBCHEM_SHAPE_VOLUME>  (1) 
205.3

>  <PUBCHEM_COORDINATE_TYPE>  (1) 
2
5
10

$$$$
