27022
     RDKit          3D

 18 19  0  0  0  0  0  0  0  0999 V2000
    5.3743    0.6921    0.0816 O   0  0  0  0  0  0  0  0  0  0  0  0
   -0.2763   -2.0463    0.8814 O   0  0  0  0  0  0  0  0  0  0  0  0
   -2.0683   -1.0428   -0.9278 N   0  0  0  0  0  0  0  0  0  0  0  0
   -0.7721   -0.6149   -0.8720 N   0  0  0  0  0  0  0  0  0  0  0  0
    1.4594   -0.6874    0.0773 C   0  0  0  0  0  0  0  0  0  0  0  0
   -3.0822   -0.2300   -0.4067 C   0  0  0  0  0  0  0  0  0  0  0  0
    2.4878   -1.5083    0.5404 C   0  0  0  0  0  0  0  0  0  0  0  0
    1.7468    0.5970   -0.3846 C   0  0  0  0  0  0  0  0  0  0  0  0
    0.0876   -1.1702    0.0761 C   0  0  0  0  0  0  0  0  0  0  0  0
    4.0907    0.2399    0.0800 C   0  0  0  0  0  0  0  0  0  0  0  0
    3.8034   -1.0446    0.5418 C   0  0  0  0  0  0  0  0  0  0  0  0
    3.0623    1.0605   -0.3833 C   0  0  0  0  0  0  0  0  0  0  0  0
   -4.4239   -0.4877   -0.7135 C   0  0  0  0  0  0  0  0  0  0  0  0
   -2.7661    0.8498    0.4268 C   0  0  0  0  0  0  0  0  0  0  0  0
   -5.4340    0.3224   -0.1946 C   0  0  0  0  0  0  0  0  0  0  0  0
   -3.7763    1.6596    0.9459 C   0  0  0  0  0  0  0  0  0  0  0  0
   -5.1103    1.3959    0.6352 C   0  0  0  0  0  0  0  0  0  0  0  0
    5.5973    2.0150   -0.4041 C   0  0  0  0  0  0  0  0  0  0  0  0
  1 10  1  0
  1 18  1  0
  2  9  2  0
  3  4  1  0
  3  6  1  0
  4  9  1  0
  5  7  2  0
  5  8  1  0
  5  9  1  0
  6 13  2  0
  6 14  1  0
  7 11  1  0
  8 12  2  0
 10 11  2  0
 10 12  1  0
 13 15  1  0
 14 16  2  0
 15 17  2  0
 16 17  1  0
M  END
>  <PUBCHEM_COMPOUND_CID>  (1) 
27022

>  <PUBCHEM_CONFORMER_RMSD>  (1) 
0.6

>  <PUBCHEM_CONFORMER_DIVERSEORDER>  (1) 
2
17
28
24
11
27
12
19
23
25
1
18
31
15
13
26
22
4
29
7
8
16
20
30
14
10
6
9
5
3
21

>  <PUBCHEM_MMFF94_PARTIAL_CHARGES>  (1) 
29
1 -0.36
10 0.08
11 -0.15
12 -0.15
13 -0.15
14 -0.15
15 -0.15
16 -0.15
17 -0.15
18 0.28
19 0.15
2 -0.57
20 0.15
21 0.15
22 0.15
23 0.4
24 0.37
25 0.15
26 0.15
27 0.15
28 0.15
29 0.15
3 -0.52
4 -0.41
5 0.09
6 0.1
7 -0.15
8 -0.15
9 0.54

>  <PUBCHEM_EFFECTIVE_ROTOR_COUNT>  (1) 
5

>  <PUBCHEM_PHARMACOPHORE_FEATURES>  (1) 
6
1 1 acceptor
1 2 acceptor
1 3 donor
1 4 donor
6 5 7 8 10 11 12 rings
6 6 13 14 15 16 17 rings

>  <PUBCHEM_HEAVY_ATOM_COUNT>  (1) 
18

>  <PUBCHEM_ATOM_DEF_STEREO_COUNT>  (1) 
0

>  <PUBCHEM_ATOM_UDEF_STEREO_COUNT>  (1) 
0

>  <PUBCHEM_BOND_DEF_STEREO_COUNT>  (1) 
0

>  <PUBCHEM_BOND_UDEF_STEREO_COUNT>  (1) 
0

>  <PUBCHEM_ISOTOPIC_ATOM_COUNT>  (1) 
0

>  <PUBCHEM_COMPONENT_COUNT>  (1) 
1

>  <PUBCHEM_CACTVS_TAUTO_COUNT>  (1) 
2

>  <PUBCHEM_CONFORMER_ID>  (1) 
0000698E00000002

>  <PUBCHEM_MMFF94_ENERGY>  (1) 
68.2498

>  <PUBCHEM_FEATURE_SELFOVERLAP>  (1) 
32.016

>  <PUBCHEM_SHAPE_FINGERPRINT>  (1) 
10354089 29 18260833695804242556
10730089 173 18060140937945688744
10912923 1 18411692175856124971
11089746 13 18272085033220926432
12107183 9 17619911660640560627
12236239 1 18413386523369148487
12390115 104 18043265715487608574
12507557 5 18040156244943461181
12596602 18 18113618980376252633
12644460 14 17749380447997299730
12916748 109 18272094898138189663
13583140 156 14490735910300779686
13631057 29 18117274972825348227
13897977 58 18272932722199381901
14251752 14 11671796931268105275
14251764 18 18410005538589534890
14251764 75 16519371264276815756
14341114 176 18261680294183037707
14341114 328 18413108329884582641
14739800 52 17987497326112105648
15183329 4 17632028459626071388
15188451 53 15213312975497536617
15196674 1 18412262796547147361
17959699 21 18129943498455281160
193927 3 8358253795530273513
19784866 140 13182748025970697182
204376 136 18113057134140138347
21033648 29 16950830462479464197
21065198 48 18411979131411363875
212847 35 18272084981295995832
21652331 79 18408602535191722885
22224240 67 17530684325378836291
22854114 59 17822009787738759831
23402539 116 17917704712530512005
23402655 69 18343299284211984190
23557571 272 16988846111643675615
23559900 14 13470397907839681854
26918003 58 13334733535753402823
3472631 163 18202004326229121029
34797466 226 16415196831641539008
3545911 37 18409449202062913975
465052 167 9223228572379075664
474 4 18333732428958751731
5104073 3 17968933210517177242
542803 24 18201718448715233207
543368 44 18271241720059764909
54446538 1 18341328911819158873
59682541 35 18337118981572287051
59682541 52 17059505028017524820
59755656 520 18259983790470038818
633830 44 18340205193793015967
8272917 22 18341050731752745206

>  <PUBCHEM_SHAPE_MULTIPOLES>  (1) 
348.73
13.24
1.84
0.89
0.27
0.14
-0.01
6.96
-0.05
-0.9
-0.28
0.41
-0.04
-1.44

>  <PUBCHEM_SHAPE_SELFOVERLAP>  (1) 
742.878

>  <PUBCHEM_SHAPE_VOLUME>  (1) 
193.4

>  <PUBCHEM_COORDINATE_TYPE>  (1) 
2
5
10

$$$$
