2704
     RDKit          3D

 13 13  0  0  1  0  0  0  0  0999 V2000
   -1.1994   -2.7808    0.3645 O   0  0  0  0  0  0  0  0  0  0  0  0
    3.1277   -0.3371    1.0559 O   0  0  0  0  0  0  0  0  0  0  0  0
   -1.5391    2.5121    0.4092 O   0  0  0  0  0  0  0  0  0  0  0  0
    2.9083    1.1412   -0.6653 O   0  0  0  0  0  0  0  0  0  0  0  0
   -2.5475    0.5812    1.0806 O   0  0  0  0  0  0  0  0  0  0  0  0
    0.2955    0.8434   -0.7824 N   0  0  0  0  0  0  0  0  0  0  0  0
    0.9617    0.0229    0.2260 C   0  0  0  0  0  0  0  0  0  0  0  0
   -1.1415    0.5926   -0.8866 C   0  0  0  0  0  0  0  0  0  0  0  0
    0.7629   -1.4655   -0.0267 C   0  0  0  0  0  0  0  0  0  0  0  0
   -1.5135   -0.8775   -1.0599 C   0  0  0  0  0  0  0  0  0  0  0  0
   -0.7066   -1.7797   -0.1531 C   0  0  0  0  0  0  0  0  0  0  0  0
    2.4178    0.3559    0.1323 C   0  0  0  0  0  0  0  0  0  0  0  0
   -1.8262    1.1914    0.3055 C   0  0  0  0  0  0  0  0  0  0  0  0
  1 11  2  0
  2 12  1  0
  3 13  1  0
  4 12  2  0
  5 13  2  0
  6  7  1  0
  6  8  1  0
  7  9  1  0
  7 12  1  0
  8 10  1  0
  8 13  1  0
  9 11  1  0
 10 11  1  0
M  END
>  <PUBCHEM_COMPOUND_CID>  (1) 
2704

>  <PUBCHEM_CONFORMER_RMSD>  (1) 
0.6

>  <PUBCHEM_CONFORMER_DIVERSEORDER>  (1) 
1
18
11
16
6
17
15
10
7
8
5
9
12
13
3
2
14
4

>  <PUBCHEM_MMFF94_PARTIAL_CHARGES>  (1) 
16
1 -0.57
10 0.06
11 0.45
12 0.66
13 0.66
2 -0.65
20 0.36
21 0.5
22 0.5
3 -0.65
4 -0.57
5 -0.57
6 -0.9
7 0.33
8 0.33
9 0.06

>  <PUBCHEM_EFFECTIVE_ROTOR_COUNT>  (1) 
3

>  <PUBCHEM_PHARMACOPHORE_FEATURES>  (1) 
10
1 1 acceptor
1 2 acceptor
1 3 acceptor
1 4 acceptor
1 5 acceptor
1 6 cation
1 6 donor
3 2 4 12 anion
3 3 5 13 anion
6 6 7 8 9 10 11 rings

>  <PUBCHEM_HEAVY_ATOM_COUNT>  (1) 
13

>  <PUBCHEM_ATOM_DEF_STEREO_COUNT>  (1) 
0

>  <PUBCHEM_ATOM_UDEF_STEREO_COUNT>  (1) 
2

>  <PUBCHEM_BOND_DEF_STEREO_COUNT>  (1) 
0

>  <PUBCHEM_BOND_UDEF_STEREO_COUNT>  (1) 
0

>  <PUBCHEM_ISOTOPIC_ATOM_COUNT>  (1) 
0

>  <PUBCHEM_COMPONENT_COUNT>  (1) 
1

>  <PUBCHEM_CACTVS_TAUTO_COUNT>  (1) 
2

>  <PUBCHEM_CONFORMER_ID>  (1) 
00000A9000000001

>  <PUBCHEM_MMFF94_ENERGY>  (1) 
18.7988

>  <PUBCHEM_FEATURE_SELFOVERLAP>  (1) 
50.859

>  <PUBCHEM_SHAPE_FINGERPRINT>  (1) 
100427 49 17693367154679453007
12202030 40 14057268741565968088
13024252 1 13840531948246298951
15076042 46 18409733958299498346
15775835 57 17916299450918749721
16945 1 18411700997507603574
19837323 101 16845282818016971109
20653085 51 15267350603957056193
21028194 46 18059290955206251088
21040471 1 18340768139609140606
21524375 3 18129658569881499105
22802520 49 18058753380251878862
2748010 2 18048879597866547511
276578 36 18129113224977886393
305870 269 18051124796505370274
369184 2 16660635254643133564
430814 3 18126279744784483825
5084963 1 18266152007793861174
528862 383 18048310046680397323
81228 2 18270958080424565059

>  <PUBCHEM_SHAPE_MULTIPOLES>  (1) 
233.21
3.68
2.32
0.98
2.69
0.71
0.04
-1.2
-0.71
-1.32
-0.27
-0.15
-0.07
-0.48

>  <PUBCHEM_SHAPE_SELFOVERLAP>  (1) 
479.084

>  <PUBCHEM_SHAPE_VOLUME>  (1) 
132.6

>  <PUBCHEM_COORDINATE_TYPE>  (1) 
2
5
10

$$$$
