27057
     RDKit          3D

 10 10  0  0  0  0  0  0  0  0999 V2000
    0.3777    2.1260    0.0001 O   0  0  0  0  0  0  0  0  0  0  0  0
    2.2944    0.7691   -0.0002 O   0  0  0  0  0  0  0  0  0  0  0  0
    2.2403   -1.4255    0.0002 O   0  0  0  0  0  0  0  0  0  0  0  0
   -0.4535   -1.4387    0.0000 N   0  0  0  0  0  0  0  0  0  0  0  0
    1.6717   -0.3135   -0.0001 N   0  0  0  0  0  0  0  0  0  0  0  0
   -0.3479    0.9766    0.0001 C   0  0  0  0  0  0  0  0  0  0  0  0
    0.2399   -0.2782    0.0000 C   0  0  0  0  0  0  0  0  0  0  0  0
   -1.7366    1.0446    0.0000 C   0  0  0  0  0  0  0  0  0  0  0  0
   -2.4847   -0.1276    0.0000 C   0  0  0  0  0  0  0  0  0  0  0  0
   -1.8013   -1.3329   -0.0001 C   0  0  0  0  0  0  0  0  0  0  0  0
  1  6  1  0
  2  5  1  0
  3  5  2  0
  4  7  2  0
  4 10  1  0
  5  7  1  0
  6  7  1  0
  6  8  2  0
  8  9  1  0
  9 10  2  0
M  CHG  2   2  -1   5   1
M  END
>  <PUBCHEM_COMPOUND_CID>  (1) 
27057

>  <PUBCHEM_CONFORMER_RMSD>  (1) 
0.4

>  <PUBCHEM_CONFORMER_DIVERSEORDER>  (1) 
1

>  <PUBCHEM_MMFF94_PARTIAL_CHARGES>  (1) 
14
1 -0.53
10 0.16
11 0.15
12 0.15
13 0.15
14 0.45
2 -0.52
3 -0.52
4 -0.62
5 0.91
6 0.08
7 0.44
8 -0.15
9 -0.15

>  <PUBCHEM_EFFECTIVE_ROTOR_COUNT>  (1) 
1

>  <PUBCHEM_PHARMACOPHORE_FEATURES>  (1) 
6
1 1 donor
1 2 acceptor
1 2 anion
1 3 acceptor
1 4 acceptor
6 4 6 7 8 9 10 rings

>  <PUBCHEM_HEAVY_ATOM_COUNT>  (1) 
10

>  <PUBCHEM_ATOM_DEF_STEREO_COUNT>  (1) 
0

>  <PUBCHEM_ATOM_UDEF_STEREO_COUNT>  (1) 
0

>  <PUBCHEM_BOND_DEF_STEREO_COUNT>  (1) 
0

>  <PUBCHEM_BOND_UDEF_STEREO_COUNT>  (1) 
0

>  <PUBCHEM_ISOTOPIC_ATOM_COUNT>  (1) 
0

>  <PUBCHEM_COMPONENT_COUNT>  (1) 
1

>  <PUBCHEM_CACTVS_TAUTO_COUNT>  (1) 
2

>  <PUBCHEM_CONFORMER_ID>  (1) 
000069B100000001

>  <PUBCHEM_MMFF94_ENERGY>  (1) 
31.5703

>  <PUBCHEM_FEATURE_SELFOVERLAP>  (1) 
30.535

>  <PUBCHEM_SHAPE_FINGERPRINT>  (1) 
10857977 72 18339348768681534728
12524768 44 18342179938114044374
16945 1 18266458887459871013
18185500 45 18409449219158276631
21040471 1 18266458707018549029
23552423 10 18260552216480005502
241688 4 18338234860370939769
2748010 2 18411135801291541735
29004967 10 18336549416366902939
369184 2 18411134714733491451
5084963 1 18057597668507626923

>  <PUBCHEM_SHAPE_MULTIPOLES>  (1) 
178.23
3.11
1.8
0.57
0.54
0.29
0
-0.55
0
0.12
0
-0.07
0
0

>  <PUBCHEM_SHAPE_SELFOVERLAP>  (1) 
376.278

>  <PUBCHEM_SHAPE_VOLUME>  (1) 
97.9

>  <PUBCHEM_COORDINATE_TYPE>  (1) 
2
5
10

$$$$
