27053
     RDKit          3D

  9  9  0  0  1  0  0  0  0  0999 V2000
    0.6954   -0.1289    1.2119 O   0  0  0  0  0  0  0  0  0  0  0  0
   -1.9558    0.4874    1.0397 O   0  0  0  0  0  0  0  0  0  0  0  0
    1.1641    0.3178   -0.0669 C   0  0  0  0  0  0  0  0  0  0  0  0
   -0.0336   -0.5505    0.0667 C   0  0  0  0  0  0  0  0  0  0  0  0
    1.0143    1.7785   -0.2872 C   0  0  0  0  0  0  0  0  0  0  0  0
    2.5022   -0.2012   -0.4478 C   0  0  0  0  0  0  0  0  0  0  0  0
    0.0497   -1.9982   -0.2030 C   0  0  0  0  0  0  0  0  0  0  0  0
   -1.3963    0.0859    0.0205 C   0  0  0  0  0  0  0  0  0  0  0  0
   -2.0399    0.2092   -1.3340 C   0  0  0  0  0  0  0  0  0  0  0  0
  1  3  1  0
  1  4  1  0
  2  8  2  0
  3  4  1  0
  3  5  1  0
  3  6  1  0
  4  7  1  0
  4  8  1  0
  8  9  1  0
M  END
>  <PUBCHEM_COMPOUND_CID>  (1) 
27053

>  <PUBCHEM_CONFORMER_RMSD>  (1) 
0.4

>  <PUBCHEM_CONFORMER_DIVERSEORDER>  (1) 
3
5
2
4
1

>  <PUBCHEM_MMFF94_PARTIAL_CHARGES>  (1) 
9
1 -0.3
2 -0.57
3 -0.04
4 0.05
5 0.09
6 0.09
7 0.09
8 0.51
9 0.06

>  <PUBCHEM_EFFECTIVE_ROTOR_COUNT>  (1) 
1.6

>  <PUBCHEM_PHARMACOPHORE_FEATURES>  (1) 
3
1 1 acceptor
1 2 acceptor
3 3 5 6 hydrophobe

>  <PUBCHEM_HEAVY_ATOM_COUNT>  (1) 
9

>  <PUBCHEM_ATOM_DEF_STEREO_COUNT>  (1) 
0

>  <PUBCHEM_ATOM_UDEF_STEREO_COUNT>  (1) 
1

>  <PUBCHEM_BOND_DEF_STEREO_COUNT>  (1) 
0

>  <PUBCHEM_BOND_UDEF_STEREO_COUNT>  (1) 
0

>  <PUBCHEM_ISOTOPIC_ATOM_COUNT>  (1) 
0

>  <PUBCHEM_COMPONENT_COUNT>  (1) 
1

>  <PUBCHEM_CACTVS_TAUTO_COUNT>  (1) 
2

>  <PUBCHEM_CONFORMER_ID>  (1) 
000069AD00000003

>  <PUBCHEM_MMFF94_ENERGY>  (1) 
17.3927

>  <PUBCHEM_FEATURE_SELFOVERLAP>  (1) 
15.229

>  <PUBCHEM_SHAPE_FINGERPRINT>  (1) 
16945 1 18260832579170702926
21040471 1 18341053020447450674
24536 1 18128814333787360464
29004967 10 18263659376199827090
5084963 1 18272643580204862087

>  <PUBCHEM_SHAPE_MULTIPOLES>  (1) 
173.48
2.71
1.52
1.05
0
0.28
-0.02
-0.45
0.53
0.32
0.16
-0.43
-0.08
-0.03

>  <PUBCHEM_SHAPE_SELFOVERLAP>  (1) 
342.204

>  <PUBCHEM_SHAPE_VOLUME>  (1) 
106.7

>  <PUBCHEM_COORDINATE_TYPE>  (1) 
2
5
10

$$$$
