27067
     RDKit          3D

 22 25  0  0  1  0  0  0  0  0999 V2000
   -4.5449   -0.3840   -0.6492 O   0  0  0  0  0  0  0  0  0  0  0  0
   -4.6216    2.2611   -0.2160 O   0  0  0  0  0  0  0  0  0  0  0  0
    6.2150    0.0337    0.1405 O   0  0  0  0  0  0  0  0  0  0  0  0
   -2.3008   -0.5372    0.3103 C   0  0  0  0  0  0  0  0  0  0  0  0
   -1.6949    0.2748   -0.8661 C   0  0  0  0  0  0  0  0  0  0  0  0
   -0.1551    0.3077   -0.9741 C   0  0  0  0  0  0  0  0  0  0  0  0
   -3.7180    0.0843    0.4158 C   0  0  0  0  0  0  0  0  0  0  0  0
    0.5472    0.4896    0.3915 C   0  0  0  0  0  0  0  0  0  0  0  0
   -1.5114   -0.3277    1.6227 C   0  0  0  0  0  0  0  0  0  0  0  0
   -2.2969    1.6959   -0.7230 C   0  0  0  0  0  0  0  0  0  0  0  0
   -3.4702    1.5829    0.2521 C   0  0  0  0  0  0  0  0  0  0  0  0
   -0.0021   -0.4788    1.4539 C   0  0  0  0  0  0  0  0  0  0  0  0
   -2.3947   -2.0416   -0.0010 C   0  0  0  0  0  0  0  0  0  0  0  0
    0.4022   -0.9301   -1.6956 C   0  0  0  0  0  0  0  0  0  0  0  0
    2.0593    0.3603    0.2901 C   0  0  0  0  0  0  0  0  0  0  0  0
    1.8883   -0.7495   -1.9952 C   0  0  0  0  0  0  0  0  0  0  0  0
    2.6799   -0.2535   -0.8136 C   0  0  0  0  0  0  0  0  0  0  0  0
   -3.1307   -2.7762    1.0967 C   0  0  0  0  0  0  0  0  0  0  0  0
    2.8603    0.8559    1.3342 C   0  0  0  0  0  0  0  0  0  0  0  0
    4.0802   -0.3512   -0.8534 C   0  0  0  0  0  0  0  0  0  0  0  0
    4.2494    0.7442    1.2865 C   0  0  0  0  0  0  0  0  0  0  0  0
    4.8594    0.1396    0.1929 C   0  0  0  0  0  0  0  0  0  0  0  0
  1  7  1  0
  2 11  1  0
  3 22  1  0
  4  5  1  0
  4  7  1  0
  4  9  1  0
  4 13  1  0
  5  6  1  0
  5 10  1  0
  6  8  1  0
  6 14  1  0
  7 11  1  0
  8 12  1  0
  8 15  1  0
  9 12  1  0
 10 11  1  0
 13 18  1  0
 14 16  1  0
 15 17  2  0
 15 19  1  0
 16 17  1  0
 17 20  1  0
 19 21  2  0
 20 22  2  0
 21 22  1  0
M  END
>  <PUBCHEM_COMPOUND_CID>  (1) 
27067

>  <PUBCHEM_CONFORMER_RMSD>  (1) 
0.6

>  <PUBCHEM_CONFORMER_DIVERSEORDER>  (1) 
2
16
45
38
41
3
40
6
46
18
4
43
13
10
21
17
31
23
30
8
25
39
36
11
27
33
48
5
14
35
50
44
37
26
47
19
49
32
12
42
1
34
15
20
9
28
29
7
22
24

>  <PUBCHEM_MMFF94_PARTIAL_CHARGES>  (1) 
19
1 -0.68
11 0.28
15 -0.14
16 0.14
17 -0.14
19 -0.15
2 -0.68
20 -0.15
21 -0.15
22 0.08
3 -0.53
43 0.4
44 0.4
45 0.15
46 0.15
47 0.15
48 0.45
7 0.28
8 0.14

>  <PUBCHEM_EFFECTIVE_ROTOR_COUNT>  (1) 
2.4

>  <PUBCHEM_PHARMACOPHORE_FEATURES>  (1) 
10
1 1 acceptor
1 1 donor
1 18 hydrophobe
1 2 acceptor
1 2 donor
1 3 donor
5 4 5 7 10 11 rings
6 15 17 19 20 21 22 rings
6 4 5 6 8 9 12 rings
6 6 8 14 15 16 17 rings

>  <PUBCHEM_HEAVY_ATOM_COUNT>  (1) 
22

>  <PUBCHEM_ATOM_DEF_STEREO_COUNT>  (1) 
1

>  <PUBCHEM_ATOM_UDEF_STEREO_COUNT>  (1) 
5

>  <PUBCHEM_BOND_DEF_STEREO_COUNT>  (1) 
0

>  <PUBCHEM_BOND_UDEF_STEREO_COUNT>  (1) 
0

>  <PUBCHEM_ISOTOPIC_ATOM_COUNT>  (1) 
0

>  <PUBCHEM_COMPONENT_COUNT>  (1) 
1

>  <PUBCHEM_CACTVS_TAUTO_COUNT>  (1) 
9

>  <PUBCHEM_CONFORMER_ID>  (1) 
000069BB00000002

>  <PUBCHEM_MMFF94_ENERGY>  (1) 
78.8318

>  <PUBCHEM_FEATURE_SELFOVERLAP>  (1) 
50.996

>  <PUBCHEM_SHAPE_FINGERPRINT>  (1) 
10 15 17988348382935836128
10062212 137 17095245860290281699
10646746 165 18410855460370898000
11315181 36 17967252031315574316
11370993 70 18273495662988349567
11796584 16 18336831892984220810
12236239 1 16805605879945131924
12293681 4 18342181033378639257
12403259 415 17846776347410700160
12500047 106 18410856546818464063
12507557 5 17704352199723134312
12553582 1 15068618297411908828
12592029 89 17917424294511641638
12633257 1 18040998440421836076
12788726 201 17240776025426357476
13140716 1 15213885812138761292
13224815 77 15936407875156202112
13583140 156 18272649069458273154
13675066 3 18060136578827832568
14178342 30 18259992578067955007
14289901 80 18261678155415827298
14294032 229 17822844274916819253
15099037 37 18340770458839096671
15209289 33 17313103063978779128
15375358 24 18059857237938223660
15375462 189 15285359514015480372
15788980 27 18060135444961708652
16945 1 18187654604654507671
16988056 13 11300051963686288211
17349148 13 15410892951128439020
17980427 23 17531535377237674142
1813 80 15430321265894264478
18186145 218 16559033822312206580
18219364 16 17418096546096302854
19489759 90 18411134736086891659
19862831 5 15195277634168511700
200 152 15769774632781793424
20279233 1 18273220793702598806
20600515 1 18261405433187392949
20645477 56 18410294683855798105
20645477 70 17060343985512012030
21033648 29 17775271777556571992
21065201 7 18408322190007481290
21267235 1 14562814314161962984
22112679 90 17240772808337161383
23402539 116 18410004429981667973
23493267 7 18272082781987923298
23557571 272 18413111671036972321
23559900 14 18341616997383410840
26918003 58 17918276467552024890
296302 2 17989209222123138364
312423 11 17459484418486335510
474 4 16702300170236681996
542803 24 17821450153742814052
602551 16 18261396684613128458
77492 1 16878230835005128759
9862522 239 16878773886623092093

>  <PUBCHEM_SHAPE_MULTIPOLES>  (1) 
435.14
9.91
1.79
1.59
7.56
0.42
0.12
-1.56
-1.02
-2.9
-0.2
0.55
0.32
1.32

>  <PUBCHEM_SHAPE_SELFOVERLAP>  (1) 
945.128

>  <PUBCHEM_SHAPE_VOLUME>  (1) 
236.3

>  <PUBCHEM_COORDINATE_TYPE>  (1) 
2
5
10

$$$$
