27074
     RDKit          3D

 22 23  0  0  0  0  0  0  0  0999 V2000
   -0.4648    1.8591    0.8828 S   0  0  0  0  0  0  0  0  0  0  0  0
   -1.1769   -1.5603   -0.0470 O   0  0  0  0  0  0  0  0  0  0  0  0
   -2.0041   -1.2111    2.0726 O   0  0  0  0  0  0  0  0  0  0  0  0
    1.1312   -4.4199   -0.3325 N   0  0  0  0  0  0  0  0  0  0  0  0
    0.3337   -3.2716   -0.7619 C   0  0  0  0  0  0  0  0  0  0  0  0
   -0.4316   -2.6806    0.4114 C   0  0  0  0  0  0  0  0  0  0  0  0
   -2.6510    0.2307    0.2873 C   0  0  0  0  0  0  0  0  0  0  0  0
   -2.0927    1.4929    0.2362 C   0  0  0  0  0  0  0  0  0  0  0  0
    0.5780    1.5554   -0.5696 C   0  0  0  0  0  0  0  0  0  0  0  0
    1.8516   -4.9952   -1.4677 C   0  0  0  0  0  0  0  0  0  0  0  0
    2.0667   -4.0272    0.7208 C   0  0  0  0  0  0  0  0  0  0  0  0
    2.0343    1.7988   -0.2833 C   0  0  0  0  0  0  0  0  0  0  0  0
   -1.9231   -0.9139    0.8909 C   0  0  0  0  0  0  0  0  0  0  0  0
   -3.9117   -0.0310   -0.2173 C   0  0  0  0  0  0  0  0  0  0  0  0
   -2.8209    2.5336   -0.3403 C   0  0  0  0  0  0  0  0  0  0  0  0
   -4.6399    1.0098   -0.7938 C   0  0  0  0  0  0  0  0  0  0  0  0
   -4.0945    2.2921   -0.8554 C   0  0  0  0  0  0  0  0  0  0  0  0
    2.8252    0.7554    0.1800 C   0  0  0  0  0  0  0  0  0  0  0  0
    2.5702    3.0638   -0.4854 C   0  0  0  0  0  0  0  0  0  0  0  0
    4.1758    0.9812    0.4459 C   0  0  0  0  0  0  0  0  0  0  0  0
    3.9207    3.2897   -0.2196 C   0  0  0  0  0  0  0  0  0  0  0  0
    4.7235    2.2482    0.2460 C   0  0  0  0  0  0  0  0  0  0  0  0
  1  8  1  0
  1  9  1  0
  2  6  1  0
  2 13  1  0
  3 13  2  0
  4  5  1  0
  4 10  1  0
  4 11  1  0
  5  6  1  0
  7  8  2  0
  7 13  1  0
  7 14  1  0
  8 15  1  0
  9 12  1  0
 12 18  2  0
 12 19  1  0
 14 16  2  0
 15 17  2  0
 16 17  1  0
 18 20  1  0
 19 21  2  0
 20 22  2  0
 21 22  1  0
M  END
>  <PUBCHEM_COMPOUND_CID>  (1) 
27074

>  <PUBCHEM_CONFORMER_RMSD>  (1) 
0.8

>  <PUBCHEM_CONFORMER_DIVERSEORDER>  (1) 
1
346
90
363
39
112
225
91
143
317
242
188
189
269
148
59
375
334
216
369
10
13
106
318
45
273
175
384
264
240
253
44
320
289
16
235
233
46
372
140
141
109
304
322
336
116
292
256
3
365
360
159
345
329
286
356
6
212
65
275
68
47
300
348
358
130
277
2
108
261
151
347
9
236
28
153
302
165
12
77
104
136
197
281
325
64
55
66
361
129
380
92
287
298
60
174
186
270
238
80
267
177
120
208
378
340
36
97
282
168
81
83
259
377
100
309
5
382
182
199
102
86
307
191
78
57
247
357
255
364
193
99
181
313
211
370
288
330
260
171
35
231
263
56
98
121
374
4
135
250
96
155
241
71
230
338
152
127
310
14
33
147
195
131
184
11
299
321
305
69
214
308
237
196
207
272
167
210
37
50
154
113
22
226
132
203
248
75
24
149
49
76
351
156
367
52
218
373
209
274
170
8
18
383
254
166
79
295
327
84
194
266
88
337
25
128
296
15
324
144
280
284
27
117
283
205
232
213
243
314
169
82
245
215
268
294
291
20
328
61
315
386
72
276
278
224
353
257
350
89
74
110
124
228
342
146
306
42
115
352
34
333
319
180
93
26
172
234
258
119
162
173
303
341
125
164
220
297
252
176
239
29
227
316
202
101
150
126
67
38
368
32
133
217
265
198
160
323
185
244
48
63
223
387
379
53
200
229
43
343
201
161
7
23
192
73
87
366
349
219
339
122
279
362
103
21
355
139
138
206
354
145
301
62
332
54
123
19
51
40
183
41
70
107
359
118
190
344
137
246
30
381
178
251
371
271
17
142
114
221
331
326
262
385
58
105
31
187
293
204
163
179
85
311
285
111
312
222
335
158
95
157
94
134
249
290
376

>  <PUBCHEM_MMFF94_PARTIAL_CHARGES>  (1) 
31
1 -0.33
10 0.27
11 0.27
12 -0.14
13 0.63
14 -0.15
15 -0.15
16 -0.15
17 -0.15
18 -0.15
19 -0.15
2 -0.43
20 -0.15
21 -0.15
22 -0.15
3 -0.57
35 0.15
36 0.15
37 0.15
38 0.15
39 0.15
4 -0.81
40 0.15
41 0.15
42 0.15
43 0.15
5 0.27
6 0.28
7 0.09
8 0.1
9 0.37

>  <PUBCHEM_EFFECTIVE_ROTOR_COUNT>  (1) 
8

>  <PUBCHEM_PHARMACOPHORE_FEATURES>  (1) 
4
1 3 acceptor
1 4 cation
6 12 18 19 20 21 22 rings
6 7 8 14 15 16 17 rings

>  <PUBCHEM_HEAVY_ATOM_COUNT>  (1) 
22

>  <PUBCHEM_ATOM_DEF_STEREO_COUNT>  (1) 
0

>  <PUBCHEM_ATOM_UDEF_STEREO_COUNT>  (1) 
0

>  <PUBCHEM_BOND_DEF_STEREO_COUNT>  (1) 
0

>  <PUBCHEM_BOND_UDEF_STEREO_COUNT>  (1) 
0

>  <PUBCHEM_ISOTOPIC_ATOM_COUNT>  (1) 
0

>  <PUBCHEM_COMPONENT_COUNT>  (1) 
1

>  <PUBCHEM_CACTVS_TAUTO_COUNT>  (1) 
1

>  <PUBCHEM_CONFORMER_ID>  (1) 
000069C200000001

>  <PUBCHEM_MMFF94_ENERGY>  (1) 
61.7261

>  <PUBCHEM_FEATURE_SELFOVERLAP>  (1) 
20.297

>  <PUBCHEM_SHAPE_FINGERPRINT>  (1) 
10050765 1 18265893550613071837
107951 10 17676765474140508323
1100329 8 17186443438953932737
11315621 246 17402917990466541172
11370993 70 18409444816896374300
12156800 1 15838694280874575886
12293681 160 16745091762651503961
12500047 106 18266454502367515784
12788726 201 17760633068760086530
13004483 165 17544750591785344123
133893 2 18057339283480971075
138480 1 17978508629149200406
13931106 250 18050559948113379801
14508225 48 17476066931013597927
14844126 61 17903911511291122144
14955137 171 17043472843199730945
15006816 218 18338235964177424044
15403338 16 17025693890233501754
15463212 79 18046615987304430544
15961568 22 17907292149139330862
167882 2 18337384925176997901
19930381 70 18338231548908845743
20621476 13 18337392626291028702
21344244 246 18339346471385968319
23419403 2 17683282129719920961
23559900 14 18338791200660154528
23728640 28 18193273224435238457
3027735 51 18127966619102697623
3298306 158 18409449159102542380
4017518 198 18272925021814202590
5265222 85 18264501735678588068
532947 4 18339925888091086366
9709674 26 18336550503073256636
9981440 41 18409444821354489105

>  <PUBCHEM_SHAPE_MULTIPOLES>  (1) 
439.88
8.28
6.63
1.12
0.27
10.44
0.19
-8.19
-0.91
-6.76
-1.91
0.34
0.65
1.02

>  <PUBCHEM_SHAPE_SELFOVERLAP>  (1) 
902.065

>  <PUBCHEM_SHAPE_VOLUME>  (1) 
255.5

>  <PUBCHEM_COORDINATE_TYPE>  (1) 
2
5
10

$$$$
