27084
     RDKit          3D

 21 21  0  0  0  0  0  0  0  0999 V2000
    0.2585   -0.6069    1.1885 O   0  0  0  0  0  0  0  0  0  0  0  0
    1.6846   -2.3349    1.7170 O   0  0  0  0  0  0  0  0  0  0  0  0
   -2.4056   -0.1789    0.3274 N   0  0  0  0  0  0  0  0  0  0  0  0
    5.3891    1.7705   -1.5171 N   0  0  0  0  0  0  0  0  0  0  0  0
   -2.6372   -1.4522   -0.3564 C   0  0  0  0  0  0  0  0  0  0  0  0
   -3.5797    0.6810    0.2215 C   0  0  0  0  0  0  0  0  0  0  0  0
   -2.9331   -1.2691   -1.8549 C   0  0  0  0  0  0  0  0  0  0  0  0
   -3.3377    2.0810    0.8114 C   0  0  0  0  0  0  0  0  0  0  0  0
   -2.0627   -0.4107    1.7311 C   0  0  0  0  0  0  0  0  0  0  0  0
   -1.7704   -0.5317   -2.5247 C   0  0  0  0  0  0  0  0  0  0  0  0
   -3.1801   -2.5991   -2.5716 C   0  0  0  0  0  0  0  0  0  0  0  0
   -2.1525    2.7424    0.1028 C   0  0  0  0  0  0  0  0  0  0  0  0
   -4.5694    2.9840    0.7055 C   0  0  0  0  0  0  0  0  0  0  0  0
   -0.8141   -1.2708    1.8438 C   0  0  0  0  0  0  0  0  0  0  0  0
    1.4576   -1.2521    1.1997 C   0  0  0  0  0  0  0  0  0  0  0  0
    2.4899   -0.4575    0.4873 C   0  0  0  0  0  0  0  0  0  0  0  0
    3.8068   -0.5654    0.8849 C   0  0  0  0  0  0  0  0  0  0  0  0
    2.1005    0.3636   -0.5513 C   0  0  0  0  0  0  0  0  0  0  0  0
    4.7766    0.1803    0.2148 C   0  0  0  0  0  0  0  0  0  0  0  0
    3.0703    1.1091   -1.2213 C   0  0  0  0  0  0  0  0  0  0  0  0
    4.4085    1.0176   -0.8384 C   0  0  0  0  0  0  0  0  0  0  0  0
  1 14  1  0
  1 15  1  0
  2 15  2  0
  3  5  1  0
  3  6  1  0
  3  9  1  0
  4 21  1  0
  5  7  1  0
  6  8  1  0
  7 10  1  0
  7 11  1  0
  8 12  1  0
  8 13  1  0
  9 14  1  0
 15 16  1  0
 16 17  2  0
 16 18  1  0
 17 19  1  0
 18 20  2  0
 19 21  2  0
 20 21  1  0
M  END
>  <PUBCHEM_COMPOUND_CID>  (1) 
27084

>  <PUBCHEM_CONFORMER_RMSD>  (1) 
0.8

>  <PUBCHEM_CONFORMER_DIVERSEORDER>  (1) 
2
1
50
8
51
23
25
44
31
24
41
7
12
45
34
16
17
48
22
11
19
29
18
3
38
36
42
10
37
26
13
9
15
33
27
49
4
47
30
5
43
35
39
6
32
20
40
46
28
21
14

>  <PUBCHEM_MMFF94_PARTIAL_CHARGES>  (1) 
21
1 -0.43
14 0.28
15 0.63
16 0.09
17 -0.15
18 -0.15
19 -0.15
2 -0.57
20 -0.15
21 0.1
3 -0.81
4 -0.9
44 0.15
45 0.15
46 0.15
47 0.15
48 0.4
49 0.4
5 0.27
6 0.27
9 0.27

>  <PUBCHEM_EFFECTIVE_ROTOR_COUNT>  (1) 
9

>  <PUBCHEM_PHARMACOPHORE_FEATURES>  (1) 
7
1 2 acceptor
1 3 cation
1 4 cation
1 4 donor
3 7 10 11 hydrophobe
3 8 12 13 hydrophobe
6 16 17 18 19 20 21 rings

>  <PUBCHEM_HEAVY_ATOM_COUNT>  (1) 
21

>  <PUBCHEM_ATOM_DEF_STEREO_COUNT>  (1) 
0

>  <PUBCHEM_ATOM_UDEF_STEREO_COUNT>  (1) 
0

>  <PUBCHEM_BOND_DEF_STEREO_COUNT>  (1) 
0

>  <PUBCHEM_BOND_UDEF_STEREO_COUNT>  (1) 
0

>  <PUBCHEM_ISOTOPIC_ATOM_COUNT>  (1) 
0

>  <PUBCHEM_COMPONENT_COUNT>  (1) 
1

>  <PUBCHEM_CACTVS_TAUTO_COUNT>  (1) 
2

>  <PUBCHEM_CONFORMER_ID>  (1) 
000069CC00000002

>  <PUBCHEM_MMFF94_ENERGY>  (1) 
57.3108

>  <PUBCHEM_FEATURE_SELFOVERLAP>  (1) 
35.52

>  <PUBCHEM_SHAPE_FINGERPRINT>  (1) 
105312 117 17632581492289359957
12035758 1 13984949477320972453
12173636 292 18408322190060534243
12633257 1 17312819351582479352
12714826 92 17203038694791099943
12788726 201 18343010117455547351
12895836 83 18060422378816057305
12895837 130 18342466983948921420
13257819 37 17917707956122429157
14142880 1 17603592954211711827
14251751 93 18131915965826444927
14251764 38 18268705198665029608
15163728 17 17628650652521487177
15342168 16 17749680605659695889
15842332 3 18265030484464474771
17980427 23 18191561113659938474
1813 80 17485912340755742799
18186145 218 17530685407599922362
18219364 16 16515961484774898995
19433438 15 18412260606287815554
20681677 274 7925326503767863343
20693207 138 16701732873233233275
21421566 26 17917144026467856845
21713013 43 16988563562545540494
21864079 5 18187375302504247552
221490 88 14476974423585102162
22620623 9 17489009540372207271
23227448 37 18187937136061726801
23402539 116 18410858776650159256
23557571 272 17274520118649427601
23598288 3 18341610391718740323
268830 7 17822007597432104736
27216 239 15140671484581542519
312425 83 18130242514067769108
474 4 17894915087739983576
4921388 177 17060344045457047803
5104073 3 17313392270609130456
633830 44 18260275127108100102
6438718 38 18340778056609966889
7288768 16 17313399910654342905
7615 1 18192406646122206043

>  <PUBCHEM_SHAPE_MULTIPOLES>  (1) 
410.47
10.15
2.87
2.29
8.55
0.8
-0.3
4.91
-3.32
-4.8
-0.94
-0.07
-1.4
-3.12

>  <PUBCHEM_SHAPE_SELFOVERLAP>  (1) 
820.205

>  <PUBCHEM_SHAPE_VOLUME>  (1) 
244.6

>  <PUBCHEM_COORDINATE_TYPE>  (1) 
2
5
10

$$$$
