27098
     RDKit          3D

 21 21  0  0  0  0  0  0  0  0999 V2000
    0.9268    0.1614    0.0661 O   0  0  0  0  0  0  0  0  0  0  0  0
    1.6835    1.6516    1.6492 O   0  0  0  0  0  0  0  0  0  0  0  0
   -2.7449   -0.0796   -0.1714 N   0  0  0  0  0  0  0  0  0  0  0  0
    7.0824   -0.7545   -0.8980 N   0  0  0  0  0  0  0  0  0  0  0  0
   -3.5949   -1.1822   -0.6046 C   0  0  0  0  0  0  0  0  0  0  0  0
   -3.1688    1.1745   -0.7964 C   0  0  0  0  0  0  0  0  0  0  0  0
   -1.3422   -0.3554   -0.4870 C   0  0  0  0  0  0  0  0  0  0  0  0
   -3.4949   -2.3473    0.3784 C   0  0  0  0  0  0  0  0  0  0  0  0
   -4.3749    1.7538   -0.0592 C   0  0  0  0  0  0  0  0  0  0  0  0
   -4.3960   -3.5076   -0.0463 C   0  0  0  0  0  0  0  0  0  0  0  0
   -4.8213    3.0764   -0.6835 C   0  0  0  0  0  0  0  0  0  0  0  0
   -0.4208    0.4730    0.3941 C   0  0  0  0  0  0  0  0  0  0  0  0
   -4.2753   -4.6851    0.9079 C   0  0  0  0  0  0  0  0  0  0  0  0
   -6.0433    3.6418    0.0226 C   0  0  0  0  0  0  0  0  0  0  0  0
    1.8832    0.8252    0.7725 C   0  0  0  0  0  0  0  0  0  0  0  0
    3.2412    0.4131    0.3359 C   0  0  0  0  0  0  0  0  0  0  0  0
    4.3676    0.9772    0.9348 C   0  0  0  0  0  0  0  0  0  0  0  0
    3.3906   -0.5385   -0.6729 C   0  0  0  0  0  0  0  0  0  0  0  0
    5.6433    0.5899    0.5249 C   0  0  0  0  0  0  0  0  0  0  0  0
    4.6662   -0.9259   -1.0830 C   0  0  0  0  0  0  0  0  0  0  0  0
    5.7926   -0.3616   -0.4841 C   0  0  0  0  0  0  0  0  0  0  0  0
  1 12  1  0
  1 15  1  0
  2 15  2  0
  3  5  1  0
  3  6  1  0
  3  7  1  0
  4 21  1  0
  5  8  1  0
  6  9  1  0
  7 12  1  0
  8 10  1  0
  9 11  1  0
 10 13  1  0
 11 14  1  0
 15 16  1  0
 16 17  2  0
 16 18  1  0
 17 19  1  0
 18 20  2  0
 19 21  2  0
 20 21  1  0
M  END
>  <PUBCHEM_COMPOUND_CID>  (1) 
27098

>  <PUBCHEM_CONFORMER_RMSD>  (1) 
1

>  <PUBCHEM_CONFORMER_DIVERSEORDER>  (1) 
1
3
35
62
52
37
66
78
25
39
16
46
42
14
81
13
65
18
9
61
6
20
38
34
60
76
86
48
29
7
31
22
23
74
58
12
87
8
55
84
82
68
89
45
32
80
63
56
70
27
50
2
17
51
72
88
77
53
28
4
15
79
21
67
24
19
49
73
71
36
83
43
59
30
5
11
26
47
64
54
69
10
33
85
75
44
40
57
41

>  <PUBCHEM_MMFF94_PARTIAL_CHARGES>  (1) 
21
1 -0.43
12 0.28
15 0.63
16 0.09
17 -0.15
18 -0.15
19 -0.15
2 -0.57
20 -0.15
21 0.1
3 -0.81
4 -0.9
44 0.15
45 0.15
46 0.15
47 0.15
48 0.4
49 0.4
5 0.27
6 0.27
7 0.27

>  <PUBCHEM_EFFECTIVE_ROTOR_COUNT>  (1) 
11

>  <PUBCHEM_PHARMACOPHORE_FEATURES>  (1) 
7
1 13 hydrophobe
1 14 hydrophobe
1 2 acceptor
1 3 cation
1 4 cation
1 4 donor
6 16 17 18 19 20 21 rings

>  <PUBCHEM_HEAVY_ATOM_COUNT>  (1) 
21

>  <PUBCHEM_ATOM_DEF_STEREO_COUNT>  (1) 
0

>  <PUBCHEM_ATOM_UDEF_STEREO_COUNT>  (1) 
0

>  <PUBCHEM_BOND_DEF_STEREO_COUNT>  (1) 
0

>  <PUBCHEM_BOND_UDEF_STEREO_COUNT>  (1) 
0

>  <PUBCHEM_ISOTOPIC_ATOM_COUNT>  (1) 
0

>  <PUBCHEM_COMPONENT_COUNT>  (1) 
1

>  <PUBCHEM_CACTVS_TAUTO_COUNT>  (1) 
2

>  <PUBCHEM_CONFORMER_ID>  (1) 
000069DA00000001

>  <PUBCHEM_MMFF94_ENERGY>  (1) 
43.2644

>  <PUBCHEM_FEATURE_SELFOVERLAP>  (1) 
35.52

>  <PUBCHEM_SHAPE_FINGERPRINT>  (1) 
107951 10 18340202978359751815
10835480 77 18059564794269914128
10912923 1 17603859031641157960
11014199 57 18262798604941379301
11056379 131 18335137639748954811
11545043 162 18342736351295896898
11796584 16 18339080394094041990
11809386 21 18261384581152968451
12549972 3 17917414454799297321
12616971 3 16660365861694386988
13540713 4 18058436759226034561
15183329 4 17845650322464840304
15230672 131 18191305983765551722
15927050 60 18339075974789303599
17834072 8 17988921115838826628
17844677 252 18337957890978699440
20681677 155 18335137553485423769
21033648 29 17916849296863673528
21065201 7 18339068371736308200
21426921 1 18336542811440476459
21623969 137 17703800266456364014
220451 1 17894910694610847066
23081809 10 17240477014519779824
23559900 14 18266730454253056401
4058900 60 17980201886353350753
4073 2 18410854369697183002
5104073 3 18201998854683022314
56616090 163 18339642227086583877
56616090 46 18341049593438406973
59755656 520 18337383839241596109
6009941 240 18343300336600329872
77188 2 17832425676928291975
8863177 126 18127695044321282070

>  <PUBCHEM_SHAPE_MULTIPOLES>  (1) 
410.47
17.23
4.34
1.06
14.08
3.44
-0.11
-1.87
2.35
-14.62
-0.83
0.73
-0.04
2.38

>  <PUBCHEM_SHAPE_SELFOVERLAP>  (1) 
810.243

>  <PUBCHEM_SHAPE_VOLUME>  (1) 
246.7

>  <PUBCHEM_COORDINATE_TYPE>  (1) 
2
5
10

$$$$
