27090
     RDKit          3D

 24 24  0  0  0  0  0  0  0  0999 V2000
    0.8204    1.5286   -0.3855 O   0  0  0  0  0  0  0  0  0  0  0  0
    1.4030    2.2040    1.7367 O   0  0  0  0  0  0  0  0  0  0  0  0
   -2.2019   -0.1526   -0.7553 N   0  0  0  0  0  0  0  0  0  0  0  0
    6.5329   -1.0511   -0.2942 N   0  0  0  0  0  0  0  0  0  0  0  0
   -3.4852    0.5273   -0.5736 C   0  0  0  0  0  0  0  0  0  0  0  0
   -2.4075   -1.5712   -1.0292 C   0  0  0  0  0  0  0  0  0  0  0  0
   -4.2754   -0.1321    0.5581 C   0  0  0  0  0  0  0  0  0  0  0  0
   -1.0600   -2.2841   -1.1560 C   0  0  0  0  0  0  0  0  0  0  0  0
   -1.4425    0.4753   -1.8373 C   0  0  0  0  0  0  0  0  0  0  0  0
   -5.6408    0.5327    0.8166 C   0  0  0  0  0  0  0  0  0  0  0  0
   -0.1942   -2.1826    0.1144 C   0  0  0  0  0  0  0  0  0  0  0  0
   -1.2311    1.9573   -1.5451 C   0  0  0  0  0  0  0  0  0  0  0  0
   -6.4758    0.5195   -0.4663 C   0  0  0  0  0  0  0  0  0  0  0  0
   -6.4182   -0.1478    1.9445 C   0  0  0  0  0  0  0  0  0  0  0  0
   -0.9619   -2.7475    1.3122 C   0  0  0  0  0  0  0  0  0  0  0  0
    1.1434   -2.9100   -0.0302 C   0  0  0  0  0  0  0  0  0  0  0  0
   -0.4431    2.1663   -0.2590 C   0  0  0  0  0  0  0  0  0  0  0  0
    1.6501    1.6250    0.6902 C   0  0  0  0  0  0  0  0  0  0  0  0
    2.9320    0.9218    0.4316 C   0  0  0  0  0  0  0  0  0  0  0  0
    3.6135    0.3652    1.4944 C   0  0  0  0  0  0  0  0  0  0  0  0
    3.4024    0.8473   -0.8635 C   0  0  0  0  0  0  0  0  0  0  0  0
    4.8182   -0.2947    1.2517 C   0  0  0  0  0  0  0  0  0  0  0  0
    4.6070    0.1873   -1.1064 C   0  0  0  0  0  0  0  0  0  0  0  0
    5.3149   -0.3838   -0.0488 C   0  0  0  0  0  0  0  0  0  0  0  0
  1 17  1  0
  1 18  1  0
  2 18  2  0
  3  5  1  0
  3  6  1  0
  3  9  1  0
  4 24  1  0
  5  7  1  0
  6  8  1  0
  7 10  1  0
  8 11  1  0
  9 12  1  0
 10 13  1  0
 10 14  1  0
 11 15  1  0
 11 16  1  0
 12 17  1  0
 18 19  1  0
 19 20  2  0
 19 21  1  0
 20 22  1  0
 21 23  2  0
 22 24  2  0
 23 24  1  0
M  END
>  <PUBCHEM_COMPOUND_CID>  (1) 
27090

>  <PUBCHEM_CONFORMER_RMSD>  (1) 
1

>  <PUBCHEM_CONFORMER_DIVERSEORDER>  (1) 
1
73
67
131
185
40
321
251
235
41
47
209
49
37
167
196
326
119
300
238
316
135
296
122
170
87
245
155
147
190
14
56
194
106
293
105
199
39
125
180
181
224
38
279
323
3
331
302
113
141
303
211
115
57
137
21
286
118
158
129
35
292
230
85
315
66
297
23
96
310
215
311
246
123
188
219
164
178
33
307
218
64
265
126
294
258
201
156
216
151
154
163
99
260
45
309
232
255
162
60
25
234
320
203
276
281
333
221
161
250
138
140
102
17
12
104
322
128
239
202
280
233
222
191
121
36
182
295
184
19
262
186
44
160
227
148
84
82
301
329
328
299
10
48
317
242
174
143
71
189
32
213
197
18
79
88
15
149
283
252
335
228
63
20
217
61
325
159
103
13
231
334
9
272
78
24
308
226
31
139
220
134
27
55
314
266
53
288
165
318
76
114
34
69
270
112
241
86
274
237
136
146
51
145
289
153
157
77
43
229
257
11
171
111
319
116
173
304
225
214
150
287
117
2
68
8
223
285
42
195
277
97
166
132
192
204
110
267
327
175
236
312
269
93
65
120
62
187
284
72
91
206
58
298
109
90
80
70
7
101
16
275
207
46
176
74
179
291
124
89
243
332
168
6
324
28
59
22
248
177
26
144
205
95
92
100
107
259
261
152
244
271
81
330
212
198
306
264
52
273
50
130
98
94
83
305
30
4
290
253
210
54
278
200
208
75
254
247
240
193
282
263
169
133
5
268
127
142
313
29
183
249
108
256
172

>  <PUBCHEM_MMFF94_PARTIAL_CHARGES>  (1) 
21
1 -0.43
17 0.28
18 0.63
19 0.09
2 -0.57
20 -0.15
21 -0.15
22 -0.15
23 -0.15
24 0.1
3 -0.81
4 -0.9
5 0.27
53 0.15
54 0.15
55 0.15
56 0.15
57 0.4
58 0.4
6 0.27
9 0.27

>  <PUBCHEM_EFFECTIVE_ROTOR_COUNT>  (1) 
12

>  <PUBCHEM_PHARMACOPHORE_FEATURES>  (1) 
7
1 2 acceptor
1 3 cation
1 4 cation
1 4 donor
3 10 13 14 hydrophobe
3 11 15 16 hydrophobe
6 19 20 21 22 23 24 rings

>  <PUBCHEM_HEAVY_ATOM_COUNT>  (1) 
24

>  <PUBCHEM_ATOM_DEF_STEREO_COUNT>  (1) 
0

>  <PUBCHEM_ATOM_UDEF_STEREO_COUNT>  (1) 
0

>  <PUBCHEM_BOND_DEF_STEREO_COUNT>  (1) 
0

>  <PUBCHEM_BOND_UDEF_STEREO_COUNT>  (1) 
0

>  <PUBCHEM_ISOTOPIC_ATOM_COUNT>  (1) 
0

>  <PUBCHEM_COMPONENT_COUNT>  (1) 
1

>  <PUBCHEM_CACTVS_TAUTO_COUNT>  (1) 
2

>  <PUBCHEM_CONFORMER_ID>  (1) 
000069D200000001

>  <PUBCHEM_MMFF94_ENERGY>  (1) 
60.3439

>  <PUBCHEM_FEATURE_SELFOVERLAP>  (1) 
35.521

>  <PUBCHEM_SHAPE_FINGERPRINT>  (1) 
10674148 151 18131078100266038864
10692045 39 17060070228491292351
11036077 3 18411140229809304551
11646440 116 17989214750041532425
12166972 35 12607413207902465897
12467345 10 16845578578044410859
12553582 1 18261096500674415604
12633257 1 18273209832835452084
12788726 201 18272385165177427112
13402501 40 18335703823237652650
13914758 101 14548750469025122966
14251764 30 17458067096843711737
14617045 38 18410857638288842094
14765038 42 18270959158814992616
14955137 171 18187373168259150069
15295992 7 18128819818624056795
15420108 30 18129659691685452957
15537594 2 18260540126305355530
18769570 83 14979962454218714323
20511986 3 13398335864051806158
20832881 197 18131351916572554864
21304304 249 17677342740006553787
21403212 168 18059856130596426845
21639891 77 13253933806747286879
22950370 63 17240766194325402173
23559900 14 18342448288783891828
2838139 119 15267341799923206033
3009799 131 10231755565917504595
339767 52 12031782570325813662
404807 14 15046434374194275943
4325135 7 14129060317861204548
465052 167 17603594049254513305
59755656 215 18338514145046295615

>  <PUBCHEM_SHAPE_MULTIPOLES>  (1) 
472.21
13.88
2.72
1.67
4.75
1.49
0.23
-0.51
3.87
-0.15
-0.03
0.67
-0.19
0.43

>  <PUBCHEM_SHAPE_SELFOVERLAP>  (1) 
936.627

>  <PUBCHEM_SHAPE_VOLUME>  (1) 
282.3

>  <PUBCHEM_COORDINATE_TYPE>  (1) 
2
5
10

$$$$
