27106
     RDKit          3D

 28 31  0  0  1  0  0  0  0  0999 V2000
   -1.5124   -0.3578    2.0814 S   0  0  0  0  0  0  0  0  0  0  0  0
    0.2758    2.5445   -1.5230 O   0  0  0  0  0  0  0  0  0  0  0  0
   -7.3902   -1.3618   -1.2337 O   0  0  0  0  0  0  0  0  0  0  0  0
   -5.2317   -0.8869    0.5598 N   0  0  0  0  0  0  0  0  0  0  0  0
   -0.1652    2.6805   -0.1616 C   0  0  0  0  0  0  0  0  0  0  0  0
    0.7031    0.3388    0.4281 C   0  0  0  0  0  0  0  0  0  0  0  0
    0.7173    1.8511    0.7507 C   0  0  0  0  0  0  0  0  0  0  0  0
   -0.1296    4.1670    0.1482 C   0  0  0  0  0  0  0  0  0  0  0  0
   -0.4949    4.7614   -1.1888 C   0  0  0  0  0  0  0  0  0  0  0  0
    1.6832   -0.4388    1.3520 C   0  0  0  0  0  0  0  0  0  0  0  0
   -0.7086   -0.2894    0.4493 C   0  0  0  0  0  0  0  0  0  0  0  0
    0.2208    3.8352   -2.1490 C   0  0  0  0  0  0  0  0  0  0  0  0
    3.1273   -0.2996    0.9801 C   0  0  0  0  0  0  0  0  0  0  0  0
   -3.0347   -1.1940    1.5837 C   0  0  0  0  0  0  0  0  0  0  0  0
   -4.0049   -0.1998    0.9578 C   0  0  0  0  0  0  0  0  0  0  0  0
    3.7551   -1.1845    0.0881 C   0  0  0  0  0  0  0  0  0  0  0  0
   -6.3429    0.0652    0.4252 C   0  0  0  0  0  0  0  0  0  0  0  0
   -5.0365   -1.6147   -0.7019 C   0  0  0  0  0  0  0  0  0  0  0  0
    3.8382    0.7530    1.5574 C   0  0  0  0  0  0  0  0  0  0  0  0
    5.1231   -0.9986   -0.2227 C   0  0  0  0  0  0  0  0  0  0  0  0
   -7.6082   -0.6731   -0.0018 C   0  0  0  0  0  0  0  0  0  0  0  0
   -6.3327   -2.3127   -1.1034 C   0  0  0  0  0  0  0  0  0  0  0  0
    5.1834    0.9359    1.2513 C   0  0  0  0  0  0  0  0  0  0  0  0
    3.0551   -2.2494   -0.5021 C   0  0  0  0  0  0  0  0  0  0  0  0
    5.8232    0.0665    0.3672 C   0  0  0  0  0  0  0  0  0  0  0  0
    5.7511   -1.8831   -1.1147 C   0  0  0  0  0  0  0  0  0  0  0  0
    3.6951   -3.1188   -1.3860 C   0  0  0  0  0  0  0  0  0  0  0  0
    5.0405   -2.9361   -1.6917 C   0  0  0  0  0  0  0  0  0  0  0  0
  1 11  1  0
  1 14  1  0
  2  5  1  0
  2 12  1  0
  3 21  1  0
  3 22  1  0
  4 15  1  0
  4 17  1  0
  4 18  1  0
  5  7  1  0
  5  8  1  0
  6  7  1  0
  6 10  1  0
  6 11  1  0
  8  9  1  0
  9 12  1  0
 10 13  1  0
 13 16  1  0
 13 19  2  0
 14 15  1  0
 16 20  2  0
 16 24  1  0
 17 21  1  0
 18 22  1  0
 19 23  1  0
 20 25  1  0
 20 26  1  0
 23 25  2  0
 24 27  2  0
 26 28  2  0
 27 28  1  0
M  END
>  <PUBCHEM_COMPOUND_CID>  (1) 
27106

>  <PUBCHEM_CONFORMER_RMSD>  (1) 
1.2

>  <PUBCHEM_CONFORMER_DIVERSEORDER>  (1) 
1
55
76
58
6
51
160
47
189
90
136
78
103
165
140
175
72
215
45
198
176
102
75
4
53
22
49
34
61
149
88
10
204
167
166
13
66
59
147
120
143
191
211
169
139
23
146
11
18
190
104
17
151
142
26
15
155
214
129
95
162
188
123
98
192
29
134
125
32
96
68
122
108
212
153
138
27
86
179
168
110
69
159
126
82
201
31
118
30
144
145
36
208
44
183
180
93
19
111
154
107
185
106
128
184
24
70
156
3
99
9
132
56
195
33
158
161
124
174
202
216
178
50
92
12
71
40
39
173
14
181
65
28
213
97
177
199
196
20
73
80
8
79
41
171
194
187
85
193
48
91
148
101
182
117
43
210
5
207
21
46
150
35
170
172
54
67
163
152
63
121
83
157
7
38
37
89
105
77
2
133
100
16
130
25
62
186
84
87
57
205
116
109
209
64
42
112
197
114
141
206
52
164
60
113
81
127
135
94
200
137
119
74
131
203
115

>  <PUBCHEM_MMFF94_PARTIAL_CHARGES>  (1) 
29
1 -0.46
10 0.14
11 0.23
12 0.28
13 -0.14
14 0.23
15 0.27
17 0.27
18 0.27
19 -0.15
2 -0.56
21 0.28
22 0.28
23 -0.15
24 -0.15
25 -0.15
26 -0.15
27 -0.15
28 -0.15
3 -0.56
4 -0.81
5 0.28
51 0.15
56 0.15
57 0.15
58 0.15
59 0.15
60 0.15
61 0.15

>  <PUBCHEM_EFFECTIVE_ROTOR_COUNT>  (1) 
11.2

>  <PUBCHEM_PHARMACOPHORE_FEATURES>  (1) 
8
1 2 acceptor
1 3 acceptor
1 4 cation
5 2 5 8 9 12 rings
6 1 6 7 10 11 14 hydrophobe
6 13 16 19 20 23 25 rings
6 16 20 24 26 27 28 rings
6 3 4 17 18 21 22 rings

>  <PUBCHEM_HEAVY_ATOM_COUNT>  (1) 
28

>  <PUBCHEM_ATOM_DEF_STEREO_COUNT>  (1) 
0

>  <PUBCHEM_ATOM_UDEF_STEREO_COUNT>  (1) 
2

>  <PUBCHEM_BOND_DEF_STEREO_COUNT>  (1) 
0

>  <PUBCHEM_BOND_UDEF_STEREO_COUNT>  (1) 
0

>  <PUBCHEM_ISOTOPIC_ATOM_COUNT>  (1) 
0

>  <PUBCHEM_COMPONENT_COUNT>  (1) 
1

>  <PUBCHEM_CACTVS_TAUTO_COUNT>  (1) 
1

>  <PUBCHEM_CONFORMER_ID>  (1) 
000069E200000001

>  <PUBCHEM_MMFF94_ENERGY>  (1) 
70.2403

>  <PUBCHEM_FEATURE_SELFOVERLAP>  (1) 
40.623

>  <PUBCHEM_SHAPE_FINGERPRINT>  (1) 
10165383 225 17988076820807350936
10815517 723 18265346010517109689
11331351 85 18343309137242131481
11386260 185 18189320429723041517
11497681 19 18131638859564846558
12166972 35 18273214240278766329
12516196 113 18334857225354483067
12623949 98 17774732973967330574
12788726 201 17822294526795683640
13167372 99 13045938001803639971
13383665 225 18190765084701521956
13533116 47 17561363984827044554
1361 2 18343865528158083778
13726171 33 13552012371279392311
14068700 675 18272368685551059833
14556957 393 17824008678355728980
15021287 119 18337969934995270201
15183329 4 16950286196024293391
15198563 99 18115876208644186549
15420108 30 17475779327478129272
1813 80 18409168817928703837
18365409 1 17973163925008613949
20642791 239 15937280887372786748
21285901 2 18410856525749614818
21424621 283 8574708001107241855
21641784 216 17313388868261652852
23559900 14 18263358265323658195
24771293 8 18339358668866645048
24771750 20 17465965051663938181
249057 3 18336540612823662723
340366 18 18337672044131567291
437795 70 18261108531379016853
437815 12 18407477765420286061
465052 167 15769777969955720946
5081480 168 17676763275581619333
563151 248 12463001044993034126
5969126 39 18336549309367247412
613672 6 18261119590107356539
7399639 24 18413100668190583888

>  <PUBCHEM_SHAPE_MULTIPOLES>  (1) 
563.36
17.52
4.74
1.84
25.18
6.54
0.12
-17.15
3.28
-1.24
3.8
-0.41
0.24
1.6

>  <PUBCHEM_SHAPE_SELFOVERLAP>  (1) 
1166.496

>  <PUBCHEM_SHAPE_VOLUME>  (1) 
324

>  <PUBCHEM_COORDINATE_TYPE>  (1) 
2
5
10

$$$$
