27107
     RDKit          3D

 17 18  0  0  1  0  0  0  0  0999 V2000
    0.8525   -1.7786    0.2838 O   0  0  0  0  0  0  0  0  0  0  0  0
    0.0912    1.5978    0.0882 N   0  0  0  0  0  0  0  0  0  0  0  0
   -0.3482    0.2717    0.2178 N   0  0  0  0  0  0  0  0  0  0  0  0
    3.1987   -0.2108   -0.1710 N   0  0  0  0  0  0  0  0  0  0  0  0
    1.4672    1.5572   -0.1242 C   0  0  0  0  0  0  0  0  0  0  0  0
    1.9595    0.3112   -0.0577 C   0  0  0  0  0  0  0  0  0  0  0  0
    0.7742   -0.5630    0.2003 C   0  0  0  0  0  0  0  0  0  0  0  0
   -1.6988   -0.1231    0.0482 C   0  0  0  0  0  0  0  0  0  0  0  0
   -0.5046    2.6155    0.9484 C   0  0  0  0  0  0  0  0  0  0  0  0
    2.2526    2.8066   -0.3436 C   0  0  0  0  0  0  0  0  0  0  0  0
    3.4926   -1.6246   -0.0594 C   0  0  0  0  0  0  0  0  0  0  0  0
   -2.1165   -1.3954    0.4511 C   0  0  0  0  0  0  0  0  0  0  0  0
   -2.6238    0.7569   -0.5224 C   0  0  0  0  0  0  0  0  0  0  0  0
    4.9663   -1.9034   -0.2709 C   0  0  0  0  0  0  0  0  0  0  0  0
   -3.4457   -1.7840    0.2848 C   0  0  0  0  0  0  0  0  0  0  0  0
   -3.9531    0.3683   -0.6886 C   0  0  0  0  0  0  0  0  0  0  0  0
   -4.3640   -0.9023   -0.2849 C   0  0  0  0  0  0  0  0  0  0  0  0
  1  7  2  0
  2  3  1  0
  2  5  1  0
  2  9  1  0
  3  7  1  0
  3  8  1  0
  4  6  1  0
  4 11  1  0
  5  6  2  0
  5 10  1  0
  6  7  1  0
  8 12  2  0
  8 13  1  0
 11 14  1  0
 12 15  1  0
 13 16  2  0
 15 17  2  0
 16 17  1  0
M  END
>  <PUBCHEM_COMPOUND_CID>  (1) 
27107

>  <PUBCHEM_CONFORMER_RMSD>  (1) 
0.6

>  <PUBCHEM_CONFORMER_DIVERSEORDER>  (1) 
1
9
6
13
4
11
5
8
14
10
2
7
12
3

>  <PUBCHEM_MMFF94_PARTIAL_CHARGES>  (1) 
22
1 -0.57
10 0.14
11 0.37
12 -0.15
13 -0.15
15 -0.15
16 -0.15
17 -0.15
18 0.4
2 -0.49
27 0.15
28 0.15
3 -0.16
32 0.15
33 0.15
34 0.15
4 -0.87
5 -0.04
6 0.11
7 0.62
8 0.12
9 0.37

>  <PUBCHEM_EFFECTIVE_ROTOR_COUNT>  (1) 
3

>  <PUBCHEM_PHARMACOPHORE_FEATURES>  (1) 
5
1 1 acceptor
1 4 cation
1 4 donor
5 2 3 5 6 7 rings
6 8 12 13 15 16 17 rings

>  <PUBCHEM_HEAVY_ATOM_COUNT>  (1) 
17

>  <PUBCHEM_ATOM_DEF_STEREO_COUNT>  (1) 
0

>  <PUBCHEM_ATOM_UDEF_STEREO_COUNT>  (1) 
0

>  <PUBCHEM_BOND_DEF_STEREO_COUNT>  (1) 
0

>  <PUBCHEM_BOND_UDEF_STEREO_COUNT>  (1) 
0

>  <PUBCHEM_ISOTOPIC_ATOM_COUNT>  (1) 
0

>  <PUBCHEM_COMPONENT_COUNT>  (1) 
1

>  <PUBCHEM_CACTVS_TAUTO_COUNT>  (1) 
1

>  <PUBCHEM_CONFORMER_ID>  (1) 
000069E300000001

>  <PUBCHEM_MMFF94_ENERGY>  (1) 
59.6241

>  <PUBCHEM_FEATURE_SELFOVERLAP>  (1) 
25.371

>  <PUBCHEM_SHAPE_FINGERPRINT>  (1) 
10608611 8 18261667186111856813
10967382 1 18266460003977268737
1100329 8 18198348346729516817
11471102 20 18409444816853624165
11680986 33 18335988687454853688
116883 192 18199193892682243484
11806522 49 18410575072368955796
12032990 46 18411420609115654514
12916754 54 18337956796199869427
13134695 92 17988914600283696368
13140716 1 18412834581258833513
14115302 16 18113627763262703735
14790565 3 17258499942334125924
14911166 2 18262234426257435535
15196674 1 18409448120047530055
15219456 202 18262516030494504545
15442244 35 18411985745444923377
15536298 74 18340204188828229392
16945 1 18188761760912932149
18186145 218 17749381590157750719
200 152 18131345328556920183
20281475 54 18341335608200674475
20645477 70 18337104678614006287
20671657 53 18411142415683777772
21029758 11 18411699864100487048
21041028 32 18343309162631672145
21267235 1 18410582760007526939
21296965 67 18341612590498973858
21501502 16 18338237171627782105
21634736 98 18411141359232410910
221490 88 18262806296789670618
23402539 116 18269269067492752526
23419403 2 17914584251687702840
23526113 38 18261674903756514633
23557571 272 17914057495729133198
23559900 14 18410566293276682176
2748010 2 18264207083235284385
335352 9 18338234856529731157
5104073 3 18337391642917286859
5493415 88 18411135848488715706
7364860 26 18339923839439041816
81228 2 18053957155569994152
8809292 202 18260552229528528843
9709674 26 18189898797728216619

>  <PUBCHEM_SHAPE_MULTIPOLES>  (1) 
329.04
7.97
2.77
0.75
0.8
1.36
0.02
-5.29
-1.48
1.88
0.28
-0.22
0.15
0.19

>  <PUBCHEM_SHAPE_SELFOVERLAP>  (1) 
691.467

>  <PUBCHEM_SHAPE_VOLUME>  (1) 
187.2

>  <PUBCHEM_COORDINATE_TYPE>  (1) 
2
5
10

$$$$
