27112
     RDKit          3D

 28 30  0  0  1  0  0  0  0  0999 V2000
    1.8591   -1.6335   -0.9396 O   0  0  0  0  0  0  0  0  0  0  0  0
   -1.0598    0.1480    1.9288 O   0  0  0  0  0  0  0  0  0  0  0  0
   -7.2847    0.3161   -0.2773 O   0  0  0  0  0  0  0  0  0  0  0  0
   -5.8296    1.9594   -0.2377 O   0  0  0  0  0  0  0  0  0  0  0  0
    2.5918    1.5809    0.1572 N   0  0  0  0  0  0  0  0  0  0  0  0
    3.0467    0.3110   -0.2477 N   0  0  0  0  0  0  0  0  0  0  0  0
   -0.5287   -0.1069   -0.3426 N   0  0  0  0  0  0  0  0  0  0  0  0
   -6.1132    0.7418   -0.1317 N   0  0  0  0  0  0  0  0  0  0  0  0
    0.7393    0.3423   -0.2142 C   0  0  0  0  0  0  0  0  0  0  0  0
    1.1982    1.5264    0.2096 C   0  0  0  0  0  0  0  0  0  0  0  0
    1.9309   -0.4780   -0.5544 C   0  0  0  0  0  0  0  0  0  0  0  0
   -0.9765   -0.5114   -1.6923 C   0  0  0  0  0  0  0  0  0  0  0  0
    4.3718   -0.1452   -0.0373 C   0  0  0  0  0  0  0  0  0  0  0  0
    0.3944    2.7049    0.6455 C   0  0  0  0  0  0  0  0  0  0  0  0
    3.2753    2.7611   -0.3628 C   0  0  0  0  0  0  0  0  0  0  0  0
   -1.3819   -0.1757    0.7854 C   0  0  0  0  0  0  0  0  0  0  0  0
   -1.5810    0.6535   -2.4487 C   0  0  0  0  0  0  0  0  0  0  0  0
   -2.7655   -0.6494    0.6117 C   0  0  0  0  0  0  0  0  0  0  0  0
    4.8345   -1.2911   -0.6918 C   0  0  0  0  0  0  0  0  0  0  0  0
    5.2265    0.5466    0.8268 C   0  0  0  0  0  0  0  0  0  0  0  0
   -3.7663    0.2658    0.3271 C   0  0  0  0  0  0  0  0  0  0  0  0
    6.1387   -1.7405   -0.4844 C   0  0  0  0  0  0  0  0  0  0  0  0
    6.5306    0.0974    1.0339 C   0  0  0  0  0  0  0  0  0  0  0  0
   -3.0405   -2.0018    0.7367 C   0  0  0  0  0  0  0  0  0  0  0  0
    6.9868   -1.0461    0.3783 C   0  0  0  0  0  0  0  0  0  0  0  0
   -5.0768   -0.1832    0.1628 C   0  0  0  0  0  0  0  0  0  0  0  0
   -4.3510   -2.4508    0.5729 C   0  0  0  0  0  0  0  0  0  0  0  0
   -5.3691   -1.5415    0.2858 C   0  0  0  0  0  0  0  0  0  0  0  0
  1 11  2  0
  2 16  2  0
  3  8  1  0
  4  8  2  0
  5  6  1  0
  5 10  1  0
  5 15  1  0
  6 11  1  0
  6 13  1  0
  7  9  1  0
  7 12  1  0
  7 16  1  0
  8 26  1  0
  9 10  2  0
  9 11  1  0
 10 14  1  0
 12 17  1  0
 13 19  2  0
 13 20  1  0
 16 18  1  0
 18 21  2  0
 18 24  1  0
 19 22  1  0
 20 23  2  0
 21 26  1  0
 22 25  2  0
 23 25  1  0
 24 27  2  0
 26 28  2  0
 27 28  1  0
M  CHG  2   3  -1   8   1
M  END
>  <PUBCHEM_COMPOUND_CID>  (1) 
27112

>  <PUBCHEM_CONFORMER_RMSD>  (1) 
0.8

>  <PUBCHEM_CONFORMER_DIVERSEORDER>  (1) 
5
25
42
2
29
56
41
21
30
24
61
62
44
36
45
23
3
19
58
43
8
35
57
40
31
39
59
51
46
47
37
27
26
1
54
10
13
32
34
7
28
60
49
38
22
50
53
33
14
52
9
4
11
48
20
12
18
55
6
15
16
17

>  <PUBCHEM_MMFF94_PARTIAL_CHARGES>  (1) 
36
1 -0.57
10 -0.04
11 0.62
12 0.3
13 0.12
14 0.14
15 0.37
16 0.54
18 0.09
19 -0.15
2 -0.57
20 -0.15
21 -0.15
22 -0.15
23 -0.15
24 -0.15
25 -0.15
26 0.13
27 -0.15
28 -0.15
3 -0.52
4 -0.52
40 0.15
41 0.15
42 0.15
43 0.15
44 0.15
45 0.15
46 0.15
47 0.15
48 0.15
5 -0.49
6 -0.16
7 -0.47
8 0.91
9 0.12

>  <PUBCHEM_EFFECTIVE_ROTOR_COUNT>  (1) 
6

>  <PUBCHEM_PHARMACOPHORE_FEATURES>  (1) 
8
1 1 acceptor
1 2 acceptor
1 3 acceptor
1 3 anion
1 4 acceptor
5 5 6 9 10 11 rings
6 13 19 20 22 23 25 rings
6 18 21 24 26 27 28 rings

>  <PUBCHEM_HEAVY_ATOM_COUNT>  (1) 
28

>  <PUBCHEM_ATOM_DEF_STEREO_COUNT>  (1) 
0

>  <PUBCHEM_ATOM_UDEF_STEREO_COUNT>  (1) 
0

>  <PUBCHEM_BOND_DEF_STEREO_COUNT>  (1) 
0

>  <PUBCHEM_BOND_UDEF_STEREO_COUNT>  (1) 
0

>  <PUBCHEM_ISOTOPIC_ATOM_COUNT>  (1) 
0

>  <PUBCHEM_COMPONENT_COUNT>  (1) 
1

>  <PUBCHEM_CACTVS_TAUTO_COUNT>  (1) 
1

>  <PUBCHEM_CONFORMER_ID>  (1) 
000069E800000005

>  <PUBCHEM_MMFF94_ENERGY>  (1) 
121.915

>  <PUBCHEM_FEATURE_SELFOVERLAP>  (1) 
40.68

>  <PUBCHEM_SHAPE_FINGERPRINT>  (1) 
10 15 17917421048085831738
11719270 70 18202284701810358878
11796584 16 17458633341237827834
12236239 1 17418088827865959862
12516196 113 18343585144350180730
13583140 156 18130509751349004279
13782708 43 18040997388049360082
13914758 101 18342459197177774489
14294032 229 16082480052259091341
14790565 3 17329713631554970892
14856354 85 14923953340832487739
14955137 171 18273498979356813760
15183329 4 18114179718231625099
15461852 350 16630522968458773045
15849732 13 17775001284563109220
15961568 22 11815906656067096082
17492 89 17826804938711118779
17980427 23 17275120409449752369
1813 80 18341065038552136780
18222031 100 18271259265712799508
21033648 29 17060046013228333658
21521721 280 11314319342884911782
21792934 111 18342727504491767240
23402539 116 16877941650588696895
23522609 53 17386592179412588684
23559900 14 18411978100598016857
23622692 88 16702302373454833948
249057 3 18408603673948523239
3004659 81 18114185250634720730
3009799 131 18272931605022627433
335352 9 18409731767908453615
4073 2 17968663838215247322
4098825 35 17967532398254513772
4258327 124 11095295579055954218
437815 12 18409729564558763916
44317340 157 12685102496962465774
465052 167 18411987987998061550
5104073 3 18269566094477211099
559249 180 18407759248786763651
59755656 215 18334295323257427026

>  <PUBCHEM_SHAPE_MULTIPOLES>  (1) 
532.83
17.24
2.31
1.29
0.6
0.71
-0.48
-4.49
2.11
0.02
0.14
-0.17
0.04
1.09

>  <PUBCHEM_SHAPE_SELFOVERLAP>  (1) 
1150.921

>  <PUBCHEM_SHAPE_VOLUME>  (1) 
293.3

>  <PUBCHEM_COORDINATE_TYPE>  (1) 
2
5
10

$$$$
