27120
     RDKit          3D

 13 13  0  0  0  0  0  0  0  0999 V2000
    3.6687   -1.0922    0.0006 O   0  0  0  0  0  0  0  0  0  0  0  0
    3.6659    1.1032    0.0001 O   0  0  0  0  0  0  0  0  0  0  0  0
   -2.5965   -0.0022    0.0002 N   0  0  0  0  0  0  0  0  0  0  0  0
    3.0592    0.0048    0.0002 N   0  0  0  0  0  0  0  0  0  0  0  0
   -1.0659   -0.0003    0.0001 C   0  0  0  0  0  0  0  0  0  0  0  0
   -3.0861   -0.7260    1.2513 C   0  0  0  0  0  0  0  0  0  0  0  0
   -3.0867   -0.7067   -1.2617 C   0  0  0  0  0  0  0  0  0  0  0  0
   -3.1757    1.4110    0.0108 C   0  0  0  0  0  0  0  0  0  0  0  0
   -0.4515   -1.2075   -0.0006 C   0  0  0  0  0  0  0  0  0  0  0  0
   -0.4545    1.2085    0.0004 C   0  0  0  0  0  0  0  0  0  0  0  0
    0.9434   -1.2058   -0.0008 C   0  0  0  0  0  0  0  0  0  0  0  0
    0.9404    1.2102    0.0000 C   0  0  0  0  0  0  0  0  0  0  0  0
    1.6393    0.0030   -0.0005 C   0  0  0  0  0  0  0  0  0  0  0  0
  1  4  1  0
  2  4  2  0
  3  5  1  0
  3  6  1  0
  3  7  1  0
  3  8  1  0
  4 13  1  0
  5  9  2  0
  5 10  1  0
  9 11  1  0
 10 12  2  0
 11 13  2  0
 12 13  1  0
M  CHG  3   1  -1   3   1   4   1
M  END
>  <PUBCHEM_COMPOUND_CID>  (1) 
27120

>  <PUBCHEM_CONFORMER_RMSD>  (1) 
0.6

>  <PUBCHEM_CONFORMER_DIVERSEORDER>  (1) 
1

>  <PUBCHEM_MMFF94_PARTIAL_CHARGES>  (1) 
17
1 -0.52
10 -0.15
11 -0.15
12 -0.15
13 0.13
2 -0.52
23 0.15
24 0.15
25 0.15
26 0.15
3 -0.87
4 0.91
5 0.36
6 0.5
7 0.5
8 0.5
9 -0.15

>  <PUBCHEM_EFFECTIVE_ROTOR_COUNT>  (1) 
2

>  <PUBCHEM_PHARMACOPHORE_FEATURES>  (1) 
5
1 1 acceptor
1 1 anion
1 2 acceptor
1 3 cation
6 5 9 10 11 12 13 rings

>  <PUBCHEM_HEAVY_ATOM_COUNT>  (1) 
13

>  <PUBCHEM_ATOM_DEF_STEREO_COUNT>  (1) 
0

>  <PUBCHEM_ATOM_UDEF_STEREO_COUNT>  (1) 
0

>  <PUBCHEM_BOND_DEF_STEREO_COUNT>  (1) 
0

>  <PUBCHEM_BOND_UDEF_STEREO_COUNT>  (1) 
0

>  <PUBCHEM_ISOTOPIC_ATOM_COUNT>  (1) 
0

>  <PUBCHEM_COMPONENT_COUNT>  (1) 
1

>  <PUBCHEM_CACTVS_TAUTO_COUNT>  (1) 
1

>  <PUBCHEM_CONFORMER_ID>  (1) 
000069F000000001

>  <PUBCHEM_MMFF94_ENERGY>  (1) 
57.8842

>  <PUBCHEM_FEATURE_SELFOVERLAP>  (1) 
25.453

>  <PUBCHEM_SHAPE_FINGERPRINT>  (1) 
10219947 1 18412827992736640598
10608611 8 18408884027285005628
11132069 177 18201148884712616640
11401426 45 18342164553630743820
12032990 46 18336273379024725082
124424 183 17967806133114113443
12932764 1 17918273172916365857
13296908 3 18259707804434619650
13581323 91 15213308521083524721
14144814 61 18410012143447291914
14325111 11 18410856559808731040
14993402 34 18201151139322592422
15775835 57 18202003222553952661
16945 1 18338797917645691655
17844478 74 18113626698321745545
18186145 218 17530684290596935446
19026448 4 16515400776767973918
19026448 5 16559034900011225274
193761 8 17545883084487870624
200 152 18272644693303180647
20201158 50 18333731299609342707
20645477 70 18342171116288421310
23402539 116 18272923904525989364
23402655 69 18268413652400966293
23463225 33 18336546019448756682
23559900 14 18343017771276808994
2748010 2 18195247715385241430
3248919 1 17967250914080660933
5084963 1 17988356078789171067
528886 8 18410288082369439577

>  <PUBCHEM_SHAPE_MULTIPOLES>  (1) 
245.83
6.13
1.47
0.85
2.28
0.18
0
0.06
0
-0.05
0
-0.83
-0.19
0

>  <PUBCHEM_SHAPE_SELFOVERLAP>  (1) 
505.229

>  <PUBCHEM_SHAPE_VOLUME>  (1) 
145.2

>  <PUBCHEM_COORDINATE_TYPE>  (1) 
2
5
10

$$$$
