27122
     RDKit          3D

 23 26  0  0  1  0  0  0  0  0999 V2000
    4.8443    0.7459    1.2414 O   0  0  0  0  0  0  0  0  0  0  0  0
   -5.9582   -0.0828    0.1422 O   0  0  0  0  0  0  0  0  0  0  0  0
    0.4236   -0.8712    0.0064 N   0  0  0  0  0  0  0  0  0  0  0  0
    2.4982    0.3563    0.6099 C   0  0  0  0  0  0  0  0  0  0  0  0
    1.8564   -0.7373   -0.2761 C   0  0  0  0  0  0  0  0  0  0  0  0
    4.0014    0.2001    0.2352 C   0  0  0  0  0  0  0  0  0  0  0  0
    1.8327    1.6990    0.2663 C   0  0  0  0  0  0  0  0  0  0  0  0
    2.7774   -1.9403   -0.0378 C   0  0  0  0  0  0  0  0  0  0  0  0
   -0.2904    0.3843   -0.3819 C   0  0  0  0  0  0  0  0  0  0  0  0
    4.1838   -1.3365    0.1485 C   0  0  0  0  0  0  0  0  0  0  0  0
    0.3032    1.6000    0.3838 C   0  0  0  0  0  0  0  0  0  0  0  0
    2.3051    0.0902    2.1344 C   0  0  0  0  0  0  0  0  0  0  0  0
   -0.1756   -2.0259   -0.6677 C   0  0  0  0  0  0  0  0  0  0  0  0
   -1.8074    0.2705   -0.2134 C   0  0  0  0  0  0  0  0  0  0  0  0
   -1.5815   -2.2510   -0.1152 C   0  0  0  0  0  0  0  0  0  0  0  0
   -2.4144   -0.9974   -0.1184 C   0  0  0  0  0  0  0  0  0  0  0  0
    4.3546    0.8240   -1.0551 C   0  0  0  0  0  0  0  0  0  0  0  0
   -2.6377    1.4040   -0.2401 C   0  0  0  0  0  0  0  0  0  0  0  0
   -3.8072   -1.1060    0.0167 C   0  0  0  0  0  0  0  0  0  0  0  0
   -4.0240    1.2861   -0.1176 C   0  0  0  0  0  0  0  0  0  0  0  0
    4.6419    1.3309   -2.1047 C   0  0  0  0  0  0  0  0  0  0  0  0
   -4.6084    0.0323    0.0183 C   0  0  0  0  0  0  0  0  0  0  0  0
   -6.7179    1.1251    0.1249 C   0  0  0  0  0  0  0  0  0  0  0  0
  1  6  1  0
  2 22  1  0
  2 23  1  0
  3  5  1  0
  3  9  1  0
  3 13  1  0
  4  5  1  0
  4  6  1  0
  4  7  1  0
  4 12  1  0
  5  8  1  0
  6 10  1  0
  6 17  1  0
  7 11  1  0
  8 10  1  0
  9 11  1  0
  9 14  1  0
 13 15  1  0
 14 16  2  0
 14 18  1  0
 15 16  1  0
 16 19  1  0
 17 21  3  0
 18 20  2  0
 19 22  2  0
 20 22  1  0
M  END
>  <PUBCHEM_COMPOUND_CID>  (1) 
27122

>  <PUBCHEM_CONFORMER_RMSD>  (1) 
0.6

>  <PUBCHEM_CONFORMER_DIVERSEORDER>  (1) 
1
7
10
9
8
3
5
2
4
6

>  <PUBCHEM_MMFF94_PARTIAL_CHARGES>  (1) 
22
1 -0.68
13 0.27
14 -0.14
15 0.14
16 -0.14
17 -0.2
18 -0.15
19 -0.15
2 -0.36
20 -0.15
21 -0.18
22 0.08
23 0.28
3 -0.81
41 0.4
42 0.15
43 0.15
44 0.15
45 0.18
5 0.27
6 0.48
9 0.41

>  <PUBCHEM_EFFECTIVE_ROTOR_COUNT>  (1) 
2.4

>  <PUBCHEM_PHARMACOPHORE_FEATURES>  (1) 
9
1 1 acceptor
1 1 donor
1 2 acceptor
1 21 hydrophobe
1 3 cation
5 4 5 6 8 10 rings
6 14 16 18 19 20 22 rings
6 3 4 5 7 9 11 rings
6 3 9 13 14 15 16 rings

>  <PUBCHEM_HEAVY_ATOM_COUNT>  (1) 
23

>  <PUBCHEM_ATOM_DEF_STEREO_COUNT>  (1) 
3

>  <PUBCHEM_ATOM_UDEF_STEREO_COUNT>  (1) 
1

>  <PUBCHEM_BOND_DEF_STEREO_COUNT>  (1) 
0

>  <PUBCHEM_BOND_UDEF_STEREO_COUNT>  (1) 
0

>  <PUBCHEM_ISOTOPIC_ATOM_COUNT>  (1) 
0

>  <PUBCHEM_COMPONENT_COUNT>  (1) 
1

>  <PUBCHEM_CACTVS_TAUTO_COUNT>  (1) 
1

>  <PUBCHEM_CONFORMER_ID>  (1) 
000069F200000001

>  <PUBCHEM_MMFF94_ENERGY>  (1) 
79.1775

>  <PUBCHEM_FEATURE_SELFOVERLAP>  (1) 
45.777

>  <PUBCHEM_SHAPE_FINGERPRINT>  (1) 
10411042 1 17621321234358582407
10670039 82 18339938012879046644
10759866 29 18260554424472938870
10906281 52 18337973211701673901
11578080 2 16914798491300560978
12011746 2 18201726149523016790
12236239 1 17676488358814169197
12390115 104 17986969470468737305
12403259 415 18340759352370238741
12403814 3 17676481757027475037
12596602 18 17095528417841207761
12616971 3 17531237392211595502
12788726 201 17988373571853903825
128620 24 13479129094693373547
13140716 1 18196360644765358208
13533116 47 17632014148225815643
13583140 156 13182730498409823702
14341114 176 18412267216390021147
14341114 328 17603586352214014096
14790565 3 18410863118509083429
15196674 1 18412542102649808543
15238133 3 18335417997912453048
1601671 61 18410575097727601836
16945 1 18268698584124469870
17804303 29 18341895246528549737
17844677 252 16660361455036933397
1813 80 17313104124761893940
18186145 218 17418089936015046779
192875 21 13398632783282851955
200 152 17774996891507715357
21033648 29 18058713750652351713
21267235 1 18340210683146166326
21279426 13 18127129662946145613
212847 35 18411138026026578638
21285901 2 18130518418007666756
21421861 104 17968643922768608466
221357 26 16845857866798638417
23402539 116 18201710770010020917
23522609 53 18195274207329981809
23559900 14 18267862783578670398
3004659 81 18335422323124043414
335352 9 18413387618301167542
34797466 226 17988654037666325980
34934 24 18342731957824122602
350125 39 18339643317544001333
3545911 37 18413670205605601826
4340502 62 16443068300375154457
474 4 16806177695307385604
495365 180 17060042770818395778
5104073 3 18411980234928004387
542803 24 17894349982129723605
59682541 52 16271653261185082069
59755656 215 17989492892366220749

>  <PUBCHEM_SHAPE_MULTIPOLES>  (1) 
456.61
12.24
2.03
1.18
11.72
0.62
0.09
-3.59
-0.68
-0.16
-0.28
-1.87
-0.34
-0.54

>  <PUBCHEM_SHAPE_SELFOVERLAP>  (1) 
988.97

>  <PUBCHEM_SHAPE_VOLUME>  (1) 
251.1

>  <PUBCHEM_COORDINATE_TYPE>  (1) 
2
5
10

$$$$
