27137
     RDKit          3D

 16 15  0  0  0  0  0  0  0  0999 V2000
    0.9505   -0.9337    0.1825 C   0  0  0  0  0  0  0  0  0  0  0  0
   -1.4032    0.4502   -0.3220 C   0  0  0  0  0  0  0  0  0  0  0  0
    0.1264    0.3840    0.0582 C   0  0  0  0  0  0  0  0  0  0  0  0
    2.4002   -0.6308    0.7292 C   0  0  0  0  0  0  0  0  0  0  0  0
    3.3868    0.3968    0.0836 C   0  0  0  0  0  0  0  0  0  0  0  0
   -2.2646   -0.3024    0.7434 C   0  0  0  0  0  0  0  0  0  0  0  0
    0.3317   -1.9183    1.1996 C   0  0  0  0  0  0  0  0  0  0  0  0
    1.0463   -1.6833   -1.1636 C   0  0  0  0  0  0  0  0  0  0  0  0
   -1.6473   -0.0934   -1.7370 C   0  0  0  0  0  0  0  0  0  0  0  0
   -1.7673    1.9569   -0.3251 C   0  0  0  0  0  0  0  0  0  0  0  0
   -3.8099   -0.2078    0.6960 C   0  0  0  0  0  0  0  0  0  0  0  0
    3.8280    0.0280   -1.3371 C   0  0  0  0  0  0  0  0  0  0  0  0
    4.6556    0.4174    0.9745 C   0  0  0  0  0  0  0  0  0  0  0  0
    2.8242    1.8308    0.0833 C   0  0  0  0  0  0  0  0  0  0  0  0
   -4.3433    1.2234    0.7039 C   0  0  0  0  0  0  0  0  0  0  0  0
   -4.3140   -0.9177   -0.5694 C   0  0  0  0  0  0  0  0  0  0  0  0
  1  3  1  0
  1  4  1  0
  1  7  1  0
  1  8  1  0
  2  3  1  0
  2  6  1  0
  2  9  1  0
  2 10  1  0
  4  5  1  0
  5 12  1  0
  5 13  1  0
  5 14  1  0
  6 11  1  0
 11 15  1  0
 11 16  1  0
M  END
>  <PUBCHEM_COMPOUND_CID>  (1) 
27137

>  <PUBCHEM_CONFORMER_RMSD>  (1) 
0.8

>  <PUBCHEM_CONFORMER_DIVERSEORDER>  (1) 
1
3
4
2
6
5
7

>  <PUBCHEM_MMFF94_PARTIAL_CHARGES>  (1) 
0

>  <PUBCHEM_EFFECTIVE_ROTOR_COUNT>  (1) 
6

>  <PUBCHEM_PHARMACOPHORE_FEATURES>  (1) 
4
3 1 7 8 hydrophobe
3 11 15 16 hydrophobe
3 2 9 10 hydrophobe
4 5 12 13 14 hydrophobe

>  <PUBCHEM_HEAVY_ATOM_COUNT>  (1) 
16

>  <PUBCHEM_ATOM_DEF_STEREO_COUNT>  (1) 
0

>  <PUBCHEM_ATOM_UDEF_STEREO_COUNT>  (1) 
0

>  <PUBCHEM_BOND_DEF_STEREO_COUNT>  (1) 
0

>  <PUBCHEM_BOND_UDEF_STEREO_COUNT>  (1) 
0

>  <PUBCHEM_ISOTOPIC_ATOM_COUNT>  (1) 
0

>  <PUBCHEM_COMPONENT_COUNT>  (1) 
1

>  <PUBCHEM_CACTVS_TAUTO_COUNT>  (1) 
1

>  <PUBCHEM_CONFORMER_ID>  (1) 
00006A0100000001

>  <PUBCHEM_MMFF94_ENERGY>  (1) 
80.2879

>  <PUBCHEM_FEATURE_SELFOVERLAP>  (1) 
20.302

>  <PUBCHEM_SHAPE_FINGERPRINT>  (1) 
10366900 7 18041002855500140112
10922049 32 18413393137671850102
11132069 177 18341613754034294986
11615757 297 18202005434230196737
12633257 1 18040437702260359072
13214271 11 18413386544991671453
13221675 6 18273493472570456405
13549 16 10952056645279506939
13571099 22 9511465541421436280
13675066 3 17704072914805327968
13693222 15 16950564359000755729
14115302 16 9871462153603290034
14289901 80 16443342070133186224
14787075 74 18338799038911880393
14943859 89 16917349246718276214
15309172 13 18334856138479973715
15375358 24 17967532350967071003
15775835 57 17989201560159990488
16945 1 18410003356218666718
17802600 8 18334006211981689008
17834072 14 14345792755799276671
17834072 33 18272367590508004351
17846911 113 18259703419135769514
18186145 218 17561080302748229060
18511873 20 11095881575128333719
19050596 39 18187645786532910681
19422 9 17917997165617743191
19862831 5 15626224593719550574
200 152 18186789297356096751
20279233 1 17385442107782841355
20528008 55 17821727260342048523
20645477 56 17060048268350037392
20645477 70 14117528640357665212
20671657 53 11746938676501330798
20871999 31 11959718413187583944
21069387 34 11819285468157051851
21524375 3 18410853287302218474
22854114 59 18412263938844820577
23402539 116 18334005107816098975
23557571 272 16298657288153330719
23559900 14 18191584151210736482
2916195 48 17632283623475157328
296302 2 16298674961664191207
3286 77 18187357727756489308
3323516 105 18059590048270978022
34934 24 18339075991725949529
351380 180 18334571360910627000
474 4 18342457096917875304
4990 188 17846789498399905422
57812782 119 16226042288637744782
58051976 378 18410570669579298895
633830 44 18411422825461080924
69090 78 18201716301579933222
7364860 26 18118965793505616050
74978 22 10807634714886813199
81228 2 17536871448827780162
9882013 296 17240485805632051788

>  <PUBCHEM_SHAPE_MULTIPOLES>  (1) 
329.27
8.65
1.75
1.32
0.48
0.13
0.33
1.89
-1.04
0.05
-0.09
-0.16
-0.31
-0.1

>  <PUBCHEM_SHAPE_SELFOVERLAP>  (1) 
615.231

>  <PUBCHEM_SHAPE_VOLUME>  (1) 
212.3

>  <PUBCHEM_COORDINATE_TYPE>  (1) 
2
5
10

$$$$
