27144
     RDKit          3D

 12 13  0  0  0  0  0  0  0  0999 V2000
   -4.3030   -0.5985    0.0005 Br  0  0  0  0  0  0  0  0  0  0  0  0
    3.8791    0.4776   -0.0005 O   0  0  0  0  0  0  0  0  0  0  0  0
    0.2129    0.6989    0.0001 C   0  0  0  0  0  0  0  0  0  0  0  0
   -0.1281   -0.6746   -0.0001 C   0  0  0  0  0  0  0  0  0  0  0  0
    1.5672    1.0703    0.0004 C   0  0  0  0  0  0  0  0  0  0  0  0
    0.8954   -1.6364    0.0000 C   0  0  0  0  0  0  0  0  0  0  0  0
   -0.8107    1.6606    0.0001 C   0  0  0  0  0  0  0  0  0  0  0  0
   -1.4824   -1.0461   -0.0003 C   0  0  0  0  0  0  0  0  0  0  0  0
    2.5710    0.1014    0.0004 C   0  0  0  0  0  0  0  0  0  0  0  0
    2.2359   -1.2493    0.0002 C   0  0  0  0  0  0  0  0  0  0  0  0
   -2.1510    1.2734   -0.0002 C   0  0  0  0  0  0  0  0  0  0  0  0
   -2.4862   -0.0773   -0.0004 C   0  0  0  0  0  0  0  0  0  0  0  0
  1 12  1  0
  2  9  1  0
  3  4  1  0
  3  5  2  0
  3  7  1  0
  4  6  2  0
  4  8  1  0
  5  9  1  0
  6 10  1  0
  7 11  2  0
  8 12  2  0
  9 10  2  0
 11 12  1  0
M  END
>  <PUBCHEM_COMPOUND_CID>  (1) 
27144

>  <PUBCHEM_CONFORMER_RMSD>  (1) 
0.4

>  <PUBCHEM_CONFORMER_DIVERSEORDER>  (1) 
1

>  <PUBCHEM_MMFF94_PARTIAL_CHARGES>  (1) 
17
1 -0.11
10 -0.15
11 -0.15
12 0.11
13 0.15
14 0.15
15 0.15
16 0.15
17 0.15
18 0.15
19 0.45
2 -0.53
5 -0.15
6 -0.15
7 -0.15
8 -0.15
9 0.08

>  <PUBCHEM_EFFECTIVE_ROTOR_COUNT>  (1) 
0

>  <PUBCHEM_PHARMACOPHORE_FEATURES>  (1) 
4
1 1 hydrophobe
1 2 donor
6 3 4 5 6 9 10 rings
6 3 4 7 8 11 12 rings

>  <PUBCHEM_HEAVY_ATOM_COUNT>  (1) 
12

>  <PUBCHEM_ATOM_DEF_STEREO_COUNT>  (1) 
0

>  <PUBCHEM_ATOM_UDEF_STEREO_COUNT>  (1) 
0

>  <PUBCHEM_BOND_DEF_STEREO_COUNT>  (1) 
0

>  <PUBCHEM_BOND_UDEF_STEREO_COUNT>  (1) 
0

>  <PUBCHEM_ISOTOPIC_ATOM_COUNT>  (1) 
0

>  <PUBCHEM_COMPONENT_COUNT>  (1) 
1

>  <PUBCHEM_CACTVS_TAUTO_COUNT>  (1) 
3

>  <PUBCHEM_CONFORMER_ID>  (1) 
00006A0800000001

>  <PUBCHEM_MMFF94_ENERGY>  (1) 
31.5765

>  <PUBCHEM_FEATURE_SELFOVERLAP>  (1) 
20.324

>  <PUBCHEM_SHAPE_FINGERPRINT>  (1) 
10219947 1 18412547630409738603
10967382 1 18410574019516490246
11132069 177 18341325686282771979
11471102 20 18410288112560824175
11806522 49 18339358669119371343
12032990 46 18410299116225020227
12932764 1 17059761256891255207
13380535 76 18408886252078110506
14144814 61 18410856529622497947
14252887 29 18131084744016430535
14325111 11 18410575041761086592
14576447 43 18128520747604769127
15775835 57 18272654557983027946
16945 1 18410855473018344933
17844478 74 18186527587903323629
193761 8 17906171754630546535
200 152 18201710765672803559
20201158 50 18335139804090426347
20510252 161 18201158763011193529
20588541 1 18410015467810196059
20645477 70 18339073784044499735
21501502 16 18266459806424571465
21501925 9 18335970974719944978
2334 1 17762338419477967367
23402539 116 18340758321451240599
23402655 69 18340759365502814037
23463225 33 18408040697476153364
23552423 10 18189620453481665902
25610 137 18410014334107556981
2748010 2 18194964045622181229
528886 8 18411414046416104418
53655031 270 18411983567922501273
53812653 166 18272083937545180856
8809292 202 18115030826263180227

>  <PUBCHEM_SHAPE_MULTIPOLES>  (1) 
247.03
5.85
1.66
0.62
1.95
0.07
0
-0.63
0
-0.05
0
0.08
-0.01
0

>  <PUBCHEM_SHAPE_SELFOVERLAP>  (1) 
527.658

>  <PUBCHEM_SHAPE_VOLUME>  (1) 
142.7

>  <PUBCHEM_COORDINATE_TYPE>  (1) 
2
5
10

$$$$
