27149
     RDKit          3D

 19 20  0  0  0  0  0  0  0  0999 V2000
   -3.7469   -1.9424   -0.4524 O   0  0  0  0  0  0  0  0  0  0  0  0
   -4.5600    0.4208    0.7590 O   0  0  0  0  0  0  0  0  0  0  0  0
    1.6124    0.7910   -0.5658 N   0  0  0  0  0  0  0  0  0  0  0  0
    3.8309   -0.0008    0.1502 C   0  0  0  0  0  0  0  0  0  0  0  0
    3.0034    0.6154   -0.9748 C   0  0  0  0  0  0  0  0  0  0  0  0
    5.2907   -0.2434   -0.2406 C   0  0  0  0  0  0  0  0  0  0  0  0
    6.0584   -0.9347    0.8868 C   0  0  0  0  0  0  0  0  0  0  0  0
   -0.5919   -0.0745   -0.4075 C   0  0  0  0  0  0  0  0  0  0  0  0
    0.7456   -0.2060   -0.7859 C   0  0  0  0  0  0  0  0  0  0  0  0
   -1.0017    1.1279    0.2086 C   0  0  0  0  0  0  0  0  0  0  0  0
    1.2543    1.9418    0.0153 C   0  0  0  0  0  0  0  0  0  0  0  0
   -0.0585    2.1418    0.4177 C   0  0  0  0  0  0  0  0  0  0  0  0
   -1.5272   -1.0986   -0.6232 C   0  0  0  0  0  0  0  0  0  0  0  0
   -2.3437    1.2759    0.5952 C   0  0  0  0  0  0  0  0  0  0  0  0
    7.5003   -1.2102    0.4909 C   0  0  0  0  0  0  0  0  0  0  0  0
   -2.8565   -0.9348   -0.2332 C   0  0  0  0  0  0  0  0  0  0  0  0
   -3.2639    0.2500    0.3747 C   0  0  0  0  0  0  0  0  0  0  0  0
   -3.8961   -2.9119    0.5829 C   0  0  0  0  0  0  0  0  0  0  0  0
   -5.4494    0.9927   -0.1978 C   0  0  0  0  0  0  0  0  0  0  0  0
  1 16  1  0
  1 18  1  0
  2 17  1  0
  2 19  1  0
  3  5  1  0
  3  9  2  0
  3 11  1  0
  4  5  1  0
  4  6  1  0
  6  7  1  0
  7 15  1  0
  8  9  1  0
  8 10  2  0
  8 13  1  0
 10 12  1  0
 10 14  1  0
 11 12  2  0
 13 16  2  0
 14 17  2  0
 16 17  1  0
M  CHG  1   3   1
M  END
>  <PUBCHEM_COMPOUND_CID>  (1) 
27149

>  <PUBCHEM_CONFORMER_RMSD>  (1) 
0.8

>  <PUBCHEM_CONFORMER_DIVERSEORDER>  (1) 
2
10
24
25
19
4
3
21
26
7
23
9
18
15
20
13
16
8
5
12
17
14
11
22
6
1

>  <PUBCHEM_MMFF94_PARTIAL_CHARGES>  (1) 
18
1 -0.36
11 0.21
12 -0.15
13 -0.15
14 -0.15
16 0.08
17 0.08
18 0.28
19 0.28
2 -0.36
28 0.15
29 0.15
3 -0.21
30 0.15
31 0.15
32 0.15
5 0.49
9 0.21

>  <PUBCHEM_EFFECTIVE_ROTOR_COUNT>  (1) 
6

>  <PUBCHEM_PHARMACOPHORE_FEATURES>  (1) 
5
1 1 acceptor
1 15 hydrophobe
1 2 acceptor
6 3 8 9 10 11 12 rings
6 8 10 13 14 16 17 rings

>  <PUBCHEM_HEAVY_ATOM_COUNT>  (1) 
19

>  <PUBCHEM_ATOM_DEF_STEREO_COUNT>  (1) 
0

>  <PUBCHEM_ATOM_UDEF_STEREO_COUNT>  (1) 
0

>  <PUBCHEM_BOND_DEF_STEREO_COUNT>  (1) 
0

>  <PUBCHEM_BOND_UDEF_STEREO_COUNT>  (1) 
0

>  <PUBCHEM_ISOTOPIC_ATOM_COUNT>  (1) 
0

>  <PUBCHEM_COMPONENT_COUNT>  (1) 
1

>  <PUBCHEM_CACTVS_TAUTO_COUNT>  (1) 
1

>  <PUBCHEM_CONFORMER_ID>  (1) 
00006A0D00000002

>  <PUBCHEM_MMFF94_ENERGY>  (1) 
63.9973

>  <PUBCHEM_FEATURE_SELFOVERLAP>  (1) 
25.404

>  <PUBCHEM_SHAPE_FINGERPRINT>  (1) 
10 15 17489575763660537522
10062212 137 18341613763009435967
11045977 3 17846771928005195864
11315181 36 17917710210173059824
12236239 1 18186805781451238708
12596602 18 18342172293926722434
13140716 1 18200603617530281153
13288520 33 18409166602078948420
13862211 1 18413669114710282597
14251752 14 17822005372396484716
15183329 4 8286207184767966680
15196674 1 18341334503840334429
16945 1 18128839515866627037
17492 89 18121217851238703067
17780758 139 18343298167604850834
1813 80 17750246833216373254
18186145 218 14129340749187398941
18927931 339 18202847651673576958
19784866 240 18040434412805942582
200 152 17095242493478942092
21267235 1 18410582785565859902
2297311 6 18059584555830596060
23366157 5 18048319139200756516
23402539 116 18272928332130850052
23559900 14 18340481270280711000
26918003 58 18344146986017533516
3004659 81 18335995220353442332
335352 9 18412263930814263245
351380 3 18113334190106983626
4409770 3 18116704128263062413
5104073 3 18200602517411875385
559249 180 18408882936748330383
59755656 215 18339926996329902974
67856867 119 18337112392845164748
76465 3 18337672030655516382

>  <PUBCHEM_SHAPE_MULTIPOLES>  (1) 
374.29
14.15
2.2
0.89
22.24
0.8
0.02
6.92
-3.08
-2.2
-0.36
0.22
0.04
-0.59

>  <PUBCHEM_SHAPE_SELFOVERLAP>  (1) 
779.197

>  <PUBCHEM_SHAPE_VOLUME>  (1) 
216.5

>  <PUBCHEM_COORDINATE_TYPE>  (1) 
2
5
10

$$$$
