27161
     RDKit          3D

 16 16  0  0  0  0  0  0  0  0999 V2000
    3.4933    0.4801   -0.2628 S   0  0  0  0  0  0  0  0  0  0  0  0
   -2.2805   -0.3753    0.6021 O   0  0  0  0  0  0  0  0  0  0  0  0
    3.9180   -0.3534   -1.3769 O   0  0  0  0  0  0  0  0  0  0  0  0
    3.7324    1.9151   -0.2975 O   0  0  0  0  0  0  0  0  0  0  0  0
   -5.3361    1.0708   -0.5986 O   0  0  0  0  0  0  0  0  0  0  0  0
   -4.7846   -1.1007   -0.1895 O   0  0  0  0  0  0  0  0  0  0  0  0
    1.7849    0.2003   -0.0067 C   0  0  0  0  0  0  0  0  0  0  0  0
    1.2547   -1.0898   -0.0124 C   0  0  0  0  0  0  0  0  0  0  0  0
    0.9490    1.2968    0.2044 C   0  0  0  0  0  0  0  0  0  0  0  0
   -0.1114   -1.2835    0.1926 C   0  0  0  0  0  0  0  0  0  0  0  0
   -0.9473   -0.1869    0.4035 C   0  0  0  0  0  0  0  0  0  0  0  0
   -0.4171    1.1032    0.4094 C   0  0  0  0  0  0  0  0  0  0  0  0
    2.1225   -2.2851   -0.2356 C   0  0  0  0  0  0  0  0  0  0  0  0
    4.2646   -0.1411    1.2134 C   0  0  0  0  0  0  0  0  0  0  0  0
   -3.1550    0.6655    0.1689 C   0  0  0  0  0  0  0  0  0  0  0  0
   -4.4877    0.0842   -0.2143 C   0  0  0  0  0  0  0  0  0  0  0  0
  1  3  2  0
  1  4  2  0
  1  7  1  0
  1 14  1  0
  2 11  1  0
  2 15  1  0
  5 16  1  0
  6 16  2  0
  7  8  2  0
  7  9  1  0
  8 10  1  0
  8 13  1  0
  9 12  2  0
 10 11  2  0
 11 12  1  0
 15 16  1  0
M  END
>  <PUBCHEM_COMPOUND_CID>  (1) 
27161

>  <PUBCHEM_CONFORMER_RMSD>  (1) 
0.6

>  <PUBCHEM_CONFORMER_DIVERSEORDER>  (1) 
1
32
9
39
5
19
18
36
2
21
24
12
28
23
7
31
15
26
11
35
20
34
16
4
8
10
37
13
25
3
38
6
33
22
17
14
27
29
30

>  <PUBCHEM_MMFF94_PARTIAL_CHARGES>  (1) 
20
1 1.2
10 -0.15
11 0.08
12 -0.15
13 0.14
14 0.11
15 0.34
16 0.66
17 0.15
18 0.15
19 0.15
2 -0.36
28 0.5
3 -0.65
4 -0.65
5 -0.65
6 -0.57
7 -0.01
8 -0.14
9 -0.15

>  <PUBCHEM_EFFECTIVE_ROTOR_COUNT>  (1) 
4

>  <PUBCHEM_PHARMACOPHORE_FEATURES>  (1) 
7
1 2 acceptor
1 3 acceptor
1 4 acceptor
1 5 acceptor
1 6 acceptor
3 5 6 16 anion
6 7 8 9 10 11 12 rings

>  <PUBCHEM_HEAVY_ATOM_COUNT>  (1) 
16

>  <PUBCHEM_ATOM_DEF_STEREO_COUNT>  (1) 
0

>  <PUBCHEM_ATOM_UDEF_STEREO_COUNT>  (1) 
0

>  <PUBCHEM_BOND_DEF_STEREO_COUNT>  (1) 
0

>  <PUBCHEM_BOND_UDEF_STEREO_COUNT>  (1) 
0

>  <PUBCHEM_ISOTOPIC_ATOM_COUNT>  (1) 
0

>  <PUBCHEM_COMPONENT_COUNT>  (1) 
1

>  <PUBCHEM_CACTVS_TAUTO_COUNT>  (1) 
1

>  <PUBCHEM_CONFORMER_ID>  (1) 
00006A1900000001

>  <PUBCHEM_MMFF94_ENERGY>  (1) 
39.4171

>  <PUBCHEM_FEATURE_SELFOVERLAP>  (1) 
35.604

>  <PUBCHEM_SHAPE_FINGERPRINT>  (1) 
11401426 45 18342733026943756433
11471102 20 18411984663181470108
13380535 76 18409450301580070026
13760787 19 17095530625333208578
14251717 144 18341613702584448994
14252887 29 17274831250290829566
14576447 43 18201709700426378007
14897335 6 18412262847949754330
14911166 2 18412271640027000916
14993402 34 17918276445934633551
15375358 24 18261114079875201515
16945 1 18339372898361652466
17834072 33 18412824707445355415
200 152 18060419118977570697
20279233 1 18114188527357378651
20645477 70 18340769230816248639
21501502 16 18124323705035213576
21637258 2 15482395227506981318
231179 274 17676482852296947565
23402539 116 17894621557164612533
23402655 69 18412540977832490333
23559900 14 18337673010246176858
2748010 2 18050573945838779550
29717793 49 17489591117314227653
3060560 45 18272654536914627206
3071541 37 18335144167851155974
4047638 21 18113338626312269416
4072396 5 18336814321776595210
4990 188 18060427901742534084
5104073 3 18334577953806876241
537710 114 18342176665538810520
58051976 378 18342455915743443871
581208 293 18342740706598430706
81539 233 18333452049420578942

>  <PUBCHEM_SHAPE_MULTIPOLES>  (1) 
303.78
9.75
1.69
0.87
9.87
0.38
-0.01
-1.37
-1.34
-0.92
-0.13
-0.68
0.01
0.09

>  <PUBCHEM_SHAPE_SELFOVERLAP>  (1) 
615.459

>  <PUBCHEM_SHAPE_VOLUME>  (1) 
178.2

>  <PUBCHEM_COORDINATE_TYPE>  (1) 
2
5
10

$$$$
