27162
     RDKit          3D

 13 14  0  0  0  0  0  0  0  0999 V2000
    2.1710    1.7420   -0.0001 O   0  0  0  0  0  0  0  0  0  0  0  0
   -3.6972   -0.6744   -0.0002 O   0  0  0  0  0  0  0  0  0  0  0  0
    2.6476   -0.5301   -0.0566 N   0  0  0  0  0  0  0  0  0  0  0  0
    3.9401   -0.4890   -0.6743 C   0  0  0  0  0  0  0  0  0  0  0  0
    3.8002   -0.6411    0.7879 C   0  0  0  0  0  0  0  0  0  0  0  0
    1.8052    0.5701   -0.0228 C   0  0  0  0  0  0  0  0  0  0  0  0
    0.3512    0.2413   -0.0173 C   0  0  0  0  0  0  0  0  0  0  0  0
   -0.0628   -1.0904   -0.0451 C   0  0  0  0  0  0  0  0  0  0  0  0
   -0.5954    1.2653    0.0164 C   0  0  0  0  0  0  0  0  0  0  0  0
   -1.4232   -1.3981   -0.0392 C   0  0  0  0  0  0  0  0  0  0  0  0
   -1.9559    0.9576    0.0222 C   0  0  0  0  0  0  0  0  0  0  0  0
   -2.3699   -0.3741   -0.0056 C   0  0  0  0  0  0  0  0  0  0  0  0
   -4.6108    0.4211    0.0346 C   0  0  0  0  0  0  0  0  0  0  0  0
  1  6  2  0
  2 12  1  0
  2 13  1  0
  3  4  1  0
  3  5  1  0
  3  6  1  0
  4  5  1  0
  6  7  1  0
  7  8  2  0
  7  9  1  0
  8 10  1  0
  9 11  2  0
 10 12  2  0
 11 12  1  0
M  END
>  <PUBCHEM_COMPOUND_CID>  (1) 
27162

>  <PUBCHEM_CONFORMER_RMSD>  (1) 
0.6

>  <PUBCHEM_CONFORMER_DIVERSEORDER>  (1) 
1
6
3
2
5
4

>  <PUBCHEM_MMFF94_PARTIAL_CHARGES>  (1) 
21
1 -0.57
10 -0.15
11 -0.15
12 0.08
13 0.28
14 0.1
15 0.1
16 0.1
17 0.1
18 0.15
19 0.15
2 -0.36
20 0.15
21 0.15
3 -0.36
4 -0.05
5 -0.05
6 0.54
7 0.09
8 -0.15
9 -0.15

>  <PUBCHEM_EFFECTIVE_ROTOR_COUNT>  (1) 
3.6

>  <PUBCHEM_PHARMACOPHORE_FEATURES>  (1) 
3
1 1 acceptor
1 2 acceptor
6 7 8 9 10 11 12 rings

>  <PUBCHEM_HEAVY_ATOM_COUNT>  (1) 
13

>  <PUBCHEM_ATOM_DEF_STEREO_COUNT>  (1) 
0

>  <PUBCHEM_ATOM_UDEF_STEREO_COUNT>  (1) 
0

>  <PUBCHEM_BOND_DEF_STEREO_COUNT>  (1) 
0

>  <PUBCHEM_BOND_UDEF_STEREO_COUNT>  (1) 
0

>  <PUBCHEM_ISOTOPIC_ATOM_COUNT>  (1) 
0

>  <PUBCHEM_COMPONENT_COUNT>  (1) 
1

>  <PUBCHEM_CACTVS_TAUTO_COUNT>  (1) 
1

>  <PUBCHEM_CONFORMER_ID>  (1) 
00006A1A00000001

>  <PUBCHEM_MMFF94_ENERGY>  (1) 
52.5599

>  <PUBCHEM_FEATURE_SELFOVERLAP>  (1) 
15.223

>  <PUBCHEM_SHAPE_FINGERPRINT>  (1) 
10130415 120 18412261752738095944
11062470 55 13470685944872137011
11132069 177 18273209807302862563
11401426 45 18272926116402459111
11471102 20 18411416223974969053
11543360 7 15719684254517028463
12032990 46 18409453617547744099
12186901 62 17385999521212045797
12251169 10 18413103974618926266
12932764 1 17168409549860982927
13380535 76 18413109442207785343
13675066 3 18059855077764924043
13690532 89 18408884005910136106
13922767 16 18272085006701964985
14115302 16 17822303396072168694
14144814 61 18409446960337788482
14325111 11 18410856607216882125
14911166 2 18409732850176921606
14993402 34 17967821539304164270
15536298 74 18342175617698821296
16945 1 18411419488165970630
18186145 218 17895467120129118103
18511873 20 18409728482311277839
18522853 276 18342173358435176016
200 152 17775279457057998693
20201158 50 18343587326083076518
20510252 161 18130506331895913976
20645476 183 17823998915642181718
20645477 70 18411981381557612790
21501502 16 18198056091441992622
21501925 9 18412536626703526408
23402539 116 18060128826406679733
23463225 33 18409167705542652142
23552423 10 18116433833122320908
23559900 14 18343300388477346136
2748010 2 18193838373359336494
43471831 8 18263642861903504627
5104073 3 18339926016960899667
53655031 270 18410011001207595771
57812782 119 18202280299130646398
69090 78 18060412530107634503
7364860 26 18270964682290822656

>  <PUBCHEM_SHAPE_MULTIPOLES>  (1) 
250.81
7.56
1.39
0.68
0.83
0.2
-0.02
-0.78
-0.1
-0.01
0
-0.34
-0.05
-0.06

>  <PUBCHEM_SHAPE_SELFOVERLAP>  (1) 
527.351

>  <PUBCHEM_SHAPE_VOLUME>  (1) 
142.7

>  <PUBCHEM_COORDINATE_TYPE>  (1) 
2
5
10

$$$$
