27175
     RDKit          3D

 19 20  0  0  0  0  0  0  0  0999 V2000
    2.3840    1.5708   -0.7026 S   0  0  0  0  0  0  0  0  0  0  0  0
   -0.5651    1.5789   -1.2145 O   0  0  0  0  0  0  0  0  0  0  0  0
   -4.5810   -0.0030    0.1224 N   0  0  0  0  0  0  0  0  0  0  0  0
   -0.9730   -0.5936   -0.5895 N   0  0  0  0  0  0  0  0  0  0  0  0
   -3.1534   -0.0850    0.4028 C   0  0  0  0  0  0  0  0  0  0  0  0
   -2.3956   -0.5329   -0.8383 C   0  0  0  0  0  0  0  0  0  0  0  0
   -5.3127    0.4641    1.3016 C   0  0  0  0  0  0  0  0  0  0  0  0
   -5.0973   -1.3024   -0.3125 C   0  0  0  0  0  0  0  0  0  0  0  0
   -4.8004    1.8083    1.7760 C   0  0  0  0  0  0  0  0  0  0  0  0
   -6.5664   -1.2232   -0.6730 C   0  0  0  0  0  0  0  0  0  0  0  0
   -0.0952    0.4932   -0.7935 C   0  0  0  0  0  0  0  0  0  0  0  0
    1.2811    0.2912   -0.4749 C   0  0  0  0  0  0  0  0  0  0  0  0
    3.3054   -0.6642    0.2143 C   0  0  0  0  0  0  0  0  0  0  0  0
    3.7127    0.6246   -0.1435 C   0  0  0  0  0  0  0  0  0  0  0  0
    1.8945   -0.8372    0.0150 C   0  0  0  0  0  0  0  0  0  0  0  0
    4.2850   -1.5665    0.6951 C   0  0  0  0  0  0  0  0  0  0  0  0
    5.0577    1.0291   -0.0337 C   0  0  0  0  0  0  0  0  0  0  0  0
    5.6199   -1.1684    0.8050 C   0  0  0  0  0  0  0  0  0  0  0  0
    6.0000    0.1163    0.4438 C   0  0  0  0  0  0  0  0  0  0  0  0
  1 12  1  0
  1 14  1  0
  2 11  2  0
  3  5  1  0
  3  7  1  0
  3  8  1  0
  4  6  1  0
  4 11  1  0
  5  6  1  0
  7  9  1  0
  8 10  1  0
 11 12  1  0
 12 15  2  0
 13 14  2  0
 13 15  1  0
 13 16  1  0
 14 17  1  0
 16 18  2  0
 17 19  2  0
 18 19  1  0
M  END
>  <PUBCHEM_COMPOUND_CID>  (1) 
27175

>  <PUBCHEM_CONFORMER_RMSD>  (1) 
0.8

>  <PUBCHEM_CONFORMER_DIVERSEORDER>  (1) 
2
48
50
8
53
45
23
19
51
10
29
14
52
42
32
24
25
44
5
7
46
54
18
12
38
55
21
43
1
49
6
9
16
40
20
33
27
34
15
35
3
39
22
36
13
41
47
11
17
37
28
4
31
30
26

>  <PUBCHEM_MMFF94_PARTIAL_CHARGES>  (1) 
22
1 -0.08
11 0.71
12 -0.05
14 0.04
15 -0.15
16 -0.15
17 -0.15
18 -0.15
19 -0.15
2 -0.57
28 0.37
3 -0.81
35 0.15
36 0.15
37 0.15
38 0.15
39 0.15
4 -0.73
5 0.27
6 0.3
7 0.27
8 0.27

>  <PUBCHEM_EFFECTIVE_ROTOR_COUNT>  (1) 
7

>  <PUBCHEM_PHARMACOPHORE_FEATURES>  (1) 
5
1 2 acceptor
1 3 cation
1 4 donor
5 1 12 13 14 15 rings
6 13 14 16 17 18 19 rings

>  <PUBCHEM_HEAVY_ATOM_COUNT>  (1) 
19

>  <PUBCHEM_ATOM_DEF_STEREO_COUNT>  (1) 
0

>  <PUBCHEM_ATOM_UDEF_STEREO_COUNT>  (1) 
0

>  <PUBCHEM_BOND_DEF_STEREO_COUNT>  (1) 
0

>  <PUBCHEM_BOND_UDEF_STEREO_COUNT>  (1) 
0

>  <PUBCHEM_ISOTOPIC_ATOM_COUNT>  (1) 
0

>  <PUBCHEM_COMPONENT_COUNT>  (1) 
1

>  <PUBCHEM_CACTVS_TAUTO_COUNT>  (1) 
2

>  <PUBCHEM_CONFORMER_ID>  (1) 
00006A2700000002

>  <PUBCHEM_MMFF94_ENERGY>  (1) 
31.0838

>  <PUBCHEM_FEATURE_SELFOVERLAP>  (1) 
25.431

>  <PUBCHEM_SHAPE_FINGERPRINT>  (1) 
10354089 29 18342738537835066508
10912923 1 18413112783660218817
11315181 36 18412545444714379723
11545043 162 15430042080298457761
11796584 16 14706925150834730569
12107183 9 17766849325230129691
12236239 1 18343866619042041602
12516196 113 18261107495706095917
12596602 18 18131069333288586234
13403585 85 17489585667142926553
13533116 47 18409446964954795242
13685833 64 17676489462642038747
13862211 1 17968089815931120962
13914758 101 18260261924853282157
1420 363 16515406261298773234
14251752 14 12324233966978432203
14251764 18 18412547626262347449
14341114 176 18259707787523795164
14386348 63 16732704956119944683
14739800 52 17701815716302966776
14849402 71 18270118062743614456
15238133 3 17775574126021677896
17492 89 17898557684692271122
17844677 252 17748826306357326861
17857418 61 18335979844027845151
1813 80 17967824816227016172
19489759 90 17775567542263853371
20028762 73 18410005542199693714
20281389 69 16056878035443185186
20645477 56 15195564611214385813
21065198 48 18342178860325016937
21267235 1 18261108540269540870
21315764 119 13046210646427330003
21623969 137 17313392218246440418
22224240 67 18336820983714054274
23402539 116 18342173367494511549
23522609 53 18191896515888133156
23559900 14 14201401629154571543
26918003 58 17531246175129448513
2838139 119 12175620663869627202
314173 85 16805323288593507333
4072396 5 11743842427000293708
4340502 62 15913332407312291070
465052 167 18334013912889829382
5104073 3 18410576227208795920
542803 24 17989769998817845990
59682541 35 18261384612056029096
59755656 520 12967128328719186853

>  <PUBCHEM_SHAPE_MULTIPOLES>  (1) 
379.03
16.95
1.62
1.17
9.54
0.25
-0.24
-3.16
-4.64
0.32
-0.15
1.06
0.36
-2.25

>  <PUBCHEM_SHAPE_SELFOVERLAP>  (1) 
773.489

>  <PUBCHEM_SHAPE_VOLUME>  (1) 
222

>  <PUBCHEM_COORDINATE_TYPE>  (1) 
2
5
10

$$$$
