27188
     RDKit          3D

 22 25  0  0  0  0  0  0  0  0999 V2000
    4.2711    1.3649    0.1250 O   0  0  0  0  0  0  0  0  0  0  0  0
    4.7566   -0.8176    1.0222 O   0  0  0  0  0  0  0  0  0  0  0  0
    1.7383    2.0781   -0.9798 O   0  0  0  0  0  0  0  0  0  0  0  0
   -1.2200   -0.8949   -0.9957 N   0  0  0  0  0  0  0  0  0  0  0  0
    0.9804   -0.1662   -0.4874 C   0  0  0  0  0  0  0  0  0  0  0  0
    1.2637   -1.4562    0.0415 C   0  0  0  0  0  0  0  0  0  0  0  0
    1.9685    0.8329   -0.4842 C   0  0  0  0  0  0  0  0  0  0  0  0
   -0.2938    0.0724   -1.0029 C   0  0  0  0  0  0  0  0  0  0  0  0
    3.2053    0.5225    0.0426 C   0  0  0  0  0  0  0  0  0  0  0  0
   -2.5421   -0.6046   -1.5448 C   0  0  0  0  0  0  0  0  0  0  0  0
    3.4820   -0.7220    0.5542 C   0  0  0  0  0  0  0  0  0  0  0  0
    2.5381   -1.7292    0.5687 C   0  0  0  0  0  0  0  0  0  0  0  0
    0.2596   -2.4308    0.0246 C   0  0  0  0  0  0  0  0  0  0  0  0
   -0.9837   -2.1171   -0.5055 C   0  0  0  0  0  0  0  0  0  0  0  0
   -3.4673   -0.0727   -0.4847 C   0  0  0  0  0  0  0  0  0  0  0  0
    5.2510    0.5088    0.7468 C   0  0  0  0  0  0  0  0  0  0  0  0
   -3.5346    1.2957   -0.2585 C   0  0  0  0  0  0  0  0  0  0  0  0
   -4.2421   -0.9567    0.2544 C   0  0  0  0  0  0  0  0  0  0  0  0
   -4.3925    1.7890    0.7245 C   0  0  0  0  0  0  0  0  0  0  0  0
   -5.1000   -0.4633    1.2374 C   0  0  0  0  0  0  0  0  0  0  0  0
    1.2365    3.0575   -0.0708 C   0  0  0  0  0  0  0  0  0  0  0  0
   -5.1752    0.9095    1.4725 C   0  0  0  0  0  0  0  0  0  0  0  0
  1  9  1  0
  1 16  1  0
  2 11  1  0
  2 16  1  0
  3  7  1  0
  3 21  1  0
  4  8  2  0
  4 10  1  0
  4 14  1  0
  5  6  2  0
  5  7  1  0
  5  8  1  0
  6 12  1  0
  6 13  1  0
  7  9  2  0
  9 11  1  0
 10 15  1  0
 11 12  2  0
 13 14  2  0
 15 17  2  0
 15 18  1  0
 17 19  1  0
 18 20  2  0
 19 22  2  0
 20 22  1  0
M  CHG  1   4   1
M  END
>  <PUBCHEM_COMPOUND_CID>  (1) 
27188

>  <PUBCHEM_CONFORMER_RMSD>  (1) 
0.6

>  <PUBCHEM_CONFORMER_DIVERSEORDER>  (1) 
1
6
13
10
3
12
7
11
5
8
9
4
2

>  <PUBCHEM_MMFF94_PARTIAL_CHARGES>  (1) 
29
1 -0.36
10 0.63
11 0.08
12 -0.15
13 -0.15
14 0.21
15 -0.14
16 0.56
17 -0.15
18 -0.15
19 -0.15
2 -0.36
20 -0.15
21 0.28
22 -0.15
23 0.15
26 0.15
27 0.15
28 0.15
3 -0.36
31 0.15
32 0.15
33 0.15
34 0.15
38 0.15
4 -0.21
7 0.08
8 0.21
9 0.08

>  <PUBCHEM_EFFECTIVE_ROTOR_COUNT>  (1) 
3.6

>  <PUBCHEM_PHARMACOPHORE_FEATURES>  (1) 
7
1 1 acceptor
1 2 acceptor
1 3 acceptor
5 1 2 9 11 16 rings
6 15 17 18 19 20 22 rings
6 4 5 6 8 13 14 rings
6 5 6 7 9 11 12 rings

>  <PUBCHEM_HEAVY_ATOM_COUNT>  (1) 
22

>  <PUBCHEM_ATOM_DEF_STEREO_COUNT>  (1) 
0

>  <PUBCHEM_ATOM_UDEF_STEREO_COUNT>  (1) 
0

>  <PUBCHEM_BOND_DEF_STEREO_COUNT>  (1) 
0

>  <PUBCHEM_BOND_UDEF_STEREO_COUNT>  (1) 
0

>  <PUBCHEM_ISOTOPIC_ATOM_COUNT>  (1) 
0

>  <PUBCHEM_COMPONENT_COUNT>  (1) 
1

>  <PUBCHEM_CACTVS_TAUTO_COUNT>  (1) 
1

>  <PUBCHEM_CONFORMER_ID>  (1) 
00006A3400000001

>  <PUBCHEM_MMFF94_ENERGY>  (1) 
76.288

>  <PUBCHEM_FEATURE_SELFOVERLAP>  (1) 
35.709

>  <PUBCHEM_SHAPE_FINGERPRINT>  (1) 
10493431 412 18410851096821424594
10498660 4 15482387539821502355
10688039 33 17749105560857362677
10906281 52 18336550529871240780
11046707 91 12396298153902098263
11552529 35 18116718619677878411
11724838 91 18272933834928253359
12236239 1 18059852865698634346
12363563 72 14996294617328415063
12403259 118 18342462530647454257
12403260 363 18268705185710724119
12422481 6 18196638606617154258
12507557 5 18408038507702442805
12596602 18 18113337522484569625
12633257 1 17895204311322914915
12670546 177 11384116323788777171
12892183 10 18188214204417646955
13140716 1 18118963830768267422
13583140 156 17168409515881384127
13782708 43 14563078184199460544
14341114 176 18335428945757723371
14341114 328 18342750628320972793
14466204 15 18411979139542661712
14790565 3 18335425720438341964
14849402 71 18192435388471235368
14955137 171 18336554845590699854
15081414 286 18411417294128850532
15188451 53 16805897294425946499
15209294 21 18273490174067163111
15238133 3 18261687981800217661
15295992 7 18129381673292278443
15475509 8 18271263646643128804
1601671 61 18342737416838091772
18769570 83 16917065551328084794
18785283 64 17822863111783464564
19784866 9 18341613685504742011
19862831 5 10735876166768990663
20261772 1 18412544297114372181
20715895 44 17837778825182169945
20739085 24 18263087630406578182
21033648 29 17917699197813726867
21065199 12 18261680260139849451
21503847 285 18271252607764813679
21637258 2 14562801154192127778
21756936 100 18130783498914859854
21857420 4 13019298776450552635
23184049 59 18334572443052520494
23557571 272 15841548630535277207
2838139 119 15769195259385064680
3472631 163 16774074073031711777
350125 39 18192147311817982999
38570 142 17825415091504698644
392239 28 18264788717193470267
474 4 18412261740175064151
5104073 3 18190727817116768378
633830 44 18201999885069361463
7226269 152 17775565342776576064
7495541 125 15719393949583118006
7970288 3 13335031520827577945
960060 61 10807932665258020250

>  <PUBCHEM_SHAPE_MULTIPOLES>  (1) 
430.16
11.06
2.48
1.18
3.41
0.69
0
2.78
-5.32
-0.54
0.08
0.81
-0.01
-0.89

>  <PUBCHEM_SHAPE_SELFOVERLAP>  (1) 
964.123

>  <PUBCHEM_SHAPE_VOLUME>  (1) 
228.7

>  <PUBCHEM_COORDINATE_TYPE>  (1) 
2
5
10

$$$$
