27198
     RDKit          3D

 17 18  0  0  0  0  0  0  0  0999 V2000
    2.0929    2.2772    0.3559 O   0  0  0  0  0  0  0  0  0  0  0  0
   -2.5369    1.2958    1.2267 N   0  0  0  0  0  0  0  0  0  0  0  0
    3.3032   -0.0960   -0.4296 N   0  0  0  0  0  0  0  0  0  0  0  0
    2.0733    0.3259   -0.9075 N   0  0  0  0  0  0  0  0  0  0  0  0
   -0.9132    1.3874   -0.2842 C   0  0  0  0  0  0  0  0  0  0  0  0
   -1.5467    0.1174   -0.3884 C   0  0  0  0  0  0  0  0  0  0  0  0
    0.2186    1.8757   -1.0980 C   0  0  0  0  0  0  0  0  0  0  0  0
   -2.5616    0.0858    0.5704 C   0  0  0  0  0  0  0  0  0  0  0  0
   -1.5441    2.0890    0.7172 C   0  0  0  0  0  0  0  0  0  0  0  0
    3.1727   -1.3949    0.2168 C   0  0  0  0  0  0  0  0  0  0  0  0
   -1.3534   -1.0116   -1.2089 C   0  0  0  0  0  0  0  0  0  0  0  0
    1.5536    1.5252   -0.4545 C   0  0  0  0  0  0  0  0  0  0  0  0
   -3.3962   -1.0230    0.7504 C   0  0  0  0  0  0  0  0  0  0  0  0
    2.2508   -1.2924    1.4286 C   0  0  0  0  0  0  0  0  0  0  0  0
    4.5536   -1.9023    0.6201 C   0  0  0  0  0  0  0  0  0  0  0  0
   -2.1807   -2.1279   -1.0402 C   0  0  0  0  0  0  0  0  0  0  0  0
   -3.1858   -2.1313   -0.0750 C   0  0  0  0  0  0  0  0  0  0  0  0
  1 12  2  0
  2  8  1  0
  2  9  1  0
  3  4  1  0
  3 10  1  0
  4 12  1  0
  5  6  1  0
  5  7  1  0
  5  9  2  0
  6  8  2  0
  6 11  1  0
  7 12  1  0
  8 13  1  0
 10 14  1  0
 10 15  1  0
 11 16  2  0
 13 17  2  0
 16 17  1  0
M  END
>  <PUBCHEM_COMPOUND_CID>  (1) 
27198

>  <PUBCHEM_CONFORMER_RMSD>  (1) 
0.6

>  <PUBCHEM_CONFORMER_DIVERSEORDER>  (1) 
1
21
9
72
121
82
127
134
93
80
56
130
71
28
102
66
96
6
113
136
104
16
70
84
132
22
91
40
38
112
61
116
125
3
111
129
63
19
101
88
115
120
124
73
34
53
119
44
110
13
106
135
97
79
37
95
107
35
123
99
105
57
118
108
4
114
32
62
75
51
64
98
23
27
122
11
45
49
5
15
85
117
65
92
131
100
109
10
47
12
68
103
52
2
17
94
58
137
7
69
29
59
76
86
18
77
25
43
133
42
54
26
48
67
78
8
41
20
24
81
36
39
55
14
126
83
89
60
128
33
46
74
31
90
87
30
50

>  <PUBCHEM_MMFF94_PARTIAL_CHARGES>  (1) 
22
1 -0.57
10 0.27
11 -0.15
12 0.57
13 -0.15
16 -0.15
17 -0.15
2 0.03
21 0.15
22 0.27
23 0.15
24 0.36
25 0.15
26 0.37
3 -0.64
33 0.15
34 0.15
4 -0.42
5 -0.18
7 0.24
8 -0.15
9 -0.3

>  <PUBCHEM_EFFECTIVE_ROTOR_COUNT>  (1) 
5

>  <PUBCHEM_PHARMACOPHORE_FEATURES>  (1) 
8
1 1 acceptor
1 2 cation
1 2 donor
1 3 donor
1 4 donor
3 10 14 15 hydrophobe
5 2 5 6 8 9 rings
6 6 8 11 13 16 17 rings

>  <PUBCHEM_HEAVY_ATOM_COUNT>  (1) 
17

>  <PUBCHEM_ATOM_DEF_STEREO_COUNT>  (1) 
0

>  <PUBCHEM_ATOM_UDEF_STEREO_COUNT>  (1) 
0

>  <PUBCHEM_BOND_DEF_STEREO_COUNT>  (1) 
0

>  <PUBCHEM_BOND_UDEF_STEREO_COUNT>  (1) 
0

>  <PUBCHEM_ISOTOPIC_ATOM_COUNT>  (1) 
0

>  <PUBCHEM_COMPONENT_COUNT>  (1) 
1

>  <PUBCHEM_CACTVS_TAUTO_COUNT>  (1) 
2

>  <PUBCHEM_CONFORMER_ID>  (1) 
00006A3E00000001

>  <PUBCHEM_MMFF94_ENERGY>  (1) 
18.3068

>  <PUBCHEM_FEATURE_SELFOVERLAP>  (1) 
42.175

>  <PUBCHEM_SHAPE_FINGERPRINT>  (1) 
11321824 6 17902491723635487142
11578080 2 18264187249214312965
12553582 1 18410013238848874174
12596599 1 18340498759376802474
12633257 1 16630243700963728011
15375462 189 18409456899013482580
16945 1 18200610098356251861
17780758 139 18127962015440938826
18981168 100 11095322031089389308
20291156 8 18408322198428662446
20442098 301 18343584057602167822
21475661 188 14260258396464322827
21731516 1 18333725806340740362
22445834 79 18338806705196453485
23184049 29 18341894116751859844
232386 152 18337957796768643318
23500284 5 18339645645674758055
23559900 14 17631753636821024876
23728640 28 18269552737229237587
4072396 5 18059593399099667235
58807428 26 17983600519453595113
7097593 13 18412832360844981132
84936 31 16229459712679761725
85463 6 18270665528759041550

>  <PUBCHEM_SHAPE_MULTIPOLES>  (1) 
329.04
6.74
2.82
1.22
5.42
0.29
0.04
-4.71
1.56
-0.06
-0.01
-0.21
-0.08
-1.2

>  <PUBCHEM_SHAPE_SELFOVERLAP>  (1) 
692.879

>  <PUBCHEM_SHAPE_VOLUME>  (1) 
186.9

>  <PUBCHEM_COORDINATE_TYPE>  (1) 
2
5
10

$$$$
