27190
     RDKit          3D

 28 29  0  0  0  0  0  0  0  0999 V2000
    0.5008    0.8598   -1.3858 O   0  0  0  0  0  0  0  0  0  0  0  0
    0.0734   -1.8745   -1.1572 O   0  0  0  0  0  0  0  0  0  0  0  0
   -4.3991   -1.0953    0.2906 O   0  0  0  0  0  0  0  0  0  0  0  0
   -6.5486   -0.7433    0.9870 O   0  0  0  0  0  0  0  0  0  0  0  0
    3.4505    2.3987    0.1941 N   0  0  0  0  0  0  0  0  0  0  0  0
    2.3362   -2.6402    0.3612 N   0  0  0  0  0  0  0  0  0  0  0  0
    2.6945    1.5296   -0.6953 C   0  0  0  0  0  0  0  0  0  0  0  0
    1.5075   -3.6106   -0.3386 C   0  0  0  0  0  0  0  0  0  0  0  0
    1.2003    1.7153   -0.4848 C   0  0  0  0  0  0  0  0  0  0  0  0
    0.0752   -3.1129   -0.4490 C   0  0  0  0  0  0  0  0  0  0  0  0
    4.8906    2.2081    0.0044 C   0  0  0  0  0  0  0  0  0  0  0  0
    3.0934    3.8023   -0.0260 C   0  0  0  0  0  0  0  0  0  0  0  0
    1.8176   -2.3916    1.7085 C   0  0  0  0  0  0  0  0  0  0  0  0
    3.7253   -3.0998    0.4313 C   0  0  0  0  0  0  0  0  0  0  0  0
   -0.7069    0.3810   -0.9729 C   0  0  0  0  0  0  0  0  0  0  0  0
   -0.9192   -0.9918   -0.8587 C   0  0  0  0  0  0  0  0  0  0  0  0
   -2.9849    0.8252   -0.2377 C   0  0  0  0  0  0  0  0  0  0  0  0
   -1.7314    1.2834   -0.6651 C   0  0  0  0  0  0  0  0  0  0  0  0
   -3.1685   -0.5542   -0.1326 C   0  0  0  0  0  0  0  0  0  0  0  0
   -2.1563   -1.4666   -0.4361 C   0  0  0  0  0  0  0  0  0  0  0  0
   -4.1055    1.7123    0.1027 C   0  0  0  0  0  0  0  0  0  0  0  0
    5.2866    0.7583    0.2274 C   0  0  0  0  0  0  0  0  0  0  0  0
    3.8256    4.7137    0.9442 C   0  0  0  0  0  0  0  0  0  0  0  0
    2.6347   -1.3289    2.4237 C   0  0  0  0  0  0  0  0  0  0  0  0
    4.2866   -3.3649   -0.9555 C   0  0  0  0  0  0  0  0  0  0  0  0
   -5.2645    1.1698    0.5020 C   0  0  0  0  0  0  0  0  0  0  0  0
   -3.9403    3.2004   -0.0001 C   0  0  0  0  0  0  0  0  0  0  0  0
   -5.4736   -0.2832    0.6183 C   0  0  0  0  0  0  0  0  0  0  0  0
  1  9  1  0
  1 15  1  0
  2 10  1  0
  2 16  1  0
  3 19  1  0
  3 28  1  0
  4 28  2  0
  5  7  1  0
  5 11  1  0
  5 12  1  0
  6  8  1  0
  6 13  1  0
  6 14  1  0
  7  9  1  0
  8 10  1  0
 11 22  1  0
 12 23  1  0
 13 24  1  0
 14 25  1  0
 15 16  1  0
 15 18  2  0
 16 20  2  0
 17 18  1  0
 17 19  2  0
 17 21  1  0
 19 20  1  0
 21 26  2  0
 21 27  1  0
 26 28  1  0
M  END
>  <PUBCHEM_COMPOUND_CID>  (1) 
27190

>  <PUBCHEM_CONFORMER_RMSD>  (1) 
1.2

>  <PUBCHEM_CONFORMER_DIVERSEORDER>  (1) 
3
50
34
52
42
61
38
53
18
55
64
58
19
41
54
56
30
31
5
57
45
43
28
65
26
51
35
60
46
39
8
48
27
44
14
4
36
62
2
40
16
11
33
66
6
32
23
20
13
47
17
25
49
15
67
37
29
7
1
12
22
21
63
10
59
9
24

>  <PUBCHEM_MMFF94_PARTIAL_CHARGES>  (1) 
27
1 -0.36
10 0.28
11 0.27
12 0.27
13 0.27
14 0.27
15 0.08
16 0.08
17 0.03
18 -0.15
19 0.08
2 -0.36
20 -0.15
21 -0.17
26 -0.14
27 0.14
28 0.71
3 -0.23
4 -0.57
45 0.15
46 0.15
5 -0.81
59 0.15
6 -0.81
7 0.27
8 0.27
9 0.28

>  <PUBCHEM_EFFECTIVE_ROTOR_COUNT>  (1) 
12

>  <PUBCHEM_PHARMACOPHORE_FEATURES>  (1) 
7
1 1 acceptor
1 2 acceptor
1 4 acceptor
1 5 cation
1 6 cation
6 15 16 17 18 19 20 rings
6 3 17 19 21 26 28 rings

>  <PUBCHEM_HEAVY_ATOM_COUNT>  (1) 
28

>  <PUBCHEM_ATOM_DEF_STEREO_COUNT>  (1) 
0

>  <PUBCHEM_ATOM_UDEF_STEREO_COUNT>  (1) 
0

>  <PUBCHEM_BOND_DEF_STEREO_COUNT>  (1) 
0

>  <PUBCHEM_BOND_UDEF_STEREO_COUNT>  (1) 
0

>  <PUBCHEM_ISOTOPIC_ATOM_COUNT>  (1) 
0

>  <PUBCHEM_COMPONENT_COUNT>  (1) 
1

>  <PUBCHEM_CACTVS_TAUTO_COUNT>  (1) 
1

>  <PUBCHEM_CONFORMER_ID>  (1) 
00006A3600000003

>  <PUBCHEM_MMFF94_ENERGY>  (1) 
80.2356

>  <PUBCHEM_FEATURE_SELFOVERLAP>  (1) 
35.553

>  <PUBCHEM_SHAPE_FINGERPRINT>  (1) 
10290309 65 18338227271396823684
10674148 151 18411986893314313532
12156800 1 15504093140356827914
12422481 6 18046033066164357864
12788726 201 16964089748097859694
12925494 130 18267862770836576657
13140716 1 18192719947560843293
14790565 3 18339080522462915612
14955137 171 18195812864589252438
15664445 248 18055364543787433750
15927050 60 18269279134980919526
1813 80 16732989695345608333
18785283 64 18410293584132965806
20465049 17 18410865360824305796
21033648 29 17485343609597012579
23559900 14 18195528082867161511
3411729 13 18408608067177827694
5104073 3 18337690620339578033
5265222 85 18048048651515098628
5776283 40 18194138511087833012
6287921 2 18270385136393891682
653340 110 17619905502116335088
6823239 73 18193554472222170842
9981440 41 18265058101573205873

>  <PUBCHEM_SHAPE_MULTIPOLES>  (1) 
542.79
12.17
5.64
1.28
10
1.84
-0.54
4.28
-3.26
-8.84
-0.43
-0.74
-0.58
0.36

>  <PUBCHEM_SHAPE_SELFOVERLAP>  (1) 
1105.433

>  <PUBCHEM_SHAPE_VOLUME>  (1) 
318.7

>  <PUBCHEM_COORDINATE_TYPE>  (1) 
2
5
10

$$$$
