27207
     RDKit          3D

 26 28  0  0  0  0  0  0  0  0999 V2000
   -0.8329    0.7035   -2.7770 O   0  0  0  0  0  0  0  0  0  0  0  0
    2.7033   -0.9041   -0.5026 N   0  0  0  0  0  0  0  0  0  0  0  0
   -1.8189   -1.3374   -2.5253 N   0  0  0  0  0  0  0  0  0  0  0  0
    2.8575   -0.9176    1.0242 C   0  0  0  0  0  0  0  0  0  0  0  0
    3.8939   -0.3147   -1.2710 C   0  0  0  0  0  0  0  0  0  0  0  0
    1.4355   -0.1063   -0.8427 C   0  0  0  0  0  0  0  0  0  0  0  0
    4.2568   -1.2933    1.5006 C   0  0  0  0  0  0  0  0  0  0  0  0
    4.5029    0.9198   -0.6142 C   0  0  0  0  0  0  0  0  0  0  0  0
    0.2352   -0.7715   -0.1588 C   0  0  0  0  0  0  0  0  0  0  0  0
    2.4820   -2.3395   -1.0026 C   0  0  0  0  0  0  0  0  0  0  0  0
    5.1647   -0.0759    1.6656 C   0  0  0  0  0  0  0  0  0  0  0  0
    5.6227    0.5692    0.3641 C   0  0  0  0  0  0  0  0  0  0  0  0
   -1.1647   -0.1060   -0.4685 C   0  0  0  0  0  0  0  0  0  0  0  0
   -1.2742    1.3579    0.0445 C   0  0  0  0  0  0  0  0  0  0  0  0
   -2.3177   -0.9077    0.2056 C   0  0  0  0  0  0  0  0  0  0  0  0
   -1.2683   -0.1715   -2.0283 C   0  0  0  0  0  0  0  0  0  0  0  0
   -0.5905    1.6849    1.1788 C   0  0  0  0  0  0  0  0  0  0  0  0
   -3.5954   -0.4989   -0.0353 C   0  0  0  0  0  0  0  0  0  0  0  0
   -2.0474    2.2244   -0.6713 C   0  0  0  0  0  0  0  0  0  0  0  0
   -1.9746   -1.9660    0.9930 C   0  0  0  0  0  0  0  0  0  0  0  0
   -0.6887    2.9979    1.6390 C   0  0  0  0  0  0  0  0  0  0  0  0
   -4.6280   -1.2166    0.5683 C   0  0  0  0  0  0  0  0  0  0  0  0
   -2.1456    3.5375   -0.2110 C   0  0  0  0  0  0  0  0  0  0  0  0
   -3.0073   -2.6837    1.5966 C   0  0  0  0  0  0  0  0  0  0  0  0
   -1.4663    3.9243    0.9441 C   0  0  0  0  0  0  0  0  0  0  0  0
   -4.3340   -2.3091    1.3843 C   0  0  0  0  0  0  0  0  0  0  0  0
  1 16  2  0
  2  4  1  0
  2  5  1  0
  2  6  1  0
  2 10  1  0
  3 16  1  0
  4  7  1  0
  5  8  1  0
  6  9  1  0
  7 11  1  0
  8 12  1  0
  9 13  1  0
 11 12  1  0
 13 14  1  0
 13 15  1  0
 13 16  1  0
 14 17  2  0
 14 19  1  0
 15 18  2  0
 15 20  1  0
 17 21  1  0
 18 22  1  0
 19 23  2  0
 20 24  2  0
 21 25  2  0
 22 26  2  0
 23 25  1  0
 24 26  1  0
M  CHG  1   2   1
M  END
>  <PUBCHEM_COMPOUND_CID>  (1) 
27207

>  <PUBCHEM_CONFORMER_RMSD>  (1) 
0.8

>  <PUBCHEM_CONFORMER_DIVERSEORDER>  (1) 
1
19
27
30
56
39
51
33
54
38
4
50
43
28
44
21
3
55
58
41
47
11
17
53
22
35
12
49
45
29
42
36
14
46
24
48
23
40
52
15
9
10
25
31
16
7
57
37
6
5
26
8
34
2
20
18
13
32

>  <PUBCHEM_MMFF94_PARTIAL_CHARGES>  (1) 
33
1 -0.57
10 0.5
13 0.35
14 -0.14
15 -0.14
16 0.57
17 -0.15
18 -0.15
19 -0.15
2 -1.01
20 -0.15
21 -0.15
22 -0.15
23 -0.15
24 -0.15
25 -0.15
26 -0.15
3 -0.8
4 0.5
46 0.15
47 0.15
48 0.15
49 0.15
5 0.5
50 0.37
51 0.37
52 0.15
53 0.15
54 0.15
55 0.15
56 0.15
57 0.15
6 0.5

>  <PUBCHEM_EFFECTIVE_ROTOR_COUNT>  (1) 
7.4

>  <PUBCHEM_PHARMACOPHORE_FEATURES>  (1) 
6
1 1 acceptor
1 2 cation
1 3 donor
6 14 17 19 21 23 25 rings
6 15 18 20 22 24 26 rings
7 2 4 5 7 8 11 12 rings

>  <PUBCHEM_HEAVY_ATOM_COUNT>  (1) 
26

>  <PUBCHEM_ATOM_DEF_STEREO_COUNT>  (1) 
0

>  <PUBCHEM_ATOM_UDEF_STEREO_COUNT>  (1) 
0

>  <PUBCHEM_BOND_DEF_STEREO_COUNT>  (1) 
0

>  <PUBCHEM_BOND_UDEF_STEREO_COUNT>  (1) 
0

>  <PUBCHEM_ISOTOPIC_ATOM_COUNT>  (1) 
0

>  <PUBCHEM_COMPONENT_COUNT>  (1) 
1

>  <PUBCHEM_CACTVS_TAUTO_COUNT>  (1) 
2

>  <PUBCHEM_CONFORMER_ID>  (1) 
00006A4700000001

>  <PUBCHEM_MMFF94_ENERGY>  (1) 
112.7968

>  <PUBCHEM_FEATURE_SELFOVERLAP>  (1) 
30.447

>  <PUBCHEM_SHAPE_FINGERPRINT>  (1) 
10670039 82 18268731497250390836
10906281 52 17986969461947582081
11578080 2 15622612638451791201
12173636 292 18192149304471499981
12403814 3 17846492634339082147
12516196 113 18340495572711691243
12553582 1 18272368728089067830
12596602 18 18040992973719479872
12788726 201 18335431157312394699
13224815 77 17988636368623965814
133893 2 17552337183488978061
13583140 156 17988072271846088090
14178342 30 18189335676187008994
14468879 13 17773025363357458396
14840074 17 17773878777912844056
14863182 85 15736016709901505067
15131766 46 16414619610049533040
15775530 1 17124832399939376767
17349148 13 13623521364495660014
17980427 23 17488487276949910601
20510252 161 18338524049277699419
20600515 1 18114478854309607143
20681651 13 17459454590355203026
21033648 29 16988295226296184875
21049683 118 17906725900244488201
21304303 282 17829576523529347413
21524375 3 17335903387501479189
23419403 2 17972862920577165533
23557571 272 18341627975019158908
23558518 356 17980197483383617811
23559900 14 18266753384893968422
23598288 3 18270397187749714702
3187 122 18411976966479308816
376196 1 17266089905201737885
3886686 26 17686045112020148146
392239 28 18337117881385412858
4340502 62 17974285422589119493
469060 322 18340784696766447024
497634 4 18040438768002851734
5104073 3 18263067852725700546
6004065 56 18269834388811953175
633830 44 14261345886863128018
7226269 152 18335416829950451801
81228 2 18123782801612925337
9981440 41 17771038541741172890

>  <PUBCHEM_SHAPE_MULTIPOLES>  (1) 
519.24
9.51
3.69
2.03
11.48
3.45
-0.86
-4.09
3.26
-4.12
1.54
-0.07
-0.31
0.74

>  <PUBCHEM_SHAPE_SELFOVERLAP>  (1) 
1096.637

>  <PUBCHEM_SHAPE_VOLUME>  (1) 
288.3

>  <PUBCHEM_COORDINATE_TYPE>  (1) 
2
5
10

$$$$
