27204
     RDKit          3D

 18 20  0  0  1  0  0  0  0  0999 V2000
   -4.3660   -0.1103   -0.4250 O   0  0  0  0  0  0  0  0  0  0  0  0
    4.4515    0.1437    0.0687 O   0  0  0  0  0  0  0  0  0  0  0  0
    1.4452    1.9005   -1.0909 O   0  0  0  0  0  0  0  0  0  0  0  0
    0.0795   -2.2524    0.3409 O   0  0  0  0  0  0  0  0  0  0  0  0
   -1.0073   -0.1742    0.2518 N   0  0  0  0  0  0  0  0  0  0  0  0
    1.1008   -0.3184   -0.4705 N   0  0  0  0  0  0  0  0  0  0  0  0
   -0.7000    1.1897   -0.1694 C   0  0  0  0  0  0  0  0  0  0  0  0
   -2.2912   -0.5739    0.8001 C   0  0  0  0  0  0  0  0  0  0  0  0
   -3.2566   -0.9864   -0.2918 C   0  0  0  0  0  0  0  0  0  0  0  0
    0.7460    1.0016   -0.6392 C   0  0  0  0  0  0  0  0  0  0  0  0
    2.3979   -0.8647   -0.8183 C   0  0  0  0  0  0  0  0  0  0  0  0
    3.3766   -0.7460    0.3318 C   0  0  0  0  0  0  0  0  0  0  0  0
   -0.7344    2.1814    0.9910 C   0  0  0  0  0  0  0  0  0  0  0  0
    0.0662   -1.0574    0.0719 C   0  0  0  0  0  0  0  0  0  0  0  0
   -4.6278   -1.4348    0.0567 C   0  0  0  0  0  0  0  0  0  0  0  0
   -1.5627    1.6468   -1.3429 C   0  0  0  0  0  0  0  0  0  0  0  0
    4.7646   -1.2505    0.1837 C   0  0  0  0  0  0  0  0  0  0  0  0
    0.1180    1.7052    2.1514 C   0  0  0  0  0  0  0  0  0  0  0  0
  1  9  1  0
  1 15  1  0
  2 12  1  0
  2 17  1  0
  3 10  2  0
  4 14  2  0
  5  7  1  0
  5  8  1  0
  5 14  1  0
  6 10  1  0
  6 11  1  0
  6 14  1  0
  7 10  1  0
  7 13  1  0
  7 16  1  0
  8  9  1  0
  9 15  1  0
 11 12  1  0
 12 17  1  0
 13 18  1  0
M  END
>  <PUBCHEM_COMPOUND_CID>  (1) 
27204

>  <PUBCHEM_CONFORMER_RMSD>  (1) 
0.8

>  <PUBCHEM_CONFORMER_DIVERSEORDER>  (1) 
7
76
34
35
17
47
70
63
43
55
60
51
48
45
20
67
54
66
39
36
28
72
69
73
58
27
74
56
30
44
38
49
50
46
8
26
65
52
32
61
53
37
64
68
59
41
24
40
57
33
62
12
29
1
75
4
22
42
13
9
2
71
23
3
21
25
6
14
18
10
16
19
31
11
5
15

>  <PUBCHEM_MMFF94_PARTIAL_CHARGES>  (1) 
21
1 -0.3
10 0.57
11 0.4
12 -0.05
14 0.69
15 -0.05
17 -0.05
2 -0.3
21 0.1
22 0.1
27 0.1
28 0.1
3 -0.57
32 0.1
33 0.1
4 -0.57
5 -0.66
6 -0.42
7 0.36
8 0.4
9 -0.05

>  <PUBCHEM_EFFECTIVE_ROTOR_COUNT>  (1) 
6.8

>  <PUBCHEM_PHARMACOPHORE_FEATURES>  (1) 
6
1 1 acceptor
1 18 hydrophobe
1 2 acceptor
1 3 acceptor
1 4 acceptor
5 5 6 7 10 14 rings

>  <PUBCHEM_HEAVY_ATOM_COUNT>  (1) 
18

>  <PUBCHEM_ATOM_DEF_STEREO_COUNT>  (1) 
0

>  <PUBCHEM_ATOM_UDEF_STEREO_COUNT>  (1) 
3

>  <PUBCHEM_BOND_DEF_STEREO_COUNT>  (1) 
0

>  <PUBCHEM_BOND_UDEF_STEREO_COUNT>  (1) 
0

>  <PUBCHEM_ISOTOPIC_ATOM_COUNT>  (1) 
0

>  <PUBCHEM_COMPONENT_COUNT>  (1) 
1

>  <PUBCHEM_CACTVS_TAUTO_COUNT>  (1) 
1

>  <PUBCHEM_CONFORMER_ID>  (1) 
00006A4400000007

>  <PUBCHEM_MMFF94_ENERGY>  (1) 
31.3775

>  <PUBCHEM_FEATURE_SELFOVERLAP>  (1) 
30.448

>  <PUBCHEM_SHAPE_FINGERPRINT>  (1) 
108231 29 18272366490294828232
10922049 32 8142086468109046353
11401426 45 18408319990921032423
11806522 49 18342737450913272847
11833330 49 17894625929178121933
12423570 1 13821889677079049577
12592029 89 12035719899478509080
12916754 54 18263927649122322430
13134695 92 18129658733454480661
13140716 1 18263938806751434779
13214271 11 17418092062013386801
13690532 89 18261111880788830582
13862211 1 18334852826965755994
14178342 30 18125450713222803996
14181834 199 18190472738212376244
14617773 55 18056789613603501481
14787075 74 18272928371091491058
14943859 89 9871744698090186814
15375462 478 18272933812741241190
16945 1 18262819405182539815
17834072 14 18187365436921994988
18186145 218 14201399438631605471
187816 3 14634870838009248671
19010151 120 18408330977230818361
200 152 18412543201913425686
20510252 161 18270963449439510474
20671657 53 18186805781045005140
21029758 11 18412543223398759609
21296965 67 18272088296731231689
21339142 36 18271236140955068349
23402539 116 18412256220926064582
23419403 2 18128511890722938168
23493267 7 16588016910323704401
23557571 272 17488757687299620748
23559900 14 18408602595911621490
2748010 2 17974027324517910223
3286 77 18130503158389445577
347723 3 16153702111743115909
4990 188 11818990772970498954
53812654 25 18131074886686470471
81228 2 18124058769919394531

>  <PUBCHEM_SHAPE_MULTIPOLES>  (1) 
336.99
7.43
2.2
1.23
1.75
0.65
0.3
-4.76
-0.18
-0.43
0.32
-0.09
0.81
0.02

>  <PUBCHEM_SHAPE_SELFOVERLAP>  (1) 
696.026

>  <PUBCHEM_SHAPE_VOLUME>  (1) 
196.7

>  <PUBCHEM_COORDINATE_TYPE>  (1) 
2
5
10

$$$$
