27208
     RDKit          3D

 16 16  0  0  1  0  0  0  0  0999 V2000
    1.5623   -1.7940    0.0402 O   0  0  0  0  0  0  0  0  0  0  0  0
    1.1202   -0.4336    0.1015 C   0  0  0  0  0  0  0  0  0  0  0  0
   -0.4057   -0.4498    0.2059 C   0  0  0  0  0  0  0  0  0  0  0  0
    1.5792    0.3029   -1.1638 C   0  0  0  0  0  0  0  0  0  0  0  0
    1.7383    0.2104    1.3551 C   0  0  0  0  0  0  0  0  0  0  0  0
   -1.0708   -1.1080   -1.0196 C   0  0  0  0  0  0  0  0  0  0  0  0
    3.1073    0.3266   -1.2916 C   0  0  0  0  0  0  0  0  0  0  0  0
   -0.8260   -1.1918    1.4780 C   0  0  0  0  0  0  0  0  0  0  0  0
    3.8174    0.6274    0.0035 C   0  0  0  0  0  0  0  0  0  0  0  0
    3.1846    0.5856    1.1883 C   0  0  0  0  0  0  0  0  0  0  0  0
   -2.6060   -1.1160   -1.0100 C   0  0  0  0  0  0  0  0  0  0  0  0
    5.2733    0.9723   -0.1060 C   0  0  0  0  0  0  0  0  0  0  0  0
   -3.1929    0.2633   -0.8946 C   0  0  0  0  0  0  0  0  0  0  0  0
   -4.0724    0.7246    0.0148 C   0  0  0  0  0  0  0  0  0  0  0  0
   -4.5372    2.1563   -0.0375 C   0  0  0  0  0  0  0  0  0  0  0  0
   -4.6716   -0.0761    1.1356 C   0  0  0  0  0  0  0  0  0  0  0  0
  1  2  1  0
  2  3  1  0
  2  4  1  0
  2  5  1  0
  3  6  1  0
  3  8  1  0
  4  7  1  0
  5 10  1  0
  6 11  1  0
  7  9  1  0
  9 10  2  0
  9 12  1  0
 11 13  1  0
 13 14  2  3
 14 15  1  0
 14 16  1  0
M  END
>  <PUBCHEM_COMPOUND_CID>  (1) 
27208

>  <PUBCHEM_CONFORMER_RMSD>  (1) 
0.6

>  <PUBCHEM_CONFORMER_DIVERSEORDER>  (1) 
3
78
44
55
12
81
112
23
6
86
60
96
13
53
48
76
110
67
40
38
83
82
85
17
109
29
21
19
88
39
30
37
36
117
73
72
8
57
47
89
41
93
15
59
58
28
16
20
118
105
54
42
90
77
106
14
46
74
104
62
22
31
5
114
35
61
51
66
108
7
4
43
75
87
71
107
63
111
64
99
18
27
79
25
113
94
50
70
101
52
33
34
10
56
69
80
32
115
84
26
92
45
100
68
102
65
91
116
24
2
98
97
49
95
9
11
1
103

>  <PUBCHEM_MMFF94_PARTIAL_CHARGES>  (1) 
15
1 -0.68
10 -0.29
11 0.14
12 0.14
13 -0.29
14 -0.28
15 0.14
16 0.14
2 0.28
29 0.15
32 0.4
36 0.15
5 0.14
7 0.14
9 -0.28

>  <PUBCHEM_EFFECTIVE_ROTOR_COUNT>  (1) 
4.8

>  <PUBCHEM_PHARMACOPHORE_FEATURES>  (1) 
6
1 1 acceptor
1 1 donor
1 8 hydrophobe
3 14 15 16 hydrophobe
4 3 6 11 13 hydrophobe
6 2 4 5 7 9 10 rings

>  <PUBCHEM_HEAVY_ATOM_COUNT>  (1) 
16

>  <PUBCHEM_ATOM_DEF_STEREO_COUNT>  (1) 
0

>  <PUBCHEM_ATOM_UDEF_STEREO_COUNT>  (1) 
2

>  <PUBCHEM_BOND_DEF_STEREO_COUNT>  (1) 
0

>  <PUBCHEM_BOND_UDEF_STEREO_COUNT>  (1) 
0

>  <PUBCHEM_ISOTOPIC_ATOM_COUNT>  (1) 
0

>  <PUBCHEM_COMPONENT_COUNT>  (1) 
1

>  <PUBCHEM_CACTVS_TAUTO_COUNT>  (1) 
1

>  <PUBCHEM_CONFORMER_ID>  (1) 
00006A4800000003

>  <PUBCHEM_MMFF94_ENERGY>  (1) 
25.3999

>  <PUBCHEM_FEATURE_SELFOVERLAP>  (1) 
30.471

>  <PUBCHEM_SHAPE_FINGERPRINT>  (1) 
10354089 29 17240202140449074900
10465860 228 18188486865651961227
10498660 4 17988631957756363097
10646746 165 18130782391066388008
11046707 91 9727637210927563877
11132069 177 16008752390395106955
11552529 35 17095815437562578411
12251169 10 16081088203286393403
12500047 106 17846211198080608598
12507557 5 17022618702260273949
12633257 1 15719686398138544173
12892183 10 14779533565912190996
13581323 91 14418128526184105630
13693222 15 15140961760114859191
14252887 29 15574987343649684072
14341114 328 17168155520184658605
14576447 43 12895351084112696052
14787075 74 13767934541454828420
14943859 89 18412263943282199519
15309172 13 16732975431928263091
17834072 33 9223223066346897114
17959699 21 17489590082026688384
18186145 218 17203605978387264531
18769570 83 18411693292801193616
193927 3 8718536272826045733
19862831 5 16558751225795098259
200 152 13901912214936835848
20645477 56 17988926699638663671
20645477 70 16056610841211446934
20671657 53 10447920694341726603
20871999 31 16200142240442704975
21501925 9 11818995175375319663
221357 26 15697994124970979137
22646028 28 8142077680912043805
22854114 59 15864068771581241589
231179 274 17988922266725972912
23402539 116 18131344233145087476
23402655 69 16200155399848089240
23493267 7 17418088857994489119
23557571 272 17774439503136178431
25 1 17203612566756482895
26918003 58 11602537633040811269
2838139 119 18124310765048707276
2916195 48 18340201985594811976
32948 21 17917712401033719996
4028521 119 17775281634701759529
42 15 13984658148570757373
5104073 3 16661486384867060648
5281201 14 17203328961228086509
633830 44 18188767237180883407
7471813 234 12463569599525751298
76465 3 10735879460724082948
9882013 296 15864074282240482237

>  <PUBCHEM_SHAPE_MULTIPOLES>  (1) 
323.4
10.07
1.48
1.42
1.48
0.16
-0.16
5.48
-0.29
1.16
0.03
-0.07
-0.18
-0.04

>  <PUBCHEM_SHAPE_SELFOVERLAP>  (1) 
635.312

>  <PUBCHEM_SHAPE_VOLUME>  (1) 
193.6

>  <PUBCHEM_COORDINATE_TYPE>  (1) 
2
5
10

$$$$
