27214
     RDKit          3D

 15 15  0  0  0  0  0  0  0  0999 V2000
   -0.3351    1.7991   -1.6797 O   0  0  0  0  0  0  0  0  0  0  0  0
   -0.2964   -0.4619    2.4357 O   0  0  0  0  0  0  0  0  0  0  0  0
    3.4785   -0.2546   -0.1651 O   0  0  0  0  0  0  0  0  0  0  0  0
    1.5413    0.6886   -0.9667 N   0  0  0  0  0  0  0  0  0  0  0  0
    1.5605   -0.4415    1.0887 N   0  0  0  0  0  0  0  0  0  0  0  0
   -0.6019    0.1990    0.1227 C   0  0  0  0  0  0  0  0  0  0  0  0
   -1.0928   -1.0814   -0.5764 C   0  0  0  0  0  0  0  0  0  0  0  0
   -1.8138    1.0208    0.5856 C   0  0  0  0  0  0  0  0  0  0  0  0
    0.1154   -1.8878   -1.0736 C   0  0  0  0  0  0  0  0  0  0  0  0
   -1.9005   -1.9289    0.4169 C   0  0  0  0  0  0  0  0  0  0  0  0
   -1.9824   -0.7040   -1.7692 C   0  0  0  0  0  0  0  0  0  0  0  0
    0.1900    0.9957   -0.9093 C   0  0  0  0  0  0  0  0  0  0  0  0
    0.2111   -0.2387    1.3369 C   0  0  0  0  0  0  0  0  0  0  0  0
   -1.3475    2.3289    1.1856 C   0  0  0  0  0  0  0  0  0  0  0  0
    2.2737   -0.0332   -0.0319 C   0  0  0  0  0  0  0  0  0  0  0  0
  1 12  2  0
  2 13  2  0
  3 15  2  0
  4 12  1  0
  4 15  1  0
  5 13  1  0
  5 15  1  0
  6  7  1  0
  6  8  1  0
  6 12  1  0
  6 13  1  0
  7  9  1  0
  7 10  1  0
  7 11  1  0
  8 14  1  0
M  END
>  <PUBCHEM_COMPOUND_CID>  (1) 
27214

>  <PUBCHEM_CONFORMER_RMSD>  (1) 
0.6

>  <PUBCHEM_CONFORMER_DIVERSEORDER>  (1) 
1
3
2

>  <PUBCHEM_MMFF94_PARTIAL_CHARGES>  (1) 
11
1 -0.57
12 0.57
13 0.57
15 0.69
2 -0.57
3 -0.57
30 0.37
31 0.37
4 -0.49
5 -0.49
6 0.12

>  <PUBCHEM_EFFECTIVE_ROTOR_COUNT>  (1) 
2.6

>  <PUBCHEM_PHARMACOPHORE_FEATURES>  (1) 
8
1 1 acceptor
1 14 hydrophobe
1 2 acceptor
1 3 acceptor
1 4 donor
1 5 donor
4 7 9 10 11 hydrophobe
6 4 5 6 12 13 15 rings

>  <PUBCHEM_HEAVY_ATOM_COUNT>  (1) 
15

>  <PUBCHEM_ATOM_DEF_STEREO_COUNT>  (1) 
0

>  <PUBCHEM_ATOM_UDEF_STEREO_COUNT>  (1) 
0

>  <PUBCHEM_BOND_DEF_STEREO_COUNT>  (1) 
0

>  <PUBCHEM_BOND_UDEF_STEREO_COUNT>  (1) 
0

>  <PUBCHEM_ISOTOPIC_ATOM_COUNT>  (1) 
0

>  <PUBCHEM_COMPONENT_COUNT>  (1) 
1

>  <PUBCHEM_CACTVS_TAUTO_COUNT>  (1) 
5

>  <PUBCHEM_CONFORMER_ID>  (1) 
00006A4E00000001

>  <PUBCHEM_MMFF94_ENERGY>  (1) 
61.4152

>  <PUBCHEM_FEATURE_SELFOVERLAP>  (1) 
40.636

>  <PUBCHEM_SHAPE_FINGERPRINT>  (1) 
10702982 57 17914616055461073701
11129358 1 12975864102930239927
12138202 97 17203047365886835524
12423570 1 12655702822365064829
12725867 57 17413000438724569015
13024252 1 15719393923449414470
137420 1 10427220016883874199
144361 1 17184707365975189431
14817 1 12959052424038706405
16945 1 17969762194322441615
22344851 12 8759215849116124600
22344851 262 18341625767052586092
23419403 2 17763711653840922037
369184 2 16988843882402843358
430814 3 18048879593592932617
5084963 1 17689959424553132539
535629 181 18261111919448427870
53812653 217 17750221513756408844
54276843 12 18263363762190979267

>  <PUBCHEM_SHAPE_MULTIPOLES>  (1) 
281.12
2.91
2.06
1.78
2.32
0.34
0.1
-0.51
-0.06
-1.39
-0.05
-0.24
0.25
-0.05

>  <PUBCHEM_SHAPE_SELFOVERLAP>  (1) 
586.71

>  <PUBCHEM_SHAPE_VOLUME>  (1) 
158.2

>  <PUBCHEM_COORDINATE_TYPE>  (1) 
2
5
10

$$$$
