27215
     RDKit          3D

 16 16  0  0  0  0  0  0  0  0999 V2000
   -0.0276    1.2153    0.7618 O   0  0  0  0  0  0  0  0  0  0  0  0
    0.3503   -1.5287    0.5294 O   0  0  0  0  0  0  0  0  0  0  0  0
    4.9369   -0.8035   -0.7269 N   0  0  0  0  0  0  0  0  0  0  0  0
   -2.6539    0.5433   -0.2366 C   0  0  0  0  0  0  0  0  0  0  0  0
   -4.1714    0.3826   -0.1095 C   0  0  0  0  0  0  0  0  0  0  0  0
   -2.1717    1.9722    0.0081 C   0  0  0  0  0  0  0  0  0  0  0  0
   -4.6515   -1.0524   -0.3303 C   0  0  0  0  0  0  0  0  0  0  0  0
   -0.6627    2.0893   -0.1612 C   0  0  0  0  0  0  0  0  0  0  0  0
   -6.1685   -1.1455   -0.2654 C   0  0  0  0  0  0  0  0  0  0  0  0
    1.1922    0.7087    0.3952 C   0  0  0  0  0  0  0  0  0  0  0  0
    1.3744   -0.6652    0.2815 C   0  0  0  0  0  0  0  0  0  0  0  0
    2.2411    1.5855    0.1401 C   0  0  0  0  0  0  0  0  0  0  0  0
    2.6205   -1.1684   -0.0919 C   0  0  0  0  0  0  0  0  0  0  0  0
    3.6770   -0.2947   -0.3493 C   0  0  0  0  0  0  0  0  0  0  0  0
    3.4873    1.0823   -0.2332 C   0  0  0  0  0  0  0  0  0  0  0  0
    0.6276   -2.9206    0.3882 C   0  0  0  0  0  0  0  0  0  0  0  0
  1  8  1  0
  1 10  1  0
  2 11  1  0
  2 16  1  0
  3 14  1  0
  4  5  1  0
  4  6  1  0
  5  7  1  0
  6  8  1  0
  7  9  1  0
 10 11  2  0
 10 12  1  0
 11 13  1  0
 12 15  2  0
 13 14  2  0
 14 15  1  0
M  END
>  <PUBCHEM_COMPOUND_CID>  (1) 
27215

>  <PUBCHEM_CONFORMER_RMSD>  (1) 
0.8

>  <PUBCHEM_CONFORMER_DIVERSEORDER>  (1) 
100
109
70
2
63
107
15
62
87
90
93
66
58
83
74
25
92
95
54
59
96
6
46
16
21
84
110
69
34
4
80
57
1
75
88
99
104
111
30
31
9
77
35
56
103
86
78
97
112
73
5
49
67
8
60
24
65
38
52
7
27
105
85
106
50
10
47
102
108
41
61
79
20
72
26
55
36
82
19
44
94
51
17
14
48
101
29
71
76
3
33
53
18
42
39
13
37
68
64
89
32
98
12
40
91
81
45
22
28
43
11
23

>  <PUBCHEM_MMFF94_PARTIAL_CHARGES>  (1) 
16
1 -0.36
10 0.08
11 0.08
12 -0.15
13 -0.15
14 0.1
15 -0.15
16 0.28
2 -0.36
3 -0.9
30 0.15
31 0.15
32 0.15
33 0.4
34 0.4
8 0.28

>  <PUBCHEM_EFFECTIVE_ROTOR_COUNT>  (1) 
7

>  <PUBCHEM_PHARMACOPHORE_FEATURES>  (1) 
7
1 1 acceptor
1 2 acceptor
1 3 cation
1 3 donor
1 9 hydrophobe
4 4 5 6 7 hydrophobe
6 10 11 12 13 14 15 rings

>  <PUBCHEM_HEAVY_ATOM_COUNT>  (1) 
16

>  <PUBCHEM_ATOM_DEF_STEREO_COUNT>  (1) 
0

>  <PUBCHEM_ATOM_UDEF_STEREO_COUNT>  (1) 
0

>  <PUBCHEM_BOND_DEF_STEREO_COUNT>  (1) 
0

>  <PUBCHEM_BOND_UDEF_STEREO_COUNT>  (1) 
0

>  <PUBCHEM_ISOTOPIC_ATOM_COUNT>  (1) 
0

>  <PUBCHEM_COMPONENT_COUNT>  (1) 
1

>  <PUBCHEM_CACTVS_TAUTO_COUNT>  (1) 
1

>  <PUBCHEM_CONFORMER_ID>  (1) 
00006A4F00000064

>  <PUBCHEM_MMFF94_ENERGY>  (1) 
53.5474

>  <PUBCHEM_FEATURE_SELFOVERLAP>  (1) 
35.525

>  <PUBCHEM_SHAPE_FINGERPRINT>  (1) 
10616163 171 18341049606407425285
108634 29 18336839666046948726
11089746 13 12613039426445317374
11578080 2 16341716547388998090
11806522 49 18410856546829078548
12553582 1 18341314661808650367
12596602 18 17203330061483415771
12715332 25 17917988373946464670
13402501 40 18188214325057020491
13464513 79 18343018917368471423
13862211 1 18336827498989713498
14178342 30 18051396393063069056
14251717 144 18409164450405821649
14350574 20 18343587334905009324
14576447 43 18408886205086229542
15196674 1 18411417306734079869
20028762 73 18272366477468825742
20261772 1 17917706937698202335
20281475 54 18339920403554921497
20645477 70 18342170043121077469
20871999 31 18040990710071475677
21267235 1 18412552020003510751
221490 88 18337677390848762778
23402539 116 18335419028504351924
23402655 69 18262799536716920453
23557571 272 17167856431763105029
2748010 2 18051990396167694394
2871803 45 18408598163262798397
33382 64 16199881566045460454
33824 294 18408879663734954419
351380 3 18202280338539901815
465052 167 18059860627405918391
474229 33 18409164437299347754
94968 8 18412822508274536585

>  <PUBCHEM_SHAPE_MULTIPOLES>  (1) 
312.55
10.41
2.5
0.72
12.22
0.65
0
3.52
-2.49
-0.01
0.24
-0.14
0.03
-0.03

>  <PUBCHEM_SHAPE_SELFOVERLAP>  (1) 
621.334

>  <PUBCHEM_SHAPE_VOLUME>  (1) 
186.8

>  <PUBCHEM_COORDINATE_TYPE>  (1) 
2
5
10

$$$$
