27227
     RDKit          3D

 19 20  0  0  0  0  0  0  0  0999 V2000
    1.0418    0.5381    0.8985 O   0  0  0  0  0  0  0  0  0  0  0  0
    2.3047   -1.9375    0.8727 O   0  0  0  0  0  0  0  0  0  0  0  0
    6.3200    0.1144   -0.8050 N   0  0  0  0  0  0  0  0  0  0  0  0
   -1.2645    0.4644    0.2575 C   0  0  0  0  0  0  0  0  0  0  0  0
   -2.3309    0.9585   -0.7276 C   0  0  0  0  0  0  0  0  0  0  0  0
    0.1081    1.0505   -0.0421 C   0  0  0  0  0  0  0  0  0  0  0  0
   -3.6862    0.4241   -0.4078 C   0  0  0  0  0  0  0  0  0  0  0  0
    2.3420    0.4238    0.4798 C   0  0  0  0  0  0  0  0  0  0  0  0
   -4.1099   -0.7821   -0.9658 C   0  0  0  0  0  0  0  0  0  0  0  0
   -4.5302    1.1306    0.4492 C   0  0  0  0  0  0  0  0  0  0  0  0
    2.9680   -0.8180    0.4696 C   0  0  0  0  0  0  0  0  0  0  0  0
    3.0236    1.5637    0.0672 C   0  0  0  0  0  0  0  0  0  0  0  0
   -5.3774   -1.2817   -0.6668 C   0  0  0  0  0  0  0  0  0  0  0  0
   -5.7977    0.6308    0.7483 C   0  0  0  0  0  0  0  0  0  0  0  0
    4.2917   -0.9210    0.0416 C   0  0  0  0  0  0  0  0  0  0  0  0
    4.9814    0.2182   -0.3732 C   0  0  0  0  0  0  0  0  0  0  0  0
    4.3474    1.4607   -0.3603 C   0  0  0  0  0  0  0  0  0  0  0  0
   -6.2213   -0.5754    0.1903 C   0  0  0  0  0  0  0  0  0  0  0  0
    1.5895   -2.6619   -0.1262 C   0  0  0  0  0  0  0  0  0  0  0  0
  1  6  1  0
  1  8  1  0
  2 11  1  0
  2 19  1  0
  3 16  1  0
  4  5  1  0
  4  6  1  0
  5  7  1  0
  7  9  2  0
  7 10  1  0
  8 11  2  0
  8 12  1  0
  9 13  1  0
 10 14  2  0
 11 15  1  0
 12 17  2  0
 13 18  2  0
 14 18  1  0
 15 16  2  0
 16 17  1  0
M  END
>  <PUBCHEM_COMPOUND_CID>  (1) 
27227

>  <PUBCHEM_CONFORMER_RMSD>  (1) 
0.8

>  <PUBCHEM_CONFORMER_DIVERSEORDER>  (1) 
1
80
5
55
82
18
26
77
4
13
90
32
81
60
45
40
52
91
84
50
34
29
39
9
65
21
51
70
92
64
79
14
6
85
88
37
89
74
63
78
75
3
43
22
86
59
35
7
93
56
12
53
83
25
58
54
2
94
69
72
38
20
27
31
71
41
47
49
10
48
46
36
61
67
23
73
62
24
33
30
42
76
68
15
57
17
66
28
8
87
44
16
19
11

>  <PUBCHEM_MMFF94_PARTIAL_CHARGES>  (1) 
28
1 -0.36
10 -0.15
11 0.08
12 -0.15
13 -0.15
14 -0.15
15 -0.15
16 0.1
17 -0.15
18 -0.15
19 0.28
2 -0.36
26 0.15
27 0.15
28 0.15
29 0.15
3 -0.9
30 0.15
31 0.15
32 0.15
33 0.15
34 0.4
35 0.4
5 0.14
6 0.28
7 -0.14
8 0.08
9 -0.15

>  <PUBCHEM_EFFECTIVE_ROTOR_COUNT>  (1) 
6

>  <PUBCHEM_PHARMACOPHORE_FEATURES>  (1) 
6
1 1 acceptor
1 2 acceptor
1 3 cation
1 3 donor
6 7 9 10 13 14 18 rings
6 8 11 12 15 16 17 rings

>  <PUBCHEM_HEAVY_ATOM_COUNT>  (1) 
19

>  <PUBCHEM_ATOM_DEF_STEREO_COUNT>  (1) 
0

>  <PUBCHEM_ATOM_UDEF_STEREO_COUNT>  (1) 
0

>  <PUBCHEM_BOND_DEF_STEREO_COUNT>  (1) 
0

>  <PUBCHEM_BOND_UDEF_STEREO_COUNT>  (1) 
0

>  <PUBCHEM_ISOTOPIC_ATOM_COUNT>  (1) 
0

>  <PUBCHEM_COMPONENT_COUNT>  (1) 
1

>  <PUBCHEM_CACTVS_TAUTO_COUNT>  (1) 
1

>  <PUBCHEM_CONFORMER_ID>  (1) 
00006A5B00000001

>  <PUBCHEM_MMFF94_ENERGY>  (1) 
74.7482

>  <PUBCHEM_FEATURE_SELFOVERLAP>  (1) 
30.45

>  <PUBCHEM_SHAPE_FINGERPRINT>  (1) 
10299344 5 18342179972953661599
11405975 8 11455879291554886029
11545043 162 14045732768699395863
12107183 9 17693381032167361889
12236239 1 18059859471295207577
12507557 5 8502371144322520703
12596602 18 17203325654467077451
12730499 353 18186806885252429450
12788726 201 17489312915260534355
13167823 11 18343299271522118053
13836976 161 18334299777618028494
1420 363 17603307059476549561
14528608 73 18409166636143398164
14617045 38 18410295817848671807
15250474 111 18342160173239635311
15348495 7 14332835050063099487
15537594 2 18272083898964672527
17834072 33 18411699889622513897
17844677 252 18411704283622542577
1813 80 17603592898519757205
19489759 90 15195287521842350465
20645477 70 18335138653086683394
21054139 6 18411695517361851702
212847 35 11312053274941962282
21344244 181 17846232038043164222
21521721 280 18340209691346312008
21618674 57 12751238112065547446
21623969 137 18261122880622114771
220451 1 18412548704241201009
22950370 63 18342457045541752433
23035841 295 18273497866227022239
23522609 53 18195837165356496553
23557571 272 16732979787046083837
23559900 14 18267294508377407745
239999 70 18201721760620334732
3004659 81 18343021095038235588
34797466 226 15068631469813069415
351380 3 18202842167116280207
4214541 1 18342455920503069937
4325135 7 17822010917135667943
4340502 62 18270952544923955192
465052 167 17989491831287837044
542803 24 18131633387470549641
8509985 295 9871749087678664614

>  <PUBCHEM_SHAPE_MULTIPOLES>  (1) 
374.29
16.1
1.87
0.89
8.2
1.01
-0.02
0.35
-1.46
-0.98
0.04
0.25
0.04
-0.87

>  <PUBCHEM_SHAPE_SELFOVERLAP>  (1) 
784.252

>  <PUBCHEM_SHAPE_VOLUME>  (1) 
212.1

>  <PUBCHEM_COORDINATE_TYPE>  (1) 
2
5
10

$$$$
