27225
     RDKit          3D

 21 22  0  0  0  0  0  0  0  0999 V2000
    2.2533   -0.1250   -1.0919 O   0  0  0  0  0  0  0  0  0  0  0  0
    3.6720    2.1385   -0.3252 O   0  0  0  0  0  0  0  0  0  0  0  0
    7.4123   -0.6154    0.9291 N   0  0  0  0  0  0  0  0  0  0  0  0
   -5.0462    0.0670    0.4905 C   0  0  0  0  0  0  0  0  0  0  0  0
   -6.1624   -0.5144    1.3686 C   0  0  0  0  0  0  0  0  0  0  0  0
   -5.4093   -0.0398   -0.9968 C   0  0  0  0  0  0  0  0  0  0  0  0
   -3.7180   -0.6327    0.7730 C   0  0  0  0  0  0  0  0  0  0  0  0
   -7.5122    0.1326    1.0664 C   0  0  0  0  0  0  0  0  0  0  0  0
   -6.7603    0.6065   -1.2949 C   0  0  0  0  0  0  0  0  0  0  0  0
   -7.8656    0.0323   -0.4142 C   0  0  0  0  0  0  0  0  0  0  0  0
   -2.5770    0.0157   -0.0077 C   0  0  0  0  0  0  0  0  0  0  0  0
   -1.2337   -0.6934    0.1863 C   0  0  0  0  0  0  0  0  0  0  0  0
   -0.0835   -0.0343   -0.5731 C   0  0  0  0  0  0  0  0  0  0  0  0
    1.2228   -0.7922   -0.3764 C   0  0  0  0  0  0  0  0  0  0  0  0
    3.5249   -0.2360   -0.5922 C   0  0  0  0  0  0  0  0  0  0  0  0
    4.2292    0.9006   -0.2108 C   0  0  0  0  0  0  0  0  0  0  0  0
    4.0983   -1.4974   -0.4734 C   0  0  0  0  0  0  0  0  0  0  0  0
    5.5228    0.7744    0.2959 C   0  0  0  0  0  0  0  0  0  0  0  0
    5.3920   -1.6236    0.0330 C   0  0  0  0  0  0  0  0  0  0  0  0
    6.1042   -0.4876    0.4177 C   0  0  0  0  0  0  0  0  0  0  0  0
    2.9365    2.6243    0.7961 C   0  0  0  0  0  0  0  0  0  0  0  0
  1 14  1  0
  1 15  1  0
  2 16  1  0
  2 21  1  0
  3 20  1  0
  4  5  1  0
  4  6  1  0
  4  7  1  0
  5  8  1  0
  6  9  1  0
  7 11  1  0
  8 10  1  0
  9 10  1  0
 11 12  1  0
 12 13  1  0
 13 14  1  0
 15 16  2  0
 15 17  1  0
 16 18  1  0
 17 19  2  0
 18 20  2  0
 19 20  1  0
M  END
>  <PUBCHEM_COMPOUND_CID>  (1) 
27225

>  <PUBCHEM_CONFORMER_RMSD>  (1) 
1

>  <PUBCHEM_CONFORMER_DIVERSEORDER>  (1) 
2
87
14
791
643
181
572
541
22
308
467
692
620
20
11
757
690
319
259
115
258
169
567
55
586
624
268
1
170
10
23
228
110
740
59
220
489
15
140
38
30
625
468
594
419
133
340
143
243
74
732
347
776
681
209
16
274
7
826
9
18
516
260
359
190
357
363
176
795
278
529
31
76
654
185
687
112
3
8
136
261
4
44
147
398
100
534
61
79
120
814
496
70
711
242
768
555
135
265
611
329
630
213
50
132
34
25
598
310
362
56
78
284
648
721
464
263
21
550
105
785
222
253
443
287
12
780
756
125
160
636
672
450
151
212
123
754
114
748
103
155
614
91
495
69
116
141

>  <PUBCHEM_MMFF94_PARTIAL_CHARGES>  (1) 
16
1 -0.36
14 0.28
15 0.08
16 0.08
17 -0.15
18 -0.15
19 -0.15
2 -0.36
20 0.1
21 0.28
3 -0.9
43 0.15
44 0.15
45 0.15
46 0.4
47 0.4

>  <PUBCHEM_EFFECTIVE_ROTOR_COUNT>  (1) 
9.2

>  <PUBCHEM_PHARMACOPHORE_FEATURES>  (1) 
7
1 1 acceptor
1 2 acceptor
1 3 cation
1 3 donor
4 7 11 12 13 hydrophobe
6 15 16 17 18 19 20 rings
6 4 5 6 8 9 10 rings

>  <PUBCHEM_HEAVY_ATOM_COUNT>  (1) 
21

>  <PUBCHEM_ATOM_DEF_STEREO_COUNT>  (1) 
0

>  <PUBCHEM_ATOM_UDEF_STEREO_COUNT>  (1) 
0

>  <PUBCHEM_BOND_DEF_STEREO_COUNT>  (1) 
0

>  <PUBCHEM_BOND_UDEF_STEREO_COUNT>  (1) 
0

>  <PUBCHEM_ISOTOPIC_ATOM_COUNT>  (1) 
0

>  <PUBCHEM_COMPONENT_COUNT>  (1) 
1

>  <PUBCHEM_CACTVS_TAUTO_COUNT>  (1) 
1

>  <PUBCHEM_CONFORMER_ID>  (1) 
00006A5900000002

>  <PUBCHEM_MMFF94_ENERGY>  (1) 
61.9831

>  <PUBCHEM_FEATURE_SELFOVERLAP>  (1) 
35.524

>  <PUBCHEM_SHAPE_FINGERPRINT>  (1) 
10162869 55 18201709687335507599
10688039 33 18334014969657882716
11089746 13 18412260644900251551
11315181 36 13984671360987386327
11524674 6 17240770597067912083
11724838 91 17704349978956107846
12166972 35 16009038293245587413
125118 31 18335707122263399877
12516196 113 12535628267527055331
12616971 3 18060418036450698637
13167372 99 18130796620414547705
13533116 47 18340489971931938258
13668630 136 14201401590230944291
13878862 14 18339908416037896324
13885169 127 16588021282352609143
14123256 10 16128655254390453063
14170010 4 18413387640424616272
14251764 18 17918275354722939504
14251764 46 17749390356587090839
14617045 38 7925913685905916752
15183329 4 17560807653855822521
15348495 7 18041849535652002019
15419008 47 17967808336686278797
15475509 35 16950828251504970744
15537594 2 12179842835596089936
19489759 90 16805325488123158181
20157964 124 18343585135829123190
21150785 3 12679460893698586227
22224240 67 17775563134994762390
23035841 295 13406796627555249699
23081809 10 16773803563212080431
3004659 81 15140685790843188783
34797466 226 13110964244809058699
351380 3 13767924645565322059
397830 11 17970357116555733683
4073 2 18041285481618231362
4325135 7 17346598569375650509
59755656 215 17313383392241725011

>  <PUBCHEM_SHAPE_MULTIPOLES>  (1) 
415.45
24.73
1.55
1.11
21.88
0.94
-0.03
-0.93
-3.05
-3.14
-0.16
1.42
0.02
0.56

>  <PUBCHEM_SHAPE_SELFOVERLAP>  (1) 
837.391

>  <PUBCHEM_SHAPE_VOLUME>  (1) 
243.2

>  <PUBCHEM_COORDINATE_TYPE>  (1) 
2
5
10

$$$$
