27239
     RDKit          3D

 20 21  0  0  0  0  0  0  0  0999 V2000
   -0.9963   -1.9912    0.5306 O   0  0  0  0  0  0  0  0  0  0  0  0
    2.0850   -1.4084   -0.9148 O   0  0  0  0  0  0  0  0  0  0  0  0
   -0.2646    0.5452    1.4009 O   0  0  0  0  0  0  0  0  0  0  0  0
   -4.1672    2.4080   -0.7065 N   0  0  0  0  0  0  0  0  0  0  0  0
    0.8710   -3.3352   -0.1809 C   0  0  0  0  0  0  0  0  0  0  0  0
   -0.4666   -2.7232   -0.5665 C   0  0  0  0  0  0  0  0  0  0  0  0
    1.8948   -2.2763    0.1940 C   0  0  0  0  0  0  0  0  0  0  0  0
   -1.7712   -0.9014    0.2303 C   0  0  0  0  0  0  0  0  0  0  0  0
   -1.3996    0.3647    0.6695 C   0  0  0  0  0  0  0  0  0  0  0  0
   -2.9307   -1.0794   -0.5168 C   0  0  0  0  0  0  0  0  0  0  0  0
   -2.1969    1.4660    0.3578 C   0  0  0  0  0  0  0  0  0  0  0  0
   -3.3611    1.2945   -0.3911 C   0  0  0  0  0  0  0  0  0  0  0  0
    2.4419   -0.1149   -0.6339 C   0  0  0  0  0  0  0  0  0  0  0  0
   -3.7281    0.0219   -0.8284 C   0  0  0  0  0  0  0  0  0  0  0  0
    3.1847    0.1609    0.5082 C   0  0  0  0  0  0  0  0  0  0  0  0
    2.0569    0.9070   -1.4938 C   0  0  0  0  0  0  0  0  0  0  0  0
    3.5479    1.4769    0.7941 C   0  0  0  0  0  0  0  0  0  0  0  0
    2.4202    2.2230   -1.2079 C   0  0  0  0  0  0  0  0  0  0  0  0
    3.1657    2.5081   -0.0639 C   0  0  0  0  0  0  0  0  0  0  0  0
   -0.3859    0.4540    2.8190 C   0  0  0  0  0  0  0  0  0  0  0  0
  1  6  1  0
  1  8  1  0
  2  7  1  0
  2 13  1  0
  3  9  1  0
  3 20  1  0
  4 12  1  0
  5  6  1  0
  5  7  1  0
  8  9  2  0
  8 10  1  0
  9 11  1  0
 10 14  2  0
 11 12  2  0
 12 14  1  0
 13 15  2  0
 13 16  1  0
 15 17  1  0
 16 18  2  0
 17 19  2  0
 18 19  1  0
M  END
>  <PUBCHEM_COMPOUND_CID>  (1) 
27239

>  <PUBCHEM_CONFORMER_RMSD>  (1) 
0.8

>  <PUBCHEM_CONFORMER_DIVERSEORDER>  (1) 
1
85
188
30
118
116
110
68
83
76
13
80
5
256
74
221
199
225
187
219
168
77
58
206
130
15
23
261
239
39
63
102
226
98
54
230
174
60
228
214
138
33
67
264
153
240
2
11
163
196
94
165
222
238
197
106
50
180
20
262
93
254
86
112
176
91
144
4
40
145
48
53
201
269
241
258
100
148
220
44
257
204
251
245
25
51
89
170
132
82
171
212
213
166
223
243
179
101
270
247
12
193
192
129
16
237
260
66
8
146
61
252
65
259
156
255
137
216
139
160
242
207
235
263
71
127
123
232
267
183
155
46
186
18
244
103
99
157
56
64
152
159
55
162
105
124
211
246
231
202
250
75
22
38
31
34
111
158
217
147
126
268
191
95
70
109
81
229
210
173
140
104
253
161
200
218
227
128
87
182
169
73
21
125
164
120
248
28
37
113
26
114
131
133
167
90
32
96
134
27
119
59
181
36
136
115
6
47
234
190
24
41
45
121
224
42
215
7
135
43
78
143
88
17
107
189
208
150
29
108
122
236
79
184
3
198
149
141
266
57
172
19
203
249
49
35
69
97
185
72
194
92
195
10
142
151
14
9
62
154
52
265
178
117
233
84
175
177
209
205

>  <PUBCHEM_MMFF94_PARTIAL_CHARGES>  (1) 
29
1 -0.36
10 -0.15
11 -0.15
12 0.1
13 0.08
14 -0.15
15 -0.15
16 -0.15
17 -0.15
18 -0.15
19 -0.15
2 -0.36
20 0.28
27 0.15
28 0.15
29 0.15
3 -0.36
30 0.15
31 0.15
32 0.15
33 0.15
34 0.15
35 0.4
36 0.4
4 -0.9
6 0.28
7 0.28
8 0.08
9 0.08

>  <PUBCHEM_EFFECTIVE_ROTOR_COUNT>  (1) 
7

>  <PUBCHEM_PHARMACOPHORE_FEATURES>  (1) 
7
1 1 acceptor
1 2 acceptor
1 3 acceptor
1 4 cation
1 4 donor
6 13 15 16 17 18 19 rings
6 8 9 10 11 12 14 rings

>  <PUBCHEM_HEAVY_ATOM_COUNT>  (1) 
20

>  <PUBCHEM_ATOM_DEF_STEREO_COUNT>  (1) 
0

>  <PUBCHEM_ATOM_UDEF_STEREO_COUNT>  (1) 
0

>  <PUBCHEM_BOND_DEF_STEREO_COUNT>  (1) 
0

>  <PUBCHEM_BOND_UDEF_STEREO_COUNT>  (1) 
0

>  <PUBCHEM_ISOTOPIC_ATOM_COUNT>  (1) 
0

>  <PUBCHEM_COMPONENT_COUNT>  (1) 
1

>  <PUBCHEM_CACTVS_TAUTO_COUNT>  (1) 
1

>  <PUBCHEM_CONFORMER_ID>  (1) 
00006A6700000001

>  <PUBCHEM_MMFF94_ENERGY>  (1) 
83.5556

>  <PUBCHEM_FEATURE_SELFOVERLAP>  (1) 
35.526

>  <PUBCHEM_SHAPE_FINGERPRINT>  (1) 
11140007 195 13985212233759133064
11370993 70 18411409648475055940
11640471 11 17897159341718135404
12173636 292 18337668732489911621
12592029 89 18335710437993320635
12633257 1 15503205847421891388
14468879 13 18187373167963517161
17980427 23 17981292678337477730
18186145 218 18271817782584894053
192875 21 18127688223648854938
19930381 70 18408322181554976093
20715895 44 18264755576782786573
22749437 52 18410009965804096316
23419403 2 16688460372285493114
23559900 14 18130783413590390322
238 59 18265351541764300362
469060 322 17398975141252144194
474 4 18334858264778649701
5262128 65 17344932731697100718
84936 182 18343017753142320264
9981440 41 18337664334306445610

>  <PUBCHEM_SHAPE_MULTIPOLES>  (1) 
389
6.65
3.4
1.53
1.65
1.9
0.98
-4.68
-1.57
-0.66
-0.68
-0.18
-0.49
0.04

>  <PUBCHEM_SHAPE_SELFOVERLAP>  (1) 
815.998

>  <PUBCHEM_SHAPE_VOLUME>  (1) 
220.3

>  <PUBCHEM_COORDINATE_TYPE>  (1) 
2
5
10

$$$$
