27244
     RDKit          3D

 17 18  0  0  0  0  0  0  0  0999 V2000
    1.0606   -0.4766    0.6464 O   0  0  0  0  0  0  0  0  0  0  0  0
    3.5619    1.6715    1.2200 O   0  0  0  0  0  0  0  0  0  0  0  0
    1.4046   -0.6971   -1.6330 O   0  0  0  0  0  0  0  0  0  0  0  0
    3.1944   -0.1087   -0.2667 N   0  0  0  0  0  0  0  0  0  0  0  0
   -1.2184    0.1773    0.1851 C   0  0  0  0  0  0  0  0  0  0  0  0
   -2.5642   -0.2131   -0.0134 C   0  0  0  0  0  0  0  0  0  0  0  0
   -0.2501   -0.8055    0.4474 C   0  0  0  0  0  0  0  0  0  0  0  0
   -0.8809    1.5387    0.1152 C   0  0  0  0  0  0  0  0  0  0  0  0
   -2.9019   -1.5746    0.0561 C   0  0  0  0  0  0  0  0  0  0  0  0
   -3.5327    0.7695   -0.2759 C   0  0  0  0  0  0  0  0  0  0  0  0
   -0.6034   -2.1537    0.5134 C   0  0  0  0  0  0  0  0  0  0  0  0
   -1.9268   -2.5375    0.3178 C   0  0  0  0  0  0  0  0  0  0  0  0
   -1.8561    2.5014   -0.1463 C   0  0  0  0  0  0  0  0  0  0  0  0
   -3.1796    2.1176   -0.3415 C   0  0  0  0  0  0  0  0  0  0  0  0
    1.8602   -0.4500   -0.5172 C   0  0  0  0  0  0  0  0  0  0  0  0
    3.6837    0.2672    1.0562 C   0  0  0  0  0  0  0  0  0  0  0  0
    4.1486   -0.0263   -1.3635 C   0  0  0  0  0  0  0  0  0  0  0  0
  1  7  1  0
  1 15  1  0
  2 16  1  0
  3 15  2  0
  4 15  1  0
  4 16  1  0
  4 17  1  0
  5  6  1  0
  5  7  2  0
  5  8  1  0
  6  9  2  0
  6 10  1  0
  7 11  1  0
  8 13  2  0
  9 12  1  0
 10 14  2  0
 11 12  2  0
 13 14  1  0
M  END
>  <PUBCHEM_COMPOUND_CID>  (1) 
27244

>  <PUBCHEM_CONFORMER_RMSD>  (1) 
0.6

>  <PUBCHEM_CONFORMER_DIVERSEORDER>  (1) 
1
57
31
38
15
29
56
21
59
12
51
49
60
3
61
14
27
13
37
30
2
40
62
36
52
23
53
20
58
8
47
6
34
28
39
42
24
44
48
43
18
32
46
19
22
11
41
35
45
17
16
25
9
33
26
54
63
50
7
5
55
4
10

>  <PUBCHEM_MMFF94_PARTIAL_CHARGES>  (1) 
23
1 -0.23
10 -0.15
11 -0.15
12 -0.15
13 -0.15
14 -0.15
15 0.78
16 0.58
17 0.3
18 0.15
19 0.15
2 -0.68
20 0.15
21 0.15
22 0.15
23 0.15
24 0.15
3 -0.57
30 0.4
4 -0.66
7 0.08
8 -0.15
9 -0.15

>  <PUBCHEM_EFFECTIVE_ROTOR_COUNT>  (1) 
4

>  <PUBCHEM_PHARMACOPHORE_FEATURES>  (1) 
5
1 2 acceptor
1 2 donor
1 3 acceptor
6 5 6 7 9 11 12 rings
6 5 6 8 10 13 14 rings

>  <PUBCHEM_HEAVY_ATOM_COUNT>  (1) 
17

>  <PUBCHEM_ATOM_DEF_STEREO_COUNT>  (1) 
0

>  <PUBCHEM_ATOM_UDEF_STEREO_COUNT>  (1) 
0

>  <PUBCHEM_BOND_DEF_STEREO_COUNT>  (1) 
0

>  <PUBCHEM_BOND_UDEF_STEREO_COUNT>  (1) 
0

>  <PUBCHEM_ISOTOPIC_ATOM_COUNT>  (1) 
0

>  <PUBCHEM_COMPONENT_COUNT>  (1) 
1

>  <PUBCHEM_CACTVS_TAUTO_COUNT>  (1) 
1

>  <PUBCHEM_CONFORMER_ID>  (1) 
00006A6C00000001

>  <PUBCHEM_MMFF94_ENERGY>  (1) 
50.6903

>  <PUBCHEM_FEATURE_SELFOVERLAP>  (1) 
25.398

>  <PUBCHEM_SHAPE_FINGERPRINT>  (1) 
10608611 8 18342736334269079904
10646746 165 18410289207925242640
11132069 177 18412824711318459473
11640471 11 17458642115459991148
11725454 13 17414677022211054970
12173636 292 18336820884444477381
12236239 1 17385442133188576778
12500047 106 18409731729628495566
13140716 1 18191875732888637995
14614273 12 18042117666328932245
14790565 3 18338245873464431425
15219456 202 18059857298336784634
15669948 3 18334295383249643674
15775835 57 17968383338000745188
16945 1 18335707147927247155
1741750 31 18338233748253926369
18186145 218 18059580152671251754
200 152 15985106271542050942
20510252 161 18412263952025056843
20645477 56 18410578357655063793
20645477 70 16988850454061509390
20905425 154 17905339772215870973
21524375 3 18116995468641734923
22802520 49 18128833944782477855
23402539 116 18339632421497074639
23557571 272 18342188802900130638
23559900 14 18341334410200230670
2748010 2 18121490513279742651
6049 1 18130801087348918066
7364860 26 17762332514135682515
7615 1 17531246214237809142
77492 1 17313100873698503722
81228 2 18336846267627376147
84936 182 17691678987751345817
9709674 26 18271523182319930612

>  <PUBCHEM_SHAPE_MULTIPOLES>  (1) 
327.26
6.9
2.53
1.06
6.1
0.04
0.16
-2.15
0.5
-2.53
-0.29
1.21
-0.05
0.73

>  <PUBCHEM_SHAPE_SELFOVERLAP>  (1) 
700.669

>  <PUBCHEM_SHAPE_VOLUME>  (1) 
180.6

>  <PUBCHEM_COORDINATE_TYPE>  (1) 
2
5
10

$$$$
