27241
     RDKit          3D

 25 26  0  0  1  0  0  0  0  0999 V2000
    2.6438   -1.1596    0.8893 O   0  0  0  0  0  0  0  0  0  0  0  0
   -2.0197   -1.3997   -1.1901 O   0  0  0  0  0  0  0  0  0  0  0  0
   -1.7363   -0.2893    1.3462 O   0  0  0  0  0  0  0  0  0  0  0  0
    3.9741   -3.0301    0.6282 O   0  0  0  0  0  0  0  0  0  0  0  0
   -6.1763    1.5428    1.0679 N   0  0  0  0  0  0  0  0  0  0  0  0
    2.2717   -1.1482   -1.4974 C   0  0  0  0  0  0  0  0  0  0  0  0
    0.7955   -0.7661   -1.3624 C   0  0  0  0  0  0  0  0  0  0  0  0
    3.1391   -0.6273   -0.3409 C   0  0  0  0  0  0  0  0  0  0  0  0
   -0.0292   -1.3271   -2.5196 C   0  0  0  0  0  0  0  0  0  0  0  0
    3.1602    0.8787   -0.2209 C   0  0  0  0  0  0  0  0  0  0  0  0
   -1.4915   -0.9170   -2.4176 C   0  0  0  0  0  0  0  0  0  0  0  0
    2.2140    1.5289    0.5716 C   0  0  0  0  0  0  0  0  0  0  0  0
    4.1256    1.6192   -0.9032 C   0  0  0  0  0  0  0  0  0  0  0  0
    2.2336    2.9193    0.6819 C   0  0  0  0  0  0  0  0  0  0  0  0
    4.1451    3.0096   -0.7928 C   0  0  0  0  0  0  0  0  0  0  0  0
   -3.0372   -0.6743   -0.6266 C   0  0  0  0  0  0  0  0  0  0  0  0
    3.1510   -2.3733    1.2513 C   0  0  0  0  0  0  0  0  0  0  0  0
    3.1991    3.6595   -0.0004 C   0  0  0  0  0  0  0  0  0  0  0  0
   -2.8917   -0.1188    0.6448 C   0  0  0  0  0  0  0  0  0  0  0  0
   -4.2250   -0.4933   -1.3350 C   0  0  0  0  0  0  0  0  0  0  0  0
    2.5456   -2.8037    2.5531 C   0  0  0  0  0  0  0  0  0  0  0  0
   -3.9342    0.6175    1.2075 C   0  0  0  0  0  0  0  0  0  0  0  0
   -5.2673    0.2431   -0.7723 C   0  0  0  0  0  0  0  0  0  0  0  0
   -5.1220    0.7985    0.4990 C   0  0  0  0  0  0  0  0  0  0  0  0
   -1.6681    0.3105    2.6384 C   0  0  0  0  0  0  0  0  0  0  0  0
  1  8  1  0
  1 17  1  0
  2 11  1  0
  2 16  1  0
  3 19  1  0
  3 25  1  0
  4 17  2  0
  5 24  1  0
  6  7  1  0
  6  8  1  0
  7  9  1  0
  8 10  1  0
  9 11  1  0
 10 12  2  0
 10 13  1  0
 12 14  1  0
 13 15  2  0
 14 18  2  0
 15 18  1  0
 16 19  2  0
 16 20  1  0
 17 21  1  0
 19 22  1  0
 20 23  2  0
 22 24  2  0
 23 24  1  0
M  END
>  <PUBCHEM_COMPOUND_CID>  (1) 
27241

>  <PUBCHEM_CONFORMER_RMSD>  (1) 
1

>  <PUBCHEM_CONFORMER_DIVERSEORDER>  (1) 
2
4
231
266
202
271
268
352
30
64
6
357
337
354
98
51
17
188
187
147
50
191
172
216
284
332
249
203
46
80
8
199
252
254
285
130
65
294
144
319
57
200
246
364
31
293
196
256
124
66
69
89
101
318
269
38
362
361
73
212
359
173
248
239
112
55
247
274
176
32
218
63
81
29
245
281
272
183
313
358
291
190
346
365
355
36
333
344
174
253
111
180
250
236
258
5
142
301
185
93
340
309
189
21
349
240
287
228
169
113
119
209
206
141
152
263
182
67
259
16
19
125
62
178
75
237
299
226
225
92
45
18
37
10
26
126
61
136
164
296
165
11
295
348
59
87
3
149
243
321
48
308
131
297
54
148
233
41
181
78
76
118
110
316
223
315
145
356
47
360
298
151
262
108
267
135
122
350
276
22
129
115
255
331
251
53
302
353
323
70
79
194
91
314
345
229
328
334
94
326
154
317
24
116
33
105
303
102
139
60
155
107
97
25
347
366
68
83
278
279
221
307
39
1
270
320
351
120
84
288
363
15
261
197
58
56
211
71
257
40
201
163
234
171
192
300
117
167
325
90
198
138
123
311
289
82
121
104
175
159
143
28
77
282
330
7
275
52
327
335
213
43
23
88
9
341
219
306
96
305
34
283
137
339
140
35
128
244
222
146
260
336
170
310
133
49
338
114
215
106
264
109
280
322
72
14
184
162
273
217
292
12
290
13
220
210
103
158
329
214
44
86
186
132
85
207
168
230
235
95
20
242
177
134
179
195
161
27
286
342
265
277
99
241
343
74
238
312
150
227
324
304
193
156
205
232
153
224
100
208
42
160
204
127
157
166

>  <PUBCHEM_MMFF94_PARTIAL_CHARGES>  (1) 
32
1 -0.43
10 -0.14
11 0.28
12 -0.15
13 -0.15
14 -0.15
15 -0.15
16 0.08
17 0.66
18 -0.15
19 0.08
2 -0.36
20 -0.15
21 0.06
22 -0.15
23 -0.15
24 0.1
25 0.28
3 -0.36
35 0.15
36 0.15
37 0.15
38 0.15
39 0.15
4 -0.57
40 0.15
44 0.15
45 0.15
46 0.4
47 0.4
5 -0.9
8 0.42

>  <PUBCHEM_EFFECTIVE_ROTOR_COUNT>  (1) 
10

>  <PUBCHEM_PHARMACOPHORE_FEATURES>  (1) 
7
1 2 acceptor
1 3 acceptor
1 4 acceptor
1 5 cation
1 5 donor
6 10 12 13 14 15 18 rings
6 16 19 20 22 23 24 rings

>  <PUBCHEM_HEAVY_ATOM_COUNT>  (1) 
25

>  <PUBCHEM_ATOM_DEF_STEREO_COUNT>  (1) 
0

>  <PUBCHEM_ATOM_UDEF_STEREO_COUNT>  (1) 
1

>  <PUBCHEM_BOND_DEF_STEREO_COUNT>  (1) 
0

>  <PUBCHEM_BOND_UDEF_STEREO_COUNT>  (1) 
0

>  <PUBCHEM_ISOTOPIC_ATOM_COUNT>  (1) 
0

>  <PUBCHEM_COMPONENT_COUNT>  (1) 
1

>  <PUBCHEM_CACTVS_TAUTO_COUNT>  (1) 
1

>  <PUBCHEM_CONFORMER_ID>  (1) 
00006A6900000002

>  <PUBCHEM_MMFF94_ENERGY>  (1) 
82.5738

>  <PUBCHEM_FEATURE_SELFOVERLAP>  (1) 
35.526

>  <PUBCHEM_SHAPE_FINGERPRINT>  (1) 
10498660 4 16917074394591614101
10670039 82 17060073543884668036
11112241 14 17895471557099743621
11828532 37 15339109174209105367
12403259 327 18261965063241856999
12549972 3 16881284067142144526
12633257 1 18340764841169703231
12788726 201 17845666854221263929
13402501 40 16153994508600887930
13533116 47 17894915075335311075
13583140 156 18335142041953068763
13726171 33 17559408048478210289
13878862 14 18190715614761467189
13965767 371 17987778788056259284
14117953 113 17702393836228219629
14251764 38 18268712710684103829
15142526 21 18048031063017054148
15297060 5 16558485161160935335
16752209 62 16702311169352566929
17868525 174 18045484340462521564
18681886 176 17489587904821108212
19734167 9 17387138778325000994
20511986 3 18130776893366207872
20715895 44 17772757066116216161
21033648 29 17095237008763591749
21864079 5 17774155850241718892
22122407 14 18264502685114274177
23559900 14 17131280043288042631
3004659 81 17989488494061311505
38570 142 18266469887483488284
4409770 3 15608252762652454975
474 4 17917440795802276127
474144 1 18201997733274525288
513202 73 17620758280774773278
633830 44 18266741483908616044
7288768 16 17760354896739859276

>  <PUBCHEM_SHAPE_MULTIPOLES>  (1) 
486.03
11.47
3.46
2.4
12.7
1.06
-0.22
4.99
-1.09
-6.67
-1.09
0.54
-1.53
-2.66

>  <PUBCHEM_SHAPE_SELFOVERLAP>  (1) 
1009.372

>  <PUBCHEM_SHAPE_VOLUME>  (1) 
276.6

>  <PUBCHEM_COORDINATE_TYPE>  (1) 
2
5
10

$$$$
