27240
     RDKit          3D

 19 20  0  0  1  0  0  0  0  0999 V2000
    0.1285   -0.9059   -0.2957 O   0  0  0  0  0  0  0  0  0  0  0  0
   -2.0569   -2.6867   -0.3386 O   0  0  0  0  0  0  0  0  0  0  0  0
    2.7035   -1.9487   -0.2286 O   0  0  0  0  0  0  0  0  0  0  0  0
    4.5031    2.4898    0.2256 N   0  0  0  0  0  0  0  0  0  0  0  0
   -1.9420   -1.6840    0.6788 C   0  0  0  0  0  0  0  0  0  0  0  0
   -0.4507   -1.3927    0.9066 C   0  0  0  0  0  0  0  0  0  0  0  0
   -2.7256   -0.4786    0.2822 C   0  0  0  0  0  0  0  0  0  0  0  0
    1.2127   -0.0764   -0.1689 C   0  0  0  0  0  0  0  0  0  0  0  0
   -3.3163    0.3220    1.2598 C   0  0  0  0  0  0  0  0  0  0  0  0
   -2.8681   -0.1520   -1.0663 C   0  0  0  0  0  0  0  0  0  0  0  0
    2.4981   -0.6052   -0.1350 C   0  0  0  0  0  0  0  0  0  0  0  0
    1.0084    1.2958   -0.0732 C   0  0  0  0  0  0  0  0  0  0  0  0
    3.5932    0.2488   -0.0039 C   0  0  0  0  0  0  0  0  0  0  0  0
   -4.0495    1.4492    0.8889 C   0  0  0  0  0  0  0  0  0  0  0  0
   -3.6011    0.9752   -1.4373 C   0  0  0  0  0  0  0  0  0  0  0  0
    3.3959    1.6262    0.0925 C   0  0  0  0  0  0  0  0  0  0  0  0
    2.1036    2.1498    0.0580 C   0  0  0  0  0  0  0  0  0  0  0  0
   -4.1917    1.7758   -0.4597 C   0  0  0  0  0  0  0  0  0  0  0  0
    4.0550   -2.4023   -0.1850 C   0  0  0  0  0  0  0  0  0  0  0  0
  1  6  1  0
  1  8  1  0
  2  5  1  0
  3 11  1  0
  3 19  1  0
  4 16  1  0
  5  6  1  0
  5  7  1  0
  7  9  2  0
  7 10  1  0
  8 11  2  0
  8 12  1  0
  9 14  1  0
 10 15  2  0
 11 13  1  0
 12 17  2  0
 13 16  2  0
 14 18  2  0
 15 18  1  0
 16 17  1  0
M  END
>  <PUBCHEM_COMPOUND_CID>  (1) 
27240

>  <PUBCHEM_CONFORMER_RMSD>  (1) 
0.6

>  <PUBCHEM_CONFORMER_DIVERSEORDER>  (1) 
149
119
23
162
2
124
30
110
84
89
115
154
13
95
106
148
26
130
153
120
71
48
103
127
77
98
143
108
44
137
99
100
135
79
53
142
15
39
54
25
129
161
69
86
21
52
56
63
65
73
94
121
58
4
144
20
81
128
147
43
5
164
70
14
28
163
160
134
141
101
6
61
38
74
24
165
22
45
140
32
80
104
83
114
111
36
145
151
82
118
62
16
109
156
158
57
10
3
93
136
8
91
107
97
19
138
11
41
7
150
102
146
88
96
68
113
132
42
35
122
1
131
29
159
49
75
105
78
37
87
60
90
18
40
72
59
51
27
117
33
46
112
31
50
12
133
67
139
85
116
92
126
123
66
47
152
17
64
34
9
125
55
155
157
76

>  <PUBCHEM_MMFF94_PARTIAL_CHARGES>  (1) 
30
1 -0.36
10 -0.15
11 0.08
12 -0.15
13 -0.15
14 -0.15
15 -0.15
16 0.1
17 -0.15
18 -0.15
19 0.28
2 -0.68
23 0.15
24 0.15
25 0.15
26 0.15
27 0.15
28 0.15
29 0.4
3 -0.36
30 0.15
31 0.15
32 0.4
33 0.4
4 -0.9
5 0.42
6 0.28
7 -0.14
8 0.08
9 -0.15

>  <PUBCHEM_EFFECTIVE_ROTOR_COUNT>  (1) 
5

>  <PUBCHEM_PHARMACOPHORE_FEATURES>  (1) 
8
1 1 acceptor
1 2 acceptor
1 2 donor
1 3 acceptor
1 4 cation
1 4 donor
6 7 9 10 14 15 18 rings
6 8 11 12 13 16 17 rings

>  <PUBCHEM_HEAVY_ATOM_COUNT>  (1) 
19

>  <PUBCHEM_ATOM_DEF_STEREO_COUNT>  (1) 
0

>  <PUBCHEM_ATOM_UDEF_STEREO_COUNT>  (1) 
1

>  <PUBCHEM_BOND_DEF_STEREO_COUNT>  (1) 
0

>  <PUBCHEM_BOND_UDEF_STEREO_COUNT>  (1) 
0

>  <PUBCHEM_ISOTOPIC_ATOM_COUNT>  (1) 
0

>  <PUBCHEM_COMPONENT_COUNT>  (1) 
1

>  <PUBCHEM_CACTVS_TAUTO_COUNT>  (1) 
1

>  <PUBCHEM_CONFORMER_ID>  (1) 
00006A6800000095

>  <PUBCHEM_MMFF94_ENERGY>  (1) 
79.295

>  <PUBCHEM_FEATURE_SELFOVERLAP>  (1) 
40.603

>  <PUBCHEM_SHAPE_FINGERPRINT>  (1) 
10608611 8 18336264642839464993
10922523 26 18187369843416041775
1100329 8 16387604200737116043
11405975 8 18335420158128327642
116883 192 18055078666494857934
12403259 415 18113618937711656205
12553582 1 18194688055931442594
12633257 1 18334847295427076394
12760667 363 17978228254143865438
13134695 92 17988353780955657968
13140716 1 18335422357051460386
13675066 3 18040443182580365858
14178342 30 17750240385985762698
15196674 1 18410294696724804209
15442244 35 18340491075664219178
17492 89 18340487858491998231
18186145 218 18409735032057256979
18219364 16 18260268530043504361
192875 21 17917146087667316633
19433438 15 17489304144747495429
20645477 56 18261112993374874479
20645477 70 18130797758765374102
20832881 197 17971756571477914770
21033648 29 17676763176539226821
21065199 12 18262245511578628187
21421861 104 17823125740997139914
21524375 3 18261396599061994211
22182937 141 18409737287495284465
23558518 356 18115874164382255675
23559900 14 18342174441352562010
27216 239 18114184168282201161
3524813 1 17969217833330570477
474 4 18271246002579541299
5104073 3 18335423469226067739
59027123 10 18201147772432138397
633830 44 18337668620651885111
6438718 38 16414101619592603273
74978 22 18411700989002428691
81228 2 17606129626263808035
9709674 26 18336548312597640179
9971528 1 18058161735817540610
9981440 41 17910655893898665608

>  <PUBCHEM_SHAPE_MULTIPOLES>  (1) 
368.42
9.27
2.81
1.01
0.62
0.38
0.04
-3.31
0.26
1.99
-0.04
-1.16
-0.06
0.55

>  <PUBCHEM_SHAPE_SELFOVERLAP>  (1) 
781.438

>  <PUBCHEM_SHAPE_VOLUME>  (1) 
205.8

>  <PUBCHEM_COORDINATE_TYPE>  (1) 
2
5
10

$$$$
