27255
     RDKit          3D

 15 16  0  0  1  0  0  0  0  0999 V2000
    0.7249   -0.3160    0.2118 C   0  0  0  0  0  0  0  0  0  0  0  0
    0.9357    1.1563   -0.2641 C   0  0  0  0  0  0  0  0  0  0  0  0
    1.8494   -1.1914   -0.4507 C   0  0  0  0  0  0  0  0  0  0  0  0
   -0.6795   -0.7752   -0.2761 C   0  0  0  0  0  0  0  0  0  0  0  0
   -1.8226    0.1642    0.1530 C   0  0  0  0  0  0  0  0  0  0  0  0
   -0.1764    2.1022    0.2072 C   0  0  0  0  0  0  0  0  0  0  0  0
    2.3231    1.6947    0.1054 C   0  0  0  0  0  0  0  0  0  0  0  0
   -1.5455    1.6136   -0.2605 C   0  0  0  0  0  0  0  0  0  0  0  0
    3.2623   -0.6517   -0.1447 C   0  0  0  0  0  0  0  0  0  0  0  0
    3.4205    0.8238   -0.4978 C   0  0  0  0  0  0  0  0  0  0  0  0
    0.7769   -0.4429    1.7562 C   0  0  0  0  0  0  0  0  0  0  0  0
   -3.1526   -0.3122   -0.4335 C   0  0  0  0  0  0  0  0  0  0  0  0
    1.7936   -2.6816   -0.0919 C   0  0  0  0  0  0  0  0  0  0  0  0
   -3.4142   -1.7665   -0.0523 C   0  0  0  0  0  0  0  0  0  0  0  0
   -4.2956    0.5826    0.0378 C   0  0  0  0  0  0  0  0  0  0  0  0
  1  2  1  0
  1  3  1  0
  1  4  1  0
  1 11  1  0
  2  6  1  0
  2  7  1  0
  3  9  1  0
  3 13  1  0
  4  5  1  0
  5  8  1  0
  5 12  1  0
  6  8  1  0
  7 10  1  0
  9 10  1  0
 12 14  1  0
 12 15  1  0
M  END
>  <PUBCHEM_COMPOUND_CID>  (1) 
27255

>  <PUBCHEM_CONFORMER_RMSD>  (1) 
0.6

>  <PUBCHEM_CONFORMER_DIVERSEORDER>  (1) 
1
30
18
37
29
21
20
26
19
12
10
15
8
32
35
6
9
25
7
16
38
2
17
3
4
13
31
22
5
14
24
27
33
23
36
28
11
34

>  <PUBCHEM_MMFF94_PARTIAL_CHARGES>  (1) 
0

>  <PUBCHEM_EFFECTIVE_ROTOR_COUNT>  (1) 
2.6

>  <PUBCHEM_PHARMACOPHORE_FEATURES>  (1) 
3
3 12 14 15 hydrophobe
6 1 2 3 7 9 10 rings
6 1 2 4 5 6 8 rings

>  <PUBCHEM_HEAVY_ATOM_COUNT>  (1) 
15

>  <PUBCHEM_ATOM_DEF_STEREO_COUNT>  (1) 
0

>  <PUBCHEM_ATOM_UDEF_STEREO_COUNT>  (1) 
4

>  <PUBCHEM_BOND_DEF_STEREO_COUNT>  (1) 
0

>  <PUBCHEM_BOND_UDEF_STEREO_COUNT>  (1) 
0

>  <PUBCHEM_ISOTOPIC_ATOM_COUNT>  (1) 
0

>  <PUBCHEM_COMPONENT_COUNT>  (1) 
1

>  <PUBCHEM_CACTVS_TAUTO_COUNT>  (1) 
1

>  <PUBCHEM_CONFORMER_ID>  (1) 
00006A7700000001

>  <PUBCHEM_MMFF94_ENERGY>  (1) 
38.8931

>  <PUBCHEM_FEATURE_SELFOVERLAP>  (1) 
15.238

>  <PUBCHEM_SHAPE_FINGERPRINT>  (1) 
10967382 1 18411138013199835543
10980938 120 18410009965767010453
11132069 177 18410004472583207073
11471102 20 18410853261141998661
116883 192 18054793875270586431
12032990 46 18411986900606119879
12932764 1 17531236237134346791
13221675 6 18411417323565679125
13296908 3 18335701667675480587
13380535 76 18334858359210154778
14251717 144 18339921618545213671
14576447 43 18200018690118462623
15196674 1 18411138073281788036
15375462 6 18410856538165037878
15442244 35 18124317094985397931
15536298 74 18343584057539046172
15852999 172 15213019345035507912
16945 1 18410580561057786568
18186145 218 17821443564793399231
19107657 46 18411419544222228215
19422 9 18341618143839037517
200 152 18130785659499421197
20201158 50 18408324380092570823
20559304 39 18339077082309889658
20645477 70 18342455915975929543
21267235 1 18411710867527371399
21501502 16 18268153050115701752
21524375 3 17682111424118666548
221490 88 18409456898702642406
2334 1 17906735056887330740
23402539 116 18335132116214887622
23402655 69 18410575072010604237
23463225 33 18340769251947648071
23552423 10 18263927639825493062
23557571 272 17986951847911362338
23559900 14 18339636716627959058
2748010 2 17904771320593680048
2871803 45 18410009935755097607
3312278 4 18412267254955133785
34934 24 18411131433610553493
5104073 3 18411419535489655091
528886 8 18340766043796994866
7364860 26 18341328912098629706
7832392 63 18196095430382160864
8809292 202 18260834808153604955

>  <PUBCHEM_SHAPE_MULTIPOLES>  (1) 
308.69
6.13
2.31
0.89
3.96
0.45
0.34
0.61
-0.81
-0.65
-0.1
-0.2
0.08
-0.04

>  <PUBCHEM_SHAPE_SELFOVERLAP>  (1) 
618.699

>  <PUBCHEM_SHAPE_VOLUME>  (1) 
182.1

>  <PUBCHEM_COORDINATE_TYPE>  (1) 
2
5
10

$$$$
