27252
     RDKit          3D

 15 15  0  0  0  0  0  0  0  0999 V2000
   -2.6404    0.6692   -1.3448 O   0  0  0  0  0  0  0  0  0  0  0  0
    2.9899    0.0302    0.2245 N   0  0  0  0  0  0  0  0  0  0  0  0
   -1.9883    1.3450    0.7782 N   0  0  0  0  0  0  0  0  0  0  0  0
    4.3132   -1.8923    0.2708 C   0  0  0  0  0  0  0  0  0  0  0  0
    2.8666   -2.2903   -0.0065 C   0  0  0  0  0  0  0  0  0  0  0  0
    4.3718   -0.3955    0.0048 C   0  0  0  0  0  0  0  0  0  0  0  0
    2.1695   -0.9999   -0.4119 C   0  0  0  0  0  0  0  0  0  0  0  0
    2.7263    1.3585   -0.3086 C   0  0  0  0  0  0  0  0  0  0  0  0
    1.3341    1.7510   -0.0705 C   0  0  0  0  0  0  0  0  0  0  0  0
   -3.4116   -0.5829    0.5785 C   0  0  0  0  0  0  0  0  0  0  0  0
   -4.1502   -1.4933   -0.3980 C   0  0  0  0  0  0  0  0  0  0  0  0
    0.1938    2.0756    0.1224 C   0  0  0  0  0  0  0  0  0  0  0  0
   -1.1934    2.4739    0.3562 C   0  0  0  0  0  0  0  0  0  0  0  0
   -2.6531    0.5282   -0.1249 C   0  0  0  0  0  0  0  0  0  0  0  0
   -4.9283   -2.5773    0.3297 C   0  0  0  0  0  0  0  0  0  0  0  0
  1 14  2  0
  2  6  1  0
  2  7  1  0
  2  8  1  0
  3 13  1  0
  3 14  1  0
  4  5  1  0
  4  6  1  0
  5  7  1  0
  8  9  1  0
  9 12  3  0
 10 11  1  0
 10 14  1  0
 11 15  1  0
 12 13  1  0
M  END
>  <PUBCHEM_COMPOUND_CID>  (1) 
27252

>  <PUBCHEM_CONFORMER_RMSD>  (1) 
0.8

>  <PUBCHEM_CONFORMER_DIVERSEORDER>  (1) 
1
31
21
14
22
34
10
16
29
2
9
30
17
6
18
24
33
5
32
19
28
26
8
7
25
13
3
27
11
15
20
4
23
12

>  <PUBCHEM_MMFF94_PARTIAL_CHARGES>  (1) 
12
1 -0.57
10 0.06
12 -0.2
13 0.5
14 0.57
2 -0.81
3 -0.73
32 0.37
6 0.27
7 0.27
8 0.47
9 -0.2

>  <PUBCHEM_EFFECTIVE_ROTOR_COUNT>  (1) 
6

>  <PUBCHEM_PHARMACOPHORE_FEATURES>  (1) 
5
1 1 acceptor
1 15 hydrophobe
1 2 cation
1 3 donor
5 2 4 5 6 7 rings

>  <PUBCHEM_HEAVY_ATOM_COUNT>  (1) 
15

>  <PUBCHEM_ATOM_DEF_STEREO_COUNT>  (1) 
0

>  <PUBCHEM_ATOM_UDEF_STEREO_COUNT>  (1) 
0

>  <PUBCHEM_BOND_DEF_STEREO_COUNT>  (1) 
0

>  <PUBCHEM_BOND_UDEF_STEREO_COUNT>  (1) 
0

>  <PUBCHEM_ISOTOPIC_ATOM_COUNT>  (1) 
0

>  <PUBCHEM_COMPONENT_COUNT>  (1) 
1

>  <PUBCHEM_CACTVS_TAUTO_COUNT>  (1) 
2

>  <PUBCHEM_CONFORMER_ID>  (1) 
00006A7400000001

>  <PUBCHEM_MMFF94_ENERGY>  (1) 
9.2948

>  <PUBCHEM_FEATURE_SELFOVERLAP>  (1) 
25.371

>  <PUBCHEM_SHAPE_FINGERPRINT>  (1) 
12596599 1 18058187049885207075
12824470 246 18272941535177225473
13911882 115 17917434168984502758
1420 369 18413392050717894731
14251705 54 18411982459636517471
14251710 61 18411419509614335873
14251731 5 18409450301743411767
14576447 43 18408891758721718420
15342168 16 9006791877773533259
15352361 1 18410573998279335995
15375462 189 17916865840998699453
18186145 218 11098150911631144148
19141452 34 18194689172269401433
20261772 1 17917988399621387934
20281475 54 18411143536596830657
20291156 8 18412825785054878653
20403669 9 18412830187707983399
20621476 21 17630903607728880830
20621476 51 17757535375063893818
20621476 91 18190159257999245130
20645477 70 18116990199033575105
21054139 6 18261683606236007806
21713013 43 17968087629855713829
21864079 5 9151167645198391584
221490 88 18411699855626707304
23403322 49 18408602561177414633
23500284 5 18271813406203558897
3421961 26 18268992166819839961
4283 87 18197207255897653903
5283384 97 18127117788048017799
556388 4 18408882970744143523
88748 71 18335143081171786667

>  <PUBCHEM_SHAPE_MULTIPOLES>  (1) 
292.86
10.17
3.16
0.8
3.41
0.17
-0.09
9.01
0.28
0.68
0.29
0.4
-0.07
-0.09

>  <PUBCHEM_SHAPE_SELFOVERLAP>  (1) 
566.803

>  <PUBCHEM_SHAPE_VOLUME>  (1) 
178.7

>  <PUBCHEM_COORDINATE_TYPE>  (1) 
2
5
10

$$$$
