27253
     RDKit          3D

 10 10  0  0  0  0  0  0  0  0999 V2000
   -0.1901    1.2427   -0.6317 C   0  0  0  0  0  0  0  0  0  0  0  0
    1.0748    1.2930    0.2326 C   0  0  0  0  0  0  0  0  0  0  0  0
   -0.8300   -1.0317    0.4195 C   0  0  0  0  0  0  0  0  0  0  0  0
   -1.2549    0.3132   -0.1099 C   0  0  0  0  0  0  0  0  0  0  0  0
    0.2703   -1.7040   -0.4054 C   0  0  0  0  0  0  0  0  0  0  0  0
    2.0134    0.1117    0.1023 C   0  0  0  0  0  0  0  0  0  0  0  0
    1.6542   -1.1461   -0.2172 C   0  0  0  0  0  0  0  0  0  0  0  0
   -2.5488    0.6731   -0.1169 C   0  0  0  0  0  0  0  0  0  0  0  0
    3.4641    0.4407    0.3456 C   0  0  0  0  0  0  0  0  0  0  0  0
   -3.6530   -0.1927    0.3811 C   0  0  0  0  0  0  0  0  0  0  0  0
  1  2  1  0
  1  4  1  0
  2  6  1  0
  3  4  1  0
  3  5  1  0
  4  8  2  0
  5  7  1  0
  6  7  2  0
  6  9  1  0
  8 10  1  0
M  END
>  <PUBCHEM_COMPOUND_CID>  (1) 
27253

>  <PUBCHEM_CONFORMER_RMSD>  (1) 
0.4

>  <PUBCHEM_CONFORMER_DIVERSEORDER>  (1) 
1
2

>  <PUBCHEM_MMFF94_PARTIAL_CHARGES>  (1) 
12
1 0.14
10 0.14
19 0.15
2 0.14
20 0.15
3 0.14
4 -0.28
5 0.14
6 -0.28
7 -0.29
8 -0.29
9 0.14

>  <PUBCHEM_EFFECTIVE_ROTOR_COUNT>  (1) 
0.8

>  <PUBCHEM_PHARMACOPHORE_FEATURES>  (1) 
2
1 10 hydrophobe
7 1 2 3 4 5 6 7 rings

>  <PUBCHEM_HEAVY_ATOM_COUNT>  (1) 
10

>  <PUBCHEM_ATOM_DEF_STEREO_COUNT>  (1) 
0

>  <PUBCHEM_ATOM_UDEF_STEREO_COUNT>  (1) 
0

>  <PUBCHEM_BOND_DEF_STEREO_COUNT>  (1) 
0

>  <PUBCHEM_BOND_UDEF_STEREO_COUNT>  (1) 
1

>  <PUBCHEM_ISOTOPIC_ATOM_COUNT>  (1) 
0

>  <PUBCHEM_COMPONENT_COUNT>  (1) 
1

>  <PUBCHEM_CACTVS_TAUTO_COUNT>  (1) 
1

>  <PUBCHEM_CONFORMER_ID>  (1) 
00006A7500000001

>  <PUBCHEM_MMFF94_ENERGY>  (1) 
12.1832

>  <PUBCHEM_FEATURE_SELFOVERLAP>  (1) 
10.148

>  <PUBCHEM_SHAPE_FINGERPRINT>  (1) 
10219947 1 18409168809428420397
10857977 72 18113902654318131001
12032990 46 18337961099250600342
12932764 1 16845279515240030321
13380535 76 18411417336424622866
14251717 144 18412821396015111727
14325111 11 18410855443148908601
15775835 57 18202282523860421734
16945 1 18411133645165237533
193761 8 17689998259589244820
20201158 50 18408041797209437763
20588541 1 18410015433445111426
20645477 70 18198335170375845015
21040471 1 18411419548506431462
23235685 24 18412820296186979136
23402655 69 18195790905101976309
2748010 2 18193834830116767140
29004967 10 18409732820175460361
5084963 1 18041000605016359093
528886 8 18413382146454627986
53812653 166 18343298201832649016

>  <PUBCHEM_SHAPE_MULTIPOLES>  (1) 
205.8
4.83
1.55
0.73
1.23
0.31
-0.01
-0.56
0.86
-0.29
-0.16
0.02
-0.01
0.25

>  <PUBCHEM_SHAPE_SELFOVERLAP>  (1) 
400.771

>  <PUBCHEM_SHAPE_VOLUME>  (1) 
121.1

>  <PUBCHEM_COORDINATE_TYPE>  (1) 
2
5
10

$$$$
