27260
     RDKit          3D

 17 18  0  0  0  0  0  0  0  0999 V2000
    1.1608    1.6302    1.2952 O   0  0  0  0  0  0  0  0  0  0  0  0
   -0.8205    1.4890   -0.6277 N   0  0  0  0  0  0  0  0  0  0  0  0
    0.3782    0.8019   -0.7261 N   0  0  0  0  0  0  0  0  0  0  0  0
    4.9366   -1.2073   -0.2370 N   0  0  0  0  0  0  0  0  0  0  0  0
   -4.3749   -0.6341    0.5449 C   0  0  0  0  0  0  0  0  0  0  0  0
   -1.9397    0.5484   -0.6665 C   0  0  0  0  0  0  0  0  0  0  0  0
   -4.4606    0.3663   -0.6154 C   0  0  0  0  0  0  0  0  0  0  0  0
   -3.0439   -1.3969    0.5122 C   0  0  0  0  0  0  0  0  0  0  0  0
   -3.2642    1.3175   -0.6301 C   0  0  0  0  0  0  0  0  0  0  0  0
   -1.8478   -0.4455    0.4968 C   0  0  0  0  0  0  0  0  0  0  0  0
   -5.5538   -1.6049    0.5079 C   0  0  0  0  0  0  0  0  0  0  0  0
    1.3072    0.9385    0.2905 C   0  0  0  0  0  0  0  0  0  0  0  0
    2.5766    0.1881    0.1058 C   0  0  0  0  0  0  0  0  0  0  0  0
    3.7213    0.6587    0.7039 C   0  0  0  0  0  0  0  0  0  0  0  0
    2.5692   -0.9551   -0.6574 C   0  0  0  0  0  0  0  0  0  0  0  0
    4.8780   -0.0766    0.5017 C   0  0  0  0  0  0  0  0  0  0  0  0
    3.7775   -1.6183   -0.7986 C   0  0  0  0  0  0  0  0  0  0  0  0
  1 12  2  0
  2  3  1  0
  2  6  1  0
  3 12  1  0
  4 16  2  0
  4 17  1  0
  5  7  1  0
  5  8  1  0
  5 11  1  0
  6  9  1  0
  6 10  1  0
  7  9  1  0
  8 10  1  0
 12 13  1  0
 13 14  2  0
 13 15  1  0
 14 16  1  0
 15 17  2  0
M  END
>  <PUBCHEM_COMPOUND_CID>  (1) 
27260

>  <PUBCHEM_CONFORMER_RMSD>  (1) 
0.6

>  <PUBCHEM_CONFORMER_DIVERSEORDER>  (1) 
1
31
33
18
12
25
10
3
28
15
20
23
17
29
30
16
8
27
4
7
32
14
21
22
2
26
6
13
19
11
5
9
24

>  <PUBCHEM_MMFF94_PARTIAL_CHARGES>  (1) 
17
1 -0.57
12 0.54
13 0.09
14 -0.15
15 -0.15
16 0.16
17 0.16
2 -0.64
3 -0.42
31 0.36
32 0.37
33 0.15
34 0.15
35 0.15
36 0.15
4 -0.62
6 0.27

>  <PUBCHEM_EFFECTIVE_ROTOR_COUNT>  (1) 
5.2

>  <PUBCHEM_PHARMACOPHORE_FEATURES>  (1) 
6
1 1 acceptor
1 2 donor
1 3 donor
1 4 acceptor
6 4 13 14 15 16 17 rings
6 5 6 7 8 9 10 rings

>  <PUBCHEM_HEAVY_ATOM_COUNT>  (1) 
17

>  <PUBCHEM_ATOM_DEF_STEREO_COUNT>  (1) 
0

>  <PUBCHEM_ATOM_UDEF_STEREO_COUNT>  (1) 
0

>  <PUBCHEM_BOND_DEF_STEREO_COUNT>  (1) 
0

>  <PUBCHEM_BOND_UDEF_STEREO_COUNT>  (1) 
0

>  <PUBCHEM_ISOTOPIC_ATOM_COUNT>  (1) 
0

>  <PUBCHEM_COMPONENT_COUNT>  (1) 
1

>  <PUBCHEM_CACTVS_TAUTO_COUNT>  (1) 
3

>  <PUBCHEM_CONFORMER_ID>  (1) 
00006A7C00000001

>  <PUBCHEM_MMFF94_ENERGY>  (1) 
28.0449

>  <PUBCHEM_FEATURE_SELFOVERLAP>  (1) 
31.936

>  <PUBCHEM_SHAPE_FINGERPRINT>  (1) 
11046707 91 18040151820995160461
11128504 68 16008756813810391406
11796584 16 17971183730246380970
12236239 1 15864067654805348612
12596602 18 15769768091552226982
13402501 40 18410296912654083515
13675066 3 18343858918113179229
13685833 64 18334299799003492947
14251731 8 18113616764088653399
14252887 29 17417815007095873262
14386348 63 18410856555487461462
15375358 24 18411132520063193046
17804303 29 18334576854369074581
17834072 8 18040426695129273047
17834074 16 18410009922806878926
17870717 6 18113904823361232583
18186145 218 12829496930673570664
18785283 64 18197768019939659704
19141452 34 18342460391527192743
193927 3 17895485816491094299
200 152 17703783717698900149
20279233 1 18411138021942640526
20374829 77 18187080646304378211
20403669 9 18334860528042285563
20432913 95 18131914853466909655
20645477 70 17917141698537638446
20871999 31 17530965756862541997
21065201 7 18113890529309235665
21267235 1 18041005068125819707
212847 35 11095891458169770358
2215653 11 18410847742720764821
231179 274 8934999278659121820
23175994 123 18202001019157056953
23402539 116 15864067642131443596
23403322 49 18335139765440975855
23557571 272 18041273288622802868
23559900 14 18335413595191692581
23590187 135 18259981578714271130
239999 70 18409167714892319906
26918003 58 18272930509642404056
2871803 45 18187081741421091370
3060560 45 12468632825054836056
33824 294 18271805697080160246
42 15 18343024397778279013
4214541 1 18335420136558532413
4325135 7 17894915182973218412
5104073 3 18129938962937720312
5352402 22 18059864943183613734
59755656 215 18113893858853408395
9709674 26 18116436027908735483

>  <PUBCHEM_SHAPE_MULTIPOLES>  (1) 
329.04
12.09
1.68
0.98
1.55
0.14
0.04
5.25
0.78
0.42
-0.04
-0.11
-0.09
1.52

>  <PUBCHEM_SHAPE_SELFOVERLAP>  (1) 
679.077

>  <PUBCHEM_SHAPE_VOLUME>  (1) 
185.8

>  <PUBCHEM_COORDINATE_TYPE>  (1) 
2
5
10

$$$$
