27262
     RDKit          3D

 20 21  0  0  1  0  0  0  0  0999 V2000
   -0.8082    0.2101    1.6993 O   0  0  0  0  0  0  0  0  0  0  0  0
    0.8044   -1.6211    0.4040 N   0  0  0  0  0  0  0  0  0  0  0  0
   -0.5032   -1.3693    0.0270 N   0  0  0  0  0  0  0  0  0  0  0  0
   -5.2399    0.1453   -0.5400 N   0  0  0  0  0  0  0  0  0  0  0  0
    2.2428    1.0507   -0.0433 C   0  0  0  0  0  0  0  0  0  0  0  0
    1.7051   -1.3607   -0.7229 C   0  0  0  0  0  0  0  0  0  0  0  0
    3.1681   -1.7522   -0.4105 C   0  0  0  0  0  0  0  0  0  0  0  0
    1.6287    0.1266   -1.1081 C   0  0  0  0  0  0  0  0  0  0  0  0
    3.6843    0.6330    0.2748 C   0  0  0  0  0  0  0  0  0  0  0  0
    3.7841   -0.8416    0.6633 C   0  0  0  0  0  0  0  0  0  0  0  0
    2.1954    2.5069   -0.5046 C   0  0  0  0  0  0  0  0  0  0  0  0
    3.3212   -3.2243   -0.0200 C   0  0  0  0  0  0  0  0  0  0  0  0
    0.7657    2.9112   -0.8545 C   0  0  0  0  0  0  0  0  0  0  0  0
    2.7677    3.4278    0.5700 C   0  0  0  0  0  0  0  0  0  0  0  0
   -1.2296   -0.4322    0.7406 C   0  0  0  0  0  0  0  0  0  0  0  0
   -2.6319   -0.2292    0.2922 C   0  0  0  0  0  0  0  0  0  0  0  0
   -3.5655    0.2042    1.2032 C   0  0  0  0  0  0  0  0  0  0  0  0
   -2.9549   -0.4824   -1.0197 C   0  0  0  0  0  0  0  0  0  0  0  0
   -4.8587    0.3765    0.7364 C   0  0  0  0  0  0  0  0  0  0  0  0
   -4.2754   -0.2791   -1.3871 C   0  0  0  0  0  0  0  0  0  0  0  0
  1 15  2  0
  2  3  1  0
  2  6  1  0
  3 15  1  0
  4 19  2  0
  4 20  1  0
  5  8  1  0
  5  9  1  0
  5 11  1  0
  6  7  1  0
  6  8  1  0
  7 10  1  0
  7 12  1  0
  9 10  1  0
 11 13  1  0
 11 14  1  0
 15 16  1  0
 16 17  2  0
 16 18  1  0
 17 19  1  0
 18 20  2  0
M  END
>  <PUBCHEM_COMPOUND_CID>  (1) 
27262

>  <PUBCHEM_CONFORMER_RMSD>  (1) 
0.8

>  <PUBCHEM_CONFORMER_DIVERSEORDER>  (1) 
4
56
25
46
27
54
23
69
52
21
29
44
9
32
14
66
59
33
28
51
39
67
58
72
57
42
55
70
7
53
30
17
11
68
64
45
63
60
18
36
43
26
37
38
73
71
12
6
75
19
49
1
3
35
50
65
8
62
41
74
15
47
61
10
2
31
13
24
20
48
34
40
22
5
16

>  <PUBCHEM_MMFF94_PARTIAL_CHARGES>  (1) 
17
1 -0.57
15 0.54
16 0.09
17 -0.15
18 -0.15
19 0.16
2 -0.64
20 0.16
3 -0.42
34 0.36
4 -0.62
41 0.37
42 0.15
43 0.15
44 0.15
45 0.15
6 0.27

>  <PUBCHEM_EFFECTIVE_ROTOR_COUNT>  (1) 
6.2

>  <PUBCHEM_PHARMACOPHORE_FEATURES>  (1) 
7
1 1 acceptor
1 2 donor
1 3 donor
1 4 acceptor
3 11 13 14 hydrophobe
6 4 16 17 18 19 20 rings
6 5 6 7 8 9 10 rings

>  <PUBCHEM_HEAVY_ATOM_COUNT>  (1) 
20

>  <PUBCHEM_ATOM_DEF_STEREO_COUNT>  (1) 
0

>  <PUBCHEM_ATOM_UDEF_STEREO_COUNT>  (1) 
3

>  <PUBCHEM_BOND_DEF_STEREO_COUNT>  (1) 
0

>  <PUBCHEM_BOND_UDEF_STEREO_COUNT>  (1) 
0

>  <PUBCHEM_ISOTOPIC_ATOM_COUNT>  (1) 
0

>  <PUBCHEM_COMPONENT_COUNT>  (1) 
1

>  <PUBCHEM_CACTVS_TAUTO_COUNT>  (1) 
3

>  <PUBCHEM_CONFORMER_ID>  (1) 
00006A7E00000004

>  <PUBCHEM_MMFF94_ENERGY>  (1) 
41.8275

>  <PUBCHEM_FEATURE_SELFOVERLAP>  (1) 
37.014

>  <PUBCHEM_SHAPE_FINGERPRINT>  (1) 
11640471 11 17845097440019833756
12011746 2 18409735071461081628
12236239 1 17846778490214304223
12616971 3 18202287987908161291
12633257 1 18041826428822927608
13134695 92 18336548214177181726
13140716 1 18193838365375940104
13583140 156 18040435520712716083
14251739 40 18343297054855055815
14790565 3 18046913959652283220
15420108 30 18125986407893955322
15848700 24 18337110060471635918
15848702 151 18410572860387081927
17357779 13 18188205395102074172
17818456 19 17486788380528671297
1813 80 18056207877568863246
18186145 218 18113338604980013875
192875 21 18343023272249025400
20511986 3 17774988107730311533
20645477 70 18334858350324704153
20681677 76 18188780568669771139
20715895 44 17843689851121638945
21033648 29 17458612433183913413
21639500 275 18410292557493266421
21641784 216 17825694174453072798
22289505 5 18334854974670352876
2255824 54 18342182163181650710
23557571 272 14692583078264913235
23559900 14 18412263930450623498
3052486 1 15720219583667613117
3060560 45 18201729457281175670
3286 77 18260833657144340503
4409770 3 15464133163661276695
474 4 18340204197328402322
495365 180 18268143330831759304
5281201 14 18335701607456177005
5895379 119 17273718471520288833
67856867 119 18201710799378550561
7471813 234 18200870677968849272
84936 182 18058168508511637360
9971528 1 18343019948287365806
9981440 41 17907852160891205384

>  <PUBCHEM_SHAPE_MULTIPOLES>  (1) 
390.78
9.35
3.14
1.22
10.74
1.57
-0.03
-0.9
0
-5.4
0.21
0.83
0.11
-0.12

>  <PUBCHEM_SHAPE_SELFOVERLAP>  (1) 
801.853

>  <PUBCHEM_SHAPE_VOLUME>  (1) 
223.2

>  <PUBCHEM_COORDINATE_TYPE>  (1) 
2
5
10

$$$$
