27266
     RDKit          3D

 16 17  0  0  1  0  0  0  0  0999 V2000
    4.2178    1.1154    0.3732 O   0  0  0  0  0  0  0  0  0  0  0  0
    2.1843    2.0122    0.8141 O   0  0  0  0  0  0  0  0  0  0  0  0
    2.2987   -0.3368    0.1418 C   0  0  0  0  0  0  0  0  0  0  0  0
    0.8166   -0.4020    0.2984 C   0  0  0  0  0  0  0  0  0  0  0  0
    2.8341   -0.7295   -1.2636 C   0  0  0  0  0  0  0  0  0  0  0  0
   -0.0050    0.3847   -0.5094 C   0  0  0  0  0  0  0  0  0  0  0  0
   -1.4021    0.3349   -0.3744 C   0  0  0  0  0  0  0  0  0  0  0  0
    0.2544   -1.2473    1.2504 C   0  0  0  0  0  0  0  0  0  0  0  0
   -1.9737   -0.5249    0.5937 C   0  0  0  0  0  0  0  0  0  0  0  0
   -1.1315   -1.3094    1.3982 C   0  0  0  0  0  0  0  0  0  0  0  0
    2.8641    1.0498    0.4821 C   0  0  0  0  0  0  0  0  0  0  0  0
    2.4801   -2.1618   -1.6442 C   0  0  0  0  0  0  0  0  0  0  0  0
   -2.2443    1.1195   -1.1789 C   0  0  0  0  0  0  0  0  0  0  0  0
   -3.3708   -0.5745    0.7287 C   0  0  0  0  0  0  0  0  0  0  0  0
   -3.6302    1.0574   -1.0311 C   0  0  0  0  0  0  0  0  0  0  0  0
   -4.1925    0.2120   -0.0792 C   0  0  0  0  0  0  0  0  0  0  0  0
  1 11  1  0
  2 11  2  0
  3  4  1  0
  3  5  1  0
  3 11  1  0
  4  6  2  0
  4  8  1  0
  5 12  1  0
  6  7  1  0
  7  9  2  0
  7 13  1  0
  8 10  2  0
  9 10  1  0
  9 14  1  0
 13 15  2  0
 14 16  2  0
 15 16  1  0
M  END
>  <PUBCHEM_COMPOUND_CID>  (1) 
27266

>  <PUBCHEM_CONFORMER_RMSD>  (1) 
0.6

>  <PUBCHEM_CONFORMER_DIVERSEORDER>  (1) 
1
17
12
15
3
9
20
6
7
14
19
18
4
13
16
11
10
2
8
5

>  <PUBCHEM_MMFF94_PARTIAL_CHARGES>  (1) 
20
1 -0.65
10 -0.15
11 0.66
13 -0.15
14 -0.15
15 -0.15
16 -0.15
2 -0.57
20 0.15
21 0.15
22 0.15
26 0.15
27 0.15
28 0.15
29 0.15
3 0.2
30 0.5
4 -0.14
6 -0.15
8 -0.15

>  <PUBCHEM_EFFECTIVE_ROTOR_COUNT>  (1) 
3

>  <PUBCHEM_PHARMACOPHORE_FEATURES>  (1) 
6
1 1 acceptor
1 12 hydrophobe
1 2 acceptor
3 1 2 11 anion
6 4 6 7 8 9 10 rings
6 7 9 13 14 15 16 rings

>  <PUBCHEM_HEAVY_ATOM_COUNT>  (1) 
16

>  <PUBCHEM_ATOM_DEF_STEREO_COUNT>  (1) 
0

>  <PUBCHEM_ATOM_UDEF_STEREO_COUNT>  (1) 
1

>  <PUBCHEM_BOND_DEF_STEREO_COUNT>  (1) 
0

>  <PUBCHEM_BOND_UDEF_STEREO_COUNT>  (1) 
0

>  <PUBCHEM_ISOTOPIC_ATOM_COUNT>  (1) 
0

>  <PUBCHEM_COMPONENT_COUNT>  (1) 
1

>  <PUBCHEM_CACTVS_TAUTO_COUNT>  (1) 
1

>  <PUBCHEM_CONFORMER_ID>  (1) 
00006A8200000001

>  <PUBCHEM_MMFF94_ENERGY>  (1) 
40.0924

>  <PUBCHEM_FEATURE_SELFOVERLAP>  (1) 
30.532

>  <PUBCHEM_SHAPE_FINGERPRINT>  (1) 
10498660 4 17531249422462536477
10608611 8 18260541225658798925
10646746 165 18040712550065413324
10871710 139 16174820805256555260
11031198 65 18202004360725684380
11132069 177 17603302644318513645
11543360 7 17845923113570968933
12119455 92 18271236209943356106
12236239 1 16056885715166301246
13140716 1 17315651844091659185
13760787 19 16702020889914419887
15219456 202 18411421713022320510
15775835 57 17603859001117496632
16945 1 18339359643829021299
17846911 113 17822003225023469809
1813 80 16628299610372190166
18186145 218 18335705992443784105
19026448 4 18342744005228376471
19026448 5 17203613662110143835
19049666 15 18336267821215536344
19422 9 16845576392132988375
19786989 88 18202280333622383534
200 152 17346883329828184674
20279233 1 18409169913213955470
20510252 161 18186801379125850993
20559304 39 16298386855442585486
20645464 45 18333729147751417801
20645476 183 16415193520458962085
20645477 70 18060140899148630174
20671657 53 17773045141861497198
21486144 27 18342182180239771635
21639500 275 17917708049894232640
22802520 49 18267592307775334292
23402539 116 18114730633480934974
23493267 7 15720259221783494251
23557571 272 18262525913056237731
23559900 14 18041287578131756518
23598291 2 16557370166413550954
2748010 2 17459466646386704043
474 4 16557323046601731952
4990 188 18338517439507783719
5104073 3 17532086095536173737
53812653 166 18113611283515458249
603831 33 16200436857650179658
6049 1 18335998501075323169
633830 44 18337668608030896437
69090 78 18410568526638726347
7364860 26 17897992556362080427
77492 1 16128662924590165846
81228 2 17753912802056709987
88987 49 17531256096731034902
90316 7 15647318728704294325

>  <PUBCHEM_SHAPE_MULTIPOLES>  (1) 
317.53
7
1.7
1.41
1.07
0.04
-0.37
-1.73
-0.88
-0.72
0.06
-0.69
0.4
1.83

>  <PUBCHEM_SHAPE_SELFOVERLAP>  (1) 
681.815

>  <PUBCHEM_SHAPE_VOLUME>  (1) 
175.8

>  <PUBCHEM_COORDINATE_TYPE>  (1) 
2
5
10

$$$$
