27274
     RDKit          3D

 20 20  0  0  0  0  0  0  0  0999 V2000
   -2.5005   -0.6417    0.1207 O   0  0  0  0  0  0  0  0  0  0  0  0
   -1.6860    1.4026    0.8130 O   0  0  0  0  0  0  0  0  0  0  0  0
    2.8624    0.5428   -2.2730 O   0  0  0  0  0  0  0  0  0  0  0  0
    3.1028    2.2401    0.6941 O   0  0  0  0  0  0  0  0  0  0  0  0
    2.2546   -1.1363    2.0515 O   0  0  0  0  0  0  0  0  0  0  0  0
    2.2246   -1.4907   -1.7543 O   0  0  0  0  0  0  0  0  0  0  0  0
    4.6509    0.8091    0.0862 O   0  0  0  0  0  0  0  0  0  0  0  0
    3.4816   -1.9808    0.4437 O   0  0  0  0  0  0  0  0  0  0  0  0
    2.4792   -0.3129   -1.4627 N   0  0  0  0  0  0  0  0  0  0  0  0
    3.4716    1.1252    0.2942 N   0  0  0  0  0  0  0  0  0  0  0  0
    2.7517   -1.0985    0.9161 N   0  0  0  0  0  0  0  0  0  0  0  0
   -3.8179   -0.2126    0.3995 C   0  0  0  0  0  0  0  0  0  0  0  0
   -4.2270    0.9622   -0.4745 C   0  0  0  0  0  0  0  0  0  0  0  0
   -4.8313   -1.2790    0.0180 C   0  0  0  0  0  0  0  0  0  0  0  0
   -5.7504    0.9313   -0.4503 C   0  0  0  0  0  0  0  0  0  0  0  0
   -6.1401   -0.5110   -0.1167 C   0  0  0  0  0  0  0  0  0  0  0  0
    0.9806    0.6351    0.2914 C   0  0  0  0  0  0  0  0  0  0  0  0
   -0.1793   -0.3352    0.0164 C   0  0  0  0  0  0  0  0  0  0  0  0
    2.3902    0.0773    0.0114 C   0  0  0  0  0  0  0  0  0  0  0  0
   -1.5178    0.2730    0.3750 C   0  0  0  0  0  0  0  0  0  0  0  0
  1 12  1  0
  1 20  1  0
  2 20  2  0
  3  9  1  0
  4 10  1  0
  5 11  1  0
  6  9  2  0
  7 10  2  0
  8 11  2  0
  9 19  1  0
 10 19  1  0
 11 19  1  0
 12 13  1  0
 12 14  1  0
 13 15  1  0
 14 16  1  0
 15 16  1  0
 17 18  1  0
 17 19  1  0
 18 20  1  0
M  CHG  6   3  -1   4  -1   5  -1   9   1  10   1  11   1
M  END
>  <PUBCHEM_COMPOUND_CID>  (1) 
27274

>  <PUBCHEM_CONFORMER_RMSD>  (1) 
0.8

>  <PUBCHEM_CONFORMER_DIVERSEORDER>  (1) 
1
48
17
36
35
34
37
29
14
52
40
38
33
50
3
13
43
41
32
47
2
42
25
15
22
39
45
30
44
6
18
26
46
7
20
28
31
49
23
51
9
12
10
5
27
21
11
8
16
4
19
24

>  <PUBCHEM_MMFF94_PARTIAL_CHARGES>  (1) 
15
1 -0.43
10 0.8
11 0.8
12 0.28
18 0.06
19 0.72
2 -0.57
20 0.66
3 -0.52
4 -0.52
5 -0.52
6 -0.52
7 -0.52
8 -0.52
9 0.8

>  <PUBCHEM_EFFECTIVE_ROTOR_COUNT>  (1) 
9

>  <PUBCHEM_PHARMACOPHORE_FEATURES>  (1) 
11
1 2 acceptor
1 3 acceptor
1 3 anion
1 4 acceptor
1 4 anion
1 5 acceptor
1 5 anion
1 6 acceptor
1 7 acceptor
1 8 acceptor
5 12 13 14 15 16 rings

>  <PUBCHEM_HEAVY_ATOM_COUNT>  (1) 
20

>  <PUBCHEM_ATOM_DEF_STEREO_COUNT>  (1) 
0

>  <PUBCHEM_ATOM_UDEF_STEREO_COUNT>  (1) 
0

>  <PUBCHEM_BOND_DEF_STEREO_COUNT>  (1) 
0

>  <PUBCHEM_BOND_UDEF_STEREO_COUNT>  (1) 
0

>  <PUBCHEM_ISOTOPIC_ATOM_COUNT>  (1) 
0

>  <PUBCHEM_COMPONENT_COUNT>  (1) 
1

>  <PUBCHEM_CACTVS_TAUTO_COUNT>  (1) 
1

>  <PUBCHEM_CONFORMER_ID>  (1) 
00006A8A00000001

>  <PUBCHEM_MMFF94_ENERGY>  (1) 
47.5579

>  <PUBCHEM_FEATURE_SELFOVERLAP>  (1) 
56.089

>  <PUBCHEM_SHAPE_FINGERPRINT>  (1) 
10366900 7 16343703252877662123
12107183 9 17540521436726902073
12236239 1 18186236221548339203
12616999 72 17060626615708402188
12670546 56 17967523542015591993
12916748 109 17748828514793228241
13073987 5 18334010576037519321
13167823 11 18333725815347705451
13533116 47 18261950760916248835
13955234 65 17275386517049178018
15375358 24 18342458179312631963
17834072 33 18411414042553543419
17844677 252 18412548704552781801
20279233 1 18342465862871987379
20281389 69 18114741535316538997
20645477 70 18272654519397219055
23557571 272 18259981552707597445
23559900 14 18131074805240399351
239999 70 18201725080371604644
300161 21 18260540139501155803
3004659 81 18114458968399750931
3060560 45 17846504755338295588
34797466 226 18060423547352778973
5104073 3 18334856104763697417
5281201 14 16443339828587694759
5374978 207 18413384328593472185
54040823 5 18343021103664931440
9971528 1 16950278481877693646
9999458 23 18187641466597891212

>  <PUBCHEM_SHAPE_MULTIPOLES>  (1) 
349.69
12.53
1.59
1.33
13.95
0.01
0.48
0.26
0.99
-1.05
-0.25
-1.7
-0.22
0.1

>  <PUBCHEM_SHAPE_SELFOVERLAP>  (1) 
705.914

>  <PUBCHEM_SHAPE_VOLUME>  (1) 
198.7

>  <PUBCHEM_COORDINATE_TYPE>  (1) 
2
5
10

$$$$
