27273
     RDKit          3D

 19 18  0  0  0  0  0  0  0  0999 V2000
    2.6719    0.0756   -0.0149 O   0  0  0  0  0  0  0  0  0  0  0  0
    1.6242   -1.9796   -0.0093 O   0  0  0  0  0  0  0  0  0  0  0  0
   -2.8754    0.4001   -2.2545 O   0  0  0  0  0  0  0  0  0  0  0  0
   -3.2339   -2.1941   -0.0446 O   0  0  0  0  0  0  0  0  0  0  0  0
   -1.9132    0.3763    2.3240 O   0  0  0  0  0  0  0  0  0  0  0  0
   -1.9640    2.0393   -1.1173 O   0  0  0  0  0  0  0  0  0  0  0  0
   -4.6040   -0.4810   -0.0026 O   0  0  0  0  0  0  0  0  0  0  0  0
   -3.0737    1.8602    1.2038 O   0  0  0  0  0  0  0  0  0  0  0  0
   -2.3585    0.8693   -1.2308 N   0  0  0  0  0  0  0  0  0  0  0  0
   -3.4690   -0.9767   -0.0067 N   0  0  0  0  0  0  0  0  0  0  0  0
   -2.4484    0.7942    1.2864 N   0  0  0  0  0  0  0  0  0  0  0  0
   -2.2716   -0.0210    0.0074 C   0  0  0  0  0  0  0  0  0  0  0  0
   -0.9372   -0.7918   -0.0300 C   0  0  0  0  0  0  0  0  0  0  0  0
    0.3283    0.0806   -0.0415 C   0  0  0  0  0  0  0  0  0  0  0  0
    5.0388    0.4880   -0.0009 C   0  0  0  0  0  0  0  0  0  0  0  0
    1.5884   -0.7570   -0.0172 C   0  0  0  0  0  0  0  0  0  0  0  0
    3.9476   -0.5731   -0.0019 C   0  0  0  0  0  0  0  0  0  0  0  0
    6.4315   -0.1359   -0.0033 C   0  0  0  0  0  0  0  0  0  0  0  0
    7.5180    0.9267   -0.0459 C   0  0  0  0  0  0  0  0  0  0  0  0
  1 16  1  0
  1 17  1  0
  2 16  2  0
  3  9  1  0
  4 10  1  0
  5 11  1  0
  6  9  2  0
  7 10  2  0
  8 11  2  0
  9 12  1  0
 10 12  1  0
 11 12  1  0
 12 13  1  0
 13 14  1  0
 14 16  1  0
 15 17  1  0
 15 18  1  0
 18 19  1  0
M  CHG  6   3  -1   4  -1   5  -1   9   1  10   1  11   1
M  END
>  <PUBCHEM_COMPOUND_CID>  (1) 
27273

>  <PUBCHEM_CONFORMER_RMSD>  (1) 
1

>  <PUBCHEM_CONFORMER_DIVERSEORDER>  (1) 
1
19
10
6
14
11
9
5
8
3
22
21
4
23
18
2
17
20
24
7
15
13
12
16

>  <PUBCHEM_MMFF94_PARTIAL_CHARGES>  (1) 
15
1 -0.43
10 0.8
11 0.8
12 0.72
14 0.06
16 0.66
17 0.28
2 -0.57
3 -0.52
4 -0.52
5 -0.52
6 -0.52
7 -0.52
8 -0.52
9 0.8

>  <PUBCHEM_EFFECTIVE_ROTOR_COUNT>  (1) 
10

>  <PUBCHEM_PHARMACOPHORE_FEATURES>  (1) 
11
1 19 hydrophobe
1 2 acceptor
1 3 acceptor
1 3 anion
1 4 acceptor
1 4 anion
1 5 acceptor
1 5 anion
1 6 acceptor
1 7 acceptor
1 8 acceptor

>  <PUBCHEM_HEAVY_ATOM_COUNT>  (1) 
19

>  <PUBCHEM_ATOM_DEF_STEREO_COUNT>  (1) 
0

>  <PUBCHEM_ATOM_UDEF_STEREO_COUNT>  (1) 
0

>  <PUBCHEM_BOND_DEF_STEREO_COUNT>  (1) 
0

>  <PUBCHEM_BOND_UDEF_STEREO_COUNT>  (1) 
0

>  <PUBCHEM_ISOTOPIC_ATOM_COUNT>  (1) 
0

>  <PUBCHEM_COMPONENT_COUNT>  (1) 
1

>  <PUBCHEM_CACTVS_TAUTO_COUNT>  (1) 
1

>  <PUBCHEM_CONFORMER_ID>  (1) 
00006A8900000001

>  <PUBCHEM_MMFF94_ENERGY>  (1) 
36.5909

>  <PUBCHEM_FEATURE_SELFOVERLAP>  (1) 
56.089

>  <PUBCHEM_SHAPE_FINGERPRINT>  (1) 
10680689 15 17967256382022493054
11315181 36 18411140268622025504
12091667 2 17458062669243989174
12507557 5 18335420192561795380
13024252 1 15430323508214845703
13631057 29 18337951328132073514
19489759 90 16805599279039366340
200 152 18272082812443220599
20281389 69 18187361065705818020
20325693 3 14979952558113020804
20645477 70 17917158200440864782
2306618 200 18409166589136232177
23402539 116 17240761813026035734
314173 85 11458419099602462006
90127 26 17749676195345357354

>  <PUBCHEM_SHAPE_MULTIPOLES>  (1) 
329.11
13.75
1.59
1.3
29.42
0.1
-0.08
-2.32
0.25
-1.34
0.04
-1.91
-0.56
-0.1

>  <PUBCHEM_SHAPE_SELFOVERLAP>  (1) 
638.221

>  <PUBCHEM_SHAPE_VOLUME>  (1) 
196.2

>  <PUBCHEM_COORDINATE_TYPE>  (1) 
2
5
10

$$$$
