27270
     RDKit          3D

 17 17  0  0  0  0  0  0  0  0999 V2000
   -3.1194   -2.5569    0.5372 Cl  0  0  0  0  0  0  0  0  0  0  0  0
    3.6452    0.2119    1.1646 O   0  0  0  0  0  0  0  0  0  0  0  0
    1.3012   -0.9759    1.4783 O   0  0  0  0  0  0  0  0  0  0  0  0
    0.5461   -0.4422   -0.6433 N   0  0  0  0  0  0  0  0  0  0  0  0
   -0.6468   -1.0709   -0.4345 N   0  0  0  0  0  0  0  0  0  0  0  0
    2.7806    0.2880    0.0334 C   0  0  0  0  0  0  0  0  0  0  0  0
    2.5378    1.7739   -0.3143 C   0  0  0  0  0  0  0  0  0  0  0  0
    3.5036   -0.4038   -1.1441 C   0  0  0  0  0  0  0  0  0  0  0  0
    1.4733   -0.4441    0.3811 C   0  0  0  0  0  0  0  0  0  0  0  0
    1.8991    2.5926    0.8038 C   0  0  0  0  0  0  0  0  0  0  0  0
    3.8926   -1.8538   -0.8679 C   0  0  0  0  0  0  0  0  0  0  0  0
   -1.8133   -0.3102   -0.2956 C   0  0  0  0  0  0  0  0  0  0  0  0
   -3.0175   -0.8779    0.1438 C   0  0  0  0  0  0  0  0  0  0  0  0
   -1.7778    1.0566   -0.6034 C   0  0  0  0  0  0  0  0  0  0  0  0
   -4.1637   -0.0937    0.2724 C   0  0  0  0  0  0  0  0  0  0  0  0
   -2.9241    1.8408   -0.4747 C   0  0  0  0  0  0  0  0  0  0  0  0
   -4.1171    1.2657   -0.0369 C   0  0  0  0  0  0  0  0  0  0  0  0
  1 13  1  0
  2  6  1  0
  3  9  2  0
  4  5  1  0
  4  9  1  0
  5 12  1  0
  6  7  1  0
  6  8  1  0
  6  9  1  0
  7 10  1  0
  8 11  1  0
 12 13  2  0
 12 14  1  0
 13 15  1  0
 14 16  2  0
 15 17  2  0
 16 17  1  0
M  END
>  <PUBCHEM_COMPOUND_CID>  (1) 
27270

>  <PUBCHEM_CONFORMER_RMSD>  (1) 
0.8

>  <PUBCHEM_CONFORMER_DIVERSEORDER>  (1) 
1
15
94
70
54
36
100
86
38
45
75
102
101
58
51
74
6
93
50
11
97
72
76
55
91
56
43
96
65
99
49
26
31
53
83
5
39
87
66
24
10
69
44
95
81
78
80
2
71
33
42
103
89
52
61
23
17
30
20
8
29
104
13
88
41
7
60
98
28
63
62
22
92
73
4
67
84
12
3
57
77
59
34
37
9
47
32
40
90
46
85
79
25
48
21
35
14
27
64
19
16
68
18
82

>  <PUBCHEM_MMFF94_PARTIAL_CHARGES>  (1) 
20
1 -0.18
12 0.1
13 0.18
14 -0.15
15 -0.15
16 -0.15
17 -0.15
2 -0.68
28 0.4
29 0.37
3 -0.57
30 0.4
31 0.15
32 0.15
33 0.15
34 0.15
4 -0.41
5 -0.52
6 0.34
9 0.57

>  <PUBCHEM_EFFECTIVE_ROTOR_COUNT>  (1) 
6

>  <PUBCHEM_PHARMACOPHORE_FEATURES>  (1) 
8
1 10 hydrophobe
1 11 hydrophobe
1 2 acceptor
1 2 donor
1 3 acceptor
1 4 donor
1 5 donor
6 12 13 14 15 16 17 rings

>  <PUBCHEM_HEAVY_ATOM_COUNT>  (1) 
17

>  <PUBCHEM_ATOM_DEF_STEREO_COUNT>  (1) 
0

>  <PUBCHEM_ATOM_UDEF_STEREO_COUNT>  (1) 
0

>  <PUBCHEM_BOND_DEF_STEREO_COUNT>  (1) 
0

>  <PUBCHEM_BOND_UDEF_STEREO_COUNT>  (1) 
0

>  <PUBCHEM_ISOTOPIC_ATOM_COUNT>  (1) 
0

>  <PUBCHEM_COMPONENT_COUNT>  (1) 
1

>  <PUBCHEM_CACTVS_TAUTO_COUNT>  (1) 
2

>  <PUBCHEM_CONFORMER_ID>  (1) 
00006A8600000001

>  <PUBCHEM_MMFF94_ENERGY>  (1) 
42.0142

>  <PUBCHEM_FEATURE_SELFOVERLAP>  (1) 
42.181

>  <PUBCHEM_SHAPE_FINGERPRINT>  (1) 
10366900 7 17821454547272734153
10608611 8 18411980290772933029
10922523 26 18273777146770817958
11132069 177 18408882945216666341
11552529 35 17773045374064336091
11715629 250 18056473078761235112
12251169 10 18260824882700169197
12916754 54 18271529783885371439
12932764 1 17748818601338679247
13134695 92 16988555776213022744
13675066 3 18201995543068083482
14787075 74 17176026073318446027
14866123 147 16973937515523763974
15536298 74 18411701023230343837
15653759 3 18411420604852108431
17041 50 18341897355299489420
17802600 8 18409439302263731341
17804303 29 18409173181847559333
18186145 218 18186516613813398671
19050596 39 18040992960095859243
20339313 130 18060144210942513116
20645477 70 17275107193703461670
20681677 76 18341890848444959711
221490 88 18339370759246561678
23559900 14 18412825763559144678
3286 77 17968083270527224762
474 4 16227476155254283148
5104073 3 18411138060449601890
5281201 14 18272094902290608910
6049 1 18340773722845092194
633830 44 17894919537463466406
7097593 13 17897425234174136875
9709674 26 18411699924024508775

>  <PUBCHEM_SHAPE_MULTIPOLES>  (1) 
330.02
8.55
2.44
1.03
0.94
0.24
-0.14
-0.68
0.36
0.3
-0.23
-0.73
-0.09
1.14

>  <PUBCHEM_SHAPE_SELFOVERLAP>  (1) 
660.156

>  <PUBCHEM_SHAPE_VOLUME>  (1) 
195.3

>  <PUBCHEM_COORDINATE_TYPE>  (1) 
2
5
10

$$$$
