27278
     RDKit          3D

 16 17  0  0  0  0  0  0  0  0999 V2000
   -1.0185    2.7120   -0.0002 Cl  0  0  0  0  0  0  0  0  0  0  0  0
    1.2163    0.9796   -0.0004 N   0  0  0  0  0  0  0  0  0  0  0  0
    0.0621    0.2883    0.0002 N   0  0  0  0  0  0  0  0  0  0  0  0
   -2.3435    0.2198   -0.0003 C   0  0  0  0  0  0  0  0  0  0  0  0
    2.4526    0.3182    0.0000 C   0  0  0  0  0  0  0  0  0  0  0  0
   -2.3431   -1.1751   -0.0001 C   0  0  0  0  0  0  0  0  0  0  0  0
   -3.5518    0.9168   -0.0003 C   0  0  0  0  0  0  0  0  0  0  0  0
    3.6448    1.0504    0.0005 C   0  0  0  0  0  0  0  0  0  0  0  0
    2.5053   -1.0800   -0.0006 C   0  0  0  0  0  0  0  0  0  0  0  0
   -1.0846    0.9474   -0.0001 C   0  0  0  0  0  0  0  0  0  0  0  0
   -3.5509   -1.8729    0.0001 C   0  0  0  0  0  0  0  0  0  0  0  0
   -4.7596    0.2190    0.0002 C   0  0  0  0  0  0  0  0  0  0  0  0
    4.8748    0.3923    0.0004 C   0  0  0  0  0  0  0  0  0  0  0  0
    3.7352   -1.7380   -0.0004 C   0  0  0  0  0  0  0  0  0  0  0  0
   -4.7592   -1.1759    0.0005 C   0  0  0  0  0  0  0  0  0  0  0  0
    4.9200   -1.0019    0.0002 C   0  0  0  0  0  0  0  0  0  0  0  0
  1 10  1  0
  2  3  1  0
  2  5  1  0
  3 10  2  0
  4  6  2  0
  4  7  1  0
  4 10  1  0
  5  8  2  0
  5  9  1  0
  6 11  1  0
  7 12  2  0
  8 13  1  0
  9 14  2  0
 11 15  2  0
 12 15  1  0
 13 16  2  0
 14 16  1  0
M  END
>  <PUBCHEM_COMPOUND_CID>  (1) 
27278

>  <PUBCHEM_CONFORMER_RMSD>  (1) 
0.6

>  <PUBCHEM_CONFORMER_DIVERSEORDER>  (1) 
1
4
2
3

>  <PUBCHEM_MMFF94_PARTIAL_CHARGES>  (1) 
27
1 -0.21
10 0.57
11 -0.15
12 -0.15
13 -0.15
14 -0.15
15 -0.15
16 -0.15
17 0.15
18 0.15
19 0.15
2 -0.46
20 0.15
21 0.4
22 0.15
23 0.15
24 0.15
25 0.15
26 0.15
27 0.15
3 -0.49
4 0.09
5 0.1
6 -0.15
7 -0.15
8 -0.15
9 -0.15

>  <PUBCHEM_EFFECTIVE_ROTOR_COUNT>  (1) 
3

>  <PUBCHEM_PHARMACOPHORE_FEATURES>  (1) 
4
1 2 donor
1 3 acceptor
6 4 6 7 11 12 15 rings
6 5 8 9 13 14 16 rings

>  <PUBCHEM_HEAVY_ATOM_COUNT>  (1) 
16

>  <PUBCHEM_ATOM_DEF_STEREO_COUNT>  (1) 
0

>  <PUBCHEM_ATOM_UDEF_STEREO_COUNT>  (1) 
0

>  <PUBCHEM_BOND_DEF_STEREO_COUNT>  (1) 
0

>  <PUBCHEM_BOND_UDEF_STEREO_COUNT>  (1) 
1

>  <PUBCHEM_ISOTOPIC_ATOM_COUNT>  (1) 
0

>  <PUBCHEM_COMPONENT_COUNT>  (1) 
1

>  <PUBCHEM_CACTVS_TAUTO_COUNT>  (1) 
1

>  <PUBCHEM_CONFORMER_ID>  (1) 
00006A8E00000001

>  <PUBCHEM_MMFF94_ENERGY>  (1) 
53.8834

>  <PUBCHEM_FEATURE_SELFOVERLAP>  (1) 
20.297

>  <PUBCHEM_SHAPE_FINGERPRINT>  (1) 
10616163 171 18412546479005432798
10968037 39 18408325505394997622
11045515 52 18113336405667212461
11806522 49 18335139795758844076
12107183 9 17691408512137706434
12555020 224 18410281533103943919
12596602 18 14620788323214439359
12916748 109 9295290564294378181
13167823 11 18410291410768900074
13288520 33 18411983550521086005
14251764 18 18201444692691513395
14252887 29 17346607361305411868
15196674 1 18410573989457318726
15242433 33 18409168817897029255
15352361 1 18410574002336595079
17834072 33 18409731789647021028
1813 80 17530686515158127213
18186145 218 16009030626497010413
19141452 34 18413672426752657327
200 152 18343301470012623761
20261772 1 17918270978467984198
20281475 54 18411984667186618433
20374829 77 18408600362001275843
20645477 70 18411419475735080822
21250096 35 18413388752209261697
21267235 1 18410019844265917043
221490 88 18118409668186149563
22485316 2 18410854364911501315
22646028 28 18409729564590334374
2297311 6 18271537428742496796
23402539 116 18335415759733331941
23403322 49 18410292523502922915
23557571 272 18201163144110125660
23559900 14 18411693309659036352
239999 70 18272939319554238854
26918003 58 18342173358292530232
2871803 45 18334010575610341978
3004659 81 18259702289970963478
3268164 11 16443337655064906223
42 15 18411702079813007846
4214541 1 18410855421584563717
4921388 177 16371017351031714619
5104073 3 18413107247136125848
5283173 99 18188197703032418613
542803 24 17167866361268368556
559249 180 18335134233575904659
67856867 119 18261393416391235100
77779 3 18410856563961143624
9709674 26 18410018714858602586

>  <PUBCHEM_SHAPE_MULTIPOLES>  (1) 
321.18
11.66
2.11
0.61
3.05
0.53
0
-4.03
0
-0.62
0
-0.01
0
0

>  <PUBCHEM_SHAPE_SELFOVERLAP>  (1) 
674.353

>  <PUBCHEM_SHAPE_VOLUME>  (1) 
178.8

>  <PUBCHEM_COORDINATE_TYPE>  (1) 
2
5
10

$$$$
