27289
     RDKit          3D

 22 23  0  0  0  0  0  0  0  0999 V2000
    6.3842   -1.9200    0.1027 O   0  0  0  0  0  0  0  0  0  0  0  0
   -6.3835   -1.9202   -0.1028 O   0  0  0  0  0  0  0  0  0  0  0  0
    5.8275    0.3702    0.0450 N   0  0  0  0  0  0  0  0  0  0  0  0
   -5.8268    0.3701   -0.0456 N   0  0  0  0  0  0  0  0  0  0  0  0
    0.2772    0.3696   -0.5616 N   0  0  0  0  0  0  0  0  0  0  0  0
   -0.2767    0.3697    0.5629 N   0  0  0  0  0  0  0  0  0  0  0  0
    4.4406    0.3699   -0.1069 C   0  0  0  0  0  0  0  0  0  0  0  0
   -4.4399    0.3699    0.1067 C   0  0  0  0  0  0  0  0  0  0  0  0
    1.6673    0.3698   -0.4103 C   0  0  0  0  0  0  0  0  0  0  0  0
   -1.6738    0.3699    0.4103 C   0  0  0  0  0  0  0  0  0  0  0  0
    3.7475   -0.8381   -0.1828 C   0  0  0  0  0  0  0  0  0  0  0  0
   -3.7469   -0.8381    0.1832 C   0  0  0  0  0  0  0  0  0  0  0  0
    3.7472    1.5779   -0.1829 C   0  0  0  0  0  0  0  0  0  0  0  0
   -3.7465    1.5779    0.1826 C   0  0  0  0  0  0  0  0  0  0  0  0
    2.3608   -0.8382   -0.3345 C   0  0  0  0  0  0  0  0  0  0  0  0
   -2.3603   -0.8381    0.3355 C   0  0  0  0  0  0  0  0  0  0  0  0
    2.3605    1.5778   -0.3345 C   0  0  0  0  0  0  0  0  0  0  0  0
   -2.3599    1.5778    0.3347 C   0  0  0  0  0  0  0  0  0  0  0  0
    6.6878   -0.7320    0.1391 C   0  0  0  0  0  0  0  0  0  0  0  0
   -6.6870   -0.7321   -0.1397 C   0  0  0  0  0  0  0  0  0  0  0  0
    8.1261   -0.3069    0.2965 C   0  0  0  0  0  0  0  0  0  0  0  0
   -8.1253   -0.3070   -0.2977 C   0  0  0  0  0  0  0  0  0  0  0  0
  1 19  2  0
  2 20  2  0
  3  7  1  0
  3 19  1  0
  4  8  1  0
  4 20  1  0
  5  6  2  0
  5  9  1  0
  6 10  1  0
  7 11  2  0
  7 13  1  0
  8 12  2  0
  8 14  1  0
  9 15  2  0
  9 17  1  0
 10 16  2  0
 10 18  1  0
 11 15  1  0
 12 16  1  0
 13 17  2  0
 14 18  2  0
 19 21  1  0
 20 22  1  0
M  END
>  <PUBCHEM_COMPOUND_CID>  (1) 
27289

>  <PUBCHEM_CONFORMER_RMSD>  (1) 
0.8

>  <PUBCHEM_CONFORMER_DIVERSEORDER>  (1) 
1
3
4
2

>  <PUBCHEM_MMFF94_PARTIAL_CHARGES>  (1) 
32
1 -0.57
10 0.18
11 -0.15
12 -0.15
13 -0.15
14 -0.15
15 -0.15
16 -0.15
17 -0.15
18 -0.15
19 0.57
2 -0.57
20 0.57
21 0.06
22 0.06
23 0.15
24 0.15
25 0.15
26 0.15
27 0.15
28 0.15
29 0.15
3 -0.55
30 0.15
31 0.37
32 0.37
4 -0.55
5 -0.18
6 -0.18
7 0.12
8 0.12
9 0.18

>  <PUBCHEM_EFFECTIVE_ROTOR_COUNT>  (1) 
6

>  <PUBCHEM_PHARMACOPHORE_FEATURES>  (1) 
6
1 1 acceptor
1 2 acceptor
1 3 donor
1 4 donor
6 7 9 11 13 15 17 rings
6 8 10 12 14 16 18 rings

>  <PUBCHEM_HEAVY_ATOM_COUNT>  (1) 
22

>  <PUBCHEM_ATOM_DEF_STEREO_COUNT>  (1) 
0

>  <PUBCHEM_ATOM_UDEF_STEREO_COUNT>  (1) 
0

>  <PUBCHEM_BOND_DEF_STEREO_COUNT>  (1) 
0

>  <PUBCHEM_BOND_UDEF_STEREO_COUNT>  (1) 
0

>  <PUBCHEM_ISOTOPIC_ATOM_COUNT>  (1) 
0

>  <PUBCHEM_COMPONENT_COUNT>  (1) 
1

>  <PUBCHEM_CACTVS_TAUTO_COUNT>  (1) 
5

>  <PUBCHEM_CONFORMER_ID>  (1) 
00006A9900000001

>  <PUBCHEM_MMFF94_ENERGY>  (1) 
65.9988

>  <PUBCHEM_FEATURE_SELFOVERLAP>  (1) 
30.446

>  <PUBCHEM_SHAPE_FINGERPRINT>  (1) 
10 15 17489303114382566800
10066227 112 8502655891853599995
106641 1 16056875853552176378
11315181 36 18413674612743480577
11524674 6 16487255495796218095
11638347 137 15841557349661870614
11719270 70 18272369759240343822
12166972 35 18408044030508834588
12236239 1 18410857659162194217
12516196 113 17918275350538865488
12616971 3 16486966327800148524
13073987 5 15769507421285893147
13288520 33 18412263939673021345
13533116 47 17241033336557896849
13668630 136 18334295361716804462
13685833 64 18411139121702220490
13885169 127 18409729526526660869
13914758 101 17749384832963866029
14251764 18 18410296908643433128
14251764 46 18410573989446450915
14428016 248 13254793577706512442
15183329 4 17748825202982916938
15690457 1 18343015601326944118
15706992 2 13262674783034427391
15716309 27 17917709110603318767
16120349 18 18188209905704445412
18681886 176 18411414033979556760
19489759 90 18410294692139771169
20735858 18 17275385400272999422
21130935 74 18200595783536482226
21150785 3 15791731905731884030
21267235 1 18410579487004719713
21315763 129 18411138026085283077
21315763 28 18410573985151717477
22224240 67 14764344942350767437
23402539 116 18410854374350963621
23559900 14 18265049309575041553
28498 318 18259982656492697039
29717793 49 17894634764283921964
3004659 81 18187362146808455609
335352 9 18334297582942682606
34797466 226 16702306767728818500
3545911 37 18410293613986772717
4073 2 17895199968615470330
4214541 1 18409732833060738969
4325135 7 18343019995573989887
4340502 62 14908181937427620580
5283156 175 18412545401442875411
5758199 1 12175619581759200292
59682541 35 17632290203428286530
59755656 215 17385439899621161762
59755656 520 17385437765529259707
7495541 125 17774722060455405137
8209 1 18333449845885733988

>  <PUBCHEM_SHAPE_MULTIPOLES>  (1) 
421.09
22.82
1.58
0.67
0.02
0.06
0
-8.27
-0.01
0
0
0
0.03
-0.38

>  <PUBCHEM_SHAPE_SELFOVERLAP>  (1) 
892.434

>  <PUBCHEM_SHAPE_VOLUME>  (1) 
233.6

>  <PUBCHEM_COORDINATE_TYPE>  (1) 
2
5
10

$$$$
