27283
     RDKit          3D

 12 11  0  0  1  0  0  0  0  0999 V2000
    4.7976   -0.2645    0.0866 Br  0  0  0  0  0  0  0  0  0  0  0  0
   -0.5409   -1.2825    1.1146 O   0  0  0  0  0  0  0  0  0  0  0  0
    0.5105    1.3919    1.1012 O   0  0  0  0  0  0  0  0  0  0  0  0
   -2.1990    1.0719   -1.1676 O   0  0  0  0  0  0  0  0  0  0  0  0
    2.0080   -1.0391   -1.1871 O   0  0  0  0  0  0  0  0  0  0  0  0
   -4.4002   -0.0213    0.0592 O   0  0  0  0  0  0  0  0  0  0  0  0
   -0.6398   -0.4217   -0.0248 C   0  0  0  0  0  0  0  0  0  0  0  0
    0.5887    0.5173   -0.0232 C   0  0  0  0  0  0  0  0  0  0  0  0
   -2.0156    0.2705   -0.0007 C   0  0  0  0  0  0  0  0  0  0  0  0
    1.9369   -0.2266   -0.0159 C   0  0  0  0  0  0  0  0  0  0  0  0
   -3.1668   -0.7334    0.0718 C   0  0  0  0  0  0  0  0  0  0  0  0
    3.1207    0.7375   -0.0140 C   0  0  0  0  0  0  0  0  0  0  0  0
  1 12  1  0
  2  7  1  0
  3  8  1  0
  4  9  1  0
  5 10  1  0
  6 11  1  0
  7  8  1  0
  7  9  1  0
  8 10  1  0
  9 11  1  0
 10 12  1  0
M  END
>  <PUBCHEM_COMPOUND_CID>  (1) 
27283

>  <PUBCHEM_CONFORMER_RMSD>  (1) 
0.6

>  <PUBCHEM_CONFORMER_DIVERSEORDER>  (1) 
1
429
21
375
186
79
247
469
38
411
330
332
410
4
467
297
16
389
134
63
400
233
379
56
460
129
212
76
476
386
31
105
455
182
3
453
128
474
7
153
444
355
299
47
237
419
73
33
29
253
206
415
368
282
320
466
226
356
221
251
438
248
173
132
357
41
91
309
189
193
452
93
49
28
383
478
27
480
390
409
60
353
10
477
125
280
13
428
310
287
471
92
22
329
442
289
194
160
71
164
209
414
141
401
149
139
46
112
458
338
439
436
142
349
66
475
273
166
265
133
421
456
418
440
59
95
341
232
222
5
239
37
406
135
445
250
88
14
448
241
123
366
470
96
104
430
126
113
156
200
412
437
263
473
393
89
23
348
343
25
369
74
462
345
180
388
459
171
80
360
198
244
323
434
318
285
242
78
138
461
465
266
398
268
6
100
24
181
312
472
131
325
377
433
167
52
187
176
373
32
382
117
235
261
183
426
136
450
20
83
165
446
35
278
416
53
344
234
30
99
354
86
336
199
351
457
124
154
140
17
36
413
350
394
319
98
308
57
51
102
68
464
229
195
227
340
8
337
358
114
111
427
224
197
290
54
40
9
451
359
121
87
296
204
161
155
214
15
313
288
284
148
422
352
218
443
328
255
43
286
441
44
260
385
432
159
18
34
396
395
479
172
85
420
376
256
145
152
238
277
137
246
69
387
119
468
205
190
77
424
281
230
64
144
306
75
67
97
267
118
243
19
120
236
374
317
39
294
116
378
168
252
12
423
208
109
324
449
90
48
407
447
404
370
302
454
371
346
311
107
293
192
150
279
196
219
147
334
403
408
291
146
130
103
178
191
231
259
163
84
42
405
300
271
339
262
151
61
188
372
207
431
122
50
316
367
55
364
211
270
220
45
363
365
257
249
361
327
108
331
391
258
384
11
292
283
301
381
127
254
425
275
298
185
177
322
110
402
106
307
184
225
245
362
315
62
82
162
435
2
26
203
94
335
305
174
276
463
264
380
342
217
158
347
274
201
216
397
175
228
70
157
399
314
295
223
272
81
304
417
210
179
333
202
326
303
72
269
321
115
170
392
169
65
58
240
215
213
101
143

>  <PUBCHEM_MMFF94_PARTIAL_CHARGES>  (1) 
17
1 -0.23
10 0.28
11 0.28
12 0.23
2 -0.68
21 0.4
22 0.4
23 0.4
24 0.4
25 0.4
3 -0.68
4 -0.68
5 -0.68
6 -0.68
7 0.28
8 0.28
9 0.28

>  <PUBCHEM_EFFECTIVE_ROTOR_COUNT>  (1) 
5

>  <PUBCHEM_PHARMACOPHORE_FEATURES>  (1) 
11
1 1 hydrophobe
1 2 acceptor
1 2 donor
1 3 acceptor
1 3 donor
1 4 acceptor
1 4 donor
1 5 acceptor
1 5 donor
1 6 acceptor
1 6 donor

>  <PUBCHEM_HEAVY_ATOM_COUNT>  (1) 
12

>  <PUBCHEM_ATOM_DEF_STEREO_COUNT>  (1) 
0

>  <PUBCHEM_ATOM_UDEF_STEREO_COUNT>  (1) 
4

>  <PUBCHEM_BOND_DEF_STEREO_COUNT>  (1) 
0

>  <PUBCHEM_BOND_UDEF_STEREO_COUNT>  (1) 
0

>  <PUBCHEM_ISOTOPIC_ATOM_COUNT>  (1) 
0

>  <PUBCHEM_COMPONENT_COUNT>  (1) 
1

>  <PUBCHEM_CACTVS_TAUTO_COUNT>  (1) 
1

>  <PUBCHEM_CONFORMER_ID>  (1) 
00006A9300000001

>  <PUBCHEM_MMFF94_ENERGY>  (1) 
25.4073

>  <PUBCHEM_FEATURE_SELFOVERLAP>  (1) 
55.84

>  <PUBCHEM_SHAPE_FINGERPRINT>  (1) 
10219947 1 17489874851258833572
11062470 55 15913330199398263802
11401426 45 17775281673118685504
12932764 1 18340188765600630463
14123238 8 17822010917409961286
14325111 11 17968090902283189357
14993402 34 16153704344836082982
15775835 57 18187079555419725387
17834076 25 14908181953858162442
18186145 218 18335704884168148540
20201158 50 18341899597246083030
20279233 1 18411990164908209663
20645477 70 17916870110349199159
21119208 17 16370724842030636746
21293036 1 18410575093279393776
23402539 116 18186511120486988767
23557571 272 18187646868801619380
265663 24 15936126369834931258
366044 4 17967813859728916579

>  <PUBCHEM_SHAPE_MULTIPOLES>  (1) 
223.55
7.76
1.13
0.93
2.05
0.05
-0.03
-0.64
-0.33
-0.01
0.08
0.02
0.01
0.45

>  <PUBCHEM_SHAPE_SELFOVERLAP>  (1) 
405.574

>  <PUBCHEM_SHAPE_VOLUME>  (1) 
145.6

>  <PUBCHEM_COORDINATE_TYPE>  (1) 
2
5
10

$$$$
