27288
     RDKit          3D

 13 13  0  0  0  0  0  0  0  0999 V2000
    5.2508    1.3069   -0.0071 Cl  0  0  0  0  0  0  0  0  0  0  0  0
   -0.3384   -1.5842    0.0107 S   0  0  0  0  0  0  0  0  0  0  0  0
   -6.1853    1.2222   -0.0112 O   0  0  0  0  0  0  0  0  0  0  0  0
   -2.9246   -0.6477   -0.0019 C   0  0  0  0  0  0  0  0  0  0  0  0
   -3.8909    0.5366   -0.0176 C   0  0  0  0  0  0  0  0  0  0  0  0
   -1.4758   -0.1693   -0.0041 C   0  0  0  0  0  0  0  0  0  0  0  0
   -5.3422    0.0789    0.0207 C   0  0  0  0  0  0  0  0  0  0  0  0
    1.2509   -0.7620    0.0057 C   0  0  0  0  0  0  0  0  0  0  0  0
    1.8620   -0.4337    1.2116 C   0  0  0  0  0  0  0  0  0  0  0  0
    1.8658   -0.4562   -1.2042 C   0  0  0  0  0  0  0  0  0  0  0  0
    3.1008    0.2073    1.2077 C   0  0  0  0  0  0  0  0  0  0  0  0
    3.1047    0.1846   -1.2081 C   0  0  0  0  0  0  0  0  0  0  0  0
    3.7222    0.5166   -0.0022 C   0  0  0  0  0  0  0  0  0  0  0  0
  1 13  1  0
  2  6  1  0
  2  8  1  0
  3  7  1  0
  4  5  1  0
  4  6  1  0
  5  7  1  0
  8  9  2  0
  8 10  1  0
  9 11  1  0
 10 12  2  0
 11 13  2  0
 12 13  1  0
M  END
>  <PUBCHEM_COMPOUND_CID>  (1) 
27288

>  <PUBCHEM_CONFORMER_RMSD>  (1) 
0.6

>  <PUBCHEM_CONFORMER_DIVERSEORDER>  (1) 
1
90
56
41
50
77
87
3
18
75
45
49
89
2
62
59
65
40
80
39
58
93
20
88
94
24
72
67
19
28
30
61
57
48
92
36
14
68
33
6
27
73
91
8
17
4
82
43
54
9
47
79
13
86
64
35
32
63
85
7
38
37
60
23
16
22
84
10
31
71
74
44
34
53
21
83
69
81
78
76
70
51
66
55
52
5
15
46
25
11
12
29
42
26

>  <PUBCHEM_MMFF94_PARTIAL_CHARGES>  (1) 
16
1 -0.18
10 -0.15
11 -0.15
12 -0.15
13 0.18
2 -0.33
22 0.15
23 0.15
24 0.15
25 0.15
26 0.4
3 -0.68
6 0.23
7 0.28
8 0.1
9 -0.15

>  <PUBCHEM_EFFECTIVE_ROTOR_COUNT>  (1) 
5

>  <PUBCHEM_PHARMACOPHORE_FEATURES>  (1) 
4
1 3 acceptor
1 3 donor
4 2 4 5 6 hydrophobe
6 8 9 10 11 12 13 rings

>  <PUBCHEM_HEAVY_ATOM_COUNT>  (1) 
13

>  <PUBCHEM_ATOM_DEF_STEREO_COUNT>  (1) 
0

>  <PUBCHEM_ATOM_UDEF_STEREO_COUNT>  (1) 
0

>  <PUBCHEM_BOND_DEF_STEREO_COUNT>  (1) 
0

>  <PUBCHEM_BOND_UDEF_STEREO_COUNT>  (1) 
0

>  <PUBCHEM_ISOTOPIC_ATOM_COUNT>  (1) 
0

>  <PUBCHEM_COMPONENT_COUNT>  (1) 
1

>  <PUBCHEM_CACTVS_TAUTO_COUNT>  (1) 
1

>  <PUBCHEM_CONFORMER_ID>  (1) 
00006A9800000001

>  <PUBCHEM_MMFF94_ENERGY>  (1) 
22.057

>  <PUBCHEM_FEATURE_SELFOVERLAP>  (1) 
20.297

>  <PUBCHEM_SHAPE_FINGERPRINT>  (1) 
100836 57 18411983576264600409
10354089 29 17022904553549942508
10498660 4 18200596869894319409
114248 4 16630808820149465807
11471102 20 16271930423998549194
12251169 10 15647052685386854498
12507560 40 16733250266816903998
12714333 28 17561363997901330296
12730499 353 17561370603360968007
14251718 22 17917710227948917471
14252887 29 14923934631601459890
14576447 43 13326581748092241548
15188451 53 13407088037239930361
15501527 24 13901911141553695152
15885798 251 11314029063352273567
17834072 33 15913321408201647677
17834076 25 18343018895993744613
19050596 39 16298391296423133651
20605781 2 18343301483108587105
20645477 56 18272369793636530943
20645477 70 16343713088136362630
20767249 442 18411418410224241787
20871999 31 17203035392119395007
21119208 17 15051734204802214803
212847 35 18342172254665380874
21637258 2 10735889335312994700
221357 26 16200153166707845057
22224240 67 15140960707853367496
22289505 5 17275103899041565224
23402539 116 18272364317347422478
23402655 69 16774082872928915047
23557571 272 17988083429849402263
23590187 302 15052012364101291323
26918003 58 14345793859790429397
29717793 49 12175628381767394689
300161 21 17894625955617344327
3060560 45 15841551881751732116
351380 3 10303814276478273893
4047638 21 18409732872158147062
42 15 13334736825819716135
465052 167 10809343330292328528
522135 26 15195565688939966519
5374978 207 15936412225968460301

>  <PUBCHEM_SHAPE_MULTIPOLES>  (1) 
267.38
12.42
1.23
1.07
14.93
0.09
0
-7.13
-0.03
0.13
0
-1.09
0.08
0.01

>  <PUBCHEM_SHAPE_SELFOVERLAP>  (1) 
509.003

>  <PUBCHEM_SHAPE_VOLUME>  (1) 
166

>  <PUBCHEM_COORDINATE_TYPE>  (1) 
2
5
10

$$$$
