27291
     RDKit          3D

  8  8  0  0  0  0  0  0  0  0999 V2000
   -0.9828   -1.1008   -0.1527 N   0  0  0  0  0  0  0  0  0  0  0  0
   -0.9079    1.1726   -0.0811 N   0  0  0  0  0  0  0  0  0  0  0  0
    1.1682    0.0234   -0.7000 C   0  0  0  0  0  0  0  0  0  0  0  0
   -0.2733    0.0509   -0.3102 C   0  0  0  0  0  0  0  0  0  0  0  0
   -2.3205   -0.8011    0.2600 C   0  0  0  0  0  0  0  0  0  0  0  0
   -2.2935    0.7346    0.2724 C   0  0  0  0  0  0  0  0  0  0  0  0
    2.0642   -0.0522    0.5306 C   0  0  0  0  0  0  0  0  0  0  0  0
    3.5456   -0.0274    0.1811 C   0  0  0  0  0  0  0  0  0  0  0  0
  1  4  1  0
  1  5  1  0
  2  4  2  0
  2  6  1  0
  3  4  1  0
  3  7  1  0
  5  6  1  0
  7  8  1  0
M  END
>  <PUBCHEM_COMPOUND_CID>  (1) 
27291

>  <PUBCHEM_CONFORMER_RMSD>  (1) 
0.4

>  <PUBCHEM_CONFORMER_DIVERSEORDER>  (1) 
1
6
2
7
5
4
3
8

>  <PUBCHEM_MMFF94_PARTIAL_CHARGES>  (1) 
7
1 -0.82
15 0.4
2 -0.7
3 0.06
4 0.44
5 0.37
6 0.25

>  <PUBCHEM_EFFECTIVE_ROTOR_COUNT>  (1) 
2.6

>  <PUBCHEM_PHARMACOPHORE_FEATURES>  (1) 
4
1 1 donor
1 8 hydrophobe
3 1 2 4 cation
5 1 2 4 5 6 rings

>  <PUBCHEM_HEAVY_ATOM_COUNT>  (1) 
8

>  <PUBCHEM_ATOM_DEF_STEREO_COUNT>  (1) 
0

>  <PUBCHEM_ATOM_UDEF_STEREO_COUNT>  (1) 
0

>  <PUBCHEM_BOND_DEF_STEREO_COUNT>  (1) 
0

>  <PUBCHEM_BOND_UDEF_STEREO_COUNT>  (1) 
0

>  <PUBCHEM_ISOTOPIC_ATOM_COUNT>  (1) 
0

>  <PUBCHEM_COMPONENT_COUNT>  (1) 
1

>  <PUBCHEM_CACTVS_TAUTO_COUNT>  (1) 
1

>  <PUBCHEM_CONFORMER_ID>  (1) 
00006A9B00000001

>  <PUBCHEM_MMFF94_ENERGY>  (1) 
13.3681

>  <PUBCHEM_FEATURE_SELFOVERLAP>  (1) 
20.297

>  <PUBCHEM_SHAPE_FINGERPRINT>  (1) 
10857977 72 18342452685711759449
11062470 55 16226043392454856990
12932764 1 17531240647944453468
14325111 11 18412825768191481578
14390081 3 17275102803924858480
20645464 45 17846503612386293118
20653085 51 11527674132294117778
20871998 184 18129104587693594439
21040471 1 18194696873271798461
23552423 10 17969506094017829460
29004967 10 16917075455369466822
369184 2 18411694387505429697
5460574 1 9655577413639919852

>  <PUBCHEM_SHAPE_MULTIPOLES>  (1) 
154.67
4.62
1.01
0.74
3.19
0.01
-0.02
-0.14
0.81
-0.61
0.01
0.13
0
-0.02

>  <PUBCHEM_SHAPE_SELFOVERLAP>  (1) 
296.356

>  <PUBCHEM_SHAPE_VOLUME>  (1) 
92.6

>  <PUBCHEM_COORDINATE_TYPE>  (1) 
2
5
10

$$$$
