27295
     RDKit          3D

 23 24  0  0  0  0  0  0  0  0999 V2000
   -4.3675    2.7379   -0.3395 F   0  0  0  0  0  0  0  0  0  0  0  0
   -5.4404    0.8548   -0.2543 F   0  0  0  0  0  0  0  0  0  0  0  0
   -4.4877    1.6421    1.5349 F   0  0  0  0  0  0  0  0  0  0  0  0
    0.4560   -1.2674   -1.0684 O   0  0  0  0  0  0  0  0  0  0  0  0
   -2.3972   -3.0689    1.2245 O   0  0  0  0  0  0  0  0  0  0  0  0
   -0.4360   -3.1616    0.2427 O   0  0  0  0  0  0  0  0  0  0  0  0
    5.3325    1.4944    1.7557 O   0  0  0  0  0  0  0  0  0  0  0  0
    6.2009    1.1134   -0.2241 O   0  0  0  0  0  0  0  0  0  0  0  0
   -1.4953   -2.5522    0.5233 N   0  0  0  0  0  0  0  0  0  0  0  0
    5.2441    1.0511    0.5852 N   0  0  0  0  0  0  0  0  0  0  0  0
   -0.7016   -0.6194   -0.7537 C   0  0  0  0  0  0  0  0  0  0  0  0
   -3.0537    0.7488   -0.1382 C   0  0  0  0  0  0  0  0  0  0  0  0
   -1.6801   -1.2316    0.0296 C   0  0  0  0  0  0  0  0  0  0  0  0
   -2.8561   -0.5477    0.3373 C   0  0  0  0  0  0  0  0  0  0  0  0
   -0.8991    0.6769   -1.2291 C   0  0  0  0  0  0  0  0  0  0  0  0
   -2.0750    1.3611   -0.9213 C   0  0  0  0  0  0  0  0  0  0  0  0
    1.6453   -0.6916   -0.6576 C   0  0  0  0  0  0  0  0  0  0  0  0
   -4.3107    1.4804    0.1912 C   0  0  0  0  0  0  0  0  0  0  0  0
    1.7474   -0.2010    0.6322 C   0  0  0  0  0  0  0  0  0  0  0  0
    2.7030   -0.6201   -1.5469 C   0  0  0  0  0  0  0  0  0  0  0  0
    4.0234    0.4604    0.1636 C   0  0  0  0  0  0  0  0  0  0  0  0
    2.9462    0.3797    1.0460 C   0  0  0  0  0  0  0  0  0  0  0  0
    3.9018   -0.0395   -1.1330 C   0  0  0  0  0  0  0  0  0  0  0  0
  1 18  1  0
  2 18  1  0
  3 18  1  0
  4 11  1  0
  4 17  1  0
  5  9  1  0
  6  9  2  0
  7 10  1  0
  8 10  2  0
  9 13  1  0
 10 21  1  0
 11 13  2  0
 11 15  1  0
 12 14  2  0
 12 16  1  0
 12 18  1  0
 13 14  1  0
 15 16  2  0
 17 19  2  0
 17 20  1  0
 19 22  1  0
 20 23  2  0
 21 22  2  0
 21 23  1  0
M  CHG  4   5  -1   7  -1   9   1  10   1
M  END
>  <PUBCHEM_COMPOUND_CID>  (1) 
27295

>  <PUBCHEM_CONFORMER_RMSD>  (1) 
0.8

>  <PUBCHEM_CONFORMER_DIVERSEORDER>  (1) 
2
1
3
4

>  <PUBCHEM_MMFF94_PARTIAL_CHARGES>  (1) 
30
1 -0.34
10 0.91
11 0.08
12 -0.14
13 0.13
14 -0.15
15 -0.15
16 -0.15
17 0.08
18 1.16
19 -0.15
2 -0.34
20 -0.15
21 0.13
22 -0.15
23 -0.15
24 0.15
25 0.15
26 0.15
27 0.15
28 0.15
29 0.15
3 -0.34
30 0.15
4 -0.17
5 -0.52
6 -0.52
7 -0.52
8 -0.52
9 0.91

>  <PUBCHEM_EFFECTIVE_ROTOR_COUNT>  (1) 
5

>  <PUBCHEM_PHARMACOPHORE_FEATURES>  (1) 
9
1 4 acceptor
1 5 acceptor
1 5 anion
1 6 acceptor
1 7 acceptor
1 7 anion
1 8 acceptor
6 11 12 13 14 15 16 rings
6 17 19 20 21 22 23 rings

>  <PUBCHEM_HEAVY_ATOM_COUNT>  (1) 
23

>  <PUBCHEM_ATOM_DEF_STEREO_COUNT>  (1) 
0

>  <PUBCHEM_ATOM_UDEF_STEREO_COUNT>  (1) 
0

>  <PUBCHEM_BOND_DEF_STEREO_COUNT>  (1) 
0

>  <PUBCHEM_BOND_UDEF_STEREO_COUNT>  (1) 
0

>  <PUBCHEM_ISOTOPIC_ATOM_COUNT>  (1) 
0

>  <PUBCHEM_COMPONENT_COUNT>  (1) 
1

>  <PUBCHEM_CACTVS_TAUTO_COUNT>  (1) 
1

>  <PUBCHEM_CONFORMER_ID>  (1) 
00006A9F00000002

>  <PUBCHEM_MMFF94_ENERGY>  (1) 
74.9375

>  <PUBCHEM_FEATURE_SELFOVERLAP>  (1) 
45.859

>  <PUBCHEM_SHAPE_FINGERPRINT>  (1) 
10319926 262 18410004460573979266
10493431 412 18335423448115201269
10692045 39 18194955254383952018
11405975 8 18409164403520169962
11796584 16 9077745562411954540
12236239 1 17022901289322257982
12403259 118 18196924686120624272
12616971 3 16588023550380100150
12633257 1 18113897195436212804
12730499 353 17846504716103445206
12788726 201 17535210039244863339
14178342 30 18187088398589108786
14341114 328 16660658340050320365
14787075 74 18272646845008053149
15375358 24 18131069346589985060
17870717 6 9222963602961449696
17980427 26 18124584289486533223
19862831 5 14045734928735506004
20374829 77 9007053569761853469
20645477 56 18407759231347983276
20645477 70 17203619159921640422
21033648 29 18188774929283019557
212916 134 18335698329963697683
21401589 2 18343587339173388897
21618674 25 18271807891270105687
22224240 67 18408610232643282785
23402655 69 16845570894479975444
23503953 91 17968096451834688196
23557571 272 18340497771771363406
23559900 14 18337970995256431142
27216 239 18129373959552210702
2838139 119 17418371355247217392
2916195 48 18272647935249407245
495365 180 17846212207693620830
5104073 3 18337678524730841379
53917941 68 18335689534714798863
58807428 26 18113339674147484155
59755656 520 18410568479061913614
633830 44 18056757633508942389
7808743 9 18334861644949982484
9981440 41 18188214196022729411

>  <PUBCHEM_SHAPE_MULTIPOLES>  (1) 
412.2
11.39
2.51
1.32
7.11
1.63
-0.06
-8.68
-2.72
-2.86
-0.71
0.76
-0.1
1.18

>  <PUBCHEM_SHAPE_SELFOVERLAP>  (1) 
900.617

>  <PUBCHEM_SHAPE_VOLUME>  (1) 
224.6

>  <PUBCHEM_COORDINATE_TYPE>  (1) 
2
5
10

$$$$
