27306
     RDKit          3D

 15 15  0  0  0  0  0  0  0  0999 V2000
   -0.0180    4.3035    0.0034 Cl  0  0  0  0  0  0  0  0  0  0  0  0
    2.3286   -0.0478    0.2030 N   0  0  0  0  0  0  0  0  0  0  0  0
   -2.3442   -0.0579   -0.2049 N   0  0  0  0  0  0  0  0  0  0  0  0
   -0.0077   -0.0855   -0.0010 N   0  0  0  0  0  0  0  0  0  0  0  0
   -1.2074    1.9901   -0.1047 N   0  0  0  0  0  0  0  0  0  0  0  0
    1.1829    1.9952    0.1040 N   0  0  0  0  0  0  0  0  0  0  0  0
    2.4278   -1.4860    0.2110 C   0  0  0  0  0  0  0  0  0  0  0  0
   -2.4129   -1.4856   -0.2114 C   0  0  0  0  0  0  0  0  0  0  0  0
    1.1301    0.6422    0.0987 C   0  0  0  0  0  0  0  0  0  0  0  0
   -1.1271    0.6497   -0.0985 C   0  0  0  0  0  0  0  0  0  0  0  0
    3.8666   -1.8701    0.3412 C   0  0  0  0  0  0  0  0  0  0  0  0
   -3.8435   -1.8996   -0.3413 C   0  0  0  0  0  0  0  0  0  0  0  0
   -0.0136    2.5956   -0.0003 C   0  0  0  0  0  0  0  0  0  0  0  0
    4.5292   -2.6009   -0.5627 C   0  0  0  0  0  0  0  0  0  0  0  0
   -4.4909   -2.6430    0.5633 C   0  0  0  0  0  0  0  0  0  0  0  0
  1 13  1  0
  2  7  1  0
  2  9  1  0
  3  8  1  0
  3 10  1  0
  4  9  2  0
  4 10  1  0
  5 10  2  0
  5 13  1  0
  6  9  1  0
  6 13  2  0
  7 11  1  0
  8 12  1  0
 11 14  2  0
 12 15  2  0
M  END
>  <PUBCHEM_COMPOUND_CID>  (1) 
27306

>  <PUBCHEM_CONFORMER_RMSD>  (1) 
0.8

>  <PUBCHEM_CONFORMER_DIVERSEORDER>  (1) 
1
7
16
21
4
11
10
12
6
23
20
22
18
8
17
19
5
3
9
14
15
2
13

>  <PUBCHEM_MMFF94_PARTIAL_CHARGES>  (1) 
23
1 -0.18
10 0.72
11 -0.29
12 -0.29
13 0.8
14 -0.3
15 -0.3
2 -0.87
20 0.4
21 0.4
22 0.15
23 0.15
24 0.15
25 0.15
26 0.15
27 0.15
3 -0.87
4 -0.62
5 -0.62
6 -0.62
7 0.51
8 0.51
9 0.72

>  <PUBCHEM_EFFECTIVE_ROTOR_COUNT>  (1) 
6

>  <PUBCHEM_PHARMACOPHORE_FEATURES>  (1) 
7
1 14 hydrophobe
1 15 hydrophobe
1 2 donor
1 3 donor
4 2 4 6 9 cation
4 3 4 5 10 cation
6 4 5 6 9 10 13 rings

>  <PUBCHEM_HEAVY_ATOM_COUNT>  (1) 
15

>  <PUBCHEM_ATOM_DEF_STEREO_COUNT>  (1) 
0

>  <PUBCHEM_ATOM_UDEF_STEREO_COUNT>  (1) 
0

>  <PUBCHEM_BOND_DEF_STEREO_COUNT>  (1) 
0

>  <PUBCHEM_BOND_UDEF_STEREO_COUNT>  (1) 
0

>  <PUBCHEM_ISOTOPIC_ATOM_COUNT>  (1) 
0

>  <PUBCHEM_COMPONENT_COUNT>  (1) 
1

>  <PUBCHEM_CACTVS_TAUTO_COUNT>  (1) 
5

>  <PUBCHEM_CONFORMER_ID>  (1) 
00006AAA00000001

>  <PUBCHEM_MMFF94_ENERGY>  (1) 
32.4655

>  <PUBCHEM_FEATURE_SELFOVERLAP>  (1) 
35.563

>  <PUBCHEM_SHAPE_FINGERPRINT>  (1) 
10616163 171 18123750851304614582
12107183 9 18341628010117934611
12500047 106 17691118237390138550
12841375 25 18410291427869758407
13533116 47 18122068869592896939
13955234 65 17979640366201435403
14251731 5 18410576188475533379
14252887 29 18339636870840548370
15042514 8 18267028241373002633
15442244 35 18412267272488521977
17539 30 18195514909558919157
17859628 70 17977672227376707235
20645477 70 18047454906419252807
20671657 53 18411985797021441059
20871998 22 18411696629473083496
21426921 1 18194684761743708950
21452121 199 18335692867139830688
21665056 4 17473540253071441830
221490 88 18262801907649540195
2255824 54 17979074117328060405
22849339 104 17908157477210504518
23530152 11 17184469265773123701
23557571 272 17841995490743883574
23559900 14 17623278374705773962
2748010 2 18268408235534465564
3071541 250 18337111271172332871
3091708 16 9281325658435924481
3421961 26 18339642372846674051
4416823 128 18410573993778835183
458136 41 17687754152447141053
54173680 148 18266737987135278016
57003041 14 18260824912844016549
7364860 26 18122623031103655257
77188 2 18410855485930016949
9709674 26 17839739262687567142

>  <PUBCHEM_SHAPE_MULTIPOLES>  (1) 
285.66
7.44
4.85
0.67
0.23
4.85
0
-12.33
-0.01
-0.12
0.01
0
-0.16
0.49

>  <PUBCHEM_SHAPE_SELFOVERLAP>  (1) 
560.929

>  <PUBCHEM_SHAPE_VOLUME>  (1) 
167.5

>  <PUBCHEM_COORDINATE_TYPE>  (1) 
2
5
10

$$$$
