27323
     RDKit          3D

 21 23  0  0  0  0  0  0  0  0999 V2000
    0.6899   -1.0618    0.0366 O   0  0  0  0  0  0  0  0  0  0  0  0
    4.3611   -1.1426    0.2096 N   0  0  0  0  0  0  0  0  0  0  0  0
   -0.2721   -0.3406   -0.7368 C   0  0  0  0  0  0  0  0  0  0  0  0
   -0.0986    1.1432   -0.4929 C   0  0  0  0  0  0  0  0  0  0  0  0
   -1.6812   -0.8348   -0.4736 C   0  0  0  0  0  0  0  0  0  0  0  0
   -0.3541    1.7335    0.7612 C   0  0  0  0  0  0  0  0  0  0  0  0
   -2.3008   -0.7008    0.7850 C   0  0  0  0  0  0  0  0  0  0  0  0
    2.0131   -0.6946   -0.3178 C   0  0  0  0  0  0  0  0  0  0  0  0
    2.9861   -1.4752    0.5513 C   0  0  0  0  0  0  0  0  0  0  0  0
    0.3511    1.9541   -1.5510 C   0  0  0  0  0  0  0  0  0  0  0  0
   -2.3825   -1.4645   -1.5178 C   0  0  0  0  0  0  0  0  0  0  0  0
   -0.8082    0.9714    1.9350 C   0  0  0  0  0  0  0  0  0  0  0  0
   -1.6460   -0.0765    1.9452 C   0  0  0  0  0  0  0  0  0  0  0  0
   -0.1267    3.1100    0.9307 C   0  0  0  0  0  0  0  0  0  0  0  0
   -3.5915   -1.2242    0.9732 C   0  0  0  0  0  0  0  0  0  0  0  0
    0.5556    3.3213   -1.3710 C   0  0  0  0  0  0  0  0  0  0  0  0
   -3.6691   -1.9634   -1.3195 C   0  0  0  0  0  0  0  0  0  0  0  0
    0.3198    3.8987   -0.1293 C   0  0  0  0  0  0  0  0  0  0  0  0
   -4.2724   -1.8462   -0.0731 C   0  0  0  0  0  0  0  0  0  0  0  0
    4.6270   -1.4256   -1.2030 C   0  0  0  0  0  0  0  0  0  0  0  0
    5.2994   -1.8813    1.0581 C   0  0  0  0  0  0  0  0  0  0  0  0
  1  3  1  0
  1  8  1  0
  2  9  1  0
  2 20  1  0
  2 21  1  0
  3  4  1  0
  3  5  1  0
  4  6  2  0
  4 10  1  0
  5  7  2  0
  5 11  1  0
  6 12  1  0
  6 14  1  0
  7 13  1  0
  7 15  1  0
  8  9  1  0
 10 16  2  0
 11 17  2  0
 12 13  2  0
 14 18  2  0
 15 19  2  0
 16 18  1  0
 17 19  1  0
M  END
>  <PUBCHEM_COMPOUND_CID>  (1) 
27323

>  <PUBCHEM_CONFORMER_RMSD>  (1) 
0.6

>  <PUBCHEM_CONFORMER_DIVERSEORDER>  (1) 
2
10
13
6
12
4
11
8
7
5
3
1
9

>  <PUBCHEM_MMFF94_PARTIAL_CHARGES>  (1) 
31
1 -0.56
10 -0.15
11 -0.15
12 -0.18
13 -0.18
14 -0.15
15 -0.15
16 -0.15
17 -0.15
18 -0.15
19 -0.15
2 -0.81
20 0.27
21 0.27
27 0.15
28 0.15
29 0.15
3 0.57
30 0.15
31 0.15
32 0.15
33 0.15
34 0.15
35 0.15
36 0.15
4 -0.14
5 -0.14
6 0.03
7 0.03
8 0.28
9 0.27

>  <PUBCHEM_EFFECTIVE_ROTOR_COUNT>  (1) 
4.2

>  <PUBCHEM_PHARMACOPHORE_FEATURES>  (1) 
5
1 1 acceptor
1 2 cation
6 4 6 10 14 16 18 rings
6 5 7 11 15 17 19 rings
7 3 4 5 6 7 12 13 rings

>  <PUBCHEM_HEAVY_ATOM_COUNT>  (1) 
21

>  <PUBCHEM_ATOM_DEF_STEREO_COUNT>  (1) 
0

>  <PUBCHEM_ATOM_UDEF_STEREO_COUNT>  (1) 
0

>  <PUBCHEM_BOND_DEF_STEREO_COUNT>  (1) 
0

>  <PUBCHEM_BOND_UDEF_STEREO_COUNT>  (1) 
0

>  <PUBCHEM_ISOTOPIC_ATOM_COUNT>  (1) 
0

>  <PUBCHEM_COMPONENT_COUNT>  (1) 
1

>  <PUBCHEM_CACTVS_TAUTO_COUNT>  (1) 
1

>  <PUBCHEM_CONFORMER_ID>  (1) 
00006ABB00000002

>  <PUBCHEM_MMFF94_ENERGY>  (1) 
70.6565

>  <PUBCHEM_FEATURE_SELFOVERLAP>  (1) 
25.388

>  <PUBCHEM_SHAPE_FINGERPRINT>  (1) 
10369192 42 16630237113707176936
10764073 3 16270819818069276089
10989021 7 18411987983249212180
11045515 52 18333444339806239118
11101153 10 18334298670028370340
11265709 11 18410019822796134579
11578080 2 18201423814165300817
12553582 1 18410019831629305414
12788726 201 17899961760280700993
13004483 165 18338508621655296179
13009979 54 17916882329636598883
13134695 92 18338513165925608005
13149001 5 17896605183099111131
133893 2 18119825847789719045
13681431 1 18262230152754595188
13911987 19 17895209826177785878
14181834 199 18126284374833095125
14251757 17 16009030622333899326
14817 1 9428527192862530409
14840074 17 17759492841249001328
14910302 57 17772482200946539966
16945 1 18122342655844268221
17980427 23 17561366192988425177
1813 80 18341620329803591094
18222031 100 18342739645568000790
18769570 83 18191019015720172789
18915476 22 17608382555110202469
19765921 60 17264703885332832449
200 152 17822010883066625434
20600515 1 18273498995809085927
20671657 53 18335699481110034615
21304303 282 17249730323473779196
21452121 71 18130230470399098547
21524375 3 17181087731031831336
22112679 90 18127439845436939100
2306618 200 18128243485790047730
23175994 123 18260548935336156887
23419403 2 17843371138103043849
23526113 38 17241329216870845769
23559900 14 18192417787964008883
283562 15 18262230007158516426
3027735 51 18043241336699953010
6786 2 8700653823779579337
81228 2 18120944909971249133

>  <PUBCHEM_SHAPE_MULTIPOLES>  (1) 
421.32
7.43
3.89
1.73
7.26
4.88
0.2
-10.26
0.22
1.08
-0.69
-0.48
0.22
-1.1

>  <PUBCHEM_SHAPE_SELFOVERLAP>  (1) 
904.087

>  <PUBCHEM_SHAPE_VOLUME>  (1) 
231.7

>  <PUBCHEM_COORDINATE_TYPE>  (1) 
2
5
10

$$$$
