27328
     RDKit          3D

 25 25  0  0  0  0  0  0  0  0999 V2000
    0.0315    2.9870    0.2754 Cl  0  0  0  0  0  0  0  0  0  0  0  0
   -0.5403   -2.1888   -1.3693 Cl  0  0  0  0  0  0  0  0  0  0  0  0
   -4.2213    0.3256    1.0630 O   0  0  0  0  0  0  0  0  0  0  0  0
    3.1612    0.5830   -1.2581 O   0  0  0  0  0  0  0  0  0  0  0  0
    2.2827    0.8812    0.8322 O   0  0  0  0  0  0  0  0  0  0  0  0
    6.3930   -0.3660    0.2467 N   0  0  0  0  0  0  0  0  0  0  0  0
    0.9319    0.4207   -1.0271 N   0  0  0  0  0  0  0  0  0  0  0  0
    5.0500   -0.5363   -0.2873 C   0  0  0  0  0  0  0  0  0  0  0  0
    7.3661   -0.2113   -0.8375 C   0  0  0  0  0  0  0  0  0  0  0  0
    6.7604   -1.5006    1.0974 C   0  0  0  0  0  0  0  0  0  0  0  0
   -7.6141   -0.7942   -0.0996 C   0  0  0  0  0  0  0  0  0  0  0  0
   -6.5533    0.0639    0.5861 C   0  0  0  0  0  0  0  0  0  0  0  0
    4.4728    0.8004   -0.7250 C   0  0  0  0  0  0  0  0  0  0  0  0
   -9.0046   -0.1748    0.0382 C   0  0  0  0  0  0  0  0  0  0  0  0
   -5.1595   -0.5242    0.4176 C   0  0  0  0  0  0  0  0  0  0  0  0
    8.7619    0.0363   -0.2911 C   0  0  0  0  0  0  0  0  0  0  0  0
    5.7651   -1.6819    2.2308 C   0  0  0  0  0  0  0  0  0  0  0  0
  -10.0588   -1.0089   -0.6722 C   0  0  0  0  0  0  0  0  0  0  0  0
   -2.9513    0.3492    0.5477 C   0  0  0  0  0  0  0  0  0  0  0  0
   -0.3665    0.3968   -0.5009 C   0  0  0  0  0  0  0  0  0  0  0  0
   -2.1787    1.5061    0.6494 C   0  0  0  0  0  0  0  0  0  0  0  0
   -2.4316   -0.7838   -0.0783 C   0  0  0  0  0  0  0  0  0  0  0  0
    2.1288    0.6507   -0.3610 C   0  0  0  0  0  0  0  0  0  0  0  0
   -0.8863    1.5298    0.1251 C   0  0  0  0  0  0  0  0  0  0  0  0
   -1.1392   -0.7599   -0.6025 C   0  0  0  0  0  0  0  0  0  0  0  0
  1 24  1  0
  2 25  1  0
  3 15  1  0
  3 19  1  0
  4 13  1  0
  4 23  1  0
  5 23  2  0
  6  8  1  0
  6  9  1  0
  6 10  1  0
  7 20  1  0
  7 23  1  0
  8 13  1  0
  9 16  1  0
 10 17  1  0
 11 12  1  0
 11 14  1  0
 12 15  1  0
 14 18  1  0
 19 21  2  0
 19 22  1  0
 20 24  2  0
 20 25  1  0
 21 24  1  0
 22 25  2  0
M  END
>  <PUBCHEM_COMPOUND_CID>  (1) 
27328

>  <PUBCHEM_CONFORMER_RMSD>  (1) 
1.2

>  <PUBCHEM_CONFORMER_DIVERSEORDER>  (1) 
4
21
5
23
34
35
32
46
38
37
10
18
2
13
6
1
42
25
44
33
17
16
11
3
45
8
41
26
20
12
29
24
43
28
19
7
9
27
30
39
14
15
40
36
31
22

>  <PUBCHEM_MMFF94_PARTIAL_CHARGES>  (1) 
22
1 -0.18
10 0.27
13 0.28
15 0.28
19 0.08
2 -0.18
20 0.12
21 -0.15
22 -0.15
23 0.78
24 0.18
25 0.18
3 -0.36
4 -0.43
5 -0.57
51 0.15
52 0.15
53 0.37
6 -0.81
7 -0.55
8 0.27
9 0.27

>  <PUBCHEM_EFFECTIVE_ROTOR_COUNT>  (1) 
13

>  <PUBCHEM_PHARMACOPHORE_FEATURES>  (1) 
6
1 18 hydrophobe
1 3 acceptor
1 5 acceptor
1 6 cation
1 7 donor
6 19 20 21 22 24 25 rings

>  <PUBCHEM_HEAVY_ATOM_COUNT>  (1) 
25

>  <PUBCHEM_ATOM_DEF_STEREO_COUNT>  (1) 
0

>  <PUBCHEM_ATOM_UDEF_STEREO_COUNT>  (1) 
0

>  <PUBCHEM_BOND_DEF_STEREO_COUNT>  (1) 
0

>  <PUBCHEM_BOND_UDEF_STEREO_COUNT>  (1) 
0

>  <PUBCHEM_ISOTOPIC_ATOM_COUNT>  (1) 
0

>  <PUBCHEM_COMPONENT_COUNT>  (1) 
1

>  <PUBCHEM_CACTVS_TAUTO_COUNT>  (1) 
2

>  <PUBCHEM_CONFORMER_ID>  (1) 
00006AC000000004

>  <PUBCHEM_MMFF94_ENERGY>  (1) 
62.4014

>  <PUBCHEM_FEATURE_SELFOVERLAP>  (1) 
30.446

>  <PUBCHEM_SHAPE_FINGERPRINT>  (1) 
10 15 15482669087322059094
106641 1 16702583835171979368
11638347 137 16056887909625727086
12236239 1 18113622253363169872
13533116 47 18040437694498508264
13862211 1 18342745126325636549
13885169 127 17167859734139300765
13914758 101 17676487207858119837
14216079 64 17458341922936929786
14251764 18 18409735049537670128
14251764 46 16805323305884080831
15510794 2 16153715340738130513
15690457 1 18412262835033080463
16120349 18 18337955692441059156
16728300 4 18117544133671703466
18006028 8 18411140237987951373
18335252 98 13470695836698765341
19841028 212 17603579695606147626
20735858 18 17704356563325517407
21792934 111 18343297084951943137
22224240 67 15698282209728051269
23559900 14 17096095808400909841
28498 318 17312820472664064039
3092352 35 10303813172956794973
335352 9 18342461473631604717
3633792 109 16877941612260915521
4340502 62 13038916521260708981
474113 269 18261668178075436803
5758199 1 8286204942531443381
58083652 198 18336557100433518561
59682541 35 15769774676475394751

>  <PUBCHEM_SHAPE_MULTIPOLES>  (1) 
490.66
27.73
1.88
1.25
21.37
0.71
-0.35
-11.89
-1.3
-0.43
-0.14
-1.67
-0.5
-1.94

>  <PUBCHEM_SHAPE_SELFOVERLAP>  (1) 
957.343

>  <PUBCHEM_SHAPE_VOLUME>  (1) 
297.9

>  <PUBCHEM_COORDINATE_TYPE>  (1) 
2
5
10

$$$$
