27334
     RDKit          3D

 40 45  0  0  1  0  0  0  0  0999 V2000
    4.0769   -1.4622   -0.1984 O   0  0  0  0  0  0  0  0  0  0  0  0
   -2.2123   -1.1393    1.1234 O   0  0  0  0  0  0  0  0  0  0  0  0
   -3.7102    0.8452   -0.2701 O   0  0  0  0  0  0  0  0  0  0  0  0
   -0.4564   -1.0603    3.0222 O   0  0  0  0  0  0  0  0  0  0  0  0
    8.5934   -0.2056    0.1964 O   0  0  0  0  0  0  0  0  0  0  0  0
   -5.7939    1.3746   -1.2700 O   0  0  0  0  0  0  0  0  0  0  0  0
    8.6339   -2.2125   -0.9290 O   0  0  0  0  0  0  0  0  0  0  0  0
   -5.9319   -1.4507   -1.9939 O   0  0  0  0  0  0  0  0  0  0  0  0
   -6.6257   -2.2316    0.6235 O   0  0  0  0  0  0  0  0  0  0  0  0
   -8.1200   -0.2948   -0.7007 O   0  0  0  0  0  0  0  0  0  0  0  0
    3.3228   -0.2426   -0.2713 C   0  0  0  0  0  0  0  0  0  0  0  0
    1.9158   -0.5077    0.3315 C   0  0  0  0  0  0  0  0  0  0  0  0
    4.1004    0.9092    0.4207 C   0  0  0  0  0  0  0  0  0  0  0  0
    1.0523    0.7741    0.4913 C   0  0  0  0  0  0  0  0  0  0  0  0
   -0.3462    0.4673    1.1469 C   0  0  0  0  0  0  0  0  0  0  0  0
   -1.0876   -0.6675    0.3630 C   0  0  0  0  0  0  0  0  0  0  0  0
    5.2406    1.2247   -0.5988 C   0  0  0  0  0  0  0  0  0  0  0  0
    3.1913    2.1600    0.5556 C   0  0  0  0  0  0  0  0  0  0  0  0
    1.8499    1.8711    1.2259 C   0  0  0  0  0  0  0  0  0  0  0  0
    3.3214    0.1686   -1.7553 C   0  0  0  0  0  0  0  0  0  0  0  0
    1.1599   -1.5867   -0.4650 C   0  0  0  0  0  0  0  0  0  0  0  0
   -0.1970   -1.9048    0.1470 C   0  0  0  0  0  0  0  0  0  0  0  0
    4.5930    0.9999   -1.9782 C   0  0  0  0  0  0  0  0  0  0  0  0
   -1.2566    1.7244    1.2278 C   0  0  0  0  0  0  0  0  0  0  0  0
   -1.6258   -0.1631   -1.0036 C   0  0  0  0  0  0  0  0  0  0  0  0
    4.6410    0.5375    1.8162 C   0  0  0  0  0  0  0  0  0  0  0  0
   -1.7443    2.2127   -0.1353 C   0  0  0  0  0  0  0  0  0  0  0  0
   -2.4649    1.1153   -0.9096 C   0  0  0  0  0  0  0  0  0  0  0  0
   -0.1265    0.0378    2.5865 C   0  0  0  0  0  0  0  0  0  0  0  0
    6.4883    0.3988   -0.4700 C   0  0  0  0  0  0  0  0  0  0  0  0
    7.6380    0.8507    0.3396 C   0  0  0  0  0  0  0  0  0  0  0  0
    6.7290   -0.7840   -1.0290 C   0  0  0  0  0  0  0  0  0  0  0  0
   -4.7025    0.4482   -1.2113 C   0  0  0  0  0  0  0  0  0  0  0  0
    8.0743   -1.1782   -0.6081 C   0  0  0  0  0  0  0  0  0  0  0  0
   -5.1914   -0.9626   -0.8765 C   0  0  0  0  0  0  0  0  0  0  0  0
   -6.0634   -0.9470    0.3830 C   0  0  0  0  0  0  0  0  0  0  0  0
   -6.5609    1.4625   -0.0614 C   0  0  0  0  0  0  0  0  0  0  0  0
   -7.1753    0.1007    0.2929 C   0  0  0  0  0  0  0  0  0  0  0  0
   -7.6093    2.5492   -0.2712 C   0  0  0  0  0  0  0  0  0  0  0  0
   -5.6202   -3.2312    0.7133 C   0  0  0  0  0  0  0  0  0  0  0  0
  1 11  1  0
  2 16  1  0
  3 28  1  0
  3 33  1  0
  4 29  2  0
  5 31  1  0
  5 34  1  0
  6 33  1  0
  6 37  1  0
  7 34  2  0
  8 35  1  0
  9 36  1  0
  9 40  1  0
 10 38  1  0
 11 12  1  0
 11 13  1  0
 11 20  1  0
 12 14  1  0
 12 21  1  0
 13 17  1  0
 13 18  1  0
 13 26  1  0
 14 15  1  0
 14 19  1  0
 15 16  1  0
 15 24  1  0
 15 29  1  0
 16 22  1  0
 16 25  1  0
 17 23  1  0
 17 30  1  0
 18 19  1  0
 20 23  1  0
 21 22  1  0
 24 27  1  0
 25 28  1  0
 27 28  1  0
 30 31  1  0
 30 32  2  0
 32 34  1  0
 33 35  1  0
 35 36  1  0
 36 38  1  0
 37 38  1  0
 37 39  1  0
M  END
>  <PUBCHEM_COMPOUND_CID>  (1) 
27334

>  <PUBCHEM_CONFORMER_RMSD>  (1) 
1

>  <PUBCHEM_CONFORMER_DIVERSEORDER>  (1) 
2
299
178
313
384
334
152
267
175
150
318
294
191
379
275
157
145
193
380
366
237
229
148
226
172
225
216
244
15
47
253
308
88
201
159
303
222
164
265
158
242
25
99
112
310
309
122
92
60
341
118
243
200
58
356
247
351
361
101
283
305
86
205
257
245
64
251
319
383
151
142
291
208
16
316
321
252
7
328
390
29
168
239
297
48
368
195
270
266
238
392
12
285
286
42
219
333
134
69
293
154
203
377
363
19
287
115
323
144
113
339
81
212
295
74
59
320
162
259
278
346
199
345
119
194
353
169
166
71
78
104
401
129
281
282
209
337
399
137
13
264
114
232
262
109
236
141
210
233
369
161
391
254
389
317
398
342
37
163
322
387
357
67
83
106
196
38
241
181
381
261
124
221
220
231
95
111
329
146
312
371
223
132
85
350
394
365
234
364
331
183
173
246
170
120
276
167
325
184
301
103
386
147
1
347
130
18
53
336
343
187
21
376
382
235
22
217
180
135
279
156
108
188
179
314
35
362
263
330
348
11
51
335
176
84
138
367
280
302
374
189
52
89
76
327
153
304
230
190
116
400
143
228
206
211
33
28
131
388
385
182
298
198
100
140
45
224
105
255
82
98
20
292
338
373
378
352
165
127
306
349
126
14
79
6
397
289
93
396
359
202
128
256
260
375
324
77
80
240
370
340
274
97
75
395
290
311
10
46
248
44
300
160
355
91
32
41
344
36
34
268
360
296
68
27
214
121
123
30
40
177
149
62
249
332
218
204
54
56
393
3
9
273
94
43
250
139
63
215
136
186
50
8
87
227
155
66
55
171
5
326
107
354
39
102
96
90
61
277
272
284
125
73
49
307
4
57
24
207
23
185
72
372
26
258
110
358
197
70
213
271
174
31
65
288
192
133
315
269
117
17

>  <PUBCHEM_MMFF94_PARTIAL_CHARGES>  (1) 
32
1 -0.68
10 -0.68
11 0.28
15 0.06
16 0.28
17 0.14
2 -0.68
28 0.28
29 0.45
3 -0.56
30 -0.28
31 0.42
32 -0.14
33 0.56
34 0.71
35 0.28
36 0.28
37 0.28
38 0.28
4 -0.57
40 0.28
5 -0.43
6 -0.56
66 0.4
67 0.06
68 0.4
7 -0.57
71 0.15
77 0.4
8 -0.68
81 0.4
9 -0.56

>  <PUBCHEM_EFFECTIVE_ROTOR_COUNT>  (1) 
8.8

>  <PUBCHEM_PHARMACOPHORE_FEATURES>  (1) 
19
1 1 acceptor
1 1 donor
1 10 acceptor
1 10 donor
1 2 acceptor
1 2 donor
1 3 acceptor
1 4 acceptor
1 6 acceptor
1 7 acceptor
1 8 acceptor
1 8 donor
1 9 acceptor
5 11 13 17 20 23 rings
5 5 30 31 32 34 rings
6 11 12 13 14 18 19 rings
6 12 14 15 16 21 22 rings
6 15 16 24 25 27 28 rings
6 6 33 35 36 37 38 rings

>  <PUBCHEM_HEAVY_ATOM_COUNT>  (1) 
40

>  <PUBCHEM_ATOM_DEF_STEREO_COUNT>  (1) 
8

>  <PUBCHEM_ATOM_UDEF_STEREO_COUNT>  (1) 
5

>  <PUBCHEM_BOND_DEF_STEREO_COUNT>  (1) 
0

>  <PUBCHEM_BOND_UDEF_STEREO_COUNT>  (1) 
0

>  <PUBCHEM_ISOTOPIC_ATOM_COUNT>  (1) 
0

>  <PUBCHEM_COMPONENT_COUNT>  (1) 
1

>  <PUBCHEM_CACTVS_TAUTO_COUNT>  (1) 
1

>  <PUBCHEM_CONFORMER_ID>  (1) 
00006AC600000002

>  <PUBCHEM_MMFF94_ENERGY>  (1) 
144.6149

>  <PUBCHEM_FEATURE_SELFOVERLAP>  (1) 
96.738

>  <PUBCHEM_SHAPE_FINGERPRINT>  (1) 
10 15 8646768889712140012
10930396 42 12175330358767274926
11135926 11 16988851562131787111
11672396 43 18201450151500534254
11828532 37 18337117877269773588
12107698 1 17275385396094576888
12166972 35 18409450297928810956
13782708 43 18128817628254630035
13811026 1 18410573989446418435
13914758 101 18113620080046174242
14251764 18 9727628406065427849
14294032 229 17895470311427885557
14856354 85 18040996276660041743
150020 25 18413387631111995172
15183329 4 17988921167794736709
1577012 14 17313095332979766705
18608769 82 18410011056767850991
19841028 212 18337108944319073122
21033648 29 18042399296410119432
21781051 124 18335708281677612746
21792961 116 18060138700030077807
22224240 67 9511457823581840556
23559900 14 18200586012443595064
23569917 315 18340496590978260326
2838139 119 16587743148570499733
335507 130 18040722472188752175
3633792 109 18341897342863077794
4098825 35 18259704510326617758
4169191 19 11386364833251812791
4173938 77 14563105787105485318
4258327 124 15792315772656078910
4325135 7 17675923205690198853
474113 269 18270119003757845430
484989 97 18338241564983940698
5219985 9 15410891855663963304
58083652 198 15554438617914040251
59755656 520 16732982054609721282
9962374 69 16056584487303232645

>  <PUBCHEM_SHAPE_MULTIPOLES>  (1) 
764.49
24.36
2.38
1.73
3.39
0.49
-0.63
4.13
7.1
-2.56
-0.19
0.13
0.06
1.44

>  <PUBCHEM_SHAPE_SELFOVERLAP>  (1) 
1651.495

>  <PUBCHEM_SHAPE_VOLUME>  (1) 
414.7

>  <PUBCHEM_COORDINATE_TYPE>  (1) 
2
5
10

$$$$
