2733
     RDKit          3D

 11 12  0  0  0  0  0  0  0  0999 V2000
    3.7901    0.8156    0.0006 Cl  0  0  0  0  0  0  0  0  0  0  0  0
   -1.7579   -1.0498    0.0001 O   0  0  0  0  0  0  0  0  0  0  0  0
   -3.5653    0.3933    0.0004 O   0  0  0  0  0  0  0  0  0  0  0  0
   -1.3857    1.2181    0.0000 N   0  0  0  0  0  0  0  0  0  0  0  0
   -0.1613    0.6046   -0.0005 C   0  0  0  0  0  0  0  0  0  0  0  0
   -0.4040   -0.7522   -0.0003 C   0  0  0  0  0  0  0  0  0  0  0  0
    1.1072    1.1386   -0.0004 C   0  0  0  0  0  0  0  0  0  0  0  0
    0.6280   -1.6655   -0.0002 C   0  0  0  0  0  0  0  0  0  0  0  0
    2.1692    0.2311   -0.0002 C   0  0  0  0  0  0  0  0  0  0  0  0
   -2.3522    0.2252    0.0002 C   0  0  0  0  0  0  0  0  0  0  0  0
    1.9319   -1.1590    0.0002 C   0  0  0  0  0  0  0  0  0  0  0  0
  1  9  1  0
  2  6  1  0
  2 10  1  0
  3 10  2  0
  4  5  1  0
  4 10  1  0
  5  6  2  0
  5  7  1  0
  6  8  1  0
  7  9  2  0
  8 11  2  0
  9 11  1  0
M  END
>  <PUBCHEM_COMPOUND_CID>  (1) 
2733

>  <PUBCHEM_CONFORMER_RMSD>  (1) 
0.4

>  <PUBCHEM_CONFORMER_DIVERSEORDER>  (1) 
1

>  <PUBCHEM_MMFF94_PARTIAL_CHARGES>  (1) 
15
1 -0.18
10 0.78
11 -0.15
12 0.37
13 0.15
14 0.15
15 0.15
2 -0.23
3 -0.57
4 -0.55
5 0.12
6 0.08
7 -0.15
8 -0.15
9 0.18

>  <PUBCHEM_EFFECTIVE_ROTOR_COUNT>  (1) 
0

>  <PUBCHEM_PHARMACOPHORE_FEATURES>  (1) 
4
1 3 acceptor
1 4 donor
5 2 4 5 6 10 rings
6 5 6 7 8 9 11 rings

>  <PUBCHEM_HEAVY_ATOM_COUNT>  (1) 
11

>  <PUBCHEM_ATOM_DEF_STEREO_COUNT>  (1) 
0

>  <PUBCHEM_ATOM_UDEF_STEREO_COUNT>  (1) 
0

>  <PUBCHEM_BOND_DEF_STEREO_COUNT>  (1) 
0

>  <PUBCHEM_BOND_UDEF_STEREO_COUNT>  (1) 
0

>  <PUBCHEM_ISOTOPIC_ATOM_COUNT>  (1) 
0

>  <PUBCHEM_COMPONENT_COUNT>  (1) 
1

>  <PUBCHEM_CACTVS_TAUTO_COUNT>  (1) 
2

>  <PUBCHEM_CONFORMER_ID>  (1) 
00000AAD00000001

>  <PUBCHEM_MMFF94_ENERGY>  (1) 
30.2828

>  <PUBCHEM_FEATURE_SELFOVERLAP>  (1) 
20.413

>  <PUBCHEM_SHAPE_FINGERPRINT>  (1) 
10219947 1 18260550017435579500
11471102 20 18410569544566847317
12897270 3 18411419505329911700
13380535 76 18409729577570376714
14325111 11 18410856551092163424
15775835 57 18341614827881620372
16945 1 18410575088989720708
193761 8 17834114139450234404
20645477 70 18267860593414219159
20871998 184 18056766652581892534
21040471 1 18338517555355719458
23235685 24 18409724084359699264
23402655 69 18341317904662108949
23463225 33 18334289838984649010
23552423 10 18263365776462088718
2748010 2 18193274079181320068
369184 2 16298380279678902120
5084963 1 18271525295164265448
528886 8 18411132558675668274
53812653 166 18343297102437208736
7364860 26 18270680845039816750

>  <PUBCHEM_SHAPE_MULTIPOLES>  (1) 
211.52
4.85
1.49
0.6
0.19
0.37
0
-1.4
0
0.31
0
0.08
0
0

>  <PUBCHEM_SHAPE_SELFOVERLAP>  (1) 
457.717

>  <PUBCHEM_SHAPE_VOLUME>  (1) 
118.7

>  <PUBCHEM_COORDINATE_TYPE>  (1) 
2
5
10

$$$$
