27341
     RDKit          3D

 23 25  0  0  0  0  0  0  0  0999 V2000
    2.9339    3.6258    1.6335 Cl  0  0  0  0  0  0  0  0  0  0  0  0
   -0.5217   -2.8163    0.1860 O   0  0  0  0  0  0  0  0  0  0  0  0
    0.4922   -0.7335    0.3758 N   0  0  0  0  0  0  0  0  0  0  0  0
   -1.4999    0.8010   -1.1722 N   0  0  0  0  0  0  0  0  0  0  0  0
    4.0515   -1.7349   -0.2328 N   0  0  0  0  0  0  0  0  0  0  0  0
    1.7872   -1.3836    0.6214 C   0  0  0  0  0  0  0  0  0  0  0  0
    0.4945    0.7045    0.2869 C   0  0  0  0  0  0  0  0  0  0  0  0
   -0.4225    1.4267   -0.5093 C   0  0  0  0  0  0  0  0  0  0  0  0
    2.7666   -1.1058   -0.5095 C   0  0  0  0  0  0  0  0  0  0  0  0
   -2.4238    0.0085   -0.4719 C   0  0  0  0  0  0  0  0  0  0  0  0
   -1.9987   -1.0698    0.3082 C   0  0  0  0  0  0  0  0  0  0  0  0
   -0.6165   -1.5867    0.2572 C   0  0  0  0  0  0  0  0  0  0  0  0
    1.5290    1.4216    0.9345 C   0  0  0  0  0  0  0  0  0  0  0  0
   -0.2542    2.8302   -0.6210 C   0  0  0  0  0  0  0  0  0  0  0  0
   -1.9371    1.3625   -2.4532 C   0  0  0  0  0  0  0  0  0  0  0  0
   -3.8037    0.3041   -0.4825 C   0  0  0  0  0  0  0  0  0  0  0  0
   -2.9225   -1.8168    1.0630 C   0  0  0  0  0  0  0  0  0  0  0  0
    1.6635    2.8041    0.8143 C   0  0  0  0  0  0  0  0  0  0  0  0
    0.7716    3.5107    0.0304 C   0  0  0  0  0  0  0  0  0  0  0  0
   -4.7189   -0.4357    0.2691 C   0  0  0  0  0  0  0  0  0  0  0  0
   -4.2762   -1.4941    1.0491 C   0  0  0  0  0  0  0  0  0  0  0  0
    5.0110   -1.4399   -1.2989 C   0  0  0  0  0  0  0  0  0  0  0  0
    3.8951   -3.1825   -0.0780 C   0  0  0  0  0  0  0  0  0  0  0  0
  1 18  1  0
  2 12  2  0
  3  6  1  0
  3  7  1  0
  3 12  1  0
  4  8  1  0
  4 10  1  0
  4 15  1  0
  5  9  1  0
  5 22  1  0
  5 23  1  0
  6  9  1  0
  7  8  2  0
  7 13  1  0
  8 14  1  0
 10 11  2  0
 10 16  1  0
 11 12  1  0
 11 17  1  0
 13 18  2  0
 14 19  2  0
 16 20  2  0
 17 21  2  0
 18 19  1  0
 20 21  1  0
M  END
>  <PUBCHEM_COMPOUND_CID>  (1) 
27341

>  <PUBCHEM_CONFORMER_RMSD>  (1) 
0.6

>  <PUBCHEM_CONFORMER_DIVERSEORDER>  (1) 
4
2
7
5
3
8
1
9
6

>  <PUBCHEM_MMFF94_PARTIAL_CHARGES>  (1) 
30
1 -0.18
10 0.1
11 0.09
12 0.54
13 -0.15
14 -0.15
15 0.37
16 -0.15
17 -0.15
18 0.18
19 -0.15
2 -0.57
20 -0.15
21 -0.15
22 0.27
23 0.27
28 0.15
29 0.15
3 -0.48
33 0.15
34 0.15
35 0.15
36 0.15
37 0.15
4 -0.57
5 -0.81
6 0.3
7 0.12
8 0.1
9 0.27

>  <PUBCHEM_EFFECTIVE_ROTOR_COUNT>  (1) 
3.4

>  <PUBCHEM_PHARMACOPHORE_FEATURES>  (1) 
6
1 2 acceptor
1 4 cation
1 5 cation
6 10 11 16 17 20 21 rings
6 7 8 13 14 18 19 rings
7 3 4 7 8 10 11 12 rings

>  <PUBCHEM_HEAVY_ATOM_COUNT>  (1) 
23

>  <PUBCHEM_ATOM_DEF_STEREO_COUNT>  (1) 
0

>  <PUBCHEM_ATOM_UDEF_STEREO_COUNT>  (1) 
0

>  <PUBCHEM_BOND_DEF_STEREO_COUNT>  (1) 
0

>  <PUBCHEM_BOND_UDEF_STEREO_COUNT>  (1) 
0

>  <PUBCHEM_ISOTOPIC_ATOM_COUNT>  (1) 
0

>  <PUBCHEM_COMPONENT_COUNT>  (1) 
1

>  <PUBCHEM_CACTVS_TAUTO_COUNT>  (1) 
1

>  <PUBCHEM_CONFORMER_ID>  (1) 
00006ACD00000004

>  <PUBCHEM_MMFF94_ENERGY>  (1) 
111.4184

>  <PUBCHEM_FEATURE_SELFOVERLAP>  (1) 
30.465

>  <PUBCHEM_SHAPE_FINGERPRINT>  (1) 
1100329 8 16752115416817191435
11112241 14 16914238862195700960
11680986 33 18263647436486214819
12011746 2 18260827056391672615
12035758 1 18410568530922898042
12293681 160 17330527879580449820
12422481 6 18122595479490125024
12553582 1 18265041432409491003
12788726 201 17762892169748681872
12839892 36 17546440541136267195
13027679 85 18337391522273398285
13140716 1 18262784203926091737
13402501 40 18337107986260985760
14178342 30 17689435309641286843
14347329 18 16589413195738980453
14790565 3 17474393474158828336
14866123 147 17907302048605574401
15230672 131 17833833052002944488
16728300 4 12462723950324244500
16945 1 17904200674364767517
17804303 29 18334582339095201963
17980427 23 17345490210052052217
1813 80 17560532707149884548
18785283 64 18265893756022156048
19591789 44 18408041797151636243
20028762 73 17117761895400629478
20510252 161 18191309264982870174
20642791 105 17827346684278487594
21041028 32 18130793325974353465
21049683 271 18263944274560787422
21731228 192 17617370023306531921
22182313 1 18188191191713927821
22907989 373 17980223910744788638
23175994 123 18341899541316647207
23352939 185 18272099279326539872
23419403 2 18337099129363273012
23557571 272 18125731084767830214
23558518 356 16899045363107832487
23559900 14 18187646937605186653
23566358 27 18196655326771947775
2748010 2 18189875622031732045
352729 6 17327445931196732443
458136 41 18050015689852602841
532947 4 18339916138145721312
59444896 2 17473323842671239148
70251023 43 17985234475199666605
7364860 26 18268433610185114329
81228 2 17623549966081573872
84936 31 17987801946018545220
9709674 26 18191023619972762499
9862522 239 17760618740364149624

>  <PUBCHEM_SHAPE_MULTIPOLES>  (1) 
454.39
7.8
4.34
1.4
0.16
2.23
0.5
-5.49
0.03
-5.1
-0.9
0.14
0.69
2.67

>  <PUBCHEM_SHAPE_SELFOVERLAP>  (1) 
967.932

>  <PUBCHEM_SHAPE_VOLUME>  (1) 
254.7

>  <PUBCHEM_COORDINATE_TYPE>  (1) 
2
5
10

$$$$
