27345
     RDKit          3D

 21 21  0  0  0  0  0  0  0  0999 V2000
    2.1724    1.4557   -0.1446 O   0  0  0  0  0  0  0  0  0  0  0  0
    1.4740    3.2537    1.1209 O   0  0  0  0  0  0  0  0  0  0  0  0
   -3.4265    1.6441    1.1235 O   0  0  0  0  0  0  0  0  0  0  0  0
    2.6838   -1.3258    0.1862 N   0  0  0  0  0  0  0  0  0  0  0  0
   -1.2740    1.6774   -0.5540 N   0  0  0  0  0  0  0  0  0  0  0  0
    3.6544   -0.3019    0.5434 C   0  0  0  0  0  0  0  0  0  0  0  0
    3.3590   -2.5574   -0.2296 C   0  0  0  0  0  0  0  0  0  0  0  0
    1.7815   -1.5982    1.3077 C   0  0  0  0  0  0  0  0  0  0  0  0
    2.9527    0.9817    0.9577 C   0  0  0  0  0  0  0  0  0  0  0  0
    4.3018   -2.3008   -1.3931 C   0  0  0  0  0  0  0  0  0  0  0  0
    0.7206   -2.6157    0.9241 C   0  0  0  0  0  0  0  0  0  0  0  0
    0.7003    2.9647   -1.1699 C   0  0  0  0  0  0  0  0  0  0  0  0
   -0.2909    1.8815   -1.5808 C   0  0  0  0  0  0  0  0  0  0  0  0
    1.4788    2.6115    0.0797 C   0  0  0  0  0  0  0  0  0  0  0  0
   -2.0641    0.5586   -0.4838 C   0  0  0  0  0  0  0  0  0  0  0  0
   -3.0304    0.5742    0.6597 C   0  0  0  0  0  0  0  0  0  0  0  0
   -1.9706   -0.4353   -1.3829 C   0  0  0  0  0  0  0  0  0  0  0  0
   -3.4252   -0.6830    1.3408 C   0  0  0  0  0  0  0  0  0  0  0  0
   -2.7693   -1.6236   -1.5284 C   0  0  0  0  0  0  0  0  0  0  0  0
   -3.5701   -1.8972    0.8035 C   0  0  0  0  0  0  0  0  0  0  0  0
   -3.4583   -2.2642   -0.5802 C   0  0  0  0  0  0  0  0  0  0  0  0
  1  9  1  0
  1 14  1  0
  2 14  2  0
  3 16  2  0
  4  6  1  0
  4  7  1  0
  4  8  1  0
  5 13  1  0
  5 15  1  0
  6  9  1  0
  7 10  1  0
  8 11  1  0
 12 13  1  0
 12 14  1  0
 15 16  1  0
 15 17  2  0
 16 18  1  0
 17 19  1  0
 18 20  2  0
 19 21  2  0
 20 21  1  0
M  END
>  <PUBCHEM_COMPOUND_CID>  (1) 
27345

>  <PUBCHEM_CONFORMER_RMSD>  (1) 
1

>  <PUBCHEM_CONFORMER_DIVERSEORDER>  (1) 
11
111
86
95
44
138
60
1
52
169
88
167
146
150
155
47
23
124
107
100
39
131
104
143
58
22
56
50
137
54
66
8
156
9
80
35
18
42
32
76
121
26
85
127
72
135
160
73
154
130
41
57
133
120
51
129
125
122
142
49
139
75
83
31
65
29
108
62
101
168
98
33
91
84
64
10
55
114
115
159
21
153
109
34
157
40
128
17
90
87
94
136
59
99
89
106
3
61
92
36
141
93
67
43
5
112
103
118
161
152
77
145
144
46
7
16
164
102
69
37
117
63
68
27
53
48
78
4
25
113
149
119
14
45
105
71
140
2
15
126
19
81
163
96
28
6
110
158
70
162
74
151
24
123
82
134
12
166
147
79
97
165
30
170
148
132
38
13
20
116

>  <PUBCHEM_MMFF94_PARTIAL_CHARGES>  (1) 
25
1 -0.43
12 0.06
13 0.37
14 0.66
15 0.11
16 0.54
17 -0.15
18 -0.14
19 -0.15
2 -0.57
20 -0.15
21 -0.15
3 -0.57
4 -0.81
40 0.4
41 0.15
42 0.15
43 0.15
44 0.15
45 0.15
5 -0.87
6 0.27
7 0.27
8 0.27
9 0.28

>  <PUBCHEM_EFFECTIVE_ROTOR_COUNT>  (1) 
10

>  <PUBCHEM_PHARMACOPHORE_FEATURES>  (1) 
6
1 2 acceptor
1 3 acceptor
1 4 cation
1 5 cation
1 5 donor
7 15 16 17 18 19 20 21 rings

>  <PUBCHEM_HEAVY_ATOM_COUNT>  (1) 
21

>  <PUBCHEM_ATOM_DEF_STEREO_COUNT>  (1) 
0

>  <PUBCHEM_ATOM_UDEF_STEREO_COUNT>  (1) 
0

>  <PUBCHEM_BOND_DEF_STEREO_COUNT>  (1) 
0

>  <PUBCHEM_BOND_UDEF_STEREO_COUNT>  (1) 
0

>  <PUBCHEM_ISOTOPIC_ATOM_COUNT>  (1) 
0

>  <PUBCHEM_COMPONENT_COUNT>  (1) 
1

>  <PUBCHEM_CACTVS_TAUTO_COUNT>  (1) 
1

>  <PUBCHEM_CONFORMER_ID>  (1) 
00006AD10000000B

>  <PUBCHEM_MMFF94_ENERGY>  (1) 
48.9291

>  <PUBCHEM_FEATURE_SELFOVERLAP>  (1) 
30.446

>  <PUBCHEM_SHAPE_FINGERPRINT>  (1) 
12054548 360 18264489486257435298
12156800 1 16245264887148967058
12363563 72 17096344285038461849
12553582 1 18190735336813303066
12596599 1 18343295933895133954
13533116 47 18341053033986499787
14251757 17 17609451109262381071
14251757 5 17907589029894148718
17138139 8 16398852857566947199
20291156 8 18411139091458036438
20645477 70 17753872111625640029
3737641 26 18342747291173627350
5283178 26 17701537294984121806
6287921 2 18270400636645844274
7097593 13 18271812349509676593

>  <PUBCHEM_SHAPE_MULTIPOLES>  (1) 
404.6
7.7
4.07
1.58
0.43
1.37
-0.24
-5.08
0.47
2.19
-0.3
-0.35
-0.08
0.38

>  <PUBCHEM_SHAPE_SELFOVERLAP>  (1) 
804.174

>  <PUBCHEM_SHAPE_VOLUME>  (1) 
237.6

>  <PUBCHEM_COORDINATE_TYPE>  (1) 
2
5
10

$$$$
