2734
     RDKit          3D

 12 13  0  0  0  0  0  0  0  0999 V2000
    3.3794    1.4527   -0.0002 Cl  0  0  0  0  0  0  0  0  0  0  0  0
   -1.8773   -1.1286   -0.0002 O   0  0  0  0  0  0  0  0  0  0  0  0
    2.9400   -1.5163    0.0006 O   0  0  0  0  0  0  0  0  0  0  0  0
   -3.8528    0.0741    0.0003 O   0  0  0  0  0  0  0  0  0  0  0  0
   -1.7950    1.1682    0.0003 N   0  0  0  0  0  0  0  0  0  0  0  0
   -0.5028    0.7146   -0.0003 C   0  0  0  0  0  0  0  0  0  0  0  0
   -0.5718   -0.6620   -0.0005 C   0  0  0  0  0  0  0  0  0  0  0  0
    0.6880    1.4048    0.0000 C   0  0  0  0  0  0  0  0  0  0  0  0
    0.5674   -1.4374   -0.0004 C   0  0  0  0  0  0  0  0  0  0  0  0
    1.7968   -0.7700    0.0002 C   0  0  0  0  0  0  0  0  0  0  0  0
    1.8562    0.6389    0.0001 C   0  0  0  0  0  0  0  0  0  0  0  0
   -2.6281    0.0610    0.0002 C   0  0  0  0  0  0  0  0  0  0  0  0
  1 11  1  0
  2  7  1  0
  2 12  1  0
  3 10  1  0
  4 12  2  0
  5  6  1  0
  5 12  1  0
  6  7  2  0
  6  8  1  0
  7  9  1  0
  8 11  2  0
  9 10  2  0
 10 11  1  0
M  END
>  <PUBCHEM_COMPOUND_CID>  (1) 
2734

>  <PUBCHEM_CONFORMER_RMSD>  (1) 
0.4

>  <PUBCHEM_CONFORMER_DIVERSEORDER>  (1) 
1

>  <PUBCHEM_MMFF94_PARTIAL_CHARGES>  (1) 
16
1 -0.18
10 0.08
11 0.18
12 0.78
13 0.15
14 0.15
15 0.37
16 0.45
2 -0.23
3 -0.53
4 -0.57
5 -0.55
6 0.12
7 0.08
8 -0.15
9 -0.15

>  <PUBCHEM_EFFECTIVE_ROTOR_COUNT>  (1) 
0

>  <PUBCHEM_PHARMACOPHORE_FEATURES>  (1) 
5
1 3 donor
1 4 acceptor
1 5 donor
5 2 5 6 7 12 rings
6 6 7 8 9 10 11 rings

>  <PUBCHEM_HEAVY_ATOM_COUNT>  (1) 
12

>  <PUBCHEM_ATOM_DEF_STEREO_COUNT>  (1) 
0

>  <PUBCHEM_ATOM_UDEF_STEREO_COUNT>  (1) 
0

>  <PUBCHEM_BOND_DEF_STEREO_COUNT>  (1) 
0

>  <PUBCHEM_BOND_UDEF_STEREO_COUNT>  (1) 
0

>  <PUBCHEM_ISOTOPIC_ATOM_COUNT>  (1) 
0

>  <PUBCHEM_COMPONENT_COUNT>  (1) 
1

>  <PUBCHEM_CACTVS_TAUTO_COUNT>  (1) 
6

>  <PUBCHEM_CONFORMER_ID>  (1) 
00000AAE00000001

>  <PUBCHEM_MMFF94_ENERGY>  (1) 
32.713

>  <PUBCHEM_FEATURE_SELFOVERLAP>  (1) 
25.487

>  <PUBCHEM_SHAPE_FINGERPRINT>  (1) 
10608611 8 18336260167568412957
11471102 20 18410569574679084661
12032990 46 18338524036213709131
13380535 21 18338245967261926866
13380535 76 18337389452188741314
14325111 11 18410575084810992833
14576447 43 17913472804466981431
14897335 6 18340200890356552164
15219456 202 18261385620587366173
15536298 74 18343584036549220518
15775835 57 18271247217469892468
16945 1 18266459982513040164
17844478 74 18040443174481106405
193761 8 17762056536722047654
20645477 70 18411976928140822023
21040471 1 18266459987061130596
21501502 16 18340489958672256153
21501925 9 18337659833270201346
23235685 24 18337385053883871200
23402655 69 18341601617327232853
23463225 33 18408882910893766810
23552423 10 18334013873986898242
2748010 2 18409730642769375260
369184 2 18411417306417412857
5084963 1 18271804571086124058
528886 8 18339074994591754600
53812653 166 18199746002433803752
63268167 104 18412547621418903649
7364860 26 18343302548745799174

>  <PUBCHEM_SHAPE_MULTIPOLES>  (1) 
226.24
5.05
1.66
0.59
1.21
0.18
0
-0.78
0
-0.99
0
-0.05
-0.02
0

>  <PUBCHEM_SHAPE_SELFOVERLAP>  (1) 
491.707

>  <PUBCHEM_SHAPE_VOLUME>  (1) 
126.4

>  <PUBCHEM_COORDINATE_TYPE>  (1) 
2
5
10

$$$$
