27360
     RDKit          3D

 18 18  0  0  0  0  0  0  0  0999 V2000
    0.1463   -1.8459    0.1742 O   0  0  0  0  0  0  0  0  0  0  0  0
    3.3140    1.1754   -1.3371 O   0  0  0  0  0  0  0  0  0  0  0  0
   -0.5718    2.7320    0.5131 O   0  0  0  0  0  0  0  0  0  0  0  0
   -0.2080    0.4256    0.5407 N   0  0  0  0  0  0  0  0  0  0  0  0
    1.3880    1.9288   -0.3446 N   0  0  0  0  0  0  0  0  0  0  0  0
    2.0633   -0.3857    0.0304 C   0  0  0  0  0  0  0  0  0  0  0  0
    2.7125   -0.3334    1.4253 C   0  0  0  0  0  0  0  0  0  0  0  0
    2.7233   -1.5067   -0.7879 C   0  0  0  0  0  0  0  0  0  0  0  0
    0.5804   -0.6940    0.2298 C   0  0  0  0  0  0  0  0  0  0  0  0
    2.3233    0.9518   -0.6430 C   0  0  0  0  0  0  0  0  0  0  0  0
   -1.5603    0.1852    1.0304 C   0  0  0  0  0  0  0  0  0  0  0  0
   -2.5422    0.0597   -0.1313 C   0  0  0  0  0  0  0  0  0  0  0  0
    0.1516    1.7611    0.2753 C   0  0  0  0  0  0  0  0  0  0  0  0
    2.5287   -1.6439    2.1567 C   0  0  0  0  0  0  0  0  0  0  0  0
    2.1888   -1.5334   -2.2029 C   0  0  0  0  0  0  0  0  0  0  0  0
   -3.9709   -0.2411    0.3322 C   0  0  0  0  0  0  0  0  0  0  0  0
   -4.9275   -0.3485   -0.8558 C   0  0  0  0  0  0  0  0  0  0  0  0
   -6.3396   -0.6870   -0.4054 C   0  0  0  0  0  0  0  0  0  0  0  0
  1  9  2  0
  2 10  2  0
  3 13  2  0
  4  9  1  0
  4 11  1  0
  4 13  1  0
  5 10  1  0
  5 13  1  0
  6  7  1  0
  6  8  1  0
  6  9  1  0
  6 10  1  0
  7 14  1  0
  8 15  1  0
 11 12  1  0
 12 16  1  0
 16 17  1  0
 17 18  1  0
M  END
>  <PUBCHEM_COMPOUND_CID>  (1) 
27360

>  <PUBCHEM_CONFORMER_RMSD>  (1) 
0.8

>  <PUBCHEM_CONFORMER_DIVERSEORDER>  (1) 
1
47
31
17
38
52
33
36
7
45
25
49
26
29
32
50
27
40
4
15
3
9
34
44
37
20
48
42
16
10
51
39
43
28
8
22
35
30
19
46
41
13
23
11
2
18
24
14
5
6
12
21

>  <PUBCHEM_MMFF94_PARTIAL_CHARGES>  (1) 
11
1 -0.57
10 0.57
11 0.3
13 0.69
2 -0.57
27 0.37
3 -0.57
4 -0.42
5 -0.49
6 0.12
9 0.57

>  <PUBCHEM_EFFECTIVE_ROTOR_COUNT>  (1) 
6.6

>  <PUBCHEM_PHARMACOPHORE_FEATURES>  (1) 
8
1 1 acceptor
1 14 hydrophobe
1 15 hydrophobe
1 18 hydrophobe
1 2 acceptor
1 3 acceptor
1 5 donor
6 4 5 6 9 10 13 rings

>  <PUBCHEM_HEAVY_ATOM_COUNT>  (1) 
18

>  <PUBCHEM_ATOM_DEF_STEREO_COUNT>  (1) 
0

>  <PUBCHEM_ATOM_UDEF_STEREO_COUNT>  (1) 
0

>  <PUBCHEM_BOND_DEF_STEREO_COUNT>  (1) 
0

>  <PUBCHEM_BOND_UDEF_STEREO_COUNT>  (1) 
0

>  <PUBCHEM_ISOTOPIC_ATOM_COUNT>  (1) 
0

>  <PUBCHEM_COMPONENT_COUNT>  (1) 
1

>  <PUBCHEM_CACTVS_TAUTO_COUNT>  (1) 
3

>  <PUBCHEM_CONFORMER_ID>  (1) 
00006AE000000001

>  <PUBCHEM_MMFF94_ENERGY>  (1) 
32.0249

>  <PUBCHEM_FEATURE_SELFOVERLAP>  (1) 
40.597

>  <PUBCHEM_SHAPE_FINGERPRINT>  (1) 
116883 192 18199193884440702309
12423570 1 11379676509116442786
12616999 72 18271813448947100951
12730499 353 17895482552358205921
14178342 30 17979908320283358177
14251717 144 18411981377789971063
14252887 29 17989203742130198403
14576447 43 18131354150213790733
14863182 85 17917990585480264126
15848700 24 18341611495129391029
16945 1 18195557928610868492
18186145 218 17822302266548166553
20369508 70 18186510012728252747
20645477 70 18410294744143361863
23419403 2 17683195336778573384
23557571 272 18129935676834174753
2748010 2 17620219927897913988
3060560 45 18412268367019465015
3286 77 17604416419395620655
4072396 5 18188759665333116288
54040823 5 18335699476867561659
7164475 11 18116708509097606901
7495541 125 17676488380547533739

>  <PUBCHEM_SHAPE_MULTIPOLES>  (1) 
342.86
8.67
2.06
1.58
18.9
0.92
-0.02
-3.08
1.84
-1.28
0.12
-1.82
-0.77
-0.53

>  <PUBCHEM_SHAPE_SELFOVERLAP>  (1) 
687.15

>  <PUBCHEM_SHAPE_VOLUME>  (1) 
200.7

>  <PUBCHEM_COORDINATE_TYPE>  (1) 
2
5
10

$$$$
