27372
     RDKit          3D

 12 11  0  0  1  0  0  0  0  0999 V2000
   -1.4014   -2.4355    0.6813 S   0  0  0  0  0  0  0  0  0  0  0  0
   -0.7090    2.3393    0.8522 O   0  0  0  0  0  0  0  0  0  0  0  0
   -0.0093    1.9116   -1.2613 O   0  0  0  0  0  0  0  0  0  0  0  0
    2.5053    0.1853    1.2122 O   0  0  0  0  0  0  0  0  0  0  0  0
    0.9190   -0.4903   -0.3518 N   0  0  0  0  0  0  0  0  0  0  0  0
   -1.5578   -0.7214    0.0072 C   0  0  0  0  0  0  0  0  0  0  0  0
   -0.2487    0.0548    0.3031 C   0  0  0  0  0  0  0  0  0  0  0  0
   -2.7549   -0.0808    0.7280 C   0  0  0  0  0  0  0  0  0  0  0  0
   -1.8751   -0.8429   -1.4912 C   0  0  0  0  0  0  0  0  0  0  0  0
   -0.2912    1.5096   -0.1392 C   0  0  0  0  0  0  0  0  0  0  0  0
    2.1984   -0.3759    0.1637 C   0  0  0  0  0  0  0  0  0  0  0  0
    3.2247   -1.0537   -0.7042 C   0  0  0  0  0  0  0  0  0  0  0  0
  1  6  1  0
  2 10  1  0
  3 10  2  0
  4 11  2  0
  5  7  1  0
  5 11  1  0
  6  7  1  0
  6  8  1  0
  6  9  1  0
  7 10  1  0
 11 12  1  0
M  END
>  <PUBCHEM_COMPOUND_CID>  (1) 
27372

>  <PUBCHEM_CONFORMER_RMSD>  (1) 
0.6

>  <PUBCHEM_CONFORMER_DIVERSEORDER>  (1) 
1
15
11
19
20
6
16
21
12
13
3
17
7
10
4
8
14
18
9
2
5

>  <PUBCHEM_MMFF94_PARTIAL_CHARGES>  (1) 
13
1 -0.41
10 0.66
11 0.57
12 0.06
2 -0.65
20 0.37
21 0.18
25 0.5
3 -0.57
4 -0.57
5 -0.73
6 0.23
7 0.36

>  <PUBCHEM_EFFECTIVE_ROTOR_COUNT>  (1) 
4

>  <PUBCHEM_PHARMACOPHORE_FEATURES>  (1) 
6
1 2 acceptor
1 3 acceptor
1 4 acceptor
1 5 donor
3 2 3 10 anion
3 6 8 9 hydrophobe

>  <PUBCHEM_HEAVY_ATOM_COUNT>  (1) 
12

>  <PUBCHEM_ATOM_DEF_STEREO_COUNT>  (1) 
0

>  <PUBCHEM_ATOM_UDEF_STEREO_COUNT>  (1) 
1

>  <PUBCHEM_BOND_DEF_STEREO_COUNT>  (1) 
0

>  <PUBCHEM_BOND_UDEF_STEREO_COUNT>  (1) 
0

>  <PUBCHEM_ISOTOPIC_ATOM_COUNT>  (1) 
0

>  <PUBCHEM_COMPONENT_COUNT>  (1) 
1

>  <PUBCHEM_CACTVS_TAUTO_COUNT>  (1) 
2

>  <PUBCHEM_CONFORMER_ID>  (1) 
00006AEC00000001

>  <PUBCHEM_MMFF94_ENERGY>  (1) 
26.9149

>  <PUBCHEM_FEATURE_SELFOVERLAP>  (1) 
30.505

>  <PUBCHEM_SHAPE_FINGERPRINT>  (1) 
12524768 44 18340479071125203178
13024252 1 13118295741040432247
14128692 85 17969514890158441406
16945 1 18040705978791869799
20082192 1 17174032607429535721
20645477 70 17543348710551019787
20653091 64 17827922041870246243
20711978 78 17764032767160523559
20711983 138 18410864247784685098
20711985 344 18338227151036388544
21524375 3 17477483106005961752
23552423 10 17610912561725846199
23557571 272 18200048235625512828
2748010 2 18266176321561785482
369184 2 16702299065934507075
54338 74 18260829280398572645
81228 2 18339635651053972792

>  <PUBCHEM_SHAPE_MULTIPOLES>  (1) 
228.21
3.9
2.24
1.2
2.42
0.5
-0.24
-1.8
0.13
-0.7
0.21
-0.18
0.05
0.15

>  <PUBCHEM_SHAPE_SELFOVERLAP>  (1) 
428.665

>  <PUBCHEM_SHAPE_VOLUME>  (1) 
144.1

>  <PUBCHEM_COORDINATE_TYPE>  (1) 
2
5
10

$$$$
