27394
     RDKit          3D

 23 24  0  0  0  0  0  0  0  0999 V2000
    8.1040   -1.5014    0.8534 Cl  0  0  0  0  0  0  0  0  0  0  0  0
   -2.3601    0.9994   -1.3801 O   0  0  0  0  0  0  0  0  0  0  0  0
    2.9156   -0.7253    1.7433 O   0  0  0  0  0  0  0  0  0  0  0  0
   -3.6724    1.5903    0.4405 N   0  0  0  0  0  0  0  0  0  0  0  0
    1.1374    1.2623    1.0066 N   0  0  0  0  0  0  0  0  0  0  0  0
    2.3466    1.0500    0.3618 N   0  0  0  0  0  0  0  0  0  0  0  0
   -1.2910    1.4419    0.7473 C   0  0  0  0  0  0  0  0  0  0  0  0
    0.0361    1.1392    0.0597 C   0  0  0  0  0  0  0  0  0  0  0  0
   -4.9386    1.5351   -0.2502 C   0  0  0  0  0  0  0  0  0  0  0  0
   -2.4724    1.3122   -0.1979 C   0  0  0  0  0  0  0  0  0  0  0  0
   -5.5601    0.1703   -0.1757 C   0  0  0  0  0  0  0  0  0  0  0  0
   -5.2758   -0.7691   -1.1599 C   0  0  0  0  0  0  0  0  0  0  0  0
   -6.4137   -0.1401    0.8763 C   0  0  0  0  0  0  0  0  0  0  0  0
    4.4545   -0.1240    0.0792 C   0  0  0  0  0  0  0  0  0  0  0  0
    3.1674    0.0286    0.8065 C   0  0  0  0  0  0  0  0  0  0  0  0
   -5.8532   -2.0370   -1.0909 C   0  0  0  0  0  0  0  0  0  0  0  0
   -6.9911   -1.4081    0.9453 C   0  0  0  0  0  0  0  0  0  0  0  0
   -6.7108   -2.3565   -0.0384 C   0  0  0  0  0  0  0  0  0  0  0  0
    5.5321   -0.6746    0.7407 C   0  0  0  0  0  0  0  0  0  0  0  0
    4.5287    0.2891   -1.2346 C   0  0  0  0  0  0  0  0  0  0  0  0
    6.7394   -0.8186    0.0572 C   0  0  0  0  0  0  0  0  0  0  0  0
    5.7360    0.1452   -1.9180 C   0  0  0  0  0  0  0  0  0  0  0  0
    6.8414   -0.4086   -1.2721 C   0  0  0  0  0  0  0  0  0  0  0  0
  1 21  1  0
  2 10  2  0
  3 15  2  0
  4  9  1  0
  4 10  1  0
  5  6  1  0
  5  8  1  0
  6 15  1  0
  7  8  1  0
  7 10  1  0
  9 11  1  0
 11 12  2  0
 11 13  1  0
 12 16  1  0
 13 17  2  0
 14 15  1  0
 14 19  2  0
 14 20  1  0
 16 18  2  0
 17 18  1  0
 19 21  1  0
 20 22  2  0
 21 23  2  0
 22 23  1  0
M  END
>  <PUBCHEM_COMPOUND_CID>  (1) 
27394

>  <PUBCHEM_CONFORMER_RMSD>  (1) 
1

>  <PUBCHEM_CONFORMER_DIVERSEORDER>  (1) 
1
57
22
40
246
150
157
21
32
263
265
107
222
94
86
34
270
224
277
6
118
207
97
84
217
54
14
239
278
175
41
13
3
67
279
266
252
59
4
212
168
139
132
194
46
63
64
198
230
37
262
156
186
211
30
2
176
223
114
125
83
109
235
228
280
56
113
213
108
77
267
178
276
162
260
10
61
49
25
208
274
173
146
23
79
195
171
142
153
226
68
209
110
248
160
33
7
206
256
136
78
196
16
152
141
285
158
164
120
149
258
106
117
254
85
17
96
18
66
123
244
19
183
185
35
268
47
93
205
53
8
180
74
253
170
102
5
220
161
111
219
15
137
50
269
80
275
81
273
92
65
130
191
163
218
251
238
201
103
58
145
193
165
88
119
26
203
243
27
257
28
188
147
199
172
121
31
20
281
245
44
101
9
104
264
122
215
99
71
184
159
51
271
225
42
82
227
43
155
12
250
192
255
69
60
154
182
179
29
234
129
282
24
95
214
202
229
89
36
115
131
76
259
241
126
112
105
75
70
177
236
133
127
151
55
124
39
144
48
166
52
11
221
216
210
100
90
197
62
72
189
91
174
231
38
190
143
167
204
272
283
187
135
261
140
233
116
148
242
232
45
284
237
134
249
200
138
87
73
181
128
247
240
169
98

>  <PUBCHEM_MMFF94_PARTIAL_CHARGES>  (1) 
35
1 -0.18
10 0.57
11 -0.14
12 -0.15
13 -0.15
14 0.09
15 0.54
16 -0.15
17 -0.15
18 -0.15
19 -0.15
2 -0.57
20 -0.15
21 0.18
22 -0.15
23 -0.15
3 -0.57
30 0.37
31 0.36
32 0.15
33 0.15
34 0.37
35 0.15
36 0.15
37 0.15
38 0.15
39 0.15
4 -0.73
40 0.15
41 0.15
5 -0.64
6 -0.42
7 0.06
8 0.27
9 0.44

>  <PUBCHEM_EFFECTIVE_ROTOR_COUNT>  (1) 
9

>  <PUBCHEM_PHARMACOPHORE_FEATURES>  (1) 
7
1 2 acceptor
1 3 acceptor
1 4 donor
1 5 donor
1 6 donor
6 11 12 13 16 17 18 rings
6 14 19 20 21 22 23 rings

>  <PUBCHEM_HEAVY_ATOM_COUNT>  (1) 
23

>  <PUBCHEM_ATOM_DEF_STEREO_COUNT>  (1) 
0

>  <PUBCHEM_ATOM_UDEF_STEREO_COUNT>  (1) 
0

>  <PUBCHEM_BOND_DEF_STEREO_COUNT>  (1) 
0

>  <PUBCHEM_BOND_UDEF_STEREO_COUNT>  (1) 
0

>  <PUBCHEM_ISOTOPIC_ATOM_COUNT>  (1) 
0

>  <PUBCHEM_COMPONENT_COUNT>  (1) 
1

>  <PUBCHEM_CACTVS_TAUTO_COUNT>  (1) 
4

>  <PUBCHEM_CONFORMER_ID>  (1) 
00006B0200000001

>  <PUBCHEM_MMFF94_ENERGY>  (1) 
45.4384

>  <PUBCHEM_FEATURE_SELFOVERLAP>  (1) 
37.006

>  <PUBCHEM_SHAPE_FINGERPRINT>  (1) 
10 15 12031790275117198011
10087517 78 9367352526926411179
10299344 5 18260270741592738249
10693767 8 17533493440624286842
11297750 10 11885750911945416488
11524674 6 16845292757162352975
11646440 116 16630528427588832002
11963148 33 18412538782714786638
12082328 90 16805324375647559129
125118 31 9150879582522986358
13167372 99 10735876175190068114
13668630 136 18410295770735393886
13673619 4 18343300383877047545
13685833 64 17704072889325700448
13690498 29 18259700099944240629
14123256 34 18273217512537495153
14251764 18 12175614075252586409
14251764 30 18273496762436485249
14344974 204 17631164372231209951
14347424 109 11455895733354190572
14556957 393 16805613533925384589
14598715 104 11746935433938218407
14729087 3 8142084255968715291
14767858 380 17603587434572256929
15003188 100 15719399460131764596
15183329 4 16950561090567560603
15348495 7 15913038876578638011
15352257 5 18202004313080520511
15461852 350 11819285468436906305
15876981 60 17822297838654072805
17093844 174 16486971770388466937
17780758 139 17489592260471672457
1818759 1 17917434186517754406
18608769 82 18060136556873390182
18927931 339 18413668024859513573
21130935 74 12175617365641199740
21150785 3 16153709847237666025
21315759 40 18260549983555700752
21521239 73 17603588496336449698
21623969 137 16702305646077333396
21774942 28 12180108870270937854
220451 1 18260266305261202729
22288116 15 14418141746726225529
2303208 19 17917989477526219097
23081809 10 17530963544870423656
23522609 53 18117869666228231909
2748736 6 8430319030510076371
2767999 5 8430319026293970485
312425 54 14979952588182839869
3178227 256 16917349234440068326
3383291 50 17988923392314165503
3663271 9 12751230411215825908
445580 167 17676493886173588828
5470011 282 17676209095249919607
59682541 35 17489579062126771122
8863177 126 18130782421183737851
9995097 26 17918002676936373876
999808 66 17703792513570272541

>  <PUBCHEM_SHAPE_MULTIPOLES>  (1) 
448.52
26.45
1.91
1.44
6.72
0.44
0.3
15.79
1.23
-3.34
-0.07
1.26
0.17
-1.02

>  <PUBCHEM_SHAPE_SELFOVERLAP>  (1) 
930.301

>  <PUBCHEM_SHAPE_VOLUME>  (1) 
255.1

>  <PUBCHEM_COORDINATE_TYPE>  (1) 
2
5
10

$$$$
