27415
     RDKit          3D

 25 29  0  0  1  0  0  0  0  0999 V2000
    0.0073   -2.8141   -0.4116 O   0  0  0  0  0  0  0  0  0  0  0  0
   -3.7293    0.5543    0.7503 N   0  0  0  0  0  0  0  0  0  0  0  0
    1.0082   -0.0363   -0.6222 N   0  0  0  0  0  0  0  0  0  0  0  0
   -2.8329    0.2166   -0.3818 C   0  0  0  0  0  0  0  0  0  0  0  0
   -1.3434    0.2724    0.0655 C   0  0  0  0  0  0  0  0  0  0  0  0
   -1.0127    1.6338    0.6931 C   0  0  0  0  0  0  0  0  0  0  0  0
   -3.1831   -1.1825   -0.9338 C   0  0  0  0  0  0  0  0  0  0  0  0
   -3.4299    1.8815    1.3077 C   0  0  0  0  0  0  0  0  0  0  0  0
   -0.3662    0.0029   -1.0835 C   0  0  0  0  0  0  0  0  0  0  0  0
   -1.9928    1.9635    1.8079 C   0  0  0  0  0  0  0  0  0  0  0  0
   -5.1479    0.4963    0.3639 C   0  0  0  0  0  0  0  0  0  0  0  0
   -4.6559   -1.3040   -1.3079 C   0  0  0  0  0  0  0  0  0  0  0  0
   -5.5352   -0.8904   -0.1396 C   0  0  0  0  0  0  0  0  0  0  0  0
    1.6696   -1.1509   -0.1841 C   0  0  0  0  0  0  0  0  0  0  0  0
    1.8376    1.0620   -0.5582 C   0  0  0  0  0  0  0  0  0  0  0  0
    2.9471   -0.7708    0.1802 C   0  0  0  0  0  0  0  0  0  0  0  0
    3.0677    0.6276   -0.0561 C   0  0  0  0  0  0  0  0  0  0  0  0
    3.9439   -1.7431    0.7110 C   0  0  0  0  0  0  0  0  0  0  0  0
    1.1514   -2.4962   -0.0978 C   0  0  0  0  0  0  0  0  0  0  0  0
    3.2272   -2.9658    1.3069 C   0  0  0  0  0  0  0  0  0  0  0  0
    2.1694   -3.5425    0.3539 C   0  0  0  0  0  0  0  0  0  0  0  0
    1.5926    2.3959   -0.9042 C   0  0  0  0  0  0  0  0  0  0  0  0
    4.1026    1.5707    0.1077 C   0  0  0  0  0  0  0  0  0  0  0  0
    2.6342    3.3118   -0.7326 C   0  0  0  0  0  0  0  0  0  0  0  0
    3.8709    2.9076   -0.2346 C   0  0  0  0  0  0  0  0  0  0  0  0
  1 19  2  0
  2  4  1  0
  2  8  1  0
  2 11  1  0
  3  9  1  0
  3 14  1  0
  3 15  1  0
  4  5  1  0
  4  7  1  0
  5  6  1  0
  5  9  1  0
  6 10  1  0
  7 12  1  0
  8 10  1  0
 11 13  1  0
 12 13  1  0
 14 16  2  0
 14 19  1  0
 15 17  2  0
 15 22  1  0
 16 17  1  0
 16 18  1  0
 17 23  1  0
 18 20  1  0
 19 21  1  0
 20 21  1  0
 22 24  2  0
 23 25  2  0
 24 25  1  0
M  END
>  <PUBCHEM_COMPOUND_CID>  (1) 
27415

>  <PUBCHEM_CONFORMER_RMSD>  (1) 
0.8

>  <PUBCHEM_CONFORMER_DIVERSEORDER>  (1) 
1
7
11
5
16
6
13
2
10
12
9
3
18
17
8
15
14
4

>  <PUBCHEM_MMFF94_PARTIAL_CHARGES>  (1) 
21
1 -0.57
11 0.27
14 -0.24
15 -0.15
16 -0.18
18 0.18
19 0.59
2 -0.81
21 0.06
22 -0.15
23 -0.15
24 -0.15
25 -0.15
3 0.05
4 0.27
50 0.15
51 0.15
52 0.15
53 0.15
8 0.27
9 0.26

>  <PUBCHEM_EFFECTIVE_ROTOR_COUNT>  (1) 
4.2

>  <PUBCHEM_PHARMACOPHORE_FEATURES>  (1) 
8
1 1 acceptor
1 2 cation
1 3 cation
5 3 14 15 16 17 rings
6 14 16 18 19 20 21 rings
6 15 17 22 23 24 25 rings
6 2 4 5 6 8 10 rings
6 2 4 7 11 12 13 rings

>  <PUBCHEM_HEAVY_ATOM_COUNT>  (1) 
25

>  <PUBCHEM_ATOM_DEF_STEREO_COUNT>  (1) 
0

>  <PUBCHEM_ATOM_UDEF_STEREO_COUNT>  (1) 
2

>  <PUBCHEM_BOND_DEF_STEREO_COUNT>  (1) 
0

>  <PUBCHEM_BOND_UDEF_STEREO_COUNT>  (1) 
0

>  <PUBCHEM_ISOTOPIC_ATOM_COUNT>  (1) 
0

>  <PUBCHEM_COMPONENT_COUNT>  (1) 
1

>  <PUBCHEM_CACTVS_TAUTO_COUNT>  (1) 
2

>  <PUBCHEM_CONFORMER_ID>  (1) 
00006B1700000001

>  <PUBCHEM_MMFF94_ENERGY>  (1) 
37.0112

>  <PUBCHEM_FEATURE_SELFOVERLAP>  (1) 
40.793

>  <PUBCHEM_SHAPE_FINGERPRINT>  (1) 
10090160 65 18337951311104509333
10366900 7 17968674734626027784
10411042 1 18048308951839127510
1100329 8 18194396917393795328
11007060 377 18125458629476161592
11069576 57 18271789225595887279
11578080 2 17823414890289624716
12107183 9 17979640031162584657
12156800 1 17543885250306530978
12236239 1 18201721790136908405
12553582 1 18048882888249729230
12788726 201 17775014487888695777
13009979 54 18058731273986738514
13140716 1 18263078971979557546
13224815 77 17917715703678973665
13533116 47 18334019380599039763
13583140 156 18044111076784207281
13726171 33 17131571508232395449
13965767 371 16400302482033046808
14117953 113 17908982102436035439
14178342 30 17984417430143038867
14341114 328 18131357418821065699
14739800 52 17773862263958809488
14787075 74 18056477481292370973
14790565 3 18335713749915116828
15420108 30 18127698115259348008
17138139 8 17769923903233247567
17349148 13 18409446960301047243
17492 89 18341618053819421239
17818456 19 17842846525270481929
1813 80 18122633751864447726
18681886 176 18060138747844423862
19319366 153 18196926884642941223
19377110 9 18272942639373756059
20028762 73 18272364269945462446
20511986 3 18201426004856739981
20642791 105 17470437895335839396
20645477 70 18113611291973309493
20715895 44 17838339571733004689
20739085 24 18334296436070408980
21033648 29 16805312297882999199
21197605 99 18117850025727695059
2132832 1 18269540664102665601
21421861 104 18341625763179501649
22393880 68 18342749489416849901
2255824 54 18409175402546052820
23559900 14 18410006607324163715
23598288 3 17774713182905794973
25147074 1 18202563969695624761
3380486 145 17829611665083456348
350125 39 18411698777410561556
3797600 57 17775567545894286336
392239 28 17983577686837808915
4098825 35 18261938701729022981
4340502 62 18266178516242321837
474 4 18336269045286808724
5104073 3 18411144606612939105
5312544 6 18410575131934203364
59755656 520 18193836170684764012
6034566 193 17245846118186577692
67856867 119 18412258432849773393
7097593 13 18054232024902821147
8272917 22 18409732867367314373
9961470 85 17260465293473033920
9981440 41 18192430998597148768

>  <PUBCHEM_SHAPE_MULTIPOLES>  (1) 
498.66
9.87
3.99
1.2
10.25
0.94
0.24
-0.04
0.43
-4.95
0.37
0.66
-0.22
-2.59

>  <PUBCHEM_SHAPE_SELFOVERLAP>  (1) 
1088.251

>  <PUBCHEM_SHAPE_VOLUME>  (1) 
270.2

>  <PUBCHEM_COORDINATE_TYPE>  (1) 
2
5
10

$$$$
