27423
     RDKit          3D

 21 20  0  0  0  0  0  0  0  0999 V2000
   -2.4476   -0.8201    0.1666 O   0  0  0  0  0  0  0  0  0  0  0  0
    2.4572   -0.8208    0.1791 O   0  0  0  0  0  0  0  0  0  0  0  0
    0.0048    1.5744   -0.0211 O   0  0  0  0  0  0  0  0  0  0  0  0
   -3.7057   -1.2227   -1.7295 O   0  0  0  0  0  0  0  0  0  0  0  0
    3.7061   -1.2293   -1.7219 O   0  0  0  0  0  0  0  0  0  0  0  0
   -0.0121    3.2214    1.5998 O   0  0  0  0  0  0  0  0  0  0  0  0
   -0.0039   -0.8546    0.3455 C   0  0  0  0  0  0  0  0  0  0  0  0
   -0.0228   -1.8682    1.5290 C   0  0  0  0  0  0  0  0  0  0  0  0
   -1.2460   -1.0279   -0.5642 C   0  0  0  0  0  0  0  0  0  0  0  0
    1.2519   -1.0265   -0.5463 C   0  0  0  0  0  0  0  0  0  0  0  0
   -0.0092    0.5640    0.9797 C   0  0  0  0  0  0  0  0  0  0  0  0
   -0.0289   -3.3411    1.1383 C   0  0  0  0  0  0  0  0  0  0  0  0
   -3.6054   -0.9495   -0.5439 C   0  0  0  0  0  0  0  0  0  0  0  0
    3.6115   -0.9542   -0.5361 C   0  0  0  0  0  0  0  0  0  0  0  0
    0.0015    2.8607    0.4335 C   0  0  0  0  0  0  0  0  0  0  0  0
   -4.7351   -0.6981    0.3746 C   0  0  0  0  0  0  0  0  0  0  0  0
    4.7461   -0.7085    0.3779 C   0  0  0  0  0  0  0  0  0  0  0  0
    0.0153    3.7591   -0.7394 C   0  0  0  0  0  0  0  0  0  0  0  0
   -5.9911   -0.7619   -0.0767 C   0  0  0  0  0  0  0  0  0  0  0  0
    6.0000   -0.7802   -0.0778 C   0  0  0  0  0  0  0  0  0  0  0  0
    0.0134    5.0840   -0.5674 C   0  0  0  0  0  0  0  0  0  0  0  0
  1  9  1  0
  1 13  1  0
  2 10  1  0
  2 14  1  0
  3 11  1  0
  3 15  1  0
  4 13  2  0
  5 14  2  0
  6 15  2  0
  7  8  1  0
  7  9  1  0
  7 10  1  0
  7 11  1  0
  8 12  1  0
 13 16  1  0
 14 17  1  0
 15 18  1  0
 16 19  2  0
 17 20  2  0
 18 21  2  0
M  END
>  <PUBCHEM_COMPOUND_CID>  (1) 
27423

>  <PUBCHEM_CONFORMER_RMSD>  (1) 
1

>  <PUBCHEM_CONFORMER_DIVERSEORDER>  (1) 
1
26
27
4
8
15
31
39
40
23
10
37
30
36
22
13
17
19
9
24
6
34
20
32
5
7
3
14
35
21
16
11
18
29
28
38
33
25
12
2

>  <PUBCHEM_MMFF94_PARTIAL_CHARGES>  (1) 
27
1 -0.43
10 0.28
11 0.28
13 0.71
14 0.71
15 0.71
16 -0.14
17 -0.14
18 -0.14
19 -0.3
2 -0.43
20 -0.3
21 -0.3
3 -0.43
33 0.15
34 0.15
35 0.15
36 0.15
37 0.15
38 0.15
39 0.15
4 -0.57
40 0.15
41 0.15
5 -0.57
6 -0.57
9 0.28

>  <PUBCHEM_EFFECTIVE_ROTOR_COUNT>  (1) 
13

>  <PUBCHEM_PHARMACOPHORE_FEATURES>  (1) 
7
1 12 hydrophobe
1 19 hydrophobe
1 20 hydrophobe
1 21 hydrophobe
1 4 acceptor
1 5 acceptor
1 6 acceptor

>  <PUBCHEM_HEAVY_ATOM_COUNT>  (1) 
21

>  <PUBCHEM_ATOM_DEF_STEREO_COUNT>  (1) 
0

>  <PUBCHEM_ATOM_UDEF_STEREO_COUNT>  (1) 
0

>  <PUBCHEM_BOND_DEF_STEREO_COUNT>  (1) 
0

>  <PUBCHEM_BOND_UDEF_STEREO_COUNT>  (1) 
0

>  <PUBCHEM_ISOTOPIC_ATOM_COUNT>  (1) 
0

>  <PUBCHEM_COMPONENT_COUNT>  (1) 
1

>  <PUBCHEM_CACTVS_TAUTO_COUNT>  (1) 
1

>  <PUBCHEM_CONFORMER_ID>  (1) 
00006B1F00000001

>  <PUBCHEM_MMFF94_ENERGY>  (1) 
46.3541

>  <PUBCHEM_FEATURE_SELFOVERLAP>  (1) 
35.524

>  <PUBCHEM_SHAPE_FINGERPRINT>  (1) 
102385 1 17688312703943108019
10366900 7 17822285804498060547
10906281 52 18269013001811453710
11045515 52 18411416206890220868
11578080 2 17389403806453114028
12617007 42 18271813453315797583
12788726 201 18335134238087111162
13149001 5 18117844514856885843
13590594 115 18411141333858824265
14347332 77 18196373615962783102
14943834 7 17613711522855959179
15048467 5 16630807707442239131
15439362 3 18121776394661634821
15775530 1 17686065297886170059
167882 2 18050005785716157396
1813 80 18200888321857908495
18769570 83 18411704244808815089
187816 3 18334577940774663674
18785283 64 17975135653913849185
20197701 30 7853570193159034221
20238998 120 18343581832678084425
20600515 1 18339938098703954434
20642791 239 17899441927910627052
21285901 2 18059866012931242110
21524375 3 17473002600844633128
21641784 216 18336281050163656476
23402539 116 18341611503740905382
23419403 2 17844786196688611456
23557571 272 18272374127195099326
23558518 356 17901114014418523754
23559900 14 18335421322708042858
266924 87 18192708947590662758
283562 15 18263646169391715322
3178227 256 18336280024062208923
3250762 1 17686064198332266203
469060 322 18263657181340053768
59554788 62 17985851244908504987
68521 5 18338798914315650172
7164475 11 18193274083766788302
7495541 125 18188499106768054531
81228 2 18268449965921659512

>  <PUBCHEM_SHAPE_MULTIPOLES>  (1) 
396.95
9.62
4.86
1.28
0.11
9.5
-0.02
-7.4
-2.38
0.03
0.46
-0.01
-0.22
0

>  <PUBCHEM_SHAPE_SELFOVERLAP>  (1) 
776.491

>  <PUBCHEM_SHAPE_VOLUME>  (1) 
235.1

>  <PUBCHEM_COORDINATE_TYPE>  (1) 
2
5
10

$$$$
