27442
     RDKit          3D

 24 29  0  0  1  0  0  0  0  0999 V2000
   -2.0175   -0.6789    0.7156 N   0  0  0  0  0  0  0  0  0  0  0  0
    2.3105    1.2089    0.4941 N   0  0  0  0  0  0  0  0  0  0  0  0
   -0.2228    1.6092    0.2768 C   0  0  0  0  0  0  0  0  0  0  0  0
   -1.1983    1.0793   -0.8240 C   0  0  0  0  0  0  0  0  0  0  0  0
   -1.4092   -0.4505   -0.6117 C   0  0  0  0  0  0  0  0  0  0  0  0
   -0.8158    1.2897    1.6760 C   0  0  0  0  0  0  0  0  0  0  0  0
    0.0072    3.1225    0.0864 C   0  0  0  0  0  0  0  0  0  0  0  0
   -2.5109    1.8777   -0.8757 C   0  0  0  0  0  0  0  0  0  0  0  0
    1.0571    0.8187    0.1163 C   0  0  0  0  0  0  0  0  0  0  0  0
   -0.0665   -1.2074   -0.8897 C   0  0  0  0  0  0  0  0  0  0  0  0
   -1.2159   -0.1872    1.8396 C   0  0  0  0  0  0  0  0  0  0  0  0
    1.1345   -0.4650   -0.3908 C   0  0  0  0  0  0  0  0  0  0  0  0
   -1.2898    3.9273   -0.0241 C   0  0  0  0  0  0  0  0  0  0  0  0
   -2.4373   -2.0604    0.9277 C   0  0  0  0  0  0  0  0  0  0  0  0
   -2.2329    3.3648   -1.0831 C   0  0  0  0  0  0  0  0  0  0  0  0
   -3.2989   -2.5600   -0.2135 C   0  0  0  0  0  0  0  0  0  0  0  0
   -4.5716   -1.8479   -0.4958 C   0  0  0  0  0  0  0  0  0  0  0  0
   -4.5894   -3.2175    0.1171 C   0  0  0  0  0  0  0  0  0  0  0  0
    2.4997   -0.8625   -0.3363 C   0  0  0  0  0  0  0  0  0  0  0  0
    3.2134    0.2036    0.2213 C   0  0  0  0  0  0  0  0  0  0  0  0
    3.2017   -2.0280   -0.7046 C   0  0  0  0  0  0  0  0  0  0  0  0
    4.5969    0.1576    0.4282 C   0  0  0  0  0  0  0  0  0  0  0  0
    4.5854   -2.0857   -0.5037 C   0  0  0  0  0  0  0  0  0  0  0  0
    5.2702   -1.0085    0.0541 C   0  0  0  0  0  0  0  0  0  0  0  0
  1  5  1  0
  1 11  1  0
  1 14  1  0
  2  9  1  0
  2 20  1  0
  3  4  1  0
  3  6  1  0
  3  7  1  0
  3  9  1  0
  4  5  1  0
  4  8  1  0
  5 10  1  0
  6 11  1  0
  7 13  1  0
  8 15  1  0
  9 12  2  0
 10 12  1  0
 12 19  1  0
 13 15  1  0
 14 16  1  0
 16 17  1  0
 16 18  1  0
 17 18  1  0
 19 20  2  0
 19 21  1  0
 20 22  1  0
 21 23  2  0
 22 24  2  0
 23 24  1  0
M  END
>  <PUBCHEM_COMPOUND_CID>  (1) 
27442

>  <PUBCHEM_CONFORMER_RMSD>  (1) 
0.8

>  <PUBCHEM_CONFORMER_DIVERSEORDER>  (1) 
1
11
10
7
3
2
6
8
5
4
9

>  <PUBCHEM_MMFF94_PARTIAL_CHARGES>  (1) 
27
1 -0.81
10 0.18
11 0.27
12 -0.18
14 0.37
16 -0.19
17 -0.2
18 -0.2
2 0.03
20 -0.15
21 -0.15
22 -0.15
23 -0.15
24 -0.15
3 0.18
43 0.1
44 0.1
45 0.1
46 0.1
47 0.1
48 0.27
49 0.15
5 0.27
50 0.15
51 0.15
52 0.15
9 -0.33

>  <PUBCHEM_EFFECTIVE_ROTOR_COUNT>  (1) 
4.2

>  <PUBCHEM_PHARMACOPHORE_FEATURES>  (1) 
8
1 1 cation
1 2 cation
1 2 donor
5 2 9 12 19 20 rings
6 1 3 4 5 6 11 rings
6 19 20 21 22 23 24 rings
6 3 4 5 9 10 12 rings
6 3 4 7 8 13 15 rings

>  <PUBCHEM_HEAVY_ATOM_COUNT>  (1) 
24

>  <PUBCHEM_ATOM_DEF_STEREO_COUNT>  (1) 
0

>  <PUBCHEM_ATOM_UDEF_STEREO_COUNT>  (1) 
3

>  <PUBCHEM_BOND_DEF_STEREO_COUNT>  (1) 
0

>  <PUBCHEM_BOND_UDEF_STEREO_COUNT>  (1) 
0

>  <PUBCHEM_ISOTOPIC_ATOM_COUNT>  (1) 
0

>  <PUBCHEM_COMPONENT_COUNT>  (1) 
1

>  <PUBCHEM_CACTVS_TAUTO_COUNT>  (1) 
1

>  <PUBCHEM_CONFORMER_ID>  (1) 
00006B3200000001

>  <PUBCHEM_MMFF94_ENERGY>  (1) 
60.4317

>  <PUBCHEM_FEATURE_SELFOVERLAP>  (1) 
42.35

>  <PUBCHEM_SHAPE_FINGERPRINT>  (1) 
10254770 206 16676116078106322346
10411042 1 18338234976345950327
10688039 33 18335701684507430799
11045515 52 18337390543105101247
11578080 2 17201891895415094513
116883 192 18336261336231780829
12363563 72 18335711592817874770
12553582 1 18192456235788302930
12788726 201 18259977163282526715
13004483 165 18413101783996259955
13134695 92 18120657091887005215
13140716 1 18343303647751187336
13540713 4 18129937880970029206
13544653 18 18339369676704124931
13681431 1 17826525645166006461
13690498 29 18269012920334254670
138480 1 15672385025353199541
13911987 19 17322133555126776596
13955234 65 17547298160833543515
14223421 5 18413669102432048506
14790565 3 17185031116368437325
15042514 8 18410857625187454397
15420108 30 16682018874814111905
15927050 60 17906452130523605575
16087824 20 18337390428038387445
16945 1 18193265304547582721
17357779 13 18339347665186312559
17492 89 18410571756881725750
17539 30 18409442558007028549
17980427 23 17560536087658366067
1813 80 18198359518091797871
19141452 34 18342186544327471411
20600515 1 18128836290024655295
21049683 271 17901958761133398373
21703447 108 18337939169743706034
22182313 1 18125132039281700297
22907989 373 18338814324658555764
229495 10 17844231037779315481
23419403 2 17774140418698751889
23557571 272 18408317791923864684
23559900 14 18053377705254548254
2748010 2 18272077310358077324
283562 15 18334575737414152090
3027735 51 18261393295657611747
3091708 16 9206180614451641549
3380486 145 18339379503842454393
3421961 26 18123469642388360299
439807 62 17269182154040846863
4409770 3 18263076627006425005
46194498 28 17389374128820319575
463206 1 18190179168640467155
5104073 3 18200585909612261218
58779409 54 18336823083214518637
59755656 520 17981613662823735297
6443956 14 18264488571423944647
70251023 43 18334861648949557466
7164475 11 18335707139379394076
7399639 24 18198609116317070640
81228 2 18187370926011758937
9709674 26 18126845998016233470

>  <PUBCHEM_SHAPE_MULTIPOLES>  (1) 
483.95
8.42
4.2
1.17
6.65
2.41
0.35
-8.28
-0.68
-4.84
-0.62
-0.51
0.17
1.04

>  <PUBCHEM_SHAPE_SELFOVERLAP>  (1) 
1073.319

>  <PUBCHEM_SHAPE_VOLUME>  (1) 
254.4

>  <PUBCHEM_COORDINATE_TYPE>  (1) 
2
5
10

$$$$
