27444
     RDKit          3D

 27 29  0  0  0  0  0  0  0  0999 V2000
   -5.0653   -1.0131   -0.2478 O   0  0  0  0  0  0  0  0  0  0  0  0
    3.0258    1.3904    0.9418 O   0  0  0  0  0  0  0  0  0  0  0  0
   -3.0210    2.6820    0.0897 O   0  0  0  0  0  0  0  0  0  0  0  0
    5.8815   -0.4973   -0.4199 N   0  0  0  0  0  0  0  0  0  0  0  0
    5.0587    0.1766    0.5735 C   0  0  0  0  0  0  0  0  0  0  0  0
   -3.2858    0.3363    0.0270 C   0  0  0  0  0  0  0  0  0  0  0  0
    6.2824    0.4329   -1.4782 C   0  0  0  0  0  0  0  0  0  0  0  0
    7.0654   -1.0922    0.2051 C   0  0  0  0  0  0  0  0  0  0  0  0
   -2.8287   -1.0074    0.0710 C   0  0  0  0  0  0  0  0  0  0  0  0
   -4.6463    0.2769   -0.1675 C   0  0  0  0  0  0  0  0  0  0  0  0
    3.8085    0.7562   -0.0687 C   0  0  0  0  0  0  0  0  0  0  0  0
   -3.9604   -1.7975   -0.1029 C   0  0  0  0  0  0  0  0  0  0  0  0
   -5.6939    1.3011   -0.2990 C   0  0  0  0  0  0  0  0  0  0  0  0
   -2.5218    1.5434    0.1550 C   0  0  0  0  0  0  0  0  0  0  0  0
   -1.0419    1.5015    0.3655 C   0  0  0  0  0  0  0  0  0  0  0  0
    7.0843   -0.2754   -2.5569 C   0  0  0  0  0  0  0  0  0  0  0  0
    6.6754   -2.0620    1.3075 C   0  0  0  0  0  0  0  0  0  0  0  0
   -1.5856   -1.6421    0.2380 C   0  0  0  0  0  0  0  0  0  0  0  0
    1.6788    1.4260    0.7508 C   0  0  0  0  0  0  0  0  0  0  0  0
   -3.9450   -3.1910   -0.1224 C   0  0  0  0  0  0  0  0  0  0  0  0
   -0.2222    1.5020   -0.7384 C   0  0  0  0  0  0  0  0  0  0  0  0
   -0.5619    1.4649    1.6534 C   0  0  0  0  0  0  0  0  0  0  0  0
   -5.9211    1.7419   -1.7520 C   0  0  0  0  0  0  0  0  0  0  0  0
    1.1584    1.4636   -0.5428 C   0  0  0  0  0  0  0  0  0  0  0  0
    0.8187    1.4266    1.8489 C   0  0  0  0  0  0  0  0  0  0  0  0
   -1.5384   -3.0429    0.2231 C   0  0  0  0  0  0  0  0  0  0  0  0
   -2.6984   -3.8012    0.0460 C   0  0  0  0  0  0  0  0  0  0  0  0
  1 10  1  0
  1 12  1  0
  2 11  1  0
  2 19  1  0
  3 14  2  0
  4  5  1  0
  4  7  1  0
  4  8  1  0
  5 11  1  0
  6  9  1  0
  6 10  2  0
  6 14  1  0
  7 16  1  0
  8 17  1  0
  9 12  2  0
  9 18  1  0
 10 13  1  0
 12 20  1  0
 13 23  1  0
 14 15  1  0
 15 21  2  0
 15 22  1  0
 18 26  2  0
 19 24  2  0
 19 25  1  0
 20 27  2  0
 21 24  1  0
 22 25  2  0
 26 27  1  0
M  END
>  <PUBCHEM_COMPOUND_CID>  (1) 
27444

>  <PUBCHEM_CONFORMER_RMSD>  (1) 
1

>  <PUBCHEM_CONFORMER_DIVERSEORDER>  (1) 
1
70
20
97
105
89
36
101
52
62
48
43
45
90
26
56
91
94
51
139
53
19
95
61
18
135
133
12
121
137
29
98
150
96
104
106
35
103
64
84
16
80
149
93
100
92
118
124
76
123
40
11
109
65
55
129
3
132
146
66
142
87
127
78
28
13
114
117
58
21
77
72
14
115
63
144
83
34
74
125
86
120
47
99
9
112
24
73
37
25
85
151
57
111
44
69
107
22
102
10
122
60
4
71
27
2
126
39
8
141
59
119
130
23
42
31
131
50
128
7
143
15
49
82
79
67
108
116
5
134
68
41
38
6
88
152
17
30
81
46
33
110
75
138
140
136
32
54
145
148
147
113

>  <PUBCHEM_MMFF94_PARTIAL_CHARGES>  (1) 
31
1 -0.28
10 -0.04
11 0.28
12 0.14
13 0.18
14 0.57
15 0.09
18 -0.15
19 0.08
2 -0.36
20 -0.15
21 -0.15
22 -0.15
24 -0.15
25 -0.15
26 -0.15
27 -0.15
3 -0.57
4 -0.81
44 0.15
45 0.15
46 0.15
47 0.15
5 0.27
51 0.15
52 0.15
53 0.15
54 0.15
6 -0.09
7 0.27
8 0.27

>  <PUBCHEM_EFFECTIVE_ROTOR_COUNT>  (1) 
9

>  <PUBCHEM_PHARMACOPHORE_FEATURES>  (1) 
8
1 1 acceptor
1 2 acceptor
1 23 hydrophobe
1 3 acceptor
1 4 cation
5 1 6 9 10 12 rings
6 15 19 21 22 24 25 rings
6 9 12 18 20 26 27 rings

>  <PUBCHEM_HEAVY_ATOM_COUNT>  (1) 
27

>  <PUBCHEM_ATOM_DEF_STEREO_COUNT>  (1) 
0

>  <PUBCHEM_ATOM_UDEF_STEREO_COUNT>  (1) 
0

>  <PUBCHEM_BOND_DEF_STEREO_COUNT>  (1) 
0

>  <PUBCHEM_BOND_UDEF_STEREO_COUNT>  (1) 
0

>  <PUBCHEM_ISOTOPIC_ATOM_COUNT>  (1) 
0

>  <PUBCHEM_COMPONENT_COUNT>  (1) 
1

>  <PUBCHEM_CACTVS_TAUTO_COUNT>  (1) 
1

>  <PUBCHEM_CONFORMER_ID>  (1) 
00006B3400000001

>  <PUBCHEM_MMFF94_ENERGY>  (1) 
66.4239

>  <PUBCHEM_FEATURE_SELFOVERLAP>  (1) 
40.698

>  <PUBCHEM_SHAPE_FINGERPRINT>  (1) 
10369192 42 14129062495377825987
11524674 6 17703785912110911911
11578080 2 16669874597677536389
117089 54 17755313601256227619
11796584 16 18412823607912550722
12643181 29 18411130334241564994
13402501 40 18202568388578942046
13761468 95 17170097154519050501
13782708 43 17845933047302940343
13785724 45 17542514185879162667
14251740 79 18411985775356428323
14251751 18 18412262874299391106
14420673 8 18410573993778926330
14461889 52 18129936889106956056
14866123 147 18412829114382956027
14910302 57 18337659902074424888
14930077 153 17385449825285549116
150020 25 18201446917875534676
15183329 4 18410015416671320200
15230672 131 18261947440832909682
15250474 111 18334293137794228882
15439362 3 17254828677615445853
15510800 12 17918004896495839654
16120349 21 18268162018952103699
17492 89 18048596220557311395
18603816 31 17987777679548541983
19958102 18 18336819810539090540
21279426 13 18343017821872119096
21307412 95 18272934933875424789
23559900 14 18270672185795197144
249057 3 18334295370439043389
25025965 108 16700327504785503150
25122255 55 17917723400529166390
3004659 81 18408321103760563384
32027 91 18343011212197331096
335352 9 18411417319935551637
3383291 50 17846777421042183287
373842 8 18199185088733438646
4107672 100 18113617876601435829
437815 12 17775568649922440672
44062 13 18340485676568853995
484985 159 18200605782278240291
5085150 59 18271232829583100270
5265222 85 18334582390149331220
559249 180 18335416868130416747
5718773 13 17702374238513909871
58902169 19 17748835107699734788
59755656 215 18341611482007086598
6437827 68 18411416185689879338
70634741 139 18268157620536164564
86090 222 16772977851844796630
9862886 166 18342741832043412004

>  <PUBCHEM_SHAPE_MULTIPOLES>  (1) 
533.06
17.81
3.49
1.48
30.39
3.31
0.42
4.33
7.07
-4.53
-0.35
2.27
-0.52
0.13

>  <PUBCHEM_SHAPE_SELFOVERLAP>  (1) 
1138.132

>  <PUBCHEM_SHAPE_VOLUME>  (1) 
300.2

>  <PUBCHEM_COORDINATE_TYPE>  (1) 
2
5
10

$$$$
