27448
     RDKit          3D

 17 18  0  0  0  0  0  0  0  0999 V2000
   -5.8084    1.3017    0.0168 Br  0  0  0  0  0  0  0  0  0  0  0  0
   -5.2199   -2.2875    0.0217 Br  0  0  0  0  0  0  0  0  0  0  0  0
    6.5504   -0.0476    0.0291 Br  0  0  0  0  0  0  0  0  0  0  0  0
   -2.2200   -1.2813   -0.0034 S   0  0  0  0  0  0  0  0  0  0  0  0
   -0.1604    1.9490   -0.0077 O   0  0  0  0  0  0  0  0  0  0  0  0
    0.4816   -0.3127   -0.0264 N   0  0  0  0  0  0  0  0  0  0  0  0
    1.8753   -0.2519   -0.0136 C   0  0  0  0  0  0  0  0  0  0  0  0
   -1.8636    0.3647   -0.0105 C   0  0  0  0  0  0  0  0  0  0  0  0
   -0.4287    0.7525   -0.0229 C   0  0  0  0  0  0  0  0  0  0  0  0
    2.5191    0.9853    0.0052 C   0  0  0  0  0  0  0  0  0  0  0  0
    2.6248   -1.4282   -0.0197 C   0  0  0  0  0  0  0  0  0  0  0  0
   -2.9202    1.1903   -0.0051 C   0  0  0  0  0  0  0  0  0  0  0  0
   -4.1296    0.4372    0.0058 C   0  0  0  0  0  0  0  0  0  0  0  0
    3.9126    1.0462    0.0179 C   0  0  0  0  0  0  0  0  0  0  0  0
    4.0184   -1.3675   -0.0070 C   0  0  0  0  0  0  0  0  0  0  0  0
    4.6623   -0.1302    0.0120 C   0  0  0  0  0  0  0  0  0  0  0  0
   -3.8937   -0.9200    0.0078 C   0  0  0  0  0  0  0  0  0  0  0  0
  1 13  1  0
  2 17  1  0
  3 16  1  0
  4  8  1  0
  4 17  1  0
  5  9  2  0
  6  7  1  0
  6  9  1  0
  7 10  2  0
  7 11  1  0
  8  9  1  0
  8 12  2  0
 10 14  1  0
 11 15  2  0
 12 13  1  0
 13 17  2  0
 14 16  2  0
 15 16  1  0
M  END
>  <PUBCHEM_COMPOUND_CID>  (1) 
27448

>  <PUBCHEM_CONFORMER_RMSD>  (1) 
0.6

>  <PUBCHEM_CONFORMER_DIVERSEORDER>  (1) 
1
4
2
3
5

>  <PUBCHEM_MMFF94_PARTIAL_CHARGES>  (1) 
23
1 -0.06
10 -0.15
11 -0.15
12 -0.15
13 0.06
14 -0.15
15 -0.15
16 0.11
17 0.1
18 0.37
19 0.15
2 -0.06
20 0.15
21 0.15
22 0.15
23 0.15
3 -0.11
4 -0.08
5 -0.57
6 -0.55
7 0.12
8 -0.05
9 0.71

>  <PUBCHEM_EFFECTIVE_ROTOR_COUNT>  (1) 
3

>  <PUBCHEM_PHARMACOPHORE_FEATURES>  (1) 
7
1 1 hydrophobe
1 2 hydrophobe
1 3 hydrophobe
1 5 acceptor
1 6 donor
5 4 8 12 13 17 rings
6 7 10 11 14 15 16 rings

>  <PUBCHEM_HEAVY_ATOM_COUNT>  (1) 
17

>  <PUBCHEM_ATOM_DEF_STEREO_COUNT>  (1) 
0

>  <PUBCHEM_ATOM_UDEF_STEREO_COUNT>  (1) 
0

>  <PUBCHEM_BOND_DEF_STEREO_COUNT>  (1) 
0

>  <PUBCHEM_BOND_UDEF_STEREO_COUNT>  (1) 
0

>  <PUBCHEM_ISOTOPIC_ATOM_COUNT>  (1) 
0

>  <PUBCHEM_COMPONENT_COUNT>  (1) 
1

>  <PUBCHEM_CACTVS_TAUTO_COUNT>  (1) 
2

>  <PUBCHEM_CONFORMER_ID>  (1) 
00006B3800000001

>  <PUBCHEM_MMFF94_ENERGY>  (1) 
37.2591

>  <PUBCHEM_FEATURE_SELFOVERLAP>  (1) 
35.522

>  <PUBCHEM_SHAPE_FINGERPRINT>  (1) 
10366900 7 14836401423807932263
10968037 39 18409168813659973879
11315181 36 18273500082456683393
12091667 2 17095242510226138701
12107183 9 17690844454003614483
12236239 1 18187365437233185838
12616971 3 17095249128622951711
12916748 109 9295283958613649349
13167823 11 18410854365001561895
13288520 33 18411419540444121471
13533116 47 17059494019910979374
13740256 8 18410294756780421891
13862211 1 18335136501714249882
14251732 16 18340203098465647112
14251764 18 18341896290685481769
15196674 1 18410574010937098663
15242433 33 18410012117608974711
17834072 33 18410856594041752079
17834076 25 17022905635755230456
17844677 252 18340494451424390601
18186145 218 17240479225768573537
18681886 176 18411416254931231728
19141452 34 18409731755682869597
200 152 18272651246842850178
20374829 77 18335698338590412683
20645477 70 18270680861776542118
20681677 155 18260266326783089819
21054139 6 18040712610522568666
21236236 1 18411981378196341259
21267235 1 18410863191138223686
21709351 56 18260542346518448916
220451 1 18114183012292329314
22485316 2 18409729547621312363
23402539 116 18408318891113726263
23402655 69 18411699868268769334
23559900 14 18341888606166485425
23622692 118 18200024196604042159
26918003 58 18341892978442932728
300161 21 18410568466176556529
3004659 81 18260829302300677032
3545911 37 18410856538228471004
4073 2 18186526531046288570
4214541 1 18410856560077691425
4463277 17 18411419505699430048
4921388 177 16371017351100175979
5104073 3 18412543223736286107
542803 24 17240485810116884324
559249 180 18408882941159309711
59755656 215 18341618066957219318
59755656 520 16660364779125349427
67856867 119 18261958560840771212
7495541 125 18060415863102216752
77779 3 18411419509598485639
9709674 26 18409737261156417755

>  <PUBCHEM_SHAPE_MULTIPOLES>  (1) 
360.68
15.14
1.94
0.64
5.34
0.46
0
1.64
-0.18
-2.25
0
-0.05
0.02
0.02

>  <PUBCHEM_SHAPE_SELFOVERLAP>  (1) 
716.063

>  <PUBCHEM_SHAPE_VOLUME>  (1) 
220.7

>  <PUBCHEM_COORDINATE_TYPE>  (1) 
2
5
10

$$$$
