27453
     RDKit          3D

 21 21  0  0  0  0  0  0  0  0999 V2000
   -5.4016   -0.4307    0.8278 O   0  0  0  0  0  0  0  0  0  0  0  0
    2.9246    1.5536    0.2422 O   0  0  0  0  0  0  0  0  0  0  0  0
    7.7713    0.0652    0.7620 O   0  0  0  0  0  0  0  0  0  0  0  0
    1.8563   -0.2004   -0.8418 N   0  0  0  0  0  0  0  0  0  0  0  0
   -0.5584   -0.4435   -0.1379 C   0  0  0  0  0  0  0  0  0  0  0  0
   -0.1709   -0.6153    1.3738 C   0  0  0  0  0  0  0  0  0  0  0  0
   -0.6243   -1.8849   -0.7582 C   0  0  0  0  0  0  0  0  0  0  0  0
    0.5406    0.3843   -0.8770 C   0  0  0  0  0  0  0  0  0  0  0  0
   -1.9582    0.2177   -0.2243 C   0  0  0  0  0  0  0  0  0  0  0  0
   -0.0967    0.6741    2.1870 C   0  0  0  0  0  0  0  0  0  0  0  0
   -1.0432   -1.9540   -2.2245 C   0  0  0  0  0  0  0  0  0  0  0  0
   -3.0638   -0.4121    0.3472 C   0  0  0  0  0  0  0  0  0  0  0  0
   -2.1117    1.4427   -0.8734 C   0  0  0  0  0  0  0  0  0  0  0  0
    2.9521    0.4416   -0.2777 C   0  0  0  0  0  0  0  0  0  0  0  0
   -4.3229    0.1832    0.2697 C   0  0  0  0  0  0  0  0  0  0  0  0
   -3.3708    2.0381   -0.9511 C   0  0  0  0  0  0  0  0  0  0  0  0
    4.2056   -0.4142   -0.3517 C   0  0  0  0  0  0  0  0  0  0  0  0
   -4.4763    1.4083   -0.3795 C   0  0  0  0  0  0  0  0  0  0  0  0
    5.4375    0.2492    0.2559 C   0  0  0  0  0  0  0  0  0  0  0  0
    6.6844   -0.6216    0.1555 C   0  0  0  0  0  0  0  0  0  0  0  0
   -5.1738   -1.6813    1.4761 C   0  0  0  0  0  0  0  0  0  0  0  0
  1 15  1  0
  1 21  1  0
  2 14  2  0
  3 20  1  0
  4  8  1  0
  4 14  1  0
  5  6  1  0
  5  7  1  0
  5  8  1  0
  5  9  1  0
  6 10  1  0
  7 11  1  0
  9 12  2  0
  9 13  1  0
 12 15  1  0
 13 16  2  0
 14 17  1  0
 15 18  2  0
 16 18  1  0
 17 19  1  0
 19 20  1  0
M  END
>  <PUBCHEM_COMPOUND_CID>  (1) 
27453

>  <PUBCHEM_CONFORMER_RMSD>  (1) 
1

>  <PUBCHEM_CONFORMER_DIVERSEORDER>  (1) 
1
40
43
208
39
26
38
155
89
157
69
63
124
163
97
114
183
181
32
148
145
134
139
118
199
86
125
211
143
90
212
194
16
151
81
100
45
36
142
50
104
67
57
216
170
47
187
91
204
171
131
48
35
109
6
214
105
201
68
186
73
197
137
10
99
202
15
154
140
166
37
189
213
58
149
195
115
23
173
128
44
176
79
205
33
96
130
64
59
8
135
129
65
66
46
168
158
22
18
159
188
165
42
162
169
5
136
144
2
102
61
20
84
207
133
150
82
111
121
3
190
78
182
192
95
21
132
179
203
209
11
177
167
74
106
56
200
70
193
98
85
54
94
92
107
180
184
83
122
41
196
175
72
52
88
185
141
9
153
7
55
116
77
80
29
101
13
19
198
117
206
156
172
76
110
28
113
138
191
120
4
161
108
152
31
49
215
12
71
51
123
93
178
14
147
60
17
164
127
75
87
112
53
126
34
103
174
210
24
25
119
27
146
160
62
30

>  <PUBCHEM_MMFF94_PARTIAL_CHARGES>  (1) 
22
1 -0.36
12 -0.15
13 -0.15
14 0.57
15 0.08
16 -0.15
17 0.06
18 -0.15
2 -0.57
20 0.28
21 0.28
3 -0.68
34 0.37
35 0.15
36 0.15
37 0.15
4 -0.73
40 0.15
48 0.4
5 0.14
8 0.3
9 -0.14

>  <PUBCHEM_EFFECTIVE_ROTOR_COUNT>  (1) 
10

>  <PUBCHEM_PHARMACOPHORE_FEATURES>  (1) 
8
1 1 acceptor
1 10 hydrophobe
1 11 hydrophobe
1 2 acceptor
1 3 acceptor
1 3 donor
1 4 donor
6 9 12 13 15 16 18 rings

>  <PUBCHEM_HEAVY_ATOM_COUNT>  (1) 
21

>  <PUBCHEM_ATOM_DEF_STEREO_COUNT>  (1) 
0

>  <PUBCHEM_ATOM_UDEF_STEREO_COUNT>  (1) 
0

>  <PUBCHEM_BOND_DEF_STEREO_COUNT>  (1) 
0

>  <PUBCHEM_BOND_UDEF_STEREO_COUNT>  (1) 
0

>  <PUBCHEM_ISOTOPIC_ATOM_COUNT>  (1) 
0

>  <PUBCHEM_COMPONENT_COUNT>  (1) 
1

>  <PUBCHEM_CACTVS_TAUTO_COUNT>  (1) 
2

>  <PUBCHEM_CONFORMER_ID>  (1) 
00006B3D00000001

>  <PUBCHEM_MMFF94_ENERGY>  (1) 
56.7504

>  <PUBCHEM_FEATURE_SELFOVERLAP>  (1) 
40.596

>  <PUBCHEM_SHAPE_FINGERPRINT>  (1) 
10 15 18410852192628799024
10366900 7 12179841714973622556
11315181 36 17240486913628327181
12011746 2 12468355768997949386
12236239 1 16877948247647751868
12592029 89 18410299073106886578
12596602 18 17530684333663166140
13288520 33 17530685420315765597
13583140 156 18408600357637808135
14251764 18 17240484724170620776
15048467 5 12319462069291966731
17862501 102 17240768406222496897
18186145 218 17632863018483717237
18222031 100 14418132971496258799
187816 3 17060336305825571716
18927931 339 18114188549117220327
19489759 90 17749109980626168297
200 152 8718825388412003828
20645477 56 18201995534509739172
21033648 29 18130210593348851896
21267235 1 17386015004996396195
22224240 67 17989212555941348195
23198884 109 16950286196150822664
23402539 116 17895195523936001375
23557571 272 18261125037022471853
23559900 14 18040149621961511297
3545911 37 17989488520369192022
5104073 3 18264498282371388155
7226269 152 17203325598458338178
7495541 125 18272093863214692825
81228 2 17481959622191965175
9996256 80 17676203559543438258

>  <PUBCHEM_SHAPE_MULTIPOLES>  (1) 
409.58
14.16
1.73
1.55
24.54
0.09
-0.14
0.21
-4.09
-2
0.54
-0.9
0.48
1.11

>  <PUBCHEM_SHAPE_SELFOVERLAP>  (1) 
816.035

>  <PUBCHEM_SHAPE_VOLUME>  (1) 
241.3

>  <PUBCHEM_COORDINATE_TYPE>  (1) 
2
5
10

$$$$
