27474
     RDKit          3D

  7  7  0  0  0  0  0  0  0  0999 V2000
    2.9166   -0.0003   -0.3585 N   0  0  0  0  0  0  0  0  0  0  0  0
    0.4541    0.0005    0.5863 C   0  0  0  0  0  0  0  0  0  0  0  0
   -0.4523   -1.1027   -0.0001 C   0  0  0  0  0  0  0  0  0  0  0  0
   -0.4529    1.1031   -0.0006 C   0  0  0  0  0  0  0  0  0  0  0  0
   -1.4846   -0.0001   -0.0837 C   0  0  0  0  0  0  0  0  0  0  0  0
   -2.8132   -0.0005   -0.1976 C   0  0  0  0  0  0  0  0  0  0  0  0
    1.8324   -0.0001    0.0541 C   0  0  0  0  0  0  0  0  0  0  0  0
  1  7  3  0
  2  3  1  0
  2  4  1  0
  2  7  1  0
  3  5  1  0
  4  5  1  0
  5  6  2  0
M  END
>  <PUBCHEM_COMPOUND_CID>  (1) 
27474

>  <PUBCHEM_CONFORMER_RMSD>  (1) 
0.4

>  <PUBCHEM_CONFORMER_DIVERSEORDER>  (1) 
1
2

>  <PUBCHEM_MMFF94_PARTIAL_CHARGES>  (1) 
9
1 -0.56
13 0.15
14 0.15
2 0.18
3 0.14
4 0.14
5 -0.31
6 -0.27
7 0.38

>  <PUBCHEM_EFFECTIVE_ROTOR_COUNT>  (1) 
0.6

>  <PUBCHEM_PHARMACOPHORE_FEATURES>  (1) 
2
1 1 acceptor
4 2 3 4 5 rings

>  <PUBCHEM_HEAVY_ATOM_COUNT>  (1) 
7

>  <PUBCHEM_ATOM_DEF_STEREO_COUNT>  (1) 
0

>  <PUBCHEM_ATOM_UDEF_STEREO_COUNT>  (1) 
0

>  <PUBCHEM_BOND_DEF_STEREO_COUNT>  (1) 
0

>  <PUBCHEM_BOND_UDEF_STEREO_COUNT>  (1) 
0

>  <PUBCHEM_ISOTOPIC_ATOM_COUNT>  (1) 
0

>  <PUBCHEM_COMPONENT_COUNT>  (1) 
1

>  <PUBCHEM_CACTVS_TAUTO_COUNT>  (1) 
1

>  <PUBCHEM_CONFORMER_ID>  (1) 
00006B5200000001

>  <PUBCHEM_MMFF94_ENERGY>  (1) 
8.5681

>  <PUBCHEM_FEATURE_SELFOVERLAP>  (1) 
10.148

>  <PUBCHEM_SHAPE_FINGERPRINT>  (1) 
11062470 55 12823296797125446923
14390081 3 14923940150133320823
16714656 1 18410573989530814527
21040471 1 18337942433348943387
21293036 1 18335977653425400927
23552423 10 18118402834809123226
29004967 10 15697999643328577866
5460574 1 9295290546966757402

>  <PUBCHEM_SHAPE_MULTIPOLES>  (1) 
139.08
3.63
0.96
0.68
0.72
0
0.03
0
-0.59
-0.16
0
0.04
0
0

>  <PUBCHEM_SHAPE_SELFOVERLAP>  (1) 
273.696

>  <PUBCHEM_SHAPE_VOLUME>  (1) 
83.3

>  <PUBCHEM_COORDINATE_TYPE>  (1) 
2
5
10

$$$$
