27470
     RDKit          3D

  9  8  0  0  1  0  0  0  0  0999 V2000
    0.0642    0.5502   -1.3621 O   0  0  0  0  0  0  0  0  0  0  0  0
    1.2561   -0.6030    0.3897 C   0  0  0  0  0  0  0  0  0  0  0  0
    2.5068    0.2321    0.0802 C   0  0  0  0  0  0  0  0  0  0  0  0
    0.0084   -0.0184   -0.2716 C   0  0  0  0  0  0  0  0  0  0  0  0
   -1.3079   -0.2443    0.4593 C   0  0  0  0  0  0  0  0  0  0  0  0
    1.4301   -2.0411   -0.0915 C   0  0  0  0  0  0  0  0  0  0  0  0
   -2.5143    0.3763   -0.2417 C   0  0  0  0  0  0  0  0  0  0  0  0
    2.3805    1.6716    0.5627 C   0  0  0  0  0  0  0  0  0  0  0  0
   -3.8238    0.0767    0.4750 C   0  0  0  0  0  0  0  0  0  0  0  0
  1  4  2  0
  2  3  1  0
  2  4  1  0
  2  6  1  0
  3  8  1  0
  4  5  1  0
  5  7  1  0
  7  9  1  0
M  END
>  <PUBCHEM_COMPOUND_CID>  (1) 
27470

>  <PUBCHEM_CONFORMER_RMSD>  (1) 
0.6

>  <PUBCHEM_CONFORMER_DIVERSEORDER>  (1) 
1
73
27
91
11
74
28
70
53
85
65
52
69
61
67
72
82
6
36
33
50
75
56
87
21
93
29
60
20
80
12
3
94
40
66
39
49
13
64
81
83
23
89
38
96
19
55
62
48
95
45
18
4
35
86
37
71
58
76
2
54
47
77
44
88
46
17
68
16
92
63
57
41
31
34
22
59
78
42
15
79
51
32
25
90
10
9
14
84
8
24
43
26
5
30
7

>  <PUBCHEM_MMFF94_PARTIAL_CHARGES>  (1) 
4
1 -0.57
2 0.06
4 0.45
5 0.06

>  <PUBCHEM_EFFECTIVE_ROTOR_COUNT>  (1) 
4

>  <PUBCHEM_PHARMACOPHORE_FEATURES>  (1) 
4
1 1 acceptor
1 6 hydrophobe
1 8 hydrophobe
1 9 hydrophobe

>  <PUBCHEM_HEAVY_ATOM_COUNT>  (1) 
9

>  <PUBCHEM_ATOM_DEF_STEREO_COUNT>  (1) 
0

>  <PUBCHEM_ATOM_UDEF_STEREO_COUNT>  (1) 
1

>  <PUBCHEM_BOND_DEF_STEREO_COUNT>  (1) 
0

>  <PUBCHEM_BOND_UDEF_STEREO_COUNT>  (1) 
0

>  <PUBCHEM_ISOTOPIC_ATOM_COUNT>  (1) 
0

>  <PUBCHEM_COMPONENT_COUNT>  (1) 
1

>  <PUBCHEM_CACTVS_TAUTO_COUNT>  (1) 
3

>  <PUBCHEM_CONFORMER_ID>  (1) 
00006B4E00000001

>  <PUBCHEM_MMFF94_ENERGY>  (1) 
3.524

>  <PUBCHEM_FEATURE_SELFOVERLAP>  (1) 
20.297

>  <PUBCHEM_SHAPE_FINGERPRINT>  (1) 
10219947 1 18040154036850067141
10857977 72 17240198841840208581
12932764 1 18341895164997894469
14325111 11 18411138017995845819
14390081 3 18342455967256917985
170605 34 17989208187094172096
20645477 70 18339636721176270679
20711978 78 18267007384895983302
20715346 28 18040996203070435207
20871998 22 17840308818073927094
21040471 1 18193837270095878472
23552449 11 18337387115394378859
29004967 10 17749393641551159611
3248919 1 16845291593036031415

>  <PUBCHEM_SHAPE_MULTIPOLES>  (1) 
179.35
4.99
1.5
0.88
4.55
0.4
-0.17
-1.13
0.96
-1.49
0.12
0.05
-0.11
0.22

>  <PUBCHEM_SHAPE_SELFOVERLAP>  (1) 
323.879

>  <PUBCHEM_SHAPE_VOLUME>  (1) 
116.3

>  <PUBCHEM_COORDINATE_TYPE>  (1) 
2
5
10

$$$$
