27472
     RDKit          3D

 20 20  0  0  0  0  0  0  0  0999 V2000
   -2.7903   -0.2677   -0.4653 O   0  0  0  0  0  0  0  0  0  0  0  0
   -0.6407   -0.1627   -1.0513 O   0  0  0  0  0  0  0  0  0  0  0  0
   -1.2022   -0.6657    1.1573 O   0  0  0  0  0  0  0  0  0  0  0  0
    1.4196    3.0928    0.2864 O   0  0  0  0  0  0  0  0  0  0  0  0
   -0.4558    2.2254   -0.4552 O   0  0  0  0  0  0  0  0  0  0  0  0
    5.2682   -1.7773    0.3005 O   0  0  0  0  0  0  0  0  0  0  0  0
    5.3388    0.3582    0.8042 O   0  0  0  0  0  0  0  0  0  0  0  0
    0.7500    2.1176   -0.1291 N   0  0  0  0  0  0  0  0  0  0  0  0
    4.7189   -0.6533    0.3956 N   0  0  0  0  0  0  0  0  0  0  0  0
   -5.1702   -0.2936   -0.2038 C   0  0  0  0  0  0  0  0  0  0  0  0
   -6.3317   -0.4848    0.7672 C   0  0  0  0  0  0  0  0  0  0  0  0
   -3.8254   -0.4726    0.4862 C   0  0  0  0  0  0  0  0  0  0  0  0
   -7.6715   -0.2627    0.0839 C   0  0  0  0  0  0  0  0  0  0  0  0
    0.7033   -0.2665   -0.6829 C   0  0  0  0  0  0  0  0  0  0  0  0
    1.3795    0.8468   -0.2345 C   0  0  0  0  0  0  0  0  0  0  0  0
    3.3533   -0.5216    0.0287 C   0  0  0  0  0  0  0  0  0  0  0  0
    2.7209    0.7180    0.1259 C   0  0  0  0  0  0  0  0  0  0  0  0
    1.3031   -1.5035   -0.7892 C   0  0  0  0  0  0  0  0  0  0  0  0
    2.6443   -1.6322   -0.4288 C   0  0  0  0  0  0  0  0  0  0  0  0
   -1.5120   -0.3947    0.0041 C   0  0  0  0  0  0  0  0  0  0  0  0
  1 12  1  0
  1 20  1  0
  2 14  1  0
  2 20  1  0
  3 20  2  0
  4  8  1  0
  5  8  2  0
  6  9  1  0
  7  9  2  0
  8 15  1  0
  9 16  1  0
 10 11  1  0
 10 12  1  0
 11 13  1  0
 14 15  2  0
 14 18  1  0
 15 17  1  0
 16 17  2  0
 16 19  1  0
 18 19  2  0
M  CHG  4   4  -1   6  -1   8   1   9   1
M  END
>  <PUBCHEM_COMPOUND_CID>  (1) 
27472

>  <PUBCHEM_CONFORMER_RMSD>  (1) 
0.8

>  <PUBCHEM_CONFORMER_DIVERSEORDER>  (1) 
1
60
50
14
15
63
25
9
33
20
43
46
2
11
35
54
4
67
29
13
12
66
64
10
38
36
3
44
56
53
40
62
5
7
49
45
17
21
23
24
55
16
30
37
6
27
51
52
8
22
28
57
58
19
18
39
69
68
48
34
41
47
26
31
42
61
32
65
59

>  <PUBCHEM_MMFF94_PARTIAL_CHARGES>  (1) 
20
1 -0.43
12 0.28
14 0.08
15 0.13
16 0.13
17 -0.15
18 -0.15
19 -0.15
2 -0.23
20 0.87
3 -0.57
30 0.15
31 0.15
32 0.15
4 -0.52
5 -0.52
6 -0.52
7 -0.52
8 0.91
9 0.91

>  <PUBCHEM_EFFECTIVE_ROTOR_COUNT>  (1) 
8

>  <PUBCHEM_PHARMACOPHORE_FEATURES>  (1) 
8
1 13 hydrophobe
1 4 acceptor
1 4 anion
1 5 acceptor
1 6 acceptor
1 6 anion
1 7 acceptor
6 14 15 16 17 18 19 rings

>  <PUBCHEM_HEAVY_ATOM_COUNT>  (1) 
20

>  <PUBCHEM_ATOM_DEF_STEREO_COUNT>  (1) 
0

>  <PUBCHEM_ATOM_UDEF_STEREO_COUNT>  (1) 
0

>  <PUBCHEM_BOND_DEF_STEREO_COUNT>  (1) 
0

>  <PUBCHEM_BOND_UDEF_STEREO_COUNT>  (1) 
0

>  <PUBCHEM_ISOTOPIC_ATOM_COUNT>  (1) 
0

>  <PUBCHEM_COMPONENT_COUNT>  (1) 
1

>  <PUBCHEM_CACTVS_TAUTO_COUNT>  (1) 
1

>  <PUBCHEM_CONFORMER_ID>  (1) 
00006B5000000001

>  <PUBCHEM_MMFF94_ENERGY>  (1) 
58.0896

>  <PUBCHEM_FEATURE_SELFOVERLAP>  (1) 
40.76

>  <PUBCHEM_SHAPE_FINGERPRINT>  (1) 
10688039 33 18186519882452978909
11405975 8 18337961203026186955
11545043 162 17313395569264819617
11796584 16 16805327707756477443
12236239 1 17489866050981886951
13140716 1 18197211662338322982
13167372 99 18201449047983959393
13533116 47 16988566749485712158
13899415 154 18341904008372739812
13968360 50 9511469909387897616
14115302 16 17168154454832198466
14170010 4 18413387661514519393
14251764 18 18410296913022861417
14252887 29 18272095959253951510
15048467 5 17203605999408634842
15475509 35 17096066048946725552
15527383 91 18410011061279226053
17980427 23 16773500179179990253
18006028 8 18408041788793628342
18222031 100 18272101486818462518
21267235 1 18339364072478516558
22224240 67 17988917890471335510
23402539 116 18341607114605803111
23559900 14 17604436318353493325
23622692 88 18131353024853393911
26918003 58 18410859876024825587
2748010 2 17983851191167484398
33382 64 16588298341939565402
4340502 62 14979956952070196182
465052 167 18408889537854705430
5104073 3 18197486343262159176
59755656 215 17385437696978379963
67856867 119 18058727043792176217
7495541 125 18187655755668988563

>  <PUBCHEM_SHAPE_MULTIPOLES>  (1) 
360.54
14.14
1.94
0.85
23.7
1.57
-0.01
-4.6
-3.45
-2.18
0.09
0.06
-0.11
0.24

>  <PUBCHEM_SHAPE_SELFOVERLAP>  (1) 
745.974

>  <PUBCHEM_SHAPE_VOLUME>  (1) 
204.4

>  <PUBCHEM_COORDINATE_TYPE>  (1) 
2
5
10

$$$$
