27492
     RDKit          3D

  6  5  0  0  0  0  0  0  0  0999 V2000
    0.1855   -0.6808    0.1996 O   0  0  0  0  0  0  0  0  0  0  0  0
   -0.9898    1.3068   -0.0190 O   0  0  0  0  0  0  0  0  0  0  0  0
   -2.0307   -0.7319   -0.1817 N   0  0  0  0  0  0  0  0  0  0  0  0
   -0.9376    0.0807    0.0022 C   0  0  0  0  0  0  0  0  0  0  0  0
    1.3448    0.0480    0.3880 C   0  0  0  0  0  0  0  0  0  0  0  0
    2.4277   -0.0228   -0.3891 C   0  0  0  0  0  0  0  0  0  0  0  0
  1  4  1  0
  1  5  1  0
  2  4  2  0
  3  4  1  0
  5  6  2  0
M  END
>  <PUBCHEM_COMPOUND_CID>  (1) 
27492

>  <PUBCHEM_CONFORMER_RMSD>  (1) 
0.4

>  <PUBCHEM_CONFORMER_DIVERSEORDER>  (1) 
2
8
9
5
4
3
6
7
10
1

>  <PUBCHEM_MMFF94_PARTIAL_CHARGES>  (1) 
11
1 -0.23
10 0.15
11 0.15
2 -0.57
3 -0.8
4 0.78
5 -0.07
6 -0.3
7 0.15
8 0.37
9 0.37

>  <PUBCHEM_EFFECTIVE_ROTOR_COUNT>  (1) 
2

>  <PUBCHEM_PHARMACOPHORE_FEATURES>  (1) 
2
1 2 acceptor
1 3 donor

>  <PUBCHEM_HEAVY_ATOM_COUNT>  (1) 
6

>  <PUBCHEM_ATOM_DEF_STEREO_COUNT>  (1) 
0

>  <PUBCHEM_ATOM_UDEF_STEREO_COUNT>  (1) 
0

>  <PUBCHEM_BOND_DEF_STEREO_COUNT>  (1) 
0

>  <PUBCHEM_BOND_UDEF_STEREO_COUNT>  (1) 
0

>  <PUBCHEM_ISOTOPIC_ATOM_COUNT>  (1) 
0

>  <PUBCHEM_COMPONENT_COUNT>  (1) 
1

>  <PUBCHEM_CACTVS_TAUTO_COUNT>  (1) 
2

>  <PUBCHEM_CONFORMER_ID>  (1) 
00006B6400000002

>  <PUBCHEM_MMFF94_ENERGY>  (1) 
13.2168

>  <PUBCHEM_FEATURE_SELFOVERLAP>  (1) 
10.148

>  <PUBCHEM_SHAPE_FINGERPRINT>  (1) 
139733 1 8790618017121765379
16714656 1 18341897419465516519
20096714 4 18189618250400780944
21040471 1 18051406266997527760
24536 1 18264193743166946886
29004967 10 16056883533069817594
5460574 1 9079121055135597386

>  <PUBCHEM_SHAPE_MULTIPOLES>  (1) 
106.76
2.94
0.95
0.64
0.88
0.21
0
-0.27
-0.4
-0.38
-0.01
0.14
-0.01
-0.03

>  <PUBCHEM_SHAPE_SELFOVERLAP>  (1) 
195.402

>  <PUBCHEM_SHAPE_VOLUME>  (1) 
67.8

>  <PUBCHEM_COORDINATE_TYPE>  (1) 
2
5
10

$$$$
