27495
     RDKit          3D

 23 24  0  0  0  0  0  0  0  0999 V2000
   -1.7103    0.5264   -1.6185 O   0  0  0  0  0  0  0  0  0  0  0  0
    3.4785    0.0115    2.0384 O   0  0  0  0  0  0  0  0  0  0  0  0
   -2.9732    1.9102   -0.2487 N   0  0  0  0  0  0  0  0  0  0  0  0
    1.8135    1.5892    0.4913 N   0  0  0  0  0  0  0  0  0  0  0  0
    3.0036    1.0551    0.0212 N   0  0  0  0  0  0  0  0  0  0  0  0
    7.4003   -1.2089   -0.7521 N   0  0  0  0  0  0  0  0  0  0  0  0
   -4.2453    1.6355   -0.8729 C   0  0  0  0  0  0  0  0  0  0  0  0
   -4.9444    0.4701   -0.2345 C   0  0  0  0  0  0  0  0  0  0  0  0
   -0.6023    1.7752    0.1357 C   0  0  0  0  0  0  0  0  0  0  0  0
    0.7001    1.1347   -0.3325 C   0  0  0  0  0  0  0  0  0  0  0  0
   -1.7959    1.3199   -0.6852 C   0  0  0  0  0  0  0  0  0  0  0  0
   -4.7207   -0.8140   -0.7169 C   0  0  0  0  0  0  0  0  0  0  0  0
   -5.3692   -1.8967   -0.1229 C   0  0  0  0  0  0  0  0  0  0  0  0
   -5.8069    0.6870    0.8335 C   0  0  0  0  0  0  0  0  0  0  0  0
   -6.2365   -1.6878    0.9492 C   0  0  0  0  0  0  0  0  0  0  0  0
   -6.4553   -0.3958    1.4274 C   0  0  0  0  0  0  0  0  0  0  0  0
   -5.1365   -3.2781   -0.6347 C   0  0  0  0  0  0  0  0  0  0  0  0
    3.7670    0.2777    0.8742 C   0  0  0  0  0  0  0  0  0  0  0  0
    5.0379   -0.2420    0.3054 C   0  0  0  0  0  0  0  0  0  0  0  0
    6.0840   -0.5162    1.1538 C   0  0  0  0  0  0  0  0  0  0  0  0
    5.1300   -0.4339   -1.0526 C   0  0  0  0  0  0  0  0  0  0  0  0
    7.2464   -0.9989    0.5745 C   0  0  0  0  0  0  0  0  0  0  0  0
    6.3352   -0.9202   -1.5332 C   0  0  0  0  0  0  0  0  0  0  0  0
  1 11  2  0
  2 18  2  0
  3  7  1  0
  3 11  1  0
  4  5  1  0
  4 10  1  0
  5 18  1  0
  6 22  2  0
  6 23  1  0
  7  8  1  0
  8 12  2  0
  8 14  1  0
  9 10  1  0
  9 11  1  0
 12 13  1  0
 13 15  2  0
 13 17  1  0
 14 16  2  0
 15 16  1  0
 18 19  1  0
 19 20  2  0
 19 21  1  0
 20 22  1  0
 21 23  2  0
M  END
>  <PUBCHEM_COMPOUND_CID>  (1) 
27495

>  <PUBCHEM_CONFORMER_RMSD>  (1) 
1

>  <PUBCHEM_CONFORMER_DIVERSEORDER>  (1) 
1
108
22
165
32
183
177
118
160
260
151
72
263
216
9
64
213
147
14
120
30
232
86
63
78
27
79
150
11
13
97
5
242
209
132
163
3
265
253
195
239
88
38
69
15
133
45
205
75
229
154
26
214
226
138
231
104
74
2
246
6
227
250
125
256
158
36
123
249
254
159
119
99
156
91
157
137
35
128
85
49
28
43
7
70
221
95
170
51
193
129
130
189
162
93
233
116
169
31
109
56
107
264
173
25
190
211
24
198
115
61
18
98
122
182
204
58
224
235
178
19
240
243
237
172
230
4
42
212
127
215
201
126
105
152
77
144
102
266
52
166
176
164
136
39
96
83
161
248
46
135
82
50
210
207
185
148
188
187
17
41
181
241
20
101
236
53
155
110
217
67
37
203
186
134
92
29
202
197
194
168
34
111
131
196
234
208
8
114
117
140
71
218
57
33
94
76
81
228
200
174
262
59
21
145
192
222
139
251
167
223
12
259
143
68
258
146
220
16
191
257
255
73
238
112
100
225
55
113
252
23
171
103
89
206
245
10
84
142
66
40
244
175
60
199
80
247
153
106
180
179
149
48
62
47
141
184
261
124
54
219
87
121
44
65
90

>  <PUBCHEM_MMFF94_PARTIAL_CHARGES>  (1) 
34
1 -0.57
10 0.27
11 0.57
12 -0.15
13 -0.14
14 -0.15
15 -0.15
16 -0.15
17 0.14
18 0.54
19 0.09
2 -0.57
20 -0.15
21 -0.15
22 0.16
23 0.16
3 -0.73
30 0.37
31 0.15
32 0.15
33 0.36
34 0.15
35 0.15
39 0.37
4 -0.64
40 0.15
41 0.15
42 0.15
43 0.15
5 -0.42
6 -0.62
7 0.44
8 -0.14
9 0.06

>  <PUBCHEM_EFFECTIVE_ROTOR_COUNT>  (1) 
9

>  <PUBCHEM_PHARMACOPHORE_FEATURES>  (1) 
8
1 1 acceptor
1 2 acceptor
1 3 donor
1 4 donor
1 5 donor
1 6 acceptor
6 6 19 20 21 22 23 rings
6 8 12 13 14 15 16 rings

>  <PUBCHEM_HEAVY_ATOM_COUNT>  (1) 
23

>  <PUBCHEM_ATOM_DEF_STEREO_COUNT>  (1) 
0

>  <PUBCHEM_ATOM_UDEF_STEREO_COUNT>  (1) 
0

>  <PUBCHEM_BOND_DEF_STEREO_COUNT>  (1) 
0

>  <PUBCHEM_BOND_UDEF_STEREO_COUNT>  (1) 
0

>  <PUBCHEM_ISOTOPIC_ATOM_COUNT>  (1) 
0

>  <PUBCHEM_COMPONENT_COUNT>  (1) 
1

>  <PUBCHEM_CACTVS_TAUTO_COUNT>  (1) 
6

>  <PUBCHEM_CONFORMER_ID>  (1) 
00006B6700000001

>  <PUBCHEM_MMFF94_ENERGY>  (1) 
47.3284

>  <PUBCHEM_FEATURE_SELFOVERLAP>  (1) 
42.082

>  <PUBCHEM_SHAPE_FINGERPRINT>  (1) 
10299344 5 17749393645814588904
11393246 34 18271520988098402295
11524674 6 17632857534232753295
11963148 33 18334568002584785954
13167372 99 12175617387167945048
13668630 136 18260551078956945196
13673619 4 18335137600640808901
13685833 64 18273214180070251712
13690498 29 17749104479079316677
14123256 34 18409169913198176760
14251764 18 14045731629990074152
14251764 30 18411698768757420792
14344974 204 18129379470244237535
14347424 109 12967129381623990230
14420673 8 18342461456705111607
14556957 393 15647060317591168039
14598715 104 11097859631265404414
14729087 3 9871744685395104408
14767858 380 16660365874573974912
15003188 100 13984672464456508230
15183329 4 18333728026617793338
15348495 7 17417806300880646619
15352257 5 18413109437833729286
15537594 2 18186795868677386339
16079462 125 11530485532166055700
17780758 139 18131353012485619065
17913733 40 16056607547198364679
18608769 82 18342175570623103174
18927931 339 18260828207553430741
20281389 69 9799692605742023261
20621476 21 18343305863991170510
21150785 3 14562536188742901953
21623969 137 17561084692152181942
21774942 28 8069760589282125094
220451 1 17677047941234188369
2303208 19 18343297059398020632
23081809 10 14979662326025456944
23522609 53 17970659348693778444
2748736 6 10375871874526293738
351380 3 18113334219649424193
3663271 9 14620500247178547268
397830 11 18200580514521576408
445580 167 16950572107712575964
5104073 3 15194702632721246972
543368 44 9439414527858890207
57307002 103 18058727056466647128
636775 8 18342466907467029670
8863177 126 18341326790263479368
999808 66 18202002110025496030

>  <PUBCHEM_SHAPE_MULTIPOLES>  (1) 
441.67
23.98
2.31
1.41
18.35
1.03
-0.15
13.94
-2.39
-4.09
0.46
0.7
0.17
0.66

>  <PUBCHEM_SHAPE_SELFOVERLAP>  (1) 
923.112

>  <PUBCHEM_SHAPE_VOLUME>  (1) 
248.1

>  <PUBCHEM_COORDINATE_TYPE>  (1) 
2
5
10

$$$$
