2749
     RDKit          3D

 15 16  0  0  0  0  0  0  0  0999 V2000
   -0.6120    2.3795   -0.0558 O   0  0  0  0  0  0  0  0  0  0  0  0
   -3.3029    1.8780    0.0356 O   0  0  0  0  0  0  0  0  0  0  0  0
   -1.1282    1.0753   -0.0079 N   0  0  0  0  0  0  0  0  0  0  0  0
    1.2497    0.3660    0.0063 C   0  0  0  0  0  0  0  0  0  0  0  0
    1.9277   -0.1784   -1.2592 C   0  0  0  0  0  0  0  0  0  0  0  0
    1.9293   -0.1847    1.2681 C   0  0  0  0  0  0  0  0  0  0  0  0
    3.4305    0.0949   -1.2569 C   0  0  0  0  0  0  0  0  0  0  0  0
    3.4321    0.0881    1.2650 C   0  0  0  0  0  0  0  0  0  0  0  0
    4.0989   -0.4474    0.0021 C   0  0  0  0  0  0  0  0  0  0  0  0
   -0.2150    0.0456    0.0061 C   0  0  0  0  0  0  0  0  0  0  0  0
   -0.6799   -1.2161    0.0031 C   0  0  0  0  0  0  0  0  0  0  0  0
   -2.1089   -1.4773   -0.0062 C   0  0  0  0  0  0  0  0  0  0  0  0
   -2.4982    0.9502    0.0205 C   0  0  0  0  0  0  0  0  0  0  0  0
   -2.9879   -0.4606    0.0025 C   0  0  0  0  0  0  0  0  0  0  0  0
   -2.5353   -2.9131   -0.0229 C   0  0  0  0  0  0  0  0  0  0  0  0
  1  3  1  0
  2 13  2  0
  3 10  1  0
  3 13  1  0
  4  5  1  0
  4  6  1  0
  4 10  1  0
  5  7  1  0
  6  8  1  0
  7  9  1  0
  8  9  1  0
 10 11  2  0
 11 12  1  0
 12 14  2  0
 12 15  1  0
 13 14  1  0
M  END
>  <PUBCHEM_COMPOUND_CID>  (1) 
2749

>  <PUBCHEM_CONFORMER_RMSD>  (1) 
0.6

>  <PUBCHEM_CONFORMER_DIVERSEORDER>  (1) 
1
4
5
2
3
6

>  <PUBCHEM_MMFF94_PARTIAL_CHARGES>  (1) 
13
1 -0.44
10 -0.03
11 -0.15
12 -0.14
13 0.62
14 -0.14
15 0.14
2 -0.57
27 0.15
28 0.15
3 -0.13
32 0.4
4 0.14

>  <PUBCHEM_EFFECTIVE_ROTOR_COUNT>  (1) 
2.2

>  <PUBCHEM_PHARMACOPHORE_FEATURES>  (1) 
3
1 2 acceptor
6 3 10 11 12 13 14 rings
6 4 5 6 7 8 9 rings

>  <PUBCHEM_HEAVY_ATOM_COUNT>  (1) 
15

>  <PUBCHEM_ATOM_DEF_STEREO_COUNT>  (1) 
0

>  <PUBCHEM_ATOM_UDEF_STEREO_COUNT>  (1) 
0

>  <PUBCHEM_BOND_DEF_STEREO_COUNT>  (1) 
0

>  <PUBCHEM_BOND_UDEF_STEREO_COUNT>  (1) 
0

>  <PUBCHEM_ISOTOPIC_ATOM_COUNT>  (1) 
0

>  <PUBCHEM_COMPONENT_COUNT>  (1) 
1

>  <PUBCHEM_CACTVS_TAUTO_COUNT>  (1) 
1

>  <PUBCHEM_CONFORMER_ID>  (1) 
00000ABD00000001

>  <PUBCHEM_MMFF94_ENERGY>  (1) 
27.9484

>  <PUBCHEM_FEATURE_SELFOVERLAP>  (1) 
15.223

>  <PUBCHEM_SHAPE_FINGERPRINT>  (1) 
10608611 8 18130782373949926568
11132069 177 18411133619469501160
12236239 1 17676487250517434406
124424 183 17775280522246967194
12500047 106 18340482270807201950
12553582 1 18121224448155950067
12932764 1 17603580833439690084
13296908 3 17703793643299859854
13538477 17 18187363216455499332
15219456 202 17703787037729641088
15279307 12 18114741534087249274
15653759 3 18202563990658790922
15669948 3 18334859428329879358
15775835 57 18187647951180694440
16752209 62 18335689568705479291
16945 1 18410856572952043819
18175812 5 17918273168858820892
18522853 266 18409730634338118382
19049666 15 17702675332531618502
19422 9 17967816063384671314
20279233 1 17847059973981247142
20510252 161 18272652312137431081
20524608 308 18343017787776436551
20645476 183 17968100798241403663
20645477 70 17402324271299079231
20715346 28 17703790357570666114
20871998 184 18201155554723377255
20871998 22 17979919642070688883
21452121 199 17763172940551462679
21639500 275 15338540735298106994
22112679 90 18040718073625490844
232386 152 18334573594045785270
23402539 116 18270388408752445253
23419403 2 17543023173045065469
23526113 38 17345200999971083894
23557571 272 18272373109277404480
23559900 14 18271529698392064790
23598291 2 17821737156068063710
23598294 1 18335137604924804811
2748010 2 18196924681324393041
474 4 17024605610171953868
53748568 43 17894352168004469618
5902787 121 18265613371444593642
6049 1 17845941835048517138
6333449 129 18343582923788739487
7364860 26 17838620311425736496
74978 22 18408038537118341436
7615 1 17822286929072233636
77492 1 17676205784135952582
81228 2 18340206388278837467
88987 49 18410011031092986244

>  <PUBCHEM_SHAPE_MULTIPOLES>  (1) 
291.97
6.58
2.07
1.05
3.25
0.25
0
0.8
-0.03
-2.91
0.02
1.19
0.06
-0.02

>  <PUBCHEM_SHAPE_SELFOVERLAP>  (1) 
606.464

>  <PUBCHEM_SHAPE_VOLUME>  (1) 
166.5

>  <PUBCHEM_COORDINATE_TYPE>  (1) 
2
5
10

$$$$
