27502
     RDKit          3D

 17 19  0  0  0  0  0  0  0  0999 V2000
   -0.0258   -2.4039    1.4644 O   0  0  0  0  0  0  0  0  0  0  0  0
   -0.0359   -2.8033   -0.8483 N   0  0  0  0  0  0  0  0  0  0  0  0
    0.0031   -0.7733   -0.5050 C   0  0  0  0  0  0  0  0  0  0  0  0
   -0.0259   -1.6635   -1.7506 C   0  0  0  0  0  0  0  0  0  0  0  0
   -0.0251   -2.0759    0.2997 C   0  0  0  0  0  0  0  0  0  0  0  0
   -1.2594    0.0668   -0.1795 C   0  0  0  0  0  0  0  0  0  0  0  0
    1.2523    0.0408   -0.1862 C   0  0  0  0  0  0  0  0  0  0  0  0
   -1.8256    0.8829   -1.1589 C   0  0  0  0  0  0  0  0  0  0  0  0
    1.8438   -0.0112    1.0907 C   0  0  0  0  0  0  0  0  0  0  0  0
   -1.8287    0.0063    1.0926 C   0  0  0  0  0  0  0  0  0  0  0  0
    1.8468    0.8658   -1.1605 C   0  0  0  0  0  0  0  0  0  0  0  0
   -2.9608    1.6387   -0.8661 C   0  0  0  0  0  0  0  0  0  0  0  0
    2.9863    0.7339    1.3826 C   0  0  0  0  0  0  0  0  0  0  0  0
   -2.9639    0.7621    1.3852 C   0  0  0  0  0  0  0  0  0  0  0  0
    2.9894    1.6107   -0.8686 C   0  0  0  0  0  0  0  0  0  0  0  0
   -3.5300    1.5783    0.4057 C   0  0  0  0  0  0  0  0  0  0  0  0
    3.5591    1.5448    0.4029 C   0  0  0  0  0  0  0  0  0  0  0  0
  1  5  2  0
  2  4  1  0
  2  5  1  0
  3  4  1  0
  3  5  1  0
  3  6  1  0
  3  7  1  0
  6  8  2  0
  6 10  1  0
  7  9  2  0
  7 11  1  0
  8 12  1  0
  9 13  1  0
 10 14  2  0
 11 15  2  0
 12 16  2  0
 13 17  2  0
 14 16  1  0
 15 17  1  0
M  END
>  <PUBCHEM_COMPOUND_CID>  (1) 
27502

>  <PUBCHEM_CONFORMER_RMSD>  (1) 
0.6

>  <PUBCHEM_CONFORMER_DIVERSEORDER>  (1) 
1
4
2
5
3

>  <PUBCHEM_MMFF94_PARTIAL_CHARGES>  (1) 
28
1 -0.57
10 -0.15
11 -0.15
12 -0.15
13 -0.15
14 -0.15
15 -0.15
16 -0.15
17 -0.15
2 -0.65
20 0.37
21 0.15
22 0.15
23 0.15
24 0.15
25 0.15
26 0.15
27 0.15
28 0.15
29 0.15
3 0.27
30 0.15
4 0.22
5 0.58
6 -0.11
7 -0.11
8 -0.15
9 -0.15

>  <PUBCHEM_EFFECTIVE_ROTOR_COUNT>  (1) 
2.6

>  <PUBCHEM_PHARMACOPHORE_FEATURES>  (1) 
5
1 1 acceptor
1 2 donor
4 2 3 4 5 rings
6 6 8 10 12 14 16 rings
6 7 9 11 13 15 17 rings

>  <PUBCHEM_HEAVY_ATOM_COUNT>  (1) 
17

>  <PUBCHEM_ATOM_DEF_STEREO_COUNT>  (1) 
0

>  <PUBCHEM_ATOM_UDEF_STEREO_COUNT>  (1) 
0

>  <PUBCHEM_BOND_DEF_STEREO_COUNT>  (1) 
0

>  <PUBCHEM_BOND_UDEF_STEREO_COUNT>  (1) 
0

>  <PUBCHEM_ISOTOPIC_ATOM_COUNT>  (1) 
0

>  <PUBCHEM_COMPONENT_COUNT>  (1) 
1

>  <PUBCHEM_CACTVS_TAUTO_COUNT>  (1) 
2

>  <PUBCHEM_CONFORMER_ID>  (1) 
00006B6E00000001

>  <PUBCHEM_MMFF94_ENERGY>  (1) 
51.5965

>  <PUBCHEM_FEATURE_SELFOVERLAP>  (1) 
25.373

>  <PUBCHEM_SHAPE_FINGERPRINT>  (1) 
10922049 32 18340217335691519462
11640471 11 18128793305733195253
12138202 97 17702942672881630588
12251169 10 16950282905541384937
12326174 3 18051976909448470183
12363563 72 8142087524444615649
12633257 1 16805875170089698337
13134695 92 17762048844193287598
13299463 15 13470397933039591380
13538477 17 17752485627336348450
13681431 1 17623297065279469447
13764800 53 18057054703216434136
14181834 199 17912066266605957343
14787075 74 15150301251792728045
14817 1 11738783336717813839
15309172 13 18408886243493366197
15775835 57 18342165670206475617
15906896 17 18264204901371149802
16945 1 17676779776133689892
1813 80 16624069676906964399
18186145 218 17918002658828375196
19765921 60 17917983954398522225
19837323 101 17774435108946972998
20361792 2 10665231453483224921
21069387 34 13696160664772689393
21296965 12 18409448102624931359
21524375 3 18412259545082590613
21731228 192 18334857229375182688
21756936 100 17315936622136240660
22802520 49 13398332595476276589
23419403 2 17191853293844603246
25 1 17632032869977475544
276578 36 18411702062870567544
305870 269 18342453690802697784
427121 178 18194993831631952915
430814 3 18343865502376905439
4340502 62 18339930329741073473
495365 180 18046908170025142605
5706482 22 18337658802145669251
5845 1 10971026463342842471
6442390 28 17986975087964031379
7364860 26 17984703303318988047
81228 2 17980760768022793326
9981440 41 16699741688378087632

>  <PUBCHEM_SHAPE_MULTIPOLES>  (1) 
339
5.29
2.46
1.59
0.14
1.76
-0.04
-4.97
-1.01
-0.06
0.29
0
0.19
-0.01

>  <PUBCHEM_SHAPE_SELFOVERLAP>  (1) 
746.79

>  <PUBCHEM_SHAPE_VOLUME>  (1) 
182

>  <PUBCHEM_COORDINATE_TYPE>  (1) 
2
5
10

$$$$
