27505
     RDKit          3D

 38 41  0  0  1  0  0  0  0  0999 V2000
    3.2009    2.4688    0.6107 P   0  0  0  0  0  0  0  0  0  0  0  0
    2.9500    0.0375    2.2486 P   0  0  0  0  0  0  0  0  0  0  0  0
   -0.5463    1.7785   -1.1041 O   0  0  0  0  0  0  0  0  0  0  0  0
    2.6350   -0.7980   -0.9714 O   0  0  0  0  0  0  0  0  0  0  0  0
   -3.7079    3.2142   -0.1752 O   0  0  0  0  0  0  0  0  0  0  0  0
   -2.0939    4.1982   -2.1275 O   0  0  0  0  0  0  0  0  0  0  0  0
    2.1170    3.0380   -0.4470 O   0  0  0  0  0  0  0  0  0  0  0  0
    3.4315   -1.1049    1.2145 O   0  0  0  0  0  0  0  0  0  0  0  0
    0.6619   -3.7682   -0.6994 O   0  0  0  0  0  0  0  0  0  0  0  0
    3.1828   -2.7424   -3.1051 O   0  0  0  0  0  0  0  0  0  0  0  0
    4.2371   -3.1609   -0.4547 O   0  0  0  0  0  0  0  0  0  0  0  0
    2.4162    1.2408    1.3101 O   0  0  0  0  0  0  0  0  0  0  0  0
    3.2334    3.5904    1.7759 O   0  0  0  0  0  0  0  0  0  0  0  0
    1.5930   -0.5517    2.9034 O   0  0  0  0  0  0  0  0  0  0  0  0
    4.5414    2.1092    0.0395 O   0  0  0  0  0  0  0  0  0  0  0  0
    3.9906    0.4519    3.2483 O   0  0  0  0  0  0  0  0  0  0  0  0
   -3.6100   -3.1969    2.2810 O   0  0  0  0  0  0  0  0  0  0  0  0
   -2.1102    0.4784    0.1183 N   0  0  0  0  0  0  0  0  0  0  0  0
   -4.3332   -0.3077   -0.4781 N   0  0  0  0  0  0  0  0  0  0  0  0
   -1.6453   -1.0890    1.6561 N   0  0  0  0  0  0  0  0  0  0  0  0
   -5.0463   -2.2630    0.7200 N   0  0  0  0  0  0  0  0  0  0  0  0
   -6.4157   -1.2214   -0.8910 N   0  0  0  0  0  0  0  0  0  0  0  0
   -2.3207    2.9639   -0.0771 C   0  0  0  0  0  0  0  0  0  0  0  0
   -1.4820    3.9538   -0.8611 C   0  0  0  0  0  0  0  0  0  0  0  0
   -1.9333    1.6495   -0.7375 C   0  0  0  0  0  0  0  0  0  0  0  0
   -0.1865    3.1792   -1.0821 C   0  0  0  0  0  0  0  0  0  0  0  0
    1.9813   -3.5934   -1.2108 C   0  0  0  0  0  0  0  0  0  0  0  0
    0.8314    3.3960    0.0288 C   0  0  0  0  0  0  0  0  0  0  0  0
    1.9388   -2.6417   -2.4150 C   0  0  0  0  0  0  0  0  0  0  0  0
    2.8631   -3.0465   -0.0831 C   0  0  0  0  0  0  0  0  0  0  0  0
    1.6824   -1.1916   -1.9677 C   0  0  0  0  0  0  0  0  0  0  0  0
    2.5320   -1.5814    0.2178 C   0  0  0  0  0  0  0  0  0  0  0  0
   -3.1805   -0.3458    0.1953 C   0  0  0  0  0  0  0  0  0  0  0  0
   -1.2001   -0.0146    1.0264 C   0  0  0  0  0  0  0  0  0  0  0  0
    1.7832   -0.1893   -3.1117 C   0  0  0  0  0  0  0  0  0  0  0  0
   -2.8901   -1.2949    1.1314 C   0  0  0  0  0  0  0  0  0  0  0  0
   -3.8500   -2.3345    1.4448 C   0  0  0  0  0  0  0  0  0  0  0  0
   -5.2510   -1.3104   -0.1714 C   0  0  0  0  0  0  0  0  0  0  0  0
  1  7  1  0
  1 12  1  0
  1 13  1  0
  1 15  2  0
  2  8  1  0
  2 12  1  0
  2 14  1  0
  2 16  2  0
  3 25  1  0
  3 26  1  0
  4 31  1  0
  4 32  1  0
  5 23  1  0
  6 24  1  0
  7 28  1  0
  8 32  1  0
  9 27  1  0
 10 29  1  0
 11 30  1  0
 17 37  2  0
 18 25  1  0
 18 33  1  0
 18 34  1  0
 19 33  1  0
 19 38  1  0
 20 34  2  0
 20 36  1  0
 21 37  1  0
 21 38  2  0
 22 38  1  0
 23 24  1  0
 23 25  1  0
 24 26  1  0
 26 28  1  0
 27 29  1  0
 27 30  1  0
 29 31  1  0
 30 32  1  0
 31 35  1  0
 33 36  2  0
 36 37  1  0
M  END
>  <PUBCHEM_COMPOUND_CID>  (1) 
27505

>  <PUBCHEM_CONFORMER_RMSD>  (1) 
1.4

>  <PUBCHEM_CONFORMER_DIVERSEORDER>  (1) 
1
280
49
13
198
110
260
26
249
283
137
326
90
169
188
307
228
243
309
60
308
293
11
235
297
50
199
282
329
10
160
194
24
304
132
86
285
179
30
192
337
96
59
3
224
73
150
102
300
15
335
80
82
62
168
207
54
175
310
253
21
295
151
338
212
242
180
321
281
9
161
200
332
140
234
155
250
166
65
289
31
162
128
298
226
17
294
107
306
129
126
134
46
47
276
177
58
210
288
322
236
254
121
77
213
267
278
93
268
84
233
238
261
146
255
274
163
174
171
74
246
203
262
239
120
291
29
147
78
156
320
327
45
63
328
94
109
245
99
106
241
251
139
115
53
75
105
277
314
88
270
248
138
240
165
124
324
95
114
66
287
61
5
56
229
264
221
158
189
135
113
42
218
108
76
122
111
103
258
259
141
256
181
334
305
143
299
191
98
279
37
48
303
68
186
275
27
33
222
266
91
35
23
41
225
333
195
284
4
131
302
217
301
296
211
112
28
100
159
182
69
223
232
130
51
231
154
118
336
206
214
193
318
152
292
209
149
40
196
176
44
237
39
89
133
167
97
71
331
148
116
19
164
43
14
172
273
315
72
36
202
247
173
208
85
215
70
178
227
87
197
57
323
330
257
83
25
316
252
290
220
127
157
170
201
286
145
104
185
319
52
55
263
269
92
184
101
317
7
64
219
136
117
271
339
38
244
12
34
313
311
79
272
119
16
125
190
153
183
18
265
205
123
32
8
20
22
187
230
204
216
144
325
312
2
142
81
67
6

>  <PUBCHEM_MMFF94_PARTIAL_CHARGES>  (1) 
48
1 1.51
10 -0.68
11 -0.68
12 -0.54
13 -0.77
14 -0.77
15 -0.7
16 -0.7
17 -0.57
18 0.05
19 -0.53
2 1.51
20 -0.57
21 -0.66
22 -0.85
23 0.28
24 0.28
25 0.54
26 0.28
27 0.28
28 0.28
29 0.28
3 -0.56
30 0.28
31 0.28
32 0.56
33 -0.07
34 0.04
36 0.14
37 0.87
38 0.55
4 -0.56
5 -0.68
50 0.4
51 0.4
52 0.15
56 0.4
57 0.4
58 0.4
59 0.4
6 -0.68
60 0.5
61 0.5
62 0.4
63 0.4
7 -0.55
8 -0.55
9 -0.68

>  <PUBCHEM_EFFECTIVE_ROTOR_COUNT>  (1) 
10.2

>  <PUBCHEM_PHARMACOPHORE_FEATURES>  (1) 
25
1 10 acceptor
1 10 donor
1 11 acceptor
1 11 donor
1 13 acceptor
1 14 acceptor
1 15 acceptor
1 16 acceptor
1 17 acceptor
1 19 donor
1 21 donor
1 22 donor
1 3 acceptor
1 4 acceptor
1 5 acceptor
1 5 donor
1 6 acceptor
1 6 donor
1 9 acceptor
1 9 donor
3 18 20 34 cation
5 18 20 33 34 36 rings
5 3 23 24 25 26 rings
6 19 21 33 36 37 38 rings
6 4 27 29 30 31 32 rings

>  <PUBCHEM_HEAVY_ATOM_COUNT>  (1) 
38

>  <PUBCHEM_ATOM_DEF_STEREO_COUNT>  (1) 
9

>  <PUBCHEM_ATOM_UDEF_STEREO_COUNT>  (1) 
0

>  <PUBCHEM_BOND_DEF_STEREO_COUNT>  (1) 
0

>  <PUBCHEM_BOND_UDEF_STEREO_COUNT>  (1) 
0

>  <PUBCHEM_ISOTOPIC_ATOM_COUNT>  (1) 
0

>  <PUBCHEM_COMPONENT_COUNT>  (1) 
1

>  <PUBCHEM_CACTVS_TAUTO_COUNT>  (1) 
6

>  <PUBCHEM_CONFORMER_ID>  (1) 
00006B7100000001

>  <PUBCHEM_MMFF94_ENERGY>  (1) 
58.5579

>  <PUBCHEM_FEATURE_SELFOVERLAP>  (1) 
127.181

>  <PUBCHEM_SHAPE_FINGERPRINT>  (1) 
11285246 1 15966823278462501510
11513181 2 18343300383902823935
11578080 2 17987807302164991097
12788726 201 17971496017350024367
1361 2 18196082468434332831
13642711 20 17754135831524463015
140371 6 18189341337165128985
14840074 17 18125997410893734213
15664445 248 18045521930116633277
15775530 1 18267581308486051869
1979834 28 18268708488292525297
20764821 26 18193846946303969868
20771845 35 17845647054110604199
20775438 99 17978758287425025125
21315764 371 16915090965989150835
2260408 40 18053694587704199875
23559900 14 18261402173528539999
255183 313 17839440522121843848
394071 54 18266755739047405515
460360 51 17894919563966603593
5309563 4 18192157211891452505
563151 74 16915918726171725521
6679774 75 17462583702001768457
6823239 73 18339365158709343560
7399639 24 18200010932890255992

>  <PUBCHEM_SHAPE_MULTIPOLES>  (1) 
676.78
9.52
5.99
2.75
9.25
2.77
-0.05
-4.93
-1.82
-0.98
1.94
-2.73
-1.02
4.12

>  <PUBCHEM_SHAPE_SELFOVERLAP>  (1) 
1410.876

>  <PUBCHEM_SHAPE_VOLUME>  (1) 
387.3

>  <PUBCHEM_COORDINATE_TYPE>  (1) 
2
5
10

$$$$
