27513
     RDKit          3D

 11 12  0  0  0  0  0  0  0  0999 V2000
    2.5781    0.7168   -0.0001 N   0  0  0  0  0  0  0  0  0  0  0  0
   -4.0097   -0.5549    0.0000 N   0  0  0  0  0  0  0  0  0  0  0  0
    0.8319   -0.6719    0.0000 C   0  0  0  0  0  0  0  0  0  0  0  0
    1.2020    0.6748    0.0000 C   0  0  0  0  0  0  0  0  0  0  0  0
    2.0331   -1.4349    0.0002 C   0  0  0  0  0  0  0  0  0  0  0  0
   -0.5386   -0.9986   -0.0002 C   0  0  0  0  0  0  0  0  0  0  0  0
    0.2661    1.7152   -0.0001 C   0  0  0  0  0  0  0  0  0  0  0  0
    3.0894   -0.5532    0.0000 C   0  0  0  0  0  0  0  0  0  0  0  0
   -1.4861    0.0316    0.0001 C   0  0  0  0  0  0  0  0  0  0  0  0
   -1.0876    1.3670    0.0002 C   0  0  0  0  0  0  0  0  0  0  0  0
   -2.8786   -0.2920    0.0000 C   0  0  0  0  0  0  0  0  0  0  0  0
  1  4  1  0
  1  8  1  0
  2 11  3  0
  3  4  2  0
  3  5  1  0
  3  6  1  0
  4  7  1  0
  5  8  2  0
  6  9  2  0
  7 10  2  0
  9 10  1  0
  9 11  1  0
M  END
>  <PUBCHEM_COMPOUND_CID>  (1) 
27513

>  <PUBCHEM_CONFORMER_RMSD>  (1) 
0.4

>  <PUBCHEM_CONFORMER_DIVERSEORDER>  (1) 
1

>  <PUBCHEM_MMFF94_PARTIAL_CHARGES>  (1) 
16
1 0.03
10 -0.15
11 0.48
12 0.15
13 0.27
14 0.15
15 0.15
16 0.15
17 0.15
2 -0.56
4 -0.15
5 -0.15
6 -0.15
7 -0.15
8 -0.3
9 0.07

>  <PUBCHEM_EFFECTIVE_ROTOR_COUNT>  (1) 
0

>  <PUBCHEM_PHARMACOPHORE_FEATURES>  (1) 
5
1 1 cation
1 1 donor
1 2 acceptor
5 1 3 4 5 8 rings
6 3 4 6 7 9 10 rings

>  <PUBCHEM_HEAVY_ATOM_COUNT>  (1) 
11

>  <PUBCHEM_ATOM_DEF_STEREO_COUNT>  (1) 
0

>  <PUBCHEM_ATOM_UDEF_STEREO_COUNT>  (1) 
0

>  <PUBCHEM_BOND_DEF_STEREO_COUNT>  (1) 
0

>  <PUBCHEM_BOND_UDEF_STEREO_COUNT>  (1) 
0

>  <PUBCHEM_ISOTOPIC_ATOM_COUNT>  (1) 
0

>  <PUBCHEM_COMPONENT_COUNT>  (1) 
1

>  <PUBCHEM_CACTVS_TAUTO_COUNT>  (1) 
1

>  <PUBCHEM_CONFORMER_ID>  (1) 
00006B7900000001

>  <PUBCHEM_MMFF94_ENERGY>  (1) 
15.5764

>  <PUBCHEM_FEATURE_SELFOVERLAP>  (1) 
25.463

>  <PUBCHEM_SHAPE_FINGERPRINT>  (1) 
10219947 1 18343586252393857047
10857977 72 18339632378262292152
11471102 20 18410006654732334213
12032990 46 18410862040065843879
14325111 11 18410856542623606593
14993402 34 18201438107815747191
16945 1 18410855486066842084
17844478 74 18040437689760292853
193761 8 17689997830140000943
20201158 50 18334013899799010651
20645477 70 18411132507611321263
20871998 22 18199476475787085110
21501925 9 18336535037185804058
23402655 69 18411972556117036573
23552423 10 18116720616652378494
2748010 2 18267299833419092140
5084963 1 18271243828909377714
528886 8 18340200894598921442

>  <PUBCHEM_SHAPE_MULTIPOLES>  (1) 
216.41
4.89
1.53
0.6
2.57
0.38
0
-1.47
0
-0.28
0
-0.01
0
0

>  <PUBCHEM_SHAPE_SELFOVERLAP>  (1) 
477.913

>  <PUBCHEM_SHAPE_VOLUME>  (1) 
116.3

>  <PUBCHEM_COORDINATE_TYPE>  (1) 
2
5
10

$$$$
