2751
     RDKit          2D

 30 32  0  0  1  0  0  0  0  0999 V2000
    0.0000    0.0000    0.0000 O   0  0  0  0  0  0  0  0  0  0  0  0
    0.0000    0.0000    0.0000 O   0  0  0  0  0  0  0  0  0  0  0  0
    0.0000    0.0000    0.0000 O   0  0  0  0  0  0  0  0  0  0  0  0
    0.0000    0.0000    0.0000 O   0  0  0  0  0  0  0  0  0  0  0  0
    0.0000    0.0000    0.0000 O   0  0  0  0  0  0  0  0  0  0  0  0
    0.0000    0.0000    0.0000 N   0  0  0  0  0  0  0  0  0  0  0  0
    0.0000    0.0000    0.0000 N   0  0  0  0  0  0  0  0  0  0  0  0
    0.0000    0.0000    0.0000 N   0  0  0  0  0  0  0  0  0  0  0  0
    0.0000    0.0000    0.0000 C   0  0  0  0  0  0  0  0  0  0  0  0
    0.0000    0.0000    0.0000 C   0  0  0  0  0  0  0  0  0  0  0  0
    0.0000    0.0000    0.0000 C   0  0  0  0  0  0  0  0  0  0  0  0
    0.0000    0.0000    0.0000 C   0  0  0  0  0  0  0  0  0  0  0  0
    0.0000    0.0000    0.0000 C   0  0  0  0  0  0  0  0  0  0  0  0
    0.0000    0.0000    0.0000 C   0  0  0  0  0  0  0  0  0  0  0  0
    0.0000    0.0000    0.0000 C   0  0  0  0  0  0  0  0  0  0  0  0
    0.0000    0.0000    0.0000 C   0  0  0  0  0  0  0  0  0  0  0  0
    0.0000    0.0000    0.0000 C   0  0  0  0  0  0  0  0  0  0  0  0
    0.0000    0.0000    0.0000 C   0  0  0  0  0  0  0  0  0  0  0  0
    0.0000    0.0000    0.0000 C   0  0  0  0  0  0  0  0  0  0  0  0
    0.0000    0.0000    0.0000 C   0  0  0  0  0  0  0  0  0  0  0  0
    0.0000    0.0000    0.0000 C   0  0  0  0  0  0  0  0  0  0  0  0
    0.0000    0.0000    0.0000 C   0  0  0  0  0  0  0  0  0  0  0  0
    0.0000    0.0000    0.0000 C   0  0  0  0  0  0  0  0  0  0  0  0
    0.0000    0.0000    0.0000 C   0  0  0  0  0  0  0  0  0  0  0  0
    0.0000    0.0000    0.0000 C   0  0  0  0  0  0  0  0  0  0  0  0
    0.0000    0.0000    0.0000 C   0  0  0  0  0  0  0  0  0  0  0  0
    0.0000    0.0000    0.0000 C   0  0  0  0  0  0  0  0  0  0  0  0
    0.0000    0.0000    0.0000 C   0  0  0  0  0  0  0  0  0  0  0  0
    0.0000    0.0000    0.0000 C   0  0  0  0  0  0  0  0  0  0  0  0
    0.0000    0.0000    0.0000 C   0  0  0  0  0  0  0  0  0  0  0  0
  1 17  2  0
  2 19  1  0
  3 19  2  0
  4 22  1  0
  4 26  1  0
  5 22  2  0
  6  7  1  0
  6 11  1  0
  6 12  1  0
  7  9  1  0
  7 17  1  0
  8 10  1  0
  8 18  1  0
  9 13  1  0
  9 19  1  0
 10 14  1  0
 10 17  1  0
 11 15  1  0
 12 16  1  0
 13 15  1  0
 14 16  1  0
 18 20  1  0
 18 22  1  0
 20 21  1  0
 21 23  1  0
 23 24  2  0
 23 25  1  0
 24 27  1  0
 25 28  2  0
 26 29  1  0
 27 30  2  0
 28 30  1  0
M  END
>  <PUBCHEM_COMPOUND_CID>  (1) 
2751

>  <PUBCHEM_CONFORMER_RMSD>  (1) 
1

>  <PUBCHEM_CONFORMER_DIVERSEORDER>  (1) 
15
129
142
196
215
107
28
178
226
180
73
146
112
244
190
55
255
173
148
216
103
249
143
242
258
12
121
101
79
149
6
187
237
102
59
168
46
93
184
78
159
166
175
97
138
268
251
238
243
100
63
134
181
217
194
111
125
154
241
147
161
83
88
250
257
115
16
136
232
26
218
221
220
95
263
75
89
51
87
165
267
231
177
92
169
135
52
36
227
118
228
2
8
262
174
155
252
130
104
212
116
44
269
114
234
110
248
70
185
158
81
222
200
96
265
48
30
27
192
162
235
82
203
3
56
31
29
66
239
18
133
156
119
207
98
253
182
247
144
225
33
260
9
223
71
167
140
64
183
105
13
230
137
23
219
172
128
264
85
139
179
127
108
164
186
209
176
109
38
11
254
123
84
210
54
50
76
193
151
153
132
22
157
99
188
124
120
198
21
205
141
266
170
106
35
240
204
62
45
197
67
224
60
32
53
236
1
80
90
208
61
171
245
189
213
199
163
86
94
49
256
74
131
126
206
14
246
10
201
77
20
117
195
211
91
229
39
7
58
191
4
43
40
37
41
57
122
69
261
25
19
233
145
152
17
72
47
214
5
34
42
160
113
202
24
259
150
65
68

>  <PUBCHEM_MMFF94_PARTIAL_CHARGES>  (1) 
31
1 -0.57
10 0.33
11 0.27
12 0.27
17 0.57
18 0.33
19 0.66
2 -0.65
21 0.14
22 0.66
23 -0.14
24 -0.15
25 -0.15
26 0.28
27 -0.15
28 -0.15
3 -0.57
30 -0.15
4 -0.43
45 0.36
5 -0.57
51 0.5
52 0.15
53 0.15
56 0.15
57 0.15
58 0.15
6 -0.55
7 -0.35
8 -0.9
9 0.36

>  <PUBCHEM_EFFECTIVE_ROTOR_COUNT>  (1) 
10.6

>  <PUBCHEM_PHARMACOPHORE_FEATURES>  (1) 
10
1 1 acceptor
1 2 acceptor
1 3 acceptor
1 5 acceptor
1 8 cation
1 8 donor
3 2 3 19 anion
6 23 24 25 27 28 30 rings
6 6 7 9 11 13 15 rings
7 6 7 10 12 14 16 17 rings

>  <PUBCHEM_HEAVY_ATOM_COUNT>  (1) 
30

>  <PUBCHEM_ATOM_DEF_STEREO_COUNT>  (1) 
0

>  <PUBCHEM_ATOM_UDEF_STEREO_COUNT>  (1) 
3

>  <PUBCHEM_BOND_DEF_STEREO_COUNT>  (1) 
0

>  <PUBCHEM_BOND_UDEF_STEREO_COUNT>  (1) 
0

>  <PUBCHEM_ISOTOPIC_ATOM_COUNT>  (1) 
0

>  <PUBCHEM_COMPONENT_COUNT>  (1) 
1

>  <PUBCHEM_CACTVS_TAUTO_COUNT>  (1) 
1

$$$$
