27528
     RDKit          3D

 17 18  0  0  1  0  0  0  0  0999 V2000
    1.1900    2.0595    0.9654 O   0  0  0  0  0  0  0  0  0  0  0  0
   -1.1070    1.1094   -0.1707 N   0  0  0  0  0  0  0  0  0  0  0  0
    0.0792    0.4734   -0.3037 N   0  0  0  0  0  0  0  0  0  0  0  0
    4.8415   -1.0754   -0.2672 N   0  0  0  0  0  0  0  0  0  0  0  0
   -3.5307    0.8839   -0.1448 C   0  0  0  0  0  0  0  0  0  0  0  0
   -4.3572    0.0510    0.8413 C   0  0  0  0  0  0  0  0  0  0  0  0
   -4.2600   -1.4549    0.5900 C   0  0  0  0  0  0  0  0  0  0  0  0
   -2.8060   -1.9243    0.5934 C   0  0  0  0  0  0  0  0  0  0  0  0
   -1.9665   -1.1726   -0.4310 C   0  0  0  0  0  0  0  0  0  0  0  0
   -2.1268    0.3165   -0.2306 C   0  0  0  0  0  0  0  0  0  0  0  0
   -4.1554    0.9439   -1.5356 C   0  0  0  0  0  0  0  0  0  0  0  0
    1.1919    1.0240    0.3045 C   0  0  0  0  0  0  0  0  0  0  0  0
    2.4682    0.2900    0.1036 C   0  0  0  0  0  0  0  0  0  0  0  0
    3.6523    0.9857    0.1598 C   0  0  0  0  0  0  0  0  0  0  0  0
    2.4278   -1.0637   -0.1314 C   0  0  0  0  0  0  0  0  0  0  0  0
    4.8142    0.2557   -0.0325 C   0  0  0  0  0  0  0  0  0  0  0  0
    3.6444   -1.7021   -0.3107 C   0  0  0  0  0  0  0  0  0  0  0  0
  1 12  2  0
  2  3  1  0
  2 10  2  0
  3 12  1  0
  4 16  2  0
  4 17  1  0
  5  6  1  0
  5 10  1  0
  5 11  1  0
  6  7  1  0
  7  8  1  0
  8  9  1  0
  9 10  1  0
 12 13  1  0
 13 14  2  0
 13 15  1  0
 14 16  1  0
 15 17  2  0
M  END
>  <PUBCHEM_COMPOUND_CID>  (1) 
27528

>  <PUBCHEM_CONFORMER_RMSD>  (1) 
0.6

>  <PUBCHEM_CONFORMER_DIVERSEORDER>  (1) 
1
3
4
2
6
5

>  <PUBCHEM_MMFF94_PARTIAL_CHARGES>  (1) 
18
1 -0.57
10 0.33
12 0.54
13 0.09
14 -0.15
15 -0.15
16 0.16
17 0.16
2 -0.51
3 -0.37
30 0.37
31 0.15
32 0.15
33 0.15
34 0.15
4 -0.62
5 0.06
9 0.06

>  <PUBCHEM_EFFECTIVE_ROTOR_COUNT>  (1) 
4

>  <PUBCHEM_PHARMACOPHORE_FEATURES>  (1) 
6
1 1 acceptor
1 2 acceptor
1 3 donor
1 4 acceptor
6 4 13 14 15 16 17 rings
6 5 6 7 8 9 10 rings

>  <PUBCHEM_HEAVY_ATOM_COUNT>  (1) 
17

>  <PUBCHEM_ATOM_DEF_STEREO_COUNT>  (1) 
0

>  <PUBCHEM_ATOM_UDEF_STEREO_COUNT>  (1) 
1

>  <PUBCHEM_BOND_DEF_STEREO_COUNT>  (1) 
0

>  <PUBCHEM_BOND_UDEF_STEREO_COUNT>  (1) 
1

>  <PUBCHEM_ISOTOPIC_ATOM_COUNT>  (1) 
0

>  <PUBCHEM_COMPONENT_COUNT>  (1) 
1

>  <PUBCHEM_CACTVS_TAUTO_COUNT>  (1) 
2

>  <PUBCHEM_CONFORMER_ID>  (1) 
00006B8800000001

>  <PUBCHEM_MMFF94_ENERGY>  (1) 
45.7046

>  <PUBCHEM_FEATURE_SELFOVERLAP>  (1) 
30.453

>  <PUBCHEM_SHAPE_FINGERPRINT>  (1) 
105312 117 17241590742515654119
10680689 15 17676209065596591701
11552529 35 17773318052889859355
12186901 62 17749103375367179501
124424 183 18272647944102871677
12500047 106 18261101972594333653
12596602 18 14620500225735735934
128620 24 13118000002445676531
13296908 3 18410011052383186755
13675066 3 18410292535949832000
14251731 8 18333450915295823470
14252887 29 17561371660486860030
14386348 63 18410857654956904206
14866123 147 17334787378951675306
15196674 1 18410856568414730254
15375358 24 18341609300332700014
15375462 189 18273212015090087042
15788980 27 17313101943203194216
17804303 29 18410299124862200261
17834074 16 18408886234818665226
1813 80 17385446543803537653
19141452 34 18411986896928753259
200 152 17632852032168292533
20281475 54 18411704304627380476
20300324 65 7925632177086101019
20325693 3 17385442103482378559
20645477 70 18201996599640711654
20871999 31 17676485051451883701
21267235 1 18342468010814694830
221490 88 18336552736756417888
2215653 11 18412537696292639261
22485316 2 18260265235386642498
23402539 116 16226043379955116060
23557571 272 17748824129004151324
23559900 14 18410287030213670032
26918003 58 18411695461722007392
2871803 45 18260263049285562938
3004659 81 18187366476911131666
3268164 11 16081080476772077775
42 15 18411423911982175051
4214541 1 18408324371697906029
4921388 177 16515978050506114267
5104073 3 18411418418761234888
59755656 215 18114176429025661011
59755656 520 18337104572152343157
633830 44 15068630353005300716
77779 3 18408888446842932188
8809292 202 18408044026076074314
9709674 26 18262803006971218571

>  <PUBCHEM_SHAPE_MULTIPOLES>  (1) 
329.04
10.98
1.86
0.91
3.02
0.39
0.12
1.99
0.38
-0.2
-0.17
-0.81
-0.16
1.18

>  <PUBCHEM_SHAPE_SELFOVERLAP>  (1) 
686.79

>  <PUBCHEM_SHAPE_VOLUME>  (1) 
184.2

>  <PUBCHEM_COORDINATE_TYPE>  (1) 
2
5
10

$$$$
