27535
     RDKit          3D

  8  7  0  0  0  0  0  0  0  0999 V2000
   -1.9354    0.0000   -0.3163 C   0  0  0  0  0  0  0  0  0  0  0  0
    1.9354    0.0001    0.3163 C   0  0  0  0  0  0  0  0  0  0  0  0
   -0.5783   -0.0002    0.3402 C   0  0  0  0  0  0  0  0  0  0  0  0
    0.5783   -0.0003   -0.3402 C   0  0  0  0  0  0  0  0  0  0  0  0
   -2.7114    1.2567    0.0768 C   0  0  0  0  0  0  0  0  0  0  0  0
   -2.7120   -1.2564    0.0764 C   0  0  0  0  0  0  0  0  0  0  0  0
    2.7118   -1.2565   -0.0764 C   0  0  0  0  0  0  0  0  0  0  0  0
    2.7116    1.2565   -0.0768 C   0  0  0  0  0  0  0  0  0  0  0  0
  1  3  1  0
  1  5  1  0
  1  6  1  0
  2  4  1  0
  2  7  1  0
  2  8  1  0
  3  4  2  0
M  END
>  <PUBCHEM_COMPOUND_CID>  (1) 
27535

>  <PUBCHEM_CONFORMER_RMSD>  (1) 
0.4

>  <PUBCHEM_CONFORMER_DIVERSEORDER>  (1) 
1
2
3

>  <PUBCHEM_MMFF94_PARTIAL_CHARGES>  (1) 
6
1 0.14
11 0.15
12 0.15
2 0.14
3 -0.29
4 -0.29

>  <PUBCHEM_EFFECTIVE_ROTOR_COUNT>  (1) 
2

>  <PUBCHEM_PHARMACOPHORE_FEATURES>  (1) 
2
3 1 5 6 hydrophobe
3 2 7 8 hydrophobe

>  <PUBCHEM_HEAVY_ATOM_COUNT>  (1) 
8

>  <PUBCHEM_ATOM_DEF_STEREO_COUNT>  (1) 
0

>  <PUBCHEM_ATOM_UDEF_STEREO_COUNT>  (1) 
0

>  <PUBCHEM_BOND_DEF_STEREO_COUNT>  (1) 
0

>  <PUBCHEM_BOND_UDEF_STEREO_COUNT>  (1) 
1

>  <PUBCHEM_ISOTOPIC_ATOM_COUNT>  (1) 
0

>  <PUBCHEM_COMPONENT_COUNT>  (1) 
1

>  <PUBCHEM_CACTVS_TAUTO_COUNT>  (1) 
1

>  <PUBCHEM_CONFORMER_ID>  (1) 
00006B8F00000001

>  <PUBCHEM_MMFF94_ENERGY>  (1) 
2.9204

>  <PUBCHEM_FEATURE_SELFOVERLAP>  (1) 
10.149

>  <PUBCHEM_SHAPE_FINGERPRINT>  (1) 
12932764 1 18410865360027779078
14325111 11 18410573993741392226
14390081 3 18411979191108519296
15310529 11 18271805760892259263
19973954 147 18410856563935198596
20653085 51 18336554802556832337
23552423 10 18334857199278860394
29004967 10 17703791418221905474
3248919 1 18338504296485630659
5460574 1 9583527520188235779

>  <PUBCHEM_SHAPE_MULTIPOLES>  (1) 
164.64
5.31
1.41
0.67
0
0
0
0
0
0
0
0
0
0

>  <PUBCHEM_SHAPE_SELFOVERLAP>  (1) 
294.131

>  <PUBCHEM_SHAPE_VOLUME>  (1) 
107.6

>  <PUBCHEM_COORDINATE_TYPE>  (1) 
2
5
10

$$$$
