27536
     RDKit          3D

 14 14  0  0  0  0  0  0  0  0999 V2000
   -1.0213   -2.2075    0.0455 O   0  0  0  0  0  0  0  0  0  0  0  0
    2.4240   -0.2732   -0.0344 O   0  0  0  0  0  0  0  0  0  0  0  0
   -1.2390    2.3140    0.5466 O   0  0  0  0  0  0  0  0  0  0  0  0
    1.2237    1.6913   -0.0276 O   0  0  0  0  0  0  0  0  0  0  0  0
    0.2721   -1.7004    0.0166 N   0  0  0  0  0  0  0  0  0  0  0  0
   -1.2289    0.0124    0.0309 C   0  0  0  0  0  0  0  0  0  0  0  0
   -1.9062   -1.1780    0.0536 C   0  0  0  0  0  0  0  0  0  0  0  0
    0.0827   -0.4019    0.0093 C   0  0  0  0  0  0  0  0  0  0  0  0
   -1.8139    1.3186    0.0322 C   0  0  0  0  0  0  0  0  0  0  0  0
   -3.3288   -1.5440    0.0850 C   0  0  0  0  0  0  0  0  0  0  0  0
    1.2830    0.4715   -0.0197 C   0  0  0  0  0  0  0  0  0  0  0  0
    3.6438    0.4526   -0.0612 C   0  0  0  0  0  0  0  0  0  0  0  0
   -3.1906    1.5702   -0.6024 C   0  0  0  0  0  0  0  0  0  0  0  0
    4.7993   -0.5254   -0.0743 C   0  0  0  0  0  0  0  0  0  0  0  0
  1  5  1  0
  1  7  1  0
  2 11  1  0
  2 12  1  0
  3  9  2  0
  4 11  2  0
  5  8  2  0
  6  7  2  0
  6  8  1  0
  6  9  1  0
  7 10  1  0
  8 11  1  0
  9 13  1  0
 12 14  1  0
M  END
>  <PUBCHEM_COMPOUND_CID>  (1) 
27536

>  <PUBCHEM_CONFORMER_RMSD>  (1) 
0.6

>  <PUBCHEM_CONFORMER_DIVERSEORDER>  (1) 
1
33
38
22
9
3
46
14
41
10
29
47
45
49
2
27
37
50
48
26
13
21
53
28
8
5
43
19
52
11
31
51
4
18
44
24
34
39
6
23
42
32
20
40
16
25
35
17
30
36
15
12
7

>  <PUBCHEM_MMFF94_PARTIAL_CHARGES>  (1) 
13
1 -0.02
10 0.18
11 0.81
12 0.28
13 0.06
2 -0.43
3 -0.57
4 -0.57
5 -0.41
6 -0.09
7 -0.04
8 0.2
9 0.6

>  <PUBCHEM_EFFECTIVE_ROTOR_COUNT>  (1) 
4

>  <PUBCHEM_PHARMACOPHORE_FEATURES>  (1) 
4
1 3 acceptor
1 4 acceptor
1 5 acceptor
5 1 5 6 7 8 rings

>  <PUBCHEM_HEAVY_ATOM_COUNT>  (1) 
14

>  <PUBCHEM_ATOM_DEF_STEREO_COUNT>  (1) 
0

>  <PUBCHEM_ATOM_UDEF_STEREO_COUNT>  (1) 
0

>  <PUBCHEM_BOND_DEF_STEREO_COUNT>  (1) 
0

>  <PUBCHEM_BOND_UDEF_STEREO_COUNT>  (1) 
0

>  <PUBCHEM_ISOTOPIC_ATOM_COUNT>  (1) 
0

>  <PUBCHEM_COMPONENT_COUNT>  (1) 
1

>  <PUBCHEM_CACTVS_TAUTO_COUNT>  (1) 
2

>  <PUBCHEM_CONFORMER_ID>  (1) 
00006B9000000001

>  <PUBCHEM_MMFF94_ENERGY>  (1) 
20.5349

>  <PUBCHEM_FEATURE_SELFOVERLAP>  (1) 
20.309

>  <PUBCHEM_SHAPE_FINGERPRINT>  (1) 
10608611 8 18341609365094962432
11206711 2 18409729590570966255
12032990 46 18192998342518748307
13024252 1 11819268971193137151
13380535 76 18339921498338935263
14325111 11 18409729556327272028
14614273 12 18261391109845448061
14897335 6 18337104540911061791
15775835 57 18040996189732092932
16945 1 18336540637628089419
17804303 29 18413393154893624936
193761 8 18194684765827848531
20510252 161 18342740740747263808
20711985 365 18337673125898524740
20871998 184 18201442501277153646
2306618 200 18202291281362068385
23402539 116 18272081721373769663
23463225 33 18334574599585181642
23526113 38 17559954321136722498
23559900 14 18343579621713360384
2748010 2 18267857453508249793
43471831 8 18334290929627462674
559249 180 18261386690646438370
6333449 129 18413107247115077877

>  <PUBCHEM_SHAPE_MULTIPOLES>  (1) 
259.66
6.51
2.2
0.63
7.45
0.13
-0.01
-0.35
-0.51
-1.89
0.1
-0.11
0.08
0.17

>  <PUBCHEM_SHAPE_SELFOVERLAP>  (1) 
534.564

>  <PUBCHEM_SHAPE_VOLUME>  (1) 
151.4

>  <PUBCHEM_COORDINATE_TYPE>  (1) 
2
5
10

$$$$
