2754
     RDKit          3D

 27 30  0  0  0  0  0  0  0  0999 V2000
   -0.0791   -2.1915   -0.7337 O   0  0  0  0  0  0  0  0  0  0  0  0
    6.6724    1.1351    0.5843 O   0  0  0  0  0  0  0  0  0  0  0  0
   -3.6731    0.8399    0.0780 N   0  0  0  0  0  0  0  0  0  0  0  0
   -4.6810    1.7014   -0.1180 N   0  0  0  0  0  0  0  0  0  0  0  0
   -5.4801   -0.3441    0.2670 N   0  0  0  0  0  0  0  0  0  0  0  0
   -5.7837    0.9715   -0.0016 N   0  0  0  0  0  0  0  0  0  0  0  0
    4.8589   -0.2394    0.8971 N   0  0  0  0  0  0  0  0  0  0  0  0
   -2.2747    1.2854    0.0239 C   0  0  0  0  0  0  0  0  0  0  0  0
   -1.7282    1.6601    1.4117 C   0  0  0  0  0  0  0  0  0  0  0  0
   -2.0630    2.4198   -0.9926 C   0  0  0  0  0  0  0  0  0  0  0  0
   -0.2643    2.0898    1.3347 C   0  0  0  0  0  0  0  0  0  0  0  0
   -0.5970    2.8444   -1.0537 C   0  0  0  0  0  0  0  0  0  0  0  0
   -0.0599    3.2166    0.3258 C   0  0  0  0  0  0  0  0  0  0  0  0
   -4.1897   -0.3740    0.3054 C   0  0  0  0  0  0  0  0  0  0  0  0
   -3.3264   -1.5830    0.5644 C   0  0  0  0  0  0  0  0  0  0  0  0
   -2.9700   -2.3074   -0.7366 C   0  0  0  0  0  0  0  0  0  0  0  0
   -2.0664   -3.5099   -0.4719 C   0  0  0  0  0  0  0  0  0  0  0  0
   -0.7426   -3.0915    0.1524 C   0  0  0  0  0  0  0  0  0  0  0  0
    3.0698   -0.3188   -0.7478 C   0  0  0  0  0  0  0  0  0  0  0  0
    3.8810    0.5685   -1.6473 C   0  0  0  0  0  0  0  0  0  0  0  0
    3.6064   -0.7249    0.4806 C   0  0  0  0  0  0  0  0  0  0  0  0
    4.7726    1.4952   -0.8344 C   0  0  0  0  0  0  0  0  0  0  0  0
    1.1382   -1.7231   -0.3434 C   0  0  0  0  0  0  0  0  0  0  0  0
    1.8336   -0.8288   -1.1584 C   0  0  0  0  0  0  0  0  0  0  0  0
    5.5450    0.7707    0.2506 C   0  0  0  0  0  0  0  0  0  0  0  0
    2.9197   -1.6349    1.2877 C   0  0  0  0  0  0  0  0  0  0  0  0
    1.6814   -2.1271    0.8759 C   0  0  0  0  0  0  0  0  0  0  0  0
  1 18  1  0
  1 23  1  0
  2 25  2  0
  3  4  1  0
  3  8  1  0
  3 14  1  0
  4  6  2  0
  5  6  1  0
  5 14  2  0
  7 21  1  0
  7 25  1  0
  8  9  1  0
  8 10  1  0
  9 11  1  0
 10 12  1  0
 11 13  1  0
 12 13  1  0
 14 15  1  0
 15 16  1  0
 16 17  1  0
 17 18  1  0
 19 20  1  0
 19 21  2  0
 19 24  1  0
 20 22  1  0
 21 26  1  0
 22 25  1  0
 23 24  2  0
 23 27  1  0
 26 27  2  0
M  END
>  <PUBCHEM_COMPOUND_CID>  (1) 
2754

>  <PUBCHEM_CONFORMER_RMSD>  (1) 
1

>  <PUBCHEM_CONFORMER_DIVERSEORDER>  (1) 
8
19
114
47
87
10
88
49
167
301
198
218
328
139
250
299
264
132
59
85
9
272
237
174
189
146
233
300
140
46
38
278
109
133
13
61
256
155
32
1
23
64
160
253
241
105
199
35
66
235
309
314
216
91
333
2
159
21
229
258
245
251
55
134
161
205
225
94
12
266
63
69
286
57
239
126
163
97
60
158
141
213
62
20
26
325
122
120
4
24
54
247
336
228
86
307
124
3
315
224
75
101
89
284
257
276
173
244
82
41
42
99
15
118
197
28
5
31
339
234
236
252
181
187
329
50
166
103
214
80
43
290
108
208
39
100
76
84
51
304
322
231
65
170
70
313
73
104
341
11
298
277
152
285
169
332
72
144
128
274
206
291
281
212
273
81
211
30
249
138
230
125
293
316
267
327
92
343
184
271
223
115
207
248
246
312
168
195
14
275
162
185
311
340
130
204
119
280
77
113
90
191
319
175
318
202
131
7
324
79
110
56
265
192
215
52
201
142
321
279
283
143
255
71
305
190
29
164
116
342
171
98
330
154
338
210
263
260
137
6
295
310
296
268
177
220
262
33
44
129
37
16
209
102
53
222
317
95
297
337
111
287
172
303
127
254
182
308
243
83
74
334
232
40
22
179
150
147
242
153
193
289
259
203
34
18
149
219
326
196
165
112
123
335
58
288
269
240
302
67
96
180
200
148
151
270
17
93
68
183
136
107
292
331
217
261
36
27
178
78
135
106
117
238
306
25
323
188
157
294
145
121
226
45
320
282
227
48
186
176
156
194
221

>  <PUBCHEM_MMFF94_PARTIAL_CHARGES>  (1) 
23
1 -0.36
14 0.01
15 0.18
18 0.28
19 -0.14
2 -0.57
20 0.14
21 0.12
22 0.06
23 0.08
24 -0.15
25 0.57
26 -0.15
27 -0.15
3 0.31
4 -0.42
5 -0.34
51 0.15
52 0.37
53 0.15
54 0.15
7 -0.55
8 0.26

>  <PUBCHEM_EFFECTIVE_ROTOR_COUNT>  (1) 
8.8

>  <PUBCHEM_PHARMACOPHORE_FEATURES>  (1) 
8
1 1 acceptor
1 2 acceptor
1 7 donor
3 3 5 14 cation
5 3 4 5 6 14 rings
6 19 21 23 24 26 27 rings
6 7 19 20 21 22 25 rings
6 8 9 10 11 12 13 rings

>  <PUBCHEM_HEAVY_ATOM_COUNT>  (1) 
27

>  <PUBCHEM_ATOM_DEF_STEREO_COUNT>  (1) 
0

>  <PUBCHEM_ATOM_UDEF_STEREO_COUNT>  (1) 
0

>  <PUBCHEM_BOND_DEF_STEREO_COUNT>  (1) 
0

>  <PUBCHEM_BOND_UDEF_STEREO_COUNT>  (1) 
0

>  <PUBCHEM_ISOTOPIC_ATOM_COUNT>  (1) 
0

>  <PUBCHEM_COMPONENT_COUNT>  (1) 
1

>  <PUBCHEM_CACTVS_TAUTO_COUNT>  (1) 
2

>  <PUBCHEM_CONFORMER_ID>  (1) 
00000AC200000008

>  <PUBCHEM_MMFF94_ENERGY>  (1) 
48.2985

>  <PUBCHEM_FEATURE_SELFOVERLAP>  (1) 
40.622

>  <PUBCHEM_SHAPE_FINGERPRINT>  (1) 
10498660 4 18343310257568796562
10675989 125 17472413258413013461
10759866 29 18260834769620315938
10864689 126 18341335483536327532
1100329 8 18338801246240376717
11112241 14 16772367720868630233
11135609 187 18267017268455072725
11513181 2 18130510730164335567
12467345 10 18113614573739910386
12788726 201 17917150485935556017
12838862 33 18339345427745870669
13402501 40 18343301478639572625
14114211 80 18130518440083993331
14117953 113 18192713341204816845
14765038 42 18201454553419733625
14790565 3 18269562641703994737
14840074 17 18261971681875981597
14932702 115 18126299763817565336
15297060 5 18130797758580809794
161222 619 17129264771449588776
17492 54 18408876344210778215
18336668 15 18188771776639477877
18769570 83 18337107977243744274
19319366 153 17968089811641799427
20511986 3 18040703753967181497
20642791 178 18261971729627024221
20715895 44 17538555522979966141
20905425 154 17694794316820451559
23559900 14 17762896563663976807
3052486 1 18337102488438901592
338550 245 18191025814321476436
350125 39 18266744571816365918
3680242 22 18336272244989614577
392239 28 18341335573709346952
463206 1 18263651825574013261
469060 322 18187375366696427280
5171179 24 17628064921354158960
5486654 2 18411986853525347876
59567204 34 18341050834800058256
59755656 215 18342748377858798110
7808743 9 18411979191082405451

>  <PUBCHEM_SHAPE_MULTIPOLES>  (1) 
519
11.96
3.98
1.25
5.45
0.6
0.01
-3.11
-0.74
-2.54
0.25
0.76
-0.23
-0.63

>  <PUBCHEM_SHAPE_SELFOVERLAP>  (1) 
1096.454

>  <PUBCHEM_SHAPE_VOLUME>  (1) 
290

>  <PUBCHEM_COORDINATE_TYPE>  (1) 
2
5
10

$$$$
