27543
     RDKit          3D

 17 19  0  0  0  0  0  0  0  0999 V2000
    4.1425    0.8451    0.1156 O   0  0  0  0  0  0  0  0  0  0  0  0
   -0.7169   -1.6830   -0.0708 N   0  0  0  0  0  0  0  0  0  0  0  0
   -3.7964    1.5366    0.1294 N   0  0  0  0  0  0  0  0  0  0  0  0
   -0.8255    0.5304   -0.3002 C   0  0  0  0  0  0  0  0  0  0  0  0
   -1.5743   -0.6305   -0.2528 C   0  0  0  0  0  0  0  0  0  0  0  0
   -1.3847    1.9008   -0.4918 C   0  0  0  0  0  0  0  0  0  0  0  0
   -3.0471   -0.8118   -0.3696 C   0  0  0  0  0  0  0  0  0  0  0  0
    0.5461    0.1543   -0.1393 C   0  0  0  0  0  0  0  0  0  0  0  0
    0.5807   -1.2344    0.0033 C   0  0  0  0  0  0  0  0  0  0  0  0
   -2.5423    2.2257    0.4575 C   0  0  0  0  0  0  0  0  0  0  0  0
   -3.8247    0.1311    0.5523 C   0  0  0  0  0  0  0  0  0  0  0  0
    1.7658    0.8630   -0.1016 C   0  0  0  0  0  0  0  0  0  0  0  0
   -1.0971   -3.0785    0.0228 C   0  0  0  0  0  0  0  0  0  0  0  0
    1.7707   -1.9491    0.1831 C   0  0  0  0  0  0  0  0  0  0  0  0
    2.9639    0.1622    0.0778 C   0  0  0  0  0  0  0  0  0  0  0  0
    2.9639   -1.2233    0.2182 C   0  0  0  0  0  0  0  0  0  0  0  0
    4.0754    2.2616   -0.0340 C   0  0  0  0  0  0  0  0  0  0  0  0
  1 15  1  0
  1 17  1  0
  2  5  1  0
  2  9  1  0
  2 13  1  0
  3 10  1  0
  3 11  1  0
  4  5  2  0
  4  6  1  0
  4  8  1  0
  5  7  1  0
  6 10  1  0
  7 11  1  0
  8  9  2  0
  8 12  1  0
  9 14  1  0
 12 15  2  0
 14 16  2  0
 15 16  1  0
M  END
>  <PUBCHEM_COMPOUND_CID>  (1) 
27543

>  <PUBCHEM_CONFORMER_RMSD>  (1) 
0.6

>  <PUBCHEM_CONFORMER_DIVERSEORDER>  (1) 
1
2

>  <PUBCHEM_MMFF94_PARTIAL_CHARGES>  (1) 
20
1 -0.36
10 0.27
11 0.27
12 -0.15
13 0.26
14 -0.15
15 0.08
16 -0.15
17 0.28
2 0.05
26 0.36
27 0.15
3 -0.9
31 0.15
32 0.15
4 -0.18
5 -0.33
6 0.18
7 0.18
9 -0.15

>  <PUBCHEM_EFFECTIVE_ROTOR_COUNT>  (1) 
2

>  <PUBCHEM_PHARMACOPHORE_FEATURES>  (1) 
7
1 1 acceptor
1 2 cation
1 3 cation
1 3 donor
5 2 4 5 8 9 rings
6 8 9 12 14 15 16 rings
7 3 4 5 6 7 10 11 rings

>  <PUBCHEM_HEAVY_ATOM_COUNT>  (1) 
17

>  <PUBCHEM_ATOM_DEF_STEREO_COUNT>  (1) 
0

>  <PUBCHEM_ATOM_UDEF_STEREO_COUNT>  (1) 
0

>  <PUBCHEM_BOND_DEF_STEREO_COUNT>  (1) 
0

>  <PUBCHEM_BOND_UDEF_STEREO_COUNT>  (1) 
0

>  <PUBCHEM_ISOTOPIC_ATOM_COUNT>  (1) 
0

>  <PUBCHEM_COMPONENT_COUNT>  (1) 
1

>  <PUBCHEM_CACTVS_TAUTO_COUNT>  (1) 
1

>  <PUBCHEM_CONFORMER_ID>  (1) 
00006B9700000001

>  <PUBCHEM_MMFF94_ENERGY>  (1) 
41.2045

>  <PUBCHEM_FEATURE_SELFOVERLAP>  (1) 
35.643

>  <PUBCHEM_SHAPE_FINGERPRINT>  (1) 
10411042 1 16609696762836558327
10608611 8 18265049141601720949
10967382 1 18410292510180028284
11132069 177 18411976923592380545
12173636 292 18411978040152249333
12346645 44 18411136935115454480
12390115 104 18199769005925544456
13140716 1 17976825615996426673
13380535 76 18411980264971701622
13583140 156 16660906842636985164
14144814 61 18408884005730638664
14787075 74 18272367607556154177
15196674 1 18410573955492926921
15309172 13 18337676317312394275
15442244 35 18194680371960039402
15536298 74 18341895152076147134
15775835 57 18341897376521111801
16945 1 18410569621570465846
1741750 31 18342455963125227656
18186145 218 18269837519188380284
19591789 44 18337957766319269750
20510252 161 18343304768853566345
21029758 11 17690554608204734823
21267235 1 18410582751195922806
21501502 16 18411973642126693958
21524375 3 18271239426399211046
2334 1 18337950091090905367
23402539 116 18271236244408914711
23463225 33 18263362499327896559
23557571 272 18125735723152901894
23559900 14 18271809056102963508
2748010 2 18191584155468410471
335352 9 17978509736997438630
350125 39 18265336114299970820
474 4 17749676306708993980
5104073 3 18408886213349078467
633830 44 18058171622499875581
7097593 13 17609201364818926242
7364860 26 17908987599931312047
9709674 26 18341898506456590262

>  <PUBCHEM_SHAPE_MULTIPOLES>  (1) 
334.02
6.84
2.85
0.67
2.04
0.62
0
-3.67
-0.7
-0.18
-0.08
-0.15
-0.05
-0.29

>  <PUBCHEM_SHAPE_SELFOVERLAP>  (1) 
722.574

>  <PUBCHEM_SHAPE_VOLUME>  (1) 
183.1

>  <PUBCHEM_COORDINATE_TYPE>  (1) 
2
5
10

$$$$
