27547
     RDKit          3D

 15 17  0  0  0  0  0  0  0  0999 V2000
    0.2575   -1.4699   -0.1425 N   0  0  0  0  0  0  0  0  0  0  0  0
   -3.8620    0.2114    0.1560 N   0  0  0  0  0  0  0  0  0  0  0  0
   -0.7426    0.5153   -0.2899 C   0  0  0  0  0  0  0  0  0  0  0  0
   -0.9551   -0.8506   -0.2908 C   0  0  0  0  0  0  0  0  0  0  0  0
   -1.8117    1.5467   -0.4340 C   0  0  0  0  0  0  0  0  0  0  0  0
   -2.2280   -1.6101   -0.4243 C   0  0  0  0  0  0  0  0  0  0  0  0
    0.6649    0.7229   -0.1343 C   0  0  0  0  0  0  0  0  0  0  0  0
    1.2618   -0.5362   -0.0433 C   0  0  0  0  0  0  0  0  0  0  0  0
   -2.9932    1.3379    0.5186 C   0  0  0  0  0  0  0  0  0  0  0  0
   -3.3136   -1.0988    0.5265 C   0  0  0  0  0  0  0  0  0  0  0  0
    2.6410   -0.7122    0.1178 C   0  0  0  0  0  0  0  0  0  0  0  0
    1.4921    1.8640   -0.0624 C   0  0  0  0  0  0  0  0  0  0  0  0
    3.4370    0.4339    0.1879 C   0  0  0  0  0  0  0  0  0  0  0  0
    2.8731    1.7040    0.0990 C   0  0  0  0  0  0  0  0  0  0  0  0
    3.2785   -2.0583    0.2156 C   0  0  0  0  0  0  0  0  0  0  0  0
  1  4  1  0
  1  8  1  0
  2  9  1  0
  2 10  1  0
  3  4  2  0
  3  5  1  0
  3  7  1  0
  4  6  1  0
  5  9  1  0
  6 10  1  0
  7  8  2  0
  7 12  1  0
  8 11  1  0
 11 13  2  0
 11 15  1  0
 12 14  2  0
 13 14  1  0
M  END
>  <PUBCHEM_COMPOUND_CID>  (1) 
27547

>  <PUBCHEM_CONFORMER_RMSD>  (1) 
0.4

>  <PUBCHEM_CONFORMER_DIVERSEORDER>  (1) 
1
2

>  <PUBCHEM_MMFF94_PARTIAL_CHARGES>  (1) 
19
1 0.03
10 0.27
11 -0.14
12 -0.15
13 -0.15
14 -0.15
15 0.14
2 -0.9
24 0.27
25 0.36
26 0.15
27 0.15
28 0.15
3 -0.18
4 -0.33
5 0.18
6 0.18
8 -0.15
9 0.27

>  <PUBCHEM_EFFECTIVE_ROTOR_COUNT>  (1) 
1

>  <PUBCHEM_PHARMACOPHORE_FEATURES>  (1) 
7
1 1 cation
1 1 donor
1 2 cation
1 2 donor
5 1 3 4 7 8 rings
6 7 8 11 12 13 14 rings
7 2 3 4 5 6 9 10 rings

>  <PUBCHEM_HEAVY_ATOM_COUNT>  (1) 
15

>  <PUBCHEM_ATOM_DEF_STEREO_COUNT>  (1) 
0

>  <PUBCHEM_ATOM_UDEF_STEREO_COUNT>  (1) 
0

>  <PUBCHEM_BOND_DEF_STEREO_COUNT>  (1) 
0

>  <PUBCHEM_BOND_UDEF_STEREO_COUNT>  (1) 
0

>  <PUBCHEM_ISOTOPIC_ATOM_COUNT>  (1) 
0

>  <PUBCHEM_COMPONENT_COUNT>  (1) 
1

>  <PUBCHEM_CACTVS_TAUTO_COUNT>  (1) 
1

>  <PUBCHEM_CONFORMER_ID>  (1) 
00006B9B00000001

>  <PUBCHEM_MMFF94_ENERGY>  (1) 
23.2943

>  <PUBCHEM_FEATURE_SELFOVERLAP>  (1) 
35.643

>  <PUBCHEM_SHAPE_FINGERPRINT>  (1) 
10608611 8 18410289203145309893
10967382 1 18410855490235137438
10980938 120 18411139160283040736
11132069 177 18411976992195871225
11471102 20 18410568491914679510
12032990 46 18266463113818694014
12251169 10 18411699885132146867
12696612 119 18408888464038788228
12932764 1 17560795597486606806
13140716 1 18339074887454897248
13221675 6 18408603664651784786
13380535 21 18410017654011788348
14144814 61 18411136943694826624
14325111 11 18411419518267807853
14790565 3 15750095230830091004
15196674 1 18410856555861806457
15219456 202 18410008831895676805
15442244 35 18339924805595453058
15536298 74 18342738524865768578
15775835 57 18341619260214205265
16945 1 18266734882158460924
17804303 29 18338241448893021638
17844478 74 18113338613300845109
18186145 218 18342742879561927084
200 152 18130211723584042501
20559304 39 18410012173733836272
20645477 70 18411411804585899791
21267235 1 18411146839352568334
21501502 16 18411980286309024270
221490 88 18335710450678171570
22445834 79 18409448102429914971
22854114 111 18410856607116837272
2334 1 18410288138167058628
23402539 116 18201993344656640967
23463225 33 18410012130546637140
23559900 14 18340200804636710250
2748010 2 18338226086048127108
335352 9 18122343475924422885
5104073 3 18410857650893825601
53812653 166 18271520992018829392
69090 78 18341608209780109511
7364860 26 18342175583613077686
84936 31 16199032678048397526
8809292 202 18260835864741888139
9709674 26 18410015476194863531

>  <PUBCHEM_SHAPE_MULTIPOLES>  (1) 
298.73
6.32
2.17
0.69
1.08
0.06
0.01
0.48
0.97
-0.62
-0.01
0.15
0
-0.12

>  <PUBCHEM_SHAPE_SELFOVERLAP>  (1) 
650.839

>  <PUBCHEM_SHAPE_VOLUME>  (1) 
162

>  <PUBCHEM_COORDINATE_TYPE>  (1) 
2
5
10

$$$$
