27557
     RDKit          3D

 14 16  0  0  0  0  0  0  0  0999 V2000
    0.2868   -1.6690   -0.0678 N   0  0  0  0  0  0  0  0  0  0  0  0
   -3.5927    0.5219    0.1205 N   0  0  0  0  0  0  0  0  0  0  0  0
   -0.4558    0.4193   -0.2931 C   0  0  0  0  0  0  0  0  0  0  0  0
   -0.8374   -0.9088   -0.2524 C   0  0  0  0  0  0  0  0  0  0  0  0
   -1.3861    1.5704   -0.4850 C   0  0  0  0  0  0  0  0  0  0  0  0
   -2.1940   -1.5077   -0.3782 C   0  0  0  0  0  0  0  0  0  0  0  0
    0.9651    0.4549   -0.1256 C   0  0  0  0  0  0  0  0  0  0  0  0
   -2.5932    1.5430    0.4579 C   0  0  0  0  0  0  0  0  0  0  0  0
   -3.2159   -0.8330    0.5408 C   0  0  0  0  0  0  0  0  0  0  0  0
    1.3990   -0.8649    0.0145 C   0  0  0  0  0  0  0  0  0  0  0  0
    1.9278    1.4857   -0.0797 C   0  0  0  0  0  0  0  0  0  0  0  0
    2.7438   -1.2059    0.1997 C   0  0  0  0  0  0  0  0  0  0  0  0
    3.2764    1.1604    0.1053 C   0  0  0  0  0  0  0  0  0  0  0  0
    3.6763   -0.1663    0.2431 C   0  0  0  0  0  0  0  0  0  0  0  0
  1  4  1  0
  1 10  1  0
  2  8  1  0
  2  9  1  0
  3  4  2  0
  3  5  1  0
  3  7  1  0
  4  6  1  0
  5  8  1  0
  6  9  1  0
  7 10  2  0
  7 11  1  0
 10 12  1  0
 11 13  2  0
 12 14  2  0
 13 14  1  0
M  END
>  <PUBCHEM_COMPOUND_CID>  (1) 
27557

>  <PUBCHEM_CONFORMER_RMSD>  (1) 
0.4

>  <PUBCHEM_CONFORMER_DIVERSEORDER>  (1) 
1
2

>  <PUBCHEM_MMFF94_PARTIAL_CHARGES>  (1) 
19
1 0.03
10 -0.15
11 -0.15
12 -0.15
13 -0.15
14 -0.15
2 -0.9
23 0.27
24 0.36
25 0.15
26 0.15
27 0.15
28 0.15
3 -0.18
4 -0.33
5 0.18
6 0.18
8 0.27
9 0.27

>  <PUBCHEM_EFFECTIVE_ROTOR_COUNT>  (1) 
1

>  <PUBCHEM_PHARMACOPHORE_FEATURES>  (1) 
7
1 1 cation
1 1 donor
1 2 cation
1 2 donor
5 1 3 4 7 10 rings
6 7 10 11 12 13 14 rings
7 2 3 4 5 6 8 9 rings

>  <PUBCHEM_HEAVY_ATOM_COUNT>  (1) 
14

>  <PUBCHEM_ATOM_DEF_STEREO_COUNT>  (1) 
0

>  <PUBCHEM_ATOM_UDEF_STEREO_COUNT>  (1) 
0

>  <PUBCHEM_BOND_DEF_STEREO_COUNT>  (1) 
0

>  <PUBCHEM_BOND_UDEF_STEREO_COUNT>  (1) 
0

>  <PUBCHEM_ISOTOPIC_ATOM_COUNT>  (1) 
0

>  <PUBCHEM_COMPONENT_COUNT>  (1) 
1

>  <PUBCHEM_CACTVS_TAUTO_COUNT>  (1) 
1

>  <PUBCHEM_CONFORMER_ID>  (1) 
00006BA500000001

>  <PUBCHEM_MMFF94_ENERGY>  (1) 
20.4486

>  <PUBCHEM_FEATURE_SELFOVERLAP>  (1) 
35.643

>  <PUBCHEM_SHAPE_FINGERPRINT>  (1) 
10608611 8 18411133615153597172
10967382 1 18410573963697733206
11132069 177 18412258449855497696
11471102 20 18410005537708501918
12032990 46 18338803321099827870
12251169 10 18410293601122820505
12346645 44 18339080509714955848
12382932 28 18340771446739447713
12491281 212 18411710871605872673
12696612 119 18335143102572542772
12932764 1 17489299841100581038
13221675 6 18408885131138794118
13380535 21 18411708659913908446
13380535 76 18412543189171084975
14144814 61 18410291410805544112
14325111 11 18411136935231680876
15196674 1 18410292518780538329
15219456 202 18130512937713734166
15309172 13 18342181063522160811
15442244 35 18267303127859513626
15536298 74 18342739620156288614
15775835 57 18413394249683128032
16945 1 18265609879678302070
17804303 29 18339084791786742094
17844478 74 18114184133363131005
18186145 218 18271529706306876340
200 152 18200861951217562495
20510252 161 18272654562431171329
20528008 55 18411131433689739613
21267235 1 18410302418696317634
21501502 16 18410571803529649878
22445834 79 18261388914642672394
2334 1 18410008862145135684
23402539 116 18272642485637373143
23402655 69 18270667672601765861
23463225 33 18407759235621825412
23559900 14 18271807883824766238
2748010 2 18338229371650551340
5104073 3 18410293609712756008
53812653 166 18343295981498230176
6333449 129 18411978057495310757
69090 78 18341888576565593527
7364860 26 18198626540609247054
8809292 202 18259991469749972227

>  <PUBCHEM_SHAPE_MULTIPOLES>  (1) 
278.15
6
1.87
0.69
0.35
0.1
0
0.42
0.92
-0.34
-0.05
-0.13
0.02
-0.13

>  <PUBCHEM_SHAPE_SELFOVERLAP>  (1) 
608.51

>  <PUBCHEM_SHAPE_VOLUME>  (1) 
149.3

>  <PUBCHEM_COORDINATE_TYPE>  (1) 
2
5
10

$$$$
