27555
     RDKit          3D

 18 20  0  0  1  0  0  0  0  0999 V2000
   -4.2978   -1.2278    0.1653 O   0  0  0  0  0  0  0  0  0  0  0  0
    0.2309    1.8514   -0.0660 N   0  0  0  0  0  0  0  0  0  0  0  0
    3.6765   -1.0066   -0.0376 N   0  0  0  0  0  0  0  0  0  0  0  0
    0.5829   -0.3239   -0.3884 C   0  0  0  0  0  0  0  0  0  0  0  0
    1.1947    0.9116   -0.3159 C   0  0  0  0  0  0  0  0  0  0  0  0
    1.2961   -1.6051   -0.6527 C   0  0  0  0  0  0  0  0  0  0  0  0
    2.6323    1.2553   -0.4694 C   0  0  0  0  0  0  0  0  0  0  0  0
    2.4965   -1.8400    0.2747 C   0  0  0  0  0  0  0  0  0  0  0  0
    3.5373    0.3921    0.4187 C   0  0  0  0  0  0  0  0  0  0  0  0
   -0.8155   -0.1162   -0.1705 C   0  0  0  0  0  0  0  0  0  0  0  0
   -1.0038    1.2532    0.0291 C   0  0  0  0  0  0  0  0  0  0  0  0
   -1.9436   -0.9626   -0.1235 C   0  0  0  0  0  0  0  0  0  0  0  0
    0.4538    3.2765    0.0757 C   0  0  0  0  0  0  0  0  0  0  0  0
   -2.2609    1.8182    0.2732 C   0  0  0  0  0  0  0  0  0  0  0  0
    4.8628   -1.6008    0.5941 C   0  0  0  0  0  0  0  0  0  0  0  0
   -3.2071   -0.4122    0.1201 C   0  0  0  0  0  0  0  0  0  0  0  0
   -3.3612    0.9580    0.3153 C   0  0  0  0  0  0  0  0  0  0  0  0
   -4.0739   -2.6209   -0.0422 C   0  0  0  0  0  0  0  0  0  0  0  0
  1 16  1  0
  1 18  1  0
  2  5  1  0
  2 11  1  0
  2 13  1  0
  3  8  1  0
  3  9  1  0
  3 15  1  0
  4  5  2  0
  4  6  1  0
  4 10  1  0
  5  7  1  0
  6  8  1  0
  7  9  1  0
 10 11  2  0
 10 12  1  0
 11 14  1  0
 12 16  2  0
 14 17  2  0
 16 17  1  0
M  END
>  <PUBCHEM_COMPOUND_CID>  (1) 
27555

>  <PUBCHEM_CONFORMER_RMSD>  (1) 
0.6

>  <PUBCHEM_CONFORMER_DIVERSEORDER>  (1) 
4
3
2
1

>  <PUBCHEM_MMFF94_PARTIAL_CHARGES>  (1) 
20
1 -0.36
11 -0.15
12 -0.15
13 0.26
14 -0.15
15 0.27
16 0.08
17 -0.15
18 0.28
2 0.05
27 0.15
3 -0.81
31 0.15
35 0.15
4 -0.18
5 -0.33
6 0.18
7 0.18
8 0.27
9 0.27

>  <PUBCHEM_EFFECTIVE_ROTOR_COUNT>  (1) 
2

>  <PUBCHEM_PHARMACOPHORE_FEATURES>  (1) 
6
1 1 acceptor
1 2 cation
1 3 cation
5 2 4 5 10 11 rings
6 10 11 12 14 16 17 rings
7 3 4 5 6 7 8 9 rings

>  <PUBCHEM_HEAVY_ATOM_COUNT>  (1) 
18

>  <PUBCHEM_ATOM_DEF_STEREO_COUNT>  (1) 
0

>  <PUBCHEM_ATOM_UDEF_STEREO_COUNT>  (1) 
0

>  <PUBCHEM_BOND_DEF_STEREO_COUNT>  (1) 
0

>  <PUBCHEM_BOND_UDEF_STEREO_COUNT>  (1) 
0

>  <PUBCHEM_ISOTOPIC_ATOM_COUNT>  (1) 
0

>  <PUBCHEM_COMPONENT_COUNT>  (1) 
1

>  <PUBCHEM_CACTVS_TAUTO_COUNT>  (1) 
1

>  <PUBCHEM_CONFORMER_ID>  (1) 
00006BA300000004

>  <PUBCHEM_MMFF94_ENERGY>  (1) 
48.8248

>  <PUBCHEM_FEATURE_SELFOVERLAP>  (1) 
30.569

>  <PUBCHEM_SHAPE_FINGERPRINT>  (1) 
10062212 137 18411978057527024143
10616163 171 18412547578527726983
10967382 1 18195247951598120389
11132069 177 18270115704357149240
11769659 78 18335420166411949509
11796584 16 17313935450585475403
11806522 49 18336264647229611735
12032990 46 18411139125733372308
12251169 10 18340488842144049112
12382932 28 18270684151568204432
12403259 226 18337103561938508941
12553582 1 18340223937462558839
12839892 36 18341600474455098698
13140716 1 18341331102474201456
13214271 11 18271518689483478326
14178342 30 18129393622081238633
14787075 74 18187649141424666586
14790565 3 17833277797380561196
15196674 1 18410575080700446992
15375462 189 18041000570698981562
15442244 35 18410859858370027137
15536298 74 18342176661586597912
16945 1 18339930436408653197
17804303 29 18270119003266598340
1813 80 17531256002436608934
18186145 218 12179855982496147182
19050596 39 18412829057761975003
19141452 34 18338801105060226953
200 152 18201991149706735205
20261772 1 17988360476456517542
20281475 54 18408326609323119789
20510252 161 17839740357439932472
20559304 39 18338801237729602396
20645477 70 18118956143251853583
21267235 1 18410583867882171006
21501502 16 18409457993950717621
21501925 9 18410853274000416134
221490 88 18191030203767126539
2255824 54 18048885378940533293
2297311 6 18199759059677546622
23184049 29 18266745688011406070
2334 1 18411987944420446349
23366157 5 18042971058618554276
23402539 116 18340760460091882711
23463225 33 18410013221647879828
23557571 272 18058172726169015028
23559900 14 18411692184398593296
2748010 2 18270125595603704077
3286 77 18334574697831119199
335352 9 18410293567391024837
34934 24 18265046925709455691
5104073 3 18413390938257945441
5493415 88 18412543236563392265
7097593 13 17467905273491827530
7364860 26 18268430320214213984
76465 3 18410570734257217231
84936 31 15840430255342578974
8809292 202 18261398831748500075
9709674 26 18334863856504789995

>  <PUBCHEM_SHAPE_MULTIPOLES>  (1) 
354.6
7.87
2.93
0.7
0.91
0.87
-0.01
-5.44
1.35
-0.64
0.08
0.18
-0.04
-0.42

>  <PUBCHEM_SHAPE_SELFOVERLAP>  (1) 
762.583

>  <PUBCHEM_SHAPE_VOLUME>  (1) 
196.7

>  <PUBCHEM_COORDINATE_TYPE>  (1) 
2
5
10

$$$$
