27565
     RDKit          3D

 10 10  0  0  0  0  0  0  0  0999 V2000
   -2.3985    1.3626    0.2130 O   0  0  0  0  0  0  0  0  0  0  0  0
    3.0860   -0.0167    0.4178 O   0  0  0  0  0  0  0  0  0  0  0  0
   -2.4249   -1.3426    0.2121 N   0  0  0  0  0  0  0  0  0  0  0  0
   -1.2409   -0.6735   -0.0103 C   0  0  0  0  0  0  0  0  0  0  0  0
   -1.2062    0.6750   -0.0135 C   0  0  0  0  0  0  0  0  0  0  0  0
   -0.0965   -1.5354   -0.2536 C   0  0  0  0  0  0  0  0  0  0  0  0
   -0.0737    1.5414   -0.2524 C   0  0  0  0  0  0  0  0  0  0  0  0
    1.2140   -1.2837   -0.1921 C   0  0  0  0  0  0  0  0  0  0  0  0
    1.2343    1.2801   -0.1897 C   0  0  0  0  0  0  0  0  0  0  0  0
    1.9065   -0.0072    0.0688 C   0  0  0  0  0  0  0  0  0  0  0  0
  1  5  1  0
  2 10  2  0
  3  4  1  0
  4  5  2  0
  4  6  1  0
  5  7  1  0
  6  8  2  0
  7  9  2  0
  8 10  1  0
  9 10  1  0
M  END
>  <PUBCHEM_COMPOUND_CID>  (1) 
27565

>  <PUBCHEM_CONFORMER_RMSD>  (1) 
0.4

>  <PUBCHEM_CONFORMER_DIVERSEORDER>  (1) 
1
2

>  <PUBCHEM_MMFF94_PARTIAL_CHARGES>  (1) 
17
1 -0.53
10 0.54
11 0.15
12 0.15
13 0.15
14 0.15
15 0.4
16 0.4
17 0.45
2 -0.57
3 -0.9
4 0.1
5 0.08
6 -0.15
7 -0.15
8 -0.14
9 -0.14

>  <PUBCHEM_EFFECTIVE_ROTOR_COUNT>  (1) 
0

>  <PUBCHEM_PHARMACOPHORE_FEATURES>  (1) 
5
1 1 donor
1 2 acceptor
1 3 cation
1 3 donor
7 4 5 6 7 8 9 10 rings

>  <PUBCHEM_HEAVY_ATOM_COUNT>  (1) 
10

>  <PUBCHEM_ATOM_DEF_STEREO_COUNT>  (1) 
0

>  <PUBCHEM_ATOM_UDEF_STEREO_COUNT>  (1) 
0

>  <PUBCHEM_BOND_DEF_STEREO_COUNT>  (1) 
0

>  <PUBCHEM_BOND_UDEF_STEREO_COUNT>  (1) 
0

>  <PUBCHEM_ISOTOPIC_ATOM_COUNT>  (1) 
0

>  <PUBCHEM_COMPONENT_COUNT>  (1) 
1

>  <PUBCHEM_CACTVS_TAUTO_COUNT>  (1) 
11

>  <PUBCHEM_CONFORMER_ID>  (1) 
00006BAD00000001

>  <PUBCHEM_MMFF94_ENERGY>  (1) 
38.039

>  <PUBCHEM_FEATURE_SELFOVERLAP>  (1) 
25.378

>  <PUBCHEM_SHAPE_FINGERPRINT>  (1) 
10857977 72 18338508733292440178
12423570 1 18059583558380253582
12524768 44 18124881153140848887
16945 1 18410860970602864143
18185500 45 17474951403178409830
20871998 184 18272369806025547910
21040471 1 18266745679479571636
23235685 24 18339917104598044744
23552423 10 18260270784336669966
241688 4 18335699468098480224
2748010 2 18339928103977648054
5084963 1 18201726205458032690
66348 1 18410854334862561062

>  <PUBCHEM_SHAPE_MULTIPOLES>  (1) 
189.08
3.31
1.85
0.63
0.48
0.04
-0.02
-0.06
0.53
-0.47
-0.12
0.05
0
-0.01

>  <PUBCHEM_SHAPE_SELFOVERLAP>  (1) 
391.785

>  <PUBCHEM_SHAPE_VOLUME>  (1) 
105.8

>  <PUBCHEM_COORDINATE_TYPE>  (1) 
2
5
10

$$$$
