27566
     RDKit          3D

 19 21  0  0  0  0  0  0  0  0999 V2000
    0.8928   -1.0313    0.0734 O   0  0  0  0  0  0  0  0  0  0  0  0
   -4.9139   -0.0732   -0.0156 N   0  0  0  0  0  0  0  0  0  0  0  0
    0.8313    1.2554   -0.0910 N   0  0  0  0  0  0  0  0  0  0  0  0
   -2.9881    1.3654   -0.1029 C   0  0  0  0  0  0  0  0  0  0  0  0
   -3.5353   -0.0436   -0.0110 C   0  0  0  0  0  0  0  0  0  0  0  0
   -0.4644    0.8264   -0.0617 C   0  0  0  0  0  0  0  0  0  0  0  0
   -1.5176    1.6456   -0.1208 C   0  0  0  0  0  0  0  0  0  0  0  0
   -0.4279   -0.5966    0.0391 C   0  0  0  0  0  0  0  0  0  0  0  0
   -2.8522   -1.2009    0.0706 C   0  0  0  0  0  0  0  0  0  0  0  0
   -1.4383   -1.4662    0.0962 C   0  0  0  0  0  0  0  0  0  0  0  0
    1.5294    0.1685   -0.0123 C   0  0  0  0  0  0  0  0  0  0  0  0
    2.9689    0.0451   -0.0012 C   0  0  0  0  0  0  0  0  0  0  0  0
   -5.6406   -0.7821   -1.0507 C   0  0  0  0  0  0  0  0  0  0  0  0
   -5.6740    0.3824    1.1319 C   0  0  0  0  0  0  0  0  0  0  0  0
    3.5695   -1.2158    0.0908 C   0  0  0  0  0  0  0  0  0  0  0  0
    3.7768    1.1850   -0.0829 C   0  0  0  0  0  0  0  0  0  0  0  0
    4.9592   -1.3351    0.1012 C   0  0  0  0  0  0  0  0  0  0  0  0
    5.1666    1.0656   -0.0726 C   0  0  0  0  0  0  0  0  0  0  0  0
    5.7577   -0.1945    0.0195 C   0  0  0  0  0  0  0  0  0  0  0  0
  1  8  1  0
  1 11  1  0
  2  5  1  0
  2 13  1  0
  2 14  1  0
  3  6  1  0
  3 11  2  0
  4  5  1  0
  4  7  1  0
  5  9  2  0
  6  7  2  0
  6  8  1  0
  8 10  2  0
  9 10  1  0
 11 12  1  0
 12 15  2  0
 12 16  1  0
 15 17  1  0
 16 18  2  0
 17 19  2  0
 18 19  1  0
M  END
>  <PUBCHEM_COMPOUND_CID>  (1) 
27566

>  <PUBCHEM_CONFORMER_RMSD>  (1) 
0.6

>  <PUBCHEM_CONFORMER_DIVERSEORDER>  (1) 
1

>  <PUBCHEM_MMFF94_PARTIAL_CHARGES>  (1) 
27
1 -0.23
10 -0.15
11 0.51
12 0.09
13 0.37
14 0.37
15 -0.15
16 -0.15
17 -0.15
18 -0.15
19 -0.15
2 -0.84
22 0.15
23 0.15
24 0.15
3 -0.62
31 0.15
32 0.15
33 0.15
34 0.15
35 0.15
4 0.28
5 -0.04
6 0.17
7 -0.29
8 0.08
9 -0.15

>  <PUBCHEM_EFFECTIVE_ROTOR_COUNT>  (1) 
2.2

>  <PUBCHEM_PHARMACOPHORE_FEATURES>  (1) 
4
1 2 cation
5 1 3 6 8 11 rings
6 12 15 16 17 18 19 rings
7 4 5 6 7 8 9 10 rings

>  <PUBCHEM_HEAVY_ATOM_COUNT>  (1) 
19

>  <PUBCHEM_ATOM_DEF_STEREO_COUNT>  (1) 
0

>  <PUBCHEM_ATOM_UDEF_STEREO_COUNT>  (1) 
0

>  <PUBCHEM_BOND_DEF_STEREO_COUNT>  (1) 
0

>  <PUBCHEM_BOND_UDEF_STEREO_COUNT>  (1) 
0

>  <PUBCHEM_ISOTOPIC_ATOM_COUNT>  (1) 
0

>  <PUBCHEM_COMPONENT_COUNT>  (1) 
1

>  <PUBCHEM_CACTVS_TAUTO_COUNT>  (1) 
1

>  <PUBCHEM_CONFORMER_ID>  (1) 
00006BAE00000001

>  <PUBCHEM_MMFF94_ENERGY>  (1) 
65.3657

>  <PUBCHEM_FEATURE_SELFOVERLAP>  (1) 
20.335

>  <PUBCHEM_SHAPE_FINGERPRINT>  (1) 
10906281 52 18268450029876754871
10968037 39 18335422386989162959
12107183 9 17689716355416375194
12236239 1 18060138743048257531
12390115 104 18057057825964204585
12403259 415 18411409601304794744
12516196 113 18060415833058706968
12916748 109 18186805764039150464
13288520 33 18413107251694868925
13533116 47 18412825751349593026
13760787 5 18334859437325911525
13862211 1 18409725158091129687
1420 363 18040159508680593961
14251764 18 18343021116027710554
15042514 8 18263931097839182091
15196674 1 18409729525882874733
17834072 33 18272366498905900630
1813 80 16805609148868873518
19141452 34 18343021124707634383
19489759 90 15647050448046393125
200 152 17988922271078936465
20645477 70 18341895148135049646
21236236 1 18339642244467328713
21267235 1 18336835212634757010
23402539 116 18273491269779760917
23522609 53 18127720242467283153
23536379 177 17418377982407771259
23559900 14 18338795732051007952
29717793 49 17775012280401924014
3004659 81 18334013866172384694
335352 9 18410012147642071663
34797466 226 16558475300185354176
350125 39 18410013221337091596
3545911 37 18409168814340553220
4073 2 17968663825863199330
4214541 1 18409729526220582276
4340502 62 16370725928657441378
4463277 17 18409730651554709377
474 4 17241054331223592284
474229 33 18411136939632292727
5104073 3 18338797917783044010
5374978 207 18410288117098475704
542803 24 17561366179449239656
59755656 215 18336268955720496606
69090 78 18413668015288578830
7495541 125 17560794476526529656
77779 3 18409449181115390212
9709674 26 18410862040641136206

>  <PUBCHEM_SHAPE_MULTIPOLES>  (1) 
375.18
13.78
1.58
0.74
0.01
0.08
-0.02
-1.09
-0.18
-0.28
0.04
0.73
-0.02
-0.44

>  <PUBCHEM_SHAPE_SELFOVERLAP>  (1) 
817.683

>  <PUBCHEM_SHAPE_VOLUME>  (1) 
204.1

>  <PUBCHEM_COORDINATE_TYPE>  (1) 
2
5
10

$$$$
