27570
     RDKit          3D

 13 14  0  0  0  0  0  0  0  0999 V2000
    3.4545    1.7556    0.3426 O   0  0  0  0  0  0  0  0  0  0  0  0
    0.4002   -0.2309   -0.0413 N   0  0  0  0  0  0  0  0  0  0  0  0
   -0.9904   -0.0595   -0.0150 C   0  0  0  0  0  0  0  0  0  0  0  0
    1.2596    0.8422    0.1629 C   0  0  0  0  0  0  0  0  0  0  0  0
    0.9650   -1.4796   -0.2725 C   0  0  0  0  0  0  0  0  0  0  0  0
   -1.8142   -1.1056    0.4005 C   0  0  0  0  0  0  0  0  0  0  0  0
   -1.5508    1.1569   -0.4048 C   0  0  0  0  0  0  0  0  0  0  0  0
    2.6416    0.6851    0.1392 C   0  0  0  0  0  0  0  0  0  0  0  0
    2.3435   -1.6631   -0.3011 C   0  0  0  0  0  0  0  0  0  0  0  0
    3.1832   -0.5742   -0.0940 C   0  0  0  0  0  0  0  0  0  0  0  0
   -3.1985   -0.9353    0.4262 C   0  0  0  0  0  0  0  0  0  0  0  0
   -2.9349    1.3273   -0.3790 C   0  0  0  0  0  0  0  0  0  0  0  0
   -3.7587    0.2811    0.0365 C   0  0  0  0  0  0  0  0  0  0  0  0
  1  8  1  0
  2  3  1  0
  2  4  2  0
  2  5  1  0
  3  6  2  0
  3  7  1  0
  4  8  1  0
  5  9  2  0
  6 11  1  0
  7 12  2  0
  8 10  2  0
  9 10  1  0
 11 13  2  0
 12 13  1  0
M  CHG  1   2   1
M  END
>  <PUBCHEM_COMPOUND_CID>  (1) 
27570

>  <PUBCHEM_CONFORMER_RMSD>  (1) 
0.4

>  <PUBCHEM_CONFORMER_DIVERSEORDER>  (1) 
2
1
3

>  <PUBCHEM_MMFF94_PARTIAL_CHARGES>  (1) 
23
1 -0.53
10 -0.15
11 -0.15
12 -0.15
13 -0.15
14 0.15
15 0.15
16 0.15
17 0.15
18 0.15
19 0.15
2 -0.08
20 0.15
21 0.15
22 0.15
23 0.45
3 0.36
4 0.21
5 0.21
6 -0.15
7 -0.15
8 0.08
9 -0.15

>  <PUBCHEM_EFFECTIVE_ROTOR_COUNT>  (1) 
1

>  <PUBCHEM_PHARMACOPHORE_FEATURES>  (1) 
3
1 1 donor
6 2 4 5 8 9 10 rings
6 3 6 7 11 12 13 rings

>  <PUBCHEM_HEAVY_ATOM_COUNT>  (1) 
13

>  <PUBCHEM_ATOM_DEF_STEREO_COUNT>  (1) 
0

>  <PUBCHEM_ATOM_UDEF_STEREO_COUNT>  (1) 
0

>  <PUBCHEM_BOND_DEF_STEREO_COUNT>  (1) 
0

>  <PUBCHEM_BOND_UDEF_STEREO_COUNT>  (1) 
0

>  <PUBCHEM_ISOTOPIC_ATOM_COUNT>  (1) 
0

>  <PUBCHEM_COMPONENT_COUNT>  (1) 
1

>  <PUBCHEM_CACTVS_TAUTO_COUNT>  (1) 
3

>  <PUBCHEM_CONFORMER_ID>  (1) 
00006BB200000002

>  <PUBCHEM_MMFF94_ENERGY>  (1) 
52.7702

>  <PUBCHEM_FEATURE_SELFOVERLAP>  (1) 
15.223

>  <PUBCHEM_SHAPE_FINGERPRINT>  (1) 
10608611 8 18409445856283539805
107287 299 18130793377524055518
11132069 177 18260544558606116213
11471102 20 18342173345397143772
12932764 1 18411708676935755895
13296908 3 18335424556058592515
13380535 76 18409726278882493131
14144814 61 18409449159171055497
14325111 11 18410292510238154445
14415576 193 18409733971522224884
15219456 202 18410293601106983177
15442244 35 18052540967413386954
15775835 57 18059294369647157774
16945 1 18263931101521699895
17844478 74 18334022687497023697
18175812 5 18408887330061803711
18186145 218 18342182111409512105
19973954 147 18338800017890195036
200 152 17917421013256490615
20201158 50 18339924814085453067
20279233 1 18407760330796320323
20510252 161 18410576167638766905
20528008 55 18408601457455202687
20645477 56 18115025204409452493
20645477 70 18272649000401219239
21501502 16 18411134723392023755
21730867 7 18412266133847311238
23402539 116 18187917443673539231
23402655 69 18271237223513726069
23559900 14 18266735797145166242
2748010 2 18409168792116624175
3248919 1 17060625464493727551
5104073 3 18409450271688898785
57812782 119 18408601439916682767
581208 293 18342170094207179414
6333449 129 18335138670424632591
69090 78 18412258424745265279
7364860 26 18342458097840330006
8809292 202 18261119542868146499
9709674 26 18410298003654839567

>  <PUBCHEM_SHAPE_MULTIPOLES>  (1) 
256.68
6.49
1.72
0.68
0.71
0.02
0.01
0.88
-0.27
-0.64
0.02
0.07
-0.01
0.65

>  <PUBCHEM_SHAPE_SELFOVERLAP>  (1) 
554.176

>  <PUBCHEM_SHAPE_VOLUME>  (1) 
140.8

>  <PUBCHEM_COORDINATE_TYPE>  (1) 
2
5
10

$$$$
