27575
     RDKit          3D

 13 13  0  0  0  0  0  0  0  0999 V2000
   -1.2327   -2.5195   -0.0934 Cl  0  0  0  0  0  0  0  0  0  0  0  0
   -2.9091    0.0241    1.6806 Cl  0  0  0  0  0  0  0  0  0  0  0  0
    2.8683    2.1878    0.0276 Cl  0  0  0  0  0  0  0  0  0  0  0  0
    3.8572   -0.8925    0.1057 Cl  0  0  0  0  0  0  0  0  0  0  0  0
   -2.2372    0.5542   -0.1773 S   0  0  0  0  0  0  0  0  0  0  0  0
   -2.8995   -0.3284   -1.1161 O   0  0  0  0  0  0  0  0  0  0  0  0
   -2.3780    1.9952   -0.2351 O   0  0  0  0  0  0  0  0  0  0  0  0
   -0.5402    0.1239   -0.0949 C   0  0  0  0  0  0  0  0  0  0  0  0
   -0.1143   -1.2039   -0.0596 C   0  0  0  0  0  0  0  0  0  0  0  0
    0.3958    1.1576   -0.0672 C   0  0  0  0  0  0  0  0  0  0  0  0
    1.7579    0.8635   -0.0044 C   0  0  0  0  0  0  0  0  0  0  0  0
    1.2478   -1.4979    0.0033 C   0  0  0  0  0  0  0  0  0  0  0  0
    2.1839   -0.4642    0.0309 C   0  0  0  0  0  0  0  0  0  0  0  0
  1  9  1  0
  2  5  1  0
  3 11  1  0
  4 13  1  0
  5  6  2  0
  5  7  2  0
  5  8  1  0
  8  9  2  0
  8 10  1  0
  9 12  1  0
 10 11  2  0
 11 13  1  0
 12 13  2  0
M  END
>  <PUBCHEM_COMPOUND_CID>  (1) 
27575

>  <PUBCHEM_CONFORMER_RMSD>  (1) 
0.4

>  <PUBCHEM_CONFORMER_DIVERSEORDER>  (1) 
1
3
2
4

>  <PUBCHEM_MMFF94_PARTIAL_CHARGES>  (1) 
15
1 -0.18
10 -0.15
11 0.18
12 -0.15
13 0.18
14 0.15
15 0.15
2 -0.19
3 -0.18
4 -0.18
5 1.49
6 -0.65
7 -0.65
8 -0.01
9 0.18

>  <PUBCHEM_EFFECTIVE_ROTOR_COUNT>  (1) 
1

>  <PUBCHEM_PHARMACOPHORE_FEATURES>  (1) 
1
6 8 9 10 11 12 13 rings

>  <PUBCHEM_HEAVY_ATOM_COUNT>  (1) 
13

>  <PUBCHEM_ATOM_DEF_STEREO_COUNT>  (1) 
0

>  <PUBCHEM_ATOM_UDEF_STEREO_COUNT>  (1) 
0

>  <PUBCHEM_BOND_DEF_STEREO_COUNT>  (1) 
0

>  <PUBCHEM_BOND_UDEF_STEREO_COUNT>  (1) 
0

>  <PUBCHEM_ISOTOPIC_ATOM_COUNT>  (1) 
0

>  <PUBCHEM_COMPONENT_COUNT>  (1) 
1

>  <PUBCHEM_CACTVS_TAUTO_COUNT>  (1) 
1

>  <PUBCHEM_CONFORMER_ID>  (1) 
00006BB700000001

>  <PUBCHEM_MMFF94_ENERGY>  (1) 
21.1113

>  <PUBCHEM_FEATURE_SELFOVERLAP>  (1) 
5.074

>  <PUBCHEM_SHAPE_FINGERPRINT>  (1) 
11471102 22 18262818275632339827
12423570 1 9467680939477200889
12491281 212 17203337705723258115
12932764 1 18260554458574090850
13140716 1 18338801220903037978
13380535 21 18266752457307145300
13380535 76 18267011929208505660
14325111 11 18410852170262659244
14897335 6 18267575978673782140
14993402 34 18338228267859981798
15309172 13 18339931428493279683
15775835 57 18272938249495510545
16945 1 18410857637914178598
17844478 74 18041575688452884281
18186145 218 18202290199378696124
193761 8 18266175222292568990
20510252 161 17549543358950380136
20715346 28 17895194436676363521
21501502 16 18268431411499598646
2334 1 18194400232791997742
23402655 69 18051957135936303533
23559900 14 18342740673109435894
2748010 2 18266179620318033158
3248919 1 17704077308540956550
5084963 1 18131059425020345939
528886 8 18266731385828280609
63268167 104 18342172284492859369
74978 22 18410008858034823598
81228 2 17905047306433647970

>  <PUBCHEM_SHAPE_MULTIPOLES>  (1) 
267.12
5.39
2.34
0.93
1.51
0.19
-0.26
-0.81
-0.59
0.33
0.15
-0.87
-0.02
-0.05

>  <PUBCHEM_SHAPE_SELFOVERLAP>  (1) 
510.192

>  <PUBCHEM_SHAPE_VOLUME>  (1) 
167.8

>  <PUBCHEM_COORDINATE_TYPE>  (1) 
2
5
10

$$$$
