27590
     RDKit          3D

 24 27  0  0  1  0  0  0  0  0999 V2000
    2.1167    2.1540    0.4726 O   0  0  0  0  0  0  0  0  0  0  0  0
   -2.4579   -2.8086    0.4472 O   0  0  0  0  0  0  0  0  0  0  0  0
   -1.3663    2.4398   -0.2703 O   0  0  0  0  0  0  0  0  0  0  0  0
   -3.9169    1.7496    0.2727 O   0  0  0  0  0  0  0  0  0  0  0  0
    3.0721    3.8413   -0.7684 O   0  0  0  0  0  0  0  0  0  0  0  0
    3.1192   -2.4866    0.4976 N   0  0  0  0  0  0  0  0  0  0  0  0
    0.2729   -1.7964   -0.1573 N   0  0  0  0  0  0  0  0  0  0  0  0
    3.2901    3.7609    1.5193 N   0  0  0  0  0  0  0  0  0  0  0  0
    2.1838   -3.1317   -0.4103 C   0  0  0  0  0  0  0  0  0  0  0  0
    2.6163   -1.6688   -0.5945 C   0  0  0  0  0  0  0  0  0  0  0  0
    0.6922   -3.1865   -0.0941 C   0  0  0  0  0  0  0  0  0  0  0  0
    1.2937   -0.9343   -0.4265 C   0  0  0  0  0  0  0  0  0  0  0  0
    0.8224    0.3423   -0.4656 C   0  0  0  0  0  0  0  0  0  0  0  0
    4.4808   -2.9171    0.2277 C   0  0  0  0  0  0  0  0  0  0  0  0
   -0.8864   -1.1203   -0.0115 C   0  0  0  0  0  0  0  0  0  0  0  0
   -0.5811    0.2224   -0.1988 C   0  0  0  0  0  0  0  0  0  0  0  0
    1.5939    1.5704   -0.7253 C   0  0  0  0  0  0  0  0  0  0  0  0
   -2.1998   -1.6210    0.2779 C   0  0  0  0  0  0  0  0  0  0  0  0
   -1.5954    1.2463   -0.1144 C   0  0  0  0  0  0  0  0  0  0  0  0
   -3.2747   -0.5676    0.3693 C   0  0  0  0  0  0  0  0  0  0  0  0
   -2.9777    0.7369    0.1867 C   0  0  0  0  0  0  0  0  0  0  0  0
   -4.6461   -1.1226    0.6509 C   0  0  0  0  0  0  0  0  0  0  0  0
    2.8436    3.2968    0.3067 C   0  0  0  0  0  0  0  0  0  0  0  0
   -4.4953    2.0008   -0.9916 C   0  0  0  0  0  0  0  0  0  0  0  0
  1 17  1  0
  1 23  1  0
  2 18  2  0
  3 19  2  0
  4 21  1  0
  4 24  1  0
  5 23  2  0
  6  9  1  0
  6 10  1  0
  6 14  1  0
  7 11  1  0
  7 12  1  0
  7 15  1  0
  8 23  1  0
  9 10  1  0
  9 11  1  0
 10 12  1  0
 12 13  2  0
 13 16  1  0
 13 17  1  0
 15 16  2  0
 15 18  1  0
 16 19  1  0
 18 20  1  0
 19 21  1  0
 20 21  2  0
 20 22  1  0
M  END
>  <PUBCHEM_COMPOUND_CID>  (1) 
27590

>  <PUBCHEM_CONFORMER_RMSD>  (1) 
0.8

>  <PUBCHEM_CONFORMER_DIVERSEORDER>  (1) 
2
18
19
16
13
20
4
9
11
17
14
7
6
15
5
12
1
8
3
10

>  <PUBCHEM_MMFF94_PARTIAL_CHARGES>  (1) 
28
1 -0.43
10 0.14
11 0.35
12 -0.24
13 -0.18
14 0.27
15 -0.24
16 -0.09
17 0.46
18 0.64
19 0.64
2 -0.57
20 -0.12
21 0.09
22 0.14
23 0.78
24 0.28
25 0.1
26 0.1
3 -0.57
4 -0.36
40 0.37
41 0.37
5 -0.57
6 -0.59
7 0.05
8 -0.8
9 -0.04

>  <PUBCHEM_EFFECTIVE_ROTOR_COUNT>  (1) 
4.4

>  <PUBCHEM_PHARMACOPHORE_FEATURES>  (1) 
10
1 2 acceptor
1 3 acceptor
1 4 acceptor
1 5 acceptor
1 6 cation
1 7 cation
1 8 donor
5 7 12 13 15 16 rings
6 15 16 18 19 20 21 rings
6 6 7 9 10 11 12 rings

>  <PUBCHEM_HEAVY_ATOM_COUNT>  (1) 
24

>  <PUBCHEM_ATOM_DEF_STEREO_COUNT>  (1) 
0

>  <PUBCHEM_ATOM_UDEF_STEREO_COUNT>  (1) 
2

>  <PUBCHEM_BOND_DEF_STEREO_COUNT>  (1) 
0

>  <PUBCHEM_BOND_UDEF_STEREO_COUNT>  (1) 
0

>  <PUBCHEM_ISOTOPIC_ATOM_COUNT>  (1) 
0

>  <PUBCHEM_COMPONENT_COUNT>  (1) 
1

>  <PUBCHEM_CACTVS_TAUTO_COUNT>  (1) 
6

>  <PUBCHEM_CONFORMER_ID>  (1) 
00006BC600000002

>  <PUBCHEM_MMFF94_ENERGY>  (1) 
68.0149

>  <PUBCHEM_FEATURE_SELFOVERLAP>  (1) 
50.935

>  <PUBCHEM_SHAPE_FINGERPRINT>  (1) 
10319926 262 17192900287641614544
10967382 1 18337680818427863295
1100329 8 18265901254871089209
11578080 2 17241310396624913766
11680986 33 18409446964464015557
12173636 292 17835796778893640916
12403259 226 18262801740055800671
12553582 1 17980218403847407535
12788726 201 17613723618011437466
12839892 36 18049715527398834352
13140716 1 18409739460606577739
13540713 4 18259985972998662213
138480 1 18338802208513413604
14223421 5 18336551615733075635
14466204 15 17761214311000515465
14790565 3 16970275038081499620
14955137 171 17907329592157341419
15196674 1 18263370204700250887
15230672 131 18265052630571666076
15927050 60 18125443257655717030
16945 1 18266469715236311951
17980427 23 17630324134408335217
18785283 64 18408892832010030672
19591789 44 18194971966032576348
20028762 73 16758896714832940894
20510252 161 17474667257101423018
20600515 1 17905620908142944308
21029758 11 18050844412434664933
21033648 29 17414972683201403083
21267235 1 18047767996033226047
22182313 1 18186237342988614205
2334 1 18265905833238012199
23366157 5 18187086186922914446
23402539 116 18122616163757248703
23419403 2 18041819775739680118
23559900 14 18339917121788177809
2748010 2 18264784305639389095
283562 15 17837493320966076049
3091708 16 9072441522039017226
3178227 256 17904780881924806153
335352 9 18191872210767795287
34934 24 18046907070118220215
350125 39 18337401529309639156
352729 6 17471583594709542495
43471831 8 18121781896260727878
469060 322 17543652167227685755
5104073 3 18335710381837304731
58807428 26 18051130590601037944
5939293 188 18267022765126559694
7364860 26 18411986870731395726
7808743 9 17402053791264618192
81228 2 17407413442165604842
84936 182 18272094932440269768
9709674 26 18408606967951439195
9981440 41 18122055665802450577

>  <PUBCHEM_SHAPE_MULTIPOLES>  (1) 
449.62
7.8
5.18
0.86
3.74
3.65
-0.05
-0.35
-0.65
-6.15
-0.68
-0.12
0.43
1.21

>  <PUBCHEM_SHAPE_SELFOVERLAP>  (1) 
987.611

>  <PUBCHEM_SHAPE_VOLUME>  (1) 
247.4

>  <PUBCHEM_COORDINATE_TYPE>  (1) 
2
5
10

$$$$
