27606
     RDKit          3D

 24 27  0  0  0  0  0  0  0  0999 V2000
   -6.3171    2.1472   -0.1848 Cl  0  0  0  0  0  0  0  0  0  0  0  0
   -1.7391   -2.5533    0.7808 O   0  0  0  0  0  0  0  0  0  0  0  0
   -0.2455   -1.0914   -0.0881 N   0  0  0  0  0  0  0  0  0  0  0  0
    2.0752    3.2502   -0.0293 N   0  0  0  0  0  0  0  0  0  0  0  0
    3.9809    2.0392    0.1414 N   0  0  0  0  0  0  0  0  0  0  0  0
    2.9590    3.7435    0.8497 N   0  0  0  0  0  0  0  0  0  0  0  0
    4.1027    3.0578    0.9837 N   0  0  0  0  0  0  0  0  0  0  0  0
    1.9856   -1.1212   -0.4524 C   0  0  0  0  0  0  0  0  0  0  0  0
    1.4737    0.1298   -0.8689 C   0  0  0  0  0  0  0  0  0  0  0  0
    0.9082   -1.8734    0.0357 C   0  0  0  0  0  0  0  0  0  0  0  0
    0.1221    0.1250   -0.6318 C   0  0  0  0  0  0  0  0  0  0  0  0
    2.2427    1.2486   -1.4507 C   0  0  0  0  0  0  0  0  0  0  0  0
    3.2814   -1.6786   -0.4479 C   0  0  0  0  0  0  0  0  0  0  0  0
    1.1061   -3.1812    0.5190 C   0  0  0  0  0  0  0  0  0  0  0  0
   -1.5577   -1.4398    0.2994 C   0  0  0  0  0  0  0  0  0  0  0  0
    3.4748   -2.9732    0.0378 C   0  0  0  0  0  0  0  0  0  0  0  0
    2.3998   -3.7131    0.5132 C   0  0  0  0  0  0  0  0  0  0  0  0
   -2.7321   -0.5542    0.1804 C   0  0  0  0  0  0  0  0  0  0  0  0
    2.7765    2.2125   -0.4156 C   0  0  0  0  0  0  0  0  0  0  0  0
   -3.4939   -0.5713   -0.9838 C   0  0  0  0  0  0  0  0  0  0  0  0
   -3.0700    0.2908    1.2330 C   0  0  0  0  0  0  0  0  0  0  0  0
   -4.6046    0.2648   -1.0965 C   0  0  0  0  0  0  0  0  0  0  0  0
   -4.1807    1.1270    1.1201 C   0  0  0  0  0  0  0  0  0  0  0  0
   -4.9480    1.1141   -0.0446 C   0  0  0  0  0  0  0  0  0  0  0  0
  1 24  1  0
  2 15  2  0
  3 10  1  0
  3 11  1  0
  3 15  1  0
  4  6  1  0
  4 19  2  0
  5  7  2  0
  5 19  1  0
  6  7  1  0
  8  9  1  0
  8 10  2  0
  8 13  1  0
  9 11  2  0
  9 12  1  0
 10 14  1  0
 12 19  1  0
 13 16  2  0
 14 17  2  0
 15 18  1  0
 16 17  1  0
 18 20  2  0
 18 21  1  0
 20 22  1  0
 21 23  2  0
 22 24  2  0
 23 24  1  0
M  END
>  <PUBCHEM_COMPOUND_CID>  (1) 
27606

>  <PUBCHEM_CONFORMER_RMSD>  (1) 
0.8

>  <PUBCHEM_CONFORMER_DIVERSEORDER>  (1) 
1
28
13
11
2
17
6
19
10
20
5
18
23
8
24
25
3
15
12
4
27
16
9
26
14
22
21
7

>  <PUBCHEM_MMFF94_PARTIAL_CHARGES>  (1) 
33
1 -0.18
10 -0.15
11 -0.3
12 0.36
13 -0.15
14 -0.15
15 0.49
16 -0.15
17 -0.15
18 0.09
19 0.34
2 -0.57
20 -0.15
21 -0.15
22 -0.15
23 -0.15
24 0.18
25 0.15
28 0.15
29 0.15
3 0.29
30 0.15
31 0.15
32 0.15
33 0.15
34 0.15
35 0.15
36 0.27
4 -0.71
5 -0.23
6 0.57
7 -0.42
9 -0.18

>  <PUBCHEM_EFFECTIVE_ROTOR_COUNT>  (1) 
4

>  <PUBCHEM_PHARMACOPHORE_FEATURES>  (1) 
6
1 2 acceptor
3 4 5 19 cation
5 3 8 9 10 11 rings
5 4 5 6 7 19 rings
6 18 20 21 22 23 24 rings
6 8 10 13 14 16 17 rings

>  <PUBCHEM_HEAVY_ATOM_COUNT>  (1) 
24

>  <PUBCHEM_ATOM_DEF_STEREO_COUNT>  (1) 
0

>  <PUBCHEM_ATOM_UDEF_STEREO_COUNT>  (1) 
0

>  <PUBCHEM_BOND_DEF_STEREO_COUNT>  (1) 
0

>  <PUBCHEM_BOND_UDEF_STEREO_COUNT>  (1) 
0

>  <PUBCHEM_ISOTOPIC_ATOM_COUNT>  (1) 
0

>  <PUBCHEM_COMPONENT_COUNT>  (1) 
1

>  <PUBCHEM_CACTVS_TAUTO_COUNT>  (1) 
2

>  <PUBCHEM_CONFORMER_ID>  (1) 
00006BD600000001

>  <PUBCHEM_MMFF94_ENERGY>  (1) 
53.3719

>  <PUBCHEM_FEATURE_SELFOVERLAP>  (1) 
30.536

>  <PUBCHEM_SHAPE_FINGERPRINT>  (1) 
11370993 70 18194680595145403416
11456790 92 17608097464551985009
11582403 64 17630319972938187220
11725454 13 17271451515304507412
12166972 35 18128250078712514291
12236239 1 18128250079002989047
12549972 3 17823155478881153627
12769317 202 18343015635686838464
12788726 201 17686064894739824042
12930653 34 18192155021178959467
13134695 92 18264768749014914806
13140716 1 18334579074566869666
13590594 115 18122632647630454664
13878862 14 18188757346172096277
13965767 371 18041549330022564212
14178342 30 17971763412938622343
14466204 15 18268140036750482248
14739800 52 17846203479940170249
14790565 3 17973456674268850844
14848178 96 18339646744912651021
15295992 7 18188503376123367315
15420108 30 18268695264573971782
17980427 23 17916020157595475722
17980427 26 18340756139876776286
1813 80 17982459187181430830
18335252 114 17976249142156789949
18681886 176 18271802363473765186
192875 21 18199753535922173657
20832881 197 17972039141365252483
21033648 144 18334570235977433479
21033648 29 17168422663261373093
21279426 13 18269294481478927148
21304253 13 18195802973580087506
21304303 172 17766564547502500706
21304303 282 17697856400763971910
2132832 1 17986388889183910321
21860390 5 18271533000673471574
22122407 14 18052557486823790681
22393880 68 18341905129026797927
23558518 356 17969226822539514939
23559900 14 18340483378777311418
283562 15 17762051442817741679
3091708 16 9505067444705143170
345986 75 17319003936838036186
352729 6 17252597179863605702
376196 1 17915178146859229980
474 4 18411975892578586051
495365 180 18334576841009445079
5104073 3 18333737910107285379
57124632 79 18410291436528245632
5895379 119 17201093482290295153
6328613 192 18121505911018152260
67856867 119 18341607101657506511
69474 34 18263354816217388922
7364860 26 18409450267515639734
7471813 234 18128247896346972525
79837 15 17902511820056939170
84936 182 18342460386778090232
9971528 1 18198059184056426694
9981440 41 18194394717858746659

>  <PUBCHEM_SHAPE_MULTIPOLES>  (1) 
465
10.57
4.6
1.09
15.58
1.94
0.04
5.3
-0.03
-7.7
-1.41
0.31
0.27
0.29

>  <PUBCHEM_SHAPE_SELFOVERLAP>  (1) 
1028.119

>  <PUBCHEM_SHAPE_VOLUME>  (1) 
251.7

>  <PUBCHEM_COORDINATE_TYPE>  (1) 
2
5
10

$$$$
