27621
     RDKit          3D

 11 10  0  0  0  0  0  0  0  0999 V2000
    0.9432   -0.2120    0.0002 O   0  0  0  0  0  0  0  0  0  0  0  0
   -2.6148    0.5235    0.0061 O   0  0  0  0  0  0  0  0  0  0  0  0
   -3.9387   -1.3597   -0.0098 O   0  0  0  0  0  0  0  0  0  0  0  0
   -4.8597    0.7469    0.0199 N   0  0  0  0  0  0  0  0  0  0  0  0
    3.3332   -0.3566   -0.0112 C   0  0  0  0  0  0  0  0  0  0  0  0
    4.6453    0.4227   -0.0137 C   0  0  0  0  0  0  0  0  0  0  0  0
    2.1277    0.5725   -0.0177 C   0  0  0  0  0  0  0  0  0  0  0  0
   -0.2222    0.6015   -0.0049 C   0  0  0  0  0  0  0  0  0  0  0  0
    5.8463   -0.5082    0.0365 C   0  0  0  0  0  0  0  0  0  0  0  0
   -1.4485   -0.2906   -0.0094 C   0  0  0  0  0  0  0  0  0  0  0  0
   -3.8117   -0.1400    0.0041 C   0  0  0  0  0  0  0  0  0  0  0  0
  1  7  1  0
  1  8  1  0
  2 10  1  0
  2 11  1  0
  3 11  2  0
  4 11  1  0
  5  6  1  0
  5  7  1  0
  6  9  1  0
  8 10  1  0
M  END
>  <PUBCHEM_COMPOUND_CID>  (1) 
27621

>  <PUBCHEM_CONFORMER_RMSD>  (1) 
0.8

>  <PUBCHEM_CONFORMER_DIVERSEORDER>  (1) 
2
47
75
71
34
77
29
49
24
19
22
68
44
45
1
72
85
7
31
41
6
37
4
52
87
27
59
43
23
21
74
8
82
12
81
60
40
55
46
53
66
65
42
54
9
76
11
13
35
69
70
25
36
80
18
86
20
63
48
58
3
14
38
26
57
67
64
16
78
33
83
32
10
5
61
39
28
79
51
17
62
73
15
84
30
50
56

>  <PUBCHEM_MMFF94_PARTIAL_CHARGES>  (1) 
10
1 -0.56
10 0.28
11 0.78
2 -0.43
25 0.37
26 0.37
3 -0.57
4 -0.8
7 0.28
8 0.28

>  <PUBCHEM_EFFECTIVE_ROTOR_COUNT>  (1) 
7

>  <PUBCHEM_PHARMACOPHORE_FEATURES>  (1) 
4
1 1 acceptor
1 3 acceptor
1 4 donor
1 9 hydrophobe

>  <PUBCHEM_HEAVY_ATOM_COUNT>  (1) 
11

>  <PUBCHEM_ATOM_DEF_STEREO_COUNT>  (1) 
0

>  <PUBCHEM_ATOM_UDEF_STEREO_COUNT>  (1) 
0

>  <PUBCHEM_BOND_DEF_STEREO_COUNT>  (1) 
0

>  <PUBCHEM_BOND_UDEF_STEREO_COUNT>  (1) 
0

>  <PUBCHEM_ISOTOPIC_ATOM_COUNT>  (1) 
0

>  <PUBCHEM_COMPONENT_COUNT>  (1) 
1

>  <PUBCHEM_CACTVS_TAUTO_COUNT>  (1) 
2

>  <PUBCHEM_CONFORMER_ID>  (1) 
00006BE500000002

>  <PUBCHEM_MMFF94_ENERGY>  (1) 
9.5329

>  <PUBCHEM_FEATURE_SELFOVERLAP>  (1) 
20.297

>  <PUBCHEM_SHAPE_FINGERPRINT>  (1) 
14123238 8 18411418423399027748
17834072 33 18337956791751681084
17834076 25 18410012126125017265
187816 3 15791732996833159112
20645477 70 17988366949652604398
20719005 15 18410855464992808806
20767249 13 17561361781566258828
20828058 44 18341895211873444807
22485316 2 18410572881381967726
23402539 116 18411414016435625597
42 15 18413108359833302508
42788 4 18410575089190245732
57483677 66 18408882923953157786

>  <PUBCHEM_SHAPE_MULTIPOLES>  (1) 
203.79
12.88
0.92
0.58
4.62
0.12
0
1.28
-0.11
-0.46
0
0.1
0
-0.03

>  <PUBCHEM_SHAPE_SELFOVERLAP>  (1) 
371.307

>  <PUBCHEM_SHAPE_VOLUME>  (1) 
130.1

>  <PUBCHEM_COORDINATE_TYPE>  (1) 
2
5
10

$$$$
