27626
     RDKit          3D

 15 16  0  0  0  0  0  0  0  0999 V2000
    2.3308   -2.9422   -0.3407 Cl  0  0  0  0  0  0  0  0  0  0  0  0
   -0.4564    1.1189    0.1237 N   0  0  0  0  0  0  0  0  0  0  0  0
    1.8726    1.3969    0.1337 N   0  0  0  0  0  0  0  0  0  0  0  0
    0.8965   -0.7834   -0.0929 N   0  0  0  0  0  0  0  0  0  0  0  0
    3.2829   -0.5320   -0.0860 N   0  0  0  0  0  0  0  0  0  0  0  0
    4.2084    1.6104    0.1371 N   0  0  0  0  0  0  0  0  0  0  0  0
   -1.7506    0.5604    0.0754 C   0  0  0  0  0  0  0  0  0  0  0  0
   -2.8120    1.3027   -0.4424 C   0  0  0  0  0  0  0  0  0  0  0  0
   -1.9692   -0.7344    0.5460 C   0  0  0  0  0  0  0  0  0  0  0  0
    0.8306    0.5515    0.0517 C   0  0  0  0  0  0  0  0  0  0  0  0
   -4.0920    0.7504   -0.4894 C   0  0  0  0  0  0  0  0  0  0  0  0
   -3.2493   -1.2866    0.4989 C   0  0  0  0  0  0  0  0  0  0  0  0
   -4.3106   -0.5442   -0.0188 C   0  0  0  0  0  0  0  0  0  0  0  0
    3.0656    0.7853    0.0579 C   0  0  0  0  0  0  0  0  0  0  0  0
    2.1527   -1.2539   -0.1541 C   0  0  0  0  0  0  0  0  0  0  0  0
  1 15  1  0
  2  7  1  0
  2 10  1  0
  3 10  2  0
  3 14  1  0
  4 10  1  0
  4 15  2  0
  5 14  2  0
  5 15  1  0
  6 14  1  0
  7  8  2  0
  7  9  1  0
  8 11  1  0
  9 12  2  0
 11 13  2  0
 12 13  1  0
M  END
>  <PUBCHEM_COMPOUND_CID>  (1) 
27626

>  <PUBCHEM_CONFORMER_RMSD>  (1) 
0.6

>  <PUBCHEM_CONFORMER_DIVERSEORDER>  (1) 
1
5
4
6
2
3

>  <PUBCHEM_MMFF94_PARTIAL_CHARGES>  (1) 
23
1 -0.18
10 0.72
11 -0.15
12 -0.15
13 -0.15
14 0.72
15 0.8
16 0.4
17 0.15
18 0.15
19 0.15
2 -0.6
20 0.15
21 0.15
22 0.4
23 0.4
3 -0.62
4 -0.62
5 -0.62
6 -0.9
7 0.1
8 -0.15
9 -0.15

>  <PUBCHEM_EFFECTIVE_ROTOR_COUNT>  (1) 
2

>  <PUBCHEM_PHARMACOPHORE_FEATURES>  (1) 
6
1 2 donor
1 6 donor
4 2 3 4 10 cation
4 3 5 6 14 cation
6 3 4 5 10 14 15 rings
6 7 8 9 11 12 13 rings

>  <PUBCHEM_HEAVY_ATOM_COUNT>  (1) 
15

>  <PUBCHEM_ATOM_DEF_STEREO_COUNT>  (1) 
0

>  <PUBCHEM_ATOM_UDEF_STEREO_COUNT>  (1) 
0

>  <PUBCHEM_BOND_DEF_STEREO_COUNT>  (1) 
0

>  <PUBCHEM_BOND_UDEF_STEREO_COUNT>  (1) 
0

>  <PUBCHEM_ISOTOPIC_ATOM_COUNT>  (1) 
0

>  <PUBCHEM_COMPONENT_COUNT>  (1) 
1

>  <PUBCHEM_CACTVS_TAUTO_COUNT>  (1) 
9

>  <PUBCHEM_CONFORMER_ID>  (1) 
00006BEA00000001

>  <PUBCHEM_MMFF94_ENERGY>  (1) 
49.3199

>  <PUBCHEM_FEATURE_SELFOVERLAP>  (1) 
30.489

>  <PUBCHEM_SHAPE_FINGERPRINT>  (1) 
10608611 8 18408037394884069405
10616163 171 18338519771511865199
10922523 26 18260267421762360247
11471102 20 18412824694286205284
11615757 297 17632300102810912977
13296908 3 18410294679423485735
13380535 76 18335138734548650186
14144814 61 18411702062865312289
14325111 11 18409448081097548657
14415576 193 18334298694880451724
15196674 1 18410011031256685299
15219456 202 18409167705727216429
15375358 24 18334011713628794091
15375462 6 18410856551065861372
15442244 35 18052823550370457608
15536298 74 18412545379451327586
17834074 16 18410013230174419871
18186145 218 17895194333987363223
19107657 46 18410857693775192239
200 152 18060414738200618933
20201158 50 18409731755192441043
20279233 1 18334579048738497867
20645477 56 18114179701511191957
20645477 70 18271524204358993855
20671657 53 18125164831562564790
21501502 16 18199192784591386481
221490 88 18337680732486527162
22169311 21 18335979796593001903
22485316 2 18342173375836370255
23402539 116 17676757768858649229
23402655 69 18341890779778548797
23557571 272 17676203542078849597
23559900 14 18337947888099756114
33824 294 18410855473219246826
474229 33 18266458887823764034
5104073 3 18408886217897370305
58051976 378 18410574019564145180
581208 293 18413666924482754730
69090 78 18410569592080610255
7364860 26 18341331098395505254
77779 3 18410576167416973597
81539 233 18408604786165750454
9709674 26 18335424569065125563

>  <PUBCHEM_SHAPE_MULTIPOLES>  (1) 
285.66
8.24
2.17
0.68
2.12
1.26
0
-0.51
-0.37
-1.96
-0.15
0.21
0.06
0.73

>  <PUBCHEM_SHAPE_SELFOVERLAP>  (1) 
601.748

>  <PUBCHEM_SHAPE_VOLUME>  (1) 
156.9

>  <PUBCHEM_COORDINATE_TYPE>  (1) 
2
5
10

$$$$
