27620
     RDKit          3D

 22 24  0  0  1  0  0  0  0  0999 V2000
   -7.4682    0.3992    1.2917 F   0  0  0  0  0  0  0  0  0  0  0  0
   -2.1359    0.3168   -2.0118 O   0  0  0  0  0  0  0  0  0  0  0  0
    1.8180    0.3995   -0.1905 N   0  0  0  0  0  0  0  0  0  0  0  0
    2.2374    1.6645    0.4251 C   0  0  0  0  0  0  0  0  0  0  0  0
    2.6243   -0.7153    0.3373 C   0  0  0  0  0  0  0  0  0  0  0  0
    3.6680    2.0040   -0.0059 C   0  0  0  0  0  0  0  0  0  0  0  0
    0.3954    0.1546    0.0441 C   0  0  0  0  0  0  0  0  0  0  0  0
    4.1131   -0.4680    0.2557 C   0  0  0  0  0  0  0  0  0  0  0  0
    4.6136    0.8400    0.1362 C   0  0  0  0  0  0  0  0  0  0  0  0
   -0.0451   -1.1259   -0.6681 C   0  0  0  0  0  0  0  0  0  0  0  0
   -1.5314   -1.4265   -0.4561 C   0  0  0  0  0  0  0  0  0  0  0  0
    5.0069   -1.5421    0.3636 C   0  0  0  0  0  0  0  0  0  0  0  0
    5.9977    1.0508    0.0889 C   0  0  0  0  0  0  0  0  0  0  0  0
    6.3834   -1.3211    0.3249 C   0  0  0  0  0  0  0  0  0  0  0  0
    6.8782   -0.0264    0.1855 C   0  0  0  0  0  0  0  0  0  0  0  0
   -2.4522   -0.3636   -1.0389 C   0  0  0  0  0  0  0  0  0  0  0  0
   -3.7914   -0.1600   -0.4166 C   0  0  0  0  0  0  0  0  0  0  0  0
   -4.4138   -1.2342    0.1791 C   0  0  0  0  0  0  0  0  0  0  0  0
   -4.3566    1.0950   -0.4604 C   0  0  0  0  0  0  0  0  0  0  0  0
   -5.6668   -1.0435    0.7613 C   0  0  0  0  0  0  0  0  0  0  0  0
   -5.6096    1.2858    0.1220 C   0  0  0  0  0  0  0  0  0  0  0  0
   -6.2648    0.2164    0.7330 C   0  0  0  0  0  0  0  0  0  0  0  0
  1 22  1  0
  2 16  2  0
  3  4  1  0
  3  5  1  0
  3  7  1  0
  4  6  1  0
  5  8  1  0
  6  9  1  0
  7 10  1  0
  8  9  2  0
  8 12  1  0
  9 13  1  0
 10 11  1  0
 11 16  1  0
 12 14  2  0
 13 15  2  0
 14 15  1  0
 16 17  1  0
 17 18  2  0
 17 19  1  0
 18 20  1  0
 19 21  2  0
 20 22  2  0
 21 22  1  0
M  END
>  <PUBCHEM_COMPOUND_CID>  (1) 
27620

>  <PUBCHEM_CONFORMER_RMSD>  (1) 
0.8

>  <PUBCHEM_CONFORMER_DIVERSEORDER>  (1) 
1
140
21
12
13
47
2
91
54
99
130
15
117
102
63
133
118
64
60
115
9
48
142
67
26
28
62
129
36
135
59
137
109
106
123
20
16
70
73
138
96
78
128
6
79
68
105
24
89
7
81
82
72
8
136
111
97
90
114
112
27
71
3
65
74
40
124
76
25
33
4
37
30
5
49
134
86
43
41
19
100
51
55
83
56
103
122
66
17
107
77
53
44
98
127
110
50
57
93
126
10
132
69
32
84
46
121
131
52
113
11
141
108
88
87
22
38
35
139
119
31
95
92
85
80
18
42
120
61
125
34
23
39
29
116
75
101
14
104
58
45
94

>  <PUBCHEM_MMFF94_PARTIAL_CHARGES>  (1) 
29
1 -0.19
11 0.06
12 -0.15
13 -0.15
14 -0.15
15 -0.15
16 0.42
17 0.09
18 -0.15
19 -0.15
2 -0.57
20 -0.15
21 -0.15
22 0.19
3 -0.81
35 0.15
36 0.15
37 0.15
38 0.15
39 0.15
4 0.27
40 0.15
41 0.15
42 0.15
5 0.41
6 0.14
7 0.27
8 -0.14
9 -0.14

>  <PUBCHEM_EFFECTIVE_ROTOR_COUNT>  (1) 
5.8

>  <PUBCHEM_PHARMACOPHORE_FEATURES>  (1) 
5
1 2 acceptor
1 3 cation
6 17 18 19 20 21 22 rings
6 3 4 5 6 8 9 rings
6 8 9 12 13 14 15 rings

>  <PUBCHEM_HEAVY_ATOM_COUNT>  (1) 
22

>  <PUBCHEM_ATOM_DEF_STEREO_COUNT>  (1) 
0

>  <PUBCHEM_ATOM_UDEF_STEREO_COUNT>  (1) 
0

>  <PUBCHEM_BOND_DEF_STEREO_COUNT>  (1) 
0

>  <PUBCHEM_BOND_UDEF_STEREO_COUNT>  (1) 
0

>  <PUBCHEM_ISOTOPIC_ATOM_COUNT>  (1) 
0

>  <PUBCHEM_COMPONENT_COUNT>  (1) 
1

>  <PUBCHEM_CACTVS_TAUTO_COUNT>  (1) 
2

>  <PUBCHEM_CONFORMER_ID>  (1) 
00006BE400000001

>  <PUBCHEM_MMFF94_ENERGY>  (1) 
52.0366

>  <PUBCHEM_FEATURE_SELFOVERLAP>  (1) 
25.393

>  <PUBCHEM_SHAPE_FINGERPRINT>  (1) 
10 15 18410299112309724819
10087517 78 14261360132848098467
10299344 5 18186241732038924070
11089746 13 15626216927071045563
11315181 36 11674879988016888783
11458722 120 18059853969731868436
11796584 16 16845289484471184662
12166972 35 18187087277497221172
12236239 1 18060416941281477910
12516196 113 12179843913806986807
12596602 18 18335421278998325339
12616971 3 18059849601702805364
12730499 353 17676203559844261578
13073987 5 18187639155604539392
13167372 99 18272936003006068904
13533116 47 14045475405774560740
13685833 64 18186801374825264522
13785724 45 17982736264665777870
14123256 10 11458425738898955242
1420 363 16588023515318864890
14251752 14 18059856151401220760
14251764 18 18343300392070849551
14341114 176 18260831501107810805
14849402 71 18262805197689908844
14933364 13 18408042913837566176
15142383 8 18341890762667283652
15183329 4 18272364265781441156
15301273 46 17458060448455760071
15348495 7 18261677081368146043
15352257 5 16877941616313491794
15716309 27 17312822675734321587
17844677 252 18334016094321707060
18222031 100 14562527401086898703
20281389 69 18344144799810790233
21150785 3 7853570201859680299
21267235 1 18410575042879431518
22224240 67 18259704506543691395
2297311 6 16877661244963683399
2303208 19 17386000642130184734
23035841 295 14779269713455171915
23081809 10 18059849610139577294
23536379 177 18410009931618346786
24771293 8 17985808549831242384
2838139 119 17489582351666005401
300161 21 14333410042740640199
3009799 131 13254796836816400243
4073 2 17968381264048818234
4325135 7 8430314636679132274
4938544 92 16660637398765712605
5104073 3 18267291200883156114
5385378 56 16916798331474598855
59755656 520 18335416894143365759
7226269 152 17060619992779083499
9996256 80 18411697729370255495

>  <PUBCHEM_SHAPE_MULTIPOLES>  (1) 
434.63
20.41
1.68
0.98
5.05
0.22
0.22
0.56
-5.71
-1.04
-0.08
1.16
-0.01
-0.12

>  <PUBCHEM_SHAPE_SELFOVERLAP>  (1) 
929.63

>  <PUBCHEM_SHAPE_VOLUME>  (1) 
241.4

>  <PUBCHEM_COORDINATE_TYPE>  (1) 
2
5
10

$$$$
