2762
     RDKit          3D

 19 21  0  0  0  0  0  0  0  0999 V2000
   -4.0338    0.7196    0.1179 O   0  0  0  0  0  0  0  0  0  0  0  0
   -3.7546   -1.6565   -0.1636 O   0  0  0  0  0  0  0  0  0  0  0  0
    1.3914   -2.4482   -0.1858 O   0  0  0  0  0  0  0  0  0  0  0  0
    4.1343   -0.6797   -1.2156 O   0  0  0  0  0  0  0  0  0  0  0  0
    4.3305   -1.0159    1.0380 O   0  0  0  0  0  0  0  0  0  0  0  0
    0.8121    1.4692    0.2774 N   0  0  0  0  0  0  0  0  0  0  0  0
    2.0786    0.9738    0.2351 N   0  0  0  0  0  0  0  0  0  0  0  0
   -0.3380    0.6741    0.1651 C   0  0  0  0  0  0  0  0  0  0  0  0
   -0.2158   -0.7216   -0.0009 C   0  0  0  0  0  0  0  0  0  0  0  0
   -2.7232    0.3513    0.0924 C   0  0  0  0  0  0  0  0  0  0  0  0
   -1.6411    1.2062    0.2104 C   0  0  0  0  0  0  0  0  0  0  0  0
   -2.5655   -1.0028   -0.0681 C   0  0  0  0  0  0  0  0  0  0  0  0
   -1.3176   -1.5788   -0.1196 C   0  0  0  0  0  0  0  0  0  0  0  0
    0.7104    2.9100    0.4504 C   0  0  0  0  0  0  0  0  0  0  0  0
    1.1412   -1.2632   -0.0466 C   0  0  0  0  0  0  0  0  0  0  0  0
    2.2754   -0.2962    0.0847 C   0  0  0  0  0  0  0  0  0  0  0  0
   -4.6818   -0.5586   -0.0434 C   0  0  0  0  0  0  0  0  0  0  0  0
    0.6912    3.6289   -0.8828 C   0  0  0  0  0  0  0  0  0  0  0  0
    3.7064   -0.7117    0.0550 C   0  0  0  0  0  0  0  0  0  0  0  0
  1 10  1  0
  1 17  1  0
  2 12  1  0
  2 17  1  0
  3 15  2  0
  4 19  1  0
  5 19  2  0
  6  7  1  0
  6  8  1  0
  6 14  1  0
  7 16  2  0
  8  9  2  0
  8 11  1  0
  9 13  1  0
  9 15  1  0
 10 11  2  0
 10 12  1  0
 12 13  2  0
 14 18  1  0
 15 16  1  0
 16 19  1  0
M  END
>  <PUBCHEM_COMPOUND_CID>  (1) 
2762

>  <PUBCHEM_CONFORMER_RMSD>  (1) 
0.6

>  <PUBCHEM_CONFORMER_DIVERSEORDER>  (1) 
1
2

>  <PUBCHEM_MMFF94_PARTIAL_CHARGES>  (1) 
21
1 -0.36
10 0.08
11 -0.15
12 0.08
13 -0.15
14 0.37
15 0.48
16 0.45
17 0.56
19 0.72
2 -0.36
20 0.15
21 0.15
29 0.5
3 -0.57
4 -0.65
5 -0.57
6 -0.43
7 -0.49
8 0.1
9 0.09

>  <PUBCHEM_EFFECTIVE_ROTOR_COUNT>  (1) 
2.6

>  <PUBCHEM_PHARMACOPHORE_FEATURES>  (1) 
11
1 1 acceptor
1 16 anion
1 2 acceptor
1 3 acceptor
1 4 acceptor
1 5 acceptor
1 7 acceptor
3 4 5 19 anion
5 1 2 10 12 17 rings
6 6 7 8 9 15 16 rings
6 8 9 10 11 12 13 rings

>  <PUBCHEM_HEAVY_ATOM_COUNT>  (1) 
19

>  <PUBCHEM_ATOM_DEF_STEREO_COUNT>  (1) 
0

>  <PUBCHEM_ATOM_UDEF_STEREO_COUNT>  (1) 
0

>  <PUBCHEM_BOND_DEF_STEREO_COUNT>  (1) 
0

>  <PUBCHEM_BOND_UDEF_STEREO_COUNT>  (1) 
0

>  <PUBCHEM_ISOTOPIC_ATOM_COUNT>  (1) 
0

>  <PUBCHEM_COMPONENT_COUNT>  (1) 
1

>  <PUBCHEM_CACTVS_TAUTO_COUNT>  (1) 
1

>  <PUBCHEM_CONFORMER_ID>  (1) 
00000ACA00000001

>  <PUBCHEM_MMFF94_ENERGY>  (1) 
53.5944

>  <PUBCHEM_FEATURE_SELFOVERLAP>  (1) 
56.381

>  <PUBCHEM_SHAPE_FINGERPRINT>  (1) 
10967382 1 18267583700571312681
11132069 177 18342736286808259218
11471102 20 18411694430871834103
11680986 33 18193840572424796872
12032990 46 18342461421881156030
12236239 1 17967253070924688610
12553582 1 18410013208499012963
13132413 78 18340770355791575685
13140716 1 18268429221066349555
138480 1 18410574032460044537
13862211 1 18412257324653654995
15196674 1 18412543240736780419
15375462 189 18187363186174697851
15442244 35 18412262869693551265
15536298 74 18200874083835658601
15848700 24 18343863316502295998
1601671 61 18340489958941138529
16945 1 18411702105920447683
17804303 29 18411139155951104609
18785283 64 18117851112232412601
193761 8 17762900261614870834
200 152 17989198262010365559
20645477 70 18192140710927690735
20671657 1 18267590302152629829
20905425 154 18053383202195502318
21029758 11 18341891896232662329
21029758 27 18335147487597053693
21267235 1 18341058466709127211
21421861 104 17682116573699831746
21501502 16 18125158483859097703
221490 88 18192437587293387979
2255824 54 18264490757177234836
2297311 6 18270970038362622958
2334 1 17835520797047778115
23366157 5 17970624323224208356
23402539 116 18342447115218609606
23419403 2 14752435023861783135
23463225 33 18409728460989305298
23557571 272 18127984009466976836
23558518 356 17615678970381193986
23559900 14 18339916138657463385
2748010 2 18340195384435565848
3071541 12 18194404617584673116
3071541 158 18408322206934350613
335352 9 18411981334808630389
34934 24 18339071571766732595
5104073 3 18341613767399336571
7164475 11 18117558423480967190
7364860 26 18197498630457256208
7495541 125 18041287668083340115
81228 2 18194980538655612408
8809292 202 18261677068620816387
90316 7 18190729856783277784
9709674 26 18120653784704541659
9981440 41 17328858210854174337

>  <PUBCHEM_SHAPE_MULTIPOLES>  (1) 
351.7
7.26
2.93
0.76
1.61
2.89
0.06
-3.47
0.03
-1.1
0.43
-0.47
0.11
-0.19

>  <PUBCHEM_SHAPE_SELFOVERLAP>  (1) 
777.753

>  <PUBCHEM_SHAPE_VOLUME>  (1) 
187.5

>  <PUBCHEM_COORDINATE_TYPE>  (1) 
2
5
10

$$$$
