27628
     RDKit          3D

 18 19  0  0  0  0  0  0  0  0999 V2000
   -1.7739    0.5779   -1.2706 N   0  0  0  0  0  0  0  0  0  0  0  0
    2.1237    1.0394    0.6875 N   0  0  0  0  0  0  0  0  0  0  0  0
    2.1219   -1.1652   -0.2858 N   0  0  0  0  0  0  0  0  0  0  0  0
    0.1328    0.0082    0.0435 N   0  0  0  0  0  0  0  0  0  0  0  0
    0.2873    0.9562   -2.1504 N   0  0  0  0  0  0  0  0  0  0  0  0
   -2.8506    0.1835   -0.4491 C   0  0  0  0  0  0  0  0  0  0  0  0
    3.4676    0.9590    0.7760 C   0  0  0  0  0  0  0  0  0  0  0  0
    3.4658   -1.1779   -0.1675 C   0  0  0  0  0  0  0  0  0  0  0  0
    4.1991   -0.1348    0.3603 C   0  0  0  0  0  0  0  0  0  0  0  0
    1.5319   -0.0423    0.1553 C   0  0  0  0  0  0  0  0  0  0  0  0
   -4.0716    0.8532   -0.5304 C   0  0  0  0  0  0  0  0  0  0  0  0
   -2.6944   -0.8761    0.4446 C   0  0  0  0  0  0  0  0  0  0  0  0
   -0.4059    0.4884   -1.0477 C   0  0  0  0  0  0  0  0  0  0  0  0
    4.1735    2.1349    1.3623 C   0  0  0  0  0  0  0  0  0  0  0  0
    4.1683   -2.4050   -0.6429 C   0  0  0  0  0  0  0  0  0  0  0  0
   -5.1362    0.4632    0.2822 C   0  0  0  0  0  0  0  0  0  0  0  0
   -3.7592   -1.2661    1.2570 C   0  0  0  0  0  0  0  0  0  0  0  0
   -4.9800   -0.5965    1.1758 C   0  0  0  0  0  0  0  0  0  0  0  0
  1  6  1  0
  1 13  1  0
  2  7  2  0
  2 10  1  0
  3  8  1  0
  3 10  2  0
  4 10  1  0
  4 13  2  0
  5 13  1  0
  6 11  2  0
  6 12  1  0
  7  9  1  0
  7 14  1  0
  8  9  2  0
  8 15  1  0
 11 16  1  0
 12 17  2  0
 16 18  2  0
 17 18  1  0
M  END
>  <PUBCHEM_COMPOUND_CID>  (1) 
27628

>  <PUBCHEM_CONFORMER_RMSD>  (1) 
0.6

>  <PUBCHEM_CONFORMER_DIVERSEORDER>  (1) 
1
12
15
9
5
4
6
8
7
13
10
3
14
11
2

>  <PUBCHEM_MMFF94_PARTIAL_CHARGES>  (1) 
27
1 -0.55
10 0.8
11 -0.15
12 -0.15
13 0.55
14 0.14
15 0.14
16 -0.15
17 -0.15
18 -0.15
19 0.15
2 -0.62
20 0.4
21 0.15
22 0.15
29 0.15
3 -0.62
30 0.15
31 0.15
32 0.4
33 0.4
4 -0.63
5 -0.85
6 0.1
7 0.17
8 0.17
9 -0.15

>  <PUBCHEM_EFFECTIVE_ROTOR_COUNT>  (1) 
3

>  <PUBCHEM_PHARMACOPHORE_FEATURES>  (1) 
7
1 1 donor
1 2 acceptor
1 5 donor
4 1 4 5 13 cation
4 2 3 4 10 cation
6 2 3 7 8 9 10 rings
6 6 11 12 16 17 18 rings

>  <PUBCHEM_HEAVY_ATOM_COUNT>  (1) 
18

>  <PUBCHEM_ATOM_DEF_STEREO_COUNT>  (1) 
0

>  <PUBCHEM_ATOM_UDEF_STEREO_COUNT>  (1) 
0

>  <PUBCHEM_BOND_DEF_STEREO_COUNT>  (1) 
0

>  <PUBCHEM_BOND_UDEF_STEREO_COUNT>  (1) 
1

>  <PUBCHEM_ISOTOPIC_ATOM_COUNT>  (1) 
0

>  <PUBCHEM_COMPONENT_COUNT>  (1) 
1

>  <PUBCHEM_CACTVS_TAUTO_COUNT>  (1) 
5

>  <PUBCHEM_CONFORMER_ID>  (1) 
00006BEC00000001

>  <PUBCHEM_MMFF94_ENERGY>  (1) 
61.0151

>  <PUBCHEM_FEATURE_SELFOVERLAP>  (1) 
35.617

>  <PUBCHEM_SHAPE_FINGERPRINT>  (1) 
10912923 1 17060333041919491087
11370993 144 18341615880465132193
11552529 35 17630603638248511455
12107183 9 17413041893638406955
12236239 1 16558744624868103674
12507560 40 18411699876874761989
12553582 1 16732702749002632871
12596602 18 17346318249550210635
12633257 1 17775284936999003470
12892183 10 18342461456472892673
13533116 47 18271811185652576299
13544592 145 18334581204833686234
13583140 156 17773871081315287587
13675066 3 18335421274856377333
13955234 65 18273209803625230138
14251751 18 17386838401725124898
14251752 14 13768190706880424999
14251764 38 17345204289953482561
14252887 29 18333168375404522240
14341114 176 18341619213191143777
14386348 63 18187085039813478355
14863182 85 16008738101080871762
15880784 105 18273215313809996011
17349148 13 14129329668335389912
17804303 29 17821734940276265197
17844677 252 18272656718584056785
1813 80 16805042930139469189
18222031 100 17458345260358497455
193927 3 17241626047083724603
19784866 34 17630310073292037536
20645477 70 18201993288147177262
21033648 29 18340189835475281553
21065198 57 18412263921912780171
21065199 12 18411419522821082329
21065201 7 17676482804978285411
23366157 5 15720815716701938997
23402539 116 12612742502371126783
23532345 42 17675924313148163287
23557571 272 17822004273037831396
23559900 14 18187086113734520742
239999 70 18187085057652646250
3004659 81 14273727435088686304
314173 85 17676205775809827429
351380 3 15864074269308088449
449060 50 18340483460370802592
474 4 16128382570990134589
5104073 3 18409446947268400897
5924683 9 18270397330207023463
602551 16 17530964717469933106
8272917 22 17632301142298558790
90127 26 18341330007294444517

>  <PUBCHEM_SHAPE_MULTIPOLES>  (1) 
345.53
11.64
1.75
1.36
5.02
0.31
-0.35
0.71
3.74
-2.74
0.25
0.47
-0.31
1.94

>  <PUBCHEM_SHAPE_SELFOVERLAP>  (1) 
731.932

>  <PUBCHEM_SHAPE_VOLUME>  (1) 
188.3

>  <PUBCHEM_COORDINATE_TYPE>  (1) 
2
5
10

$$$$
