27634
     RDKit          3D

 19 20  0  0  0  0  0  0  0  0999 V2000
    5.8018   -1.2596   -1.1686 F   0  0  0  0  0  0  0  0  0  0  0  0
    1.3633    1.1413    1.1169 N   0  0  0  0  0  0  0  0  0  0  0  0
   -2.4334    0.6999   -1.0348 N   0  0  0  0  0  0  0  0  0  0  0  0
   -2.4236   -1.0124    0.6609 N   0  0  0  0  0  0  0  0  0  0  0  0
   -0.4528    0.0561    0.0161 N   0  0  0  0  0  0  0  0  0  0  0  0
   -0.7525    1.7139    1.7183 N   0  0  0  0  0  0  0  0  0  0  0  0
    2.4935    0.5299    0.5354 C   0  0  0  0  0  0  0  0  0  0  0  0
   -3.7678    0.5324   -1.1436 C   0  0  0  0  0  0  0  0  0  0  0  0
   -3.7582   -1.1272    0.5001 C   0  0  0  0  0  0  0  0  0  0  0  0
   -4.4902   -0.3741   -0.3951 C   0  0  0  0  0  0  0  0  0  0  0  0
    3.6893    1.2391    0.4219 C   0  0  0  0  0  0  0  0  0  0  0  0
    2.4154   -0.7839    0.0734 C   0  0  0  0  0  0  0  0  0  0  0  0
   -1.8416   -0.0940   -0.1276 C   0  0  0  0  0  0  0  0  0  0  0  0
    0.0123    0.9167    0.8849 C   0  0  0  0  0  0  0  0  0  0  0  0
    4.8068    0.6348   -0.1538 C   0  0  0  0  0  0  0  0  0  0  0  0
    3.5330   -1.3884   -0.5020 C   0  0  0  0  0  0  0  0  0  0  0  0
   -4.4730    1.3902   -2.1397 C   0  0  0  0  0  0  0  0  0  0  0  0
   -4.4512   -2.1356    1.3531 C   0  0  0  0  0  0  0  0  0  0  0  0
    4.7287   -0.6790   -0.6158 C   0  0  0  0  0  0  0  0  0  0  0  0
  1 19  1  0
  2  7  1  0
  2 14  1  0
  3  8  2  0
  3 13  1  0
  4  9  1  0
  4 13  2  0
  5 13  1  0
  5 14  2  0
  6 14  1  0
  7 11  2  0
  7 12  1  0
  8 10  1  0
  8 17  1  0
  9 10  2  0
  9 18  1  0
 11 15  1  0
 12 16  2  0
 15 19  2  0
 16 19  1  0
M  END
>  <PUBCHEM_COMPOUND_CID>  (1) 
27634

>  <PUBCHEM_CONFORMER_RMSD>  (1) 
0.6

>  <PUBCHEM_CONFORMER_DIVERSEORDER>  (1) 
1
12
17
16
9
5
7
13
8
4
6
15
10
11
14
2
3

>  <PUBCHEM_MMFF94_PARTIAL_CHARGES>  (1) 
27
1 -0.19
10 -0.15
11 -0.15
12 -0.15
13 0.8
14 0.55
15 -0.15
16 -0.15
17 0.14
18 0.14
19 0.19
2 -0.55
20 0.15
21 0.4
22 0.15
23 0.15
24 0.15
25 0.15
3 -0.62
32 0.4
33 0.4
4 -0.62
5 -0.63
6 -0.85
7 0.1
8 0.17
9 0.17

>  <PUBCHEM_EFFECTIVE_ROTOR_COUNT>  (1) 
3

>  <PUBCHEM_PHARMACOPHORE_FEATURES>  (1) 
7
1 2 donor
1 3 acceptor
1 6 donor
4 2 5 6 14 cation
4 3 4 5 13 cation
6 3 4 8 9 10 13 rings
6 7 11 12 15 16 19 rings

>  <PUBCHEM_HEAVY_ATOM_COUNT>  (1) 
19

>  <PUBCHEM_ATOM_DEF_STEREO_COUNT>  (1) 
0

>  <PUBCHEM_ATOM_UDEF_STEREO_COUNT>  (1) 
0

>  <PUBCHEM_BOND_DEF_STEREO_COUNT>  (1) 
0

>  <PUBCHEM_BOND_UDEF_STEREO_COUNT>  (1) 
1

>  <PUBCHEM_ISOTOPIC_ATOM_COUNT>  (1) 
0

>  <PUBCHEM_COMPONENT_COUNT>  (1) 
1

>  <PUBCHEM_CACTVS_TAUTO_COUNT>  (1) 
5

>  <PUBCHEM_CONFORMER_ID>  (1) 
00006BF200000001

>  <PUBCHEM_MMFF94_ENERGY>  (1) 
61.0833

>  <PUBCHEM_FEATURE_SELFOVERLAP>  (1) 
35.617

>  <PUBCHEM_SHAPE_FINGERPRINT>  (1) 
10447042 23 18060695075195515270
10498660 4 17603574206147039949
10680689 15 17676209078549896657
10803635 8 18187642488151384674
10912923 1 15410893002557289864
11089746 13 15357701916341160444
11287383 113 18114181981853579984
11543360 7 17603589650870229544
11796584 16 18041552538875097482
12186901 62 17967807250369924423
12236239 1 16128655280102182411
12390115 104 18042396934225774613
12553582 1 17560801047995277890
12596602 18 13038901119365508718
12616971 3 16845578633799812232
12760667 363 17632017455556082686
13544653 18 17989488528278832920
13760787 5 17632577171230324924
14178342 30 13758082921823567421
14251757 5 18188204282880293565
14386348 63 18411702105656898499
14573314 32 18334570231154906133
15961568 22 17096367426881656892
16752209 62 17845643746885221344
17349148 13 15626216970448116685
17844677 252 17967535700435316204
17870717 6 18187365432985938247
1813 80 17203342133824568824
18186145 218 18333729117518043273
18222031 100 15697990855899674608
193927 3 17988938734295354102
200 152 17775565325564869416
20281475 54 17418088862252071752
20325693 3 17821727230783653559
20645477 70 18131064935532121190
20871999 31 17676486159595754243
21033650 10 16661494983000697036
21065201 7 17894903044656895113
21713013 43 18334013921189340563
2215653 11 18341322345383654933
22393880 68 18113334189637725442
22646028 1 16200428082889484644
2297311 6 17967256425257009111
23175994 123 18272088327213059145
23402539 116 17203610371838147409
23557571 272 17968093157199366933
23559900 14 18261665987705003458
2871803 45 18343021065126315474
312423 11 17916885568358444808
314173 85 16702307845105999760
314194 84 17561363980985354742
3268164 11 16950553415840999159
3286 77 14189278383618321114
32948 21 17968651619159610980
3472631 163 16660638523450778839
34797466 226 18186806923538058476
351380 3 17131836469154154462
46194498 28 18042968863932223861
465052 167 17346599719941531015
4921388 177 17748831830117662411
5104073 3 17845940624463988722
5281201 14 18261113010444370388
56616090 163 18041272150624663615
5924683 9 11599714087334092405
960060 61 18059845177886711324

>  <PUBCHEM_SHAPE_MULTIPOLES>  (1) 
358.83
12.52
1.73
1.44
5.35
0.4
-0.13
2.17
4.76
-2
0.01
-0.2
-0.48
2.5

>  <PUBCHEM_SHAPE_SELFOVERLAP>  (1) 
762.848

>  <PUBCHEM_SHAPE_VOLUME>  (1) 
199.8

>  <PUBCHEM_COORDINATE_TYPE>  (1) 
2
5
10

$$$$
