27633
     RDKit          3D

 19 20  0  0  0  0  0  0  0  0999 V2000
   -6.3789   -1.7763   -1.0193 I   0  0  0  0  0  0  0  0  0  0  0  0
    4.3998    0.8257   -2.2634 O   0  0  0  0  0  0  0  0  0  0  0  0
    2.4980   -0.8607    0.7886 N   0  0  0  0  0  0  0  0  0  0  0  0
   -1.3083    1.4006    0.8796 N   0  0  0  0  0  0  0  0  0  0  0  0
    0.4790    0.1187   -0.0120 N   0  0  0  0  0  0  0  0  0  0  0  0
    2.4138    0.4837   -1.1470 N   0  0  0  0  0  0  0  0  0  0  0  0
    0.8099    2.0778    1.3286 N   0  0  0  0  0  0  0  0  0  0  0  0
    3.8497   -1.0732    0.6760 C   0  0  0  0  0  0  0  0  0  0  0  0
   -2.4481    0.6862    0.4524 C   0  0  0  0  0  0  0  0  0  0  0  0
    1.8297   -0.0881   -0.1306 C   0  0  0  0  0  0  0  0  0  0  0  0
    0.0396    1.1344    0.6729 C   0  0  0  0  0  0  0  0  0  0  0  0
    4.5250   -0.5195   -0.3426 C   0  0  0  0  0  0  0  0  0  0  0  0
   -3.6463    1.3608    0.2204 C   0  0  0  0  0  0  0  0  0  0  0  0
   -2.3753   -0.6934    0.2637 C   0  0  0  0  0  0  0  0  0  0  0  0
    4.5105   -1.9264    1.7129 C   0  0  0  0  0  0  0  0  0  0  0  0
   -4.7732    0.6547   -0.2007 C   0  0  0  0  0  0  0  0  0  0  0  0
   -3.5021   -1.3994   -0.1576 C   0  0  0  0  0  0  0  0  0  0  0  0
    3.7781    0.3197   -1.3323 C   0  0  0  0  0  0  0  0  0  0  0  0
   -4.7010   -0.7254   -0.3896 C   0  0  0  0  0  0  0  0  0  0  0  0
  1 19  1  0
  2 18  2  0
  3  8  1  0
  3 10  1  0
  4  9  1  0
  4 11  1  0
  5 10  1  0
  5 11  2  0
  6 10  2  0
  6 18  1  0
  7 11  1  0
  8 12  2  0
  8 15  1  0
  9 13  2  0
  9 14  1  0
 12 18  1  0
 13 16  1  0
 14 17  2  0
 16 19  2  0
 17 19  1  0
M  END
>  <PUBCHEM_COMPOUND_CID>  (1) 
27633

>  <PUBCHEM_CONFORMER_RMSD>  (1) 
0.6

>  <PUBCHEM_CONFORMER_DIVERSEORDER>  (1) 
1
19
30
29
24
17
21
26
23
20
16
25
7
18
22
15
6
12
10
14
9
28
5
3
8
27
11
13
4
2

>  <PUBCHEM_MMFF94_PARTIAL_CHARGES>  (1) 
28
1 -0.08
10 0.71
11 0.55
12 -0.14
13 -0.15
14 -0.15
15 0.14
16 -0.15
17 -0.15
18 0.77
19 0.08
2 -0.57
20 0.4
21 0.4
22 0.15
23 0.15
24 0.15
28 0.15
29 0.15
3 -0.55
30 0.4
31 0.4
4 -0.55
5 -0.66
6 -0.66
7 -0.85
8 -0.04
9 0.1

>  <PUBCHEM_EFFECTIVE_ROTOR_COUNT>  (1) 
3

>  <PUBCHEM_PHARMACOPHORE_FEATURES>  (1) 
9
1 1 hydrophobe
1 2 acceptor
1 3 donor
1 4 donor
1 6 donor
1 7 donor
4 4 5 7 11 cation
6 3 6 8 10 12 18 rings
6 9 13 14 16 17 19 rings

>  <PUBCHEM_HEAVY_ATOM_COUNT>  (1) 
19

>  <PUBCHEM_ATOM_DEF_STEREO_COUNT>  (1) 
0

>  <PUBCHEM_ATOM_UDEF_STEREO_COUNT>  (1) 
0

>  <PUBCHEM_BOND_DEF_STEREO_COUNT>  (1) 
0

>  <PUBCHEM_BOND_UDEF_STEREO_COUNT>  (1) 
1

>  <PUBCHEM_ISOTOPIC_ATOM_COUNT>  (1) 
0

>  <PUBCHEM_COMPONENT_COUNT>  (1) 
1

>  <PUBCHEM_CACTVS_TAUTO_COUNT>  (1) 
15

>  <PUBCHEM_CONFORMER_ID>  (1) 
00006BF100000001

>  <PUBCHEM_MMFF94_ENERGY>  (1) 
63.9103

>  <PUBCHEM_FEATURE_SELFOVERLAP>  (1) 
45.769

>  <PUBCHEM_SHAPE_FINGERPRINT>  (1) 
10378564 45 14924208388068642194
10912923 1 18335426742117824961
11552529 35 12102687897246877133
12236239 1 18334859390276495406
12553582 1 18201733842067932937
12616971 3 18041567931557318473
12730499 353 14418131786502140265
13167823 11 18113902632495381826
13760787 5 17895199883042911745
14251752 14 18187918440485494021
14252887 29 16200431347454928744
14341114 176 13542467578819198387
14386348 63 17275387586026283127
15183329 4 17603860079655421871
15880784 105 14333404541272655941
18186145 218 14851613163046581312
18222031 100 17632300094189212789
18681886 176 18342742923329043870
193927 3 17703515488675585015
200 152 17968380061183343400
20028762 73 17274535559664220263
20369508 70 18271519887753168488
20374829 77 18272083907986675213
20403669 9 18059856203473838007
20511986 3 18188193356366687402
20612939 158 17385444315079572398
20645477 70 17988641964676488009
20871999 31 18260550039554033253
21033648 29 15553874495466370739
21065201 7 17488470671862740024
21728266 224 18339632343997564379
23402539 116 18114457869188679989
23522609 53 18194430907929116897
23557571 272 17416971621479787880
23559900 14 18270951471118905609
29717793 49 18113896035531253223
3004659 81 18261673684239262890
312425 54 15123514744139713079
314173 85 17346602958837618897
3411729 13 17773300443566151272
351380 3 18272932747916808631
4921388 177 16371018446432868067
5104073 3 17917148412083166835
5281201 14 16515684407902884598
559249 180 18264197037892497579
573450 72 18338514136477362665
59682541 52 16660633034319634595
633830 44 10231754496128146680
67856867 119 18260265274542871848
7164475 11 17969782986776443732
8863177 126 18122911099720900587
960060 61 18186521024686789413

>  <PUBCHEM_SHAPE_MULTIPOLES>  (1) 
372.17
14.04
1.88
1.42
7.52
0.08
0.45
-7.7
3.36
1.04
-0.58
-2.39
-0.08
-1.95

>  <PUBCHEM_SHAPE_SELFOVERLAP>  (1) 
767.817

>  <PUBCHEM_SHAPE_VOLUME>  (1) 
217.8

>  <PUBCHEM_COORDINATE_TYPE>  (1) 
2
5
10

$$$$
