27636
     RDKit          3D

 19 20  0  0  0  0  0  0  0  0999 V2000
    6.4006   -1.6896   -1.1056 I   0  0  0  0  0  0  0  0  0  0  0  0
    1.3024    1.3540    0.9327 N   0  0  0  0  0  0  0  0  0  0  0  0
   -2.4610    0.4953   -1.1503 N   0  0  0  0  0  0  0  0  0  0  0  0
   -2.4494   -0.9034    0.8120 N   0  0  0  0  0  0  0  0  0  0  0  0
   -0.4852    0.0698    0.0145 N   0  0  0  0  0  0  0  0  0  0  0  0
   -0.8282    1.9881    1.4068 N   0  0  0  0  0  0  0  0  0  0  0  0
    2.4478    0.6700    0.4750 C   0  0  0  0  0  0  0  0  0  0  0  0
   -3.7915    0.2914   -1.2424 C   0  0  0  0  0  0  0  0  0  0  0  0
   -3.7803   -1.0644    0.6597 C   0  0  0  0  0  0  0  0  0  0  0  0
   -4.5111   -0.4856   -0.3578 C   0  0  0  0  0  0  0  0  0  0  0  0
    3.6352    1.3679    0.2545 C   0  0  0  0  0  0  0  0  0  0  0  0
    2.3930   -0.7042    0.2421 C   0  0  0  0  0  0  0  0  0  0  0  0
   -1.8701   -0.1238   -0.1154 C   0  0  0  0  0  0  0  0  0  0  0  0
   -0.0425    1.0725    0.7289 C   0  0  0  0  0  0  0  0  0  0  0  0
    4.7678    0.6918   -0.1993 C   0  0  0  0  0  0  0  0  0  0  0  0
    3.5256   -1.3804   -0.2115 C   0  0  0  0  0  0  0  0  0  0  0  0
   -4.4958    0.9565   -2.3769 C   0  0  0  0  0  0  0  0  0  0  0  0
   -4.4703   -1.9236    1.6650 C   0  0  0  0  0  0  0  0  0  0  0  0
    4.7130   -0.6824   -0.4323 C   0  0  0  0  0  0  0  0  0  0  0  0
  1 19  1  0
  2  7  1  0
  2 14  1  0
  3  8  2  0
  3 13  1  0
  4  9  1  0
  4 13  2  0
  5 13  1  0
  5 14  2  0
  6 14  1  0
  7 11  2  0
  7 12  1  0
  8 10  1  0
  8 17  1  0
  9 10  2  0
  9 18  1  0
 11 15  1  0
 12 16  2  0
 15 19  2  0
 16 19  1  0
M  END
>  <PUBCHEM_COMPOUND_CID>  (1) 
27636

>  <PUBCHEM_CONFORMER_RMSD>  (1) 
0.6

>  <PUBCHEM_CONFORMER_DIVERSEORDER>  (1) 
1
12
16
15
13
5
7
9
8
6
4
10
14
11
2
3

>  <PUBCHEM_MMFF94_PARTIAL_CHARGES>  (1) 
27
1 -0.08
10 -0.15
11 -0.15
12 -0.15
13 0.8
14 0.55
15 -0.15
16 -0.15
17 0.14
18 0.14
19 0.08
2 -0.55
20 0.15
21 0.4
22 0.15
23 0.15
24 0.15
25 0.15
3 -0.62
32 0.4
33 0.4
4 -0.62
5 -0.63
6 -0.85
7 0.1
8 0.17
9 0.17

>  <PUBCHEM_EFFECTIVE_ROTOR_COUNT>  (1) 
3

>  <PUBCHEM_PHARMACOPHORE_FEATURES>  (1) 
8
1 1 hydrophobe
1 2 donor
1 3 acceptor
1 6 donor
4 2 5 6 14 cation
4 3 4 5 13 cation
6 3 4 8 9 10 13 rings
6 7 11 12 15 16 19 rings

>  <PUBCHEM_HEAVY_ATOM_COUNT>  (1) 
19

>  <PUBCHEM_ATOM_DEF_STEREO_COUNT>  (1) 
0

>  <PUBCHEM_ATOM_UDEF_STEREO_COUNT>  (1) 
0

>  <PUBCHEM_BOND_DEF_STEREO_COUNT>  (1) 
0

>  <PUBCHEM_BOND_UDEF_STEREO_COUNT>  (1) 
1

>  <PUBCHEM_ISOTOPIC_ATOM_COUNT>  (1) 
0

>  <PUBCHEM_COMPONENT_COUNT>  (1) 
1

>  <PUBCHEM_CACTVS_TAUTO_COUNT>  (1) 
5

>  <PUBCHEM_CONFORMER_ID>  (1) 
00006BF400000001

>  <PUBCHEM_MMFF94_ENERGY>  (1) 
62.5253

>  <PUBCHEM_FEATURE_SELFOVERLAP>  (1) 
40.691

>  <PUBCHEM_SHAPE_FINGERPRINT>  (1) 
10447042 23 18202276992786492030
10680689 15 17385444328112030945
10803635 8 18040714749426668882
10912923 1 15985103054616704120
11056379 131 17313386760028861059
11089746 13 14707215444217933390
11796584 16 17894902985076512178
12236239 1 16630526267378602403
12390115 104 17823125732629264517
12553582 1 17918274272691679312
12555020 224 18059565893343354463
12596602 18 13542459844200718982
12616971 3 17274829068605711598
12633257 1 15051740793276915627
12760667 363 17917714565459808294
13760787 5 17917711326980640076
14178342 30 14405194992798242173
15188451 53 14404888203025787405
15537594 2 17917153896334481686
15880784 105 16200141102176429954
15961568 22 16661771162336097196
16752209 62 18059000683999459304
17349148 13 16128369437017248693
17844677 252 17676772049487901404
17870717 6 18113057129918861647
1813 80 17489039235196447024
18186145 218 18186517704714239881
18222031 100 16415470575840627596
193927 3 18130236969359772542
19784866 140 18341898467933461026
200 152 18060416902537173016
20325693 3 17530681009632376471
20621476 21 18042986413253387963
20645477 70 18272083907459408102
20871999 31 17385442133135809731
21033650 10 16877944880546762324
21065201 7 17603857923038364337
21267235 1 18201732730283599006
21315764 119 17532090493097387982
21728266 224 14189284976836232557
2215653 11 18410283714635639111
22393880 68 17967247585840060122
2297311 6 17676492765645845631
23175994 123 18341049700812706049
23198884 109 15936698103260528682
23402539 116 17703791396804954760
23557571 272 17749105629613437405
23559900 14 18334008385377240768
2871803 45 18411981339235388258
3004659 81 18408884019269791630
312423 11 18129961017679602928
314194 84 17847062177674152798
3472631 163 16081361921826617831
34797466 226 17968100866712948092
351380 3 17632297865454815630
4259306 186 18202283568149463118
46194498 28 17823983535316776420
465052 167 17704074039991833878
5104073 3 17988365858973082434
5281201 14 18113901597624658396
542803 24 14996002134049902710
573450 72 15123792911579492301

>  <PUBCHEM_SHAPE_MULTIPOLES>  (1) 
378.04
14.21
1.83
1.55
8.79
0.04
0.6
6.72
4.79
0.69
-0.56
-2.43
-0.08
2.4

>  <PUBCHEM_SHAPE_SELFOVERLAP>  (1) 
778.216

>  <PUBCHEM_SHAPE_VOLUME>  (1) 
222.5

>  <PUBCHEM_COORDINATE_TYPE>  (1) 
2
5
10

$$$$
