2763
     RDKit          3D

 18 19  0  0  1  0  0  0  0  0999 V2000
    3.4158    2.0529    0.4780 Cl  0  0  0  0  0  0  0  0  0  0  0  0
    5.8071    0.7018   -0.5690 Cl  0  0  0  0  0  0  0  0  0  0  0  0
   -2.1854   -0.5979   -0.5779 O   0  0  0  0  0  0  0  0  0  0  0  0
   -5.1525    1.0239    0.6112 O   0  0  0  0  0  0  0  0  0  0  0  0
   -4.7970   -0.6768   -0.8378 O   0  0  0  0  0  0  0  0  0  0  0  0
    3.4371   -0.7173   -0.1379 C   0  0  0  0  0  0  0  0  0  0  0  0
    4.2234    0.5153    0.1865 C   0  0  0  0  0  0  0  0  0  0  0  0
    4.0615   -0.5651    1.2151 C   0  0  0  0  0  0  0  0  0  0  0  0
    1.9520   -0.6858   -0.2541 C   0  0  0  0  0  0  0  0  0  0  0  0
    1.1713   -1.5106    0.5558 C   0  0  0  0  0  0  0  0  0  0  0  0
    1.3422    0.1685   -1.1728 C   0  0  0  0  0  0  0  0  0  0  0  0
   -0.2190   -1.4811    0.4470 C   0  0  0  0  0  0  0  0  0  0  0  0
   -0.0481    0.1980   -1.2816 C   0  0  0  0  0  0  0  0  0  0  0  0
   -0.8222   -0.6269   -0.4712 C   0  0  0  0  0  0  0  0  0  0  0  0
   -2.8716    0.3336    0.2590 C   0  0  0  0  0  0  0  0  0  0  0  0
   -2.3924    1.7362   -0.1031 C   0  0  0  0  0  0  0  0  0  0  0  0
   -2.5714   -0.0255    1.7112 C   0  0  0  0  0  0  0  0  0  0  0  0
   -4.3507    0.1570   -0.0587 C   0  0  0  0  0  0  0  0  0  0  0  0
  1  7  1  0
  2  7  1  0
  3 14  1  0
  3 15  1  0
  4 18  1  0
  5 18  2  0
  6  7  1  0
  6  8  1  0
  6  9  1  0
  7  8  1  0
  9 10  2  0
  9 11  1  0
 10 12  1  0
 11 13  2  0
 12 14  2  0
 13 14  1  0
 15 16  1  0
 15 17  1  0
 15 18  1  0
M  END
>  <PUBCHEM_COMPOUND_CID>  (1) 
2763

>  <PUBCHEM_CONFORMER_RMSD>  (1) 
0.6

>  <PUBCHEM_CONFORMER_DIVERSEORDER>  (1) 
1
39
55
56
59
62
35
49
2
68
20
7
40
41
42
10
46
58
67
66
45
29
51
34
4
44
38
53
15
60
32
63
6
12
61
31
22
30
21
54
48
25
50
18
24
43
65
47
3
11
36
57
14
19
17
64
33
26
27
37
16
28
23
9
13
5
8
52

>  <PUBCHEM_MMFF94_PARTIAL_CHARGES>  (1) 
24
1 -0.23
10 -0.15
11 -0.15
12 -0.15
13 -0.15
14 0.08
15 0.34
18 0.66
19 0.1
2 -0.23
20 0.1
21 0.1
22 0.15
23 0.15
24 0.15
25 0.15
3 -0.36
32 0.5
4 -0.65
5 -0.57
6 -0.07
7 0.45
8 -0.2
9 -0.03

>  <PUBCHEM_EFFECTIVE_ROTOR_COUNT>  (1) 
4.6

>  <PUBCHEM_PHARMACOPHORE_FEATURES>  (1) 
6
1 3 acceptor
1 4 acceptor
1 5 acceptor
3 15 16 17 hydrophobe
3 4 5 18 anion
6 9 10 11 12 13 14 rings

>  <PUBCHEM_HEAVY_ATOM_COUNT>  (1) 
18

>  <PUBCHEM_ATOM_DEF_STEREO_COUNT>  (1) 
0

>  <PUBCHEM_ATOM_UDEF_STEREO_COUNT>  (1) 
1

>  <PUBCHEM_BOND_DEF_STEREO_COUNT>  (1) 
0

>  <PUBCHEM_BOND_UDEF_STEREO_COUNT>  (1) 
0

>  <PUBCHEM_ISOTOPIC_ATOM_COUNT>  (1) 
0

>  <PUBCHEM_COMPONENT_COUNT>  (1) 
1

>  <PUBCHEM_CACTVS_TAUTO_COUNT>  (1) 
1

>  <PUBCHEM_CONFORMER_ID>  (1) 
00000ACB00000001

>  <PUBCHEM_MMFF94_ENERGY>  (1) 
60.6104

>  <PUBCHEM_FEATURE_SELFOVERLAP>  (1) 
30.517

>  <PUBCHEM_SHAPE_FINGERPRINT>  (1) 
10354089 29 18412262848582523240
10366900 7 18259987076177659536
10465860 250 14634587168515298527
10498660 4 16056324903842921497
106641 1 16950853608184880760
11089746 13 18410853291744722756
11132069 177 17240205430109278075
11796584 16 13190339058770806777
12011746 2 18333453149243358828
12236239 1 18272368667827585310
12251169 10 17530969098436742814
124424 183 15213020449216557823
12596602 18 15719113578112971256
12633257 1 18115290294254448368
12670543 26 13686308945660568520
12815109 37 15140678085566273236
13288520 33 10953734500076247038
13533116 47 17894904079828728219
13675066 3 17530683199406418431
14251764 18 13406796614860141669
14252887 29 14996280293686309762
14341114 328 18343303643450919377
14787075 74 18412259570958058489
14911166 2 13254794646662647694
15183329 4 17703806799554717308
15209294 21 18408321064441056900
15375358 24 16950563259742446011
17349148 13 17385445418954622255
17834072 33 18201152238829068815
1813 80 10953737768594267738
18186145 218 17918000438583354366
192875 21 17749394762875591773
19784866 140 12535358874039757542
19862831 5 13470688144296169998
200 152 18186796989943405727
20279233 1 16226051063440806755
20374829 77 10231757777662027908
204376 136 18334296474145125586
20645477 70 16630256814274070374
21033648 29 17968359213359796124
21250096 35 12107783008301573260
212847 35 18408321082275021432
21503847 285 18342176696205188984
21637258 2 11025803140775432769
21652331 79 18411697694894524384
22485316 2 13551193298802040502
22854114 59 17967813838274828038
23402539 116 17561075908717065149
23557571 272 17203613726218122967
23559900 14 17775290426331107222
26918003 58 13190341270742033612
3060560 45 14117794709191498844
351380 180 18412260631788717272
3545911 37 17632298977545292662
4047638 21 18272652342302318010
4325135 7 17846497062998860909
474 4 18341048614032759016
4990 188 11815897864015150660
5104073 3 18260547848397955083
542803 24 17917711292520531967
7495541 125 16988552558913356555
83771 10 8070029956371397330

>  <PUBCHEM_SHAPE_MULTIPOLES>  (1) 
356.56
11.03
1.54
1.18
0.05
0.37
0.14
3.22
0.78
0.55
0.25
-0.15
-0.02
-0.31

>  <PUBCHEM_SHAPE_SELFOVERLAP>  (1) 
731.686

>  <PUBCHEM_SHAPE_VOLUME>  (1) 
207.1

>  <PUBCHEM_COORDINATE_TYPE>  (1) 
2
5
10

$$$$
