27654
     RDKit          3D

 21 24  0  0  0  0  0  0  0  0999 V2000
   -1.5605    3.4228    0.0550 O   0  0  0  0  0  0  0  0  0  0  0  0
    0.4038   -3.4260   -0.0668 O   0  0  0  0  0  0  0  0  0  0  0  0
    3.2909    2.2144   -0.0147 O   0  0  0  0  0  0  0  0  0  0  0  0
   -3.1478    1.7278    0.0429 N   0  0  0  0  0  0  0  0  0  0  0  0
   -1.8404   -2.8302   -0.0341 N   0  0  0  0  0  0  0  0  0  0  0  0
    3.8967   -0.0272   -0.0509 N   0  0  0  0  0  0  0  0  0  0  0  0
   -4.2383    2.4157    0.6689 C   0  0  0  0  0  0  0  0  0  0  0  0
   -4.1809    2.2565   -0.7982 C   0  0  0  0  0  0  0  0  0  0  0  0
   -2.4066   -3.9925   -0.6526 C   0  0  0  0  0  0  0  0  0  0  0  0
   -2.4280   -3.8245    0.8145 C   0  0  0  0  0  0  0  0  0  0  0  0
    5.1847    0.0822   -0.6698 C   0  0  0  0  0  0  0  0  0  0  0  0
    5.0538   -0.0643    0.7939 C   0  0  0  0  0  0  0  0  0  0  0  0
   -1.8565    2.2312    0.0389 C   0  0  0  0  0  0  0  0  0  0  0  0
   -0.4786   -2.5724   -0.0437 C   0  0  0  0  0  0  0  0  0  0  0  0
    2.9927    1.0233   -0.0267 C   0  0  0  0  0  0  0  0  0  0  0  0
   -0.7843    1.1958    0.0149 C   0  0  0  0  0  0  0  0  0  0  0  0
   -0.1182   -1.1261   -0.0257 C   0  0  0  0  0  0  0  0  0  0  0  0
    1.5599    0.6119   -0.0173 C   0  0  0  0  0  0  0  0  0  0  0  0
   -1.1216   -0.1574   -0.0014 C   0  0  0  0  0  0  0  0  0  0  0  0
    0.5564    1.5806    0.0068 C   0  0  0  0  0  0  0  0  0  0  0  0
    1.2226   -0.7415   -0.0338 C   0  0  0  0  0  0  0  0  0  0  0  0
  1 13  2  0
  2 14  2  0
  3 15  2  0
  4  7  1  0
  4  8  1  0
  4 13  1  0
  5  9  1  0
  5 10  1  0
  5 14  1  0
  6 11  1  0
  6 12  1  0
  6 15  1  0
  7  8  1  0
  9 10  1  0
 11 12  1  0
 13 16  1  0
 14 17  1  0
 15 18  1  0
 16 19  2  0
 16 20  1  0
 17 19  1  0
 17 21  2  0
 18 20  2  0
 18 21  1  0
M  END
>  <PUBCHEM_COMPOUND_CID>  (1) 
27654

>  <PUBCHEM_CONFORMER_RMSD>  (1) 
0.8

>  <PUBCHEM_CONFORMER_DIVERSEORDER>  (1) 
1
17
3
10
15
12
4
18
19
5
13
8
16
14
6
9
2
11
7

>  <PUBCHEM_MMFF94_PARTIAL_CHARGES>  (1) 
36
1 -0.57
10 -0.05
11 -0.05
12 -0.05
13 0.54
14 0.54
15 0.54
16 0.09
17 0.09
18 0.09
19 -0.15
2 -0.57
20 -0.15
21 -0.15
22 0.1
23 0.1
24 0.1
25 0.1
26 0.1
27 0.1
28 0.1
29 0.1
3 -0.57
30 0.1
31 0.1
32 0.1
33 0.1
34 0.15
35 0.15
36 0.15
4 -0.36
5 -0.36
6 -0.36
7 -0.05
8 -0.05
9 -0.05

>  <PUBCHEM_EFFECTIVE_ROTOR_COUNT>  (1) 
7.8

>  <PUBCHEM_PHARMACOPHORE_FEATURES>  (1) 
4
1 1 acceptor
1 2 acceptor
1 3 acceptor
6 16 17 18 19 20 21 rings

>  <PUBCHEM_HEAVY_ATOM_COUNT>  (1) 
21

>  <PUBCHEM_ATOM_DEF_STEREO_COUNT>  (1) 
0

>  <PUBCHEM_ATOM_UDEF_STEREO_COUNT>  (1) 
0

>  <PUBCHEM_BOND_DEF_STEREO_COUNT>  (1) 
0

>  <PUBCHEM_BOND_UDEF_STEREO_COUNT>  (1) 
0

>  <PUBCHEM_ISOTOPIC_ATOM_COUNT>  (1) 
0

>  <PUBCHEM_COMPONENT_COUNT>  (1) 
1

>  <PUBCHEM_CACTVS_TAUTO_COUNT>  (1) 
1

>  <PUBCHEM_CONFORMER_ID>  (1) 
00006C0600000001

>  <PUBCHEM_MMFF94_ENERGY>  (1) 
88.3669

>  <PUBCHEM_FEATURE_SELFOVERLAP>  (1) 
20.297

>  <PUBCHEM_SHAPE_FINGERPRINT>  (1) 
10319926 262 18198318798598628336
10411042 1 17978511167211797271
10756046 70 17531826721922883852
1100329 8 18411417323624351008
116883 192 18196095666837230638
12293681 25 17702127831728484222
12553582 1 17691123056159211758
12592029 89 18193559969595505272
12643181 29 18339649915869958510
12788726 201 18046342213351677162
13004483 165 18052249893285431642
13052359 8 18409163311923016059
13134695 92 17547004595165510303
13140716 1 18268432506362779608
13540713 4 18130224986596494328
13583140 156 16877937218092990905
138480 1 17113819587974278959
14178000 15 17547570839406014615
14178342 30 18264749091824820370
14790565 3 18195534696758789696
14866123 147 18409444769889338570
14931854 50 18195777814220779495
15042514 8 18409452513382381563
15927050 60 18339923689052578190
16728300 4 17028228204336846272
16752209 62 18339352076176020274
17138139 8 17841392017932202861
17539 30 18269548510950062247
18915476 22 17756972421063236797
19427546 20 18263092174809220188
19591789 44 18050289159184087198
20645477 70 17901661567309892781
21041028 32 18048600618450919639
21054139 6 18270382924733433685
21307412 95 17914358800770609246
21478907 32 18194400215401391803
21524375 3 18187931603843175536
21781051 124 17972349285011059891
22182313 1 18195553435637408815
22224240 67 18342742871747849193
2255824 54 17835800794729929199
22849339 104 18268171836766956942
23366157 5 17467362118641233104
23402539 116 18342728585937633716
23419403 2 16840559337702581823
23558518 356 18189335852211888520
23559900 14 18272369764099455896
25147074 1 17968094287709526852
3091708 16 9199718793004442835
352729 6 18412550911516930404
3759504 43 18409448055227485853
38695281 34 18193553372552241861
474229 33 18408887300508904249
532947 4 17908708332652226622
54173680 148 18338516468507466985
5486654 2 18411703145361042893
58779409 54 18339633546535705095
58779409 8 18409452470458991727
59025328 239 16981498246912714047
59755656 520 18336543807609119486
6025842 7 18050278168922225565
6138700 20 17835807396432780238
7164475 11 18192714677192775108
7364860 26 17834395618569016009
79837 15 18339646646238692801
81228 2 17972873936820263024
9709674 26 18272091600093923638
9981440 41 18192712241862280025

>  <PUBCHEM_SHAPE_MULTIPOLES>  (1) 
399.62
8.29
5.17
0.76
8.33
4.97
-0.01
-4.47
-0.03
-7.33
-0.04
-0.09
0.09
0.02

>  <PUBCHEM_SHAPE_SELFOVERLAP>  (1) 
860.592

>  <PUBCHEM_SHAPE_VOLUME>  (1) 
221.6

>  <PUBCHEM_COORDINATE_TYPE>  (1) 
2
5
10

$$$$
