27664
     RDKit          3D

 12 11  0  0  0  0  0  0  0  0999 V2000
    0.9387   -0.1480   -0.0126 O   0  0  0  0  0  0  0  0  0  0  0  0
   -0.1760    1.8757    0.0053 O   0  0  0  0  0  0  0  0  0  0  0  0
   -4.9387    0.3429    0.0150 O   0  0  0  0  0  0  0  0  0  0  0  0
   -3.8537   -1.6566   -0.0051 O   0  0  0  0  0  0  0  0  0  0  0  0
    3.3045   -0.5170   -0.0202 C   0  0  0  0  0  0  0  0  0  0  0  0
    4.6841    0.1350   -0.0019 C   0  0  0  0  0  0  0  0  0  0  0  0
    2.1919    0.5216   -0.0099 C   0  0  0  0  0  0  0  0  0  0  0  0
    5.7918   -0.9058    0.0315 C   0  0  0  0  0  0  0  0  0  0  0  0
   -0.1653    0.6550   -0.0042 C   0  0  0  0  0  0  0  0  0  0  0  0
   -1.3636   -0.2143   -0.0062 C   0  0  0  0  0  0  0  0  0  0  0  0
   -2.5796    0.3458    0.0039 C   0  0  0  0  0  0  0  0  0  0  0  0
   -3.8339   -0.4343    0.0045 C   0  0  0  0  0  0  0  0  0  0  0  0
  1  7  1  0
  1  9  1  0
  2  9  2  0
  3 12  1  0
  4 12  2  0
  5  6  1  0
  5  7  1  0
  6  8  1  0
  9 10  1  0
 10 11  2  0
 11 12  1  0
M  END
>  <PUBCHEM_COMPOUND_CID>  (1) 
27664

>  <PUBCHEM_CONFORMER_RMSD>  (1) 
0.6

>  <PUBCHEM_CONFORMER_DIVERSEORDER>  (1) 
1
113
34
168
6
88
3
136
99
26
160
117
103
112
22
151
49
70
76
107
98
13
106
163
146
130
145
135
125
141
178
40
28
118
14
83
134
116
7
105
75
129
55
90
17
179
91
12
73
79
15
108
174
9
37
119
21
38
110
65
57
82
149
53
142
166
2
109
19
46
20
101
68
30
51
155
144
69
54
77
173
176
153
120
4
132
147
171
23
72
59
161
100
74
94
93
67
95
170
60
5
35
50
175
152
78
148
114
172
71
122
177
81
154
10
42
169
123
124
44
84
61
137
121
87
36
11
133
64
102
182
39
41
89
128
18
138
181
48
24
85
156
127
97
80
131
62
63
167
104
162
27
16
180
29
66
115
150
32
126
58
158
33
86
96
8
140
165
45
25
143
92
31
52
159
43
157
164
47
139
56
111

>  <PUBCHEM_MMFF94_PARTIAL_CHARGES>  (1) 
12
1 -0.43
10 -0.14
11 -0.14
12 0.71
2 -0.57
22 0.15
23 0.15
24 0.5
3 -0.65
4 -0.57
7 0.28
9 0.71

>  <PUBCHEM_EFFECTIVE_ROTOR_COUNT>  (1) 
6

>  <PUBCHEM_PHARMACOPHORE_FEATURES>  (1) 
5
1 2 acceptor
1 3 acceptor
1 4 acceptor
1 8 hydrophobe
3 3 4 12 anion

>  <PUBCHEM_HEAVY_ATOM_COUNT>  (1) 
12

>  <PUBCHEM_ATOM_DEF_STEREO_COUNT>  (1) 
0

>  <PUBCHEM_ATOM_UDEF_STEREO_COUNT>  (1) 
0

>  <PUBCHEM_BOND_DEF_STEREO_COUNT>  (1) 
0

>  <PUBCHEM_BOND_UDEF_STEREO_COUNT>  (1) 
1

>  <PUBCHEM_ISOTOPIC_ATOM_COUNT>  (1) 
0

>  <PUBCHEM_COMPONENT_COUNT>  (1) 
1

>  <PUBCHEM_CACTVS_TAUTO_COUNT>  (1) 
1

>  <PUBCHEM_CONFORMER_ID>  (1) 
00006C1000000001

>  <PUBCHEM_MMFF94_ENERGY>  (1) 
13.9913

>  <PUBCHEM_FEATURE_SELFOVERLAP>  (1) 
25.43

>  <PUBCHEM_SHAPE_FINGERPRINT>  (1) 
100836 57 9295290560152586474
11401426 45 18409728465220949505
114248 4 14490192713038855594
12032990 46 18411138060396937992
12346645 44 9511193940479496141
12815109 37 18410855455843750502
13690532 89 18334013891525320654
14123238 8 11239997854231306418
14252887 29 17060348400996913414
17834072 33 18335424599366890356
17834072 8 18261385638173248485
17834076 25 16515405157555468618
18186145 218 15430035512776491261
187816 3 17095244709154539824
200 152 17967251983886233280
20374829 77 18408882936373556674
20605781 2 8430317939429965198
20719005 15 18410855460634596454
20767249 13 18343581845530480143
20767249 213 11024099954435588882
20828058 44 18202565094138377279
21119208 17 15719392841186279522
22485316 2 18410008836174936699
23402539 116 18411132532784558310
23402655 69 12179836208556334842
23557571 272 18341899524442921796
26918003 58 17917711305252576627
42 15 18272653450187394676
42788 4 18410573985167294884
57483677 66 18335417955005322338
68521 5 18336828597858152797

>  <PUBCHEM_SHAPE_MULTIPOLES>  (1) 
223.48
11.88
1.2
0.58
6.19
0.09
0
-4.06
0.09
-0.44
0
0.07
0
-0.02

>  <PUBCHEM_SHAPE_SELFOVERLAP>  (1) 
423.853

>  <PUBCHEM_SHAPE_VOLUME>  (1) 
137.2

>  <PUBCHEM_COORDINATE_TYPE>  (1) 
2
5
10

$$$$
