27669
     RDKit          3D

 12 12  0  0  0  0  0  0  0  0999 V2000
    1.3591    0.4732    1.2992 S   0  0  0  0  0  0  0  0  0  0  0  0
    1.8246   -0.4171   -1.1428 O   0  0  0  0  0  0  0  0  0  0  0  0
    3.6599    0.0746    0.2014 N   0  0  0  0  0  0  0  0  0  0  0  0
   -2.8964   -0.0989   -0.2711 C   0  0  0  0  0  0  0  0  0  0  0  0
   -0.2996    0.2502    0.6869 C   0  0  0  0  0  0  0  0  0  0  0  0
   -2.2468   -1.1470    0.3808 C   0  0  0  0  0  0  0  0  0  0  0  0
   -2.2476    1.1238   -0.4441 C   0  0  0  0  0  0  0  0  0  0  0  0
   -0.9485   -0.9725    0.8599 C   0  0  0  0  0  0  0  0  0  0  0  0
   -0.9492    1.2984    0.0348 C   0  0  0  0  0  0  0  0  0  0  0  0
   -4.2842   -0.2857   -0.7840 C   0  0  0  0  0  0  0  0  0  0  0  0
    2.3185   -0.0319   -0.0909 C   0  0  0  0  0  0  0  0  0  0  0  0
    4.7101   -0.2670   -0.7301 C   0  0  0  0  0  0  0  0  0  0  0  0
  1  5  1  0
  1 11  1  0
  2 11  2  0
  3 11  1  0
  3 12  1  0
  4  6  2  0
  4  7  1  0
  4 10  1  0
  5  8  2  0
  5  9  1  0
  6  8  1  0
  7  9  2  0
M  END
>  <PUBCHEM_COMPOUND_CID>  (1) 
27669

>  <PUBCHEM_CONFORMER_RMSD>  (1) 
0.6

>  <PUBCHEM_CONFORMER_DIVERSEORDER>  (1) 
1
6
8
2
5
3
4
9
10
7

>  <PUBCHEM_MMFF94_PARTIAL_CHARGES>  (1) 
17
1 -0.24
10 0.14
11 0.77
12 0.3
13 0.15
14 0.15
15 0.15
16 0.15
2 -0.57
20 0.37
3 -0.73
4 -0.14
5 0.1
6 -0.15
7 -0.15
8 -0.15
9 -0.15

>  <PUBCHEM_EFFECTIVE_ROTOR_COUNT>  (1) 
3

>  <PUBCHEM_PHARMACOPHORE_FEATURES>  (1) 
2
1 3 donor
6 4 5 6 7 8 9 rings

>  <PUBCHEM_HEAVY_ATOM_COUNT>  (1) 
12

>  <PUBCHEM_ATOM_DEF_STEREO_COUNT>  (1) 
0

>  <PUBCHEM_ATOM_UDEF_STEREO_COUNT>  (1) 
0

>  <PUBCHEM_BOND_DEF_STEREO_COUNT>  (1) 
0

>  <PUBCHEM_BOND_UDEF_STEREO_COUNT>  (1) 
0

>  <PUBCHEM_ISOTOPIC_ATOM_COUNT>  (1) 
0

>  <PUBCHEM_COMPONENT_COUNT>  (1) 
1

>  <PUBCHEM_CACTVS_TAUTO_COUNT>  (1) 
2

>  <PUBCHEM_CONFORMER_ID>  (1) 
00006C1500000001

>  <PUBCHEM_MMFF94_ENERGY>  (1) 
19.1918

>  <PUBCHEM_FEATURE_SELFOVERLAP>  (1) 
10.148

>  <PUBCHEM_SHAPE_FINGERPRINT>  (1) 
11031198 65 13767923499056902738
12251169 10 10592040267209640834
13024252 1 16588030121416318769
14911166 2 18260820523577272317
14943859 89 15574714702909063128
14993402 34 17458339741151299277
15375462 189 14189570823730934542
15775835 57 16226045591457097974
16945 1 18188195568675687161
187816 3 18260828202715053333
200 152 16917348129947599514
20112054 13 13551479185084678270
20201158 50 18131072631950017526
20279233 1 18202003239660066250
20645476 183 17022897982424417171
20653085 51 15430325770908314775
20871999 31 18336541638503364093
21061003 4 17275108340227367560
21119208 17 17603303756372203910
21293036 1 18114176445603688745
22485316 2 17203607081792952462
22926399 37 16008749112781100877
23402539 116 18336257968497424980
23403322 49 17988649532535516358
23557571 272 18341616975502886372
23559900 14 18334573573383195888
2748010 2 17827345894125883017
57812782 119 18412825789740132106

>  <PUBCHEM_SHAPE_MULTIPOLES>  (1) 
239.95
7.55
1.11
1.1
4.79
0.02
0.09
-0.16
-3.13
-0.78
0.11
0.44
-0.01
0.06

>  <PUBCHEM_SHAPE_SELFOVERLAP>  (1) 
474.59

>  <PUBCHEM_SHAPE_VOLUME>  (1) 
143.5

>  <PUBCHEM_COORDINATE_TYPE>  (1) 
2
5
10

$$$$
