27665
     RDKit          3D

  9  9  0  0  0  0  0  0  0  0999 V2000
   -3.1301    0.0032   -0.0013 Cl  0  0  0  0  0  0  0  0  0  0  0  0
    1.6196    2.5796   -0.0012 Cl  0  0  0  0  0  0  0  0  0  0  0  0
    1.6136   -2.5831   -0.0002 Cl  0  0  0  0  0  0  0  0  0  0  0  0
    1.3853   -0.0016    0.0000 N   0  0  0  0  0  0  0  0  0  0  0  0
   -1.4099    0.0016    0.0009 C   0  0  0  0  0  0  0  0  0  0  0  0
   -0.7104    1.2034    0.0012 C   0  0  0  0  0  0  0  0  0  0  0  0
   -0.7133   -1.2017    0.0002 C   0  0  0  0  0  0  0  0  0  0  0  0
    0.6740    1.1480    0.0008 C   0  0  0  0  0  0  0  0  0  0  0  0
    0.6713   -1.1494   -0.0004 C   0  0  0  0  0  0  0  0  0  0  0  0
  1  5  1  0
  2  8  1  0
  3  9  1  0
  4  8  2  0
  4  9  1  0
  5  6  2  0
  5  7  1  0
  6  8  1  0
  7  9  2  0
M  END
>  <PUBCHEM_COMPOUND_CID>  (1) 
27665

>  <PUBCHEM_CONFORMER_RMSD>  (1) 
0.4

>  <PUBCHEM_CONFORMER_DIVERSEORDER>  (1) 
1

>  <PUBCHEM_MMFF94_PARTIAL_CHARGES>  (1) 
11
1 -0.18
10 0.15
11 0.15
2 -0.18
3 -0.18
4 -0.62
5 0.18
6 -0.15
7 -0.15
8 0.49
9 0.49

>  <PUBCHEM_EFFECTIVE_ROTOR_COUNT>  (1) 
0

>  <PUBCHEM_PHARMACOPHORE_FEATURES>  (1) 
2
1 4 acceptor
6 4 5 6 7 8 9 rings

>  <PUBCHEM_HEAVY_ATOM_COUNT>  (1) 
9

>  <PUBCHEM_ATOM_DEF_STEREO_COUNT>  (1) 
0

>  <PUBCHEM_ATOM_UDEF_STEREO_COUNT>  (1) 
0

>  <PUBCHEM_BOND_DEF_STEREO_COUNT>  (1) 
0

>  <PUBCHEM_BOND_UDEF_STEREO_COUNT>  (1) 
0

>  <PUBCHEM_ISOTOPIC_ATOM_COUNT>  (1) 
0

>  <PUBCHEM_COMPONENT_COUNT>  (1) 
1

>  <PUBCHEM_CACTVS_TAUTO_COUNT>  (1) 
1

>  <PUBCHEM_CONFORMER_ID>  (1) 
00006C1100000001

>  <PUBCHEM_MMFF94_ENERGY>  (1) 
14.5787

>  <PUBCHEM_FEATURE_SELFOVERLAP>  (1) 
10.148

>  <PUBCHEM_SHAPE_FINGERPRINT>  (1) 
1 1 18338234984888022517
12716758 59 17691977376525298980
16945 1 18410575084821321473
20871998 184 16614497861535898484
21040471 1 17906452477972461445
23552423 10 18411981381852849351
23552449 1 17689994535852664126
241688 4 17906452130063974810
2748010 2 18048886478404148990
29004967 10 18336548218355987387

>  <PUBCHEM_SHAPE_MULTIPOLES>  (1) 
185.84
3.03
2.84
0.62
2.56
0.01
0
-0.01
0
-2.64
0
0.01
0
0

>  <PUBCHEM_SHAPE_SELFOVERLAP>  (1) 
358.219

>  <PUBCHEM_SHAPE_VOLUME>  (1) 
116.3

>  <PUBCHEM_COORDINATE_TYPE>  (1) 
2
5
10

$$$$
