2769
     RDKit          3D

 32 34  0  0  1  0  0  0  0  0999 V2000
   -7.5152    2.3148   -1.0986 Cl  0  0  0  0  0  0  0  0  0  0  0  0
    8.8673   -1.6697   -1.2843 F   0  0  0  0  0  0  0  0  0  0  0  0
   -0.1985   -2.1131    0.5625 O   0  0  0  0  0  0  0  0  0  0  0  0
    5.2254    1.4962    1.3544 O   0  0  0  0  0  0  0  0  0  0  0  0
   -3.2634   -0.8943   -2.5156 O   0  0  0  0  0  0  0  0  0  0  0  0
   -3.9520   -1.8301    1.0681 O   0  0  0  0  0  0  0  0  0  0  0  0
    1.1912    1.2861    0.0473 N   0  0  0  0  0  0  0  0  0  0  0  0
   -2.0194   -0.3146   -0.6468 N   0  0  0  0  0  0  0  0  0  0  0  0
   -7.9989    0.7112    1.4421 N   0  0  0  0  0  0  0  0  0  0  0  0
   -0.7171   -0.5519   -1.2327 C   0  0  0  0  0  0  0  0  0  0  0  0
    0.3032   -1.0084   -0.1821 C   0  0  0  0  0  0  0  0  0  0  0  0
   -0.1976    0.7084   -1.9287 C   0  0  0  0  0  0  0  0  0  0  0  0
    0.6761    0.1231    0.7806 C   0  0  0  0  0  0  0  0  0  0  0  0
    0.2076    1.7915   -0.9207 C   0  0  0  0  0  0  0  0  0  0  0  0
    1.5873    2.3441    0.9760 C   0  0  0  0  0  0  0  0  0  0  0  0
    2.9002    1.9818    1.6626 C   0  0  0  0  0  0  0  0  0  0  0  0
   -3.1962   -0.5099   -1.3511 C   0  0  0  0  0  0  0  0  0  0  0  0
    4.0306    1.8175    0.6556 C   0  0  0  0  0  0  0  0  0  0  0  0
   -0.1302   -3.3185   -0.1860 C   0  0  0  0  0  0  0  0  0  0  0  0
   -4.4490   -0.1964   -0.6167 C   0  0  0  0  0  0  0  0  0  0  0  0
   -4.7743   -0.8685    0.5617 C   0  0  0  0  0  0  0  0  0  0  0  0
   -5.3046    0.7840   -1.1195 C   0  0  0  0  0  0  0  0  0  0  0  0
    6.1335    0.7075    0.6970 C   0  0  0  0  0  0  0  0  0  0  0  0
   -5.9551   -0.5603    1.2372 C   0  0  0  0  0  0  0  0  0  0  0  0
   -6.4852    1.0924   -0.4434 C   0  0  0  0  0  0  0  0  0  0  0  0
   -6.8105    0.4202    0.7348 C   0  0  0  0  0  0  0  0  0  0  0  0
    6.2247    0.7607   -0.6940 C   0  0  0  0  0  0  0  0  0  0  0  0
    6.9655   -0.1486    1.4186 C   0  0  0  0  0  0  0  0  0  0  0  0
   -4.3646   -2.4642    2.2769 C   0  0  0  0  0  0  0  0  0  0  0  0
    7.1488   -0.0420   -1.3632 C   0  0  0  0  0  0  0  0  0  0  0  0
    7.8892   -0.9513    0.7493 C   0  0  0  0  0  0  0  0  0  0  0  0
    7.9811   -0.8979   -0.6416 C   0  0  0  0  0  0  0  0  0  0  0  0
  1 25  1  0
  2 32  1  0
  3 11  1  0
  3 19  1  0
  4 18  1  0
  4 23  1  0
  5 17  2  0
  6 21  1  0
  6 29  1  0
  7 13  1  0
  7 14  1  0
  7 15  1  0
  8 10  1  0
  8 17  1  0
  9 26  1  0
 10 11  1  0
 10 12  1  0
 11 13  1  0
 12 14  1  0
 15 16  1  0
 16 18  1  0
 17 20  1  0
 20 21  2  0
 20 22  1  0
 21 24  1  0
 22 25  2  0
 23 27  2  0
 23 28  1  0
 24 26  2  0
 25 26  1  0
 27 30  1  0
 28 31  2  0
 30 32  2  0
 31 32  1  0
M  END
>  <PUBCHEM_COMPOUND_CID>  (1) 
2769

>  <PUBCHEM_CONFORMER_RMSD>  (1) 
1.4

>  <PUBCHEM_CONFORMER_DIVERSEORDER>  (1) 
5
42
28
49
136
21
74
22
105
163
58
51
117
101
97
44
54
38
93
41
64
8
23
45
141
134
77
68
47
96
79
148
40
46
24
32
135
75
151
145
150
142
164
103
57
56
78
2
12
60
132
18
67
137
6
153
121
85
113
73
112
152
84
94
155
3
118
16
110
120
87
140
33
86
76
37
50
25
80
92
34
149
156
154
29
127
88
69
66
139
143
138
131
133
122
35
83
161
19
11
102
43
157
99
116
53
144
90
72
82
89
130
71
107
146
109
14
159
30
162
59
48
52
126
10
111
115
81
119
31
26
65
13
1
91
106
98
70
158
123
20
39
125
62
36
108
160
55
4
129
17
9
128
15
100
114
124
147
27
104
61
7
63
95

>  <PUBCHEM_MMFF94_PARTIAL_CHARGES>  (1) 
39
1 -0.18
10 0.3
11 0.28
13 0.27
14 0.27
15 0.27
17 0.54
18 0.28
19 0.28
2 -0.19
20 0.09
21 0.08
22 -0.15
23 0.08
24 -0.15
25 0.18
26 0.1
27 -0.15
28 -0.15
29 0.28
3 -0.56
30 -0.15
31 -0.15
32 0.19
4 -0.36
43 0.37
5 -0.57
51 0.15
52 0.15
53 0.15
54 0.15
55 0.4
56 0.4
6 -0.36
60 0.15
61 0.15
7 -0.81
8 -0.73
9 -0.9

>  <PUBCHEM_EFFECTIVE_ROTOR_COUNT>  (1) 
11.2

>  <PUBCHEM_PHARMACOPHORE_FEATURES>  (1) 
11
1 3 acceptor
1 4 acceptor
1 5 acceptor
1 6 acceptor
1 7 cation
1 8 donor
1 9 cation
1 9 donor
6 20 21 22 24 25 26 rings
6 23 27 28 30 31 32 rings
6 7 10 11 12 13 14 rings

>  <PUBCHEM_HEAVY_ATOM_COUNT>  (1) 
32

>  <PUBCHEM_ATOM_DEF_STEREO_COUNT>  (1) 
0

>  <PUBCHEM_ATOM_UDEF_STEREO_COUNT>  (1) 
2

>  <PUBCHEM_BOND_DEF_STEREO_COUNT>  (1) 
0

>  <PUBCHEM_BOND_UDEF_STEREO_COUNT>  (1) 
0

>  <PUBCHEM_ISOTOPIC_ATOM_COUNT>  (1) 
0

>  <PUBCHEM_COMPONENT_COUNT>  (1) 
1

>  <PUBCHEM_CACTVS_TAUTO_COUNT>  (1) 
3

>  <PUBCHEM_CONFORMER_ID>  (1) 
00000AD100000005

>  <PUBCHEM_MMFF94_ENERGY>  (1) 
101.1751

>  <PUBCHEM_FEATURE_SELFOVERLAP>  (1) 
55.822

>  <PUBCHEM_SHAPE_FINGERPRINT>  (1) 
10299344 5 16732701653532920888
10674148 151 18409161109390985248
10692045 39 18272653484515607956
10794284 68 15792012229778627959
10930396 42 11671489042770551886
11211813 89 18413673522291116792
11273773 46 18409453553725050042
11672396 43 18126555954807082351
13782708 43 18192430985907801962
13914758 101 16559035990901400136
14068700 686 7853035869320792872
14347424 109 16917061188511866856
14444916 359 18113899351130279762
1454969 45 11746933183375374296
14675019 173 18334293179921742084
14767858 380 13623524667330876356
14856354 85 17603587456669579111
14955137 171 17895756325862865220
15183329 4 16558756749613878624
15320295 40 12679463071495048994
15352257 5 17894628171414560602
15444296 121 16877950455688333257
15444296 7 7997676610700806120
15461852 350 18334848455869970151
15475509 8 18412259545689843300
15685185 35 12685679766664075494
15728490 51 12829498059865348425
21049683 271 13551195502025396751
21130935 74 17488732510813450006
21403212 168 17132115727827539596
21781051 124 18041003955702916546
21796203 349 15213600961750753829
21814621 53 18200870811249824090
23559900 14 18114754712201993279
23569943 247 18060134302717680182
2838139 119 16702302390893458905
3525247 94 17418086638450848647
439807 62 18335983074608194578
444769 64 18131350821213410918
5028188 123 17385728023143722038
550186 72 12180108861918913254
6004065 56 8718819903813022370
6371009 1 14836127688441222641
6371380 46 18341608239623276168
6394761 36 18343582936489395304

>  <PUBCHEM_SHAPE_MULTIPOLES>  (1) 
614.72
25.96
2.54
1.9
23.92
0.93
0.11
-1.11
-1.39
-1.25
-0.56
-0.39
0.11
2.75

>  <PUBCHEM_SHAPE_SELFOVERLAP>  (1) 
1281.544

>  <PUBCHEM_SHAPE_VOLUME>  (1) 
351

>  <PUBCHEM_COORDINATE_TYPE>  (1) 
2
5
10

$$$$
