27703
     RDKit          3D

 17 18  0  0  0  0  0  0  0  0999 V2000
   -0.5781   -0.9969    0.4896 O   0  0  0  0  0  0  0  0  0  0  0  0
    1.7004    0.3697    0.9350 O   0  0  0  0  0  0  0  0  0  0  0  0
    2.3001    0.0489   -1.2884 O   0  0  0  0  0  0  0  0  0  0  0  0
    3.6268   -0.7662    0.4314 N   0  0  0  0  0  0  0  0  0  0  0  0
   -1.7138   -1.7594    0.0391 C   0  0  0  0  0  0  0  0  0  0  0  0
   -3.0355   -1.0165    0.2926 C   0  0  0  0  0  0  0  0  0  0  0  0
   -3.0450    0.3472   -0.3835 C   0  0  0  0  0  0  0  0  0  0  0  0
   -1.7485    1.0581   -0.1315 C   0  0  0  0  0  0  0  0  0  0  0  0
   -0.6081    0.3559    0.2755 C   0  0  0  0  0  0  0  0  0  0  0  0
   -1.5131   -2.1258   -1.4392 C   0  0  0  0  0  0  0  0  0  0  0  0
   -1.7062   -3.0526    0.8673 C   0  0  0  0  0  0  0  0  0  0  0  0
   -1.6627    2.4422   -0.3344 C   0  0  0  0  0  0  0  0  0  0  0  0
    0.5899    1.0368    0.5098 C   0  0  0  0  0  0  0  0  0  0  0  0
   -0.4632    3.1178   -0.1088 C   0  0  0  0  0  0  0  0  0  0  0  0
    0.6617    2.4156    0.3169 C   0  0  0  0  0  0  0  0  0  0  0  0
    2.5338   -0.1078   -0.0937 C   0  0  0  0  0  0  0  0  0  0  0  0
    4.6615   -1.3671   -0.3776 C   0  0  0  0  0  0  0  0  0  0  0  0
  1  5  1  0
  1  9  1  0
  2 13  1  0
  2 16  1  0
  3 16  2  0
  4 16  1  0
  4 17  1  0
  5  6  1  0
  5 10  1  0
  5 11  1  0
  6  7  1  0
  7  8  1  0
  8  9  2  0
  8 12  1  0
  9 13  1  0
 12 14  2  0
 13 15  2  0
 14 15  1  0
M  END
>  <PUBCHEM_COMPOUND_CID>  (1) 
27703

>  <PUBCHEM_CONFORMER_RMSD>  (1) 
0.6

>  <PUBCHEM_CONFORMER_DIVERSEORDER>  (1) 
1
35
29
24
34
38
8
30
10
23
12
36
27
22
18
9
31
17
37
16
14
21
7
26
28
19
25
3
13
32
20
11
2
4
33
15
6
5

>  <PUBCHEM_MMFF94_PARTIAL_CHARGES>  (1) 
18
1 -0.36
12 -0.15
13 0.08
14 -0.15
15 -0.15
16 0.78
17 0.3
2 -0.23
28 0.15
29 0.15
3 -0.57
30 0.15
31 0.37
4 -0.73
5 0.28
7 0.14
8 -0.14
9 0.08

>  <PUBCHEM_EFFECTIVE_ROTOR_COUNT>  (1) 
3.8

>  <PUBCHEM_PHARMACOPHORE_FEATURES>  (1) 
6
1 1 acceptor
1 3 acceptor
1 4 donor
3 5 10 11 hydrophobe
6 1 5 6 7 8 9 rings
6 8 9 12 13 14 15 rings

>  <PUBCHEM_HEAVY_ATOM_COUNT>  (1) 
17

>  <PUBCHEM_ATOM_DEF_STEREO_COUNT>  (1) 
0

>  <PUBCHEM_ATOM_UDEF_STEREO_COUNT>  (1) 
0

>  <PUBCHEM_BOND_DEF_STEREO_COUNT>  (1) 
0

>  <PUBCHEM_BOND_UDEF_STEREO_COUNT>  (1) 
0

>  <PUBCHEM_ISOTOPIC_ATOM_COUNT>  (1) 
0

>  <PUBCHEM_COMPONENT_COUNT>  (1) 
1

>  <PUBCHEM_CACTVS_TAUTO_COUNT>  (1) 
2

>  <PUBCHEM_CONFORMER_ID>  (1) 
00006C3700000001

>  <PUBCHEM_MMFF94_ENERGY>  (1) 
49.4479

>  <PUBCHEM_FEATURE_SELFOVERLAP>  (1) 
30.475

>  <PUBCHEM_SHAPE_FINGERPRINT>  (1) 
10967382 1 18193553604358916297
11680986 33 18195521717403998929
12553582 1 18337954601044384770
13140716 1 18340208608344192209
14115302 16 18186523210925415486
14790565 3 18265905657229535009
15279308 51 18056476381728060623
16752209 62 18263911151472476033
16945 1 18408316705429118201
17990270 104 17978223091027770393
19591789 44 18122909729261725425
20510252 161 18198058084481248840
20645476 183 17749389204976517449
20645477 70 17111272573932351343
20871998 184 18343301427221219396
20871998 22 18194402422940358913
20871999 31 18408882914883039124
20905425 154 17981605966226490903
22713019 99 18200296754859244693
22721475 48 18272096036204179349
22802520 49 18266458896102605307
23114952 82 17612005463504391053
232386 152 18410013260397375270
2334 1 17977942711383816697
23402539 116 18270108020481523309
23419403 2 16182335739841275969
23557571 272 18343589529992168908
23559900 14 18269829819192921706
23728640 28 18192987128343288610
2748010 2 18121769788858794257
3084891 72 18338228259275406251
43471831 8 17903352606943620675
559249 180 17975410210310643450
7364860 26 17836367425180504249
81228 2 18340775861865653376
8809292 202 18411981338860906850
9709674 26 18199189482405270094

>  <PUBCHEM_SHAPE_MULTIPOLES>  (1) 
327.26
5.49
3.43
0.97
6.92
0.72
-0.19
-3.36
-0.56
-1.73
0.08
-0.02
-0.38
0.39

>  <PUBCHEM_SHAPE_SELFOVERLAP>  (1) 
689.793

>  <PUBCHEM_SHAPE_VOLUME>  (1) 
182.8

>  <PUBCHEM_COORDINATE_TYPE>  (1) 
2
5
10

$$$$
