27714
     RDKit          3D

 17 18  0  0  0  0  0  0  0  0999 V2000
    0.0157    2.1059   -0.1671 O   0  0  0  0  0  0  0  0  0  0  0  0
    4.9289    1.2565   -0.3566 O   0  0  0  0  0  0  0  0  0  0  0  0
    5.1880   -1.4765    0.0801 O   0  0  0  0  0  0  0  0  0  0  0  0
   -2.3076    0.8255    0.2086 N   0  0  0  0  0  0  0  0  0  0  0  0
   -3.4958    0.0153    0.4075 C   0  0  0  0  0  0  0  0  0  0  0  0
   -4.7817    0.8313    0.3529 C   0  0  0  0  0  0  0  0  0  0  0  0
   -3.7083   -1.0028   -0.7063 C   0  0  0  0  0  0  0  0  0  0  0  0
   -5.8659   -0.2196    0.1291 C   0  0  0  0  0  0  0  0  0  0  0  0
   -5.1739   -1.4019   -0.5548 C   0  0  0  0  0  0  0  0  0  0  0  0
   -1.1012    0.0083    0.2569 C   0  0  0  0  0  0  0  0  0  0  0  0
    0.1087    0.8958    0.0280 C   0  0  0  0  0  0  0  0  0  0  0  0
    1.4633    0.2674    0.0415 C   0  0  0  0  0  0  0  0  0  0  0  0
    2.5629    1.0678   -0.1658 C   0  0  0  0  0  0  0  0  0  0  0  0
    1.5580   -1.0876    0.2603 C   0  0  0  0  0  0  0  0  0  0  0  0
    3.8279    0.4805   -0.1533 C   0  0  0  0  0  0  0  0  0  0  0  0
    2.8230   -1.6750    0.2728 C   0  0  0  0  0  0  0  0  0  0  0  0
    3.9580   -0.8909    0.0661 C   0  0  0  0  0  0  0  0  0  0  0  0
  1 11  2  0
  2 15  1  0
  3 17  1  0
  4  5  1  0
  4 10  1  0
  5  6  1  0
  5  7  1  0
  6  8  1  0
  7  9  1  0
  8  9  1  0
 10 11  1  0
 11 12  1  0
 12 13  2  0
 12 14  1  0
 13 15  1  0
 14 16  2  0
 15 17  2  0
 16 17  1  0
M  END
>  <PUBCHEM_COMPOUND_CID>  (1) 
27714

>  <PUBCHEM_CONFORMER_RMSD>  (1) 
0.6

>  <PUBCHEM_CONFORMER_DIVERSEORDER>  (1) 
1
149
49
135
128
138
62
130
141
109
42
131
145
129
54
95
45
148
2
67
6
108
110
64
94
144
83
57
153
84
72
65
17
74
143
140
40
5
115
63
28
9
90
100
154
38
21
118
139
70
78
137
46
27
89
76
82
104
16
147
71
37
116
152
101
151
96
18
80
81
75
134
136
105
39
51
30
117
47
55
50
15
122
93
119
97
60
11
20
29
79
10
22
36
66
121
23
68
86
61
113
123
34
4
92
142
69
77
133
103
24
114
85
120
7
132
26
59
43
58
102
146
112
91
106
150
99
44
3
48
87
126
124
111
25
35
33
107
8
88
56
19
98
53
41
13
125
12
73
52
127
14
32
31

>  <PUBCHEM_MMFF94_PARTIAL_CHARGES>  (1) 
19
1 -0.57
10 0.33
11 0.42
12 0.09
13 -0.15
14 -0.15
15 0.08
16 -0.15
17 0.08
2 -0.53
27 0.36
3 -0.53
30 0.15
31 0.15
32 0.15
33 0.45
34 0.45
4 -0.9
5 0.27

>  <PUBCHEM_EFFECTIVE_ROTOR_COUNT>  (1) 
5

>  <PUBCHEM_PHARMACOPHORE_FEATURES>  (1) 
7
1 1 acceptor
1 2 donor
1 3 donor
1 4 cation
1 4 donor
5 5 6 7 8 9 rings
6 12 13 14 15 16 17 rings

>  <PUBCHEM_HEAVY_ATOM_COUNT>  (1) 
17

>  <PUBCHEM_ATOM_DEF_STEREO_COUNT>  (1) 
0

>  <PUBCHEM_ATOM_UDEF_STEREO_COUNT>  (1) 
0

>  <PUBCHEM_BOND_DEF_STEREO_COUNT>  (1) 
0

>  <PUBCHEM_BOND_UDEF_STEREO_COUNT>  (1) 
0

>  <PUBCHEM_ISOTOPIC_ATOM_COUNT>  (1) 
0

>  <PUBCHEM_COMPONENT_COUNT>  (1) 
1

>  <PUBCHEM_CACTVS_TAUTO_COUNT>  (1) 
47

>  <PUBCHEM_CONFORMER_ID>  (1) 
00006C4200000001

>  <PUBCHEM_MMFF94_ENERGY>  (1) 
33.8301

>  <PUBCHEM_FEATURE_SELFOVERLAP>  (1) 
35.526

>  <PUBCHEM_SHAPE_FINGERPRINT>  (1) 
10447042 23 18336537270320878134
10912923 1 18201444674688893545
11287383 113 16588312721453025065
11471102 20 18333452053920969272
11806522 49 18410012147600029169
12107183 9 17693383235327121291
12236239 1 18272934925343453473
13167823 11 18342174475337643391
13862211 1 18335136454343243066
14251764 18 18202005435221570657
14528608 73 18411142475966391756
14576447 43 18340482373960348151
15188451 53 15697699507473224087
15196674 1 18410573976582635051
15242433 33 18412263947814576119
15788980 27 18333452032345853993
17834072 33 18342176682697515481
18186145 218 16805324405163795049
200 152 18342458153674638649
20028762 73 18341325605280832278
20281475 54 18341328894649702881
20645477 70 18335702706788878690
21250096 35 18343863316586789393
21267235 1 18411145705486450970
220451 1 18271815639612426051
221490 88 18118971531892757075
22485316 2 18411981356093581929
22646028 1 18342455945913690315
23402539 116 18411978040405144797
23402655 69 18409729539084261741
23557571 272 16805601421853507831
23559900 14 18269827770261692401
239999 70 18272375256924797438
2871803 45 18114180809195561546
2916195 48 11530776932548592950
29717793 49 18201720617620976959
300161 21 18412538817226492049
3004659 81 18261110747075628994
314194 84 18413389860606574043
33824 294 18260829285105282754
34797466 226 16773804748185373168
351380 3 18343299280117691287
4214541 1 18412544276320056729
465052 167 18272938223641324086
4921388 177 16660651812496642219
5104073 3 18412826880260958089
542803 24 17530686511158435069
559249 180 18342453713148102295
573450 72 18059857247240210921
57483677 66 18413107268880032231
602551 16 15984810597129166823
7495541 125 17704066326198791784
77779 3 18411700976402051593
9971528 1 18260265278168030333

>  <PUBCHEM_SHAPE_MULTIPOLES>  (1) 
327.26
13.23
1.67
0.69
7.47
0.01
-0.02
3.05
-0.62
-0.87
-0.08
0.25
0.05
-0.81

>  <PUBCHEM_SHAPE_SELFOVERLAP>  (1) 
687.711

>  <PUBCHEM_SHAPE_VOLUME>  (1) 
185.8

>  <PUBCHEM_COORDINATE_TYPE>  (1) 
2
5
10

$$$$
