27718
     RDKit          3D

 22 24  0  0  1  0  0  0  0  0999 V2000
   -1.9391   -2.3122   -0.6101 O   0  0  0  0  0  0  0  0  0  0  0  0
   -6.5929   -0.5127   -0.6014 O   0  0  0  0  0  0  0  0  0  0  0  0
   -6.3493    2.0643    0.4085 O   0  0  0  0  0  0  0  0  0  0  0  0
    0.5656   -1.6083    0.0234 N   0  0  0  0  0  0  0  0  0  0  0  0
    1.8807   -1.0952    0.4043 C   0  0  0  0  0  0  0  0  0  0  0  0
    2.9466   -2.1712    0.1893 C   0  0  0  0  0  0  0  0  0  0  0  0
    2.2252    0.1554   -0.4162 C   0  0  0  0  0  0  0  0  0  0  0  0
    4.3050   -1.6808    0.6911 C   0  0  0  0  0  0  0  0  0  0  0  0
    3.6614    0.5922   -0.2540 C   0  0  0  0  0  0  0  0  0  0  0  0
    4.6478   -0.2870    0.2287 C   0  0  0  0  0  0  0  0  0  0  0  0
    4.0280    1.8873   -0.6516 C   0  0  0  0  0  0  0  0  0  0  0  0
   -0.4636   -0.6052    0.2479 C   0  0  0  0  0  0  0  0  0  0  0  0
    5.9737    0.1592    0.3385 C   0  0  0  0  0  0  0  0  0  0  0  0
    5.3512    2.3151   -0.5469 C   0  0  0  0  0  0  0  0  0  0  0  0
    6.3232    1.4522   -0.0498 C   0  0  0  0  0  0  0  0  0  0  0  0
   -1.8096   -1.1753   -0.1613 C   0  0  0  0  0  0  0  0  0  0  0  0
   -3.0208   -0.3148   -0.0104 C   0  0  0  0  0  0  0  0  0  0  0  0
   -4.2428   -0.8272   -0.3806 C   0  0  0  0  0  0  0  0  0  0  0  0
   -2.8668    0.9565    0.4923 C   0  0  0  0  0  0  0  0  0  0  0  0
   -5.3740   -0.0233   -0.2403 C   0  0  0  0  0  0  0  0  0  0  0  0
   -3.9980    1.7604    0.6325 C   0  0  0  0  0  0  0  0  0  0  0  0
   -5.2516    1.2705    0.2662 C   0  0  0  0  0  0  0  0  0  0  0  0
  1 16  2  0
  2 20  1  0
  3 22  1  0
  4  5  1  0
  4 12  1  0
  5  6  1  0
  5  7  1  0
  6  8  1  0
  7  9  1  0
  8 10  1  0
  9 10  2  0
  9 11  1  0
 10 13  1  0
 11 14  2  0
 12 16  1  0
 13 15  2  0
 14 15  1  0
 16 17  1  0
 17 18  2  0
 17 19  1  0
 18 20  1  0
 19 21  2  0
 20 22  2  0
 21 22  1  0
M  END
>  <PUBCHEM_COMPOUND_CID>  (1) 
27718

>  <PUBCHEM_CONFORMER_RMSD>  (1) 
0.8

>  <PUBCHEM_CONFORMER_DIVERSEORDER>  (1) 
19
81
128
140
89
138
117
43
56
112
4
109
48
90
130
94
8
54
134
22
113
144
55
60
16
102
6
96
41
78
31
74
67
145
51
34
14
40
44
110
23
70
72
28
77
93
76
121
125
50
47
83
75
126
3
105
38
143
7
68
108
15
120
5
115
65
9
32
53
30
46
103
12
57
87
99
142
118
97
124
66
86
24
59
129
106
13
71
25
82
49
85
58
69
42
122
73
88
104
35
127
116
98
33
100
2
95
20
26
107
17
21
29
123
84
141
101
37
1
61
79
11
136
135
114
18
64
45
131
36
10
80
92
39
137
119
133
27
62
63
91
111
139
52
132

>  <PUBCHEM_MMFF94_PARTIAL_CHARGES>  (1) 
31
1 -0.57
10 -0.14
11 -0.15
12 0.33
13 -0.15
14 -0.15
15 -0.15
16 0.42
17 0.09
18 -0.15
19 -0.15
2 -0.53
20 0.08
21 -0.15
22 0.08
3 -0.53
30 0.36
31 0.15
34 0.15
35 0.15
36 0.15
37 0.15
38 0.15
39 0.15
4 -0.9
40 0.45
41 0.45
5 0.27
7 0.14
8 0.14
9 -0.14

>  <PUBCHEM_EFFECTIVE_ROTOR_COUNT>  (1) 
4.8

>  <PUBCHEM_PHARMACOPHORE_FEATURES>  (1) 
8
1 1 acceptor
1 2 donor
1 3 donor
1 4 cation
1 4 donor
6 17 18 19 20 21 22 rings
6 5 6 7 8 9 10 rings
6 9 10 11 13 14 15 rings

>  <PUBCHEM_HEAVY_ATOM_COUNT>  (1) 
22

>  <PUBCHEM_ATOM_DEF_STEREO_COUNT>  (1) 
0

>  <PUBCHEM_ATOM_UDEF_STEREO_COUNT>  (1) 
1

>  <PUBCHEM_BOND_DEF_STEREO_COUNT>  (1) 
0

>  <PUBCHEM_BOND_UDEF_STEREO_COUNT>  (1) 
0

>  <PUBCHEM_ISOTOPIC_ATOM_COUNT>  (1) 
0

>  <PUBCHEM_COMPONENT_COUNT>  (1) 
1

>  <PUBCHEM_CACTVS_TAUTO_COUNT>  (1) 
47

>  <PUBCHEM_CONFORMER_ID>  (1) 
00006C4600000013

>  <PUBCHEM_MMFF94_ENERGY>  (1) 
51.5623

>  <PUBCHEM_FEATURE_SELFOVERLAP>  (1) 
40.622

>  <PUBCHEM_SHAPE_FINGERPRINT>  (1) 
10411042 1 17831012430762220242
10595046 47 18412260640732183511
11089746 13 18343578573198021196
11578080 2 13191777297933135588
12107183 9 17834394514704288898
12236239 1 18411697668982048971
12596602 18 18040715861865065883
12633257 1 15864355804409072670
12760667 363 8070032147210698971
12788726 201 17560808675609724761
13167372 99 18410292476126466000
13785724 45 17833828275392533354
14251764 18 18333446548121042562
14394314 77 18412832369731504057
14464042 87 18201723933742450688
14528608 73 18413108376939299196
14767858 380 18201143434990170127
15142526 21 18041841843518633866
15183329 4 18411983563490767208
15188451 53 15285934631758704643
15196674 1 18410856538465665961
15348495 7 15647063706230900296
15419008 145 18115293472678427648
1577012 14 18412544288919849089
18335252 98 18335988666376357739
20157964 124 18407760317837714842
20281389 69 18186799162674514053
20511986 3 18339348721468757032
21033648 144 18114174246417384151
21033648 29 16515678906318829775
21033650 10 15625958499005221707
21298829 104 18410296912796644708
21315764 268 18187922842109839980
21421861 104 17895744116140917250
23272321 79 18411138030922952163
23402655 69 18413106191128311454
23559900 14 18060128894757118985
245318 6 17751659859808045980
2838139 119 18412542128203497061
29717793 49 17988929946892577854
300161 21 18271803540747731426
3004659 81 18271807865970008010
335352 9 18407762539491062294
3472631 163 18342179981295683292
34797466 226 16773800345922840584
3545911 37 18408885152592661542
4073 2 17967820491591178898
4325135 7 18342736325932242599
474 4 18186802504443984962
5104073 3 18040155123461333371
543368 44 18412543249553704661
54446538 1 18410009931470666496
59682541 35 18334867160347068851
8272917 22 18409449172779208990

>  <PUBCHEM_SHAPE_MULTIPOLES>  (1) 
430.16
18.04
2.39
0.76
6.77
0.16
-0.01
8.85
0.12
-1.14
0.03
0.01
0.04
-1.69

>  <PUBCHEM_SHAPE_SELFOVERLAP>  (1) 
929.461

>  <PUBCHEM_SHAPE_VOLUME>  (1) 
234.7

>  <PUBCHEM_COORDINATE_TYPE>  (1) 
2
5
10

$$$$
