27724
     RDKit          3D

 19 19  0  0  0  0  0  0  0  0999 V2000
    5.4090    1.0278   -0.9817 Cl  0  0  0  0  0  0  0  0  0  0  0  0
    0.2742   -2.1362   -0.8218 S   0  0  0  0  0  0  0  0  0  0  0  0
   -0.1206    1.0537    0.9973 O   0  0  0  0  0  0  0  0  0  0  0  0
   -3.3766    1.6067   -0.3731 O   0  0  0  0  0  0  0  0  0  0  0  0
   -2.6234    0.0861    1.1917 O   0  0  0  0  0  0  0  0  0  0  0  0
   -1.1254   -4.3534   -1.0770 N   0  0  0  0  0  0  0  0  0  0  0  0
   -0.1843   -3.9721    1.0551 N   0  0  0  0  0  0  0  0  0  0  0  0
    1.8295   -0.1755    0.3392 C   0  0  0  0  0  0  0  0  0  0  0  0
    1.1615    1.0330    0.5368 C   0  0  0  0  0  0  0  0  0  0  0  0
    1.1539   -1.4758    0.6259 C   0  0  0  0  0  0  0  0  0  0  0  0
    3.1431   -0.1778   -0.1302 C   0  0  0  0  0  0  0  0  0  0  0  0
    1.8070    2.2393    0.2651 C   0  0  0  0  0  0  0  0  0  0  0  0
    3.7886    1.0285   -0.4020 C   0  0  0  0  0  0  0  0  0  0  0  0
    3.1204    2.2370   -0.2044 C   0  0  0  0  0  0  0  0  0  0  0  0
   -1.1001    1.6645    0.1597 C   0  0  0  0  0  0  0  0  0  0  0  0
   -2.4319    1.0074    0.4098 C   0  0  0  0  0  0  0  0  0  0  0  0
   -4.7037    1.0864   -0.2442 C   0  0  0  0  0  0  0  0  0  0  0  0
   -5.6252    1.8511   -1.1704 C   0  0  0  0  0  0  0  0  0  0  0  0
   -0.3959   -3.6307   -0.1756 C   0  0  0  0  0  0  0  0  0  0  0  0
  1 13  1  0
  2 10  1  0
  2 19  1  0
  3  9  1  0
  3 15  1  0
  4 16  1  0
  4 17  1  0
  5 16  2  0
  6 19  1  0
  7 19  2  0
  8  9  2  0
  8 10  1  0
  8 11  1  0
  9 12  1  0
 11 13  2  0
 12 14  2  0
 13 14  1  0
 15 16  1  0
 17 18  1  0
M  END
>  <PUBCHEM_COMPOUND_CID>  (1) 
27724

>  <PUBCHEM_CONFORMER_RMSD>  (1) 
0.8

>  <PUBCHEM_CONFORMER_DIVERSEORDER>  (1) 
1
79
89
74
17
102
18
41
44
50
103
76
48
30
20
77
99
95
51
59
109
87
14
98
64
65
110
108
52
60
75
106
83
71
45
62
54
70
93
29
33
63
49
27
10
19
56
97
90
85
68
101
111
107
94
22
61
37
58
13
25
100
55
32
73
8
104
15
78
46
92
40
9
47
42
36
38
67
43
2
4
23
69
80
34
31
105
5
84
3
72
6
39
53
7
28
96
81
21
12
35
86
11
91
88
57
26
66
82
16
24

>  <PUBCHEM_MMFF94_PARTIAL_CHARGES>  (1) 
24
1 -0.18
10 0.37
11 -0.15
12 -0.15
13 0.18
14 -0.15
15 0.34
16 0.66
17 0.28
19 0.64
2 -0.37
22 0.15
23 0.15
24 0.15
3 -0.36
32 0.4
33 0.4
34 0.4
4 -0.43
5 -0.57
6 -0.85
7 -0.85
8 -0.14
9 0.08

>  <PUBCHEM_EFFECTIVE_ROTOR_COUNT>  (1) 
8

>  <PUBCHEM_PHARMACOPHORE_FEATURES>  (1) 
6
1 3 acceptor
1 5 acceptor
1 6 donor
1 7 donor
3 6 7 19 cation
6 8 9 11 12 13 14 rings

>  <PUBCHEM_HEAVY_ATOM_COUNT>  (1) 
19

>  <PUBCHEM_ATOM_DEF_STEREO_COUNT>  (1) 
0

>  <PUBCHEM_ATOM_UDEF_STEREO_COUNT>  (1) 
0

>  <PUBCHEM_BOND_DEF_STEREO_COUNT>  (1) 
0

>  <PUBCHEM_BOND_UDEF_STEREO_COUNT>  (1) 
0

>  <PUBCHEM_ISOTOPIC_ATOM_COUNT>  (1) 
0

>  <PUBCHEM_COMPONENT_COUNT>  (1) 
1

>  <PUBCHEM_CACTVS_TAUTO_COUNT>  (1) 
1

>  <PUBCHEM_CONFORMER_ID>  (1) 
00006C4C00000001

>  <PUBCHEM_MMFF94_ENERGY>  (1) 
39.5437

>  <PUBCHEM_FEATURE_SELFOVERLAP>  (1) 
30.491

>  <PUBCHEM_SHAPE_FINGERPRINT>  (1) 
10688039 33 17687189007612977003
10693767 8 17915175724328922942
116883 192 17836648896057121030
12730499 353 18335425621774991073
13052359 8 18338800121444228882
13083527 12 17758947130787370714
13540713 4 17842281647472901728
13836976 161 18410008810473906381
138480 1 17690843359124972647
17138139 8 17700663372814505295
19427546 20 18048611605726284556
20645476 183 18409729599007913340
20645477 70 18263640663481148433
21054139 6 18271790333849715397
21344244 181 17917163731335336478
21452121 199 17616524060793867275
21641784 216 17253446006945266924
23530152 11 18412263938897606882
23558518 356 17756141551012902184
257057 1 17185872788186972635
3060560 45 18336546027933397828
3759504 43 18334579078703152606
53917941 68 18266169707681323868
58779409 54 18270123560247946420
58779409 8 18339082708432211062
6025842 7 18265607694178355909
7164475 11 17834400399252803620
81228 2 17762053650467089064
81539 233 18336263431991048991
8272917 22 18268712697719482821

>  <PUBCHEM_SHAPE_MULTIPOLES>  (1) 
369.16
8.96
4.58
1.05
5.28
7.77
-0.05
-9.22
-3.84
1.83
-0.53
0.29
0.23
0.14

>  <PUBCHEM_SHAPE_SELFOVERLAP>  (1) 
727.245

>  <PUBCHEM_SHAPE_VOLUME>  (1) 
222.4

>  <PUBCHEM_COORDINATE_TYPE>  (1) 
2
5
10

$$$$
