27738
     RDKit          3D

 10 10  0  0  0  0  0  0  0  0999 V2000
   -0.9694    1.2018   -0.3604 S   0  0  0  0  0  0  0  0  0  0  0  0
    1.7130    1.3011   -0.0592 N   0  0  0  0  0  0  0  0  0  0  0  0
    0.7362   -0.8928   -0.4067 N   0  0  0  0  0  0  0  0  0  0  0  0
   -4.4689   -0.7396    0.2658 N   0  0  0  0  0  0  0  0  0  0  0  0
    0.5758    0.4200    0.2277 C   0  0  0  0  0  0  0  0  0  0  0  0
    3.1691   -0.6714   -0.1693 C   0  0  0  0  0  0  0  0  0  0  0  0
    2.9626    0.7178    0.4306 C   0  0  0  0  0  0  0  0  0  0  0  0
    1.9492   -1.5587    0.0698 C   0  0  0  0  0  0  0  0  0  0  0  0
   -2.1175   -0.0880    0.1672 C   0  0  0  0  0  0  0  0  0  0  0  0
   -3.5501    0.3099   -0.1654 C   0  0  0  0  0  0  0  0  0  0  0  0
  1  5  1  0
  1  9  1  0
  2  5  1  0
  2  7  1  0
  3  5  1  0
  3  8  1  0
  4 10  1  0
  6  7  1  0
  6  8  1  0
  9 10  1  0
M  END
>  <PUBCHEM_COMPOUND_CID>  (1) 
27738

>  <PUBCHEM_CONFORMER_RMSD>  (1) 
0.6

>  <PUBCHEM_CONFORMER_DIVERSEORDER>  (1) 
1
16
5
10
8
6
9
7
14
15
3
2
11
12
4
13

>  <PUBCHEM_MMFF94_PARTIAL_CHARGES>  (1) 
13
1 -0.46
10 0.27
18 0.36
19 0.36
2 -0.9
24 0.36
25 0.36
3 -0.9
4 -0.99
5 0.77
7 0.27
8 0.27
9 0.23

>  <PUBCHEM_EFFECTIVE_ROTOR_COUNT>  (1) 
4.2

>  <PUBCHEM_PHARMACOPHORE_FEATURES>  (1) 
7
1 2 cation
1 2 donor
1 3 cation
1 3 donor
1 4 cation
1 4 donor
6 2 3 5 6 7 8 rings

>  <PUBCHEM_HEAVY_ATOM_COUNT>  (1) 
10

>  <PUBCHEM_ATOM_DEF_STEREO_COUNT>  (1) 
0

>  <PUBCHEM_ATOM_UDEF_STEREO_COUNT>  (1) 
0

>  <PUBCHEM_BOND_DEF_STEREO_COUNT>  (1) 
0

>  <PUBCHEM_BOND_UDEF_STEREO_COUNT>  (1) 
0

>  <PUBCHEM_ISOTOPIC_ATOM_COUNT>  (1) 
0

>  <PUBCHEM_COMPONENT_COUNT>  (1) 
1

>  <PUBCHEM_CACTVS_TAUTO_COUNT>  (1) 
1

>  <PUBCHEM_CONFORMER_ID>  (1) 
00006C5A00000001

>  <PUBCHEM_MMFF94_ENERGY>  (1) 
-1.1183

>  <PUBCHEM_FEATURE_SELFOVERLAP>  (1) 
35.578

>  <PUBCHEM_SHAPE_FINGERPRINT>  (1) 
10219947 1 18410013251448828741
11062470 55 13406794428051939773
12032990 46 18269558243577907454
12932764 1 17346303904375194433
14251717 144 18411979182819076719
14252887 29 17988651778317978910
14325111 11 18411980252081368961
15775835 57 17988639743819492044
177051 138 18413108351106211351
190213 19 17489869323736169817
20201158 50 18334296452812402219
20281407 28 18333735684834118961
20645477 70 18341324492904648503
20871998 22 17985269569367333942
22485316 2 18409444783021464863
23402655 69 18413103940301594021
581208 293 18410852187368369992

>  <PUBCHEM_SHAPE_MULTIPOLES>  (1) 
194.7
6.83
1.41
0.67
6.11
0.06
0
1.45
0.49
-0.61
-0.04
-0.03
-0.03
0.31

>  <PUBCHEM_SHAPE_SELFOVERLAP>  (1) 
352.774

>  <PUBCHEM_SHAPE_VOLUME>  (1) 
125.3

>  <PUBCHEM_COORDINATE_TYPE>  (1) 
2
5
10

$$$$
