27733
     RDKit          3D

 13 13  0  0  1  0  0  0  0  0999 V2000
   -2.2394    0.1837   -0.3696 N   0  0  0  0  0  0  0  0  0  0  0  0
   -2.4096   -1.0317    0.4252 C   0  0  0  0  0  0  0  0  0  0  0  0
   -2.8943   -2.2947   -0.2265 C   0  0  0  0  0  0  0  0  0  0  0  0
   -1.4717   -2.1897    0.2394 C   0  0  0  0  0  0  0  0  0  0  0  0
   -1.7056    1.2650    0.4590 C   0  0  0  0  0  0  0  0  0  0  0  0
   -0.3444    0.8756    1.0599 C   0  0  0  0  0  0  0  0  0  0  0  0
   -3.5100    0.5826   -0.9731 C   0  0  0  0  0  0  0  0  0  0  0  0
    0.7342    0.6321   -0.0033 C   0  0  0  0  0  0  0  0  0  0  0  0
   -1.5791    2.5374   -0.3783 C   0  0  0  0  0  0  0  0  0  0  0  0
    2.0748    0.2721    0.6431 C   0  0  0  0  0  0  0  0  0  0  0  0
    3.1978    0.0426   -0.3723 C   0  0  0  0  0  0  0  0  0  0  0  0
    4.5428   -0.2928    0.2734 C   0  0  0  0  0  0  0  0  0  0  0  0
    5.6044   -0.5822   -0.7769 C   0  0  0  0  0  0  0  0  0  0  0  0
  1  2  1  0
  1  5  1  0
  1  7  1  0
  2  3  1  0
  2  4  1  0
  3  4  1  0
  5  6  1  0
  5  9  1  0
  6  8  1  0
  8 10  1  0
 10 11  1  0
 11 12  1  0
 12 13  1  0
M  END
>  <PUBCHEM_COMPOUND_CID>  (1) 
27733

>  <PUBCHEM_CONFORMER_RMSD>  (1) 
0.8

>  <PUBCHEM_CONFORMER_DIVERSEORDER>  (1) 
34
91
30
66
106
113
27
31
57
102
81
14
82
94
112
1
56
28
118
115
10
48
95
63
103
105
32
13
4
37
116
61
50
12
75
5
36
67
59
96
74
87
11
43
117
104
22
93
15
98
45
84
90
77
8
97
76
52
16
46
99
26
42
25
71
49
62
79
6
47
2
107
86
88
69
100
80
18
64
20
92
41
111
73
44
35
78
33
70
65
51
101
39
23
89
54
7
53
21
29
68
108
85
110
58
40
109
114
60
55
17
9
38
24
19
3
72
83

>  <PUBCHEM_MMFF94_PARTIAL_CHARGES>  (1) 
11
1 -0.7
14 0.1
15 0.1
16 0.1
17 0.1
18 0.1
2 0.06
3 -0.2
4 -0.2
5 0.27
7 0.27

>  <PUBCHEM_EFFECTIVE_ROTOR_COUNT>  (1) 
7.6

>  <PUBCHEM_PHARMACOPHORE_FEATURES>  (1) 
3
1 1 cation
1 13 hydrophobe
5 6 8 10 11 12 hydrophobe

>  <PUBCHEM_HEAVY_ATOM_COUNT>  (1) 
13

>  <PUBCHEM_ATOM_DEF_STEREO_COUNT>  (1) 
0

>  <PUBCHEM_ATOM_UDEF_STEREO_COUNT>  (1) 
1

>  <PUBCHEM_BOND_DEF_STEREO_COUNT>  (1) 
0

>  <PUBCHEM_BOND_UDEF_STEREO_COUNT>  (1) 
0

>  <PUBCHEM_ISOTOPIC_ATOM_COUNT>  (1) 
0

>  <PUBCHEM_COMPONENT_COUNT>  (1) 
1

>  <PUBCHEM_CACTVS_TAUTO_COUNT>  (1) 
1

>  <PUBCHEM_CONFORMER_ID>  (1) 
00006C5500000022

>  <PUBCHEM_MMFF94_ENERGY>  (1) 
14.3563

>  <PUBCHEM_FEATURE_SELFOVERLAP>  (1) 
15.223

>  <PUBCHEM_SHAPE_FINGERPRINT>  (1) 
10680689 15 18335431136407426048
10726558 24 18191294993180942781
11127187 94 18409161143154442271
11543360 7 18335428984824015388
12500047 106 18266454317836512968
12757275 245 18410577296945945138
14251731 5 18125159582854280419
14251764 30 17606415494950189907
17834072 33 18334304201803803460
17834074 16 18343305842991210974
17870717 6 18342186535632210742
18186145 218 13623532351238216128
187816 3 18340758270180814261
200 152 16845567608655764556
20325693 3 18334581226176173134
20432913 95 15985107384360489550
20645476 183 17676481744448709827
20645477 56 18337394812097430304
20645477 70 16916786220288803126
20871998 22 17978789339885372747
20871999 31 18187639241261201295
21061003 4 17203611514225660592
21079973 296 18343577473860375952
22959321 105 18411140247226479072
23402539 116 18341041944054225493
23403322 49 18343582962354190150
23559900 14 18341603850499437888
2748010 2 18122325038120457313
4175511 318 17967525749222568149
559249 180 18118396247015009154
573450 72 18188197716233136538
58051976 100 18261112963331202524
7062679 117 18411144649805107094
8809292 202 18412544335921876946
9709674 26 18130230342019649654

>  <PUBCHEM_SHAPE_MULTIPOLES>  (1) 
262.55
8.85
2.27
0.93
15.43
0.32
-0.01
2.7
2.5
-2.91
0.1
-0.02
-0.12
0.4

>  <PUBCHEM_SHAPE_SELFOVERLAP>  (1) 
488.164

>  <PUBCHEM_SHAPE_VOLUME>  (1) 
167.8

>  <PUBCHEM_COORDINATE_TYPE>  (1) 
2
5
10

$$$$
