27748
     RDKit          3D

  9  9  0  0  1  0  0  0  0  0999 V2000
   -2.1151    0.1610    1.1603 O   0  0  0  0  0  0  0  0  0  0  0  0
   -2.1725    1.3173   -0.8280 N   0  0  0  0  0  0  0  0  0  0  0  0
    2.6874    1.5199   -0.0637 N   0  0  0  0  0  0  0  0  0  0  0  0
   -0.3588   -0.2920   -0.4774 C   0  0  0  0  0  0  0  0  0  0  0  0
    0.8686   -0.2948    0.4577 C   0  0  0  0  0  0  0  0  0  0  0  0
   -0.3289   -1.8323   -0.3953 C   0  0  0  0  0  0  0  0  0  0  0  0
    1.1755   -1.7098   -0.0758 C   0  0  0  0  0  0  0  0  0  0  0  0
   -1.6363    0.4123    0.0572 C   0  0  0  0  0  0  0  0  0  0  0  0
    1.8802    0.7185    0.1651 C   0  0  0  0  0  0  0  0  0  0  0  0
  1  8  2  0
  2  8  1  0
  3  9  3  0
  4  5  1  0
  4  6  1  0
  4  8  1  0
  5  7  1  0
  5  9  1  0
  6  7  1  0
M  END
>  <PUBCHEM_COMPOUND_CID>  (1) 
27748

>  <PUBCHEM_CONFORMER_RMSD>  (1) 
0.4

>  <PUBCHEM_CONFORMER_DIVERSEORDER>  (1) 
1
10
8
5
2
9
6
11
4
7
3

>  <PUBCHEM_MMFF94_PARTIAL_CHARGES>  (1) 
9
1 -0.57
16 0.37
17 0.37
2 -0.8
3 -0.56
4 0.05
5 0.18
8 0.58
9 0.38

>  <PUBCHEM_EFFECTIVE_ROTOR_COUNT>  (1) 
1.8

>  <PUBCHEM_PHARMACOPHORE_FEATURES>  (1) 
4
1 1 acceptor
1 2 donor
1 3 acceptor
4 4 5 6 7 rings

>  <PUBCHEM_HEAVY_ATOM_COUNT>  (1) 
9

>  <PUBCHEM_ATOM_DEF_STEREO_COUNT>  (1) 
2

>  <PUBCHEM_ATOM_UDEF_STEREO_COUNT>  (1) 
0

>  <PUBCHEM_BOND_DEF_STEREO_COUNT>  (1) 
0

>  <PUBCHEM_BOND_UDEF_STEREO_COUNT>  (1) 
0

>  <PUBCHEM_ISOTOPIC_ATOM_COUNT>  (1) 
0

>  <PUBCHEM_COMPONENT_COUNT>  (1) 
1

>  <PUBCHEM_CACTVS_TAUTO_COUNT>  (1) 
2

>  <PUBCHEM_CONFORMER_ID>  (1) 
00006C6400000001

>  <PUBCHEM_MMFF94_ENERGY>  (1) 
13.1516

>  <PUBCHEM_FEATURE_SELFOVERLAP>  (1) 
20.297

>  <PUBCHEM_SHAPE_FINGERPRINT>  (1) 
19973954 147 18192991513452026405
21028194 46 18411135878801523488
21040471 1 18341884225563275522
23211744 41 18114466682160696203
29004967 10 17907302044031369779
5084963 1 18058997389891457343

>  <PUBCHEM_SHAPE_MULTIPOLES>  (1) 
169.38
3.12
1.82
0.84
0.11
0.54
-0.09
-1.94
-0.11
0.6
0.29
-0.38
-0.06
0.1

>  <PUBCHEM_SHAPE_SELFOVERLAP>  (1) 
336.391

>  <PUBCHEM_SHAPE_VOLUME>  (1) 
99.9

>  <PUBCHEM_COORDINATE_TYPE>  (1) 
2
5
10

$$$$
