27742
     RDKit          3D

 13 13  0  0  0  0  0  0  0  0999 V2000
    3.0438    2.2774   -1.1238 S   0  0  0  0  0  0  0  0  0  0  0  0
   -0.2453   -1.5195   -0.0242 N   0  0  0  0  0  0  0  0  0  0  0  0
    1.6898   -0.1497    0.1710 N   0  0  0  0  0  0  0  0  0  0  0  0
    1.7880   -2.5277    0.0176 N   0  0  0  0  0  0  0  0  0  0  0  0
   -1.3051   -0.5893    0.0132 C   0  0  0  0  0  0  0  0  0  0  0  0
    3.1428   -0.0996    0.2528 C   0  0  0  0  0  0  0  0  0  0  0  0
    1.1264   -1.3140    0.0567 C   0  0  0  0  0  0  0  0  0  0  0  0
   -2.4976   -0.8642   -0.6559 C   0  0  0  0  0  0  0  0  0  0  0  0
   -1.1610    0.6046    0.7199 C   0  0  0  0  0  0  0  0  0  0  0  0
    3.5764    1.3548    0.3449 C   0  0  0  0  0  0  0  0  0  0  0  0
   -3.5462    0.0548   -0.6182 C   0  0  0  0  0  0  0  0  0  0  0  0
   -2.2096    1.5236    0.7575 C   0  0  0  0  0  0  0  0  0  0  0  0
   -3.4023    1.2488    0.0885 C   0  0  0  0  0  0  0  0  0  0  0  0
  1 10  1  0
  2  5  1  0
  2  7  1  0
  3  6  1  0
  3  7  2  0
  4  7  1  0
  5  8  2  0
  5  9  1  0
  6 10  1  0
  8 11  1  0
  9 12  2  0
 11 13  2  0
 12 13  1  0
M  END
>  <PUBCHEM_COMPOUND_CID>  (1) 
27742

>  <PUBCHEM_CONFORMER_RMSD>  (1) 
0.6

>  <PUBCHEM_CONFORMER_DIVERSEORDER>  (1) 
1
26
7
15
28
43
33
6
39
44
17
41
10
4
14
42
18
31
3
48
27
2
36
45
19
16
13
46
5
47
25
37
29
23
9
40
8
35
22
21
20
24
30
12
34
38
32
11

>  <PUBCHEM_MMFF94_PARTIAL_CHARGES>  (1) 
22
1 -0.41
10 0.23
11 -0.15
12 -0.15
13 -0.15
14 0.4
17 0.15
18 0.15
2 -0.55
21 0.15
22 0.15
23 0.15
24 0.4
25 0.4
26 0.18
3 -0.7
4 -0.85
5 0.1
6 0.25
7 0.55
8 -0.15
9 -0.15

>  <PUBCHEM_EFFECTIVE_ROTOR_COUNT>  (1) 
4

>  <PUBCHEM_PHARMACOPHORE_FEATURES>  (1) 
4
1 2 donor
1 4 donor
4 2 3 4 7 cation
6 5 8 9 11 12 13 rings

>  <PUBCHEM_HEAVY_ATOM_COUNT>  (1) 
13

>  <PUBCHEM_ATOM_DEF_STEREO_COUNT>  (1) 
0

>  <PUBCHEM_ATOM_UDEF_STEREO_COUNT>  (1) 
0

>  <PUBCHEM_BOND_DEF_STEREO_COUNT>  (1) 
0

>  <PUBCHEM_BOND_UDEF_STEREO_COUNT>  (1) 
0

>  <PUBCHEM_ISOTOPIC_ATOM_COUNT>  (1) 
0

>  <PUBCHEM_COMPONENT_COUNT>  (1) 
1

>  <PUBCHEM_CACTVS_TAUTO_COUNT>  (1) 
3

>  <PUBCHEM_CONFORMER_ID>  (1) 
00006C5E00000001

>  <PUBCHEM_MMFF94_ENERGY>  (1) 
42.102

>  <PUBCHEM_FEATURE_SELFOVERLAP>  (1) 
20.356

>  <PUBCHEM_SHAPE_FINGERPRINT>  (1) 
10149128 111 18408888464144276612
12162725 195 18411133628154134434
12932764 1 17532654525340226443
13618510 140 18335990873414313956
14250199 8 18340209570374830567
14415576 193 18410292506175211420
14897335 6 18341325630580254234
15342168 16 18260556631922806965
15775835 57 18343303656172310256
170605 34 18334574629222665538
18186145 218 18338235968403891214
19107657 9 18337118946527129044
20449540 30 18411417332635791533
20539926 19 18263373640958859524
20671657 1 18410860923822642534
21499 59 18336545014246957580
21524375 3 18336824286132422050
22485316 2 9871755684627033886
2255824 54 18265053535622627874
23552423 10 18197774410629059739
25610 137 18413108394414807875
474 4 18260550034673477400
5262128 65 16343153531566177888
537710 114 18342738541930015617
57096353 35 18201708587760426853
6333272 397 18334859467116382386
7364860 26 18200593575659450398
8199 26 18118690061311688756

>  <PUBCHEM_SHAPE_MULTIPOLES>  (1) 
256.44
6.86
2.32
0.89
1.23
0.32
0.09
-3.49
0.77
1.53
0.25
0.03
-0.33
-0.91

>  <PUBCHEM_SHAPE_SELFOVERLAP>  (1) 
506.637

>  <PUBCHEM_SHAPE_VOLUME>  (1) 
153.4

>  <PUBCHEM_COORDINATE_TYPE>  (1) 
2
5
10

$$$$
