27751
     RDKit          3D

 26 28  0  0  0  0  0  0  0  0999 V2000
    0.0001    1.1923   -0.2263 O   0  0  0  0  0  0  0  0  0  0  0  0
   -2.5441    1.1839   -0.2256 O   0  0  0  0  0  0  0  0  0  0  0  0
    2.5441    1.1842   -0.2255 O   0  0  0  0  0  0  0  0  0  0  0  0
    0.0016    0.9655   -2.5562 O   0  0  0  0  0  0  0  0  0  0  0  0
   -3.7100    1.2118    1.8041 O   0  0  0  0  0  0  0  0  0  0  0  0
    3.7064    1.2123    1.8064 O   0  0  0  0  0  0  0  0  0  0  0  0
   -1.2249   -0.8601   -0.0702 C   0  0  0  0  0  0  0  0  0  0  0  0
    1.2252   -0.8599   -0.0702 C   0  0  0  0  0  0  0  0  0  0  0  0
   -1.2248   -2.2682    0.0371 C   0  0  0  0  0  0  0  0  0  0  0  0
    1.2253   -2.2680    0.0370 C   0  0  0  0  0  0  0  0  0  0  0  0
    0.0002   -0.1744   -0.1225 C   0  0  0  0  0  0  0  0  0  0  0  0
    0.0003   -2.9538    0.0893 C   0  0  0  0  0  0  0  0  0  0  0  0
   -2.4504   -0.1753   -0.1225 C   0  0  0  0  0  0  0  0  0  0  0  0
    2.4505   -0.1749   -0.1225 C   0  0  0  0  0  0  0  0  0  0  0  0
   -2.4502   -2.9531    0.0893 C   0  0  0  0  0  0  0  0  0  0  0  0
    2.4508   -2.9527    0.0892 C   0  0  0  0  0  0  0  0  0  0  0  0
   -3.6585   -0.8706   -0.0696 C   0  0  0  0  0  0  0  0  0  0  0  0
    3.6588   -0.8701   -0.0697 C   0  0  0  0  0  0  0  0  0  0  0  0
   -3.6585   -2.2578    0.0362 C   0  0  0  0  0  0  0  0  0  0  0  0
    3.6590   -2.2573    0.0361 C   0  0  0  0  0  0  0  0  0  0  0  0
   -0.0002    1.6581   -1.5472 C   0  0  0  0  0  0  0  0  0  0  0  0
   -3.2225    1.7898    0.8419 C   0  0  0  0  0  0  0  0  0  0  0  0
    3.2223    1.7901    0.8422 C   0  0  0  0  0  0  0  0  0  0  0  0
   -0.0002    3.1580   -1.5538 C   0  0  0  0  0  0  0  0  0  0  0  0
   -3.2718    3.2748    0.6363 C   0  0  0  0  0  0  0  0  0  0  0  0
    3.2714    3.2752    0.6369 C   0  0  0  0  0  0  0  0  0  0  0  0
  1 11  1  0
  1 21  1  0
  2 13  1  0
  2 22  1  0
  3 14  1  0
  3 23  1  0
  4 21  2  0
  5 22  2  0
  6 23  2  0
  7  9  1  0
  7 11  2  0
  7 13  1  0
  8 10  2  0
  8 11  1  0
  8 14  1  0
  9 12  2  0
  9 15  1  0
 10 12  1  0
 10 16  1  0
 13 17  2  0
 14 18  2  0
 15 19  2  0
 16 20  2  0
 17 19  1  0
 18 20  1  0
 21 24  1  0
 22 25  1  0
 23 26  1  0
M  END
>  <PUBCHEM_COMPOUND_CID>  (1) 
27751

>  <PUBCHEM_CONFORMER_RMSD>  (1) 
0.8

>  <PUBCHEM_CONFORMER_DIVERSEORDER>  (1) 
1
8
6
14
7
11
10
5
9
13
2
12
4
3

>  <PUBCHEM_MMFF94_PARTIAL_CHARGES>  (1) 
29
1 -0.23
11 0.08
12 -0.15
13 0.08
14 0.08
15 -0.15
16 -0.15
17 -0.15
18 -0.15
19 -0.15
2 -0.23
20 -0.15
21 0.66
22 0.66
23 0.66
24 0.06
25 0.06
26 0.06
27 0.15
28 0.15
29 0.15
3 -0.23
30 0.15
31 0.15
32 0.15
33 0.15
4 -0.57
5 -0.57
6 -0.57

>  <PUBCHEM_EFFECTIVE_ROTOR_COUNT>  (1) 
6

>  <PUBCHEM_PHARMACOPHORE_FEATURES>  (1) 
6
1 4 acceptor
1 5 acceptor
1 6 acceptor
6 7 8 9 10 11 12 rings
6 7 9 13 15 17 19 rings
6 8 10 14 16 18 20 rings

>  <PUBCHEM_HEAVY_ATOM_COUNT>  (1) 
26

>  <PUBCHEM_ATOM_DEF_STEREO_COUNT>  (1) 
0

>  <PUBCHEM_ATOM_UDEF_STEREO_COUNT>  (1) 
0

>  <PUBCHEM_BOND_DEF_STEREO_COUNT>  (1) 
0

>  <PUBCHEM_BOND_UDEF_STEREO_COUNT>  (1) 
0

>  <PUBCHEM_ISOTOPIC_ATOM_COUNT>  (1) 
0

>  <PUBCHEM_COMPONENT_COUNT>  (1) 
1

>  <PUBCHEM_CACTVS_TAUTO_COUNT>  (1) 
1

>  <PUBCHEM_CONFORMER_ID>  (1) 
00006C6700000001

>  <PUBCHEM_MMFF94_ENERGY>  (1) 
97.1325

>  <PUBCHEM_FEATURE_SELFOVERLAP>  (1) 
30.499

>  <PUBCHEM_SHAPE_FINGERPRINT>  (1) 
10708813 3 18411708681167393809
10967382 1 18120374508250088982
1100329 8 18197219135438844144
11370993 70 18341038705184426728
12403259 226 18336257930280913262
12633257 1 18267016146687224426
12930653 34 18270959162761702528
13140716 1 18337108973280771490
133893 2 16372709576419476309
13965767 371 18189893115322837065
14081887 123 18127400370445152467
14178342 30 18337110162991545352
14223421 5 18411979203982689819
14787075 74 17626097912252912049
14790565 3 17834411029254773476
16728300 4 13586038338504754992
16945 1 18047479103563287502
19591789 44 17545325172499841863
19930381 70 18125150795482730809
20510252 161 18126568061628169147
20691752 17 17822011995225609402
21033648 29 18192706740093900745
21756936 100 17555439993125094168
2334 1 18335702775218367590
23558518 356 18336270114992213027
23559900 14 18342170090133797282
238 59 17398350206324854333
2748010 2 18335137604846040614
335352 9 17978794514952342550
3380486 77 16733804519603982250
350125 39 18411986861909586595
392239 28 17912362327228113833
5104073 3 18410571743685601338
6287921 2 18337683004428729108
6992083 37 18262247620803059711
81228 2 18186235151695417370
90316 7 17750492092549094324

>  <PUBCHEM_SHAPE_MULTIPOLES>  (1) 
499.85
6.96
4.54
1.28
0
0.82
0.36
0.95
-2.63
0
-0.15
0
1.14
0

>  <PUBCHEM_SHAPE_SELFOVERLAP>  (1) 
1106.511

>  <PUBCHEM_SHAPE_VOLUME>  (1) 
263.9

>  <PUBCHEM_COORDINATE_TYPE>  (1) 
2
5
10

$$$$
