27755
     RDKit          3D

 28 31  0  0  1  0  0  0  0  0999 V2000
   -2.6205    0.7066    1.9995 S   0  0  0  0  0  0  0  0  0  0  0  0
    4.9798   -2.0203   -0.9438 S   0  0  0  0  0  0  0  0  0  0  0  0
   -2.2506   -2.9310   -0.4437 O   0  0  0  0  0  0  0  0  0  0  0  0
   -3.7990   -0.2006   -2.4186 O   0  0  0  0  0  0  0  0  0  0  0  0
   -5.8878   -0.0028   -1.5275 O   0  0  0  0  0  0  0  0  0  0  0  0
    1.6505   -0.9821    2.1564 O   0  0  0  0  0  0  0  0  0  0  0  0
   -2.5535   -0.5991   -0.2402 N   0  0  0  0  0  0  0  0  0  0  0  0
    0.4887   -1.2157    0.1790 N   0  0  0  0  0  0  0  0  0  0  0  0
    4.7477   -0.3762   -1.0187 N   0  0  0  0  0  0  0  0  0  0  0  0
   -1.5975    0.1339    0.5955 C   0  0  0  0  0  0  0  0  0  0  0  0
   -4.1177    0.8376    0.9010 C   0  0  0  0  0  0  0  0  0  0  0  0
   -3.9754   -0.3572   -0.0680 C   0  0  0  0  0  0  0  0  0  0  0  0
   -0.8457   -1.1904    0.7853 C   0  0  0  0  0  0  0  0  0  0  0  0
   -1.9420   -1.8118   -0.1020 C   0  0  0  0  0  0  0  0  0  0  0  0
   -5.3780    0.7194    1.7603 C   0  0  0  0  0  0  0  0  0  0  0  0
   -4.0777    2.2096    0.2125 C   0  0  0  0  0  0  0  0  0  0  0  0
   -4.6841   -0.1653   -1.3926 C   0  0  0  0  0  0  0  0  0  0  0  0
    1.6641   -1.1066    0.9322 C   0  0  0  0  0  0  0  0  0  0  0  0
    2.9254   -1.1794    0.1829 C   0  0  0  0  0  0  0  0  0  0  0  0
    3.6179   -0.0897   -0.3762 C   0  0  0  0  0  0  0  0  0  0  0  0
    3.5617   -2.3620   -0.0458 C   0  0  0  0  0  0  0  0  0  0  0  0
    3.2058    1.2949   -0.3085 C   0  0  0  0  0  0  0  0  0  0  0  0
    3.2292   -3.7493    0.3337 C   0  0  0  0  0  0  0  0  0  0  0  0
    3.6294    2.0868    0.7521 C   0  0  0  0  0  0  0  0  0  0  0  0
    2.3908    1.8187   -1.3049 C   0  0  0  0  0  0  0  0  0  0  0  0
    3.2317    3.4222    0.8176 C   0  0  0  0  0  0  0  0  0  0  0  0
    1.9932    3.1541   -1.2394 C   0  0  0  0  0  0  0  0  0  0  0  0
    2.4138    3.9558   -0.1782 C   0  0  0  0  0  0  0  0  0  0  0  0
  1 10  1  0
  1 11  1  0
  2  9  1  0
  2 21  1  0
  3 14  2  0
  4 17  1  0
  5 17  2  0
  6 18  2  0
  7 10  1  0
  7 12  1  0
  7 14  1  0
  8 13  1  0
  8 18  1  0
  9 20  2  0
 10 13  1  0
 11 12  1  0
 11 15  1  0
 11 16  1  0
 12 17  1  0
 13 14  1  0
 18 19  1  0
 19 20  1  0
 19 21  2  0
 20 22  1  0
 21 23  1  0
 22 24  2  0
 22 25  1  0
 24 26  1  0
 25 27  2  0
 26 28  2  0
 27 28  1  0
M  END
>  <PUBCHEM_COMPOUND_CID>  (1) 
27755

>  <PUBCHEM_CONFORMER_RMSD>  (1) 
0.8

>  <PUBCHEM_CONFORMER_DIVERSEORDER>  (1) 
8
33
76
32
48
90
127
86
135
149
9
111
64
110
67
123
153
150
129
126
106
116
51
141
124
91
80
83
77
131
6
54
27
118
146
29
143
38
148
140
26
95
147
70
14
93
46
71
11
98
56
154
55
102
114
31
45
74
17
28
121
68
120
18
52
152
39
12
30
2
37
66
119
47
97
75
79
36
23
69
49
15
117
101
134
145
59
125
85
58
107
104
108
50
88
130
13
78
73
72
99
94
41
136
109
65
103
82
16
96
87
137
144
22
133
89
1
19
25
115
57
139
138
34
35
53
40
24
44
43
122
3
142
20
7
151
10
81
128
100
4
112
132
42
92
60
84
5
105
113
21
63
61
62

>  <PUBCHEM_MMFF94_PARTIAL_CHARGES>  (1) 
33
1 -0.45
10 0.44
11 0.23
12 0.36
13 0.28
14 0.58
17 0.66
18 0.72
19 -0.09
2 0.18
20 0.23
21 -0.14
22 0.05
23 0.18
24 -0.15
25 -0.15
26 -0.15
27 -0.15
28 -0.15
3 -0.57
38 0.37
39 0.5
4 -0.65
43 0.15
44 0.15
45 0.15
46 0.15
47 0.15
5 -0.57
6 -0.57
7 -0.59
8 -0.65
9 -0.51

>  <PUBCHEM_EFFECTIVE_ROTOR_COUNT>  (1) 
5.8

>  <PUBCHEM_PHARMACOPHORE_FEATURES>  (1) 
12
1 3 acceptor
1 4 acceptor
1 5 acceptor
1 6 acceptor
1 8 donor
1 9 acceptor
3 11 15 16 hydrophobe
3 4 5 17 anion
4 7 10 13 14 rings
5 2 9 19 20 21 rings
6 22 24 25 26 27 28 rings
7 1 7 10 11 12 13 14 rings

>  <PUBCHEM_HEAVY_ATOM_COUNT>  (1) 
28

>  <PUBCHEM_ATOM_DEF_STEREO_COUNT>  (1) 
0

>  <PUBCHEM_ATOM_UDEF_STEREO_COUNT>  (1) 
3

>  <PUBCHEM_BOND_DEF_STEREO_COUNT>  (1) 
0

>  <PUBCHEM_BOND_UDEF_STEREO_COUNT>  (1) 
0

>  <PUBCHEM_ISOTOPIC_ATOM_COUNT>  (1) 
0

>  <PUBCHEM_COMPONENT_COUNT>  (1) 
1

>  <PUBCHEM_CACTVS_TAUTO_COUNT>  (1) 
2

>  <PUBCHEM_CONFORMER_ID>  (1) 
00006C6B00000008

>  <PUBCHEM_MMFF94_ENERGY>  (1) 
76.4576

>  <PUBCHEM_FEATURE_SELFOVERLAP>  (1) 
64.695

>  <PUBCHEM_SHAPE_FINGERPRINT>  (1) 
11595378 159 12973600028426914711
12166972 35 18272931583589956537
12616971 3 18201445748878947953
12788726 201 17059799748589188425
13533116 47 18341894134179662173
13583140 156 18116455720175987443
13590594 115 18265060137287828024
14848178 96 18263082278693165668
15081414 286 18261401052827152796
15210252 30 17750255680997085956
15274700 232 15960901291588118679
15420108 30 18199735016682751610
17349148 13 17989210308939885263
18335252 114 18193271885149812261
20567600 299 18412268371805230648
21033648 144 18410571824819896469
21033648 29 17530679909835964309
21033650 10 16557093110915834416
21133410 127 17897164830503173157
21133410 62 16957879200278664061
21304303 282 17051586633601099020
21860390 5 18412268346082478044
22122407 14 18194423121137494961
221357 26 18261107418175086908
22289505 5 18186799137279341398
22749437 52 18120374508471628544
22907989 373 17702104866681146759
23559900 14 18412821413015970594
3388396 114 18200591522417942553
340366 18 18271537411584051430
474 4 18189336938717269264
5081480 168 18336839597495725516
508706 21 17603863348089163293
574716 61 18271514403496611341
9981440 41 17834393802251589792

>  <PUBCHEM_SHAPE_MULTIPOLES>  (1) 
545.51
12.1
4.13
1.67
9.32
1.92
0.08
-0.35
2.29
-6.14
0.1
1.69
0.21
-0.78

>  <PUBCHEM_SHAPE_SELFOVERLAP>  (1) 
1158.617

>  <PUBCHEM_SHAPE_VOLUME>  (1) 
309.2

>  <PUBCHEM_COORDINATE_TYPE>  (1) 
2
5
10

$$$$
