27765
     RDKit          3D

 16 17  0  0  1  0  0  0  0  0999 V2000
   -2.4949   -0.3858    0.6961 O   0  0  0  0  0  0  0  0  0  0  0  0
   -2.6544   -0.8220   -1.5983 O   0  0  0  0  0  0  0  0  0  0  0  0
    2.4962   -0.7860   -0.0825 N   0  0  0  0  0  0  0  0  0  0  0  0
    1.6977   -1.5194    0.9073 C   0  0  0  0  0  0  0  0  0  0  0  0
    0.2054   -1.3236    0.6203 C   0  0  0  0  0  0  0  0  0  0  0  0
    2.2901    0.6651    0.0713 C   0  0  0  0  0  0  0  0  0  0  0  0
   -0.1626    0.1196    0.3943 C   0  0  0  0  0  0  0  0  0  0  0  0
    0.8321    1.0638    0.0870 C   0  0  0  0  0  0  0  0  0  0  0  0
    3.9151   -1.1153    0.0482 C   0  0  0  0  0  0  0  0  0  0  0  0
   -1.5060    0.5150    0.4305 C   0  0  0  0  0  0  0  0  0  0  0  0
    0.4702    2.3980   -0.1432 C   0  0  0  0  0  0  0  0  0  0  0  0
    4.7387   -0.4328   -1.0307 C   0  0  0  0  0  0  0  0  0  0  0  0
   -1.8564    1.8431    0.1888 C   0  0  0  0  0  0  0  0  0  0  0  0
   -0.8692    2.7838   -0.0956 C   0  0  0  0  0  0  0  0  0  0  0  0
   -3.0129   -1.0183   -0.4447 C   0  0  0  0  0  0  0  0  0  0  0  0
   -4.0890   -1.9853   -0.0489 C   0  0  0  0  0  0  0  0  0  0  0  0
  1 10  1  0
  1 15  1  0
  2 15  2  0
  3  4  1  0
  3  6  1  0
  3  9  1  0
  4  5  1  0
  5  7  1  0
  6  8  1  0
  7  8  2  0
  7 10  1  0
  8 11  1  0
  9 12  1  0
 10 13  2  0
 11 14  2  0
 13 14  1  0
 15 16  1  0
M  END
>  <PUBCHEM_COMPOUND_CID>  (1) 
27765

>  <PUBCHEM_CONFORMER_RMSD>  (1) 
0.6

>  <PUBCHEM_CONFORMER_DIVERSEORDER>  (1) 
1
44
26
45
8
33
47
36
12
22
24
42
4
39
48
6
46
35
29
19
30
49
13
17
38
20
14
23
40
34
10
11
41
9
15
18
31
37
32
5
7
43
27
25
2
3
28
21
16

>  <PUBCHEM_MMFF94_PARTIAL_CHARGES>  (1) 
18
1 -0.23
10 0.08
11 -0.15
13 -0.15
14 -0.15
15 0.66
16 0.06
2 -0.57
25 0.15
29 0.15
3 -0.81
30 0.15
4 0.27
5 0.14
6 0.41
7 -0.14
8 -0.14
9 0.27

>  <PUBCHEM_EFFECTIVE_ROTOR_COUNT>  (1) 
3.8

>  <PUBCHEM_PHARMACOPHORE_FEATURES>  (1) 
4
1 2 acceptor
1 3 cation
6 3 4 5 6 7 8 rings
6 7 8 10 11 13 14 rings

>  <PUBCHEM_HEAVY_ATOM_COUNT>  (1) 
16

>  <PUBCHEM_ATOM_DEF_STEREO_COUNT>  (1) 
0

>  <PUBCHEM_ATOM_UDEF_STEREO_COUNT>  (1) 
0

>  <PUBCHEM_BOND_DEF_STEREO_COUNT>  (1) 
0

>  <PUBCHEM_BOND_UDEF_STEREO_COUNT>  (1) 
0

>  <PUBCHEM_ISOTOPIC_ATOM_COUNT>  (1) 
0

>  <PUBCHEM_COMPONENT_COUNT>  (1) 
1

>  <PUBCHEM_CACTVS_TAUTO_COUNT>  (1) 
1

>  <PUBCHEM_CONFORMER_ID>  (1) 
00006C7500000001

>  <PUBCHEM_MMFF94_ENERGY>  (1) 
38.73

>  <PUBCHEM_FEATURE_SELFOVERLAP>  (1) 
20.319

>  <PUBCHEM_SHAPE_FINGERPRINT>  (1) 
10062212 137 18044371635037947930
10967382 1 18121218946091139392
10989021 7 18340486763274538785
11206711 2 18261954055219214684
11680986 33 18048884292418834898
11806522 49 18337953493053163352
12032990 46 18410857697832730770
12202030 40 16916505835553381470
12403259 327 14836128809718200527
12553582 1 18410287021565784739
13583140 156 14979679828032661866
15669948 3 18193553363840734752
16945 1 18334012825935646664
200 152 18259419723750936198
20291156 8 18342173414317295039
20300324 65 18339089198771210988
20361792 2 18270951440626567767
20645477 70 18049710009125975335
20671657 53 18410572924447581351
20871998 184 18200594674864817861
20871999 31 18334854991955567533
21296965 67 18412259571100424681
21501502 16 18045499721056666394
21634736 98 18338797947995539958
22112679 90 18201454596337835601
221490 88 17974293428091804227
2334 1 18408884057339279376
23402539 116 18335984177924036486
23557571 272 18130232540921312812
23559900 14 18054224329265789122
2748010 2 18337657694097250737
2871803 45 18408316700696365870
3071541 250 18338801246561948101
34934 24 18191025608046676841
449060 23 18202004317506992686
57096353 35 18187096031283518646
603831 33 18260546680594306130
7364860 26 18054787548741918641
7615 1 17751069211810459618
7970288 3 18341328976302762703
81228 2 18195230145022531017
84936 182 11026610156561827671

>  <PUBCHEM_SHAPE_MULTIPOLES>  (1) 
312.55
6.74
2.59
0.93
3.44
1.52
-0.19
-4.66
-1.97
-1.37
0.05
-0.04
-0.25
-0.39

>  <PUBCHEM_SHAPE_SELFOVERLAP>  (1) 
652.882

>  <PUBCHEM_SHAPE_VOLUME>  (1) 
176.5

>  <PUBCHEM_COORDINATE_TYPE>  (1) 
2
5
10

$$$$
