27767
     RDKit          3D

 21 24  0  0  0  0  0  0  0  0999 V2000
   -2.2146   -3.4229    1.3241 Br  0  0  0  0  0  0  0  0  0  0  0  0
    0.5866    0.2213   -0.0485 C   0  0  0  0  0  0  0  0  0  0  0  0
    0.0307   -1.0721   -0.2047 C   0  0  0  0  0  0  0  0  0  0  0  0
   -0.3295    1.3001    0.0462 C   0  0  0  0  0  0  0  0  0  0  0  0
   -1.3625   -1.2517   -0.2602 C   0  0  0  0  0  0  0  0  0  0  0  0
   -1.7257    1.1257   -0.0088 C   0  0  0  0  0  0  0  0  0  0  0  0
   -2.2488   -0.1705   -0.1645 C   0  0  0  0  0  0  0  0  0  0  0  0
    2.0191    0.3688    0.0045 C   0  0  0  0  0  0  0  0  0  0  0  0
    2.8387   -0.7852   -0.1009 C   0  0  0  0  0  0  0  0  0  0  0  0
    0.8704   -2.1847   -0.3052 C   0  0  0  0  0  0  0  0  0  0  0  0
    2.2531   -2.0437   -0.2541 C   0  0  0  0  0  0  0  0  0  0  0  0
    0.0940    2.7310    0.2153 C   0  0  0  0  0  0  0  0  0  0  0  0
   -1.9287   -2.6382   -0.4272 C   0  0  0  0  0  0  0  0  0  0  0  0
   -2.6096    2.2144    0.0879 C   0  0  0  0  0  0  0  0  0  0  0  0
   -3.6415   -0.3516   -0.2201 C   0  0  0  0  0  0  0  0  0  0  0  0
    2.6873    1.6097    0.1579 C   0  0  0  0  0  0  0  0  0  0  0  0
    4.2390   -0.6761   -0.0528 C   0  0  0  0  0  0  0  0  0  0  0  0
   -3.9902    2.0212    0.0312 C   0  0  0  0  0  0  0  0  0  0  0  0
   -4.5058    0.7386   -0.1228 C   0  0  0  0  0  0  0  0  0  0  0  0
    4.0810    1.7047    0.2041 C   0  0  0  0  0  0  0  0  0  0  0  0
    4.8571    0.5612    0.0987 C   0  0  0  0  0  0  0  0  0  0  0  0
  1 13  1  0
  2  3  1  0
  2  4  2  0
  2  8  1  0
  3  5  2  0
  3 10  1  0
  4  6  1  0
  4 12  1  0
  5  7  1  0
  5 13  1  0
  6  7  2  0
  6 14  1  0
  7 15  1  0
  8  9  2  0
  8 16  1  0
  9 11  1  0
  9 17  1  0
 10 11  2  0
 14 18  2  0
 15 19  2  0
 16 20  2  0
 17 21  2  0
 18 19  1  0
 20 21  1  0
M  END
>  <PUBCHEM_COMPOUND_CID>  (1) 
27767

>  <PUBCHEM_CONFORMER_RMSD>  (1) 
0.6

>  <PUBCHEM_CONFORMER_DIVERSEORDER>  (1) 
2
1

>  <PUBCHEM_MMFF94_PARTIAL_CHARGES>  (1) 
25
1 -0.23
10 -0.15
11 -0.15
12 0.14
13 0.37
14 -0.15
15 -0.15
16 -0.15
17 -0.15
18 -0.15
19 -0.15
20 -0.15
21 -0.15
22 0.15
23 0.15
29 0.15
30 0.15
31 0.15
32 0.15
33 0.15
34 0.15
35 0.15
36 0.15
4 -0.14
5 -0.14

>  <PUBCHEM_EFFECTIVE_ROTOR_COUNT>  (1) 
1

>  <PUBCHEM_PHARMACOPHORE_FEATURES>  (1) 
5
1 1 hydrophobe
6 2 3 4 5 6 7 rings
6 2 3 8 9 10 11 rings
6 6 7 14 15 18 19 rings
6 8 9 16 17 20 21 rings

>  <PUBCHEM_HEAVY_ATOM_COUNT>  (1) 
21

>  <PUBCHEM_ATOM_DEF_STEREO_COUNT>  (1) 
0

>  <PUBCHEM_ATOM_UDEF_STEREO_COUNT>  (1) 
0

>  <PUBCHEM_BOND_DEF_STEREO_COUNT>  (1) 
0

>  <PUBCHEM_BOND_UDEF_STEREO_COUNT>  (1) 
0

>  <PUBCHEM_ISOTOPIC_ATOM_COUNT>  (1) 
0

>  <PUBCHEM_COMPONENT_COUNT>  (1) 
1

>  <PUBCHEM_CACTVS_TAUTO_COUNT>  (1) 
1

>  <PUBCHEM_CONFORMER_ID>  (1) 
00006C7700000002

>  <PUBCHEM_MMFF94_ENERGY>  (1) 
107.8053

>  <PUBCHEM_FEATURE_SELFOVERLAP>  (1) 
25.446

>  <PUBCHEM_SHAPE_FINGERPRINT>  (1) 
10319926 262 18268973424225710354
10411042 1 17690840485465343310
10493431 412 18341619183437745441
10608611 8 18412543197766112356
10616163 171 18339643446530378214
10906281 52 18270697414907333925
10967382 1 18412262796520656716
1100329 8 18338800121096283641
11112241 14 16197591463534484536
11370993 70 18410852127249396909
11578080 2 13541094237251627345
11680986 33 18339653256336045470
12403814 3 17749104478741466045
13140716 1 18051138283024608593
138480 1 17402331473447161167
14178342 30 18263072361750381186
14223421 5 18267588103007697706
14787075 74 18343014485236404989
14790565 3 18197223551077570873
15042514 8 18336270162458217339
15196674 1 18412543180433223436
15420108 30 15323378070376699568
15536298 74 18272088241028499772
16087824 20 18341046420359941247
16945 1 18339084890576134693
19591789 44 18339079268310989359
20510252 161 18200031733607092681
20602899 9 15913324702083037207
20715895 44 17831287303645969245
20739085 24 17976850608686097777
21033648 29 18261940861027693933
21041028 32 17903363950248129051
21267235 1 18412551985110886038
22182313 1 18200052727402188262
23227448 37 18413386557370184535
2334 1 18268147741773435822
23402539 116 18272078383867643557
23493267 7 18334008419383785570
23557571 272 18342186608546440838
23558518 356 17899136284661973808
23559900 14 18271805658441207382
2748010 2 18341897454099632998
335352 9 18340205168566115486
34934 24 18411412912629108222
350125 39 18122630719290306905
4340502 62 16950569840032978379
474 4 17967538995133992828
5104073 3 18411136900792679218
59755656 215 18341335488289795758
633830 44 18056195765929510205
69090 78 18411978035862303117
7097593 13 17898551113181318410
7364860 26 18199468758163325430
8809292 202 18335984250268658427
9709674 26 18341898480486280934
9981440 41 18411129255862298490

>  <PUBCHEM_SHAPE_MULTIPOLES>  (1) 
438.11
8.14
3.48
0.76
3.63
1.47
-0.12
-2.54
-0.2
-2.22
-0.69
-0.23
0.37
0.65

>  <PUBCHEM_SHAPE_SELFOVERLAP>  (1) 
983.264

>  <PUBCHEM_SHAPE_VOLUME>  (1) 
234.5

>  <PUBCHEM_COORDINATE_TYPE>  (1) 
2
5
10

$$$$
