27787
     RDKit          3D

 10 10  0  0  0  0  0  0  0  0999 V2000
    2.7228   -1.1807   -0.5134 N   0  0  0  0  0  0  0  0  0  0  0  0
    2.6438    1.1687   -0.5689 N   0  0  0  0  0  0  0  0  0  0  0  0
   -0.1715    0.0043    0.5145 C   0  0  0  0  0  0  0  0  0  0  0  0
    1.2224    0.0155    1.0451 C   0  0  0  0  0  0  0  0  0  0  0  0
   -0.8352    1.2071    0.2724 C   0  0  0  0  0  0  0  0  0  0  0  0
   -0.8113   -1.2088    0.2599 C   0  0  0  0  0  0  0  0  0  0  0  0
    2.2608    0.0318   -0.0702 C   0  0  0  0  0  0  0  0  0  0  0  0
   -2.1386    1.1970   -0.2241 C   0  0  0  0  0  0  0  0  0  0  0  0
   -2.1148   -1.2189   -0.2367 C   0  0  0  0  0  0  0  0  0  0  0  0
   -2.7784   -0.0160   -0.4787 C   0  0  0  0  0  0  0  0  0  0  0  0
  1  7  1  0
  2  7  2  0
  3  4  1  0
  3  5  2  0
  3  6  1  0
  4  7  1  0
  5  8  1  0
  6  9  2  0
  8 10  2  0
  9 10  1  0
M  END
>  <PUBCHEM_COMPOUND_CID>  (1) 
27787

>  <PUBCHEM_CONFORMER_RMSD>  (1) 
0.4

>  <PUBCHEM_CONFORMER_DIVERSEORDER>  (1) 
1
4
5
8
2
7
3
6

>  <PUBCHEM_MMFF94_PARTIAL_CHARGES>  (1) 
18
1 -0.85
10 -0.15
13 0.15
14 0.15
15 0.15
16 0.15
17 0.15
18 0.4
19 0.4
2 -0.85
20 0.4
3 -0.14
4 0.2
5 -0.15
6 -0.15
7 0.44
8 -0.15
9 -0.15

>  <PUBCHEM_EFFECTIVE_ROTOR_COUNT>  (1) 
2

>  <PUBCHEM_PHARMACOPHORE_FEATURES>  (1) 
4
1 1 donor
1 2 donor
3 1 2 7 cation
6 3 5 6 8 9 10 rings

>  <PUBCHEM_HEAVY_ATOM_COUNT>  (1) 
10

>  <PUBCHEM_ATOM_DEF_STEREO_COUNT>  (1) 
0

>  <PUBCHEM_ATOM_UDEF_STEREO_COUNT>  (1) 
0

>  <PUBCHEM_BOND_DEF_STEREO_COUNT>  (1) 
0

>  <PUBCHEM_BOND_UDEF_STEREO_COUNT>  (1) 
0

>  <PUBCHEM_ISOTOPIC_ATOM_COUNT>  (1) 
0

>  <PUBCHEM_COMPONENT_COUNT>  (1) 
1

>  <PUBCHEM_CACTVS_TAUTO_COUNT>  (1) 
1

>  <PUBCHEM_CONFORMER_ID>  (1) 
00006C8B00000001

>  <PUBCHEM_MMFF94_ENERGY>  (1) 
23.998

>  <PUBCHEM_FEATURE_SELFOVERLAP>  (1) 
20.337

>  <PUBCHEM_SHAPE_FINGERPRINT>  (1) 
12716758 59 18341607088408562443
12897270 3 18340209703745572572
12932764 1 17418089957473948467
14325111 11 18409448063917608009
14390081 3 17676483960240267308
15310529 11 18273214226734416094
15775835 57 17603584097467103044
16945 1 18341320176224749137
20201158 50 17988362576885156390
20653085 51 18187373077616248817
20711985 344 16341762516233868144
21040471 1 18194946475306696673
21293036 1 18334566988813163687
23552423 10 18335415738269356730
2748010 2 17112964722068204435
29004967 10 15985099725742736650
3248919 1 18411973667790781888
369184 2 18412547612971244177
5084963 1 18341890736480469281

>  <PUBCHEM_SHAPE_MULTIPOLES>  (1) 
195.83
4.33
1.43
0.84
1.41
0.02
-0.1
0.04
1.16
-0.25
0.12
0.19
-0.01
-0.01

>  <PUBCHEM_SHAPE_SELFOVERLAP>  (1) 
401.19

>  <PUBCHEM_SHAPE_VOLUME>  (1) 
110.4

>  <PUBCHEM_COORDINATE_TYPE>  (1) 
2
5
10

$$$$
