27785
     RDKit          3D

 12 12  0  0  0  0  0  0  0  0999 V2000
    1.5353   -0.8144   -0.0651 N   0  0  0  0  0  0  0  0  0  0  0  0
   -0.7401   -1.3655    0.0642 N   0  0  0  0  0  0  0  0  0  0  0  0
   -0.0405    0.9201   -0.1462 N   0  0  0  0  0  0  0  0  0  0  0  0
   -2.3767    0.3875   -0.0174 N   0  0  0  0  0  0  0  0  0  0  0  0
   -3.0301   -1.8553    0.1873 N   0  0  0  0  0  0  0  0  0  0  0  0
   -1.6628    2.6114   -0.2248 N   0  0  0  0  0  0  0  0  0  0  0  0
    2.6522    0.0980   -0.1818 C   0  0  0  0  0  0  0  0  0  0  0  0
    2.9221    0.7473    1.1693 C   0  0  0  0  0  0  0  0  0  0  0  0
    3.8715   -0.6630   -0.6852 C   0  0  0  0  0  0  0  0  0  0  0  0
    0.2125   -0.4078   -0.0483 C   0  0  0  0  0  0  0  0  0  0  0  0
   -1.9988   -0.8980    0.0726 C   0  0  0  0  0  0  0  0  0  0  0  0
   -1.3445    1.2398   -0.1245 C   0  0  0  0  0  0  0  0  0  0  0  0
  1  7  1  0
  1 10  1  0
  2 10  2  0
  2 11  1  0
  3 10  1  0
  3 12  2  0
  4 11  2  0
  4 12  1  0
  5 11  1  0
  6 12  1  0
  7  8  1  0
  7  9  1  0
M  END
>  <PUBCHEM_COMPOUND_CID>  (1) 
27785

>  <PUBCHEM_CONFORMER_RMSD>  (1) 
0.6

>  <PUBCHEM_CONFORMER_DIVERSEORDER>  (1) 
1
3
4
2

>  <PUBCHEM_MMFF94_PARTIAL_CHARGES>  (1) 
15
1 -0.87
10 0.72
11 0.72
12 0.72
14 0.4
2 -0.62
21 0.4
22 0.4
23 0.4
24 0.4
3 -0.62
4 -0.62
5 -0.9
6 -0.9
7 0.37

>  <PUBCHEM_EFFECTIVE_ROTOR_COUNT>  (1) 
2

>  <PUBCHEM_PHARMACOPHORE_FEATURES>  (1) 
8
1 1 donor
1 5 donor
1 6 donor
3 7 8 9 hydrophobe
4 1 2 3 10 cation
4 2 4 5 11 cation
4 3 4 6 12 cation
6 2 3 4 10 11 12 rings

>  <PUBCHEM_HEAVY_ATOM_COUNT>  (1) 
12

>  <PUBCHEM_ATOM_DEF_STEREO_COUNT>  (1) 
0

>  <PUBCHEM_ATOM_UDEF_STEREO_COUNT>  (1) 
0

>  <PUBCHEM_BOND_DEF_STEREO_COUNT>  (1) 
0

>  <PUBCHEM_BOND_UDEF_STEREO_COUNT>  (1) 
0

>  <PUBCHEM_ISOTOPIC_ATOM_COUNT>  (1) 
0

>  <PUBCHEM_COMPONENT_COUNT>  (1) 
1

>  <PUBCHEM_CACTVS_TAUTO_COUNT>  (1) 
10

>  <PUBCHEM_CONFORMER_ID>  (1) 
00006C8900000001

>  <PUBCHEM_MMFF94_ENERGY>  (1) 
34.8061

>  <PUBCHEM_FEATURE_SELFOVERLAP>  (1) 
40.725

>  <PUBCHEM_SHAPE_FINGERPRINT>  (1) 
10608611 8 18343015580353150568
10857977 72 18338790225380389730
12032990 46 18337960115782418707
12716758 59 18339358557028014154
12932764 1 17846494850969637374
13380535 21 18195539094656932086
14325111 11 18410576154626900390
15219456 202 18059852883395227992
16945 1 18408037407552310121
17844478 74 18342461473315099850
19973954 147 18412543219494390264
20715346 28 18131624591467087872
20871998 184 18272092712121324519
20871998 22 18267871772902788979
21040471 1 18120654626106415037
21524375 3 17834386831166317725
23552423 10 18187368701192371174
2748010 2 18266449000608815941
3248919 1 17095526188684641690
369184 2 17989484130179281818
5084963 1 18343027692023430922
6333449 129 18412824651225717093
81228 2 18335425659975925017

>  <PUBCHEM_SHAPE_MULTIPOLES>  (1) 
217.07
5.48
1.9
0.76
3.61
0.76
0.12
-1.15
-0.08
-1.76
-0.06
0.54
0.08
0.64

>  <PUBCHEM_SHAPE_SELFOVERLAP>  (1) 
436.219

>  <PUBCHEM_SHAPE_VOLUME>  (1) 
117.1

>  <PUBCHEM_COORDINATE_TYPE>  (1) 
2
5
10

$$$$
