27789
     RDKit          3D

 13 13  0  0  0  0  0  0  0  0999 V2000
    1.8990    0.2968    0.3981 N   0  0  0  0  0  0  0  0  0  0  0  0
    1.0090    2.2417   -0.7018 N   0  0  0  0  0  0  0  0  0  0  0  0
   -0.2013    1.1644    1.1421 C   0  0  0  0  0  0  0  0  0  0  0  0
   -1.3230    0.3630    0.5340 C   0  0  0  0  0  0  0  0  0  0  0  0
    3.0621    0.3247   -0.4790 C   0  0  0  0  0  0  0  0  0  0  0  0
    3.9974   -0.8275   -0.1345 C   0  0  0  0  0  0  0  0  0  0  0  0
    1.0106    1.2200    0.2209 C   0  0  0  0  0  0  0  0  0  0  0  0
   -2.2681    1.0022   -0.2554 C   0  0  0  0  0  0  0  0  0  0  0  0
   -1.3942   -1.0017    0.7729 C   0  0  0  0  0  0  0  0  0  0  0  0
    3.3370   -2.1884   -0.3034 C   0  0  0  0  0  0  0  0  0  0  0  0
   -3.3066    0.2605   -0.8183 C   0  0  0  0  0  0  0  0  0  0  0  0
   -2.4329   -1.7433    0.2099 C   0  0  0  0  0  0  0  0  0  0  0  0
   -3.3890   -1.1123   -0.5857 C   0  0  0  0  0  0  0  0  0  0  0  0
  1  5  1  0
  1  7  2  0
  2  7  1  0
  3  4  1  0
  3  7  1  0
  4  8  2  0
  4  9  1  0
  5  6  1  0
  6 10  1  0
  8 11  1  0
  9 12  2  0
 11 13  2  0
 12 13  1  0
M  END
>  <PUBCHEM_COMPOUND_CID>  (1) 
27789

>  <PUBCHEM_CONFORMER_RMSD>  (1) 
0.6

>  <PUBCHEM_CONFORMER_DIVERSEORDER>  (1) 
1
47
19
5
52
59
8
34
3
29
10
12
23
60
55
56
17
7
37
9
40
4
50
32
54
43
24
57
38
15
58
41
20
21
16
46
6
45
14
36
35
42
2
33
51
61
31
13
26
27
11
48
18
44
53
39
30
25
22
28
49

>  <PUBCHEM_MMFF94_PARTIAL_CHARGES>  (1) 
18
1 -0.7
11 -0.15
12 -0.15
13 -0.15
2 -0.85
20 0.15
21 0.15
25 0.15
26 0.15
27 0.15
28 0.4
29 0.4
3 0.2
4 -0.14
5 0.25
7 0.44
8 -0.15
9 -0.15

>  <PUBCHEM_EFFECTIVE_ROTOR_COUNT>  (1) 
4

>  <PUBCHEM_PHARMACOPHORE_FEATURES>  (1) 
4
1 10 hydrophobe
1 2 donor
3 1 2 7 cation
6 4 8 9 11 12 13 rings

>  <PUBCHEM_HEAVY_ATOM_COUNT>  (1) 
13

>  <PUBCHEM_ATOM_DEF_STEREO_COUNT>  (1) 
0

>  <PUBCHEM_ATOM_UDEF_STEREO_COUNT>  (1) 
0

>  <PUBCHEM_BOND_DEF_STEREO_COUNT>  (1) 
0

>  <PUBCHEM_BOND_UDEF_STEREO_COUNT>  (1) 
0

>  <PUBCHEM_ISOTOPIC_ATOM_COUNT>  (1) 
0

>  <PUBCHEM_COMPONENT_COUNT>  (1) 
1

>  <PUBCHEM_CACTVS_TAUTO_COUNT>  (1) 
2

>  <PUBCHEM_CONFORMER_ID>  (1) 
00006C8D00000001

>  <PUBCHEM_MMFF94_ENERGY>  (1) 
25.886

>  <PUBCHEM_FEATURE_SELFOVERLAP>  (1) 
20.297

>  <PUBCHEM_SHAPE_FINGERPRINT>  (1) 
10062212 137 18201995491649983671
10465860 71 18260830397306314992
11031198 65 15140951851103224017
11127187 94 18408608067209586615
11137873 295 18409736148854333579
11769659 78 18272930535501845996
12186901 62 17458056071995036999
12346645 44 9079115557382455124
13549 16 18261386707182352437
13897977 13 9294994782787197547
14350558 41 18342179998454466068
17834072 14 18341321241429425122
18186145 218 15791738507476523636
201361 129 9655309128571397332
20201158 50 18412545422427452286
20645477 70 18264762345476970135
20671657 53 18411985766961886396
20871999 31 18187367610091083340
21524375 3 8142075447376140536
22485316 2 18342173350045499884
22802520 49 18042690679158625833
23403322 49 18342739581174990166
23559900 14 18342447154427352880
27216 239 9007046963933256407
7364860 26 18195526119666641792
93112 12 18261109707387380533
9882013 296 13470396782252113186

>  <PUBCHEM_SHAPE_MULTIPOLES>  (1) 
257.57
6.85
2.1
0.94
3.57
0.27
-0.07
3.5
1.75
0.67
0.14
-0.28
-0.13
0.11

>  <PUBCHEM_SHAPE_SELFOVERLAP>  (1) 
516.282

>  <PUBCHEM_SHAPE_VOLUME>  (1) 
149.5

>  <PUBCHEM_COORDINATE_TYPE>  (1) 
2
5
10

$$$$
