27799
     RDKit          3D

 26 28  0  0  0  0  0  0  0  0999 V2000
    3.4177   -1.1368    1.9426 Cl  0  0  0  0  0  0  0  0  0  0  0  0
    1.2123   -1.1798   -0.2768 O   0  0  0  0  0  0  0  0  0  0  0  0
   -0.7183   -1.7591   -0.4417 N   0  0  0  0  0  0  0  0  0  0  0  0
    0.2794    0.8306    0.3469 N   0  0  0  0  0  0  0  0  0  0  0  0
   -1.0823   -0.5407   -1.1643 C   0  0  0  0  0  0  0  0  0  0  0  0
   -0.8532   -2.9341   -1.3140 C   0  0  0  0  0  0  0  0  0  0  0  0
   -1.5363   -1.9011    0.7711 C   0  0  0  0  0  0  0  0  0  0  0  0
   -0.4291   -4.2119   -0.5883 C   0  0  0  0  0  0  0  0  0  0  0  0
   -1.1346   -3.1452    1.5649 C   0  0  0  0  0  0  0  0  0  0  0  0
   -1.2136   -4.4014    0.7049 C   0  0  0  0  0  0  0  0  0  0  0  0
   -0.1926   -0.4157   -2.4085 C   0  0  0  0  0  0  0  0  0  0  0  0
   -2.5471   -0.6455   -1.6213 C   0  0  0  0  0  0  0  0  0  0  0  0
   -0.9037    0.6205   -0.1564 C   0  0  0  0  0  0  0  0  0  0  0  0
   -2.0858    1.4561    0.1669 C   0  0  0  0  0  0  0  0  0  0  0  0
   -2.8971    1.0867    1.2212 C   0  0  0  0  0  0  0  0  0  0  0  0
   -2.3395    2.5788   -0.5955 C   0  0  0  0  0  0  0  0  0  0  0  0
    1.3272    0.0106   -0.0024 C   0  0  0  0  0  0  0  0  0  0  0  0
   -4.0087    1.8726    1.5255 C   0  0  0  0  0  0  0  0  0  0  0  0
   -3.4510    3.3646   -0.2911 C   0  0  0  0  0  0  0  0  0  0  0  0
   -4.2855    3.0115    0.7695 C   0  0  0  0  0  0  0  0  0  0  0  0
    2.6793    0.6363    0.0037 C   0  0  0  0  0  0  0  0  0  0  0  0
    3.6670    0.1750    0.8471 C   0  0  0  0  0  0  0  0  0  0  0  0
    2.8854    1.6854   -0.8690 C   0  0  0  0  0  0  0  0  0  0  0  0
    4.9188    0.7898    0.8179 C   0  0  0  0  0  0  0  0  0  0  0  0
    4.1372    2.3002   -0.8982 C   0  0  0  0  0  0  0  0  0  0  0  0
    5.1539    1.8525   -0.0547 C   0  0  0  0  0  0  0  0  0  0  0  0
  1 22  1  0
  2 17  2  0
  3  5  1  0
  3  6  1  0
  3  7  1  0
  4 13  2  0
  4 17  1  0
  5 11  1  0
  5 12  1  0
  5 13  1  0
  6  8  1  0
  7  9  1  0
  8 10  1  0
  9 10  1  0
 13 14  1  0
 14 15  2  0
 14 16  1  0
 15 18  1  0
 16 19  2  0
 17 21  1  0
 18 20  2  0
 19 20  1  0
 21 22  2  0
 21 23  1  0
 22 24  1  0
 23 25  2  0
 24 26  2  0
 25 26  1  0
M  END
>  <PUBCHEM_COMPOUND_CID>  (1) 
27799

>  <PUBCHEM_CONFORMER_RMSD>  (1) 
0.8

>  <PUBCHEM_CONFORMER_DIVERSEORDER>  (1) 
1
4
2
3

>  <PUBCHEM_MMFF94_PARTIAL_CHARGES>  (1) 
30
1 -0.18
13 0.3
14 0.09
15 -0.15
16 -0.15
17 0.69
18 -0.15
19 -0.15
2 -0.57
20 -0.15
21 0.09
22 0.18
23 -0.15
24 -0.15
25 -0.15
26 -0.15
3 -0.81
4 -0.66
43 0.15
44 0.15
45 0.15
46 0.15
47 0.15
48 0.15
49 0.15
5 0.33
50 0.15
51 0.15
6 0.27
7 0.27

>  <PUBCHEM_EFFECTIVE_ROTOR_COUNT>  (1) 
6.2

>  <PUBCHEM_PHARMACOPHORE_FEATURES>  (1) 
8
1 2 acceptor
1 3 cation
1 4 acceptor
1 4 donor
3 5 11 12 hydrophobe
6 14 15 16 18 19 20 rings
6 21 22 23 24 25 26 rings
6 3 6 7 8 9 10 rings

>  <PUBCHEM_HEAVY_ATOM_COUNT>  (1) 
26

>  <PUBCHEM_ATOM_DEF_STEREO_COUNT>  (1) 
0

>  <PUBCHEM_ATOM_UDEF_STEREO_COUNT>  (1) 
0

>  <PUBCHEM_BOND_DEF_STEREO_COUNT>  (1) 
0

>  <PUBCHEM_BOND_UDEF_STEREO_COUNT>  (1) 
0

>  <PUBCHEM_ISOTOPIC_ATOM_COUNT>  (1) 
0

>  <PUBCHEM_COMPONENT_COUNT>  (1) 
1

>  <PUBCHEM_CACTVS_TAUTO_COUNT>  (1) 
1

>  <PUBCHEM_CONFORMER_ID>  (1) 
00006C9700000001

>  <PUBCHEM_MMFF94_ENERGY>  (1) 
127.7291

>  <PUBCHEM_FEATURE_SELFOVERLAP>  (1) 
40.645

>  <PUBCHEM_SHAPE_FINGERPRINT>  (1) 
10074138 170 18265890435663958779
10794284 68 17180298711000372361
107951 10 18342471317628322518
11036077 51 18409721872425363066
11552529 35 18046060721147988018
12160290 23 18129935801361774327
12173636 292 18410853286996211532
12553582 1 17689994957203103490
12788726 201 18198045062130000519
12892183 10 17531539689047800561
13004483 165 17977949308438149219
13135754 10 17824288061715638026
13140716 1 18267867177087192339
133893 2 17690812607253683111
13583140 156 17167854232191547328
13681431 1 8708231602410411271
14178342 30 18263628727972566648
14955137 171 17759524361570607994
15230672 131 18264786393954085118
15475509 84 17540557029390331539
15842332 3 18114735053767335920
16752209 62 18130494336241796158
17980427 26 18123747552494658751
1813 80 17263026026061933366
18785283 64 18121223069254702618
20101258 96 17907867553975223040
204376 136 18270681961425384625
20600515 1 17622757583491784819
21033648 29 18340756040956430424
21120745 212 17833565856541461173
21524375 3 18200588099470503613
21731228 192 18337955593086494777
21756936 100 18411981382101054952
23419403 2 16838033737981885239
23558518 356 18411975845360995439
23559900 14 17319604287867330101
23598288 3 18268715085599662076
3091708 16 9268403093969045835
3411729 13 17912089352683304233
3552219 110 17174072202432520012
3759504 43 18412268336870440369
376196 1 17846207800819739612
394222 165 17841152152176675177
4058900 60 18124334717226456816
474 4 18197776596593132201
5104073 3 18263914597028388792
633830 44 18057045709660801141
7808743 9 18338805627777496692
81228 2 18126550439625403017
9981440 41 17988916795454940526
9999458 23 18050296868486593727

>  <PUBCHEM_SHAPE_MULTIPOLES>  (1) 
521.11
8.19
5.04
1.7
8.14
4.72
0.2
-9.59
-2.57
-4.47
-0.35
-0.31
0.57
-1.35

>  <PUBCHEM_SHAPE_SELFOVERLAP>  (1) 
1118.197

>  <PUBCHEM_SHAPE_VOLUME>  (1) 
287.6

>  <PUBCHEM_COORDINATE_TYPE>  (1) 
2
5
10

$$$$
