27797
     RDKit          3D

 20 21  0  0  0  0  0  0  0  0999 V2000
    2.3286    2.9053   -0.5122 O   0  0  0  0  0  0  0  0  0  0  0  0
   -2.0022    0.0775   -0.3745 N   0  0  0  0  0  0  0  0  0  0  0  0
    0.3346    1.7349   -0.4035 N   0  0  0  0  0  0  0  0  0  0  0  0
   -0.8340   -0.2760   -1.1806 C   0  0  0  0  0  0  0  0  0  0  0  0
   -3.2119   -0.5567   -0.9169 C   0  0  0  0  0  0  0  0  0  0  0  0
   -1.7900   -0.2979    1.0304 C   0  0  0  0  0  0  0  0  0  0  0  0
   -4.4511   -0.1579   -0.1142 C   0  0  0  0  0  0  0  0  0  0  0  0
   -2.9829    0.1096    1.8969 C   0  0  0  0  0  0  0  0  0  0  0  0
   -4.2824   -0.4839    1.3653 C   0  0  0  0  0  0  0  0  0  0  0  0
   -1.0343    0.2761   -2.5967 C   0  0  0  0  0  0  0  0  0  0  0  0
   -0.7358   -1.8061   -1.2229 C   0  0  0  0  0  0  0  0  0  0  0  0
    0.3740    0.4381   -0.5277 C   0  0  0  0  0  0  0  0  0  0  0  0
    1.5254   -0.3885   -0.0983 C   0  0  0  0  0  0  0  0  0  0  0  0
    2.5526   -0.6237   -0.9918 C   0  0  0  0  0  0  0  0  0  0  0  0
    1.5406   -0.9021    1.1842 C   0  0  0  0  0  0  0  0  0  0  0  0
    1.4083    2.4071    0.1314 C   0  0  0  0  0  0  0  0  0  0  0  0
    3.6369   -1.4025   -0.5873 C   0  0  0  0  0  0  0  0  0  0  0  0
    2.6249   -1.6808    1.5888 C   0  0  0  0  0  0  0  0  0  0  0  0
    3.6730   -1.9310    0.7030 C   0  0  0  0  0  0  0  0  0  0  0  0
    1.3258    2.5583    1.6267 C   0  0  0  0  0  0  0  0  0  0  0  0
  1 16  2  0
  2  4  1  0
  2  5  1  0
  2  6  1  0
  3 12  2  0
  3 16  1  0
  4 10  1  0
  4 11  1  0
  4 12  1  0
  5  7  1  0
  6  8  1  0
  7  9  1  0
  8  9  1  0
 12 13  1  0
 13 14  2  0
 13 15  1  0
 14 17  1  0
 15 18  2  0
 16 20  1  0
 17 19  2  0
 18 19  1  0
M  END
>  <PUBCHEM_COMPOUND_CID>  (1) 
27797

>  <PUBCHEM_CONFORMER_RMSD>  (1) 
0.8

>  <PUBCHEM_CONFORMER_DIVERSEORDER>  (1) 
1
16
5
15
14
10
8
3
4
9
12
13
11
7
2
6

>  <PUBCHEM_MMFF94_PARTIAL_CHARGES>  (1) 
20
1 -0.57
12 0.3
13 0.09
14 -0.15
15 -0.15
16 0.72
17 -0.15
18 -0.15
19 -0.15
2 -0.81
20 0.06
3 -0.66
37 0.15
38 0.15
39 0.15
4 0.33
40 0.15
41 0.15
5 0.27
6 0.27

>  <PUBCHEM_EFFECTIVE_ROTOR_COUNT>  (1) 
5.2

>  <PUBCHEM_PHARMACOPHORE_FEATURES>  (1) 
7
1 1 acceptor
1 2 cation
1 3 acceptor
1 3 donor
3 4 10 11 hydrophobe
6 13 14 15 17 18 19 rings
6 2 5 6 7 8 9 rings

>  <PUBCHEM_HEAVY_ATOM_COUNT>  (1) 
20

>  <PUBCHEM_ATOM_DEF_STEREO_COUNT>  (1) 
0

>  <PUBCHEM_ATOM_UDEF_STEREO_COUNT>  (1) 
0

>  <PUBCHEM_BOND_DEF_STEREO_COUNT>  (1) 
0

>  <PUBCHEM_BOND_UDEF_STEREO_COUNT>  (1) 
0

>  <PUBCHEM_ISOTOPIC_ATOM_COUNT>  (1) 
0

>  <PUBCHEM_COMPONENT_COUNT>  (1) 
1

>  <PUBCHEM_CACTVS_TAUTO_COUNT>  (1) 
1

>  <PUBCHEM_CONFORMER_ID>  (1) 
00006C9500000001

>  <PUBCHEM_MMFF94_ENERGY>  (1) 
64.7543

>  <PUBCHEM_FEATURE_SELFOVERLAP>  (1) 
35.568

>  <PUBCHEM_SHAPE_FINGERPRINT>  (1) 
10382601 240 18268427004868856648
10764073 3 15477632005422318638
11578080 2 17967524666643520333
11640471 11 17558824224704395345
12202030 40 17240475918664887243
12506688 2 17822017466871545898
12553582 1 18339636746650714262
12633257 1 18340504283089620499
12644460 14 18340493360444434744
12707595 3 18261109647347762442
12714826 92 17896315822678203446
13134695 92 18335706035277646445
133893 2 18049692360719974276
13533116 47 18338520867387889547
13538477 17 17560234876779513503
13583140 156 18196094571989490873
13965767 371 16338677200854630851
14178342 30 17765417026340088240
14251745 187 16443072698537814019
15375462 189 18333731303978318842
15906896 17 17542780911325456076
16945 1 18260277342746592526
17349148 13 17346589782078135543
17357990 137 17417544595591134241
1813 80 18201165339006829366
18222031 100 18201718414281973319
18785283 64 17897167038484730884
19078846 21 18339649919067185945
192875 21 17704349957892877321
19862831 5 12540698102224825139
200 152 17749954345632778890
20361792 2 18340752750847028590
20723712 36 17845948337476035395
21041028 32 18342174427977355064
21330990 113 16485025539959157902
2255824 54 18338238266448725822
23175994 123 18262235499946609238
23419403 2 18041541586312515708
23526113 38 17678713675421891202
23559900 14 16805319994095258311
23598288 3 17903350412600584054
31174 14 18333725849063631701
3286 77 18333730217472717387
4175511 71 18272380736727969416
465052 167 18408613560868890671
474 4 18124311876827584328
495365 180 18115851019224717353
5845 1 10921785909362291000
5895379 119 17056995908118251801
6049 1 17749379373896844501
6786 2 17541117780056453732
68419 9 17201345515234276788
69090 78 14692275223752323791
6992083 37 17632283554275554198
7364860 26 18129653235716714372
7615 1 17631440319425825333
81228 2 17692509140937396880

>  <PUBCHEM_SHAPE_MULTIPOLES>  (1) 
395.76
6.77
2.41
1.96
4.04
2.16
0.15
-2.88
-2.1
-2.76
-0.29
0.68
-0.14
-0.52

>  <PUBCHEM_SHAPE_SELFOVERLAP>  (1) 
824.692

>  <PUBCHEM_SHAPE_VOLUME>  (1) 
225.7

>  <PUBCHEM_COORDINATE_TYPE>  (1) 
2
5
10

$$$$
