27808
     RDKit          3D

 14 15  0  0  0  0  0  0  0  0999 V2000
   -0.3466   -2.7732    0.1547 S   0  0  0  0  0  0  0  0  0  0  0  0
   -2.7601    2.5584   -0.1480 O   0  0  0  0  0  0  0  0  0  0  0  0
    3.9026    1.4806   -0.0460 O   0  0  0  0  0  0  0  0  0  0  0  0
    2.4706    0.5064    1.4230 O   0  0  0  0  0  0  0  0  0  0  0  0
   -0.3504   -0.2234   -0.2732 C   0  0  0  0  0  0  0  0  0  0  0  0
    0.9828   -0.6931   -0.5223 C   0  0  0  0  0  0  0  0  0  0  0  0
   -1.1927   -1.2714    0.1106 C   0  0  0  0  0  0  0  0  0  0  0  0
    2.1058    0.1806   -0.9461 C   0  0  0  0  0  0  0  0  0  0  0  0
   -0.8987    1.0794   -0.3576 C   0  0  0  0  0  0  0  0  0  0  0  0
    1.1180   -2.0472   -0.3280 C   0  0  0  0  0  0  0  0  0  0  0  0
   -2.5521   -1.0525    0.4086 C   0  0  0  0  0  0  0  0  0  0  0  0
   -2.2467    1.2999   -0.0627 C   0  0  0  0  0  0  0  0  0  0  0  0
   -3.0629    0.2435    0.3162 C   0  0  0  0  0  0  0  0  0  0  0  0
    2.8305    0.7122    0.2707 C   0  0  0  0  0  0  0  0  0  0  0  0
  1  7  1  0
  1 10  1  0
  2 12  1  0
  3 14  1  0
  4 14  2  0
  5  6  1  0
  5  7  2  0
  5  9  1  0
  6  8  1  0
  6 10  2  0
  7 11  1  0
  8 14  1  0
  9 12  2  0
 11 13  2  0
 12 13  1  0
M  END
>  <PUBCHEM_COMPOUND_CID>  (1) 
27808

>  <PUBCHEM_CONFORMER_RMSD>  (1) 
0.6

>  <PUBCHEM_CONFORMER_DIVERSEORDER>  (1) 
1
4
6
5
2
3

>  <PUBCHEM_MMFF94_PARTIAL_CHARGES>  (1) 
19
1 -0.08
10 -0.11
11 -0.15
12 0.08
13 -0.15
14 0.66
17 0.15
18 0.15
19 0.15
2 -0.53
20 0.15
21 0.45
22 0.5
3 -0.65
4 -0.57
6 -0.18
7 0.04
8 0.24
9 -0.15

>  <PUBCHEM_EFFECTIVE_ROTOR_COUNT>  (1) 
2

>  <PUBCHEM_PHARMACOPHORE_FEATURES>  (1) 
6
1 2 donor
1 3 acceptor
1 4 acceptor
3 3 4 14 anion
5 1 5 6 7 10 rings
6 5 7 9 11 12 13 rings

>  <PUBCHEM_HEAVY_ATOM_COUNT>  (1) 
14

>  <PUBCHEM_ATOM_DEF_STEREO_COUNT>  (1) 
0

>  <PUBCHEM_ATOM_UDEF_STEREO_COUNT>  (1) 
0

>  <PUBCHEM_BOND_DEF_STEREO_COUNT>  (1) 
0

>  <PUBCHEM_BOND_UDEF_STEREO_COUNT>  (1) 
0

>  <PUBCHEM_ISOTOPIC_ATOM_COUNT>  (1) 
0

>  <PUBCHEM_COMPONENT_COUNT>  (1) 
1

>  <PUBCHEM_CACTVS_TAUTO_COUNT>  (1) 
3

>  <PUBCHEM_CONFORMER_ID>  (1) 
00006CA000000001

>  <PUBCHEM_MMFF94_ENERGY>  (1) 
25.279

>  <PUBCHEM_FEATURE_SELFOVERLAP>  (1) 
30.564

>  <PUBCHEM_SHAPE_FINGERPRINT>  (1) 
10608611 8 18339365162556041501
13140716 1 17905056098542685923
13380535 76 18410854360653853663
13764800 53 18410864273506756377
13839132 238 18412267211710009990
14614273 12 18260542304022352461
14648413 74 18050008787950648571
15219456 202 18342182128747786406
15490181 7 18340492175070826223
15775835 57 18343868830976670282
15852999 172 17896578627780082087
16945 1 18336837497262037471
17846911 113 18411416249934611865
18186145 218 18059025994478961908
20510252 161 18341620359804896097
20511035 2 18191878833396596303
20525323 117 18408880750451435471
20871998 184 18124886899717738407
21501502 16 18339356358084185067
21524375 3 18272085006865696582
2334 1 18337398149397301999
23402539 116 18126560356731841759
23419403 2 16325636885311079232
23559900 14 18271540788203410100
2748010 2 18263658276941621383
305870 269 18335979762117478842
3071541 236 18188483713236000619
53812653 166 18343587338793632289
6333449 129 18341613775683321671
7364860 26 18053101722570454887
81228 2 17909836770463001155

>  <PUBCHEM_SHAPE_MULTIPOLES>  (1) 
274.35
5.01
2.57
0.85
1.98
0.79
-0.1
-3.24
-0.67
-0.83
0.03
0.4
-0.03
0.4

>  <PUBCHEM_SHAPE_SELFOVERLAP>  (1) 
583.628

>  <PUBCHEM_SHAPE_VOLUME>  (1) 
154.2

>  <PUBCHEM_COORDINATE_TYPE>  (1) 
2
5
10

$$$$
