27809
     RDKit          3D

 10 10  0  0  0  0  0  0  0  0999 V2000
    2.9615    0.6149    0.8264 O   0  0  0  0  0  0  0  0  0  0  0  0
    0.2924   -0.9471   -0.1003 C   0  0  0  0  0  0  0  0  0  0  0  0
    0.8673    0.3137   -0.2600 C   0  0  0  0  0  0  0  0  0  0  0  0
   -1.8908    0.0714    0.0811 C   0  0  0  0  0  0  0  0  0  0  0  0
   -1.0866   -1.0683    0.0703 C   0  0  0  0  0  0  0  0  0  0  0  0
    0.0632    1.4534   -0.2490 C   0  0  0  0  0  0  0  0  0  0  0  0
   -1.3159    1.3322   -0.0786 C   0  0  0  0  0  0  0  0  0  0  0  0
    2.3411    0.4687   -0.4444 C   0  0  0  0  0  0  0  0  0  0  0  0
    1.1330   -2.1814   -0.1090 C   0  0  0  0  0  0  0  0  0  0  0  0
   -3.3653   -0.0576    0.2634 C   0  0  0  0  0  0  0  0  0  0  0  0
  1  8  1  0
  2  3  2  0
  2  5  1  0
  2  9  1  0
  3  6  1  0
  3  8  1  0
  4  5  2  0
  4  7  1  0
  4 10  1  0
  6  7  2  0
M  END
>  <PUBCHEM_COMPOUND_CID>  (1) 
27809

>  <PUBCHEM_CONFORMER_RMSD>  (1) 
0.4

>  <PUBCHEM_CONFORMER_DIVERSEORDER>  (1) 
2
3
1

>  <PUBCHEM_MMFF94_PARTIAL_CHARGES>  (1) 
14
1 -0.68
10 0.14
11 0.15
12 0.15
13 0.15
2 -0.14
22 0.4
3 -0.14
4 -0.14
5 -0.15
6 -0.15
7 -0.15
8 0.42
9 0.14

>  <PUBCHEM_EFFECTIVE_ROTOR_COUNT>  (1) 
1

>  <PUBCHEM_PHARMACOPHORE_FEATURES>  (1) 
3
1 1 acceptor
1 1 donor
6 2 3 4 5 6 7 rings

>  <PUBCHEM_HEAVY_ATOM_COUNT>  (1) 
10

>  <PUBCHEM_ATOM_DEF_STEREO_COUNT>  (1) 
0

>  <PUBCHEM_ATOM_UDEF_STEREO_COUNT>  (1) 
0

>  <PUBCHEM_BOND_DEF_STEREO_COUNT>  (1) 
0

>  <PUBCHEM_BOND_UDEF_STEREO_COUNT>  (1) 
0

>  <PUBCHEM_ISOTOPIC_ATOM_COUNT>  (1) 
0

>  <PUBCHEM_COMPONENT_COUNT>  (1) 
1

>  <PUBCHEM_CACTVS_TAUTO_COUNT>  (1) 
1

>  <PUBCHEM_CONFORMER_ID>  (1) 
00006CA100000002

>  <PUBCHEM_MMFF94_ENERGY>  (1) 
25.7915

>  <PUBCHEM_FEATURE_SELFOVERLAP>  (1) 
15.223

>  <PUBCHEM_SHAPE_FINGERPRINT>  (1) 
10219947 1 18335140920623589689
10857977 72 18336265729687854121
12423570 1 7895085677596442092
14325111 11 18410858767253181132
15310529 11 14692299421302397189
161256 15 18267593402971019310
16945 1 18409454704021424285
193761 8 17977386027608416573
21040471 1 18410017640989626006
23235685 24 18408885165445778525
23402655 69 18266724811315272877
23552423 10 18044105561402451791
241688 4 17901958438931554104
2748010 2 18192152586069146261
29004967 10 18261684717904368081
369184 2 18131345336682566064
5084963 1 18272101486691894236
528886 8 18411136978186498755
53812653 166 18343581858579068425

>  <PUBCHEM_SHAPE_MULTIPOLES>  (1) 
199.93
3.86
1.77
0.7
0.85
0.61
0.03
-0.44
0.61
-0.48
-0.09
-0.19
-0.05
0.14

>  <PUBCHEM_SHAPE_SELFOVERLAP>  (1) 
409.899

>  <PUBCHEM_SHAPE_VOLUME>  (1) 
117.4

>  <PUBCHEM_COORDINATE_TYPE>  (1) 
2
5
10

$$$$
