27811
     RDKit          3D

 22 26  0  0  0  0  0  0  0  0999 V2000
   -2.5196    0.4534    0.0069 C   0  0  0  0  0  0  0  0  0  0  0  0
   -2.5888    1.9687   -0.0755 C   0  0  0  0  0  0  0  0  0  0  0  0
   -3.7138   -0.3010   -0.0092 C   0  0  0  0  0  0  0  0  0  0  0  0
   -1.2540   -0.2119    0.0488 C   0  0  0  0  0  0  0  0  0  0  0  0
   -3.9713    2.5598    0.1951 C   0  0  0  0  0  0  0  0  0  0  0  0
   -5.0765    0.3460   -0.0634 C   0  0  0  0  0  0  0  0  0  0  0  0
   -5.0391    1.7865   -0.5588 C   0  0  0  0  0  0  0  0  0  0  0  0
    1.2142   -1.6134    0.1282 C   0  0  0  0  0  0  0  0  0  0  0  0
    1.2352   -0.2076    0.0718 C   0  0  0  0  0  0  0  0  0  0  0  0
   -1.2278   -1.6238    0.1227 C   0  0  0  0  0  0  0  0  0  0  0  0
    2.5125   -2.3802    0.2019 C   0  0  0  0  0  0  0  0  0  0  0  0
   -0.0041    0.4607    0.0172 C   0  0  0  0  0  0  0  0  0  0  0  0
    3.6113   -1.6936   -0.6096 C   0  0  0  0  0  0  0  0  0  0  0  0
   -0.0030   -2.3039    0.1686 C   0  0  0  0  0  0  0  0  0  0  0  0
    2.5412    0.4983    0.0546 C   0  0  0  0  0  0  0  0  0  0  0  0
   -3.6521   -1.6951    0.0767 C   0  0  0  0  0  0  0  0  0  0  0  0
    3.7138   -0.2275   -0.2642 C   0  0  0  0  0  0  0  0  0  0  0  0
   -2.4256   -2.3469    0.1438 C   0  0  0  0  0  0  0  0  0  0  0  0
    2.6832    1.8639    0.3588 C   0  0  0  0  0  0  0  0  0  0  0  0
    4.9619    0.4111   -0.3155 C   0  0  0  0  0  0  0  0  0  0  0  0
    3.9328    2.4902    0.3213 C   0  0  0  0  0  0  0  0  0  0  0  0
    5.0696    1.7662   -0.0202 C   0  0  0  0  0  0  0  0  0  0  0  0
  1  2  1  0
  1  3  2  0
  1  4  1  0
  2  5  1  0
  3  6  1  0
  3 16  1  0
  4 10  2  0
  4 12  1  0
  5  7  1  0
  6  7  1  0
  8  9  1  0
  8 11  1  0
  8 14  2  0
  9 12  2  0
  9 15  1  0
 10 14  1  0
 10 18  1  0
 11 13  1  0
 13 17  1  0
 15 17  2  0
 15 19  1  0
 16 18  2  0
 17 20  1  0
 19 21  2  0
 20 22  2  0
 21 22  1  0
M  END
>  <PUBCHEM_COMPOUND_CID>  (1) 
27811

>  <PUBCHEM_CONFORMER_RMSD>  (1) 
0.6

>  <PUBCHEM_CONFORMER_DIVERSEORDER>  (1) 
1

>  <PUBCHEM_MMFF94_PARTIAL_CHARGES>  (1) 
24
1 -0.14
11 0.14
12 -0.15
13 0.14
14 -0.15
16 -0.15
17 -0.14
18 -0.15
19 -0.15
2 0.14
20 -0.15
21 -0.15
22 -0.15
3 -0.14
33 0.15
36 0.15
37 0.15
38 0.15
39 0.15
40 0.15
41 0.15
42 0.15
6 0.14
8 -0.14

>  <PUBCHEM_EFFECTIVE_ROTOR_COUNT>  (1) 
1.2

>  <PUBCHEM_PHARMACOPHORE_FEATURES>  (1) 
5
6 1 2 3 5 6 7 rings
6 1 3 4 10 16 18 rings
6 15 17 19 20 21 22 rings
6 4 8 9 10 12 14 rings
6 8 9 11 13 15 17 rings

>  <PUBCHEM_HEAVY_ATOM_COUNT>  (1) 
22

>  <PUBCHEM_ATOM_DEF_STEREO_COUNT>  (1) 
0

>  <PUBCHEM_ATOM_UDEF_STEREO_COUNT>  (1) 
0

>  <PUBCHEM_BOND_DEF_STEREO_COUNT>  (1) 
0

>  <PUBCHEM_BOND_UDEF_STEREO_COUNT>  (1) 
0

>  <PUBCHEM_ISOTOPIC_ATOM_COUNT>  (1) 
0

>  <PUBCHEM_COMPONENT_COUNT>  (1) 
1

>  <PUBCHEM_CACTVS_TAUTO_COUNT>  (1) 
1

>  <PUBCHEM_CONFORMER_ID>  (1) 
00006CA300000001

>  <PUBCHEM_MMFF94_ENERGY>  (1) 
63.9779

>  <PUBCHEM_FEATURE_SELFOVERLAP>  (1) 
25.462

>  <PUBCHEM_SHAPE_FINGERPRINT>  (1) 
10319926 262 18338221761527802458
10411042 1 17400924592342831483
10498660 4 18409728469447650365
10608611 8 18411136948090137578
10616163 171 18411420656476430327
10646746 165 18409449210916423756
1100329 8 17403459572471958272
11370993 70 18410290324046942816
11405975 8 18335700507659959538
11595378 159 16805593729451516445
12107183 9 17905606601348392512
12173636 292 18410291440939186119
12390115 104 18340785800456983801
12403259 415 18410301323447690337
12633257 1 18261944146929967026
12788726 201 18045209690532307811
13140716 1 18262234421894149931
133893 2 16270266759457621615
138480 1 17689716363722271475
14528608 73 18412541003137986205
14790565 3 18125164823431917057
14848178 96 18410569565667546545
15196674 1 18410293613981640879
15536298 74 18412827979962774846
17959699 21 18411419505388070408
18681886 176 18199741462838416842
20510252 161 18341054128612433859
20645477 56 18334577936590024421
20645477 70 17988931050403799990
21033648 144 18335693914964301277
21033648 29 18341887553947100928
21065198 57 18410576193007669670
21267235 1 18410865347185594891
21279426 13 18340775862519670678
21304253 335 18261118451998746527
21315763 129 18339359772820367350
21421861 104 17750784468569488818
21859007 373 17316458631617176389
221357 26 18272933846895328933
22393880 68 18341619230650678910
23227448 37 18412543236557955415
23402655 69 18343300357700594118
23558518 356 18187650274779328002
23559900 14 18271242721193307298
245318 6 16882742294713698844
335352 9 18410575042562972750
34797466 226 17917720114304328077
350125 39 18410296908226532904
3545911 37 18410295821673906877
3680242 22 18263641771419031674
4073 2 18113906000456714890
4214541 1 18410856568277450284
474 4 17749395887861299068
495365 180 17632284705864645434
5104073 3 18334014969224736587
543358 83 18339927004819305090
59755656 215 18411140217119425868
633830 44 18340481171390721511
7808743 9 18193273216357474488
9709674 26 18411987978727930862
9981440 41 18334572498803128626

>  <PUBCHEM_SHAPE_MULTIPOLES>  (1) 
452.75
11.15
3.12
0.67
0.27
0.05
0.02
6.14
0.98
0.08
-0.19
-0.05
0.01
0.53

>  <PUBCHEM_SHAPE_SELFOVERLAP>  (1) 
1023.053

>  <PUBCHEM_SHAPE_VOLUME>  (1) 
219.9

>  <PUBCHEM_COORDINATE_TYPE>  (1) 
2
5
10

$$$$
