27813
     RDKit          3D

 15 16  0  0  0  0  0  0  0  0999 V2000
   -2.7383    0.0757   -0.0241 O   0  0  0  0  0  0  0  0  0  0  0  0
   -1.5187   -1.8355    0.1414 O   0  0  0  0  0  0  0  0  0  0  0  0
   -0.4329    0.2531   -0.0724 N   0  0  0  0  0  0  0  0  0  0  0  0
    0.9363   -0.2123   -0.0441 C   0  0  0  0  0  0  0  0  0  0  0  0
   -0.6933    1.6992   -0.2153 C   0  0  0  0  0  0  0  0  0  0  0  0
    1.9906    0.7197    0.0611 C   0  0  0  0  0  0  0  0  0  0  0  0
    0.4781    2.5921   -0.0076 C   0  0  0  0  0  0  0  0  0  0  0  0
    1.7275    2.1513    0.1333 C   0  0  0  0  0  0  0  0  0  0  0  0
    1.2821   -1.5717   -0.1350 C   0  0  0  0  0  0  0  0  0  0  0  0
    3.3281    0.2906    0.1080 C   0  0  0  0  0  0  0  0  0  0  0  0
   -1.5486   -0.6142    0.0197 C   0  0  0  0  0  0  0  0  0  0  0  0
    2.6167   -1.9911   -0.0925 C   0  0  0  0  0  0  0  0  0  0  0  0
    3.6394   -1.0621    0.0349 C   0  0  0  0  0  0  0  0  0  0  0  0
   -3.9336   -0.7075    0.0796 C   0  0  0  0  0  0  0  0  0  0  0  0
   -5.1335    0.2128    0.0130 C   0  0  0  0  0  0  0  0  0  0  0  0
  1 11  1  0
  1 14  1  0
  2 11  2  0
  3  4  1  0
  3  5  1  0
  3 11  1  0
  4  6  2  0
  4  9  1  0
  5  7  1  0
  6  8  1  0
  6 10  1  0
  7  8  2  0
  9 12  2  0
 10 13  2  0
 12 13  1  0
 14 15  1  0
M  END
>  <PUBCHEM_COMPOUND_CID>  (1) 
27813

>  <PUBCHEM_CONFORMER_RMSD>  (1) 
0.6

>  <PUBCHEM_CONFORMER_DIVERSEORDER>  (1) 
1
6
7
2
3
4
5
8
9

>  <PUBCHEM_MMFF94_PARTIAL_CHARGES>  (1) 
20
1 -0.43
10 -0.15
11 0.78
12 -0.15
13 -0.15
14 0.28
18 0.15
19 0.15
2 -0.57
20 0.15
21 0.15
22 0.15
23 0.15
3 -0.48
4 0.12
5 0.44
6 0.03
7 -0.29
8 -0.18
9 -0.15

>  <PUBCHEM_EFFECTIVE_ROTOR_COUNT>  (1) 
3.4

>  <PUBCHEM_PHARMACOPHORE_FEATURES>  (1) 
3
1 2 acceptor
6 3 4 5 6 7 8 rings
6 4 6 9 10 12 13 rings

>  <PUBCHEM_HEAVY_ATOM_COUNT>  (1) 
15

>  <PUBCHEM_ATOM_DEF_STEREO_COUNT>  (1) 
0

>  <PUBCHEM_ATOM_UDEF_STEREO_COUNT>  (1) 
0

>  <PUBCHEM_BOND_DEF_STEREO_COUNT>  (1) 
0

>  <PUBCHEM_BOND_UDEF_STEREO_COUNT>  (1) 
0

>  <PUBCHEM_ISOTOPIC_ATOM_COUNT>  (1) 
0

>  <PUBCHEM_COMPONENT_COUNT>  (1) 
1

>  <PUBCHEM_CACTVS_TAUTO_COUNT>  (1) 
1

>  <PUBCHEM_CONFORMER_ID>  (1) 
00006CA500000001

>  <PUBCHEM_MMFF94_ENERGY>  (1) 
40.4918

>  <PUBCHEM_FEATURE_SELFOVERLAP>  (1) 
15.247

>  <PUBCHEM_SHAPE_FINGERPRINT>  (1) 
10130415 120 18335137591892001707
10967382 1 18410855490493593742
10980938 120 18338797934957566065
11471102 20 18410290328521264805
116883 192 18268996392619129796
12032990 46 18410014290804527654
12346645 6 18342458179017167948
13140716 1 18194675093460888232
14115302 16 17821741536655409670
14178342 30 17909250722174702235
14251717 144 18411980282214718407
14252887 29 18202290169150524734
14648413 74 18118968233004367905
14790565 3 17904770229699387172
15042514 8 17689433789454868642
15196674 1 18338516344027352869
15442244 35 18341054034355391561
15501101 241 18333731355285707717
15536298 74 18271806856045668169
15848700 24 18412821365475450532
16945 1 18411134753652032140
18186145 218 17821720659373005215
193761 8 17474106983102342742
19591789 44 16180181319451509249
20201158 50 18408323293523971250
20588541 1 18335985341327209206
20606313 2 18410855473108197614
20645477 70 18410853291655240559
20871998 184 17985540057653729486
20871998 22 18270968916716762798
21267235 1 18339370677521052158
221490 88 18191874628723872659
22289505 5 18336255757027169557
2334 1 17834394897061833660
23402539 116 18342728585932027535
23463225 33 18411138047575274710
2748010 2 18195800778698552132
3060560 45 18060708294604160646
34934 24 18339918311768587590
54173680 148 17618221711458799666
7364860 26 18341894155522629512
7832392 63 18269833275697492159
81228 2 18120950412125178744
84936 182 17771061893431252665
8809292 202 18187649136502179370
9709674 26 18264491865785693187

>  <PUBCHEM_SHAPE_MULTIPOLES>  (1) 
291.97
7.13
2.42
0.61
8.59
0.94
0
-2.14
-0.23
-1.34
0.02
-0.03
0.01
0.15

>  <PUBCHEM_SHAPE_SELFOVERLAP>  (1) 
615.277

>  <PUBCHEM_SHAPE_VOLUME>  (1) 
161.7

>  <PUBCHEM_COORDINATE_TYPE>  (1) 
2
5
10

$$$$
