27812
     RDKit          3D

 23 26  0  0  1  0  0  0  0  0999 V2000
    4.6323    0.5236    0.1975 O   0  0  0  0  0  0  0  0  0  0  0  0
   -6.1119    0.5597   -0.6379 O   0  0  0  0  0  0  0  0  0  0  0  0
    2.2088    0.0692    0.4460 C   0  0  0  0  0  0  0  0  0  0  0  0
    1.2863   -0.8107   -0.4361 C   0  0  0  0  0  0  0  0  0  0  0  0
   -0.0336   -1.1302    0.2686 C   0  0  0  0  0  0  0  0  0  0  0  0
    3.4380    0.1943   -0.5000 C   0  0  0  0  0  0  0  0  0  0  0  0
    2.2049   -1.9329   -0.8995 C   0  0  0  0  0  0  0  0  0  0  0  0
    3.5718   -1.2387   -1.0877 C   0  0  0  0  0  0  0  0  0  0  0  0
    2.6290   -0.5892    1.7892 C   0  0  0  0  0  0  0  0  0  0  0  0
   -0.7737    0.1946    0.5516 C   0  0  0  0  0  0  0  0  0  0  0  0
    1.4394    1.3120    0.8207 C   0  0  0  0  0  0  0  0  0  0  0  0
   -0.8838   -2.1216   -0.5325 C   0  0  0  0  0  0  0  0  0  0  0  0
    0.0947    1.3374    0.8785 C   0  0  0  0  0  0  0  0  0  0  0  0
   -2.1273    0.2781    0.4717 C   0  0  0  0  0  0  0  0  0  0  0  0
   -2.2623   -2.2378    0.1048 C   0  0  0  0  0  0  0  0  0  0  0  0
   -2.9446   -0.8931    0.1080 C   0  0  0  0  0  0  0  0  0  0  0  0
    3.2429    1.1786   -1.5835 C   0  0  0  0  0  0  0  0  0  0  0  0
    3.4626    0.3649    2.6051 C   0  0  0  0  0  0  0  0  0  0  0  0
   -2.9428    1.5253    0.7617 C   0  0  0  0  0  0  0  0  0  0  0  0
   -4.2387   -0.8082   -0.2444 C   0  0  0  0  0  0  0  0  0  0  0  0
   -4.0625    1.7410   -0.2478 C   0  0  0  0  0  0  0  0  0  0  0  0
   -4.9141    0.5046   -0.3700 C   0  0  0  0  0  0  0  0  0  0  0  0
    3.0843    1.9791   -2.4639 C   0  0  0  0  0  0  0  0  0  0  0  0
  1  6  1  0
  2 22  2  0
  3  4  1  0
  3  6  1  0
  3  9  1  0
  3 11  1  0
  4  5  1  0
  4  7  1  0
  5 10  1  0
  5 12  1  0
  6  8  1  0
  6 17  1  0
  7  8  1  0
  9 18  1  0
 10 13  1  0
 10 14  2  0
 11 13  2  0
 12 15  1  0
 14 16  1  0
 14 19  1  0
 15 16  1  0
 16 20  2  0
 17 23  3  0
 19 21  1  0
 20 22  1  0
 21 22  1  0
M  END
>  <PUBCHEM_COMPOUND_CID>  (1) 
27812

>  <PUBCHEM_CONFORMER_RMSD>  (1) 
0.6

>  <PUBCHEM_CONFORMER_DIVERSEORDER>  (1) 
1

>  <PUBCHEM_MMFF94_PARTIAL_CHARGES>  (1) 
22
1 -0.68
10 -0.14
11 -0.29
13 -0.15
14 -0.14
15 0.14
16 -0.14
17 -0.2
19 0.14
2 -0.57
20 -0.14
21 0.06
22 0.49
23 -0.18
3 0.14
32 0.15
35 0.15
41 0.4
44 0.15
47 0.18
5 0.14
6 0.48

>  <PUBCHEM_EFFECTIVE_ROTOR_COUNT>  (1) 
2.4

>  <PUBCHEM_PHARMACOPHORE_FEATURES>  (1) 
9
1 1 acceptor
1 1 donor
1 18 hydrophobe
1 2 acceptor
1 23 hydrophobe
5 3 4 6 7 8 rings
6 14 16 19 20 21 22 rings
6 3 4 5 10 11 13 rings
6 5 10 12 14 15 16 rings

>  <PUBCHEM_HEAVY_ATOM_COUNT>  (1) 
23

>  <PUBCHEM_ATOM_DEF_STEREO_COUNT>  (1) 
4

>  <PUBCHEM_ATOM_UDEF_STEREO_COUNT>  (1) 
0

>  <PUBCHEM_BOND_DEF_STEREO_COUNT>  (1) 
0

>  <PUBCHEM_BOND_UDEF_STEREO_COUNT>  (1) 
0

>  <PUBCHEM_ISOTOPIC_ATOM_COUNT>  (1) 
0

>  <PUBCHEM_COMPONENT_COUNT>  (1) 
1

>  <PUBCHEM_CACTVS_TAUTO_COUNT>  (1) 
5

>  <PUBCHEM_CONFORMER_ID>  (1) 
00006CA400000001

>  <PUBCHEM_MMFF94_ENERGY>  (1) 
69.1854

>  <PUBCHEM_FEATURE_SELFOVERLAP>  (1) 
45.78

>  <PUBCHEM_SHAPE_FINGERPRINT>  (1) 
10366900 7 17275386516711354018
10498660 4 18341902938519577893
10759866 29 18187087277464961930
11089746 13 17095521807469762237
11578080 2 15696005241327617627
11640471 11 17750248056707052366
12011746 2 18060422408516357142
12236239 1 18040430018985606122
12403259 415 18130503051010255185
12670546 56 16298660595378491749
13224815 77 18343305859743571923
14115302 16 18412553106524559790
14790565 3 18127146190724748937
15163728 17 16083367577344007876
15196674 1 18272653398763968115
15238133 3 18261101967861627089
15375358 24 17989194979985295794
15635459 17 16917354735860469564
1601671 61 18412266137847126348
16752209 62 18271810094772860441
16945 1 18201440340908727114
17349148 13 18342446033023669755
17980427 23 18120349177213296704
1813 80 17315903378973273306
18186145 218 17489594458777535467
18681886 176 18410294757149687044
19862831 5 18343306950665264891
200 152 16487253257964982827
20645477 70 15985103020119997424
20715895 44 18043521708408093493
21503847 285 17676215671298309604
221357 26 18060133203284536481
22149856 69 18342192051198465571
22182313 1 17702949286809850618
23493267 7 18187939399092812546
23557571 272 18341044129876249784
23559900 14 18341616979850653142
239999 70 16558744637568499664
2748010 2 17699287977566425306
2838139 119 17535487125392635220
3004659 81 18338802212935117982
3060560 45 16988847172416487902
3286 77 17417811665305426498
34797466 226 16128368303494002713
4340502 62 12679167311572876854
4409770 3 15737678445216393634
474 4 16734401597341287620
495365 180 17131818876847109050
5895379 119 18336835173753822004
633830 44 18040156214688948375
8272917 22 17385719158315587538
9709674 26 18130499842569535891
9981440 41 17252320099250576180

>  <PUBCHEM_SHAPE_MULTIPOLES>  (1) 
461.59
9.79
2.11
1.71
8.98
0.41
0.21
-2.51
-1.91
0.31
-0.61
-2.72
-0.68
-0.42

>  <PUBCHEM_SHAPE_SELFOVERLAP>  (1) 
1007.203

>  <PUBCHEM_SHAPE_VOLUME>  (1) 
249.1

>  <PUBCHEM_COORDINATE_TYPE>  (1) 
2
5
10

$$$$
