27820
     RDKit          3D

 12 11  0  0  0  0  0  0  0  0999 V2000
    4.0286    0.3113   -0.8445 C   0  0  0  0  0  0  0  0  0  0  0  0
    4.0580    0.7946    0.6075 C   0  0  0  0  0  0  0  0  0  0  0  0
    3.1489   -0.9251   -1.0578 C   0  0  0  0  0  0  0  0  0  0  0  0
   -3.5445    0.2759   -0.1689 C   0  0  0  0  0  0  0  0  0  0  0  0
   -5.0102    0.5970    0.1231 C   0  0  0  0  0  0  0  0  0  0  0  0
   -2.9270   -0.5686    0.9455 C   0  0  0  0  0  0  0  0  0  0  0  0
    5.0032    1.9740    0.7798 C   0  0  0  0  0  0  0  0  0  0  0  0
    1.6974   -0.6827   -0.7552 C   0  0  0  0  0  0  0  0  0  0  0  0
   -5.6167    1.4706   -0.9635 C   0  0  0  0  0  0  0  0  0  0  0  0
    1.0209   -1.3363    0.1994 C   0  0  0  0  0  0  0  0  0  0  0  0
   -1.5090   -0.8430    0.6771 C   0  0  0  0  0  0  0  0  0  0  0  0
   -0.3497   -1.0676    0.4575 C   0  0  0  0  0  0  0  0  0  0  0  0
  1  2  1  0
  1  3  1  0
  2  7  1  0
  3  8  1  0
  4  5  1  0
  4  6  1  0
  5  9  1  0
  6 11  1  0
  8 10  2  0
 10 12  1  0
 11 12  3  0
M  END
>  <PUBCHEM_COMPOUND_CID>  (1) 
27820

>  <PUBCHEM_CONFORMER_RMSD>  (1) 
0.6

>  <PUBCHEM_CONFORMER_DIVERSEORDER>  (1) 
2
16
24
60
28
62
53
58
50
35
71
19
66
72
15
3
56
37
41
32
38
49
1
34
12
68
67
7
20
51
10
43
13
6
70
31
65
40
57
59
46
14
8
29
69
54
44
33
30
39
23
22
64
27
42
4
25
17
5
47
61
36
55
63
52
26
18
48
9
11
45
21

>  <PUBCHEM_MMFF94_PARTIAL_CHARGES>  (1) 
8
10 -0.09
11 -0.2
12 -0.06
28 0.15
3 0.14
32 0.15
6 0.2
8 -0.29

>  <PUBCHEM_EFFECTIVE_ROTOR_COUNT>  (1) 
5

>  <PUBCHEM_PHARMACOPHORE_FEATURES>  (1) 
4
1 7 hydrophobe
1 9 hydrophobe
4 1 2 3 8 hydrophobe
4 4 5 6 11 hydrophobe

>  <PUBCHEM_HEAVY_ATOM_COUNT>  (1) 
12

>  <PUBCHEM_ATOM_DEF_STEREO_COUNT>  (1) 
0

>  <PUBCHEM_ATOM_UDEF_STEREO_COUNT>  (1) 
0

>  <PUBCHEM_BOND_DEF_STEREO_COUNT>  (1) 
0

>  <PUBCHEM_BOND_UDEF_STEREO_COUNT>  (1) 
1

>  <PUBCHEM_ISOTOPIC_ATOM_COUNT>  (1) 
0

>  <PUBCHEM_COMPONENT_COUNT>  (1) 
1

>  <PUBCHEM_CACTVS_TAUTO_COUNT>  (1) 
1

>  <PUBCHEM_CONFORMER_ID>  (1) 
00006CAC00000002

>  <PUBCHEM_MMFF94_ENERGY>  (1) 
-3.6352

>  <PUBCHEM_FEATURE_SELFOVERLAP>  (1) 
20.3

>  <PUBCHEM_SHAPE_FINGERPRINT>  (1) 
10014705 185 18341050804371153835
11128504 68 16056881342304089928
11543360 7 17060341820505817367
12616999 72 14692578697646203980
14123255 352 18409729599092627664
1420 369 10159691396258207893
14251710 61 8862950467676242410
14251732 14 11959732715481291056
14252887 29 7925629965125365118
14455015 7 8790887388849273229
15501527 24 16200430282128972485
17834072 33 16056878031227215649
17870717 6 12751241394190870017
193927 3 11167935883811627455
19782 4 18335421278771653379
20281475 54 12966863290091667951
20388580 30 12319733683050406242
20605781 2 18409729564890943409
20621476 13 17985822872592671976
20621476 21 10375868623463306749
20645477 56 18334304162547912131
20645477 70 17774174413296841062
20724930 31 9943805577883643066
20871999 31 17417801894566422295
212847 35 18113622270474188062
212916 134 17676203593396755027
22765269 38 18272643593348662160
23016692 55 12607404403757286817
23402655 69 17632298977450249450
23557571 272 18115893891467512031
23590187 173 18409169917719769948
23590187 90 18273493481292298696
2767999 5 17968090915706311181
2916195 48 18335419088776195417
328317 168 18272931647845654146
42 15 12685092583597541995
5352402 22 11169908377206315896
548570 60 18410576201565773920
573450 72 16443631301973892683
94968 8 9295298227143794652

>  <PUBCHEM_SHAPE_MULTIPOLES>  (1) 
246.95
13.26
1.66
1.11
6.78
0.51
0.1
9.41
1.36
-0.93
-0.14
-0.26
0.04
1.89

>  <PUBCHEM_SHAPE_SELFOVERLAP>  (1) 
448.944

>  <PUBCHEM_SHAPE_VOLUME>  (1) 
155.4

>  <PUBCHEM_COORDINATE_TYPE>  (1) 
2
5
10

$$$$
