27827
     RDKit          3D

  6  5  0  0  0  0  0  0  0  0999 V2000
   -0.9548   -0.1305   -0.5666 O   0  0  0  0  0  0  0  0  0  0  0  0
    1.3641   -1.2597    0.0609 O   0  0  0  0  0  0  0  0  0  0  0  0
    0.1210    0.4239    0.2563 N   0  0  0  0  0  0  0  0  0  0  0  0
    1.2955   -0.0364   -0.1063 N   0  0  0  0  0  0  0  0  0  0  0  0
    0.0022    1.8702    0.0726 C   0  0  0  0  0  0  0  0  0  0  0  0
   -1.8280   -0.8674    0.2831 C   0  0  0  0  0  0  0  0  0  0  0  0
  1  3  1  0
  1  6  1  0
  2  4  2  0
  3  4  1  0
  3  5  1  0
M  END
>  <PUBCHEM_COMPOUND_CID>  (1) 
27827

>  <PUBCHEM_CONFORMER_RMSD>  (1) 
0.4

>  <PUBCHEM_CONFORMER_DIVERSEORDER>  (1) 
2
8
7
1
15
10
11
12
4
14
13
6
16
5
9
3

>  <PUBCHEM_MMFF94_PARTIAL_CHARGES>  (1) 
6
1 -0.18
2 -0.16
3 -0.19
4 -0.01
5 0.27
6 0.28

>  <PUBCHEM_EFFECTIVE_ROTOR_COUNT>  (1) 
2

>  <PUBCHEM_PHARMACOPHORE_FEATURES>  (1) 
0

>  <PUBCHEM_HEAVY_ATOM_COUNT>  (1) 
6

>  <PUBCHEM_ATOM_DEF_STEREO_COUNT>  (1) 
0

>  <PUBCHEM_ATOM_UDEF_STEREO_COUNT>  (1) 
0

>  <PUBCHEM_BOND_DEF_STEREO_COUNT>  (1) 
0

>  <PUBCHEM_BOND_UDEF_STEREO_COUNT>  (1) 
0

>  <PUBCHEM_ISOTOPIC_ATOM_COUNT>  (1) 
0

>  <PUBCHEM_COMPONENT_COUNT>  (1) 
1

>  <PUBCHEM_CACTVS_TAUTO_COUNT>  (1) 
1

>  <PUBCHEM_CONFORMER_ID>  (1) 
00006CB300000002

>  <PUBCHEM_MMFF94_ENERGY>  (1) 
7.87

>  <PUBCHEM_FEATURE_SELFOVERLAP>  (1) 
0

>  <PUBCHEM_SHAPE_FINGERPRINT>  (1) 
139733 1 9151170956597025795
20096714 4 17622168292229279617
21015797 1 9079104566566328436
21040471 1 17185877740289546009
29004967 10 18337111262545436179
5943 1 8782648928552809189

>  <PUBCHEM_SHAPE_MULTIPOLES>  (1) 
101.78
1.91
1.63
0.62
1.2
0.2
0.01
-0.29
-0.11
-0.82
-0.07
0.08
0.04
0.04

>  <PUBCHEM_SHAPE_SELFOVERLAP>  (1) 
176.388

>  <PUBCHEM_SHAPE_VOLUME>  (1) 
68.8

>  <PUBCHEM_COORDINATE_TYPE>  (1) 
2
5
10

$$$$
