27825
     RDKit          3D

 12 11  0  0  0  0  0  0  0  0999 V2000
    0.8111   -2.8402    0.7688 O   0  0  0  0  0  0  0  0  0  0  0  0
    0.5986   -0.9301   -0.1003 N   0  0  0  0  0  0  0  0  0  0  0  0
    1.1462   -2.1291   -0.1861 N   0  0  0  0  0  0  0  0  0  0  0  0
   -1.6094    0.0828    0.2252 C   0  0  0  0  0  0  0  0  0  0  0  0
   -0.7539   -0.8429   -0.6381 C   0  0  0  0  0  0  0  0  0  0  0  0
   -3.0404    0.1720   -0.3097 C   0  0  0  0  0  0  0  0  0  0  0  0
    1.4498    0.0955   -0.7201 C   0  0  0  0  0  0  0  0  0  0  0  0
    2.5651    0.5096    0.2383 C   0  0  0  0  0  0  0  0  0  0  0  0
   -3.8900    1.1250    0.5306 C   0  0  0  0  0  0  0  0  0  0  0  0
    3.4761    1.5616   -0.3957 C   0  0  0  0  0  0  0  0  0  0  0  0
   -5.3214    1.1906    0.0222 C   0  0  0  0  0  0  0  0  0  0  0  0
    4.5680    2.0050    0.5649 C   0  0  0  0  0  0  0  0  0  0  0  0
  1  3  2  0
  2  3  1  0
  2  5  1  0
  2  7  1  0
  4  5  1  0
  4  6  1  0
  6  9  1  0
  7  8  1  0
  8 10  1  0
  9 11  1  0
 10 12  1  0
M  END
>  <PUBCHEM_COMPOUND_CID>  (1) 
27825

>  <PUBCHEM_CONFORMER_RMSD>  (1) 
0.8

>  <PUBCHEM_CONFORMER_DIVERSEORDER>  (1) 
1
37
154
173
144
276
222
57
133
267
172
225
272
277
221
200
6
8
2
265
35
169
95
196
28
224
104
136
141
114
243
107
179
209
242
64
97
86
291
4
129
121
206
269
5
52
182
223
192
113
49
81
155
19
180
288
130
297
285
13
261
70
218
164
93
42
101
68
229
220
109
143
184
79
98
100
296
193
210
194
41
273
163
248
59
250
53
96
279
34
151
177
191
12
167
112
233
187
181
132
236
83
195
84
199
3
170
252
94
125
44
215
32
188
286
247
166
201
122
118
25
239
260
197
237
56
67
85
241
159
29
103
50
77
148
183
9
66
92
65
43
78
31
289
39
251
17
158
140
139
111
88
214
72
40
257
152
153
266
36
47
263
162
54
62
258
33
232
156
145
90
219
142
290
21
207
165
270
108
38
74
10
7
11
256
268
99
282
281
150
24
76
48
45
226
14
126
87
15
189
174
254
275
127
216
134
244
230
202
212
46
131
292
203
238
284
16
146
227
280
110
63
274
120
287
278
185
128
283
235
208
157
299
234
295
293
255
228
175
116
123
69
161
149
61
147
171
119
190
217
298
211
249
117
20
178
23
138
240
246
168
160
186
71
22
30
82
253
102
231
55
176
137
89
27
80
264
245
271
294
204
105
259
51
124
262
213
18
73
135
91
60
75
106
205
115
58
26
198

>  <PUBCHEM_MMFF94_PARTIAL_CHARGES>  (1) 
5
1 -0.16
2 -0.36
3 -0.01
5 0.27
7 0.27

>  <PUBCHEM_EFFECTIVE_ROTOR_COUNT>  (1) 
8

>  <PUBCHEM_PHARMACOPHORE_FEATURES>  (1) 
2
1 11 hydrophobe
1 12 hydrophobe

>  <PUBCHEM_HEAVY_ATOM_COUNT>  (1) 
12

>  <PUBCHEM_ATOM_DEF_STEREO_COUNT>  (1) 
0

>  <PUBCHEM_ATOM_UDEF_STEREO_COUNT>  (1) 
0

>  <PUBCHEM_BOND_DEF_STEREO_COUNT>  (1) 
0

>  <PUBCHEM_BOND_UDEF_STEREO_COUNT>  (1) 
0

>  <PUBCHEM_ISOTOPIC_ATOM_COUNT>  (1) 
0

>  <PUBCHEM_COMPONENT_COUNT>  (1) 
1

>  <PUBCHEM_CACTVS_TAUTO_COUNT>  (1) 
1

>  <PUBCHEM_CONFORMER_ID>  (1) 
00006CB100000001

>  <PUBCHEM_MMFF94_ENERGY>  (1) 
6.4259

>  <PUBCHEM_FEATURE_SELFOVERLAP>  (1) 
10.149

>  <PUBCHEM_SHAPE_FINGERPRINT>  (1) 
122479 349 18268993270663299556
12346645 44 18413670218690996333
12616999 72 16773514382984621077
14123255 52 18412544335795471097
14252887 29 8718540584745981308
15775835 57 18343584061691595204
170605 34 18272093777072591303
17834072 32 18267026244219309708
204376 136 18335422404142729757
20605781 2 18272371996686040225
20621476 66 18340490088402678224
20645477 70 18268148652749861359
20871999 31 16415188031849486701
21499 59 18411696608182863519
21524375 3 18340483469224299558
21618674 25 18261114058727224275
23500284 214 18338518663536520136
23532345 1 18336268946977152393
328317 168 18342455967468057341
449060 50 18408327670744414365
449060 62 18342740685097512729
7364860 26 18269276759594751718
81539 233 18335139773798607069

>  <PUBCHEM_SHAPE_MULTIPOLES>  (1) 
231.12
9.43
2.36
0.8
5.44
1.53
-0.01
-9.08
1.01
-1.77
0.53
-0.13
0.04
-0.08

>  <PUBCHEM_SHAPE_SELFOVERLAP>  (1) 
415.809

>  <PUBCHEM_SHAPE_VOLUME>  (1) 
150.5

>  <PUBCHEM_COORDINATE_TYPE>  (1) 
2
5
10

$$$$
