27836
     RDKit          3D

 22 26  0  0  0  0  0  0  0  0999 V2000
   -1.2086   -1.6050   -0.1189 C   0  0  0  0  0  0  0  0  0  0  0  0
   -2.5012   -2.3807   -0.1979 C   0  0  0  0  0  0  0  0  0  0  0  0
   -1.2380   -0.2005   -0.0664 C   0  0  0  0  0  0  0  0  0  0  0  0
   -3.6099   -1.6984    0.6036 C   0  0  0  0  0  0  0  0  0  0  0  0
   -2.5486    0.4978   -0.0609 C   0  0  0  0  0  0  0  0  0  0  0  0
   -3.7190   -0.2342    0.2521 C   0  0  0  0  0  0  0  0  0  0  0  0
    1.2574   -0.1854   -0.0230 C   0  0  0  0  0  0  0  0  0  0  0  0
    1.2333   -1.5978   -0.1042 C   0  0  0  0  0  0  0  0  0  0  0  0
   -0.0020    0.4753   -0.0049 C   0  0  0  0  0  0  0  0  0  0  0  0
    0.0131   -2.2859   -0.1540 C   0  0  0  0  0  0  0  0  0  0  0  0
    2.5296    0.4907    0.0336 C   0  0  0  0  0  0  0  0  0  0  0  0
   -2.6971    1.8615   -0.3708 C   0  0  0  0  0  0  0  0  0  0  0  0
   -4.9714    0.3966    0.2922 C   0  0  0  0  0  0  0  0  0  0  0  0
    3.7244   -0.2754    0.0036 C   0  0  0  0  0  0  0  0  0  0  0  0
    2.4300   -2.3190   -0.1324 C   0  0  0  0  0  0  0  0  0  0  0  0
    3.6573   -1.6678   -0.0794 C   0  0  0  0  0  0  0  0  0  0  0  0
   -3.9508    2.4799   -0.3444 C   0  0  0  0  0  0  0  0  0  0  0  0
   -5.0855    1.7501   -0.0084 C   0  0  0  0  0  0  0  0  0  0  0  0
    2.6819    1.8980    0.1172 C   0  0  0  0  0  0  0  0  0  0  0  0
    4.9806    0.3526    0.0562 C   0  0  0  0  0  0  0  0  0  0  0  0
    3.9373    2.5103    0.1690 C   0  0  0  0  0  0  0  0  0  0  0  0
    5.0871    1.7373    0.1383 C   0  0  0  0  0  0  0  0  0  0  0  0
  1  2  1  0
  1  3  2  0
  1 10  1  0
  2  4  1  0
  3  5  1  0
  3  9  1  0
  4  6  1  0
  5  6  2  0
  5 12  1  0
  6 13  1  0
  7  8  1  0
  7  9  2  0
  7 11  1  0
  8 10  2  0
  8 15  1  0
 11 14  2  0
 11 19  1  0
 12 17  2  0
 13 18  2  0
 14 16  1  0
 14 20  1  0
 15 16  2  0
 17 18  1  0
 19 21  2  0
 20 22  2  0
 21 22  1  0
M  END
>  <PUBCHEM_COMPOUND_CID>  (1) 
27836

>  <PUBCHEM_CONFORMER_RMSD>  (1) 
0.6

>  <PUBCHEM_CONFORMER_DIVERSEORDER>  (1) 
1

>  <PUBCHEM_MMFF94_PARTIAL_CHARGES>  (1) 
28
1 -0.14
10 -0.15
12 -0.15
13 -0.15
15 -0.15
16 -0.15
17 -0.15
18 -0.15
19 -0.15
2 0.14
20 -0.15
21 -0.15
22 -0.15
27 0.15
28 0.15
29 0.15
30 0.15
31 0.15
32 0.15
33 0.15
34 0.15
35 0.15
36 0.15
37 0.15
38 0.15
4 0.14
6 -0.14
9 -0.15

>  <PUBCHEM_EFFECTIVE_ROTOR_COUNT>  (1) 
0.4

>  <PUBCHEM_PHARMACOPHORE_FEATURES>  (1) 
5
6 1 2 3 4 5 6 rings
6 1 3 7 8 9 10 rings
6 11 14 19 20 21 22 rings
6 5 6 12 13 17 18 rings
6 7 8 11 14 15 16 rings

>  <PUBCHEM_HEAVY_ATOM_COUNT>  (1) 
22

>  <PUBCHEM_ATOM_DEF_STEREO_COUNT>  (1) 
0

>  <PUBCHEM_ATOM_UDEF_STEREO_COUNT>  (1) 
0

>  <PUBCHEM_BOND_DEF_STEREO_COUNT>  (1) 
0

>  <PUBCHEM_BOND_UDEF_STEREO_COUNT>  (1) 
0

>  <PUBCHEM_ISOTOPIC_ATOM_COUNT>  (1) 
0

>  <PUBCHEM_COMPONENT_COUNT>  (1) 
1

>  <PUBCHEM_CACTVS_TAUTO_COUNT>  (1) 
1

>  <PUBCHEM_CONFORMER_ID>  (1) 
00006CBC00000001

>  <PUBCHEM_MMFF94_ENERGY>  (1) 
75.5691

>  <PUBCHEM_FEATURE_SELFOVERLAP>  (1) 
25.466

>  <PUBCHEM_SHAPE_FINGERPRINT>  (1) 
10 15 18259706726282017952
10319926 262 18337659893827187314
10411042 1 17402894423242742782
10608611 8 18410292501605976399
10616163 171 18339081595993671575
10646746 165 18409730672944909572
10670039 82 18189346834670423844
1100329 8 16609134911719115833
11370993 70 18410853256820488457
11405975 8 18334854987513147626
11595378 159 16950553346699730404
12107183 9 18047180861213316042
12390115 104 18269854119094716817
12403259 118 18339068385064419058
12403259 415 18188492346536847869
12507560 40 18408328782734820595
12633257 1 18261661585326556466
12925494 130 18340204094957089249
13140716 1 18335136453768204082
133893 2 16198489540916399095
13402501 40 18410009922944561573
138480 1 17690561883842703151
14341114 176 18409174285432744489
14790565 3 18119818168974217812
15196674 1 18411138038927584106
15475509 35 16588868945366505226
1601671 61 18409167710476078876
17492 89 18410012147664177298
1813 80 16660366969510963644
20645477 56 18334577919436542013
20715895 44 18194958548338940033
21033648 144 18335411348992024917
21033648 29 18271236218175108384
21065198 57 18409450258514293850
21236236 1 18341330089389316719
21279426 13 18341620287534146782
21315764 268 18261106318959091845
21421861 104 17823405016845294826
21709351 56 18411976992464844972
21859007 373 17242999160765563109
22393880 68 18341620330204400782
23227448 37 18413106182195310439
23558518 356 18115590490308156994
23559900 14 18270962324184972062
245318 6 16882461919243341228
335352 9 18411418372281693038
350125 39 18410578413268027577
3545911 37 18411140229424195584
3680242 22 18264487295797461906
4073 2 18041003972830155226
4214541 1 18410293613986818225
474 4 18411981329991378016
495365 180 17489011726478944970
5081480 168 17270921309791309548
5104073 3 18335141972901212051
543358 83 18340489967736704098
59755656 215 18411986828235403788
633830 44 18341326708511687351
636775 72 17621597642308008192
7808743 9 18194399129217849192
9709674 26 18411986840587990727
9981440 41 18335699493884466131

>  <PUBCHEM_SHAPE_MULTIPOLES>  (1) 
452.75
11.17
3.06
0.66
0.02
0.01
-0.01
-6.11
-0.68
-0.03
0.14
-0.12
0.01
0.56

>  <PUBCHEM_SHAPE_SELFOVERLAP>  (1) 
1040.001

>  <PUBCHEM_SHAPE_VOLUME>  (1) 
213.5

>  <PUBCHEM_COORDINATE_TYPE>  (1) 
2
5
10

$$$$
