27849
     RDKit          3D

  6  5  0  0  1  0  0  0  0  0999 V2000
    1.1224   -0.1206   -0.4378 P   0  0  0  0  0  0  0  0  0  0  0  0
   -0.3784   -0.4901    0.0743 O   0  0  0  0  0  0  0  0  0  0  0  0
    2.1345   -1.0370    0.2038 O   0  0  0  0  0  0  0  0  0  0  0  0
   -1.4621    0.3243   -0.3376 C   0  0  0  0  0  0  0  0  0  0  0  0
    1.3257    1.5404    0.2346 C   0  0  0  0  0  0  0  0  0  0  0  0
   -2.7421   -0.2171    0.2626 C   0  0  0  0  0  0  0  0  0  0  0  0
  1  2  1  0
  1  3  2  0
  1  5  1  0
  2  4  1  0
  4  6  1  0
M  END
>  <PUBCHEM_COMPOUND_CID>  (1) 
27849

>  <PUBCHEM_CONFORMER_RMSD>  (1) 
0.4

>  <PUBCHEM_CONFORMER_DIVERSEORDER>  (1) 
1
11
12
2
9
3
10
5
8
4
6
7

>  <PUBCHEM_MMFF94_PARTIAL_CHARGES>  (1) 
5
1 1.01
2 -0.55
3 -0.7
4 0.28
7 -0.04

>  <PUBCHEM_EFFECTIVE_ROTOR_COUNT>  (1) 
2

>  <PUBCHEM_PHARMACOPHORE_FEATURES>  (1) 
0

>  <PUBCHEM_HEAVY_ATOM_COUNT>  (1) 
6

>  <PUBCHEM_ATOM_DEF_STEREO_COUNT>  (1) 
0

>  <PUBCHEM_ATOM_UDEF_STEREO_COUNT>  (1) 
1

>  <PUBCHEM_BOND_DEF_STEREO_COUNT>  (1) 
0

>  <PUBCHEM_BOND_UDEF_STEREO_COUNT>  (1) 
0

>  <PUBCHEM_ISOTOPIC_ATOM_COUNT>  (1) 
0

>  <PUBCHEM_COMPONENT_COUNT>  (1) 
1

>  <PUBCHEM_CACTVS_TAUTO_COUNT>  (1) 
2

>  <PUBCHEM_CONFORMER_ID>  (1) 
00006CC900000001

>  <PUBCHEM_MMFF94_ENERGY>  (1) 
-1.3458

>  <PUBCHEM_FEATURE_SELFOVERLAP>  (1) 
0

>  <PUBCHEM_SHAPE_FINGERPRINT>  (1) 
139733 1 9294990376234790670
14390081 3 18059295499424380473
20096714 4 18199468933819076028
21040471 1 18123189266780833124
23552449 11 18410851062118625962
24536 1 17274833462257002781
29004967 10 18341612564497269346
5460574 1 10519982656023570119

>  <PUBCHEM_SHAPE_MULTIPOLES>  (1) 
115.59
3.5
1.21
0.69
1.94
0.33
0.05
-0.34
-0.36
-0.86
-0.12
0
0.02
0.06

>  <PUBCHEM_SHAPE_SELFOVERLAP>  (1) 
186.704

>  <PUBCHEM_SHAPE_VOLUME>  (1) 
81.9

>  <PUBCHEM_COORDINATE_TYPE>  (1) 
2
5
10

$$$$
