27848
     RDKit          3D

 20 21  0  0  0  0  0  0  0  0999 V2000
    2.1398   -0.3329    0.4313 N   0  0  0  0  0  0  0  0  0  0  0  0
   -3.5042   -1.8418    0.8494 N   0  0  0  0  0  0  0  0  0  0  0  0
    0.7268   -0.3912    0.7894 C   0  0  0  0  0  0  0  0  0  0  0  0
    2.6903   -1.6814    0.2869 C   0  0  0  0  0  0  0  0  0  0  0  0
    2.8944    0.4193    1.4350 C   0  0  0  0  0  0  0  0  0  0  0  0
   -0.1064   -1.1235   -0.2784 C   0  0  0  0  0  0  0  0  0  0  0  0
    4.1697   -1.6133   -0.0880 C   0  0  0  0  0  0  0  0  0  0  0  0
    2.3619    1.8475    1.5389 C   0  0  0  0  0  0  0  0  0  0  0  0
   -1.5465   -1.1707    0.0470 C   0  0  0  0  0  0  0  0  0  0  0  0
   -2.5306   -0.2108   -0.3207 C   0  0  0  0  0  0  0  0  0  0  0  0
    4.3694   -0.8909   -1.4208 C   0  0  0  0  0  0  0  0  0  0  0  0
    2.5033    2.5880    0.2085 C   0  0  0  0  0  0  0  0  0  0  0  0
   -3.7497   -0.6557    0.1950 C   0  0  0  0  0  0  0  0  0  0  0  0
   -2.1755   -2.1611    0.7656 C   0  0  0  0  0  0  0  0  0  0  0  0
    5.8423   -0.7878   -1.7838 C   0  0  0  0  0  0  0  0  0  0  0  0
    1.9431    3.9988    0.2936 C   0  0  0  0  0  0  0  0  0  0  0  0
   -2.5010    0.9974   -1.0450 C   0  0  0  0  0  0  0  0  0  0  0  0
   -4.9457    0.0502    0.0220 C   0  0  0  0  0  0  0  0  0  0  0  0
   -3.6895    1.7141   -1.2261 C   0  0  0  0  0  0  0  0  0  0  0  0
   -4.8919    1.2459   -0.6999 C   0  0  0  0  0  0  0  0  0  0  0  0
  1  3  1  0
  1  4  1  0
  1  5  1  0
  2 13  1  0
  2 14  1  0
  3  6  1  0
  4  7  1  0
  5  8  1  0
  6  9  1  0
  7 11  1  0
  8 12  1  0
  9 10  1  0
  9 14  2  0
 10 13  2  0
 10 17  1  0
 11 15  1  0
 12 16  1  0
 13 18  1  0
 17 19  2  0
 18 20  2  0
 19 20  1  0
M  END
>  <PUBCHEM_COMPOUND_CID>  (1) 
27848

>  <PUBCHEM_CONFORMER_RMSD>  (1) 
0.8

>  <PUBCHEM_CONFORMER_DIVERSEORDER>  (1) 
4
40
184
115
49
160
11
38
155
97
34
77
68
116
170
109
25
10
104
31
41
46
185
7
153
69
120
39
150
89
93
143
102
53
133
136
123
156
148
61
110
48
9
23
88
130
147
125
73
98
66
165
59
131
149
101
32
112
164
86
1
67
82
17
99
171
62
24
129
180
70
14
137
134
91
174
157
36
63
2
107
6
33
166
151
121
146
95
58
57
140
21
142
55
72
145
159
64
79
47
122
52
26
114
42
186
152
127
37
74
3
51
76
138
139
111
8
113
108
92
13
126
105
60
135
163
161
84
154
117
28
118
19
119
56
96
94
90
106
124
168
182
27
30
35
12
183
18
54
80
144
173
177
169
45
65
78
128
29
50
44
85
175
100
132
162
83
103
81
16
43
75
71
158
178
15
172
5
181
167
141
87
179
176
22
20

>  <PUBCHEM_MMFF94_PARTIAL_CHARGES>  (1) 
19
1 -0.81
13 -0.15
14 -0.3
17 -0.15
18 -0.15
19 -0.15
2 0.03
20 -0.15
3 0.27
37 0.15
38 0.27
4 0.27
45 0.15
46 0.15
47 0.15
48 0.15
5 0.27
6 0.18
9 -0.18

>  <PUBCHEM_EFFECTIVE_ROTOR_COUNT>  (1) 
9

>  <PUBCHEM_PHARMACOPHORE_FEATURES>  (1) 
7
1 1 cation
1 15 hydrophobe
1 16 hydrophobe
1 2 cation
1 2 donor
5 2 9 10 13 14 rings
6 10 13 17 18 19 20 rings

>  <PUBCHEM_HEAVY_ATOM_COUNT>  (1) 
20

>  <PUBCHEM_ATOM_DEF_STEREO_COUNT>  (1) 
0

>  <PUBCHEM_ATOM_UDEF_STEREO_COUNT>  (1) 
0

>  <PUBCHEM_BOND_DEF_STEREO_COUNT>  (1) 
0

>  <PUBCHEM_BOND_UDEF_STEREO_COUNT>  (1) 
0

>  <PUBCHEM_ISOTOPIC_ATOM_COUNT>  (1) 
0

>  <PUBCHEM_COMPONENT_COUNT>  (1) 
1

>  <PUBCHEM_CACTVS_TAUTO_COUNT>  (1) 
1

>  <PUBCHEM_CONFORMER_ID>  (1) 
00006CC800000004

>  <PUBCHEM_MMFF94_ENERGY>  (1) 
24.3196

>  <PUBCHEM_FEATURE_SELFOVERLAP>  (1) 
35.612

>  <PUBCHEM_SHAPE_FINGERPRINT>  (1) 
10366900 7 18040435503553679507
10608611 8 18335973251147264995
11595378 159 16009019566834845981
12236239 1 16443350845094555711
12403259 415 18335978697545695205
12596602 18 15140689055287442989
12633257 1 17897698020389796625
13134695 92 17346876758823783768
13631057 29 14130494167149849337
14251757 5 18264213500175388036
14347329 18 17242720988307525221
14866123 147 16537630367693541450
15210252 30 18113907039960412260
15238133 3 18042392548425309552
15806764 133 18411147951701307050
17041 50 18412262831144074314
17349148 13 15410895158388578326
17357779 13 17846217692550941140
1813 80 16558205821558327038
18186145 218 18343298163099088467
19784866 240 15626221290799964542
20645477 70 17704068504058817022
20681677 76 18337380643258309391
21792961 116 18263940869058656934
221357 26 18412543180491434237
23402539 116 12031497753711630747
23503958 25 18186804707556258731
23559900 14 18411979178196905849
340366 18 17917706929002818382
46194498 28 18268438004364023606
5281201 14 18340768233966571794
57724786 102 18130514114524470825
6049 1 18409166653244139730
6287921 2 17973446799621669532
633830 44 18339348743291831079
6823239 73 18408320008217011224
7808743 9 17676491609719453175
9709674 26 18337663234879011915
9971528 1 16988556884441205050

>  <PUBCHEM_SHAPE_MULTIPOLES>  (1) 
401.63
11.42
3.13
1.38
0.68
3.34
-0.19
-1.4
-4.45
1.93
0.54
1.29
0.12
2.38

>  <PUBCHEM_SHAPE_SELFOVERLAP>  (1) 
819.149

>  <PUBCHEM_SHAPE_VOLUME>  (1) 
236.7

>  <PUBCHEM_COORDINATE_TYPE>  (1) 
2
5
10

$$$$
