27842
     RDKit          3D

 18 20  0  0  0  0  0  0  0  0999 V2000
    3.6697    3.0972    0.0190 Cl  0  0  0  0  0  0  0  0  0  0  0  0
   -4.4585    0.6738   -0.8588 O   0  0  0  0  0  0  0  0  0  0  0  0
    1.4215   -2.2987   -0.2843 O   0  0  0  0  0  0  0  0  0  0  0  0
   -0.6637   -2.8645    0.5249 O   0  0  0  0  0  0  0  0  0  0  0  0
   -1.8909    0.4968    0.3566 N   0  0  0  0  0  0  0  0  0  0  0  0
    0.1350   -0.6731    0.7011 N   0  0  0  0  0  0  0  0  0  0  0  0
   -0.9667   -0.0213    1.3630 C   0  0  0  0  0  0  0  0  0  0  0  0
   -2.4268   -0.5935   -0.4701 C   0  0  0  0  0  0  0  0  0  0  0  0
   -2.9917    1.2359    0.9902 C   0  0  0  0  0  0  0  0  0  0  0  0
   -3.3969   -0.0299   -1.5046 C   0  0  0  0  0  0  0  0  0  0  0  0
   -3.9494    1.7557   -0.0781 C   0  0  0  0  0  0  0  0  0  0  0  0
    1.3143   -0.0766    0.3108 C   0  0  0  0  0  0  0  0  0  0  0  0
    2.0681   -1.0718   -0.2769 C   0  0  0  0  0  0  0  0  0  0  0  0
    0.1960   -2.0106    0.3444 C   0  0  0  0  0  0  0  0  0  0  0  0
    1.7666    1.2215    0.4238 C   0  0  0  0  0  0  0  0  0  0  0  0
    3.3248   -0.8228   -0.7871 C   0  0  0  0  0  0  0  0  0  0  0  0
    3.0377    1.4976   -0.0867 C   0  0  0  0  0  0  0  0  0  0  0  0
    3.8106    0.4840   -0.6871 C   0  0  0  0  0  0  0  0  0  0  0  0
  1 17  1  0
  2 10  1  0
  2 11  1  0
  3 13  1  0
  3 14  1  0
  4 14  2  0
  5  7  1  0
  5  8  1  0
  5  9  1  0
  6  7  1  0
  6 12  1  0
  6 14  1  0
  8 10  1  0
  9 11  1  0
 12 13  2  0
 12 15  1  0
 13 16  1  0
 15 17  2  0
 16 18  2  0
 17 18  1  0
M  END
>  <PUBCHEM_COMPOUND_CID>  (1) 
27842

>  <PUBCHEM_CONFORMER_RMSD>  (1) 
0.6

>  <PUBCHEM_CONFORMER_DIVERSEORDER>  (1) 
1
7
9
6
3
5
8
4
2
10

>  <PUBCHEM_MMFF94_PARTIAL_CHARGES>  (1) 
21
1 -0.18
10 0.28
11 0.28
12 0.12
13 0.08
14 0.78
15 -0.15
16 -0.15
17 0.18
18 -0.15
2 -0.56
29 0.15
3 -0.23
30 0.15
31 0.15
4 -0.57
5 -0.81
6 -0.48
7 0.57
8 0.27
9 0.27

>  <PUBCHEM_EFFECTIVE_ROTOR_COUNT>  (1) 
3.2

>  <PUBCHEM_PHARMACOPHORE_FEATURES>  (1) 
6
1 2 acceptor
1 4 acceptor
1 5 cation
5 3 6 12 13 14 rings
6 12 13 15 16 17 18 rings
6 2 5 8 9 10 11 rings

>  <PUBCHEM_HEAVY_ATOM_COUNT>  (1) 
18

>  <PUBCHEM_ATOM_DEF_STEREO_COUNT>  (1) 
0

>  <PUBCHEM_ATOM_UDEF_STEREO_COUNT>  (1) 
0

>  <PUBCHEM_BOND_DEF_STEREO_COUNT>  (1) 
0

>  <PUBCHEM_BOND_UDEF_STEREO_COUNT>  (1) 
0

>  <PUBCHEM_ISOTOPIC_ATOM_COUNT>  (1) 
0

>  <PUBCHEM_COMPONENT_COUNT>  (1) 
1

>  <PUBCHEM_CACTVS_TAUTO_COUNT>  (1) 
1

>  <PUBCHEM_CONFORMER_ID>  (1) 
00006CC200000001

>  <PUBCHEM_MMFF94_ENERGY>  (1) 
46.5859

>  <PUBCHEM_FEATURE_SELFOVERLAP>  (1) 
30.559

>  <PUBCHEM_SHAPE_FINGERPRINT>  (1) 
10498660 4 18260537927466820485
10608611 8 18267312104457174360
10618630 7 10591770882634414104
11725454 13 17531790442054487381
12730499 353 18261119526378847675
12824470 246 13110145048796573812
12892183 10 11674884393962062829
13134695 92 17825654561432001018
13294875 104 18334284362959557762
13544653 18 10735882763585634064
13583140 156 17313660568077414136
14250199 8 18341616966844132905
15342168 16 18260557748667239757
16752209 62 16701163163829391457
16945 1 18340506490671194146
17134986 127 18408886243709254188
18186145 218 18412269419275753128
192875 21 18342172207615822096
19862831 5 17917428705247622349
20645476 183 18130781214630490815
21499 59 18409728478095360377
21524375 3 18260265243902958106
21634736 98 18130227060358439764
21639500 275 18336543820029868774
22182313 1 18125459737323691294
2255824 54 18267862791946954947
231179 274 17749105565267873740
23382010 3 18272364321320513009
23402539 116 18343300328152696684
23402655 69 18272937081011243916
23559900 14 18272379694095141996
23598291 2 17770505235699208883
25 1 18336834095494906178
2748010 2 18125179353231854490
3060560 45 18339077086341249622
3082319 5 18060135418959971717
4280585 95 17197715714183114046
43658 37 18410289254600443441
4371632 12 12962335802690077160
474 4 18409728469336939089
633830 44 18342179942577855797
7832392 63 17691407412716249161
81228 2 17681567157156867251
83771 10 10159701300146726872
84936 182 18273209798702814248
9981440 41 18124021584562064306

>  <PUBCHEM_SHAPE_MULTIPOLES>  (1) 
344.73
7.77
2.72
1.08
2.85
0.08
-0.06
-5.28
-2.52
-1.66
0.26
0.71
0
0.13

>  <PUBCHEM_SHAPE_SELFOVERLAP>  (1) 
735.278

>  <PUBCHEM_SHAPE_VOLUME>  (1) 
194.4

>  <PUBCHEM_COORDINATE_TYPE>  (1) 
2
5
10

$$$$
