27845
     RDKit          3D

 10 11  0  0  1  0  0  0  0  0999 V2000
    2.5580   -0.5065    0.2070 N   0  0  0  0  0  0  0  0  0  0  0  0
    3.8628   -0.1063   -0.2378 N   0  0  0  0  0  0  0  0  0  0  0  0
   -0.4116   -0.8433   -0.2958 C   0  0  0  0  0  0  0  0  0  0  0  0
   -1.8665    0.8411   -0.3719 C   0  0  0  0  0  0  0  0  0  0  0  0
    0.2649    0.2337    0.5859 C   0  0  0  0  0  0  0  0  0  0  0  0
   -1.0996   -0.0115   -1.3804 C   0  0  0  0  0  0  0  0  0  0  0  0
   -0.7238    1.4153    0.4853 C   0  0  0  0  0  0  0  0  0  0  0  0
   -1.6269   -1.4000    0.4692 C   0  0  0  0  0  0  0  0  0  0  0  0
   -2.6187   -0.2275    0.4392 C   0  0  0  0  0  0  0  0  0  0  0  0
    1.6614    0.6052    0.0993 C   0  0  0  0  0  0  0  0  0  0  0  0
  1  2  1  0
  1 10  1  0
  3  5  1  0
  3  6  1  0
  3  8  1  0
  4  6  1  0
  4  7  1  0
  4  9  1  0
  5  7  1  0
  5 10  1  0
  8  9  1  0
M  END
>  <PUBCHEM_COMPOUND_CID>  (1) 
27845

>  <PUBCHEM_CONFORMER_RMSD>  (1) 
0.6

>  <PUBCHEM_CONFORMER_DIVERSEORDER>  (1) 
1
5
13
10
6
11
2
8
9
4
7
3
12
14

>  <PUBCHEM_MMFF94_PARTIAL_CHARGES>  (1) 
6
1 -0.63
10 0.27
2 -0.72
24 0.36
25 0.36
26 0.36

>  <PUBCHEM_EFFECTIVE_ROTOR_COUNT>  (1) 
3

>  <PUBCHEM_PHARMACOPHORE_FEATURES>  (1) 
3
1 1 donor
1 2 donor
7 3 4 5 6 7 8 9 rings

>  <PUBCHEM_HEAVY_ATOM_COUNT>  (1) 
10

>  <PUBCHEM_ATOM_DEF_STEREO_COUNT>  (1) 
0

>  <PUBCHEM_ATOM_UDEF_STEREO_COUNT>  (1) 
3

>  <PUBCHEM_BOND_DEF_STEREO_COUNT>  (1) 
0

>  <PUBCHEM_BOND_UDEF_STEREO_COUNT>  (1) 
0

>  <PUBCHEM_ISOTOPIC_ATOM_COUNT>  (1) 
0

>  <PUBCHEM_COMPONENT_COUNT>  (1) 
1

>  <PUBCHEM_CACTVS_TAUTO_COUNT>  (1) 
1

>  <PUBCHEM_CONFORMER_ID>  (1) 
00006CC500000001

>  <PUBCHEM_MMFF94_ENERGY>  (1) 
26.6143

>  <PUBCHEM_FEATURE_SELFOVERLAP>  (1) 
16.516

>  <PUBCHEM_SHAPE_FINGERPRINT>  (1) 
12423570 1 13724518516872309869
12932764 1 17385714799356200904
13024252 1 13118002188747540949
14128692 85 17532943911414366847
15310529 11 16732973198486993610
16945 1 18113889481627066889
20653085 51 17023181561660601252
23235685 24 18339355275609819817
23552423 10 18188206632031393560
29004967 10 18272934967813117633
369184 2 13758353375386415782
5084963 1 17748826327879375532

>  <PUBCHEM_SHAPE_MULTIPOLES>  (1) 
195.83
4.15
1.24
0.94
4.75
0.03
-0.23
-0.52
0.01
-0.49
0.16
-0.33
0.01
0.14

>  <PUBCHEM_SHAPE_SELFOVERLAP>  (1) 
404.425

>  <PUBCHEM_SHAPE_VOLUME>  (1) 
116.9

>  <PUBCHEM_COORDINATE_TYPE>  (1) 
2
5
10

$$$$
