27851
     RDKit          3D

 12 11  0  0  0  0  0  0  0  0999 V2000
   -1.4050    1.9605    0.0006 O   0  0  0  0  0  0  0  0  0  0  0  0
   -4.1049   -1.7586    0.0072 O   0  0  0  0  0  0  0  0  0  0  0  0
   -2.8327    0.1383    0.0049 N   0  0  0  0  0  0  0  0  0  0  0  0
   -2.9399   -1.3466   -0.0011 N   0  0  0  0  0  0  0  0  0  0  0  0
    2.1359   -0.4531    0.0038 C   0  0  0  0  0  0  0  0  0  0  0  0
    0.9610    0.5265   -0.0250 C   0  0  0  0  0  0  0  0  0  0  0  0
    3.5036    0.2354   -0.0161 C   0  0  0  0  0  0  0  0  0  0  0  0
   -0.3782   -0.2140   -0.0166 C   0  0  0  0  0  0  0  0  0  0  0  0
    4.6781   -0.7440   -0.0131 C   0  0  0  0  0  0  0  0  0  0  0  0
    6.0102   -0.0112    0.0400 C   0  0  0  0  0  0  0  0  0  0  0  0
   -1.5721    0.7383   -0.0033 C   0  0  0  0  0  0  0  0  0  0  0  0
   -4.0561    0.9287    0.0189 C   0  0  0  0  0  0  0  0  0  0  0  0
  1 11  2  0
  2  4  2  0
  3  4  1  0
  3 11  1  0
  3 12  1  0
  5  6  1  0
  5  7  1  0
  6  8  1  0
  7  9  1  0
  8 11  1  0
  9 10  1  0
M  END
>  <PUBCHEM_COMPOUND_CID>  (1) 
27851

>  <PUBCHEM_CONFORMER_RMSD>  (1) 
0.8

>  <PUBCHEM_CONFORMER_DIVERSEORDER>  (1) 
1
68
61
139
48
143
63
65
33
121
78
141
3
85
99
7
41
64
135
19
116
79
115
15
46
100
50
32
21
84
40
82
39
69
128
134
9
92
127
137
12
18
112
133
140
107
57
28
58
20
35
132
77
124
14
54
110
83
11
23
24
25
131
74
129
95
17
34
72
90
97
13
49
122
89
45
38
67
111
81
30
75
114
113
10
16
44
142
88
22
6
2
104
93
26
86
119
87
96
55
53
138
56
51
42
27
123
80
101
62
118
108
52
31
60
103
29
71
130
98
66
5
4
37
91
105
43
109
117
47
76
125
59
70
126
8
120
36
136
94
106
73
102

>  <PUBCHEM_MMFF94_PARTIAL_CHARGES>  (1) 
7
1 -0.57
11 0.57
12 0.3
2 -0.16
3 -0.18
4 -0.02
8 0.06

>  <PUBCHEM_EFFECTIVE_ROTOR_COUNT>  (1) 
7

>  <PUBCHEM_PHARMACOPHORE_FEATURES>  (1) 
3
1 1 acceptor
1 10 hydrophobe
5 5 6 7 8 9 hydrophobe

>  <PUBCHEM_HEAVY_ATOM_COUNT>  (1) 
12

>  <PUBCHEM_ATOM_DEF_STEREO_COUNT>  (1) 
0

>  <PUBCHEM_ATOM_UDEF_STEREO_COUNT>  (1) 
0

>  <PUBCHEM_BOND_DEF_STEREO_COUNT>  (1) 
0

>  <PUBCHEM_BOND_UDEF_STEREO_COUNT>  (1) 
0

>  <PUBCHEM_ISOTOPIC_ATOM_COUNT>  (1) 
0

>  <PUBCHEM_COMPONENT_COUNT>  (1) 
1

>  <PUBCHEM_CACTVS_TAUTO_COUNT>  (1) 
1

>  <PUBCHEM_CONFORMER_ID>  (1) 
00006CCB00000001

>  <PUBCHEM_MMFF94_ENERGY>  (1) 
10.0962

>  <PUBCHEM_FEATURE_SELFOVERLAP>  (1) 
15.223

>  <PUBCHEM_SHAPE_FINGERPRINT>  (1) 
10912923 1 18113900434337146744
11987891 38 18341333306124772494
12757275 245 18409167744356003107
13214271 11 18201718444710526933
14123238 8 17989204841926422340
14251718 22 18408042936008637420
17834072 33 18260833726433522836
17834076 25 15574715781030315348
1986462 14 18410294671065614444
200 152 18186800292092598698
20279233 1 17846223236926439751
20645477 56 18262798454685887797
20645477 70 16486415344110300844
20828058 44 18413671301070214606
21426921 1 18336263453302809941
22485316 2 18335137562238719602
23380061 127 18408602526780960964
23402539 116 18333728014006652278
23557571 272 18130511812617334500
42788 4 18411136922879412000
573450 72 18188198798390828200
57483677 66 18334574608370438058
59345606 84 18411136939737443394
7062679 117 18334298699428580838

>  <PUBCHEM_SHAPE_MULTIPOLES>  (1) 
225.25
11.56
1.39
0.59
11.07
0.09
0
2.09
-0.13
-1.84
0
0.09
-0.01
0

>  <PUBCHEM_SHAPE_SELFOVERLAP>  (1) 
409.581

>  <PUBCHEM_SHAPE_VOLUME>  (1) 
144.2

>  <PUBCHEM_COORDINATE_TYPE>  (1) 
2
5
10

$$$$
