27868
     RDKit          3D

 17 17  0  0  1  0  0  0  0  0999 V2000
   -0.1447   -0.7789    0.0689 O   0  0  0  0  0  0  0  0  0  0  0  0
   -1.7469   -1.0952   -1.5605 O   0  0  0  0  0  0  0  0  0  0  0  0
    2.1164    0.0709   -0.1781 C   0  0  0  0  0  0  0  0  0  0  0  0
    0.7204   -0.0626   -0.8108 C   0  0  0  0  0  0  0  0  0  0  0  0
    2.0777    0.9674    1.0687 C   0  0  0  0  0  0  0  0  0  0  0  0
    0.0760    2.2124    0.1326 C   0  0  0  0  0  0  0  0  0  0  0  0
    0.1133    1.3111   -1.1119 C   0  0  0  0  0  0  0  0  0  0  0  0
    1.4708    2.3349    0.7591 C   0  0  0  0  0  0  0  0  0  0  0  0
    2.7116   -1.2942    0.1723 C   0  0  0  0  0  0  0  0  0  0  0  0
   -0.4787    3.5920   -0.2191 C   0  0  0  0  0  0  0  0  0  0  0  0
    2.7211   -2.2031   -1.0534 C   0  0  0  0  0  0  0  0  0  0  0  0
    4.1207   -1.1338    0.7358 C   0  0  0  0  0  0  0  0  0  0  0  0
   -1.4181   -0.9805   -0.3867 C   0  0  0  0  0  0  0  0  0  0  0  0
   -2.3834   -1.0123    0.7860 C   0  0  0  0  0  0  0  0  0  0  0  0
   -3.7623   -0.4614    0.3947 C   0  0  0  0  0  0  0  0  0  0  0  0
   -2.4929   -2.4523    1.2794 C   0  0  0  0  0  0  0  0  0  0  0  0
   -3.7010    0.9858   -0.0771 C   0  0  0  0  0  0  0  0  0  0  0  0
  1  4  1  0
  1 13  1  0
  2 13  2  0
  3  4  1  0
  3  5  1  0
  3  9  1  0
  4  7  1  0
  5  8  1  0
  6  7  1  0
  6  8  1  0
  6 10  1  0
  9 11  1  0
  9 12  1  0
 13 14  1  0
 14 15  1  0
 14 16  1  0
 15 17  1  0
M  END
>  <PUBCHEM_COMPOUND_CID>  (1) 
27868

>  <PUBCHEM_CONFORMER_RMSD>  (1) 
0.8

>  <PUBCHEM_CONFORMER_DIVERSEORDER>  (1) 
1
141
221
54
232
217
131
225
199
144
170
179
3
72
126
196
113
58
238
168
79
123
188
41
63
88
17
97
218
219
60
181
162
157
205
148
155
134
87
178
61
108
185
149
183
136
47
184
230
208
80
200
21
128
137
107
228
216
125
43
82
16
19
65
204
182
202
120
73
102
166
161
180
234
156
74
177
111
48
99
75
140
215
26
187
56
151
139
145
201
69
135
103
209
86
150
220
158
24
226
95
49
14
160
169
53
163
147
77
167
33
189
52
197
130
236
96
142
81
42
39
23
30
124
191
116
146
227
70
159
143
71
55
67
175
7
193
37
91
210
92
93
198
31
89
213
18
154
83
190
98
173
176
119
29
115
40
27
13
138
211
222
223
62
214
59
32
78
121
8
174
203
64
57
164
85
68
129
11
109
51
34
132
237
195
94
9
233
105
76
5
127
224
100
153
36
6
207
212
229
38
231
133
172
171
117
106
44
235
152
10
35
84
110
192
101
165
20
28
22
104
206
114
50
194
12
90
15
45
122
2
66
4
118
112
46
186
25

>  <PUBCHEM_MMFF94_PARTIAL_CHARGES>  (1) 
5
1 -0.43
13 0.66
14 0.06
2 -0.57
4 0.28

>  <PUBCHEM_EFFECTIVE_ROTOR_COUNT>  (1) 
6.2

>  <PUBCHEM_PHARMACOPHORE_FEATURES>  (1) 
5
1 16 hydrophobe
1 17 hydrophobe
1 2 acceptor
3 9 11 12 hydrophobe
6 3 4 5 6 7 8 rings

>  <PUBCHEM_HEAVY_ATOM_COUNT>  (1) 
17

>  <PUBCHEM_ATOM_DEF_STEREO_COUNT>  (1) 
0

>  <PUBCHEM_ATOM_UDEF_STEREO_COUNT>  (1) 
4

>  <PUBCHEM_BOND_DEF_STEREO_COUNT>  (1) 
0

>  <PUBCHEM_BOND_UDEF_STEREO_COUNT>  (1) 
0

>  <PUBCHEM_ISOTOPIC_ATOM_COUNT>  (1) 
0

>  <PUBCHEM_COMPONENT_COUNT>  (1) 
1

>  <PUBCHEM_CACTVS_TAUTO_COUNT>  (1) 
1

>  <PUBCHEM_CONFORMER_ID>  (1) 
00006CDC00000001

>  <PUBCHEM_MMFF94_ENERGY>  (1) 
29.7609

>  <PUBCHEM_FEATURE_SELFOVERLAP>  (1) 
25.373

>  <PUBCHEM_SHAPE_FINGERPRINT>  (1) 
10130415 120 18334296448332805411
104564 63 18122067502737469007
1100329 8 16608005713404133491
11086676 242 18343311348711750296
116883 192 18267871588171514716
124424 183 18409164394386708479
12507560 18 18040715818999652283
12696612 119 18122628524556782869
12716301 132 17976238163270743984
12788726 201 18192435169279255706
12824470 246 17460303370493352314
13132413 78 18269280217022462340
13140716 1 18409728473594613050
14178342 30 17981311606321459986
14223421 5 17902798801265807339
14648413 74 18192435383916805057
14790565 3 17978231883164624112
15848700 24 18342452599822963199
16945 1 17418104221086712238
17357779 13 18269545053253358749
17841504 4 18191312773976243979
19049666 15 18335139838539673187
19784866 135 18116987793704047434
19784866 170 18340479080079414328
20388701 513 18268148652200864588
20559304 39 18120385508003712093
20600515 1 18113621170630426590
21130352 189 18412262831001818249
23184049 59 18059579048917689919
23402539 116 18271515395908187517
23419403 2 18116686639387919212
23557571 272 18198065768858086870
23559900 14 18192433189521300435
2748010 2 18339909506943381636
305870 269 17981607387665363313
3084891 72 18191301581455033387
31174 14 17975144437248732571
3286 77 18116152345335119995
4175511 71 18411423929267864165
576247 118 18410583872583157878
6992083 37 18059852891684748775
7364860 26 18122073266583547723
81228 2 18194972837721078800
8809292 202 18335420115035982721

>  <PUBCHEM_SHAPE_MULTIPOLES>  (1) 
338.11
5.93
3.29
1.19
0.86
2.29
0.11
-3.44
-1.23
0.07
-0.25
-0.04
-0.32
0.92

>  <PUBCHEM_SHAPE_SELFOVERLAP>  (1) 
661.074

>  <PUBCHEM_SHAPE_VOLUME>  (1) 
203.7

>  <PUBCHEM_COORDINATE_TYPE>  (1) 
2
5
10

$$$$
