27863
     RDKit          3D

 34 38  0  0  1  0  0  0  0  0999 V2000
    3.5216    3.0090   -0.8055 O   0  0  0  0  0  0  0  0  0  0  0  0
   -0.6346    0.6911   -0.3357 O   0  0  0  0  0  0  0  0  0  0  0  0
    5.0881   -0.2506    0.1900 N   0  0  0  0  0  0  0  0  0  0  0  0
   -4.0551   -0.5520    0.3446 N   0  0  0  0  0  0  0  0  0  0  0  0
    2.8515   -2.1896    0.1800 N   0  0  0  0  0  0  0  0  0  0  0  0
   -7.0251   -0.5437    0.4125 N   0  0  0  0  0  0  0  0  0  0  0  0
    4.8477   -1.2167    1.3698 C   0  0  0  0  0  0  0  0  0  0  0  0
    4.6621   -0.9900   -1.0965 C   0  0  0  0  0  0  0  0  0  0  0  0
   -4.8938    0.6666   -0.1699 C   0  0  0  0  0  0  0  0  0  0  0  0
   -4.8979   -1.8137   -0.0434 C   0  0  0  0  0  0  0  0  0  0  0  0
    5.7557   -2.4550    1.2290 C   0  0  0  0  0  0  0  0  0  0  0  0
    5.5636   -2.2211   -1.3189 C   0  0  0  0  0  0  0  0  0  0  0  0
   -5.0848    0.6304   -1.6996 C   0  0  0  0  0  0  0  0  0  0  0  0
   -5.0897   -1.9324   -1.5689 C   0  0  0  0  0  0  0  0  0  0  0  0
    3.3521   -1.6037    1.4270 C   0  0  0  0  0  0  0  0  0  0  0  0
    3.1696   -1.3804   -1.0005 C   0  0  0  0  0  0  0  0  0  0  0  0
   -6.2466    0.6874    0.5780 C   0  0  0  0  0  0  0  0  0  0  0  0
   -6.2504   -1.7539    0.7029 C   0  0  0  0  0  0  0  0  0  0  0  0
    5.6654   -3.1668   -0.1215 C   0  0  0  0  0  0  0  0  0  0  0  0
   -5.6524   -0.6809   -2.2445 C   0  0  0  0  0  0  0  0  0  0  0  0
    4.3155    1.0724    0.3698 C   0  0  0  0  0  0  0  0  0  0  0  0
   -2.6697   -0.5813   -0.1885 C   0  0  0  0  0  0  0  0  0  0  0  0
    6.5642    0.1961    0.1202 C   0  0  0  0  0  0  0  0  0  0  0  0
   -3.9110   -0.4732    1.8936 C   0  0  0  0  0  0  0  0  0  0  0  0
    4.2013    1.7715   -0.9705 C   0  0  0  0  0  0  0  0  0  0  0  0
   -1.9551    0.6968    0.2044 C   0  0  0  0  0  0  0  0  0  0  0  0
    1.4208   -2.4702    0.2616 C   0  0  0  0  0  0  0  0  0  0  0  0
   -8.2579   -0.5019    1.1937 C   0  0  0  0  0  0  0  0  0  0  0  0
    2.2425    2.9511   -0.3167 C   0  0  0  0  0  0  0  0  0  0  0  0
    0.1435    1.7785   -0.0807 C   0  0  0  0  0  0  0  0  0  0  0  0
    1.4451    1.8370   -0.5787 C   0  0  0  0  0  0  0  0  0  0  0  0
    1.7382    4.0067    0.4430 C   0  0  0  0  0  0  0  0  0  0  0  0
   -0.3607    2.8340    0.6791 C   0  0  0  0  0  0  0  0  0  0  0  0
    0.4365    3.9482    0.9409 C   0  0  0  0  0  0  0  0  0  0  0  0
  1 25  1  0
  1 29  1  0
  2 26  1  0
  2 30  1  0
  3  7  1  0
  3  8  1  0
  3 21  1  0
  3 23  1  0
  4  9  1  0
  4 10  1  0
  4 22  1  0
  4 24  1  0
  5 15  1  0
  5 16  1  0
  5 27  1  0
  6 17  1  0
  6 18  1  0
  6 28  1  0
  7 11  1  0
  7 15  1  0
  8 12  1  0
  8 16  1  0
  9 13  1  0
  9 17  1  0
 10 14  1  0
 10 18  1  0
 11 19  1  0
 12 19  1  0
 13 20  1  0
 14 20  1  0
 21 25  1  0
 22 26  1  0
 29 31  2  0
 29 32  1  0
 30 31  1  0
 30 33  2  0
 32 34  2  0
 33 34  1  0
M  CHG  2   3   1   4   1
M  END
>  <PUBCHEM_COMPOUND_CID>  (1) 
27863

>  <PUBCHEM_CONFORMER_RMSD>  (1) 
1.8

>  <PUBCHEM_CONFORMER_DIVERSEORDER>  (1) 
1
7
29
24
2
35
28
33
17
48
30
39
51
13
11
8
31
9
40
20
14
21
53
26
37
10
44
16
43
23
34
6
4
15
50
25
32
47
38
45
52
49
41
22
5
36
12
42
46
3
18
19
27

>  <PUBCHEM_MMFF94_PARTIAL_CHARGES>  (1) 
32
1 -0.36
10 0.5
15 0.27
16 0.27
17 0.27
18 0.27
2 -0.36
21 0.5
22 0.5
23 0.5
24 0.5
25 0.28
26 0.28
27 0.27
28 0.27
29 0.08
3 -1.01
30 0.08
31 -0.15
32 -0.15
33 -0.15
34 -0.15
4 -1.01
5 -0.81
6 -0.81
7 0.5
79 0.15
8 0.5
80 0.15
81 0.15
82 0.15
9 0.5

>  <PUBCHEM_EFFECTIVE_ROTOR_COUNT>  (1) 
10.8

>  <PUBCHEM_PHARMACOPHORE_FEATURES>  (1) 
11
1 1 acceptor
1 2 acceptor
1 3 cation
1 4 cation
1 5 cation
1 6 cation
6 29 30 31 32 33 34 rings
6 3 5 7 8 15 16 rings
6 3 7 8 11 12 19 rings
6 4 6 9 10 17 18 rings
6 4 9 10 13 14 20 rings

>  <PUBCHEM_HEAVY_ATOM_COUNT>  (1) 
34

>  <PUBCHEM_ATOM_DEF_STEREO_COUNT>  (1) 
0

>  <PUBCHEM_ATOM_UDEF_STEREO_COUNT>  (1) 
4

>  <PUBCHEM_BOND_DEF_STEREO_COUNT>  (1) 
0

>  <PUBCHEM_BOND_UDEF_STEREO_COUNT>  (1) 
0

>  <PUBCHEM_ISOTOPIC_ATOM_COUNT>  (1) 
0

>  <PUBCHEM_COMPONENT_COUNT>  (1) 
1

>  <PUBCHEM_CACTVS_TAUTO_COUNT>  (1) 
1

>  <PUBCHEM_CONFORMER_ID>  (1) 
00006CD700000001

>  <PUBCHEM_MMFF94_ENERGY>  (1) 
152.6101

>  <PUBCHEM_FEATURE_SELFOVERLAP>  (1) 
59.095

>  <PUBCHEM_SHAPE_FINGERPRINT>  (1) 
10675989 125 18193562392168978868
117089 54 18125449601328409118
12107183 9 18272381845526254297
12166972 35 17894635812314263462
12422481 6 17131832027889205524
12516196 113 18412827958514266667
13533116 47 18410858806050682049
1361 2 18411420626659819722
13782708 43 18040997380086906451
14040222 275 18267327360566742526
14068700 675 18338239250455302344
14840074 17 17917986161763844927
14904385 45 18262798462748496690
15001296 14 18336543936015273203
15119646 104 18341897411192021453
15183329 4 18114454626425009397
15352257 5 17822014237667835131
15721738 202 18060421292441961120
15927050 60 17908986852875703140
16112460 7 18340777013312709539
19026451 147 18335420154244381866
19301679 30 18272097041305927225
1979834 28 17704077274439856974
20028762 73 18343018844729347038
21033650 10 15936682684687003013
23559900 14 18339353158787146121
24771293 8 18130210671174818712
3004659 81 18260271836867388694
3680242 22 18408605851075261122
394071 54 18202007646016833402
4015057 19 18337386145285352811
4073 2 18046070629595147121
437795 51 17968103048988955123
439807 62 18113057125628961171
4435113 14 17823993431332902987
4461854 278 18060982069332776942
46194498 28 17676202511408407852
463206 1 18339641251701687766
513532 50 17916876828405731852
5265222 85 17324662457703891684

>  <PUBCHEM_SHAPE_MULTIPOLES>  (1) 
668.04
20.43
4.22
1.52
20.99
3.37
0.24
-13.39
-0.79
-5.73
-0.38
1.13
-0.49
-0.71

>  <PUBCHEM_SHAPE_SELFOVERLAP>  (1) 
1389.104

>  <PUBCHEM_SHAPE_VOLUME>  (1) 
376.1

>  <PUBCHEM_COORDINATE_TYPE>  (1) 
2
5
10

$$$$
