27869
     RDKit          3D

 15 15  0  0  1  0  0  0  0  0999 V2000
    0.2687    0.8833    1.5687 O   0  0  0  0  0  0  0  0  0  0  0  0
    4.4229    0.4147    0.1405 O   0  0  0  0  0  0  0  0  0  0  0  0
    2.2680   -0.4509    0.0409 N   0  0  0  0  0  0  0  0  0  0  0  0
    0.8986   -0.3255   -0.4516 C   0  0  0  0  0  0  0  0  0  0  0  0
   -0.0755   -0.2339    0.7446 C   0  0  0  0  0  0  0  0  0  0  0  0
    0.6097   -1.5263   -1.3544 C   0  0  0  0  0  0  0  0  0  0  0  0
   -1.5222   -0.0484    0.3395 C   0  0  0  0  0  0  0  0  0  0  0  0
    2.5293   -1.6240    0.8651 C   0  0  0  0  0  0  0  0  0  0  0  0
    3.2571    0.4872   -0.2570 C   0  0  0  0  0  0  0  0  0  0  0  0
   -2.0212    1.2332    0.1854 C   0  0  0  0  0  0  0  0  0  0  0  0
   -2.3137   -1.1645    0.1316 C   0  0  0  0  0  0  0  0  0  0  0  0
   -3.3541    1.4043   -0.1882 C   0  0  0  0  0  0  0  0  0  0  0  0
   -3.6466   -0.9933   -0.2420 C   0  0  0  0  0  0  0  0  0  0  0  0
    2.8457    1.6527   -1.1214 C   0  0  0  0  0  0  0  0  0  0  0  0
   -4.1668    0.2912   -0.4019 C   0  0  0  0  0  0  0  0  0  0  0  0
  1  5  1  0
  2  9  2  0
  3  4  1  0
  3  8  1  0
  3  9  1  0
  4  5  1  0
  4  6  1  0
  5  7  1  0
  7 10  2  0
  7 11  1  0
  9 14  1  0
 10 12  1  0
 11 13  2  0
 12 15  2  0
 13 15  1  0
M  END
>  <PUBCHEM_COMPOUND_CID>  (1) 
27869

>  <PUBCHEM_CONFORMER_RMSD>  (1) 
0.6

>  <PUBCHEM_CONFORMER_DIVERSEORDER>  (1) 
6
25
41
37
38
18
39
21
22
12
23
29
26
13
11
17
14
16
34
27
8
40
31
36
33
1
4
19
28
30
7
20
32
24
9
2
15
35
3
10
5

>  <PUBCHEM_MMFF94_PARTIAL_CHARGES>  (1) 
20
1 -0.68
10 -0.15
11 -0.15
12 -0.15
13 -0.15
14 0.06
15 -0.15
2 -0.57
24 0.15
25 0.15
26 0.4
27 0.15
28 0.15
3 -0.66
32 0.15
4 0.3
5 0.42
7 -0.14
8 0.3
9 0.57

>  <PUBCHEM_EFFECTIVE_ROTOR_COUNT>  (1) 
4

>  <PUBCHEM_PHARMACOPHORE_FEATURES>  (1) 
4
1 1 acceptor
1 1 donor
1 2 acceptor
6 7 10 11 12 13 15 rings

>  <PUBCHEM_HEAVY_ATOM_COUNT>  (1) 
15

>  <PUBCHEM_ATOM_DEF_STEREO_COUNT>  (1) 
0

>  <PUBCHEM_ATOM_UDEF_STEREO_COUNT>  (1) 
2

>  <PUBCHEM_BOND_DEF_STEREO_COUNT>  (1) 
0

>  <PUBCHEM_BOND_UDEF_STEREO_COUNT>  (1) 
0

>  <PUBCHEM_ISOTOPIC_ATOM_COUNT>  (1) 
0

>  <PUBCHEM_COMPONENT_COUNT>  (1) 
1

>  <PUBCHEM_CACTVS_TAUTO_COUNT>  (1) 
1

>  <PUBCHEM_CONFORMER_ID>  (1) 
00006CDD00000006

>  <PUBCHEM_MMFF94_ENERGY>  (1) 
43.2409

>  <PUBCHEM_FEATURE_SELFOVERLAP>  (1) 
20.297

>  <PUBCHEM_SHAPE_FINGERPRINT>  (1) 
12162725 195 18187650223244787244
13296908 3 15482671239026906033
13760787 19 18409446981591403507
14289901 80 18259987097610187627
15442244 35 18045216051135227032
15775835 57 18408044000321834772
16945 1 18263652916463551306
18186145 218 18261679164290166671
19026448 5 18260261932509481611
200 152 18410571803345020558
20201158 50 17989203716455314103
20233049 118 18131347518689554376
20281475 54 17988925557230409079
20523700 14 18131630071644826215
20645464 45 11241967058546027497
20645476 183 18411134770462987239
20645477 70 18336262336532373427
20871999 31 18338222852539140071
21293036 1 17418094338419711624
21501502 16 18411418371780298905
22096605 113 18260271892554614568
23402539 116 18334568066786768511
23402655 69 18334293132686793821
23557571 272 18341900670972232309
23559900 14 18199465459496858934
265663 24 18259981587256765378
2748010 2 17486475286081549251
296302 2 17458630042180288734
3082319 5 18408604755673574833
4047638 21 18335145241466139049
449060 23 14764631901890035653
474 4 17313673766401203172
58051976 378 18343865510951100495
7364860 26 18337110038859993522
8030462 33 16701744830585592075
9709674 26 18334863805044602523

>  <PUBCHEM_SHAPE_MULTIPOLES>  (1) 
291.97
7.48
1.65
1.08
0.02
0.03
0
1.41
0.76
-0.23
0.21
-0.4
-0.06
-0.51

>  <PUBCHEM_SHAPE_SELFOVERLAP>  (1) 
593.497

>  <PUBCHEM_SHAPE_VOLUME>  (1) 
170.8

>  <PUBCHEM_COORDINATE_TYPE>  (1) 
2
5
10

$$$$
