2787
     RDKit          3D

 34 36  0  0  1  0  0  0  0  0999 V2000
    4.7216    0.3767    0.0114 O   0  0  0  0  0  0  0  0  0  0  0  0
   -4.4692    0.9113   -0.0077 O   0  0  0  0  0  0  0  0  0  0  0  0
    5.7889    3.6937    0.8724 O   0  0  0  0  0  0  0  0  0  0  0  0
   -5.1433    4.3212   -0.9027 O   0  0  0  0  0  0  0  0  0  0  0  0
    6.7149    1.6499    1.1681 O   0  0  0  0  0  0  0  0  0  0  0  0
   -6.3012    2.3963   -1.1782 O   0  0  0  0  0  0  0  0  0  0  0  0
   -0.0722   -2.7198    0.0188 C   0  0  0  0  0  0  0  0  0  0  0  0
   -0.0087   -3.6849   -1.2203 C   0  0  0  0  0  0  0  0  0  0  0  0
   -0.1667   -3.6664    1.2689 C   0  0  0  0  0  0  0  0  0  0  0  0
   -1.1286   -4.7306   -1.2866 C   0  0  0  0  0  0  0  0  0  0  0  0
   -1.3352   -4.6522    1.2122 C   0  0  0  0  0  0  0  0  0  0  0  0
   -1.2305   -5.5500   -0.0102 C   0  0  0  0  0  0  0  0  0  0  0  0
    1.2349   -1.8752    0.0173 C   0  0  0  0  0  0  0  0  0  0  0  0
   -1.2686   -1.7315    0.0111 C   0  0  0  0  0  0  0  0  0  0  0  0
    1.8229   -1.5034   -1.1917 C   0  0  0  0  0  0  0  0  0  0  0  0
   -1.8086   -1.2816    1.2160 C   0  0  0  0  0  0  0  0  0  0  0  0
    1.8186   -1.4901    1.2243 C   0  0  0  0  0  0  0  0  0  0  0  0
   -1.8041   -1.2932   -1.1999 C   0  0  0  0  0  0  0  0  0  0  0  0
    2.9945   -0.7465   -1.1938 C   0  0  0  0  0  0  0  0  0  0  0  0
   -2.8840   -0.3934    1.2098 C   0  0  0  0  0  0  0  0  0  0  0  0
    2.9902   -0.7332    1.2222 C   0  0  0  0  0  0  0  0  0  0  0  0
   -2.8795   -0.4050   -1.2063 C   0  0  0  0  0  0  0  0  0  0  0  0
    3.5781   -0.3614    0.0132 C   0  0  0  0  0  0  0  0  0  0  0  0
   -3.4195    0.0450   -0.0013 C   0  0  0  0  0  0  0  0  0  0  0  0
    4.5783    1.7963    0.0037 C   0  0  0  0  0  0  0  0  0  0  0  0
   -4.1614    2.3044   -0.0142 C   0  0  0  0  0  0  0  0  0  0  0  0
    4.5878    2.2641   -1.4613 C   0  0  0  0  0  0  0  0  0  0  0  0
   -4.1156    2.7849    1.4461 C   0  0  0  0  0  0  0  0  0  0  0  0
    3.2907    2.1477    0.7487 C   0  0  0  0  0  0  0  0  0  0  0  0
   -2.8421    2.4960   -0.7618 C   0  0  0  0  0  0  0  0  0  0  0  0
    5.8005    2.3428    0.7374 C   0  0  0  0  0  0  0  0  0  0  0  0
   -5.3120    2.9823   -0.7541 C   0  0  0  0  0  0  0  0  0  0  0  0
    5.8103    1.8157   -2.2543 C   0  0  0  0  0  0  0  0  0  0  0  0
   -5.3815    2.4900    2.2428 C   0  0  0  0  0  0  0  0  0  0  0  0
  1 23  1  0
  1 25  1  0
  2 24  1  0
  2 26  1  0
  3 31  1  0
  4 32  1  0
  5 31  2  0
  6 32  2  0
  7  8  1  0
  7  9  1  0
  7 13  1  0
  7 14  1  0
  8 10  1  0
  9 11  1  0
 10 12  1  0
 11 12  1  0
 13 15  2  0
 13 17  1  0
 14 16  2  0
 14 18  1  0
 15 19  1  0
 16 20  1  0
 17 21  2  0
 18 22  2  0
 19 23  2  0
 20 24  2  0
 21 23  1  0
 22 24  1  0
 25 27  1  0
 25 29  1  0
 25 31  1  0
 26 28  1  0
 26 30  1  0
 26 32  1  0
 27 33  1  0
 28 34  1  0
M  END
>  <PUBCHEM_COMPOUND_CID>  (1) 
2787

>  <PUBCHEM_CONFORMER_RMSD>  (1) 
1.4

>  <PUBCHEM_CONFORMER_DIVERSEORDER>  (1) 
1
20
14
8
18
29
13
12
21
16
11
6
5
9
26
25
27
2
15
17
23
3
7
22
28
24
4
19
10

>  <PUBCHEM_MMFF94_PARTIAL_CHARGES>  (1) 
33
1 -0.36
13 -0.14
14 -0.14
15 -0.15
16 -0.15
17 -0.15
18 -0.15
19 -0.15
2 -0.36
20 -0.15
21 -0.15
22 -0.15
23 0.08
24 0.08
25 0.34
26 0.34
3 -0.65
31 0.66
32 0.66
4 -0.65
45 0.15
46 0.15
47 0.15
48 0.15
49 0.15
5 -0.57
50 0.15
51 0.15
52 0.15
6 -0.57
69 0.5
7 0.29
70 0.5

>  <PUBCHEM_EFFECTIVE_ROTOR_COUNT>  (1) 
11.2

>  <PUBCHEM_PHARMACOPHORE_FEATURES>  (1) 
13
1 1 acceptor
1 2 acceptor
1 3 acceptor
1 33 hydrophobe
1 34 hydrophobe
1 4 acceptor
1 5 acceptor
1 6 acceptor
3 3 5 31 anion
3 4 6 32 anion
6 13 15 17 19 21 23 rings
6 14 16 18 20 22 24 rings
6 7 8 9 10 11 12 rings

>  <PUBCHEM_HEAVY_ATOM_COUNT>  (1) 
34

>  <PUBCHEM_ATOM_DEF_STEREO_COUNT>  (1) 
0

>  <PUBCHEM_ATOM_UDEF_STEREO_COUNT>  (1) 
2

>  <PUBCHEM_BOND_DEF_STEREO_COUNT>  (1) 
0

>  <PUBCHEM_BOND_UDEF_STEREO_COUNT>  (1) 
0

>  <PUBCHEM_ISOTOPIC_ATOM_COUNT>  (1) 
0

>  <PUBCHEM_COMPONENT_COUNT>  (1) 
1

>  <PUBCHEM_CACTVS_TAUTO_COUNT>  (1) 
1

>  <PUBCHEM_CONFORMER_ID>  (1) 
00000AE300000001

>  <PUBCHEM_MMFF94_ENERGY>  (1) 
130.6538

>  <PUBCHEM_FEATURE_SELFOVERLAP>  (1) 
66.113

>  <PUBCHEM_SHAPE_FINGERPRINT>  (1) 
10439779 11 18267006419024681824
10673678 19 18339077069641506041
10675989 125 18125439704900728953
10937287 8 18411134710539030351
11059845 2 18194656312223024800
11135609 201 18342459248896541961
11386260 185 17330260677323065093
11477941 20 17407396309799492220
11763715 3 17328875803551947662
12107183 9 18263627529888279090
12422481 6 17676205741181538132
12788726 201 18122045753393334611
13944108 23 17759526568993926692
13965767 371 17822848671992580526
14068700 686 18337393747857611727
14251764 75 18271813367612169817
14790565 3 18411418380128140505
14849402 71 18121786027888125674
15131766 46 18058170519384923257
15163728 17 18271812284974202415
15198563 99 18052816146411979183
15439362 3 18340764841612847142
15513586 35 16736371990971793756
16988056 13 17617376182331702582
16992779 147 17839486400635140745
18393751 57 18333740130500090003
19246450 95 17756954889301588152
20238998 120 17689433115520406951
20764821 26 18266719325550278464
21033648 29 18408047312089968188
21133410 221 17269729680064594752
21133410 32 15050022373231444404
21716022 299 14259672249064916863
23559900 14 17688028614233335547
2838139 119 18341044220581927960
3388396 114 17039515159247915844
3418910 222 17326903275544351716
376196 1 18189056404439052187
4058900 60 18337680702395057731
4144715 1 18263365953526718482
508706 21 18198617937963618520
5219985 13 18409449167766284407
6036956 94 17757550029392353845
6371380 46 18338524015498794814
6700243 42 17479491231472458958
7288768 16 18186799192728833131
7808743 9 18339356487086029122
9849439 229 18409163290427184669
9981440 41 18334297556930162523

>  <PUBCHEM_SHAPE_MULTIPOLES>  (1) 
664.49
14.03
7.12
1.76
8.72
6.21
0.01
-24.66
0.02
-5.5
0.14
0.03
-0.38
0.37

>  <PUBCHEM_SHAPE_SELFOVERLAP>  (1) 
1408.203

>  <PUBCHEM_SHAPE_VOLUME>  (1) 
370.5

>  <PUBCHEM_COORDINATE_TYPE>  (1) 
2
5
10

$$$$
