27882
     RDKit          3D

 10 10  0  0  0  0  0  0  0  0999 V2000
   -1.9842   -0.8089    0.0002 O   0  0  0  0  0  0  0  0  0  0  0  0
    2.8054   -1.2360   -0.0003 N   0  0  0  0  0  0  0  0  0  0  0  0
   -0.6356    1.1724    0.0002 C   0  0  0  0  0  0  0  0  0  0  0  0
   -0.7570   -0.2171    0.0000 C   0  0  0  0  0  0  0  0  0  0  0  0
    0.6285    1.7622    0.0002 C   0  0  0  0  0  0  0  0  0  0  0  0
    0.3857   -1.0170   -0.0001 C   0  0  0  0  0  0  0  0  0  0  0  0
    1.6498   -0.4273    0.0001 C   0  0  0  0  0  0  0  0  0  0  0  0
    1.7712    0.9623    0.0002 C   0  0  0  0  0  0  0  0  0  0  0  0
   -1.8477    2.0442   -0.0004 C   0  0  0  0  0  0  0  0  0  0  0  0
   -2.0161   -2.2347    0.0000 C   0  0  0  0  0  0  0  0  0  0  0  0
  1  4  1  0
  1 10  1  0
  2  7  1  0
  3  4  2  0
  3  5  1  0
  3  9  1  0
  4  6  1  0
  5  8  2  0
  6  7  2  0
  7  8  1  0
M  END
>  <PUBCHEM_COMPOUND_CID>  (1) 
27882

>  <PUBCHEM_CONFORMER_RMSD>  (1) 
0.4

>  <PUBCHEM_CONFORMER_DIVERSEORDER>  (1) 
3
1
2

>  <PUBCHEM_MMFF94_PARTIAL_CHARGES>  (1) 
15
1 -0.36
10 0.28
11 0.15
12 0.15
13 0.15
17 0.4
18 0.4
2 -0.9
3 -0.14
4 0.08
5 -0.15
6 -0.15
7 0.1
8 -0.15
9 0.14

>  <PUBCHEM_EFFECTIVE_ROTOR_COUNT>  (1) 
1

>  <PUBCHEM_PHARMACOPHORE_FEATURES>  (1) 
4
1 1 acceptor
1 2 cation
1 2 donor
6 3 4 5 6 7 8 rings

>  <PUBCHEM_HEAVY_ATOM_COUNT>  (1) 
10

>  <PUBCHEM_ATOM_DEF_STEREO_COUNT>  (1) 
0

>  <PUBCHEM_ATOM_UDEF_STEREO_COUNT>  (1) 
0

>  <PUBCHEM_BOND_DEF_STEREO_COUNT>  (1) 
0

>  <PUBCHEM_BOND_UDEF_STEREO_COUNT>  (1) 
0

>  <PUBCHEM_ISOTOPIC_ATOM_COUNT>  (1) 
0

>  <PUBCHEM_COMPONENT_COUNT>  (1) 
1

>  <PUBCHEM_CACTVS_TAUTO_COUNT>  (1) 
1

>  <PUBCHEM_CONFORMER_ID>  (1) 
00006CEA00000003

>  <PUBCHEM_MMFF94_ENERGY>  (1) 
44.2702

>  <PUBCHEM_FEATURE_SELFOVERLAP>  (1) 
20.297

>  <PUBCHEM_SHAPE_FINGERPRINT>  (1) 
161256 15 18197503028603695260
16945 1 18410856533885959461
18185500 45 17909268322982400975
193761 8 18410855498894014020
20871998 184 18273213062777498294
21040471 1 18122343471666586272
23552423 10 18260552250939717340
23559900 14 18126288541948917654
241688 4 18408604777032561992
2748010 2 18411697686251504564
29004967 10 18048597319847061867

>  <PUBCHEM_SHAPE_MULTIPOLES>  (1) 
194.94
3.1
2.44
0.6
0.52
0.22
0
-1.26
0
-1.11
0
0
0.02
0

>  <PUBCHEM_SHAPE_SELFOVERLAP>  (1) 
401.519

>  <PUBCHEM_SHAPE_VOLUME>  (1) 
113.7

>  <PUBCHEM_COORDINATE_TYPE>  (1) 
2
5
10

$$$$
