27886
     RDKit          3D

 45 51  0  0  1  0  0  0  0  0999 V2000
    6.0989    0.7249   -1.4123 O   0  0  0  0  0  0  0  0  0  0  0  0
   -1.6048   -0.9254    0.3348 O   0  0  0  0  0  0  0  0  0  0  0  0
   10.6061    0.4929   -0.1138 O   0  0  0  0  0  0  0  0  0  0  0  0
   -3.4848   -0.0722    1.4389 O   0  0  0  0  0  0  0  0  0  0  0  0
   10.5006    2.3087   -1.5236 O   0  0  0  0  0  0  0  0  0  0  0  0
   -4.3442    1.8654   -1.3696 O   0  0  0  0  0  0  0  0  0  0  0  0
   -6.5989    1.4389    0.1739 O   0  0  0  0  0  0  0  0  0  0  0  0
   -8.0194   -0.1863   -0.7326 O   0  0  0  0  0  0  0  0  0  0  0  0
  -10.5628    0.6625    1.5458 O   0  0  0  0  0  0  0  0  0  0  0  0
  -11.6859   -0.5525   -0.6703 O   0  0  0  0  0  0  0  0  0  0  0  0
    5.3158    0.2579   -0.3031 C   0  0  0  0  0  0  0  0  0  0  0  0
    4.0121   -0.3770   -0.8676 C   0  0  0  0  0  0  0  0  0  0  0  0
    3.1789   -1.1342    0.2088 C   0  0  0  0  0  0  0  0  0  0  0  0
    6.1792   -0.7282    0.5313 C   0  0  0  0  0  0  0  0  0  0  0  0
    1.8616   -1.7742   -0.3805 C   0  0  0  0  0  0  0  0  0  0  0  0
    1.0294   -0.6764   -1.1189 C   0  0  0  0  0  0  0  0  0  0  0  0
    4.0714   -2.1417    0.9586 C   0  0  0  0  0  0  0  0  0  0  0  0
    5.2998   -1.4719    1.5705 C   0  0  0  0  0  0  0  0  0  0  0  0
    7.1604    0.2208    1.2910 C   0  0  0  0  0  0  0  0  0  0  0  0
    3.1496    0.6578   -1.6176 C   0  0  0  0  0  0  0  0  0  0  0  0
    5.1023    1.4453    0.6553 C   0  0  0  0  0  0  0  0  0  0  0  0
    1.8627    0.0608   -2.1769 C   0  0  0  0  0  0  0  0  0  0  0  0
    6.3261    1.4825    1.5814 C   0  0  0  0  0  0  0  0  0  0  0  0
    0.9626   -2.4083    0.7223 C   0  0  0  0  0  0  0  0  0  0  0  0
    0.3782    0.3372   -0.1473 C   0  0  0  0  0  0  0  0  0  0  0  0
    6.9179   -1.7715   -0.3329 C   0  0  0  0  0  0  0  0  0  0  0  0
    2.1926   -2.9210   -1.3719 C   0  0  0  0  0  0  0  0  0  0  0  0
    0.3452   -1.3952    1.6844 C   0  0  0  0  0  0  0  0  0  0  0  0
   -0.4569   -0.3335    0.9395 C   0  0  0  0  0  0  0  0  0  0  0  0
    8.4211    0.5892    0.5625 C   0  0  0  0  0  0  0  0  0  0  0  0
    9.6722   -0.1754    0.7409 C   0  0  0  0  0  0  0  0  0  0  0  0
    8.5886    1.5927   -0.2946 C   0  0  0  0  0  0  0  0  0  0  0  0
   -2.6867   -0.0017    0.2573 C   0  0  0  0  0  0  0  0  0  0  0  0
    9.9843    1.5387   -0.7321 C   0  0  0  0  0  0  0  0  0  0  0  0
   -3.5240   -0.3635   -0.9714 C   0  0  0  0  0  0  0  0  0  0  0  0
   -4.7562    0.5301   -1.0743 C   0  0  0  0  0  0  0  0  0  0  0  0
   -4.5844    0.8466    1.4247 C   0  0  0  0  0  0  0  0  0  0  0  0
   -5.5201    0.5161    0.2527 C   0  0  0  0  0  0  0  0  0  0  0  0
   -5.2860    0.7303    2.7742 C   0  0  0  0  0  0  0  0  0  0  0  0
   -7.8576    0.7839    0.3020 C   0  0  0  0  0  0  0  0  0  0  0  0
   -8.9516    1.8498    0.2066 C   0  0  0  0  0  0  0  0  0  0  0  0
  -10.3378    1.2138    0.2476 C   0  0  0  0  0  0  0  0  0  0  0  0
   -9.2652   -0.8892   -0.6479 C   0  0  0  0  0  0  0  0  0  0  0  0
  -10.4296    0.1006   -0.7998 C   0  0  0  0  0  0  0  0  0  0  0  0
   -9.2606   -1.9480   -1.7460 C   0  0  0  0  0  0  0  0  0  0  0  0
  1 11  1  0
  2 29  1  0
  2 33  1  0
  3 31  1  0
  3 34  1  0
  4 33  1  0
  4 37  1  0
  5 34  2  0
  6 36  1  0
  7 38  1  0
  7 40  1  0
  8 40  1  0
  8 43  1  0
  9 42  1  0
 10 44  1  0
 11 12  1  0
 11 14  1  0
 11 21  1  0
 12 13  1  0
 12 20  1  0
 13 15  1  0
 13 17  1  0
 14 18  1  0
 14 19  1  0
 14 26  1  0
 15 16  1  0
 15 24  1  0
 15 27  1  0
 16 22  1  0
 16 25  1  0
 17 18  1  0
 19 23  1  0
 19 30  1  0
 20 22  1  0
 21 23  1  0
 24 28  1  0
 25 29  1  0
 28 29  1  0
 30 31  1  0
 30 32  2  0
 32 34  1  0
 33 35  1  0
 35 36  1  0
 36 38  1  0
 37 38  1  0
 37 39  1  0
 40 41  1  0
 41 42  1  0
 42 44  1  0
 43 44  1  0
 43 45  1  0
M  END
>  <PUBCHEM_COMPOUND_CID>  (1) 
27886

>  <PUBCHEM_CONFORMER_RMSD>  (1) 
1.2

>  <PUBCHEM_CONFORMER_DIVERSEORDER>  (1) 
1
292
321
120
126
329
154
194
265
247
317
128
288
220
140
66
335
205
75
73
303
83
326
222
318
269
304
281
28
340
233
264
102
93
293
195
348
63
325
218
313
103
135
10
331
156
239
138
90
92
14
274
30
53
127
262
308
8
244
129
179
275
208
211
150
250
213
282
225
259
163
169
109
221
46
200
136
231
323
185
173
152
12
287
338
31
98
62
95
39
332
20
345
219
141
174
17
286
320
242
232
334
198
234
58
261
202
13
315
312
24
118
271
226
49
94
121
252
48
164
299
27
99
124
289
344
155
314
224
296
223
59
180
172
101
227
301
300
42
134
245
217
68
112
47
35
76
159
56
153
71
55
306
80
283
72
249
107
341
273
19
336
89
209
61
267
131
25
69
188
316
183
2
64
210
38
246
290
254
343
82
191
319
285
307
161
186
5
81
122
171
146
324
21
145
347
277
328
302
190
311
214
74
175
111
168
294
105
297
270
54
309
85
253
268
100
130
139
149
77
236
170
178
298
143
207
44
147
342
291
104
125
108
272
187
229
37
91
176
184
79
148
119
11
22
165
96
142
32
34
339
260
192
57
284
197
116
237
113
65
266
215
196
206
144
235
160
181
50
276
87
60
199
248
330
333
15
151
18
162
263
258
295
201
88
86
106
40
6
123
67
256
279
33
240
117
216
158
29
280
212
4
204
203
228
78
45
193
167
23
310
257
51
52
70
36
337
84
16
278
238
177
322
305
132
189
115
230
97
7
110
166
182
137
133
346
327
241
157
3
9
243
114
251
26
43
41
255

>  <PUBCHEM_MMFF94_PARTIAL_CHARGES>  (1) 
30
1 -0.68
10 -0.68
11 0.28
19 0.14
2 -0.56
29 0.28
3 -0.43
30 -0.28
31 0.42
32 -0.14
33 0.56
34 0.71
36 0.28
37 0.28
38 0.28
4 -0.56
40 0.56
42 0.28
43 0.28
44 0.28
5 -0.57
6 -0.68
7 -0.56
75 0.4
78 0.15
8 -0.56
88 0.4
9 -0.68
98 0.4
99 0.4

>  <PUBCHEM_EFFECTIVE_ROTOR_COUNT>  (1) 
10

>  <PUBCHEM_PHARMACOPHORE_FEATURES>  (1) 
20
1 1 acceptor
1 1 donor
1 10 acceptor
1 10 donor
1 2 acceptor
1 4 acceptor
1 5 acceptor
1 6 acceptor
1 6 donor
1 7 acceptor
1 8 acceptor
1 9 acceptor
1 9 donor
5 11 14 19 21 23 rings
5 3 30 31 32 34 rings
6 11 12 13 14 17 18 rings
6 12 13 15 16 20 22 rings
6 15 16 24 25 28 29 rings
6 4 33 35 36 37 38 rings
6 8 40 41 42 43 44 rings

>  <PUBCHEM_HEAVY_ATOM_COUNT>  (1) 
45

>  <PUBCHEM_ATOM_DEF_STEREO_COUNT>  (1) 
14

>  <PUBCHEM_ATOM_UDEF_STEREO_COUNT>  (1) 
2

>  <PUBCHEM_BOND_DEF_STEREO_COUNT>  (1) 
0

>  <PUBCHEM_BOND_UDEF_STEREO_COUNT>  (1) 
0

>  <PUBCHEM_ISOTOPIC_ATOM_COUNT>  (1) 
0

>  <PUBCHEM_COMPONENT_COUNT>  (1) 
1

>  <PUBCHEM_CACTVS_TAUTO_COUNT>  (1) 
1

>  <PUBCHEM_CONFORMER_ID>  (1) 
00006CEE00000001

>  <PUBCHEM_MMFF94_ENERGY>  (1) 
146.4121

>  <PUBCHEM_FEATURE_SELFOVERLAP>  (1) 
101.843

>  <PUBCHEM_SHAPE_FINGERPRINT>  (1) 
10 15 17675925396039110656
10076449 9 14261632829343866931
10162869 55 18040150738869351359
10674148 151 10809343347625120365
11061554 47 17168137907019683053
11146851 88 17821445772280346324
11534866 41 14851604363270613480
11966995 178 17988924466703952090
12013929 94 17632291320842840375
12089408 11 18272649022250517123
12522641 33 18412827984448192078
12664476 115 17894908533683751740
12741549 16 13117999998225427270
13811026 1 16443062781363310589
13947947 74 15123791778014367215
14400156 350 18113627820067930924
15064986 266 15267074618803169955
15065858 18 15791725295814119283
15247644 1 11458425730336499608
15289351 153 14562522978098596757
15320295 40 15285357306360112245
15347591 1 11748095402216456267
15392192 104 18273493464113053598
15840311 113 18412825776871119726
15890870 6 18413389839474232690
17686467 74 18413102875972845553
19315958 150 18041001731300396642
20105231 36 12535623882544781037
20156587 128 16056329331996322840
21057603 238 16700918149272974814
21792934 111 16225766329216622924
21792961 116 14045747018957856175
23576562 1 16701725181695983568
24771293 8 18343310232099933433
24893992 56 18202559614050063426
25269216 80 14333134048158511083
3092352 35 17917709089651280446
395649 100 18334574681838991547
4149490 64 18059857212354017623
44280117 145 18342173385381132813
44426699 60 17632573834579345306
4874694 18 16877663457046181075
9663363 56 12973602236451548526
9937071 3 10953456315208587224

>  <PUBCHEM_SHAPE_MULTIPOLES>  (1) 
867.39
42.8
2.11
1.78
50.83
0.79
0.23
-16.17
-5.36
-1.19
-0.15
-0.12
-0.12
-2.71

>  <PUBCHEM_SHAPE_SELFOVERLAP>  (1) 
1855.271

>  <PUBCHEM_SHAPE_VOLUME>  (1) 
475.8

>  <PUBCHEM_COORDINATE_TYPE>  (1) 
2
5
10

$$$$
