27906
     RDKit          3D

 10  9  0  0  0  0  0  0  0  0999 V2000
   -0.1241    1.7300   -0.3000 O   0  0  0  0  0  0  0  0  0  0  0  0
    2.3662   -0.0323   -0.2536 C   0  0  0  0  0  0  0  0  0  0  0  0
    1.4005    0.2927    0.8962 C   0  0  0  0  0  0  0  0  0  0  0  0
    1.7669   -1.1170   -1.1503 C   0  0  0  0  0  0  0  0  0  0  0  0
    3.7288   -0.4881    0.2741 C   0  0  0  0  0  0  0  0  0  0  0  0
    0.0320    0.7421    0.4121 C   0  0  0  0  0  0  0  0  0  0  0  0
   -1.1111   -0.1343    0.7977 C   0  0  0  0  0  0  0  0  0  0  0  0
   -2.2424   -0.2835    0.0866 C   0  0  0  0  0  0  0  0  0  0  0  0
   -3.4066   -1.1600    0.4552 C   0  0  0  0  0  0  0  0  0  0  0  0
   -2.4102    0.4504   -1.2182 C   0  0  0  0  0  0  0  0  0  0  0  0
  1  6  2  0
  2  3  1  0
  2  4  1  0
  2  5  1  0
  3  6  1  0
  6  7  1  0
  7  8  2  3
  8  9  1  0
  8 10  1  0
M  END
>  <PUBCHEM_COMPOUND_CID>  (1) 
27906

>  <PUBCHEM_CONFORMER_RMSD>  (1) 
0.6

>  <PUBCHEM_CONFORMER_DIVERSEORDER>  (1) 
5
4
2
8
3
1
7
6

>  <PUBCHEM_MMFF94_PARTIAL_CHARGES>  (1) 
8
1 -0.57
10 0.14
20 0.15
3 0.06
6 0.49
7 -0.14
8 -0.28
9 0.14

>  <PUBCHEM_EFFECTIVE_ROTOR_COUNT>  (1) 
3

>  <PUBCHEM_PHARMACOPHORE_FEATURES>  (1) 
3
1 1 acceptor
3 2 4 5 hydrophobe
3 8 9 10 hydrophobe

>  <PUBCHEM_HEAVY_ATOM_COUNT>  (1) 
10

>  <PUBCHEM_ATOM_DEF_STEREO_COUNT>  (1) 
0

>  <PUBCHEM_ATOM_UDEF_STEREO_COUNT>  (1) 
0

>  <PUBCHEM_BOND_DEF_STEREO_COUNT>  (1) 
0

>  <PUBCHEM_BOND_UDEF_STEREO_COUNT>  (1) 
0

>  <PUBCHEM_ISOTOPIC_ATOM_COUNT>  (1) 
0

>  <PUBCHEM_COMPONENT_COUNT>  (1) 
1

>  <PUBCHEM_CACTVS_TAUTO_COUNT>  (1) 
5

>  <PUBCHEM_CONFORMER_ID>  (1) 
00006D0200000005

>  <PUBCHEM_MMFF94_ENERGY>  (1) 
16.2806

>  <PUBCHEM_FEATURE_SELFOVERLAP>  (1) 
15.223

>  <PUBCHEM_SHAPE_FINGERPRINT>  (1) 
12251169 10 14549021004736033107
12897270 3 18334012761700962988
12932764 1 17530959185578435729
14390081 3 8214156135511163371
14577589 140 17632579314566614333
15775835 57 15213294171450167487
20201158 50 18342738498663779518
20281407 28 18272655623361868162
20653085 51 14273749425268454948
20711983 171 16226316032963609703
20711985 344 18194955240971373137
21028194 46 11242262856494865194
21061003 4 17418368074139733432
21119208 17 15647049378325398547
21293036 1 17967535709051247754
23402539 116 17822002108210608206
23552423 10 16372111231846342339
29004967 10 18201720664849877160

>  <PUBCHEM_SHAPE_MULTIPOLES>  (1) 
199.93
5.58
1.22
1.1
0.68
0.09
-0.18
-2.04
0.27
-0.07
-0.17
-0.28
-0.05
0.56

>  <PUBCHEM_SHAPE_SELFOVERLAP>  (1) 
371.624

>  <PUBCHEM_SHAPE_VOLUME>  (1) 
126.8

>  <PUBCHEM_COORDINATE_TYPE>  (1) 
2
5
10

$$$$
