27915
     RDKit          3D

 13 13  0  0  1  0  0  0  0  0999 V2000
   -2.2511    2.1222   -0.0327 O   0  0  0  0  0  0  0  0  0  0  0  0
   -3.7667   -0.1863   -0.3498 O   0  0  0  0  0  0  0  0  0  0  0  0
    2.3868   -0.4121   -1.7814 O   0  0  0  0  0  0  0  0  0  0  0  0
    3.3585    1.0405   -0.3457 O   0  0  0  0  0  0  0  0  0  0  0  0
    2.1970    0.0330    1.8652 N   0  0  0  0  0  0  0  0  0  0  0  0
    1.7882   -0.5499    0.5751 C   0  0  0  0  0  0  0  0  0  0  0  0
    0.3205   -0.4502    0.3302 C   0  0  0  0  0  0  0  0  0  0  0  0
   -0.2919    0.8013    0.2616 C   0  0  0  0  0  0  0  0  0  0  0  0
   -0.4401   -1.6085    0.1707 C   0  0  0  0  0  0  0  0  0  0  0  0
   -1.6647    0.8943    0.0334 C   0  0  0  0  0  0  0  0  0  0  0  0
   -1.8130   -1.5154   -0.0573 C   0  0  0  0  0  0  0  0  0  0  0  0
   -2.4253   -0.2640   -0.1261 C   0  0  0  0  0  0  0  0  0  0  0  0
    2.6017    0.0950   -0.5432 C   0  0  0  0  0  0  0  0  0  0  0  0
  1 10  1  0
  2 12  1  0
  3 13  1  0
  4 13  2  0
  5  6  1  0
  6  7  1  0
  6 13  1  0
  7  8  2  0
  7  9  1  0
  8 10  1  0
  9 11  2  0
 10 12  2  0
 11 12  1  0
M  END
>  <PUBCHEM_COMPOUND_CID>  (1) 
27915

>  <PUBCHEM_CONFORMER_RMSD>  (1) 
0.6

>  <PUBCHEM_CONFORMER_DIVERSEORDER>  (1) 
2
9
5
7
1
11
8
10
6
3
4

>  <PUBCHEM_MMFF94_PARTIAL_CHARGES>  (1) 
21
1 -0.53
10 0.08
11 -0.15
12 0.08
13 0.66
15 0.15
16 0.15
17 0.15
18 0.36
19 0.36
2 -0.53
20 0.45
21 0.45
22 0.5
3 -0.65
4 -0.57
5 -0.99
6 0.47
7 -0.14
8 -0.15
9 -0.15

>  <PUBCHEM_EFFECTIVE_ROTOR_COUNT>  (1) 
2

>  <PUBCHEM_PHARMACOPHORE_FEATURES>  (1) 
8
1 1 donor
1 2 donor
1 3 acceptor
1 4 acceptor
1 5 cation
1 5 donor
3 3 4 13 anion
6 7 8 9 10 11 12 rings

>  <PUBCHEM_HEAVY_ATOM_COUNT>  (1) 
13

>  <PUBCHEM_ATOM_DEF_STEREO_COUNT>  (1) 
0

>  <PUBCHEM_ATOM_UDEF_STEREO_COUNT>  (1) 
1

>  <PUBCHEM_BOND_DEF_STEREO_COUNT>  (1) 
0

>  <PUBCHEM_BOND_UDEF_STEREO_COUNT>  (1) 
0

>  <PUBCHEM_ISOTOPIC_ATOM_COUNT>  (1) 
0

>  <PUBCHEM_COMPONENT_COUNT>  (1) 
1

>  <PUBCHEM_CACTVS_TAUTO_COUNT>  (1) 
10

>  <PUBCHEM_CONFORMER_ID>  (1) 
00006D0B00000002

>  <PUBCHEM_MMFF94_ENERGY>  (1) 
28.9545

>  <PUBCHEM_FEATURE_SELFOVERLAP>  (1) 
40.659

>  <PUBCHEM_SHAPE_FINGERPRINT>  (1) 
11206711 2 18339633469738022757
12423570 1 12282899424891307185
12716758 59 18342462504012467534
12897270 3 18412270561853202462
12932764 1 17632287973770560271
13380535 21 18054800485789731225
13380536 127 18260543424560397704
13538477 17 18040708212153959810
15310529 11 14549014407719059451
15775835 57 17748826340933082732
16945 1 18411411826287245019
19786989 88 16486389105896561266
20201158 50 17704079503411832166
20559304 39 18187354407482934842
20645464 45 17774424062312108986
20645476 183 17748829656584973167
21040471 1 18267296547763842443
22802520 49 18198927849713100342
23402539 116 18340476867954563286
23552423 10 18117836595132364331
23557571 272 18124891306607053966
2748010 2 18123466082050324015
369184 2 15791727499237863259
5084963 1 18202286874662364098
53812653 8 18334857208153417283
7364860 26 18335977580770107770
77492 1 17748820821873720506
8030462 33 18113059324367399586

>  <PUBCHEM_SHAPE_MULTIPOLES>  (1) 
239.08
5.04
1.53
1.09
0.23
0.22
0.05
0.88
-0.88
-0.92
0.01
1.08
-0.08
-0.08

>  <PUBCHEM_SHAPE_SELFOVERLAP>  (1) 
501.774

>  <PUBCHEM_SHAPE_VOLUME>  (1) 
134.9

>  <PUBCHEM_COORDINATE_TYPE>  (1) 
2
5
10

$$$$
