27911
     RDKit          3D

 13 13  0  0  0  0  0  0  0  0999 V2000
    2.8663   -0.3840   -0.4853 N   0  0  0  0  0  0  0  0  0  0  0  0
    1.9289    0.0656    0.5014 N   0  0  0  0  0  0  0  0  0  0  0  0
    4.2092   -0.2527    0.0778 C   0  0  0  0  0  0  0  0  0  0  0  0
    0.5889   -0.0965   -0.0472 C   0  0  0  0  0  0  0  0  0  0  0  0
   -0.4730    0.3395    0.9631 C   0  0  0  0  0  0  0  0  0  0  0  0
   -1.8660    0.1556    0.4159 C   0  0  0  0  0  0  0  0  0  0  0  0
    4.5020    1.2072    0.4126 C   0  0  0  0  0  0  0  0  0  0  0  0
    5.2309   -0.8034   -0.9118 C   0  0  0  0  0  0  0  0  0  0  0  0
   -2.4656    1.1926   -0.2830 C   0  0  0  0  0  0  0  0  0  0  0  0
   -2.5250   -1.0472    0.6206 C   0  0  0  0  0  0  0  0  0  0  0  0
   -3.7545    1.0227   -0.7889 C   0  0  0  0  0  0  0  0  0  0  0  0
   -3.8137   -1.2172    0.1148 C   0  0  0  0  0  0  0  0  0  0  0  0
   -4.4284   -0.1822   -0.5900 C   0  0  0  0  0  0  0  0  0  0  0  0
  1  2  1  0
  1  3  1  0
  2  4  1  0
  3  7  1  0
  3  8  1  0
  4  5  1  0
  5  6  1  0
  6  9  2  0
  6 10  1  0
  9 11  1  0
 10 12  2  0
 11 13  2  0
 12 13  1  0
M  END
>  <PUBCHEM_COMPOUND_CID>  (1) 
27911

>  <PUBCHEM_CONFORMER_RMSD>  (1) 
0.6

>  <PUBCHEM_CONFORMER_DIVERSEORDER>  (1) 
1
9
33
30
18
29
8
32
13
19
23
27
11
24
28
2
5
26
4
16
31
17
20
34
21
3
10
14
25
22
7
6
15
12

>  <PUBCHEM_MMFF94_PARTIAL_CHARGES>  (1) 
18
1 -0.63
10 -0.15
11 -0.15
12 -0.15
13 -0.15
19 0.36
2 -0.63
20 0.36
27 0.15
28 0.15
29 0.15
3 0.27
30 0.15
31 0.15
4 0.27
5 0.14
6 -0.14
9 -0.15

>  <PUBCHEM_EFFECTIVE_ROTOR_COUNT>  (1) 
5

>  <PUBCHEM_PHARMACOPHORE_FEATURES>  (1) 
4
1 1 donor
1 2 donor
3 3 7 8 hydrophobe
6 6 9 10 11 12 13 rings

>  <PUBCHEM_HEAVY_ATOM_COUNT>  (1) 
13

>  <PUBCHEM_ATOM_DEF_STEREO_COUNT>  (1) 
0

>  <PUBCHEM_ATOM_UDEF_STEREO_COUNT>  (1) 
0

>  <PUBCHEM_BOND_DEF_STEREO_COUNT>  (1) 
0

>  <PUBCHEM_BOND_UDEF_STEREO_COUNT>  (1) 
0

>  <PUBCHEM_ISOTOPIC_ATOM_COUNT>  (1) 
0

>  <PUBCHEM_COMPONENT_COUNT>  (1) 
1

>  <PUBCHEM_CACTVS_TAUTO_COUNT>  (1) 
1

>  <PUBCHEM_CONFORMER_ID>  (1) 
00006D0700000001

>  <PUBCHEM_MMFF94_ENERGY>  (1) 
14.9773

>  <PUBCHEM_FEATURE_SELFOVERLAP>  (1) 
21.598

>  <PUBCHEM_SHAPE_FINGERPRINT>  (1) 
10014705 185 17894345575409141861
10680689 15 18187653504620666667
10912923 1 15357697513382639728
114248 4 18410290328336693904
12251169 10 11312053262199433139
13760787 5 16917351441699817672
14123238 8 9583514322038604346
15242439 84 18409450271862977646
17834076 25 16226048886113686842
17870717 6 18410584958930400127
19489759 90 18113333111463374752
1986462 14 18335704931312496917
200 152 17418373584192305779
20279233 1 18342744004885608590
20300324 65 18186238442046431101
20325693 3 18187649089848025239
20432913 95 15913333476722269430
20645477 56 18187647943076212429
20645477 70 18060424582392587086
22485316 2 18409445890806652586
22646028 1 15697998531137692082
23402539 116 17894906330359675983
23403322 49 18202002114220509135
23557571 272 18337115574682350893
23559900 14 18410570687239060328
300161 21 15068623820766192694
3268164 11 17822281388527498813
42 15 10159702404116975712
573450 72 17749374958380164512
9971528 1 17095241415563204118

>  <PUBCHEM_SHAPE_MULTIPOLES>  (1) 
257.57
11.71
1.2
0.92
10.94
0.08
-0.02
-0.83
-2.73
-0.44
-0.03
0.04
0
0.94

>  <PUBCHEM_SHAPE_SELFOVERLAP>  (1) 
507.481

>  <PUBCHEM_SHAPE_VOLUME>  (1) 
155

>  <PUBCHEM_COORDINATE_TYPE>  (1) 
2
5
10

$$$$
