27917
     RDKit          3D

 16 17  0  0  0  0  0  0  0  0999 V2000
    2.8413    2.5715   -0.0207 O   0  0  0  0  0  0  0  0  0  0  0  0
    1.2803   -2.6813   -0.1946 N   0  0  0  0  0  0  0  0  0  0  0  0
   -5.9992    1.2346   -0.3037 N   0  0  0  0  0  0  0  0  0  0  0  0
   -1.5820   -0.7323    0.9628 C   0  0  0  0  0  0  0  0  0  0  0  0
   -0.2923   -1.2699    0.4851 C   0  0  0  0  0  0  0  0  0  0  0  0
   -2.5346   -0.3410   -0.1830 C   0  0  0  0  0  0  0  0  0  0  0  0
    0.8858   -0.5223    0.2059 C   0  0  0  0  0  0  0  0  0  0  0  0
   -3.8466    0.2522    0.3350 C   0  0  0  0  0  0  0  0  0  0  0  0
    1.8571   -1.4314   -0.2186 C   0  0  0  0  0  0  0  0  0  0  0  0
   -0.0187   -2.5937    0.2290 C   0  0  0  0  0  0  0  0  0  0  0  0
    1.2201    0.8448    0.2737 C   0  0  0  0  0  0  0  0  0  0  0  0
   -4.7596    0.6647   -0.8183 C   0  0  0  0  0  0  0  0  0  0  0  0
    3.1513   -1.0403   -0.5799 C   0  0  0  0  0  0  0  0  0  0  0  0
    2.5107    1.2507   -0.0846 C   0  0  0  0  0  0  0  0  0  0  0  0
    3.4599    0.3211   -0.5046 C   0  0  0  0  0  0  0  0  0  0  0  0
    1.8263    3.4725    0.4165 C   0  0  0  0  0  0  0  0  0  0  0  0
  1 14  1  0
  1 16  1  0
  2  9  1  0
  2 10  1  0
  3 12  1  0
  4  5  1  0
  4  6  1  0
  5  7  1  0
  5 10  2  0
  6  8  1  0
  7  9  2  0
  7 11  1  0
  8 12  1  0
  9 13  1  0
 11 14  2  0
 13 15  2  0
 14 15  1  0
M  END
>  <PUBCHEM_COMPOUND_CID>  (1) 
27917

>  <PUBCHEM_CONFORMER_RMSD>  (1) 
0.6

>  <PUBCHEM_CONFORMER_DIVERSEORDER>  (1) 
1
53
38
34
26
52
55
42
49
16
17
54
61
48
2
56
51
11
41
60
47
40
50
57
39
10
22
14
13
12
23
8
4
18
25
3
19
20
46
7
58
24
15
31
33
44
27
45
9
36
43
6
37
59
5
29
30
21
32
35
28

>  <PUBCHEM_MMFF94_PARTIAL_CHARGES>  (1) 
20
1 -0.36
10 -0.3
11 -0.15
12 0.27
13 -0.15
14 0.08
15 -0.15
16 0.28
2 0.03
23 0.15
24 0.27
25 0.15
28 0.15
29 0.15
3 -0.99
30 0.36
31 0.36
4 0.18
5 -0.18
9 -0.15

>  <PUBCHEM_EFFECTIVE_ROTOR_COUNT>  (1) 
5

>  <PUBCHEM_PHARMACOPHORE_FEATURES>  (1) 
7
1 1 acceptor
1 2 cation
1 2 donor
1 3 cation
1 3 donor
5 2 5 7 9 10 rings
6 7 9 11 13 14 15 rings

>  <PUBCHEM_HEAVY_ATOM_COUNT>  (1) 
16

>  <PUBCHEM_ATOM_DEF_STEREO_COUNT>  (1) 
0

>  <PUBCHEM_ATOM_UDEF_STEREO_COUNT>  (1) 
0

>  <PUBCHEM_BOND_DEF_STEREO_COUNT>  (1) 
0

>  <PUBCHEM_BOND_UDEF_STEREO_COUNT>  (1) 
0

>  <PUBCHEM_ISOTOPIC_ATOM_COUNT>  (1) 
0

>  <PUBCHEM_COMPONENT_COUNT>  (1) 
1

>  <PUBCHEM_CACTVS_TAUTO_COUNT>  (1) 
1

>  <PUBCHEM_CONFORMER_ID>  (1) 
00006D0D00000001

>  <PUBCHEM_MMFF94_ENERGY>  (1) 
26.4827

>  <PUBCHEM_FEATURE_SELFOVERLAP>  (1) 
35.612

>  <PUBCHEM_SHAPE_FINGERPRINT>  (1) 
10411042 1 17761775070083109906
10608611 8 18265339597407580770
10693767 8 17987520295197148510
11471102 20 18410857624812992407
12654215 9 18335708230227318262
12730499 353 18334021571185633899
12769317 202 18337378375626678301
13134695 92 18265045838866868022
13294875 104 18261661641245794138
14178000 15 18122622743325275602
14250199 8 18341615893439737169
15279308 100 18265626566100968230
16945 1 18270140001346202642
17134986 127 18339360871983887502
18186145 218 18200047238217244626
20281475 54 10159713416297234075
20606313 2 18411139099905793038
20621476 13 18339078302033902057
20645477 70 18269274573989323447
212847 35 18040999514036591710
21524375 3 18262235633043252715
21639500 275 18411414016514831103
221357 26 18266175037809734565
22289505 5 18191862332358773725
22892500 29 18409448076654732750
231179 274 18040996219981389355
23402655 69 18342739602791959183
23557571 272 17458923603923048707
23558518 356 17827918743267278258
25 1 18408605859359188438
2748010 2 17980500149976932274
3014063 31 18337951178209060253
3060560 45 18343303630524060030
3524813 1 18187077330468664189
4072396 5 18336254653468663162
43658 37 18340762762479092449
474 4 18411418427662522073
495365 180 18342729745520294089
5312625 73 18410574024819052123
5939293 188 18410570704165923096
84936 182 18201999970995094137

>  <PUBCHEM_SHAPE_MULTIPOLES>  (1) 
313.44
8.35
3.14
0.8
15.27
1.4
-0.02
4.84
2.2
-2.79
-0.31
0.21
-0.02
0.69

>  <PUBCHEM_SHAPE_SELFOVERLAP>  (1) 
657.542

>  <PUBCHEM_SHAPE_VOLUME>  (1) 
179.3

>  <PUBCHEM_COORDINATE_TYPE>  (1) 
2
5
10

$$$$
