27926
     RDKit          3D

 17 17  0  0  1  0  0  0  0  0999 V2000
   -0.8950   -0.2979   -1.9229 O   0  0  0  0  0  0  0  0  0  0  0  0
    1.2496   -1.0155   -0.1186 N   0  0  0  0  0  0  0  0  0  0  0  0
    3.4274    0.1708   -0.3976 C   0  0  0  0  0  0  0  0  0  0  0  0
    1.9436    0.2604    0.0207 C   0  0  0  0  0  0  0  0  0  0  0  0
   -0.1498   -0.9463    0.3052 C   0  0  0  0  0  0  0  0  0  0  0  0
    4.0831    1.5570   -0.2114 C   0  0  0  0  0  0  0  0  0  0  0  0
    4.1892   -0.9729    0.3109 C   0  0  0  0  0  0  0  0  0  0  0  0
   -0.8996    0.1005   -0.5491 C   0  0  0  0  0  0  0  0  0  0  0  0
   -0.7512   -2.3474    0.1788 C   0  0  0  0  0  0  0  0  0  0  0  0
    5.5270    1.6265   -0.6876 C   0  0  0  0  0  0  0  0  0  0  0  0
    4.2747   -0.8541    1.8263 C   0  0  0  0  0  0  0  0  0  0  0  0
   -2.3488    0.2854   -0.1529 C   0  0  0  0  0  0  0  0  0  0  0  0
   -3.3183   -0.4986   -0.7535 C   0  0  0  0  0  0  0  0  0  0  0  0
   -2.6722    1.2340    0.8016 C   0  0  0  0  0  0  0  0  0  0  0  0
   -4.6537   -0.3285   -0.3883 C   0  0  0  0  0  0  0  0  0  0  0  0
   -4.0077    1.4040    1.1667 C   0  0  0  0  0  0  0  0  0  0  0  0
   -4.9983    0.6227    0.5718 C   0  0  0  0  0  0  0  0  0  0  0  0
  1  8  1  0
  2  4  1  0
  2  5  1  0
  3  4  1  0
  3  6  1  0
  3  7  1  0
  5  8  1  0
  5  9  1  0
  6 10  1  0
  7 11  1  0
  8 12  1  0
 12 13  2  0
 12 14  1  0
 13 15  1  0
 14 16  2  0
 15 17  2  0
 16 17  1  0
M  END
>  <PUBCHEM_COMPOUND_CID>  (1) 
27926

>  <PUBCHEM_CONFORMER_RMSD>  (1) 
0.8

>  <PUBCHEM_CONFORMER_DIVERSEORDER>  (1) 
1
30
51
4
83
28
31
60
10
76
43
52
40
65
32
41
69
49
26
33
23
53
82
59
80
72
36
46
70
18
16
6
63
57
12
86
5
14
62
78
87
39
21
85
48
54
15
35
67
44
61
11
3
19
75
22
9
47
27
50
20
29
2
8
37
55
66
58
79
13
74
73
45
38
81
24
7
84
71
64
34
77
56
25
42
68
17

>  <PUBCHEM_MMFF94_PARTIAL_CHARGES>  (1) 
18
1 -0.68
12 -0.14
13 -0.15
14 -0.15
15 -0.15
16 -0.15
17 -0.15
2 -0.9
26 0.36
37 0.4
38 0.15
39 0.15
4 0.27
40 0.15
41 0.15
42 0.15
5 0.27
8 0.42

>  <PUBCHEM_EFFECTIVE_ROTOR_COUNT>  (1) 
7

>  <PUBCHEM_PHARMACOPHORE_FEATURES>  (1) 
7
1 1 acceptor
1 1 donor
1 10 hydrophobe
1 11 hydrophobe
1 2 cation
1 2 donor
6 12 13 14 15 16 17 rings

>  <PUBCHEM_HEAVY_ATOM_COUNT>  (1) 
17

>  <PUBCHEM_ATOM_DEF_STEREO_COUNT>  (1) 
0

>  <PUBCHEM_ATOM_UDEF_STEREO_COUNT>  (1) 
2

>  <PUBCHEM_BOND_DEF_STEREO_COUNT>  (1) 
0

>  <PUBCHEM_BOND_UDEF_STEREO_COUNT>  (1) 
0

>  <PUBCHEM_ISOTOPIC_ATOM_COUNT>  (1) 
0

>  <PUBCHEM_COMPONENT_COUNT>  (1) 
1

>  <PUBCHEM_CACTVS_TAUTO_COUNT>  (1) 
1

>  <PUBCHEM_CONFORMER_ID>  (1) 
00006D1600000001

>  <PUBCHEM_MMFF94_ENERGY>  (1) 
30.4324

>  <PUBCHEM_FEATURE_SELFOVERLAP>  (1) 
35.522

>  <PUBCHEM_SHAPE_FINGERPRINT>  (1) 
10912923 1 18410570695259334538
11046707 91 11458426847116568693
12236239 1 18413952784484022117
12507560 40 16733255777507643774
12596602 18 18040720281201810161
12633257 1 18260258634460193906
12916748 109 18343590637291579249
13533116 47 17095799915218623538
13583140 156 17386011727139926769
13897977 58 18202288013366962533
14251752 14 17203337685008167980
14341114 328 18342744000854288105
15238133 3 18202560662428493128
15880784 105 17603586326707928953
17857418 61 8935008049072147388
18186145 218 18270117907607060342
18222031 100 12396305850177622178
19784866 140 12319464259888649317
204376 136 18333453148889976267
20645477 56 17676763271128259716
20671657 53 8430305827622482867
21033648 29 17313649529837584972
212847 35 18343864407640474984
21652331 79 18408324380235469948
22079108 93 18410576223214527939
22485316 2 8286196145662753058
22854114 59 17894349981749960940
23402539 116 18130497583295159295
23557571 272 16917078788501738493
23559900 14 17060342907796947846
26918003 58 13551468189472684237
2916195 48 16916768691693993786
474 4 18340771455181780082
5104073 3 18187643648008534458
542803 24 18272371979563803580
633830 44 18342743970404590263
90127 26 17313100813579530692
960060 61 10663814200543928890

>  <PUBCHEM_SHAPE_MULTIPOLES>  (1) 
339
12.02
1.72
1.23
4.8
0.27
-0.11
-4.55
-1.51
0.86
-0.21
0.16
0.03
-1.69

>  <PUBCHEM_SHAPE_SELFOVERLAP>  (1) 
669.825

>  <PUBCHEM_SHAPE_VOLUME>  (1) 
202

>  <PUBCHEM_COORDINATE_TYPE>  (1) 
2
5
10

$$$$
