27930
     RDKit          3D

 24 29  0  0  0  0  0  0  0  0999 V2000
    4.0342    1.4233    0.0001 N   0  0  0  0  0  0  0  0  0  0  0  0
   -4.0342   -1.4234   -0.0003 N   0  0  0  0  0  0  0  0  0  0  0  0
    0.6905   -0.1746    0.0006 C   0  0  0  0  0  0  0  0  0  0  0  0
   -0.6904    0.1747    0.0007 C   0  0  0  0  0  0  0  0  0  0  0  0
    1.6976    0.8266    0.0004 C   0  0  0  0  0  0  0  0  0  0  0  0
   -1.6976   -0.8267    0.0003 C   0  0  0  0  0  0  0  0  0  0  0  0
    1.0596   -1.5327    0.0004 C   0  0  0  0  0  0  0  0  0  0  0  0
   -1.0595    1.5327    0.0004 C   0  0  0  0  0  0  0  0  0  0  0  0
    3.0655    0.4786    0.0001 C   0  0  0  0  0  0  0  0  0  0  0  0
   -3.0655   -0.4787   -0.0001 C   0  0  0  0  0  0  0  0  0  0  0  0
    1.2831    2.1702    0.0002 C   0  0  0  0  0  0  0  0  0  0  0  0
   -1.2831   -2.1701    0.0004 C   0  0  0  0  0  0  0  0  0  0  0  0
    3.4084   -0.8887   -0.0002 C   0  0  0  0  0  0  0  0  0  0  0  0
   -3.4085    0.8887   -0.0002 C   0  0  0  0  0  0  0  0  0  0  0  0
    0.0680   -2.5180    0.0005 C   0  0  0  0  0  0  0  0  0  0  0  0
   -0.0680    2.5181    0.0004 C   0  0  0  0  0  0  0  0  0  0  0  0
    2.4142   -1.8754    0.0000 C   0  0  0  0  0  0  0  0  0  0  0  0
   -2.4141    1.8753   -0.0002 C   0  0  0  0  0  0  0  0  0  0  0  0
    4.7646   -1.2456   -0.0005 C   0  0  0  0  0  0  0  0  0  0  0  0
   -4.7647    1.2456   -0.0004 C   0  0  0  0  0  0  0  0  0  0  0  0
    5.7476   -0.2695   -0.0010 C   0  0  0  0  0  0  0  0  0  0  0  0
   -5.7476    0.2695   -0.0005 C   0  0  0  0  0  0  0  0  0  0  0  0
    5.3317    1.0426   -0.0005 C   0  0  0  0  0  0  0  0  0  0  0  0
   -5.3318   -1.0426   -0.0005 C   0  0  0  0  0  0  0  0  0  0  0  0
  1  9  2  0
  1 23  1  0
  2 10  2  0
  2 24  1  0
  3  4  1  0
  3  5  2  0
  3  7  1  0
  4  6  2  0
  4  8  1  0
  5  9  1  0
  5 11  1  0
  6 10  1  0
  6 12  1  0
  7 15  1  0
  7 17  2  0
  8 16  1  0
  8 18  2  0
  9 13  1  0
 10 14  1  0
 11 16  2  0
 12 15  2  0
 13 17  1  0
 13 19  2  0
 14 18  1  0
 14 20  2  0
 19 21  1  0
 20 22  1  0
 21 23  2  0
 22 24  2  0
M  END
>  <PUBCHEM_COMPOUND_CID>  (1) 
27930

>  <PUBCHEM_CONFORMER_RMSD>  (1) 
0.6

>  <PUBCHEM_CONFORMER_DIVERSEORDER>  (1) 
1

>  <PUBCHEM_MMFF94_PARTIAL_CHARGES>  (1) 
28
1 -0.62
10 0.31
11 -0.15
12 -0.15
15 -0.15
16 -0.15
17 -0.15
18 -0.15
19 -0.15
2 -0.62
20 -0.15
21 -0.15
22 -0.15
23 0.16
24 0.16
25 0.15
26 0.15
27 0.15
28 0.15
29 0.15
30 0.15
31 0.15
32 0.15
33 0.15
34 0.15
35 0.15
36 0.15
9 0.31

>  <PUBCHEM_EFFECTIVE_ROTOR_COUNT>  (1) 
0

>  <PUBCHEM_PHARMACOPHORE_FEATURES>  (1) 
8
1 1 acceptor
1 2 acceptor
6 1 9 13 19 21 23 rings
6 2 10 14 20 22 24 rings
6 3 4 5 8 11 16 rings
6 3 4 6 7 12 15 rings
6 3 5 7 9 13 17 rings
6 4 6 8 10 14 18 rings

>  <PUBCHEM_HEAVY_ATOM_COUNT>  (1) 
24

>  <PUBCHEM_ATOM_DEF_STEREO_COUNT>  (1) 
0

>  <PUBCHEM_ATOM_UDEF_STEREO_COUNT>  (1) 
0

>  <PUBCHEM_BOND_DEF_STEREO_COUNT>  (1) 
0

>  <PUBCHEM_BOND_UDEF_STEREO_COUNT>  (1) 
0

>  <PUBCHEM_ISOTOPIC_ATOM_COUNT>  (1) 
0

>  <PUBCHEM_COMPONENT_COUNT>  (1) 
1

>  <PUBCHEM_CACTVS_TAUTO_COUNT>  (1) 
1

>  <PUBCHEM_CONFORMER_ID>  (1) 
00006D1A00000001

>  <PUBCHEM_MMFF94_ENERGY>  (1) 
89.9744

>  <PUBCHEM_FEATURE_SELFOVERLAP>  (1) 
40.788

>  <PUBCHEM_SHAPE_FINGERPRINT>  (1) 
10 15 18336818793518324928
10411042 1 17762056948897561611
10906281 52 18338818756811187595
10967382 1 18410575076089001062
1100329 8 18338799047206240314
11112241 14 16484135193291802736
11578080 2 16843025679796567802
11646440 116 18201446895355758449
11963148 33 18409161142902481835
12011746 2 18410575084663079076
12107183 9 17618222806179250929
12166972 35 17821733819184429868
12236239 1 18410855455833194497
12403259 415 18411689989480615281
12788726 201 17988939863445096000
12838862 33 18338497699474302028
13140716 1 18122626320927031593
13402501 40 18410855460128161800
13862211 1 18410570686643259882
14787075 74 18410009939986657131
14790565 3 18410860953402389585
15099037 51 18410293631235109823
15131766 46 16155694569232246996
15196674 1 18410573976561516545
15927050 60 17622724636649957668
1601671 61 18411699876468372193
17492 89 18193553359778649074
1813 80 17312822671576595892
18681886 176 18340762736366345560
19591789 44 18410854347747482378
200 152 18202843249442880833
20028762 73 18130502033008677975
21236236 1 18340769256691462881
21267235 1 18410863144072795070
21279426 13 18338516313804112343
21421861 104 17898004625272670027
21792934 111 18338783516636309360
21857420 4 12703886153430574965
23402539 116 18342733031180831551
23559900 14 18341607165639333336
3004659 81 18261112963795400180
3178227 256 18336560386520388433
335352 9 18410573998036353470
34797466 226 16630530673867653896
34934 24 18410852200754626698
350125 39 18410575084689965869
3680242 22 18263362503839421626
4073 2 18040722505894843938
4214541 1 18410855438690540901
474229 33 18411418401549911199
5104073 3 18410856538164954040
59755656 215 18411142398936795822
6138700 20 18409731720954210226
9709674 26 18412270514867453822

>  <PUBCHEM_SHAPE_MULTIPOLES>  (1) 
483.95
11.62
2.56
0.61
0
0
0
0
0
0
0
0
0
0

>  <PUBCHEM_SHAPE_SELFOVERLAP>  (1) 
1153.056

>  <PUBCHEM_SHAPE_VOLUME>  (1) 
235.7

>  <PUBCHEM_COORDINATE_TYPE>  (1) 
2
5
10

$$$$
