27932
     RDKit          3D

  7  6  0  0  0  0  0  0  0  0999 V2000
   -2.8039   -0.3676    0.0000 O   0  0  0  0  0  0  0  0  0  0  0  0
   -0.5087    0.1100   -0.0001 N   0  0  0  0  0  0  0  0  0  0  0  0
    0.7276   -0.4788    0.0000 N   0  0  0  0  0  0  0  0  0  0  0  0
   -0.7098    1.5485    0.0000 C   0  0  0  0  0  0  0  0  0  0  0  0
    1.7812    0.2650   -0.0001 C   0  0  0  0  0  0  0  0  0  0  0  0
    3.1402   -0.3674    0.0001 C   0  0  0  0  0  0  0  0  0  0  0  0
   -1.6266   -0.7096    0.0000 C   0  0  0  0  0  0  0  0  0  0  0  0
  1  7  2  0
  2  3  1  0
  2  4  1  0
  2  7  1  0
  3  5  2  0
  5  6  1  0
M  END
>  <PUBCHEM_COMPOUND_CID>  (1) 
27932

>  <PUBCHEM_CONFORMER_RMSD>  (1) 
0.4

>  <PUBCHEM_CONFORMER_DIVERSEORDER>  (1) 
1
4
2
3

>  <PUBCHEM_MMFF94_PARTIAL_CHARGES>  (1) 
9
1 -0.57
11 0.06
15 0.06
2 -0.3
3 -0.51
4 0.3
5 0.33
6 0.06
7 0.57

>  <PUBCHEM_EFFECTIVE_ROTOR_COUNT>  (1) 
2

>  <PUBCHEM_PHARMACOPHORE_FEATURES>  (1) 
2
1 1 acceptor
1 3 acceptor

>  <PUBCHEM_HEAVY_ATOM_COUNT>  (1) 
7

>  <PUBCHEM_ATOM_DEF_STEREO_COUNT>  (1) 
0

>  <PUBCHEM_ATOM_UDEF_STEREO_COUNT>  (1) 
0

>  <PUBCHEM_BOND_DEF_STEREO_COUNT>  (1) 
0

>  <PUBCHEM_BOND_UDEF_STEREO_COUNT>  (1) 
1

>  <PUBCHEM_ISOTOPIC_ATOM_COUNT>  (1) 
0

>  <PUBCHEM_COMPONENT_COUNT>  (1) 
1

>  <PUBCHEM_CACTVS_TAUTO_COUNT>  (1) 
1

>  <PUBCHEM_CONFORMER_ID>  (1) 
00006D1C00000001

>  <PUBCHEM_MMFF94_ENERGY>  (1) 
13.9166

>  <PUBCHEM_FEATURE_SELFOVERLAP>  (1) 
10.149

>  <PUBCHEM_SHAPE_FINGERPRINT>  (1) 
10857977 72 18341320193082865096
16714656 1 18413671318039139263
21040471 1 17906171746135966720
23552423 10 18116157666767704342
23552449 1 18339358557160441476
29004967 10 18337676411617052043
5460574 1 9295291638173410594

>  <PUBCHEM_SHAPE_MULTIPOLES>  (1) 
128.23
4.16
1.12
0.58
1.5
0.48
0
-1.05
0
-0.39
0
0.04
0.01
0

>  <PUBCHEM_SHAPE_SELFOVERLAP>  (1) 
230.199

>  <PUBCHEM_SHAPE_VOLUME>  (1) 
83.1

>  <PUBCHEM_COORDINATE_TYPE>  (1) 
2
5
10

$$$$
