27951
     RDKit          3D

 14 15  0  0  1  0  0  0  0  0999 V2000
    2.7549   -1.4779    0.4107 O   0  0  0  0  0  0  0  0  0  0  0  0
    3.5728    0.6264   -0.4321 O   0  0  0  0  0  0  0  0  0  0  0  0
   -4.1531   -0.4126   -0.0876 N   0  0  0  0  0  0  0  0  0  0  0  0
   -4.5658    0.8793    0.3491 N   0  0  0  0  0  0  0  0  0  0  0  0
   -1.8885    0.1744    0.7046 C   0  0  0  0  0  0  0  0  0  0  0  0
   -2.7440   -0.3272   -0.4824 C   0  0  0  0  0  0  0  0  0  0  0  0
   -0.4380    0.3299    0.3906 C   0  0  0  0  0  0  0  0  0  0  0  0
    0.4332   -0.7443    0.5872 C   0  0  0  0  0  0  0  0  0  0  0  0
   -2.2990   -1.7035   -0.9773 C   0  0  0  0  0  0  0  0  0  0  0  0
    1.7653   -0.5525    0.2828 C   0  0  0  0  0  0  0  0  0  0  0  0
    0.0394    1.5577   -0.1010 C   0  0  0  0  0  0  0  0  0  0  0  0
    2.2324    0.6492   -0.1983 C   0  0  0  0  0  0  0  0  0  0  0  0
    1.3933    1.7254   -0.4015 C   0  0  0  0  0  0  0  0  0  0  0  0
    3.8972   -0.7242   -0.0447 C   0  0  0  0  0  0  0  0  0  0  0  0
  1 10  1  0
  1 14  1  0
  2 12  1  0
  2 14  1  0
  3  4  1  0
  3  6  1  0
  5  6  1  0
  5  7  1  0
  6  9  1  0
  7  8  1  0
  7 11  2  0
  8 10  2  0
 10 12  1  0
 11 13  1  0
 12 13  2  0
M  END
>  <PUBCHEM_COMPOUND_CID>  (1) 
27951

>  <PUBCHEM_CONFORMER_RMSD>  (1) 
0.6

>  <PUBCHEM_CONFORMER_DIVERSEORDER>  (1) 
1
8
18
12
5
16
22
7
24
25
10
13
28
17
20
21
19
23
6
9
15
14
27
4
29
11
26
2
3

>  <PUBCHEM_MMFF94_PARTIAL_CHARGES>  (1) 
19
1 -0.36
10 0.08
11 -0.15
12 0.08
13 -0.15
14 0.56
18 0.15
2 -0.36
22 0.15
23 0.36
24 0.15
27 0.36
28 0.36
3 -0.63
4 -0.72
5 0.14
6 0.27
7 -0.14
8 -0.15

>  <PUBCHEM_EFFECTIVE_ROTOR_COUNT>  (1) 
3.6

>  <PUBCHEM_PHARMACOPHORE_FEATURES>  (1) 
6
1 1 acceptor
1 2 acceptor
1 3 donor
1 4 donor
5 1 2 10 12 14 rings
6 7 8 10 11 12 13 rings

>  <PUBCHEM_HEAVY_ATOM_COUNT>  (1) 
14

>  <PUBCHEM_ATOM_DEF_STEREO_COUNT>  (1) 
0

>  <PUBCHEM_ATOM_UDEF_STEREO_COUNT>  (1) 
1

>  <PUBCHEM_BOND_DEF_STEREO_COUNT>  (1) 
0

>  <PUBCHEM_BOND_UDEF_STEREO_COUNT>  (1) 
0

>  <PUBCHEM_ISOTOPIC_ATOM_COUNT>  (1) 
0

>  <PUBCHEM_COMPONENT_COUNT>  (1) 
1

>  <PUBCHEM_CACTVS_TAUTO_COUNT>  (1) 
1

>  <PUBCHEM_CONFORMER_ID>  (1) 
00006D2F00000001

>  <PUBCHEM_MMFF94_ENERGY>  (1) 
27.6333

>  <PUBCHEM_FEATURE_SELFOVERLAP>  (1) 
31.934

>  <PUBCHEM_SHAPE_FINGERPRINT>  (1) 
11401426 45 18409162234107809912
11471102 20 18260265256676940605
11769659 78 18201711898895582990
12346177 29 16844999200347465415
12932764 1 16009298907476404859
14115302 16 17989488554301532299
14576447 43 18268421511267925663
14911166 2 18187373133872609022
14993402 34 18342461447503117494
15477762 27 18336264630091830150
15775835 57 18335985349875004511
16945 1 18188217588841294200
17844478 74 17240481399375498957
18186145 218 17530959202689641987
18511873 20 18342175574854383519
19422 9 18339360872432319487
200 152 18412543197882020522
20201158 50 18113621187820702202
20528008 55 12031785868591483101
20645477 70 18335702715109839855
21119208 17 18413671309644318503
221490 88 18117847830587384723
22485316 2 18273210910945823358
23402539 116 18410287013223393062
23402655 69 18408040706076871541
23559900 14 17489586779729282130
23598291 2 18340764965812958165
25 1 17894908516698632619
2748010 2 17684668892923635624
7364860 26 18128531755152215760
74978 22 18201153377438344681
84936 182 17983578794913854785
9939556 21 18341330110521015117

>  <PUBCHEM_SHAPE_MULTIPOLES>  (1) 
266.41
7.19
1.59
0.81
3.56
0.08
0.03
-0.86
0.35
-0.22
0.23
0.19
-0.1
-0.71

>  <PUBCHEM_SHAPE_SELFOVERLAP>  (1) 
562.648

>  <PUBCHEM_SHAPE_VOLUME>  (1) 
150.9

>  <PUBCHEM_COORDINATE_TYPE>  (1) 
2
5
10

$$$$
