27962
     RDKit          3D

 15 17  0  0  0  0  0  0  0  0999 V2000
    1.7016   -1.7168    1.5565 O   0  0  0  0  0  0  0  0  0  0  0  0
   -1.6996   -1.7217   -1.5539 O   0  0  0  0  0  0  0  0  0  0  0  0
    0.0002   -2.0813    0.0027 N   0  0  0  0  0  0  0  0  0  0  0  0
    0.2858    0.1115    0.7232 C   0  0  0  0  0  0  0  0  0  0  0  0
   -0.2861    0.1096   -0.7234 C   0  0  0  0  0  0  0  0  0  0  0  0
    1.3607    1.1862    0.9669 C   0  0  0  0  0  0  0  0  0  0  0  0
   -0.8231    0.2238    1.8171 C   0  0  0  0  0  0  0  0  0  0  0  0
    0.8228    0.2202   -1.8175 C   0  0  0  0  0  0  0  0  0  0  0  0
   -1.3618    1.1831   -0.9695 C   0  0  0  0  0  0  0  0  0  0  0  0
    0.8056   -1.3210    0.8281 C   0  0  0  0  0  0  0  0  0  0  0  0
   -0.8048   -1.3235   -0.8252 C   0  0  0  0  0  0  0  0  0  0  0  0
    2.2368    1.4962   -0.2041 C   0  0  0  0  0  0  0  0  0  0  0  0
   -1.9969    1.0703    1.4446 C   0  0  0  0  0  0  0  0  0  0  0  0
    1.9964    1.0678   -1.4467 C   0  0  0  0  0  0  0  0  0  0  0  0
   -2.2377    1.4957    0.2011 C   0  0  0  0  0  0  0  0  0  0  0  0
  1 10  2  0
  2 11  2  0
  3 10  1  0
  3 11  1  0
  4  5  1  0
  4  6  1  0
  4  7  1  0
  4 10  1  0
  5  8  1  0
  5  9  1  0
  5 11  1  0
  6 12  1  0
  7 13  1  0
  8 14  1  0
  9 15  1  0
 12 14  2  0
 13 15  2  0
M  END
>  <PUBCHEM_COMPOUND_CID>  (1) 
27962

>  <PUBCHEM_CONFORMER_RMSD>  (1) 
0.4

>  <PUBCHEM_CONFORMER_DIVERSEORDER>  (1) 
1
3
2
5
4

>  <PUBCHEM_MMFF94_PARTIAL_CHARGES>  (1) 
20
1 -0.57
10 0.57
11 0.57
12 -0.29
13 -0.29
14 -0.29
15 -0.29
2 -0.57
24 0.37
25 0.15
26 0.15
27 0.15
28 0.15
3 -0.49
4 0.06
5 0.06
6 0.14
7 0.14
8 0.14
9 0.14

>  <PUBCHEM_EFFECTIVE_ROTOR_COUNT>  (1) 
1

>  <PUBCHEM_PHARMACOPHORE_FEATURES>  (1) 
6
1 1 acceptor
1 2 acceptor
1 3 donor
5 3 4 5 10 11 rings
6 4 5 6 8 12 14 rings
6 4 5 7 9 13 15 rings

>  <PUBCHEM_HEAVY_ATOM_COUNT>  (1) 
15

>  <PUBCHEM_ATOM_DEF_STEREO_COUNT>  (1) 
0

>  <PUBCHEM_ATOM_UDEF_STEREO_COUNT>  (1) 
0

>  <PUBCHEM_BOND_DEF_STEREO_COUNT>  (1) 
0

>  <PUBCHEM_BOND_UDEF_STEREO_COUNT>  (1) 
0

>  <PUBCHEM_ISOTOPIC_ATOM_COUNT>  (1) 
0

>  <PUBCHEM_COMPONENT_COUNT>  (1) 
1

>  <PUBCHEM_CACTVS_TAUTO_COUNT>  (1) 
2

>  <PUBCHEM_CONFORMER_ID>  (1) 
00006D3A00000001

>  <PUBCHEM_MMFF94_ENERGY>  (1) 
36.9633

>  <PUBCHEM_FEATURE_SELFOVERLAP>  (1) 
30.919

>  <PUBCHEM_SHAPE_FINGERPRINT>  (1) 
10702982 57 18339936973174557448
12138202 97 17772781417757669948
12326174 3 17762091776791593865
12423570 1 8090627562892350374
13024252 1 11893558719764092260
13898156 1 18341598322243206682
141345 1 11060561958624355428
14817 1 9019827802968873213
15557651 10 18194715663363750436
16945 1 17467029318773647846
17954114 43 18125746511741549277
20511035 2 17970628472109920893
23419403 2 16178568636520537558
2748010 2 16180408948629562666
430814 3 18265637457595056073
5084963 1 17615180698049937725
53812654 72 17836882838388128354
68419 9 18340759403492835703

>  <PUBCHEM_SHAPE_MULTIPOLES>  (1) 
291.97
2.63
2.05
1.89
0
0.79
0
-1.43
0
0
0
0
0.3
-0.71

>  <PUBCHEM_SHAPE_SELFOVERLAP>  (1) 
642.402

>  <PUBCHEM_SHAPE_VOLUME>  (1) 
154.6

>  <PUBCHEM_COORDINATE_TYPE>  (1) 
2
5
10

$$$$
