27961
     RDKit          3D

 11 11  0  0  0  0  0  0  0  0999 V2000
    3.0632   -1.3677   -0.6388 Cl  0  0  0  0  0  0  0  0  0  0  0  0
    0.6051    0.4829   -1.1008 C   0  0  0  0  0  0  0  0  0  0  0  0
   -0.7306    0.1926   -0.5036 C   0  0  0  0  0  0  0  0  0  0  0  0
   -1.0649   -1.1130   -0.1442 C   0  0  0  0  0  0  0  0  0  0  0  0
   -1.6453    1.2266   -0.3048 C   0  0  0  0  0  0  0  0  0  0  0  0
    1.6523    0.8140   -0.0660 C   0  0  0  0  0  0  0  0  0  0  0  0
   -2.3141   -1.3847    0.4139 C   0  0  0  0  0  0  0  0  0  0  0  0
   -2.8945    0.9551    0.2534 C   0  0  0  0  0  0  0  0  0  0  0  0
   -3.2288   -0.3506    0.6128 C   0  0  0  0  0  0  0  0  0  0  0  0
    2.7585    0.1108    0.2271 C   0  0  0  0  0  0  0  0  0  0  0  0
    3.7991    0.4339    1.2509 C   0  0  0  0  0  0  0  0  0  0  0  0
  1 10  1  0
  2  3  1  0
  2  6  1  0
  3  4  2  0
  3  5  1  0
  4  7  1  0
  5  8  2  0
  6 10  2  0
  7  9  2  0
  8  9  1  0
 10 11  1  0
M  END
>  <PUBCHEM_COMPOUND_CID>  (1) 
27961

>  <PUBCHEM_CONFORMER_RMSD>  (1) 
0.4

>  <PUBCHEM_CONFORMER_DIVERSEORDER>  (1) 
2
10
6
4
7
8
9
3
5
1

>  <PUBCHEM_MMFF94_PARTIAL_CHARGES>  (1) 
16
1 -0.14
11 0.14
14 0.15
15 0.15
16 0.15
17 0.15
18 0.15
19 0.15
2 0.28
3 -0.14
4 -0.15
5 -0.15
6 -0.29
7 -0.15
8 -0.15
9 -0.15

>  <PUBCHEM_EFFECTIVE_ROTOR_COUNT>  (1) 
2

>  <PUBCHEM_PHARMACOPHORE_FEATURES>  (1) 
1
6 3 4 5 7 8 9 rings

>  <PUBCHEM_HEAVY_ATOM_COUNT>  (1) 
11

>  <PUBCHEM_ATOM_DEF_STEREO_COUNT>  (1) 
0

>  <PUBCHEM_ATOM_UDEF_STEREO_COUNT>  (1) 
0

>  <PUBCHEM_BOND_DEF_STEREO_COUNT>  (1) 
0

>  <PUBCHEM_BOND_UDEF_STEREO_COUNT>  (1) 
1

>  <PUBCHEM_ISOTOPIC_ATOM_COUNT>  (1) 
0

>  <PUBCHEM_COMPONENT_COUNT>  (1) 
1

>  <PUBCHEM_CACTVS_TAUTO_COUNT>  (1) 
1

>  <PUBCHEM_CONFORMER_ID>  (1) 
00006D3900000002

>  <PUBCHEM_MMFF94_ENERGY>  (1) 
20.4267

>  <PUBCHEM_FEATURE_SELFOVERLAP>  (1) 
5.074

>  <PUBCHEM_SHAPE_FINGERPRINT>  (1) 
10149128 111 14261353595764967752
12251169 10 18412262878067051984
12382932 28 18411131442184611936
12897270 3 8790886280752790740
12932764 1 17632579370332598140
14144814 61 18334016098727099620
14325111 11 18412266120730398317
14390081 3 10663821857990634430
15219456 202 18201440250978014926
15775835 57 15841546392662169336
17804303 29 18267596723181296662
17834069 15 18339365162576978063
18186145 218 8502659216073579430
19049666 15 18055636114310407788
19422 9 15647058135716040836
20279233 1 18411975849850485094
20361792 2 16370721552059269150
20645464 45 18202283597665555823
20711985 327 17240760709720432028
20715346 28 18343581820013851604
20871998 184 18270969067178008639
21501925 9 18335701701692334143
22169311 14 18202285766845625330
22485316 2 16515678957536508064
23402539 116 18341321250488988221
23552423 10 17607541411840942685
3248919 1 18408599283985557764
369184 2 17775849021044771455
449060 50 18343581876070232184
57812782 119 18412543214951171801
7364860 26 18190757516372852564

>  <PUBCHEM_SHAPE_MULTIPOLES>  (1) 
228.24
6.38
1.42
1
2.8
0.3
-0.05
0.37
-2.03
-0.27
0.07
0.54
-0.05
0.61

>  <PUBCHEM_SHAPE_SELFOVERLAP>  (1) 
452.965

>  <PUBCHEM_SHAPE_VOLUME>  (1) 
132.5

>  <PUBCHEM_COORDINATE_TYPE>  (1) 
2
5
10

$$$$
