27971
     RDKit          3D

  9  8  0  0  0  0  0  0  0  0999 V2000
    2.5732    1.3067    0.0116 O   0  0  0  0  0  0  0  0  0  0  0  0
   -2.4607   -0.0534    0.0002 C   0  0  0  0  0  0  0  0  0  0  0  0
   -1.2429   -0.6298    0.0026 C   0  0  0  0  0  0  0  0  0  0  0  0
   -3.7814   -0.7737    0.0046 C   0  0  0  0  0  0  0  0  0  0  0  0
   -2.5843    1.4489   -0.0083 C   0  0  0  0  0  0  0  0  0  0  0  0
    0.0442    0.0346   -0.0015 C   0  0  0  0  0  0  0  0  0  0  0  0
    1.2011   -0.6426    0.0014 C   0  0  0  0  0  0  0  0  0  0  0  0
    2.5039    0.0799   -0.0060 C   0  0  0  0  0  0  0  0  0  0  0  0
    3.7469   -0.7706   -0.0045 C   0  0  0  0  0  0  0  0  0  0  0  0
  1  8  2  0
  2  3  2  0
  2  4  1  0
  2  5  1  0
  3  6  1  0
  6  7  2  0
  7  8  1  0
  8  9  1  0
M  END
>  <PUBCHEM_COMPOUND_CID>  (1) 
27971

>  <PUBCHEM_CONFORMER_RMSD>  (1) 
0.4

>  <PUBCHEM_CONFORMER_DIVERSEORDER>  (1) 
1
4
3
7
5
2
8
6

>  <PUBCHEM_MMFF94_PARTIAL_CHARGES>  (1) 
12
1 -0.57
10 0.15
17 0.15
18 0.15
2 -0.28
3 -0.15
4 0.14
5 0.14
6 -0.15
7 -0.14
8 0.49
9 0.06

>  <PUBCHEM_EFFECTIVE_ROTOR_COUNT>  (1) 
2

>  <PUBCHEM_PHARMACOPHORE_FEATURES>  (1) 
2
1 1 acceptor
3 2 4 5 hydrophobe

>  <PUBCHEM_HEAVY_ATOM_COUNT>  (1) 
9

>  <PUBCHEM_ATOM_DEF_STEREO_COUNT>  (1) 
0

>  <PUBCHEM_ATOM_UDEF_STEREO_COUNT>  (1) 
0

>  <PUBCHEM_BOND_DEF_STEREO_COUNT>  (1) 
0

>  <PUBCHEM_BOND_UDEF_STEREO_COUNT>  (1) 
1

>  <PUBCHEM_ISOTOPIC_ATOM_COUNT>  (1) 
0

>  <PUBCHEM_COMPONENT_COUNT>  (1) 
1

>  <PUBCHEM_CACTVS_TAUTO_COUNT>  (1) 
2

>  <PUBCHEM_CONFORMER_ID>  (1) 
00006D4300000001

>  <PUBCHEM_MMFF94_ENERGY>  (1) 
12.9549

>  <PUBCHEM_FEATURE_SELFOVERLAP>  (1) 
10.148

>  <PUBCHEM_SHAPE_FINGERPRINT>  (1) 
11062470 55 8286202746964280943
12162725 195 18410013234221499764
12932764 1 17418364805358403847
14325111 11 18410575084668366658
14390081 3 18410572885787685361
1986462 14 18410015394653268991
20279233 1 8574712407580209184
23402539 116 18342165670781203039
3248919 1 16950572077173018235

>  <PUBCHEM_SHAPE_MULTIPOLES>  (1) 
179.35
6.92
1.21
0.61
0.87
0.39
0
-0.62
0
-0.28
0
-0.03
-0.01
0.01

>  <PUBCHEM_SHAPE_SELFOVERLAP>  (1) 
334.761

>  <PUBCHEM_SHAPE_VOLUME>  (1) 
113

>  <PUBCHEM_COORDINATE_TYPE>  (1) 
2
5
10

$$$$
