2797
     RDKit          3D

 14 14  0  0  0  0  0  0  0  0999 V2000
    4.9133   -0.0251   -0.4025 Cl  0  0  0  0  0  0  0  0  0  0  0  0
   -0.8391    0.0422    0.7734 O   0  0  0  0  0  0  0  0  0  0  0  0
   -4.1019   -0.0979   -0.7042 O   0  0  0  0  0  0  0  0  0  0  0  0
   -3.3804    0.1327    1.4276 O   0  0  0  0  0  0  0  0  0  0  0  0
   -1.7207   -0.0154   -0.3483 C   0  0  0  0  0  0  0  0  0  0  0  0
   -1.4589   -1.3238   -1.0884 C   0  0  0  0  0  0  0  0  0  0  0  0
   -1.4559    1.2079   -1.2210 C   0  0  0  0  0  0  0  0  0  0  0  0
   -3.1276    0.0164    0.2343 C   0  0  0  0  0  0  0  0  0  0  0  0
    0.5007    0.0265    0.4997 C   0  0  0  0  0  0  0  0  0  0  0  0
    1.1787    1.2248    0.2985 C   0  0  0  0  0  0  0  0  0  0  0  0
    1.1763   -1.1878    0.4243 C   0  0  0  0  0  0  0  0  0  0  0  0
    2.5452    1.2089    0.0190 C   0  0  0  0  0  0  0  0  0  0  0  0
    2.5428   -1.2039    0.1450 C   0  0  0  0  0  0  0  0  0  0  0  0
    3.2274   -0.0055   -0.0576 C   0  0  0  0  0  0  0  0  0  0  0  0
  1 14  1  0
  2  5  1  0
  2  9  1  0
  3  8  1  0
  4  8  2  0
  5  6  1  0
  5  7  1  0
  5  8  1  0
  9 10  2  0
  9 11  1  0
 10 12  1  0
 11 13  2  0
 12 14  2  0
 13 14  1  0
M  END
>  <PUBCHEM_COMPOUND_CID>  (1) 
2797

>  <PUBCHEM_CONFORMER_RMSD>  (1) 
0.6

>  <PUBCHEM_CONFORMER_DIVERSEORDER>  (1) 
1
8
9
3
5
7
4
2
10
6

>  <PUBCHEM_MMFF94_PARTIAL_CHARGES>  (1) 
17
1 -0.18
10 -0.15
11 -0.15
12 -0.15
13 -0.15
14 0.18
2 -0.36
21 0.15
22 0.15
23 0.15
24 0.15
25 0.5
3 -0.65
4 -0.57
5 0.34
8 0.66
9 0.08

>  <PUBCHEM_EFFECTIVE_ROTOR_COUNT>  (1) 
3

>  <PUBCHEM_PHARMACOPHORE_FEATURES>  (1) 
6
1 2 acceptor
1 3 acceptor
1 4 acceptor
3 3 4 8 anion
3 5 6 7 hydrophobe
6 9 10 11 12 13 14 rings

>  <PUBCHEM_HEAVY_ATOM_COUNT>  (1) 
14

>  <PUBCHEM_ATOM_DEF_STEREO_COUNT>  (1) 
0

>  <PUBCHEM_ATOM_UDEF_STEREO_COUNT>  (1) 
0

>  <PUBCHEM_BOND_DEF_STEREO_COUNT>  (1) 
0

>  <PUBCHEM_BOND_UDEF_STEREO_COUNT>  (1) 
0

>  <PUBCHEM_ISOTOPIC_ATOM_COUNT>  (1) 
0

>  <PUBCHEM_COMPONENT_COUNT>  (1) 
1

>  <PUBCHEM_CACTVS_TAUTO_COUNT>  (1) 
1

>  <PUBCHEM_CONFORMER_ID>  (1) 
00000AED00000001

>  <PUBCHEM_MMFF94_ENERGY>  (1) 
48.7125

>  <PUBCHEM_FEATURE_SELFOVERLAP>  (1) 
30.517

>  <PUBCHEM_SHAPE_FINGERPRINT>  (1) 
11031198 65 18187652401062173118
11062470 55 14549019879470282712
11401426 45 18341326765126567800
11471102 20 18409445890890918600
12500047 106 13973963177561343068
12932764 1 18337659876156395160
13214271 11 17676487267728913303
13221675 6 18412544314505095086
13581323 91 15195561308078560333
14115302 16 17632577192604778814
14144814 61 18060136535535300843
14911166 2 18410017645991423078
14943859 89 18335139812796275498
14993402 34 18131628984933697687
15309172 13 18343867705980257091
15775835 57 18410855486167114614
16945 1 18336252505541435394
17844478 74 17967818232121479653
18175812 5 17676490574769367503
18186145 218 18343295998820504448
19422 9 17988926716407043663
200 152 18342168964746792621
20201158 50 18187082840906079130
20279233 1 17603304847510240059
20645477 70 18262227807676376679
21119208 17 18201719561359708750
22802520 49 17751629962424075172
23402539 116 16660360411301734162
23402655 69 18336819810449517205
23557571 272 15647048244380017374
23559900 14 16660642930393270130
25 1 18333448729479294618
528886 8 18411132558876206362
74978 22 17560793394105087041
77492 1 17846781805928771041

>  <PUBCHEM_SHAPE_MULTIPOLES>  (1) 
272.38
7.39
1.28
1.04
1.91
0.01
0.03
0.04
0.51
0.39
0.17
-0.74
-0.01
-0.06

>  <PUBCHEM_SHAPE_SELFOVERLAP>  (1) 
557.543

>  <PUBCHEM_SHAPE_VOLUME>  (1) 
158.8

>  <PUBCHEM_COORDINATE_TYPE>  (1) 
2
5
10

$$$$
