27975
     RDKit          3D

 17 18  0  0  1  0  0  0  0  0999 V2000
    0.5921   -1.1227    0.4787 O   0  0  0  0  0  0  0  0  0  0  0  0
    3.6018    0.0242    0.7557 O   0  0  0  0  0  0  0  0  0  0  0  0
   -1.8167    0.3503    0.9593 O   0  0  0  0  0  0  0  0  0  0  0  0
   -2.4794   -0.0763   -1.2281 O   0  0  0  0  0  0  0  0  0  0  0  0
   -3.8010   -0.7388    0.5599 N   0  0  0  0  0  0  0  0  0  0  0  0
    1.8661   -1.4856   -0.1365 C   0  0  0  0  0  0  0  0  0  0  0  0
    2.6994   -0.1876   -0.3191 C   0  0  0  0  0  0  0  0  0  0  0  0
    1.6135    0.8190   -0.2355 C   0  0  0  0  0  0  0  0  0  0  0  0
    0.4604    0.2225    0.2494 C   0  0  0  0  0  0  0  0  0  0  0  0
    2.5319   -2.5172    0.7773 C   0  0  0  0  0  0  0  0  0  0  0  0
    1.5452   -2.1326   -1.4944 C   0  0  0  0  0  0  0  0  0  0  0  0
    1.6449    2.1733   -0.5177 C   0  0  0  0  0  0  0  0  0  0  0  0
   -0.6956    0.9431    0.4788 C   0  0  0  0  0  0  0  0  0  0  0  0
    0.4838    2.9206   -0.3042 C   0  0  0  0  0  0  0  0  0  0  0  0
   -0.6789    2.3092    0.1928 C   0  0  0  0  0  0  0  0  0  0  0  0
   -2.6937   -0.1567   -0.0221 C   0  0  0  0  0  0  0  0  0  0  0  0
   -4.8737   -1.3447   -0.1941 C   0  0  0  0  0  0  0  0  0  0  0  0
  1  6  1  0
  1  9  1  0
  2  7  1  0
  3 13  1  0
  3 16  1  0
  4 16  2  0
  5 16  1  0
  5 17  1  0
  6  7  1  0
  6 10  1  0
  6 11  1  0
  7  8  1  0
  8  9  2  0
  8 12  1  0
  9 13  1  0
 12 14  2  0
 13 15  2  0
 14 15  1  0
M  END
>  <PUBCHEM_COMPOUND_CID>  (1) 
27975

>  <PUBCHEM_CONFORMER_RMSD>  (1) 
0.6

>  <PUBCHEM_CONFORMER_DIVERSEORDER>  (1) 
1
36
11
24
42
32
28
41
35
31
18
23
34
26
16
39
20
12
21
40
30
6
27
8
4
38
37
5
17
7
19
10
33
3
13
29
22
2
25
9
14
15

>  <PUBCHEM_MMFF94_PARTIAL_CHARGES>  (1) 
20
1 -0.36
12 -0.15
13 0.08
14 -0.15
15 -0.15
16 0.78
17 0.3
2 -0.68
25 0.15
26 0.4
27 0.15
28 0.15
29 0.37
3 -0.23
4 -0.57
5 -0.73
6 0.28
7 0.42
8 -0.14
9 0.08

>  <PUBCHEM_EFFECTIVE_ROTOR_COUNT>  (1) 
3.6

>  <PUBCHEM_PHARMACOPHORE_FEATURES>  (1) 
8
1 1 acceptor
1 2 acceptor
1 2 donor
1 4 acceptor
1 5 donor
3 6 10 11 hydrophobe
5 1 6 7 8 9 rings
6 8 9 12 13 14 15 rings

>  <PUBCHEM_HEAVY_ATOM_COUNT>  (1) 
17

>  <PUBCHEM_ATOM_DEF_STEREO_COUNT>  (1) 
0

>  <PUBCHEM_ATOM_UDEF_STEREO_COUNT>  (1) 
1

>  <PUBCHEM_BOND_DEF_STEREO_COUNT>  (1) 
0

>  <PUBCHEM_BOND_UDEF_STEREO_COUNT>  (1) 
0

>  <PUBCHEM_ISOTOPIC_ATOM_COUNT>  (1) 
0

>  <PUBCHEM_COMPONENT_COUNT>  (1) 
1

>  <PUBCHEM_CACTVS_TAUTO_COUNT>  (1) 
2

>  <PUBCHEM_CONFORMER_ID>  (1) 
00006D4700000001

>  <PUBCHEM_MMFF94_ENERGY>  (1) 
51.9553

>  <PUBCHEM_FEATURE_SELFOVERLAP>  (1) 
40.696

>  <PUBCHEM_SHAPE_FINGERPRINT>  (1) 
1 1 18120375620699249293
10967382 1 18337676428876016416
11471102 20 18336827619011277909
116883 192 18196655086401530581
12553582 1 18265066734067489787
13083527 12 18262502728980750298
13140716 1 18123465244320601080
14178342 30 18197496234039409904
14251717 144 18338518659273051851
14252887 29 18201729448216545259
15477762 27 18410012165054139979
15757776 16 18410012143378882378
16945 1 18335428962932356640
20559304 39 18271531982634320377
20645477 70 18339643460016621407
20871998 22 18341338790354586055
21452121 199 18335409136972844042
21501502 16 18048319942812418488
221490 88 18118411871794912571
2255824 54 18196941191163069069
23184049 29 18048034069404380250
2334 1 17834401498479367160
23388829 49 18413103961729145824
23402539 116 18337384946725934258
23419403 2 17680110137242101004
23557571 272 17911230621016038306
23559900 14 17905596715119946090
23728640 28 16749019200468422763
257057 1 18191019010950256992
2748010 2 18122628253994825372
3060560 45 18121223335505849533
33824 294 18265615575079178179
6338986 31 18264201413820360075
7364860 26 18270121352102389713
81228 2 17907017274841026009
8272917 22 18268722756764634863

>  <PUBCHEM_SHAPE_MULTIPOLES>  (1) 
321.39
6
2.93
0.99
7.5
0.92
0.19
-3.95
-0.24
-1.47
0.3
-0.15
-0.35
-0.26

>  <PUBCHEM_SHAPE_SELFOVERLAP>  (1) 
685.331

>  <PUBCHEM_SHAPE_VOLUME>  (1) 
178.9

>  <PUBCHEM_COORDINATE_TYPE>  (1) 
2
5
10

$$$$
