2798
     RDKit          3D

 23 23  0  0  0  0  0  0  0  0999 V2000
    8.6902   -1.2004    0.6431 Cl  0  0  0  0  0  0  0  0  0  0  0  0
   -1.5190    1.6814    0.1238 N   0  0  0  0  0  0  0  0  0  0  0  0
   -2.2092    0.4113    0.4473 C   0  0  0  0  0  0  0  0  0  0  0  0
   -0.0342    1.6122    0.5108 C   0  0  0  0  0  0  0  0  0  0  0  0
   -1.6041    1.9838   -1.3796 C   0  0  0  0  0  0  0  0  0  0  0  0
   -2.1528    2.8574    0.8815 C   0  0  0  0  0  0  0  0  0  0  0  0
   -3.6820    0.4846    0.0617 C   0  0  0  0  0  0  0  0  0  0  0  0
    0.6387    0.5072   -0.2910 C   0  0  0  0  0  0  0  0  0  0  0  0
   -4.5004   -0.7896    0.2983 C   0  0  0  0  0  0  0  0  0  0  0  0
   -0.8531    3.2640   -1.6736 C   0  0  0  0  0  0  0  0  0  0  0  0
   -2.0835    2.5875    2.3686 C   0  0  0  0  0  0  0  0  0  0  0  0
    2.1348    0.4326    0.0290 C   0  0  0  0  0  0  0  0  0  0  0  0
   -5.9528   -0.6763   -0.1693 C   0  0  0  0  0  0  0  0  0  0  0  0
    2.8683   -0.6447   -0.7779 C   0  0  0  0  0  0  0  0  0  0  0  0
   -6.7194   -1.9763    0.0849 C   0  0  0  0  0  0  0  0  0  0  0  0
    4.3270   -0.7847   -0.4225 C   0  0  0  0  0  0  0  0  0  0  0  0
   -8.1620   -1.8776   -0.4109 C   0  0  0  0  0  0  0  0  0  0  0  0
   -8.9170   -3.1788   -0.1908 C   0  0  0  0  0  0  0  0  0  0  0  0
    5.2849   -0.0269   -1.0963 C   0  0  0  0  0  0  0  0  0  0  0  0
    4.7184   -1.6709    0.5811 C   0  0  0  0  0  0  0  0  0  0  0  0
    6.6341   -0.1552   -0.7663 C   0  0  0  0  0  0  0  0  0  0  0  0
    6.0676   -1.7993    0.9110 C   0  0  0  0  0  0  0  0  0  0  0  0
    7.0254   -1.0414    0.2372 C   0  0  0  0  0  0  0  0  0  0  0  0
  1 23  1  0
  2  3  1  0
  2  4  1  0
  2  5  1  0
  2  6  1  0
  3  7  1  0
  4  8  1  0
  5 10  1  0
  6 11  1  0
  7  9  1  0
  8 12  1  0
  9 13  1  0
 12 14  1  0
 13 15  1  0
 14 16  1  0
 15 17  1  0
 16 19  2  0
 16 20  1  0
 17 18  1  0
 19 21  1  0
 20 22  2  0
 21 23  2  0
 22 23  1  0
M  CHG  1   2   1
M  END
>  <PUBCHEM_COMPOUND_CID>  (1) 
2798

>  <PUBCHEM_CONFORMER_RMSD>  (1) 
1.2

>  <PUBCHEM_CONFORMER_DIVERSEORDER>  (1) 
3
56
88
4
6
48
45
84
42
1
52
50
47
102
36
89
24
59
15
98
81
46
28
99
25
75
95
71
13
32
18
33
73
103
2
14
101
49
80
60
30
83
85
94
16
20
74
93
39
23
87
65
92
72
64
31
26
91
12
22
37
76
78
79
90
69
41
51
62
35
10
70
53
66
5
8
29
63
86
105
77
9
54
17
40
38
97
19
44
57
58
7
96
55
68
67
11
82
43
34
104
100
21
27
61

>  <PUBCHEM_MMFF94_PARTIAL_CHARGES>  (1) 
17
1 -0.18
14 0.14
16 -0.14
19 -0.15
2 -1.01
20 -0.15
21 -0.15
22 -0.15
23 0.18
3 0.5
4 0.5
5 0.5
57 0.15
58 0.15
59 0.15
6 0.5
60 0.15

>  <PUBCHEM_EFFECTIVE_ROTOR_COUNT>  (1) 
13

>  <PUBCHEM_PHARMACOPHORE_FEATURES>  (1) 
4
1 18 hydrophobe
1 2 cation
5 7 9 13 15 17 hydrophobe
6 16 19 20 21 22 23 rings

>  <PUBCHEM_HEAVY_ATOM_COUNT>  (1) 
23

>  <PUBCHEM_ATOM_DEF_STEREO_COUNT>  (1) 
0

>  <PUBCHEM_ATOM_UDEF_STEREO_COUNT>  (1) 
0

>  <PUBCHEM_BOND_DEF_STEREO_COUNT>  (1) 
0

>  <PUBCHEM_BOND_UDEF_STEREO_COUNT>  (1) 
0

>  <PUBCHEM_ISOTOPIC_ATOM_COUNT>  (1) 
0

>  <PUBCHEM_COMPONENT_COUNT>  (1) 
1

>  <PUBCHEM_CACTVS_TAUTO_COUNT>  (1) 
1

>  <PUBCHEM_CONFORMER_ID>  (1) 
00000AEE00000003

>  <PUBCHEM_MMFF94_ENERGY>  (1) 
57.1836

>  <PUBCHEM_FEATURE_SELFOVERLAP>  (1) 
20.297

>  <PUBCHEM_SHAPE_FINGERPRINT>  (1) 
10 15 12031792478978986671
106641 1 17988639714651669354
10753850 27 18408884057903417859
11297750 10 18341321276180567161
13073987 5 17845654721391825646
13631057 29 18409728435003314955
13673619 4 18131630097367391441
14068700 675 18412830200751140817
14150022 121 16917077620613292473
15183329 4 15213013843271961343
15461852 350 18114185186442417878
15690457 1 18334855022221409034
20771845 65 18340490075375449185
21095123 293 11959732689696410522
21130935 74 18198623225754487098
21315759 148 17346044347001438220
21360443 89 18411412926047214922
21585482 111 9870932159805538267
22224240 67 13614243681407331357
23389318 12 18187090576775227734
23524908 199 12685356445382884042
23569917 315 18339928100754520742
2838139 119 10809346676266952707
474113 269 15213563574334028202
5219985 9 18411421730851114081
59682541 35 17846774127118440346
59682541 52 14201382868457886834
5969126 39 17968096387231331189
77188 2 18271809077341320065

>  <PUBCHEM_SHAPE_MULTIPOLES>  (1) 
470.22
25.74
3.39
1.33
3.7
1.46
-0.26
-31.94
-0.18
6.43
-0.16
-0.07
1.17
-1.73

>  <PUBCHEM_SHAPE_SELFOVERLAP>  (1) 
902.937

>  <PUBCHEM_SHAPE_VOLUME>  (1) 
290

>  <PUBCHEM_COORDINATE_TYPE>  (1) 
2
5
10

$$$$
