27981
     RDKit          3D

 12 12  0  0  0  0  0  0  0  0999 V2000
    2.9840    0.0123   -1.0846 S   0  0  0  0  0  0  0  0  0  0  0  0
   -3.4028   -1.2107    0.3835 O   0  0  0  0  0  0  0  0  0  0  0  0
   -3.5703    1.0544    0.4719 O   0  0  0  0  0  0  0  0  0  0  0  0
    3.9630   -0.0479    1.5946 N   0  0  0  0  0  0  0  0  0  0  0  0
   -1.4671    0.0361   -0.0419 C   0  0  0  0  0  0  0  0  0  0  0  0
   -0.7763    1.2401   -0.1782 C   0  0  0  0  0  0  0  0  0  0  0  0
   -0.8001   -1.1754   -0.2238 C   0  0  0  0  0  0  0  0  0  0  0  0
    1.2490    0.0211   -0.6784 C   0  0  0  0  0  0  0  0  0  0  0  0
    0.5818    1.2326   -0.4965 C   0  0  0  0  0  0  0  0  0  0  0  0
    0.5580   -1.1830   -0.5420 C   0  0  0  0  0  0  0  0  0  0  0  0
   -2.8831    0.0440    0.2897 C   0  0  0  0  0  0  0  0  0  0  0  0
    3.5639   -0.0234    0.5056 C   0  0  0  0  0  0  0  0  0  0  0  0
  1  8  1  0
  1 12  1  0
  2 11  1  0
  3 11  2  0
  4 12  3  0
  5  6  2  0
  5  7  1  0
  5 11  1  0
  6  9  1  0
  7 10  2  0
  8  9  2  0
  8 10  1  0
M  END
>  <PUBCHEM_COMPOUND_CID>  (1) 
27981

>  <PUBCHEM_CONFORMER_RMSD>  (1) 
0.6

>  <PUBCHEM_CONFORMER_DIVERSEORDER>  (1) 
1
4
3
2

>  <PUBCHEM_MMFF94_PARTIAL_CHARGES>  (1) 
17
1 -0.14
10 -0.15
11 0.63
12 0.59
13 0.15
14 0.15
15 0.15
16 0.15
17 0.5
2 -0.65
3 -0.57
4 -0.56
5 0.09
6 -0.15
7 -0.15
8 0.1
9 -0.15

>  <PUBCHEM_EFFECTIVE_ROTOR_COUNT>  (1) 
2

>  <PUBCHEM_PHARMACOPHORE_FEATURES>  (1) 
5
1 2 acceptor
1 3 acceptor
1 4 acceptor
3 2 3 11 anion
6 5 6 7 8 9 10 rings

>  <PUBCHEM_HEAVY_ATOM_COUNT>  (1) 
12

>  <PUBCHEM_ATOM_DEF_STEREO_COUNT>  (1) 
0

>  <PUBCHEM_ATOM_UDEF_STEREO_COUNT>  (1) 
0

>  <PUBCHEM_BOND_DEF_STEREO_COUNT>  (1) 
0

>  <PUBCHEM_BOND_UDEF_STEREO_COUNT>  (1) 
0

>  <PUBCHEM_ISOTOPIC_ATOM_COUNT>  (1) 
0

>  <PUBCHEM_COMPONENT_COUNT>  (1) 
1

>  <PUBCHEM_CACTVS_TAUTO_COUNT>  (1) 
1

>  <PUBCHEM_CONFORMER_ID>  (1) 
00006D4D00000001

>  <PUBCHEM_MMFF94_ENERGY>  (1) 
28.4937

>  <PUBCHEM_FEATURE_SELFOVERLAP>  (1) 
25.429

>  <PUBCHEM_SHAPE_FINGERPRINT>  (1) 
10130415 120 18040720281212307028
10857977 72 18412831286839380700
11132069 177 18341615897354792477
11769659 78 16660362618746041530
12032990 46 18340504316758379023
12119455 92 16988837251110326204
12251169 10 18341323483534313272
124424 183 17603862299989872965
12932764 1 17313388954297797804
14325111 11 18339091453027810773
16945 1 18410580577968481349
17846911 113 18271803501750134448
18186145 218 15698009530496183356
19026448 4 16773804683670679927
19026448 5 16877670071058114477
20645464 45 17846775213380831318
20645477 70 15285632214104954210
21501925 9 18410574032607204991
23380061 330 18341897415402605991
23402655 69 18268987589039025261
23463225 33 18187087247658497886
23532345 42 18341334469849523436
23559900 14 18271819977861828486
2748010 2 18050014293987718869
4072396 5 18261664875223960785
53812653 166 18273215270274435817
90316 7 18114176402390830572

>  <PUBCHEM_SHAPE_MULTIPOLES>  (1) 
234.08
6.43
1.28
1.04
0.88
0
-0.18
0.07
-2.35
-0.66
0.11
1.15
0.01
-0.04

>  <PUBCHEM_SHAPE_SELFOVERLAP>  (1) 
476.749

>  <PUBCHEM_SHAPE_VOLUME>  (1) 
135

>  <PUBCHEM_COORDINATE_TYPE>  (1) 
2
5
10

$$$$
