28003
     RDKit          3D

 15 14  0  0  0  0  0  0  0  0999 V2000
    1.4479    0.7274   -0.2752 O   0  0  0  0  0  0  0  0  0  0  0  0
    1.9369   -1.5215   -0.3203 O   0  0  0  0  0  0  0  0  0  0  0  0
   -2.0524   -0.0218    0.6140 N   0  0  0  0  0  0  0  0  0  0  0  0
   -2.2789   -1.2500   -0.1688 C   0  0  0  0  0  0  0  0  0  0  0  0
   -2.7646    1.0982   -0.0269 C   0  0  0  0  0  0  0  0  0  0  0  0
   -0.6385    0.2585    0.8143 C   0  0  0  0  0  0  0  0  0  0  0  0
   -3.7746   -1.4949   -0.3480 C   0  0  0  0  0  0  0  0  0  0  0  0
   -1.6106   -2.4290    0.5312 C   0  0  0  0  0  0  0  0  0  0  0  0
   -2.1581    1.3972   -1.3951 C   0  0  0  0  0  0  0  0  0  0  0  0
   -2.7036    2.3238    0.8792 C   0  0  0  0  0  0  0  0  0  0  0  0
    0.0676    0.4372   -0.5202 C   0  0  0  0  0  0  0  0  0  0  0  0
    2.2733   -0.3520   -0.1989 C   0  0  0  0  0  0  0  0  0  0  0  0
    3.6678    0.1036    0.0590 C   0  0  0  0  0  0  0  0  0  0  0  0
    3.9738    1.5640    0.1917 C   0  0  0  0  0  0  0  0  0  0  0  0
    4.6141   -0.8408    0.1642 C   0  0  0  0  0  0  0  0  0  0  0  0
  1 11  1  0
  1 12  1  0
  2 12  2  0
  3  4  1  0
  3  5  1  0
  3  6  1  0
  4  7  1  0
  4  8  1  0
  5  9  1  0
  5 10  1  0
  6 11  1  0
 12 13  1  0
 13 14  1  0
 13 15  2  0
M  END
>  <PUBCHEM_COMPOUND_CID>  (1) 
28003

>  <PUBCHEM_CONFORMER_RMSD>  (1) 
0.8

>  <PUBCHEM_CONFORMER_DIVERSEORDER>  (1) 
2
14
9
17
10
13
12
15
16
8
18
7
3
11
1
6
5
4

>  <PUBCHEM_MMFF94_PARTIAL_CHARGES>  (1) 
13
1 -0.43
11 0.28
12 0.71
13 -0.12
14 0.14
15 -0.3
2 -0.57
3 -0.81
37 0.15
38 0.15
4 0.27
5 0.27
6 0.27

>  <PUBCHEM_EFFECTIVE_ROTOR_COUNT>  (1) 
7

>  <PUBCHEM_PHARMACOPHORE_FEATURES>  (1) 
4
1 2 acceptor
1 3 cation
3 4 7 8 hydrophobe
3 5 9 10 hydrophobe

>  <PUBCHEM_HEAVY_ATOM_COUNT>  (1) 
15

>  <PUBCHEM_ATOM_DEF_STEREO_COUNT>  (1) 
0

>  <PUBCHEM_ATOM_UDEF_STEREO_COUNT>  (1) 
0

>  <PUBCHEM_BOND_DEF_STEREO_COUNT>  (1) 
0

>  <PUBCHEM_BOND_UDEF_STEREO_COUNT>  (1) 
0

>  <PUBCHEM_ISOTOPIC_ATOM_COUNT>  (1) 
0

>  <PUBCHEM_COMPONENT_COUNT>  (1) 
1

>  <PUBCHEM_CACTVS_TAUTO_COUNT>  (1) 
1

>  <PUBCHEM_CONFORMER_ID>  (1) 
00006D6300000002

>  <PUBCHEM_MMFF94_ENERGY>  (1) 
54.419

>  <PUBCHEM_FEATURE_SELFOVERLAP>  (1) 
20.297

>  <PUBCHEM_SHAPE_FINGERPRINT>  (1) 
10014705 185 18186234013555763325
10608611 8 18412824690165480216
12173636 292 18341614759436788157
12500047 106 18339638941151720272
12932764 1 17822290141787047960
13024252 1 14562531778259797237
13296908 3 18272937111418536206
14123255 52 18050851018422050409
18186145 218 18336828598364022172
1986462 14 18409731746628711380
200 152 18201147845462471559
20281475 54 18335139752956851246
20510252 161 18342742918501281257
20645477 56 18336551508248493789
21501502 16 18335710480531978564
22959321 105 18413389851916224160
23402539 116 18412819201497664271
23557571 272 18343312482562290220
23559900 14 18128815249248709074
4214541 1 18410292497701386208
5104073 3 18411418410646053976
573450 72 18336255761211217674
58051976 100 18334860493508226942
6333449 129 18335699416643145165
69090 78 18334856078577044349
9709674 26 18341619208885984214

>  <PUBCHEM_SHAPE_MULTIPOLES>  (1) 
291.97
8.01
2.28
0.92
7.89
0.17
0.09
0.1
-0.12
-1.83
-0.29
-0.54
-0.28
-0.04

>  <PUBCHEM_SHAPE_SELFOVERLAP>  (1) 
559.149

>  <PUBCHEM_SHAPE_VOLUME>  (1) 
181.4

>  <PUBCHEM_COORDINATE_TYPE>  (1) 
2
5
10

$$$$
