28002
     RDKit          3D

 15 16  0  0  0  0  0  0  0  0999 V2000
   -2.9473    0.3510   -0.0293 O   0  0  0  0  0  0  0  0  0  0  0  0
   -1.9563    2.9224    0.0055 O   0  0  0  0  0  0  0  0  0  0  0  0
   -1.4911   -2.3573    1.2058 O   0  0  0  0  0  0  0  0  0  0  0  0
   -1.5555   -2.5110   -1.0611 O   0  0  0  0  0  0  0  0  0  0  0  0
    0.6732   -0.3150   -0.0164 C   0  0  0  0  0  0  0  0  0  0  0  0
    1.1741    1.0084    0.0013 C   0  0  0  0  0  0  0  0  0  0  0  0
   -0.7155   -0.5239   -0.0268 C   0  0  0  0  0  0  0  0  0  0  0  0
    0.2712    2.0842    0.0084 C   0  0  0  0  0  0  0  0  0  0  0  0
   -1.5981    0.5566   -0.0193 C   0  0  0  0  0  0  0  0  0  0  0  0
   -1.1055    1.8581   -0.0018 C   0  0  0  0  0  0  0  0  0  0  0  0
    1.5759   -1.3909   -0.0239 C   0  0  0  0  0  0  0  0  0  0  0  0
    2.5629    1.2172    0.0116 C   0  0  0  0  0  0  0  0  0  0  0  0
    2.9527   -1.1651   -0.0133 C   0  0  0  0  0  0  0  0  0  0  0  0
    3.4451    0.1363    0.0046 C   0  0  0  0  0  0  0  0  0  0  0  0
   -1.2856   -1.8710   -0.0454 C   0  0  0  0  0  0  0  0  0  0  0  0
  1  9  1  0
  2 10  1  0
  3 15  1  0
  4 15  2  0
  5  6  1  0
  5  7  2  0
  5 11  1  0
  6  8  2  0
  6 12  1  0
  7  9  1  0
  7 15  1  0
  8 10  1  0
  9 10  2  0
 11 13  2  0
 12 14  2  0
 13 14  1  0
M  END
>  <PUBCHEM_COMPOUND_CID>  (1) 
28002

>  <PUBCHEM_CONFORMER_RMSD>  (1) 
0.4

>  <PUBCHEM_CONFORMER_DIVERSEORDER>  (1) 
1
3
2

>  <PUBCHEM_MMFF94_PARTIAL_CHARGES>  (1) 
21
1 -0.53
10 0.08
11 -0.15
12 -0.15
13 -0.15
14 -0.15
15 0.63
16 0.15
17 0.15
18 0.15
19 0.15
2 -0.53
20 0.15
21 0.45
22 0.45
23 0.5
3 -0.65
4 -0.57
7 0.09
8 -0.15
9 0.08

>  <PUBCHEM_EFFECTIVE_ROTOR_COUNT>  (1) 
1

>  <PUBCHEM_PHARMACOPHORE_FEATURES>  (1) 
7
1 1 donor
1 2 donor
1 3 acceptor
1 4 acceptor
3 3 4 15 anion
6 5 6 11 12 13 14 rings
6 5 6 7 8 9 10 rings

>  <PUBCHEM_HEAVY_ATOM_COUNT>  (1) 
15

>  <PUBCHEM_ATOM_DEF_STEREO_COUNT>  (1) 
0

>  <PUBCHEM_ATOM_UDEF_STEREO_COUNT>  (1) 
0

>  <PUBCHEM_BOND_DEF_STEREO_COUNT>  (1) 
0

>  <PUBCHEM_BOND_UDEF_STEREO_COUNT>  (1) 
0

>  <PUBCHEM_ISOTOPIC_ATOM_COUNT>  (1) 
0

>  <PUBCHEM_COMPONENT_COUNT>  (1) 
1

>  <PUBCHEM_CACTVS_TAUTO_COUNT>  (1) 
8

>  <PUBCHEM_CONFORMER_ID>  (1) 
00006D6200000001

>  <PUBCHEM_MMFF94_ENERGY>  (1) 
49.3339

>  <PUBCHEM_FEATURE_SELFOVERLAP>  (1) 
35.609

>  <PUBCHEM_SHAPE_FINGERPRINT>  (1) 
1 1 17688870839227108292
10967382 1 18266740190569363540
11578080 2 16698631259023118627
12382932 28 18340205288534945320
12423570 1 10914005257866329807
12524768 44 18341337716628781246
13140716 1 18194119839872953856
13380535 76 18340200770224159406
14790565 3 16821951499652614837
14817 1 15766166112971055579
16945 1 18411135840131103932
193761 8 18266740362336751156
20510252 161 18200592480136978136
20588541 1 18412267237421908176
20645476 183 17680737863728509974
20871998 184 18342745125766571415
21501502 16 18338515352100683230
21524375 3 18120933897801793637
2334 1 17834114521433551744
23388829 49 17765426934945418444
23402539 116 18270385123234137757
23419403 2 16608496559267319356
23552423 10 18189898802028088348
23559900 14 18127413351049942686
241688 4 18194962065689899552
2748010 2 17979348982265888340
54173680 148 18409169926267857362
81228 2 18336258028642869225
8809292 202 18335143094193702138

>  <PUBCHEM_SHAPE_MULTIPOLES>  (1) 
285.22
4.15
2.93
0.72
2.22
0.05
0.03
-0.02
-0.01
-1.83
-0.01
-0.16
-0.32
0.01

>  <PUBCHEM_SHAPE_SELFOVERLAP>  (1) 
633.526

>  <PUBCHEM_SHAPE_VOLUME>  (1) 
153.3

>  <PUBCHEM_COORDINATE_TYPE>  (1) 
2
5
10

$$$$
