28017
     RDKit          3D

 14 15  0  0  0  0  0  0  0  0999 V2000
    2.7878    0.9870    0.0026 C   0  0  0  0  0  0  0  0  0  0  0  0
    1.8982    0.3678   -1.0996 C   0  0  0  0  0  0  0  0  0  0  0  0
    0.7582   -0.4532   -0.5807 C   0  0  0  0  0  0  0  0  0  0  0  0
   -0.5004    0.1076   -0.3092 C   0  0  0  0  0  0  0  0  0  0  0  0
    1.9733    1.8332    0.9843 C   0  0  0  0  0  0  0  0  0  0  0  0
    3.5289   -0.1150    0.7641 C   0  0  0  0  0  0  0  0  0  0  0  0
   -1.5374   -0.7224    0.1790 C   0  0  0  0  0  0  0  0  0  0  0  0
    0.9914   -1.8131   -0.3734 C   0  0  0  0  0  0  0  0  0  0  0  0
   -0.7527    1.4742   -0.5122 C   0  0  0  0  0  0  0  0  0  0  0  0
   -1.2851   -2.0890    0.3816 C   0  0  0  0  0  0  0  0  0  0  0  0
   -0.0284   -2.6293    0.1069 C   0  0  0  0  0  0  0  0  0  0  0  0
   -2.7960   -0.1614    0.4504 C   0  0  0  0  0  0  0  0  0  0  0  0
   -2.0091    2.0148   -0.2372 C   0  0  0  0  0  0  0  0  0  0  0  0
   -3.0286    1.1986    0.2433 C   0  0  0  0  0  0  0  0  0  0  0  0
  1  2  1  0
  1  5  1  0
  1  6  1  0
  2  3  1  0
  3  4  2  0
  3  8  1  0
  4  7  1  0
  4  9  1  0
  7 10  2  0
  7 12  1  0
  8 11  2  0
  9 13  2  0
 10 11  1  0
 12 14  2  0
 13 14  1  0
M  END
>  <PUBCHEM_COMPOUND_CID>  (1) 
28017

>  <PUBCHEM_CONFORMER_RMSD>  (1) 
0.6

>  <PUBCHEM_CONFORMER_DIVERSEORDER>  (1) 
1
2

>  <PUBCHEM_MMFF94_PARTIAL_CHARGES>  (1) 
16
10 -0.15
11 -0.15
12 -0.15
13 -0.15
14 -0.15
2 0.14
24 0.15
25 0.15
26 0.15
27 0.15
28 0.15
29 0.15
3 -0.14
30 0.15
8 -0.15
9 -0.15

>  <PUBCHEM_EFFECTIVE_ROTOR_COUNT>  (1) 
2

>  <PUBCHEM_PHARMACOPHORE_FEATURES>  (1) 
3
3 1 5 6 hydrophobe
6 3 4 7 8 10 11 rings
6 4 7 9 12 13 14 rings

>  <PUBCHEM_HEAVY_ATOM_COUNT>  (1) 
14

>  <PUBCHEM_ATOM_DEF_STEREO_COUNT>  (1) 
0

>  <PUBCHEM_ATOM_UDEF_STEREO_COUNT>  (1) 
0

>  <PUBCHEM_BOND_DEF_STEREO_COUNT>  (1) 
0

>  <PUBCHEM_BOND_UDEF_STEREO_COUNT>  (1) 
0

>  <PUBCHEM_ISOTOPIC_ATOM_COUNT>  (1) 
0

>  <PUBCHEM_COMPONENT_COUNT>  (1) 
1

>  <PUBCHEM_CACTVS_TAUTO_COUNT>  (1) 
1

>  <PUBCHEM_CONFORMER_ID>  (1) 
00006D7100000001

>  <PUBCHEM_MMFF94_ENERGY>  (1) 
42.9396

>  <PUBCHEM_FEATURE_SELFOVERLAP>  (1) 
15.249

>  <PUBCHEM_SHAPE_FINGERPRINT>  (1) 
10967382 1 18265617589239524383
12251169 10 18334008419642157072
12382932 28 18337117842567143947
12423570 1 8160211749625984390
13140716 1 18121510312767695643
13380535 76 18410289181733588583
13538477 17 17897169228585118950
15076042 46 18262795297741980570
15775835 57 18408888455665047064
15852999 172 17823118052625845533
16945 1 18337401520862122927
17804303 29 18409732855094354886
20510252 161 18270126853802190480
20871998 184 18196098956518461111
21501502 16 18411415098709524046
21524375 3 18413105048134195831
22445834 79 17895181221552520178
2334 1 17689726671843397575
23388829 49 16614759549286910063
23402539 116 18270107058720306231
23419403 2 15889340758657022872
23463225 33 18259984860048212124
23526113 38 17772222802027241292
23559900 14 18271539628662311212
257057 1 17404009821959223807
27216 239 17197955772805597392
2748010 2 18190757344668703223
305870 269 18264202513395278330
3071541 236 18187642578377236051
5255222 1 17829337882350650341
53812653 166 18341054016727129385
5706482 22 18338785762909551035
58807428 26 18335136440914853723
7097593 13 18188751938865844384
7364860 26 18053101718375525983
81228 2 18050009084171685571

>  <PUBCHEM_SHAPE_MULTIPOLES>  (1) 
288.11
4.55
2.58
0.91
1.25
0.96
0.01
-1.87
-1.01
-0.55
-0.19
0.38
-0.14
0.39

>  <PUBCHEM_SHAPE_SELFOVERLAP>  (1) 
616.219

>  <PUBCHEM_SHAPE_VOLUME>  (1) 
153.1

>  <PUBCHEM_COORDINATE_TYPE>  (1) 
2
5
10

$$$$
