28022
     RDKit          3D

  9  8  0  0  1  0  0  0  0  0999 V2000
   -1.4569    0.2352   -0.0123 C   0  0  0  0  0  0  0  0  0  0  0  0
    0.0167    0.4326   -0.4706 C   0  0  0  0  0  0  0  0  0  0  0  0
    1.0832   -0.4321    0.2489 C   0  0  0  0  0  0  0  0  0  0  0  0
    2.5129   -0.0889   -0.2200 C   0  0  0  0  0  0  0  0  0  0  0  0
   -2.1113   -0.8085   -0.9409 C   0  0  0  0  0  0  0  0  0  0  0  0
   -1.5146   -0.3029    1.4287 C   0  0  0  0  0  0  0  0  0  0  0  0
   -2.2670    1.5369   -0.1022 C   0  0  0  0  0  0  0  0  0  0  0  0
    0.8258   -1.9233   -0.0095 C   0  0  0  0  0  0  0  0  0  0  0  0
    2.9113    1.3511    0.0779 C   0  0  0  0  0  0  0  0  0  0  0  0
  1  2  1  0
  1  5  1  0
  1  6  1  0
  1  7  1  0
  2  3  1  0
  3  4  1  0
  3  8  1  0
  4  9  1  0
M  END
>  <PUBCHEM_COMPOUND_CID>  (1) 
28022

>  <PUBCHEM_CONFORMER_RMSD>  (1) 
0.6

>  <PUBCHEM_CONFORMER_DIVERSEORDER>  (1) 
1
5
3
4
2

>  <PUBCHEM_MMFF94_PARTIAL_CHARGES>  (1) 
0

>  <PUBCHEM_EFFECTIVE_ROTOR_COUNT>  (1) 
3

>  <PUBCHEM_PHARMACOPHORE_FEATURES>  (1) 
4
1 8 hydrophobe
1 9 hydrophobe
4 1 2 3 4 hydrophobe
4 1 5 6 7 hydrophobe

>  <PUBCHEM_HEAVY_ATOM_COUNT>  (1) 
9

>  <PUBCHEM_ATOM_DEF_STEREO_COUNT>  (1) 
0

>  <PUBCHEM_ATOM_UDEF_STEREO_COUNT>  (1) 
1

>  <PUBCHEM_BOND_DEF_STEREO_COUNT>  (1) 
0

>  <PUBCHEM_BOND_UDEF_STEREO_COUNT>  (1) 
0

>  <PUBCHEM_ISOTOPIC_ATOM_COUNT>  (1) 
0

>  <PUBCHEM_COMPONENT_COUNT>  (1) 
1

>  <PUBCHEM_CACTVS_TAUTO_COUNT>  (1) 
1

>  <PUBCHEM_CONFORMER_ID>  (1) 
00006D7600000001

>  <PUBCHEM_MMFF94_ENERGY>  (1) 
25.6009

>  <PUBCHEM_FEATURE_SELFOVERLAP>  (1) 
20.536

>  <PUBCHEM_SHAPE_FINGERPRINT>  (1) 
10857977 72 17531822357898298944
12897270 3 18340758321171522759
12932764 1 18343311357322731684
14325111 11 18411417332524937236
14390081 3 18410854347842752748
15310529 11 18341609283358416119
15775835 57 18272654562468172116
20645464 45 17676491592444482281
20653085 51 18126853694397290857
21028194 46 18201437034305985960
21040471 1 18336549408257009622
21922407 69 18131351864895803579
23235685 24 17894916208726512261
23552423 10 18268703922642400295
24536 1 17603879870405701175
29004967 10 18114756948729726794
3248919 1 17676488362924507188
369184 2 15502372352560567765
5084963 1 18060416962587476880

>  <PUBCHEM_SHAPE_MULTIPOLES>  (1) 
185.22
4.02
1.62
0.98
1.64
0.17
-0.22
-1.46
0.21
0.18
0.07
-0.53
0.14
-0.04

>  <PUBCHEM_SHAPE_SELFOVERLAP>  (1) 
333.351

>  <PUBCHEM_SHAPE_VOLUME>  (1) 
123.4

>  <PUBCHEM_COORDINATE_TYPE>  (1) 
2
5
10

$$$$
