28029
     RDKit          3D

 10  9  0  0  1  0  0  0  0  0999 V2000
   -0.7677   -0.3172   -0.5308 C   0  0  0  0  0  0  0  0  0  0  0  0
    1.7541    0.1845    0.0997 C   0  0  0  0  0  0  0  0  0  0  0  0
    0.2421    0.4140    0.3929 C   0  0  0  0  0  0  0  0  0  0  0  0
   -2.2565    0.0113   -0.2072 C   0  0  0  0  0  0  0  0  0  0  0  0
   -0.5434   -1.8379   -0.4826 C   0  0  0  0  0  0  0  0  0  0  0  0
    2.5296    1.4203    0.6020 C   0  0  0  0  0  0  0  0  0  0  0  0
    2.0013    0.0476   -1.4138 C   0  0  0  0  0  0  0  0  0  0  0  0
    2.3071   -1.0549    0.8168 C   0  0  0  0  0  0  0  0  0  0  0  0
   -2.6808   -0.3483    1.2198 C   0  0  0  0  0  0  0  0  0  0  0  0
   -2.5858    1.4806   -0.4968 C   0  0  0  0  0  0  0  0  0  0  0  0
  1  3  1  0
  1  4  1  0
  1  5  1  0
  2  3  1  0
  2  6  1  0
  2  7  1  0
  2  8  1  0
  4  9  1  0
  4 10  1  0
M  END
>  <PUBCHEM_COMPOUND_CID>  (1) 
28029

>  <PUBCHEM_CONFORMER_RMSD>  (1) 
0.6

>  <PUBCHEM_CONFORMER_DIVERSEORDER>  (1) 
1
5
3
2
4

>  <PUBCHEM_MMFF94_PARTIAL_CHARGES>  (1) 
0

>  <PUBCHEM_EFFECTIVE_ROTOR_COUNT>  (1) 
3

>  <PUBCHEM_PHARMACOPHORE_FEATURES>  (1) 
4
1 5 hydrophobe
3 4 9 10 hydrophobe
4 1 2 3 4 hydrophobe
4 2 6 7 8 hydrophobe

>  <PUBCHEM_HEAVY_ATOM_COUNT>  (1) 
10

>  <PUBCHEM_ATOM_DEF_STEREO_COUNT>  (1) 
0

>  <PUBCHEM_ATOM_UDEF_STEREO_COUNT>  (1) 
1

>  <PUBCHEM_BOND_DEF_STEREO_COUNT>  (1) 
0

>  <PUBCHEM_BOND_UDEF_STEREO_COUNT>  (1) 
0

>  <PUBCHEM_ISOTOPIC_ATOM_COUNT>  (1) 
0

>  <PUBCHEM_COMPONENT_COUNT>  (1) 
1

>  <PUBCHEM_CACTVS_TAUTO_COUNT>  (1) 
1

>  <PUBCHEM_CONFORMER_ID>  (1) 
00006D7D00000001

>  <PUBCHEM_MMFF94_ENERGY>  (1) 
28.492

>  <PUBCHEM_FEATURE_SELFOVERLAP>  (1) 
20.587

>  <PUBCHEM_SHAPE_FINGERPRINT>  (1) 
10857977 72 17894918481112319553
12932764 1 18411141354647332063
14325111 11 18412256233921378701
14390081 3 18411131433500010981
15310529 11 18040442108859549670
15775835 57 18411979182613224961
16945 1 18041569164307832219
20645464 45 18131070471560180210
20653085 51 13973699350816228931
20715346 28 18334857216500758669
21028194 46 18261949631582299821
21040471 1 18411979169654587078
230 275 17704069556040630194
23235685 24 17489594488541541552
29004967 10 17240475923049453768
3248919 1 17240197755092026971
369184 2 18412255164448076803
5084963 1 17749389226287836597
8030462 33 18186799192644242175

>  <PUBCHEM_SHAPE_MULTIPOLES>  (1) 
205.8
4.49
1.53
1.16
0.68
0.13
-0.06
-1.1
0.68
0.01
-0.04
-0.14
0.07
0.25

>  <PUBCHEM_SHAPE_SELFOVERLAP>  (1) 
373.729

>  <PUBCHEM_SHAPE_VOLUME>  (1) 
135.3

>  <PUBCHEM_COORDINATE_TYPE>  (1) 
2
5
10

$$$$
