28024
     RDKit          3D

  9  8  0  0  0  0  0  0  0  0999 V2000
   -0.7761   -0.4922   -0.0035 C   0  0  0  0  0  0  0  0  0  0  0  0
    0.7127   -0.7957   -0.3531 C   0  0  0  0  0  0  0  0  0  0  0  0
    1.8392    0.0486    0.2880 C   0  0  0  0  0  0  0  0  0  0  0  0
   -1.1951    0.9683   -0.3143 C   0  0  0  0  0  0  0  0  0  0  0  0
   -1.0738   -0.7812    1.4834 C   0  0  0  0  0  0  0  0  0  0  0  0
   -1.6516   -1.4760   -0.8186 C   0  0  0  0  0  0  0  0  0  0  0  0
    1.5690    1.5337    0.0059 C   0  0  0  0  0  0  0  0  0  0  0  0
    3.2422   -0.3010   -0.2017 C   0  0  0  0  0  0  0  0  0  0  0  0
   -2.6666    1.2954   -0.0860 C   0  0  0  0  0  0  0  0  0  0  0  0
  1  2  1  0
  1  4  1  0
  1  5  1  0
  1  6  1  0
  2  3  1  0
  3  7  1  0
  3  8  1  0
  4  9  1  0
M  END
>  <PUBCHEM_COMPOUND_CID>  (1) 
28024

>  <PUBCHEM_CONFORMER_RMSD>  (1) 
0.6

>  <PUBCHEM_CONFORMER_DIVERSEORDER>  (1) 
2
1

>  <PUBCHEM_MMFF94_PARTIAL_CHARGES>  (1) 
0

>  <PUBCHEM_EFFECTIVE_ROTOR_COUNT>  (1) 
3

>  <PUBCHEM_PHARMACOPHORE_FEATURES>  (1) 
4
1 9 hydrophobe
3 1 5 6 hydrophobe
3 3 7 8 hydrophobe
4 1 2 3 4 hydrophobe

>  <PUBCHEM_HEAVY_ATOM_COUNT>  (1) 
9

>  <PUBCHEM_ATOM_DEF_STEREO_COUNT>  (1) 
0

>  <PUBCHEM_ATOM_UDEF_STEREO_COUNT>  (1) 
0

>  <PUBCHEM_BOND_DEF_STEREO_COUNT>  (1) 
0

>  <PUBCHEM_BOND_UDEF_STEREO_COUNT>  (1) 
0

>  <PUBCHEM_ISOTOPIC_ATOM_COUNT>  (1) 
0

>  <PUBCHEM_COMPONENT_COUNT>  (1) 
1

>  <PUBCHEM_CACTVS_TAUTO_COUNT>  (1) 
1

>  <PUBCHEM_CONFORMER_ID>  (1) 
00006D7800000002

>  <PUBCHEM_MMFF94_ENERGY>  (1) 
30.6513

>  <PUBCHEM_FEATURE_SELFOVERLAP>  (1) 
21.211

>  <PUBCHEM_SHAPE_FINGERPRINT>  (1) 
12423570 1 7905767192674174539
12897270 3 18197205052230751838
12932741 1 17386562621457738358
12932764 1 18271815665508888890
13024252 1 17603586348124904915
15775835 57 18116149982912956381
16945 1 18339067194973427493
19973954 147 18338514265284371636
20653085 51 18341897380874101329
21040471 1 18341045207796561141
23235685 24 18339637828613012612
23235687 12 17916318292934826950
23552423 10 18335696212766295454
24536 1 17604428642751141156
3248919 1 17676202520245618262
369184 2 17346317137021545578
5084963 1 17988081213651318218
528862 383 16807002122194385266

>  <PUBCHEM_SHAPE_MULTIPOLES>  (1) 
185.22
3.94
1.59
0.97
1.96
0.26
0.3
0.64
-0.32
-0.62
-0.17
-0.36
-0.3
0.04

>  <PUBCHEM_SHAPE_SELFOVERLAP>  (1) 
333.298

>  <PUBCHEM_SHAPE_VOLUME>  (1) 
123.4

>  <PUBCHEM_COORDINATE_TYPE>  (1) 
2
5
10

$$$$
