28035
     RDKit          3D

 21 25  0  0  0  0  0  0  0  0999 V2000
    0.3578   -0.3627   -0.0001 C   0  0  0  0  0  0  0  0  0  0  0  0
   -0.6195    0.6682   -0.0001 C   0  0  0  0  0  0  0  0  0  0  0  0
    1.7477   -0.0553   -0.0001 C   0  0  0  0  0  0  0  0  0  0  0  0
   -0.0398   -1.7172   -0.0001 C   0  0  0  0  0  0  0  0  0  0  0  0
   -2.0153    0.3211   -0.0001 C   0  0  0  0  0  0  0  0  0  0  0  0
    2.1777    1.2891    0.0000 C   0  0  0  0  0  0  0  0  0  0  0  0
   -0.1418    1.9988    0.0000 C   0  0  0  0  0  0  0  0  0  0  0  0
    2.7133   -1.0914    0.0001 C   0  0  0  0  0  0  0  0  0  0  0  0
   -2.3860   -1.0466   -0.0002 C   0  0  0  0  0  0  0  0  0  0  0  0
    1.2217    2.3042    0.0000 C   0  0  0  0  0  0  0  0  0  0  0  0
   -1.4000   -2.0385   -0.0003 C   0  0  0  0  0  0  0  0  0  0  0  0
    0.9284   -2.7305    0.0002 C   0  0  0  0  0  0  0  0  0  0  0  0
    2.2874   -2.4225    0.0001 C   0  0  0  0  0  0  0  0  0  0  0  0
    3.5496    1.5834    0.0001 C   0  0  0  0  0  0  0  0  0  0  0  0
    4.0785   -0.7699    0.0001 C   0  0  0  0  0  0  0  0  0  0  0  0
   -3.0726    1.2664    0.0002 C   0  0  0  0  0  0  0  0  0  0  0  0
   -0.9714    3.2448   -0.0002 C   0  0  0  0  0  0  0  0  0  0  0  0
   -3.7415   -1.4201   -0.0001 C   0  0  0  0  0  0  0  0  0  0  0  0
    4.4930    0.5595    0.0001 C   0  0  0  0  0  0  0  0  0  0  0  0
   -4.4162    0.8820    0.0004 C   0  0  0  0  0  0  0  0  0  0  0  0
   -4.7508   -0.4626    0.0002 C   0  0  0  0  0  0  0  0  0  0  0  0
  1  2  1  0
  1  3  2  0
  1  4  1  0
  2  5  1  0
  2  7  2  0
  3  6  1  0
  3  8  1  0
  4 11  2  0
  4 12  1  0
  5  9  2  0
  5 16  1  0
  6 10  2  0
  6 14  1  0
  7 10  1  0
  7 17  1  0
  8 13  1  0
  8 15  2  0
  9 11  1  0
  9 18  1  0
 12 13  2  0
 14 19  2  0
 15 19  1  0
 16 20  2  0
 18 21  2  0
 20 21  1  0
M  END
>  <PUBCHEM_COMPOUND_CID>  (1) 
28035

>  <PUBCHEM_CONFORMER_RMSD>  (1) 
0.6

>  <PUBCHEM_CONFORMER_DIVERSEORDER>  (1) 
1

>  <PUBCHEM_MMFF94_PARTIAL_CHARGES>  (1) 
24
10 -0.15
11 -0.15
12 -0.15
13 -0.15
14 -0.15
15 -0.15
16 -0.15
17 0.14
18 -0.15
19 -0.15
20 -0.15
21 -0.15
22 0.15
23 0.15
24 0.15
25 0.15
26 0.15
27 0.15
28 0.15
32 0.15
33 0.15
34 0.15
35 0.15
7 -0.14

>  <PUBCHEM_EFFECTIVE_ROTOR_COUNT>  (1) 
0

>  <PUBCHEM_PHARMACOPHORE_FEATURES>  (1) 
5
6 1 2 3 6 7 10 rings
6 1 2 4 5 9 11 rings
6 1 3 4 8 12 13 rings
6 3 6 8 14 15 19 rings
6 5 9 16 18 20 21 rings

>  <PUBCHEM_HEAVY_ATOM_COUNT>  (1) 
21

>  <PUBCHEM_ATOM_DEF_STEREO_COUNT>  (1) 
0

>  <PUBCHEM_ATOM_UDEF_STEREO_COUNT>  (1) 
0

>  <PUBCHEM_BOND_DEF_STEREO_COUNT>  (1) 
0

>  <PUBCHEM_BOND_UDEF_STEREO_COUNT>  (1) 
0

>  <PUBCHEM_ISOTOPIC_ATOM_COUNT>  (1) 
0

>  <PUBCHEM_COMPONENT_COUNT>  (1) 
1

>  <PUBCHEM_CACTVS_TAUTO_COUNT>  (1) 
1

>  <PUBCHEM_CONFORMER_ID>  (1) 
00006D8300000001

>  <PUBCHEM_MMFF94_ENERGY>  (1) 
91.3001

>  <PUBCHEM_FEATURE_SELFOVERLAP>  (1) 
25.526

>  <PUBCHEM_SHAPE_FINGERPRINT>  (1) 
10411042 1 17762338020062885455
10616163 171 18411702049764009029
10906281 52 18264225715220139392
10967382 1 18410574002389375078
1100329 8 18195245739647505090
11471102 20 18410852170209710383
11578080 2 16880464879371486422
12011746 2 18410857663530826510
12236239 1 17775287166798646915
12553582 1 18411128134716895965
12838862 33 18339059571454294024
12954195 1 18057344798788691340
13132413 78 18413108385487191829
13140716 1 18337946917553133568
13583140 156 14045169693912243679
138480 1 18122626059261677986
13862211 1 18410568491957234602
14178342 30 17548399862641367808
14223421 5 18267021648339746932
14790565 3 18265624362504099476
15196674 1 18410855473018364422
15442244 35 18194965127954186579
15536298 74 18343021086057962894
1601671 61 18411139134143971768
16945 1 18266741285870446022
19591789 44 18338799034405974783
200 152 18131629011051725967
20028762 73 17985547990580781567
20510252 161 18270962340984897048
20739085 24 18120965839859020937
20905425 154 18269275660225120078
21267235 1 18410865360043986606
21421861 104 17970907760858256938
221490 88 18263932214250733955
2334 1 18266741479154413408
23402539 116 18271518779746421814
23463225 33 18409448089539575823
23558518 356 18045791086963530808
23559900 14 18268706104839136354
23566358 2 18195808466521122780
238 59 17829843833914367501
2748010 2 18338799038637411214
2871803 45 18410292476057686364
335352 9 18338797801692137598
34934 24 18411694391842815871
350125 39 18410292480943633608
3680242 22 18262798454247726570
4409770 3 16023094106509168670
5104073 3 18410011035235032011
6138700 20 18410296866131934998
7364860 26 18413108333710382662
7832392 63 18341327915392196366
9709674 26 18410862061614910183
9981440 41 17041472289882118337

>  <PUBCHEM_SHAPE_MULTIPOLES>  (1) 
432.17
7.8
3.14
0.62
2.23
0.46
0
-0.08
0
-0.46
0
0
0
0

>  <PUBCHEM_SHAPE_SELFOVERLAP>  (1) 
1015.492

>  <PUBCHEM_SHAPE_VOLUME>  (1) 
197.9

>  <PUBCHEM_COORDINATE_TYPE>  (1) 
2
5
10

$$$$
