28042
     RDKit          3D

 22 26  0  0  0  0  0  0  0  0999 V2000
    1.2014    0.1231   -0.0003 C   0  0  0  0  0  0  0  0  0  0  0  0
   -0.1913   -0.1716   -0.0003 C   0  0  0  0  0  0  0  0  0  0  0  0
    2.1574   -0.9218   -0.0003 C   0  0  0  0  0  0  0  0  0  0  0  0
   -1.1591    0.8682   -0.0001 C   0  0  0  0  0  0  0  0  0  0  0  0
    1.6437    1.4635   -0.0002 C   0  0  0  0  0  0  0  0  0  0  0  0
   -0.6013   -1.5224   -0.0003 C   0  0  0  0  0  0  0  0  0  0  0  0
    3.5256   -0.6128   -0.0003 C   0  0  0  0  0  0  0  0  0  0  0  0
   -2.5580    0.5338   -0.0001 C   0  0  0  0  0  0  0  0  0  0  0  0
   -2.9412   -0.8304   -0.0002 C   0  0  0  0  0  0  0  0  0  0  0  0
    3.9522    0.7127   -0.0003 C   0  0  0  0  0  0  0  0  0  0  0  0
    1.7194   -2.2490   -0.0002 C   0  0  0  0  0  0  0  0  0  0  0  0
   -0.6693    2.1943    0.0000 C   0  0  0  0  0  0  0  0  0  0  0  0
    3.0182    1.7452   -0.0002 C   0  0  0  0  0  0  0  0  0  0  0  0
   -1.9643   -1.8313   -0.0003 C   0  0  0  0  0  0  0  0  0  0  0  0
    0.3576   -2.5445   -0.0001 C   0  0  0  0  0  0  0  0  0  0  0  0
    0.6969    2.4872   -0.0001 C   0  0  0  0  0  0  0  0  0  0  0  0
    4.5674   -1.6924    0.0015 C   0  0  0  0  0  0  0  0  0  0  0  0
   -3.6067    1.4887    0.0003 C   0  0  0  0  0  0  0  0  0  0  0  0
   -4.3001   -1.1915    0.0000 C   0  0  0  0  0  0  0  0  0  0  0  0
    5.4059    1.0589    0.0005 C   0  0  0  0  0  0  0  0  0  0  0  0
   -4.9537    1.1167    0.0006 C   0  0  0  0  0  0  0  0  0  0  0  0
   -5.3006   -0.2248    0.0004 C   0  0  0  0  0  0  0  0  0  0  0  0
  1  2  2  0
  1  3  1  0
  1  5  1  0
  2  4  1  0
  2  6  1  0
  3  7  2  0
  3 11  1  0
  4  8  1  0
  4 12  2  0
  5 13  1  0
  5 16  2  0
  6 14  2  0
  6 15  1  0
  7 10  1  0
  7 17  1  0
  8  9  2  0
  8 18  1  0
  9 14  1  0
  9 19  1  0
 10 13  2  0
 10 20  1  0
 11 15  2  0
 12 16  1  0
 18 21  2  0
 19 22  2  0
 21 22  1  0
M  END
>  <PUBCHEM_COMPOUND_CID>  (1) 
28042

>  <PUBCHEM_CONFORMER_RMSD>  (1) 
0.6

>  <PUBCHEM_CONFORMER_DIVERSEORDER>  (1) 
1

>  <PUBCHEM_MMFF94_PARTIAL_CHARGES>  (1) 
24
10 -0.14
11 -0.15
12 -0.15
13 -0.15
14 -0.15
15 -0.15
16 -0.15
17 0.14
18 -0.15
19 -0.15
20 0.14
21 -0.15
22 -0.15
23 0.15
24 0.15
25 0.15
26 0.15
27 0.15
28 0.15
32 0.15
33 0.15
37 0.15
38 0.15
7 -0.14

>  <PUBCHEM_EFFECTIVE_ROTOR_COUNT>  (1) 
0

>  <PUBCHEM_PHARMACOPHORE_FEATURES>  (1) 
5
6 1 2 3 6 11 15 rings
6 1 2 4 5 12 16 rings
6 1 3 5 7 10 13 rings
6 2 4 6 8 9 14 rings
6 8 9 18 19 21 22 rings

>  <PUBCHEM_HEAVY_ATOM_COUNT>  (1) 
22

>  <PUBCHEM_ATOM_DEF_STEREO_COUNT>  (1) 
0

>  <PUBCHEM_ATOM_UDEF_STEREO_COUNT>  (1) 
0

>  <PUBCHEM_BOND_DEF_STEREO_COUNT>  (1) 
0

>  <PUBCHEM_BOND_UDEF_STEREO_COUNT>  (1) 
0

>  <PUBCHEM_ISOTOPIC_ATOM_COUNT>  (1) 
0

>  <PUBCHEM_COMPONENT_COUNT>  (1) 
1

>  <PUBCHEM_CACTVS_TAUTO_COUNT>  (1) 
1

>  <PUBCHEM_CONFORMER_ID>  (1) 
00006D8A00000001

>  <PUBCHEM_MMFF94_ENERGY>  (1) 
85.735

>  <PUBCHEM_FEATURE_SELFOVERLAP>  (1) 
25.526

>  <PUBCHEM_SHAPE_FINGERPRINT>  (1) 
10411042 1 17690280413245576642
10616163 171 18339081604894887991
10906281 52 18337410295580587256
10967382 1 18410573980872334086
1100329 8 18267303316658837008
11112241 14 16627688526456817920
11471102 20 18410853261126005351
11578080 2 16807842140762586199
12011746 2 18410857667767777964
12107183 9 17691972561803345521
12236239 1 17918274238711755417
12788726 201 17917159312024998192
12838862 33 18339060670892101248
13140716 1 18410285943507530778
13402501 40 18409449184761517556
13862211 1 18410569557056441459
14178342 30 17764290040212474664
14790565 3 18410018770656364684
15081414 286 18341906176925048920
15196674 1 18410855451548828678
15230672 131 13579036846815206779
15536298 74 18342176665322396006
1601671 61 18411699885079464256
16945 1 18194682570677157830
1813 80 17240201036479028068
19591789 44 18410572877055196047
200 152 18131348618290683849
20028762 73 18201994426234993775
20905425 154 18124596379792791782
21267235 1 18411145714071143271
21279426 13 18338517413379160565
21421861 104 17897723158801374499
221490 88 18335990877703857091
23227448 37 18341893038926292823
2334 1 18338799043175030050
23402539 116 18343577477590866878
23559900 14 18342175558075336998
2748010 2 18338800125522684422
3004659 81 18261395521183153166
335352 9 18338798914083431494
34934 24 18411414012066928415
350125 39 18410293609755433748
3680242 22 18263079933635429554
4214541 1 18410855439128390789
474 4 18041000682230766444
495365 180 17274532239542885384
5104073 3 18410293601117598587
59755656 215 18411706461492267262
6138700 20 18337956688820496670
9709674 26 18411143549676885375
9981440 41 17183903008790395713

>  <PUBCHEM_SHAPE_MULTIPOLES>  (1) 
452.75
9.93
2.7
0.62
1.85
0.19
0
-0.84
0
-0.77
0
0
0
0

>  <PUBCHEM_SHAPE_SELFOVERLAP>  (1) 
1057.661

>  <PUBCHEM_SHAPE_VOLUME>  (1) 
210.3

>  <PUBCHEM_COORDINATE_TYPE>  (1) 
2
5
10

$$$$
