28052
     RDKit          3D

 19 19  0  0  0  0  0  0  0  0999 V2000
   -0.5633    2.3640   -0.2839 Cl  0  0  0  0  0  0  0  0  0  0  0  0
   -1.4993   -3.0116   -0.4990 Cl  0  0  0  0  0  0  0  0  0  0  0  0
    2.4027   -0.9282   -0.2266 O   0  0  0  0  0  0  0  0  0  0  0  0
   -5.2041    0.3793    0.1958 O   0  0  0  0  0  0  0  0  0  0  0  0
    1.0488   -0.7652    1.6092 O   0  0  0  0  0  0  0  0  0  0  0  0
    4.6311    0.8167   -0.3224 N   0  0  0  0  0  0  0  0  0  0  0  0
    0.2190   -0.5344   -0.5676 N   0  0  0  0  0  0  0  0  0  0  0  0
    4.7678   -0.6148   -0.0549 C   0  0  0  0  0  0  0  0  0  0  0  0
    3.5192   -1.1558    0.6233 C   0  0  0  0  0  0  0  0  0  0  0  0
    5.8255    1.3541   -1.0236 C   0  0  0  0  0  0  0  0  0  0  0  0
    4.3679    1.5445    0.9188 C   0  0  0  0  0  0  0  0  0  0  0  0
   -1.1617   -0.3018   -0.3733 C   0  0  0  0  0  0  0  0  0  0  0  0
   -1.6239    1.0001   -0.2315 C   0  0  0  0  0  0  0  0  0  0  0  0
   -2.0380   -1.3782   -0.3265 C   0  0  0  0  0  0  0  0  0  0  0  0
    1.1901   -0.7418    0.3926 C   0  0  0  0  0  0  0  0  0  0  0  0
   -3.8746    0.1554    0.0088 C   0  0  0  0  0  0  0  0  0  0  0  0
   -2.9864    1.2297   -0.0396 C   0  0  0  0  0  0  0  0  0  0  0  0
   -3.4004   -1.1486   -0.1345 C   0  0  0  0  0  0  0  0  0  0  0  0
   -5.6205    1.7369    0.3348 C   0  0  0  0  0  0  0  0  0  0  0  0
  1 13  1  0
  2 14  1  0
  3  9  1  0
  3 15  1  0
  4 16  1  0
  4 19  1  0
  5 15  2  0
  6  8  1  0
  6 10  1  0
  6 11  1  0
  7 12  1  0
  7 15  1  0
  8  9  1  0
 12 13  2  0
 12 14  1  0
 13 17  1  0
 14 18  2  0
 16 17  2  0
 16 18  1  0
M  END
>  <PUBCHEM_COMPOUND_CID>  (1) 
28052

>  <PUBCHEM_CONFORMER_RMSD>  (1) 
0.8

>  <PUBCHEM_CONFORMER_DIVERSEORDER>  (1) 
3
2
16
33
9
12
7
24
18
35
26
13
27
6
10
5
36
37
25
22
4
34
15
32
19
11
21
23
20
8
31
14
29
38
30
1
28
17

>  <PUBCHEM_MMFF94_PARTIAL_CHARGES>  (1) 
22
1 -0.18
10 0.27
11 0.27
12 0.12
13 0.18
14 0.18
15 0.78
16 0.08
17 -0.15
18 -0.15
19 0.28
2 -0.18
3 -0.43
30 0.37
31 0.15
32 0.15
4 -0.36
5 -0.57
6 -0.81
7 -0.55
8 0.27
9 0.28

>  <PUBCHEM_EFFECTIVE_ROTOR_COUNT>  (1) 
7

>  <PUBCHEM_PHARMACOPHORE_FEATURES>  (1) 
5
1 4 acceptor
1 5 acceptor
1 6 cation
1 7 donor
6 12 13 14 16 17 18 rings

>  <PUBCHEM_HEAVY_ATOM_COUNT>  (1) 
19

>  <PUBCHEM_ATOM_DEF_STEREO_COUNT>  (1) 
0

>  <PUBCHEM_ATOM_UDEF_STEREO_COUNT>  (1) 
0

>  <PUBCHEM_BOND_DEF_STEREO_COUNT>  (1) 
0

>  <PUBCHEM_BOND_UDEF_STEREO_COUNT>  (1) 
0

>  <PUBCHEM_ISOTOPIC_ATOM_COUNT>  (1) 
0

>  <PUBCHEM_COMPONENT_COUNT>  (1) 
1

>  <PUBCHEM_CACTVS_TAUTO_COUNT>  (1) 
2

>  <PUBCHEM_CONFORMER_ID>  (1) 
00006D9400000003

>  <PUBCHEM_MMFF94_ENERGY>  (1) 
75.0339

>  <PUBCHEM_FEATURE_SELFOVERLAP>  (1) 
25.371

>  <PUBCHEM_SHAPE_FINGERPRINT>  (1) 
10730089 173 18410298025709535204
10906281 52 18339938008926632365
12173636 292 18340195311241559702
12236239 1 18113338596036534343
12390115 104 17987248737542159481
12616971 3 17677037015285247586
12788726 201 17560527196395926144
12969540 114 18264187176562865597
13533116 47 17023179358690506122
13897977 58 18410294726388453853
14341114 328 18187081763117246576
14787075 74 17968096455649627024
14790565 3 18340772533540773113
15048467 5 18343584031684807489
15196674 1 18411417323460151469
15239154 128 18342173388689688712
19050596 39 18334847325766329490
19784866 170 18411985732755037823
200 152 9655571907550063627
20510252 161 18199466563313750329
20645477 56 18411983554816267759
20871999 31 18270955851347432407
21652331 79 18335419058727430428
22079108 93 17240489112704194043
23175994 123 16486975115365994603
23402539 116 18271798008829939023
23557571 272 18199759196715638446
23559900 14 18129659687027190158
293599 30 18412546492280231001
34797466 226 17346322660333891388
34934 24 18333729117692077219
3545911 37 18410576180502186292
4340502 62 16515692108974217401
474 4 17676773166864856284
5104073 3 18407754846086401298
59755656 520 17095242536355009546
960060 61 14189577464256886728

>  <PUBCHEM_SHAPE_MULTIPOLES>  (1) 
367.18
12.26
2.46
0.9
7.33
0.51
-0.14
-5.8
0.25
-1.01
0.25
0.69
-0.01
-0.7

>  <PUBCHEM_SHAPE_SELFOVERLAP>  (1) 
727.596

>  <PUBCHEM_SHAPE_VOLUME>  (1) 
221.6

>  <PUBCHEM_COORDINATE_TYPE>  (1) 
2
5
10

$$$$
