2805
     RDKit          3D

 23 25  0  0  1  0  0  0  0  0999 V2000
    6.5751   -2.0396   -0.5599 Cl  0  0  0  0  0  0  0  0  0  0  0  0
    0.0498   -0.9256    0.0985 O   0  0  0  0  0  0  0  0  0  0  0  0
   -3.6255   -1.1510    0.2681 N   0  0  0  0  0  0  0  0  0  0  0  0
   -4.5788   -2.1443   -0.2457 C   0  0  0  0  0  0  0  0  0  0  0  0
   -3.9699    0.2024   -0.1899 C   0  0  0  0  0  0  0  0  0  0  0  0
   -6.0049   -1.8263    0.2068 C   0  0  0  0  0  0  0  0  0  0  0  0
   -5.3760    0.5972    0.2642 C   0  0  0  0  0  0  0  0  0  0  0  0
   -6.4148   -0.4162   -0.2026 C   0  0  0  0  0  0  0  0  0  0  0  0
   -2.2617   -1.4951   -0.1334 C   0  0  0  0  0  0  0  0  0  0  0  0
   -1.2592   -0.5446    0.5012 C   0  0  0  0  0  0  0  0  0  0  0  0
    1.0374   -0.0723    0.6606 C   0  0  0  0  0  0  0  0  0  0  0  0
    2.4363   -0.5705    0.3532 C   0  0  0  0  0  0  0  0  0  0  0  0
    0.8088    1.3578    0.2174 C   0  0  0  0  0  0  0  0  0  0  0  0
    3.4554   -0.3099    1.2502 C   0  0  0  0  0  0  0  0  0  0  0  0
    2.6578   -1.2720   -0.8175 C   0  0  0  0  0  0  0  0  0  0  0  0
    1.1863    2.3921    1.0552 C   0  0  0  0  0  0  0  0  0  0  0  0
    0.2273    1.5972   -1.0149 C   0  0  0  0  0  0  0  0  0  0  0  0
    4.7424   -0.7671    0.9663 C   0  0  0  0  0  0  0  0  0  0  0  0
    3.9448   -1.7293   -1.1011 C   0  0  0  0  0  0  0  0  0  0  0  0
    0.9754    3.7093    0.6473 C   0  0  0  0  0  0  0  0  0  0  0  0
    0.0165    2.9144   -1.4229 C   0  0  0  0  0  0  0  0  0  0  0  0
    4.9870   -1.4768   -0.2093 C   0  0  0  0  0  0  0  0  0  0  0  0
    0.3905    3.9703   -0.5918 C   0  0  0  0  0  0  0  0  0  0  0  0
  1 22  1  0
  2 10  1  0
  2 11  1  0
  3  4  1  0
  3  5  1  0
  3  9  1  0
  4  6  1  0
  5  7  1  0
  6  8  1  0
  7  8  1  0
  9 10  1  0
 11 12  1  0
 11 13  1  0
 12 14  2  0
 12 15  1  0
 13 16  2  0
 13 17  1  0
 14 18  1  0
 15 19  2  0
 16 20  1  0
 17 21  2  0
 18 22  2  0
 19 22  1  0
 20 23  2  0
 21 23  1  0
M  END
>  <PUBCHEM_COMPOUND_CID>  (1) 
2805

>  <PUBCHEM_CONFORMER_RMSD>  (1) 
0.8

>  <PUBCHEM_CONFORMER_DIVERSEORDER>  (1) 
1
50
28
32
43
56
47
27
13
25
55
3
53
48
33
9
26
44
52
41
37
19
10
24
5
49
51
8
22
54
14
31
4
12
7
20
29
16
34
15
36
35
11
30
18
40
6
2
38
21
17
45
46
42
23
39

>  <PUBCHEM_MMFF94_PARTIAL_CHARGES>  (1) 
29
1 -0.18
10 0.28
11 0.57
12 -0.14
13 -0.14
14 -0.15
15 -0.15
16 -0.15
17 -0.15
18 -0.15
19 -0.15
2 -0.56
20 -0.15
21 -0.15
22 0.18
23 -0.15
3 -0.81
39 0.15
4 0.27
40 0.15
41 0.15
42 0.15
43 0.15
44 0.15
45 0.15
46 0.15
47 0.15
5 0.27
9 0.27

>  <PUBCHEM_EFFECTIVE_ROTOR_COUNT>  (1) 
7.2

>  <PUBCHEM_PHARMACOPHORE_FEATURES>  (1) 
5
1 2 acceptor
1 3 cation
6 12 14 15 18 19 22 rings
6 13 16 17 20 21 23 rings
6 3 4 5 6 7 8 rings

>  <PUBCHEM_HEAVY_ATOM_COUNT>  (1) 
23

>  <PUBCHEM_ATOM_DEF_STEREO_COUNT>  (1) 
0

>  <PUBCHEM_ATOM_UDEF_STEREO_COUNT>  (1) 
1

>  <PUBCHEM_BOND_DEF_STEREO_COUNT>  (1) 
0

>  <PUBCHEM_BOND_UDEF_STEREO_COUNT>  (1) 
0

>  <PUBCHEM_ISOTOPIC_ATOM_COUNT>  (1) 
0

>  <PUBCHEM_COMPONENT_COUNT>  (1) 
1

>  <PUBCHEM_CACTVS_TAUTO_COUNT>  (1) 
1

>  <PUBCHEM_CONFORMER_ID>  (1) 
00000AF500000001

>  <PUBCHEM_MMFF94_ENERGY>  (1) 
53.4623

>  <PUBCHEM_FEATURE_SELFOVERLAP>  (1) 
25.373

>  <PUBCHEM_SHAPE_FINGERPRINT>  (1) 
10366900 7 17167857583004172763
11405975 8 18337393867948177251
11421498 54 17096078083080974617
11475781 23 14116979933191031227
12166972 35 18272933856086488401
12516196 113 18410855460360601722
12549972 3 17678187203026389193
12617007 42 18334859450005169336
12788726 201 18043247951291915274
13009979 54 18272381879637800105
13590594 115 18335428941547769361
14170010 4 18341047523105726249
14251764 30 18410290276950418134
14341114 176 18338800117402332899
14347329 18 16082468009508110751
14347332 77 18119247264873271850
14955137 171 18341895207699770863
15081414 286 18336822108178444692
15131766 46 15839546428957421858
15420108 30 17695609037989093824
16087824 20 18193558853522043805
16994733 274 14779545664776906150
17357779 13 18340753858769372852
17492 89 18122625217828162503
17844677 252 18337394954659312035
17980427 23 17560532732862042929
18006028 8 18411982438525775294
1813 80 18410579482920684166
18222031 100 18411139134487090786
20238998 120 18342175557691079408
20286276 3 18048039863532079603
20554085 129 10665507495547839966
21033648 29 17560503033300321819
21267235 1 18408608080817473915
21285901 2 18199756855821520214
21304303 172 18201165342901240409
21641784 216 17604723148917078700
21709351 56 18411691115669246079
23557571 272 18267587914614608342
23558518 356 17832414667988973059
23559900 14 18338794645603539291
249057 3 18410854357440054631
283562 15 18262523559730755202
3004659 81 18114185229049588814
3103668 31 18117274749318315669
340366 18 18342455997596281823
3411729 13 18192424397628501584
3421961 26 18340484564240785696
437815 12 18412262818132604455
5104073 3 18266185114277589659
57262259 84 18267587905856030948
6442390 28 17333664777743759584
6443956 14 18411982494075403104
68521 5 18263081033363315004
70251023 43 18409170974841199738
7164475 11 17970907761549489130
7399639 24 18200860804814923530
7495541 125 18114465660201482011
77188 2 18413390943028380256
81228 2 18191600652954830560
8863177 126 17750811032974304987
9709674 26 18118966034572248411
9841814 1 18042670853341668112
9971528 1 18341890822485271355
9981440 41 17329423355857539905

>  <PUBCHEM_SHAPE_MULTIPOLES>  (1) 
464.35
13.85
3.85
1.09
9.31
5.08
0.06
-14.15
0.4
-1.09
0.67
-0.87
0.36
0.8

>  <PUBCHEM_SHAPE_SELFOVERLAP>  (1) 
971.022

>  <PUBCHEM_SHAPE_VOLUME>  (1) 
263.4

>  <PUBCHEM_COORDINATE_TYPE>  (1) 
2
5
10

$$$$
