28060
     RDKit          3D

 24 25  0  0  0  0  0  0  0  0999 V2000
   -1.4419   -1.7831   -1.4330 Cl  0  0  0  0  0  0  0  0  0  0  0  0
   -1.8616    3.3117    0.4873 Cl  0  0  0  0  0  0  0  0  0  0  0  0
    1.8458    0.6513   -0.3236 O   0  0  0  0  0  0  0  0  0  0  0  0
   -5.8864    0.2961   -0.1563 O   0  0  0  0  0  0  0  0  0  0  0  0
    0.4740   -0.7705    0.8283 O   0  0  0  0  0  0  0  0  0  0  0  0
    5.4333    0.0408    0.2629 N   0  0  0  0  0  0  0  0  0  0  0  0
   -0.3710    0.9064   -0.5698 N   0  0  0  0  0  0  0  0  0  0  0  0
    6.5793    0.9578    0.1871 C   0  0  0  0  0  0  0  0  0  0  0  0
    5.7200   -1.2257   -0.4254 C   0  0  0  0  0  0  0  0  0  0  0  0
    7.8272    0.3348    0.8150 C   0  0  0  0  0  0  0  0  0  0  0  0
    6.9397   -1.9200    0.1823 C   0  0  0  0  0  0  0  0  0  0  0  0
    8.1603   -1.0067    0.1722 C   0  0  0  0  0  0  0  0  0  0  0  0
    4.2376    0.6688   -0.2986 C   0  0  0  0  0  0  0  0  0  0  0  0
    2.9801   -0.0002    0.2333 C   0  0  0  0  0  0  0  0  0  0  0  0
    0.6159    0.1687    0.0548 C   0  0  0  0  0  0  0  0  0  0  0  0
   -1.7720    0.7512   -0.4644 C   0  0  0  0  0  0  0  0  0  0  0  0
   -4.5371    0.4452   -0.2572 C   0  0  0  0  0  0  0  0  0  0  0  0
   -2.3705   -0.4523   -0.8374 C   0  0  0  0  0  0  0  0  0  0  0  0
   -2.5562    1.8016    0.0122 C   0  0  0  0  0  0  0  0  0  0  0  0
   -6.3770   -1.0193    0.0975 C   0  0  0  0  0  0  0  0  0  0  0  0
   -7.6859   -0.9163    0.8654 C   0  0  0  0  0  0  0  0  0  0  0  0
   -3.7530   -0.6053   -0.7339 C   0  0  0  0  0  0  0  0  0  0  0  0
   -3.9387    1.6488    0.1157 C   0  0  0  0  0  0  0  0  0  0  0  0
   -8.2621   -2.2838    1.1855 C   0  0  0  0  0  0  0  0  0  0  0  0
  1 18  1  0
  2 19  1  0
  3 14  1  0
  3 15  1  0
  4 17  1  0
  4 20  1  0
  5 15  2  0
  6  8  1  0
  6  9  1  0
  6 13  1  0
  7 15  1  0
  7 16  1  0
  8 10  1  0
  9 11  1  0
 10 12  1  0
 11 12  1  0
 13 14  1  0
 16 18  2  0
 16 19  1  0
 17 22  2  0
 17 23  1  0
 18 22  1  0
 19 23  2  0
 20 21  1  0
 21 24  1  0
M  END
>  <PUBCHEM_COMPOUND_CID>  (1) 
28060

>  <PUBCHEM_CONFORMER_RMSD>  (1) 
1

>  <PUBCHEM_CONFORMER_DIVERSEORDER>  (1) 
1
42
52
59
11
51
30
26
48
18
55
16
12
9
40
19
23
49
36
58
44
64
56
24
31
17
65
63
35
25
38
28
10
14
20
15
61
13
6
2
3
67
66
43
45
21
46
41
50
47
8
57
34
53
33
22
54
39
7
27
62
29
32
37
4
5
60

>  <PUBCHEM_MMFF94_PARTIAL_CHARGES>  (1) 
22
1 -0.18
13 0.27
14 0.28
15 0.78
16 0.12
17 0.08
18 0.18
19 0.18
2 -0.18
20 0.28
22 -0.15
23 -0.15
3 -0.43
39 0.37
4 -0.36
44 0.15
45 0.15
5 -0.57
6 -0.81
7 -0.55
8 0.27
9 0.27

>  <PUBCHEM_EFFECTIVE_ROTOR_COUNT>  (1) 
10.2

>  <PUBCHEM_PHARMACOPHORE_FEATURES>  (1) 
7
1 24 hydrophobe
1 4 acceptor
1 5 acceptor
1 6 cation
1 7 donor
6 16 17 18 19 22 23 rings
6 6 8 9 10 11 12 rings

>  <PUBCHEM_HEAVY_ATOM_COUNT>  (1) 
24

>  <PUBCHEM_ATOM_DEF_STEREO_COUNT>  (1) 
0

>  <PUBCHEM_ATOM_UDEF_STEREO_COUNT>  (1) 
0

>  <PUBCHEM_BOND_DEF_STEREO_COUNT>  (1) 
0

>  <PUBCHEM_BOND_UDEF_STEREO_COUNT>  (1) 
0

>  <PUBCHEM_ISOTOPIC_ATOM_COUNT>  (1) 
0

>  <PUBCHEM_COMPONENT_COUNT>  (1) 
1

>  <PUBCHEM_CACTVS_TAUTO_COUNT>  (1) 
2

>  <PUBCHEM_CONFORMER_ID>  (1) 
00006D9C00000001

>  <PUBCHEM_MMFF94_ENERGY>  (1) 
57.0031

>  <PUBCHEM_FEATURE_SELFOVERLAP>  (1) 
35.52

>  <PUBCHEM_SHAPE_FINGERPRINT>  (1) 
10299344 5 18342737421180681366
11315181 36 18408603643198482653
11524674 6 16128649765084561710
12166972 35 17894633668783152812
12236239 1 18261111859203270020
13073987 5 18270115709095306080
13668630 136 17821727234419289766
14251764 18 18060699502658158878
14344974 52 10303809866517474115
14729087 3 11240002248262646003
14933364 13 18201434762653629192
15183329 4 18271519815593214662
15461852 350 11530488848366085769
155225 1 11743851249085308867
17844677 252 18272090479434915856
18335252 98 18412546522687841610
18608769 82 18412544336022694755
19611394 137 18335710498218113955
21130935 74 18265894662576760234
21150785 3 16226049990115610254
21267235 1 18408325497169189685
21315759 40 17458346317105087858
21792934 111 18343860035638613433
21792961 116 18334006174001879189
23536379 177 18272084964633123560
23559900 14 18059560439167346424
246663 6 18040436598406238866
3009799 131 9799694792339306135
3178227 256 17989491839550756227
3383291 50 18334859441516124731
34797466 226 17418378013353828900
4073 2 18334575785581861002
4325135 7 15574713594886946970
5104073 3 17915754080672587715
5385378 56 15841562842160236022
563151 97 8141547712423964927
59682541 35 18342457075147373619
59755656 520 17675921006023871882
636775 8 18333740121251018894
999808 66 18335987536404040683

>  <PUBCHEM_SHAPE_MULTIPOLES>  (1) 
470.08
25.49
2.31
0.96
18.32
1.01
-0.03
-13.7
8.23
-2.33
0.3
-0.81
-0.35
0.95

>  <PUBCHEM_SHAPE_SELFOVERLAP>  (1) 
939.62

>  <PUBCHEM_SHAPE_VOLUME>  (1) 
277.7

>  <PUBCHEM_COORDINATE_TYPE>  (1) 
2
5
10

$$$$
