28077
     RDKit          3D

 32 34  0  0  0  0  0  0  0  0999 V2000
   -2.4769   -1.9515    1.8792 O   0  0  0  0  0  0  0  0  0  0  0  0
   -5.4422    0.9826   -3.3498 O   0  0  0  0  0  0  0  0  0  0  0  0
   -5.0261    3.2767    2.0170 O   0  0  0  0  0  0  0  0  0  0  0  0
   -8.2668    1.3508   -0.0981 O   0  0  0  0  0  0  0  0  0  0  0  0
    2.4778   -2.0988   -0.0567 N   0  0  0  0  0  0  0  0  0  0  0  0
   -0.4049   -2.2613    0.0938 N   0  0  0  0  0  0  0  0  0  0  0  0
    1.7729   -3.3668   -0.2819 C   0  0  0  0  0  0  0  0  0  0  0  0
    1.7123   -1.2417    0.8570 C   0  0  0  0  0  0  0  0  0  0  0  0
    0.3600   -3.1180   -0.8207 C   0  0  0  0  0  0  0  0  0  0  0  0
    0.2998   -0.9929    0.3169 C   0  0  0  0  0  0  0  0  0  0  0  0
    3.8236   -2.3377    0.4609 C   0  0  0  0  0  0  0  0  0  0  0  0
   -1.7514   -2.0233   -0.4220 C   0  0  0  0  0  0  0  0  0  0  0  0
    4.7242   -1.1495    0.2515 C   0  0  0  0  0  0  0  0  0  0  0  0
    7.2841    2.2302   -0.3419 C   0  0  0  0  0  0  0  0  0  0  0  0
    6.3928    1.0524   -0.1355 C   0  0  0  0  0  0  0  0  0  0  0  0
   -2.6492   -1.5821    0.7195 C   0  0  0  0  0  0  0  0  0  0  0  0
    5.5471   -0.7074    1.2874 C   0  0  0  0  0  0  0  0  0  0  0  0
    4.7355   -0.4906   -0.9779 C   0  0  0  0  0  0  0  0  0  0  0  0
    6.3814    0.3935    1.0939 C   0  0  0  0  0  0  0  0  0  0  0  0
    5.5698    0.6103   -1.1714 C   0  0  0  0  0  0  0  0  0  0  0  0
    6.4611    3.5066   -0.6994 C   0  0  0  0  0  0  0  0  0  0  0  0
    8.2928    1.9797   -1.5055 C   0  0  0  0  0  0  0  0  0  0  0  0
    8.1614    2.6322    0.8900 C   0  0  0  0  0  0  0  0  0  0  0  0
   -3.7858   -0.6625    0.4147 C   0  0  0  0  0  0  0  0  0  0  0  0
   -4.2302    0.2410    1.3800 C   0  0  0  0  0  0  0  0  0  0  0  0
   -4.4023   -0.7065   -0.8357 C   0  0  0  0  0  0  0  0  0  0  0  0
   -5.2911    1.1006    1.0948 C   0  0  0  0  0  0  0  0  0  0  0  0
   -5.4632    0.1531   -1.1209 C   0  0  0  0  0  0  0  0  0  0  0  0
   -5.9076    1.0566   -0.1556 C   0  0  0  0  0  0  0  0  0  0  0  0
   -6.1059    0.0868   -2.4677 C   0  0  0  0  0  0  0  0  0  0  0  0
   -5.7481    2.0590    2.1456 C   0  0  0  0  0  0  0  0  0  0  0  0
   -7.0451    1.9786   -0.4615 C   0  0  0  0  0  0  0  0  0  0  0  0
  1 16  2  0
  2 30  1  0
  3 31  1  0
  4 32  1  0
  5  7  1  0
  5  8  1  0
  5 11  1  0
  6  9  1  0
  6 10  1  0
  6 12  1  0
  7  9  1  0
  8 10  1  0
 11 13  1  0
 12 16  1  0
 13 17  2  0
 13 18  1  0
 14 15  1  0
 14 21  1  0
 14 22  1  0
 14 23  1  0
 15 19  2  0
 15 20  1  0
 16 24  1  0
 17 19  1  0
 18 20  2  0
 24 25  2  0
 24 26  1  0
 25 27  1  0
 26 28  2  0
 27 29  2  0
 27 31  1  0
 28 29  1  0
 28 30  1  0
 29 32  1  0
M  END
>  <PUBCHEM_COMPOUND_CID>  (1) 
28077

>  <PUBCHEM_CONFORMER_RMSD>  (1) 
1

>  <PUBCHEM_CONFORMER_DIVERSEORDER>  (1) 
1
54
39
48
17
7
20
8
19
18
28
44
12
46
26
10
43
56
32
42
38
9
33
14
49
35
31
23
13
6
55
45
29
16
53
21
3
34
5
11
22
36
52
40
50
15
24
25
47
51
2
4
27
30
41
37

>  <PUBCHEM_MMFF94_PARTIAL_CHARGES>  (1) 
38
1 -0.57
10 0.27
11 0.41
12 0.33
13 -0.14
14 0.14
15 -0.14
16 0.42
17 -0.15
18 -0.15
19 -0.15
2 -0.68
20 -0.15
24 0.09
25 -0.15
26 -0.15
27 -0.14
28 -0.14
29 -0.14
3 -0.68
30 0.42
31 0.42
32 0.42
4 -0.68
45 0.15
46 0.15
47 0.15
48 0.15
5 -0.81
58 0.15
59 0.15
6 -0.81
66 0.4
67 0.4
68 0.4
7 0.27
8 0.27
9 0.27

>  <PUBCHEM_EFFECTIVE_ROTOR_COUNT>  (1) 
10.2

>  <PUBCHEM_PHARMACOPHORE_FEATURES>  (1) 
13
1 1 acceptor
1 2 acceptor
1 2 donor
1 3 acceptor
1 3 donor
1 4 acceptor
1 4 donor
1 5 cation
1 6 cation
4 14 21 22 23 hydrophobe
6 13 15 17 18 19 20 rings
6 24 25 26 27 28 29 rings
6 5 6 7 8 9 10 rings

>  <PUBCHEM_HEAVY_ATOM_COUNT>  (1) 
32

>  <PUBCHEM_ATOM_DEF_STEREO_COUNT>  (1) 
0

>  <PUBCHEM_ATOM_UDEF_STEREO_COUNT>  (1) 
0

>  <PUBCHEM_BOND_DEF_STEREO_COUNT>  (1) 
0

>  <PUBCHEM_BOND_UDEF_STEREO_COUNT>  (1) 
0

>  <PUBCHEM_ISOTOPIC_ATOM_COUNT>  (1) 
0

>  <PUBCHEM_COMPONENT_COUNT>  (1) 
1

>  <PUBCHEM_CACTVS_TAUTO_COUNT>  (1) 
2

>  <PUBCHEM_CONFORMER_ID>  (1) 
00006DAD00000001

>  <PUBCHEM_MMFF94_ENERGY>  (1) 
95.3244

>  <PUBCHEM_FEATURE_SELFOVERLAP>  (1) 
65.973

>  <PUBCHEM_SHAPE_FINGERPRINT>  (1) 
10 15 17095245808444705903
10280341 67 17985540303438602552
10319926 262 14851893500184350323
10533779 1 18336253635493244908
10554248 39 18271801277464133830
10906281 52 18270971158700546371
10930396 42 16443066119539576613
11062273 23 11387733695797470350
117089 54 9367079873712468508
12166972 35 11527953374468369650
12422481 6 17167860889580546838
12895837 130 17988648437756790625
12975358 362 18041859310972181749
13627175 4 8862941710370275784
13782708 43 10375864165097063675
14931854 50 17561089116142550746
15064981 194 17988922302209227211
15183329 4 18412825793724331072
15320294 125 12901554533412405443
15326921 28 12902922253100948063
15347591 1 18410294735628495066
15510800 12 11600006553142267158
15685185 35 18413110589111454257
15803439 3 16702308983631569686
15840311 113 18333734585180398086
16096371 109 17895749578933785898
16989378 47 12823303377426729964
16992752 21 17703217525879036767
16993089 31 12031491230068038061
16994733 274 18187924040985756736
17686467 74 17895758530157040603
18393751 57 18186802444562895203
19246450 95 11458965535412302223
20058555 10 18411703170772040320
2026 5 11167954536802542068
20691028 202 18338796831799849968
21033648 144 18333729122351243167
21033648 29 17313384453800169679
21298829 104 18412268345993254816
21585481 151 12252171958300148208
21585482 111 18261114071723552180
21814621 53 16226322599704822544
23522609 53 17344923923331106747
241686 156 18045505476292673316
25269216 80 17203321265353613719
2748736 6 18412542111355599410
2838139 119 18201716198295327987
312425 54 15864063295999372762
328310 630 18412263917776061875
3418910 222 18343587361118119937
3862424 121 13685724125565059989
3918712 181 18413101775744091728
393628 194 18411705382833444721
397638 26 16370724816044581824
397830 11 17458356259379742634
406291 66 9727364515465808756
4169191 19 18334858328950308852
4258327 124 18412823603792202359
437795 160 16443358572726736777
465052 167 9007063478868753026
504843 32 18339077193837816679
5080951 261 16805323336646042427
5104073 3 13479431456349895767
54039377 194 9439412341673070608
54583773 228 18342733028183453487
5470011 282 12679458712219158442
5718773 13 9799696987109642942
6057620 51 18342165671256469847
6289498 60 17895467142269703908
6328613 192 18411701002087492112
636775 8 8357996485205251976
6712543 237 15429753986101684571
6898599 12 18200874096937618230
7970288 3 8574436392065938760
9962374 69 9367336017166661554
999808 66 11167943584345052487

>  <PUBCHEM_SHAPE_MULTIPOLES>  (1) 
625.11
27.26
3.84
1.95
12.36
0.13
-0.71
28.78
-4.02
3.21
0.4
-3.31
0.93
-2.02

>  <PUBCHEM_SHAPE_SELFOVERLAP>  (1) 
1312.157

>  <PUBCHEM_SHAPE_VOLUME>  (1) 
354

>  <PUBCHEM_COORDINATE_TYPE>  (1) 
2
5
10

$$$$
