28089
     RDKit          3D

 16 16  0  0  0  0  0  0  0  0999 V2000
    2.7245    0.3410   -1.4079 O   0  0  0  0  0  0  0  0  0  0  0  0
   -2.6600    0.3414    0.2861 N   0  0  0  0  0  0  0  0  0  0  0  0
    2.3845    1.4700    0.5929 N   0  0  0  0  0  0  0  0  0  0  0  0
   -3.7162   -2.3152   -0.3210 C   0  0  0  0  0  0  0  0  0  0  0  0
   -2.2337   -1.9831   -0.4465 C   0  0  0  0  0  0  0  0  0  0  0  0
   -4.3876   -1.3845    0.6826 C   0  0  0  0  0  0  0  0  0  0  0  0
   -2.0194   -0.4968   -0.7371 C   0  0  0  0  0  0  0  0  0  0  0  0
   -4.1050    0.0828    0.3564 C   0  0  0  0  0  0  0  0  0  0  0  0
   -2.4060    1.7571    0.0203 C   0  0  0  0  0  0  0  0  0  0  0  0
   -0.9680    2.0413    0.0292 C   0  0  0  0  0  0  0  0  0  0  0  0
    0.2096    2.2780    0.0366 C   0  0  0  0  0  0  0  0  0  0  0  0
    3.6216   -0.6007    0.6341 C   0  0  0  0  0  0  0  0  0  0  0  0
    1.6423    2.5691    0.0441 C   0  0  0  0  0  0  0  0  0  0  0  0
    4.1619   -1.7477   -0.2148 C   0  0  0  0  0  0  0  0  0  0  0  0
    2.8724    0.4294   -0.1920 C   0  0  0  0  0  0  0  0  0  0  0  0
    4.8791   -2.7822    0.6370 C   0  0  0  0  0  0  0  0  0  0  0  0
  1 15  2  0
  2  7  1  0
  2  8  1  0
  2  9  1  0
  3 13  1  0
  3 15  1  0
  4  5  1  0
  4  6  1  0
  5  7  1  0
  6  8  1  0
  9 10  1  0
 10 11  3  0
 11 13  1  0
 12 14  1  0
 12 15  1  0
 14 16  1  0
M  END
>  <PUBCHEM_COMPOUND_CID>  (1) 
28089

>  <PUBCHEM_CONFORMER_RMSD>  (1) 
0.8

>  <PUBCHEM_CONFORMER_DIVERSEORDER>  (1) 
2
17
39
18
43
16
3
45
40
21
8
14
37
4
5
36
25
26
44
15
33
19
42
9
22
31
35
7
38
32
24
11
41
23
13
27
20
30
34
6
29
12
10
28
1

>  <PUBCHEM_MMFF94_PARTIAL_CHARGES>  (1) 
12
1 -0.57
10 -0.2
11 -0.2
12 0.06
13 0.5
15 0.57
2 -0.81
3 -0.73
35 0.37
7 0.27
8 0.27
9 0.47

>  <PUBCHEM_EFFECTIVE_ROTOR_COUNT>  (1) 
6.2

>  <PUBCHEM_PHARMACOPHORE_FEATURES>  (1) 
5
1 1 acceptor
1 16 hydrophobe
1 2 cation
1 3 donor
6 2 4 5 6 7 8 rings

>  <PUBCHEM_HEAVY_ATOM_COUNT>  (1) 
16

>  <PUBCHEM_ATOM_DEF_STEREO_COUNT>  (1) 
0

>  <PUBCHEM_ATOM_UDEF_STEREO_COUNT>  (1) 
0

>  <PUBCHEM_BOND_DEF_STEREO_COUNT>  (1) 
0

>  <PUBCHEM_BOND_UDEF_STEREO_COUNT>  (1) 
0

>  <PUBCHEM_ISOTOPIC_ATOM_COUNT>  (1) 
0

>  <PUBCHEM_COMPONENT_COUNT>  (1) 
1

>  <PUBCHEM_CACTVS_TAUTO_COUNT>  (1) 
2

>  <PUBCHEM_CONFORMER_ID>  (1) 
00006DB900000002

>  <PUBCHEM_MMFF94_ENERGY>  (1) 
5.3068

>  <PUBCHEM_FEATURE_SELFOVERLAP>  (1) 
25.371

>  <PUBCHEM_SHAPE_FINGERPRINT>  (1) 
10968037 57 18412830153184402955
12107183 9 18269849648756650257
12174731 88 16743942785886530834
12555020 224 18265320730180953549
12596599 1 17988099866615293603
12633257 1 18129956606288838043
12990986 174 18337948970716656666
13533116 47 18126283288829133995
13551218 46 18339647853889627523
14251705 54 18411980265129781758
14251731 5 18410013225900473650
14866123 147 18124316013250193401
14916288 52 18411417340835537310
15352361 1 18410571764991190194
15537594 2 18336564775365223026
20281475 54 18410016541415285732
20291156 8 18409729560406052480
20403669 9 18341897350740927574
20621476 51 18058718225760646575
20621476 91 18264464271079025554
21388113 180 11311515540789905691
235170 7 15719111374620454362
556388 4 18195241350349586887
56633871 153 18343025458746685595
6786 2 10933019490703614157
88748 71 18333736805483252675

>  <PUBCHEM_SHAPE_MULTIPOLES>  (1) 
313.44
10.18
3.46
0.87
3.87
0.02
0.1
8.93
-1.47
1.21
-0.19
0.21
0.13
-0.56

>  <PUBCHEM_SHAPE_SELFOVERLAP>  (1) 
604.303

>  <PUBCHEM_SHAPE_VOLUME>  (1) 
189.3

>  <PUBCHEM_COORDINATE_TYPE>  (1) 
2
5
10

$$$$
