28085
     RDKit          3D

 24 25  0  0  1  0  0  0  0  0999 V2000
   -0.4486   -5.1154    1.1247 I   0  0  0  0  0  0  0  0  0  0  0  0
    0.7786    0.5636    0.2372 O   0  0  0  0  0  0  0  0  0  0  0  0
   -1.5911   -0.9134    0.7078 N   0  0  0  0  0  0  0  0  0  0  0  0
   -1.2142    0.2426    1.5206 C   0  0  0  0  0  0  0  0  0  0  0  0
    2.2320   -1.3314   -1.3299 C   0  0  0  0  0  0  0  0  0  0  0  0
   -3.0468   -1.0337    0.6342 C   0  0  0  0  0  0  0  0  0  0  0  0
    2.8772   -0.1590   -0.6678 C   0  0  0  0  0  0  0  0  0  0  0  0
    0.2976    0.3978    1.5646 C   0  0  0  0  0  0  0  0  0  0  0  0
   -1.0043   -2.1362    1.2551 C   0  0  0  0  0  0  0  0  0  0  0  0
    2.1295    0.7387    0.0870 C   0  0  0  0  0  0  0  0  0  0  0  0
   -3.6799    0.1856    0.0184 C   0  0  0  0  0  0  0  0  0  0  0  0
    4.2513    0.0338   -0.8104 C   0  0  0  0  0  0  0  0  0  0  0  0
    2.3602   -1.2838   -2.8637 C   0  0  0  0  0  0  0  0  0  0  0  0
    2.7695   -2.6738   -0.8009 C   0  0  0  0  0  0  0  0  0  0  0  0
    2.7404    1.8274    0.7008 C   0  0  0  0  0  0  0  0  0  0  0  0
    4.1145    2.0200    0.5581 C   0  0  0  0  0  0  0  0  0  0  0  0
   -1.3248   -3.3220    0.3495 C   0  0  0  0  0  0  0  0  0  0  0  0
    4.8699    1.1233   -0.1975 C   0  0  0  0  0  0  0  0  0  0  0  0
   -4.0637    1.2416    0.8334 C   0  0  0  0  0  0  0  0  0  0  0  0
   -3.8704    0.2369   -1.3554 C   0  0  0  0  0  0  0  0  0  0  0  0
    4.7764    3.1850    1.2130 C   0  0  0  0  0  0  0  0  0  0  0  0
   -4.6501    2.3714    0.2631 C   0  0  0  0  0  0  0  0  0  0  0  0
   -4.4567    1.3669   -1.9256 C   0  0  0  0  0  0  0  0  0  0  0  0
   -4.8466    2.4341   -1.1163 C   0  0  0  0  0  0  0  0  0  0  0  0
  1 17  1  0
  2  8  1  0
  2 10  1  0
  3  4  1  0
  3  6  1  0
  3  9  1  0
  4  8  1  0
  5  7  1  0
  5 13  1  0
  5 14  1  0
  6 11  1  0
  7 10  2  0
  7 12  1  0
  9 17  1  0
 10 15  1  0
 11 19  2  0
 11 20  1  0
 12 18  2  0
 15 16  2  0
 16 18  1  0
 16 21  1  0
 19 22  1  0
 20 23  2  0
 22 24  2  0
 23 24  1  0
M  END
>  <PUBCHEM_COMPOUND_CID>  (1) 
28085

>  <PUBCHEM_CONFORMER_RMSD>  (1) 
1

>  <PUBCHEM_CONFORMER_DIVERSEORDER>  (1) 
3
62
58
75
35
4
178
113
131
21
190
128
149
94
138
141
51
169
104
81
42
151
145
52
142
91
45
108
163
105
177
172
57
111
121
166
189
83
31
164
112
133
170
165
125
27
174
34
54
136
60
109
99
33
179
30
90
117
135
153
24
7
5
188
152
14
148
25
77
120
119
157
47
158
183
110
68
78
11
84
130
102
139
140
122
82
115
41
137
146
171
6
61
2
44
144
159
114
154
55
19
88
39
79
46
96
184
134
56
59
98
63
127
37
156
87
124
103
28
168
100
38
66
86
10
72
53
9
69
48
50
64
123
74
13
181
185
89
150
29
67
93
161
162
116
143
175
167
22
118
95
132
17
76
71
176
65
23
106
36
186
73
107
40
160
80
1
18
147
16
12
155
187
180
182
85
8
129
43
49
92
15
20
26
126
101
32
173
70
97

>  <PUBCHEM_MMFF94_PARTIAL_CHARGES>  (1) 
30
1 -0.19
10 0.08
11 -0.14
12 -0.15
15 -0.15
16 -0.14
17 0.19
18 -0.15
19 -0.15
2 -0.36
20 -0.15
21 0.14
22 -0.15
23 -0.15
24 -0.15
3 -0.81
34 0.15
4 0.27
41 0.15
44 0.15
45 0.15
46 0.15
5 0.14
50 0.15
51 0.15
52 0.15
6 0.41
7 -0.14
8 0.28
9 0.27

>  <PUBCHEM_EFFECTIVE_ROTOR_COUNT>  (1) 
9

>  <PUBCHEM_PHARMACOPHORE_FEATURES>  (1) 
6
1 1 hydrophobe
1 2 acceptor
1 3 cation
3 5 13 14 hydrophobe
6 11 19 20 22 23 24 rings
6 7 10 12 15 16 18 rings

>  <PUBCHEM_HEAVY_ATOM_COUNT>  (1) 
24

>  <PUBCHEM_ATOM_DEF_STEREO_COUNT>  (1) 
0

>  <PUBCHEM_ATOM_UDEF_STEREO_COUNT>  (1) 
0

>  <PUBCHEM_BOND_DEF_STEREO_COUNT>  (1) 
0

>  <PUBCHEM_BOND_UDEF_STEREO_COUNT>  (1) 
0

>  <PUBCHEM_ISOTOPIC_ATOM_COUNT>  (1) 
0

>  <PUBCHEM_COMPONENT_COUNT>  (1) 
1

>  <PUBCHEM_CACTVS_TAUTO_COUNT>  (1) 
1

>  <PUBCHEM_CONFORMER_ID>  (1) 
00006DB500000003

>  <PUBCHEM_MMFF94_ENERGY>  (1) 
72.8362

>  <PUBCHEM_FEATURE_SELFOVERLAP>  (1) 
30.446

>  <PUBCHEM_SHAPE_FINGERPRINT>  (1) 
105312 117 18260267451684706351
10675989 125 18197781003008324648
10688039 33 17545324541303712442
11370993 70 18411983584970780866
11578080 2 18188506734729777510
11796584 16 13614223864333515381
12422481 6 16155086367039469248
12788726 201 15410068261757636345
14251757 17 18411990143591369227
14932701 244 18198050577353409911
15375358 24 18341615944773622984
15463212 79 18188197814627474875
16988056 13 16818800848940233429
17980427 23 16951406710237319876
20645477 56 18336274534565990001
20645477 70 17846791701828839564
21033648 144 18198908204686104624
21033648 29 18334579052928431305
21304303 282 18046036493000458067
22393880 68 18272379706378865462
23559900 14 18272093764810201178
238 59 17489306425385854510
312425 83 17916862409736704861
4015057 19 17560803277088872216
5283173 99 18411134774895117672
633830 44 18200316507493031513
9709674 26 17987537990530231686

>  <PUBCHEM_SHAPE_MULTIPOLES>  (1) 
494.99
10.87
4.94
1.9
1.48
7.31
-1.03
-11.98
-2.27
0.52
1.83
-0.25
0.19
3.1

>  <PUBCHEM_SHAPE_SELFOVERLAP>  (1) 
999.002

>  <PUBCHEM_SHAPE_VOLUME>  (1) 
295

>  <PUBCHEM_COORDINATE_TYPE>  (1) 
2
5
10

$$$$
