28102
     RDKit          3D

 23 23  0  0  1  0  0  0  0  0999 V2000
    6.2762   -3.2069    0.3380 Cl  0  0  0  0  0  0  0  0  0  0  0  0
    0.8636    0.4825    1.2377 O   0  0  0  0  0  0  0  0  0  0  0  0
   -4.4166   -0.6925    0.1250 O   0  0  0  0  0  0  0  0  0  0  0  0
   -3.8183   -1.0658   -2.1072 O   0  0  0  0  0  0  0  0  0  0  0  0
    4.1008    0.0831   -0.4787 N   0  0  0  0  0  0  0  0  0  0  0  0
   -0.8611    2.6217    0.4432 C   0  0  0  0  0  0  0  0  0  0  0  0
   -1.3280    1.2090    0.5686 C   0  0  0  0  0  0  0  0  0  0  0  0
    3.0570    0.7292    0.3159 C   0  0  0  0  0  0  0  0  0  0  0  0
   -0.4483    0.1997    0.9599 C   0  0  0  0  0  0  0  0  0  0  0  0
    1.8430   -0.1768    0.4458 C   0  0  0  0  0  0  0  0  0  0  0  0
    4.7817   -0.9435    0.3096 C   0  0  0  0  0  0  0  0  0  0  0  0
    5.0602    1.0740   -0.9650 C   0  0  0  0  0  0  0  0  0  0  0  0
   -2.6601    0.9035    0.2895 C   0  0  0  0  0  0  0  0  0  0  0  0
   -0.9854    3.1558   -0.9957 C   0  0  0  0  0  0  0  0  0  0  0  0
   -1.5859    3.5683    1.4177 C   0  0  0  0  0  0  0  0  0  0  0  0
   -0.9004   -1.1153    1.0719 C   0  0  0  0  0  0  0  0  0  0  0  0
   -2.2326   -1.4205    0.7931 C   0  0  0  0  0  0  0  0  0  0  0  0
   -3.1126   -0.4112    0.4020 C   0  0  0  0  0  0  0  0  0  0  0  0
    5.4612   -1.9429   -0.6136 C   0  0  0  0  0  0  0  0  0  0  0  0
    4.3795    2.1151   -1.8374 C   0  0  0  0  0  0  0  0  0  0  0  0
   -2.6996   -2.8333    0.9182 C   0  0  0  0  0  0  0  0  0  0  0  0
   -4.6585   -1.0210   -1.2184 C   0  0  0  0  0  0  0  0  0  0  0  0
   -6.1160   -1.3124   -1.4203 C   0  0  0  0  0  0  0  0  0  0  0  0
  1 19  1  0
  2  9  1  0
  2 10  1  0
  3 18  1  0
  3 22  1  0
  4 22  2  0
  5  8  1  0
  5 11  1  0
  5 12  1  0
  6  7  1  0
  6 14  1  0
  6 15  1  0
  7  9  2  0
  7 13  1  0
  8 10  1  0
  9 16  1  0
 11 19  1  0
 12 20  1  0
 13 18  2  0
 16 17  2  0
 17 18  1  0
 17 21  1  0
 22 23  1  0
M  END
>  <PUBCHEM_COMPOUND_CID>  (1) 
28102

>  <PUBCHEM_CONFORMER_RMSD>  (1) 
1

>  <PUBCHEM_CONFORMER_DIVERSEORDER>  (1) 
2
46
55
57
28
84
32
74
50
37
20
13
90
21
78
34
52
27
36
83
92
6
26
61
67
77
95
43
49
63
44
15
68
58
65
40
85
11
33
64
47
66
56
45
79
23
38
69
59
25
91
54
16
9
30
12
82
8
60
51
70
39
24
81
31
5
10
76
53
3
1
89
22
87
75
4
94
41
7
86
19
62
42
18
35
29
48
73
72
80
14
71
17
88
93

>  <PUBCHEM_MMFF94_PARTIAL_CHARGES>  (1) 
22
1 -0.29
10 0.28
11 0.27
12 0.27
13 -0.15
16 -0.15
17 -0.14
18 0.08
19 0.29
2 -0.36
21 0.14
22 0.66
23 0.06
3 -0.23
33 0.15
4 -0.57
40 0.15
5 -0.81
6 0.14
7 -0.14
8 0.27
9 0.08

>  <PUBCHEM_EFFECTIVE_ROTOR_COUNT>  (1) 
10

>  <PUBCHEM_PHARMACOPHORE_FEATURES>  (1) 
5
1 2 acceptor
1 4 acceptor
1 5 cation
3 6 14 15 hydrophobe
6 7 9 13 16 17 18 rings

>  <PUBCHEM_HEAVY_ATOM_COUNT>  (1) 
23

>  <PUBCHEM_ATOM_DEF_STEREO_COUNT>  (1) 
0

>  <PUBCHEM_ATOM_UDEF_STEREO_COUNT>  (1) 
0

>  <PUBCHEM_BOND_DEF_STEREO_COUNT>  (1) 
0

>  <PUBCHEM_BOND_UDEF_STEREO_COUNT>  (1) 
0

>  <PUBCHEM_ISOTOPIC_ATOM_COUNT>  (1) 
0

>  <PUBCHEM_COMPONENT_COUNT>  (1) 
1

>  <PUBCHEM_CACTVS_TAUTO_COUNT>  (1) 
1

>  <PUBCHEM_CONFORMER_ID>  (1) 
00006DC600000002

>  <PUBCHEM_MMFF94_ENERGY>  (1) 
61.8823

>  <PUBCHEM_FEATURE_SELFOVERLAP>  (1) 
25.372

>  <PUBCHEM_SHAPE_FINGERPRINT>  (1) 
10693767 8 18199731691819499663
12403260 363 18338519638799947402
12760667 363 18342740693402734498
12788726 201 18411694362120865153
13533116 47 18410293614698935682
14251757 17 17168408458913313236
14347332 77 18341327778264375282
14508225 48 18409725166554808101
14866123 147 18269844116669824985
15475509 8 18412541008050359041
15778101 99 7997672226346453978
17492 89 18261968409596439362
17857418 61 18341895160988289842
1813 80 17774726471270994205
19784866 240 16844453911505514079
19958102 18 18113896027221185638
20871999 31 18408317805056998241
21637258 2 16630231594067754623
22182313 1 17757823808277143497
23402539 116 18411418388918093505
23559900 14 18334575785064428706
23569943 247 18272649005303685795
23622692 118 18339921516167540362
24771750 20 17248659798591392325
2748010 2 17612014277257200131
2838139 119 15575534943258361487
3004659 81 18260824895748920010
312423 11 18188791474018899504
559249 180 18121219780027224354
56616090 284 18411130351358253987
9709674 26 18340499854836205234

>  <PUBCHEM_SHAPE_MULTIPOLES>  (1) 
452.61
13.6
3.76
1.53
12.55
1.52
-0.56
-10.76
-6.4
1
0.36
-0.98
0.29
-2.13

>  <PUBCHEM_SHAPE_SELFOVERLAP>  (1) 
896.724

>  <PUBCHEM_SHAPE_VOLUME>  (1) 
273.1

>  <PUBCHEM_COORDINATE_TYPE>  (1) 
2
5
10

$$$$
