28106
     RDKit          3D

 16 18  0  0  0  0  0  0  0  0999 V2000
    0.3455   -0.0190   -0.6838 N   0  0  0  0  0  0  0  0  0  0  0  0
   -0.4774    1.2128   -0.1894 C   0  0  0  0  0  0  0  0  0  0  0  0
   -0.4754   -1.2220   -0.1201 C   0  0  0  0  0  0  0  0  0  0  0  0
   -1.8633    0.6986    0.0350 C   0  0  0  0  0  0  0  0  0  0  0  0
   -1.8622   -0.6981    0.0751 C   0  0  0  0  0  0  0  0  0  0  0  0
    1.7729   -0.0038   -0.1850 C   0  0  0  0  0  0  0  0  0  0  0  0
    0.3900   -0.0624   -2.2093 C   0  0  0  0  0  0  0  0  0  0  0  0
   -3.0286    1.4194    0.2267 C   0  0  0  0  0  0  0  0  0  0  0  0
   -3.0262   -1.4087    0.3081 C   0  0  0  0  0  0  0  0  0  0  0  0
    2.3911    1.2107    0.0490 C   0  0  0  0  0  0  0  0  0  0  0  0
    2.4245   -1.2051    0.0256 C   0  0  0  0  0  0  0  0  0  0  0  0
   -4.2116    0.7123    0.4519 C   0  0  0  0  0  0  0  0  0  0  0  0
   -4.2104   -0.6917    0.4923 C   0  0  0  0  0  0  0  0  0  0  0  0
    3.7077    1.2245    0.5095 C   0  0  0  0  0  0  0  0  0  0  0  0
    3.7410   -1.1911    0.4863 C   0  0  0  0  0  0  0  0  0  0  0  0
    4.3825    0.0236    0.7282 C   0  0  0  0  0  0  0  0  0  0  0  0
  1  2  1  0
  1  3  1  0
  1  6  1  0
  1  7  1  0
  2  4  1  0
  3  5  1  0
  4  5  2  0
  4  8  1  0
  5  9  1  0
  6 10  2  0
  6 11  1  0
  8 12  2  0
  9 13  2  0
 10 14  1  0
 11 15  2  0
 12 13  1  0
 14 16  2  0
 15 16  1  0
M  CHG  1   1   1
M  END
>  <PUBCHEM_COMPOUND_CID>  (1) 
28106

>  <PUBCHEM_CONFORMER_RMSD>  (1) 
0.6

>  <PUBCHEM_CONFORMER_DIVERSEORDER>  (1) 
1
2

>  <PUBCHEM_MMFF94_PARTIAL_CHARGES>  (1) 
25
1 -0.87
10 -0.15
11 -0.15
12 -0.15
13 -0.15
14 -0.15
15 -0.15
16 -0.15
2 0.65
24 0.15
25 0.15
26 0.15
27 0.15
28 0.15
29 0.15
3 0.65
30 0.15
31 0.15
32 0.15
4 -0.14
5 -0.14
6 0.36
7 0.5
8 -0.15
9 -0.15

>  <PUBCHEM_EFFECTIVE_ROTOR_COUNT>  (1) 
1.6

>  <PUBCHEM_PHARMACOPHORE_FEATURES>  (1) 
4
1 1 cation
5 1 2 3 4 5 rings
6 4 5 8 9 12 13 rings
6 6 10 11 14 15 16 rings

>  <PUBCHEM_HEAVY_ATOM_COUNT>  (1) 
16

>  <PUBCHEM_ATOM_DEF_STEREO_COUNT>  (1) 
0

>  <PUBCHEM_ATOM_UDEF_STEREO_COUNT>  (1) 
0

>  <PUBCHEM_BOND_DEF_STEREO_COUNT>  (1) 
0

>  <PUBCHEM_BOND_UDEF_STEREO_COUNT>  (1) 
0

>  <PUBCHEM_ISOTOPIC_ATOM_COUNT>  (1) 
0

>  <PUBCHEM_COMPONENT_COUNT>  (1) 
1

>  <PUBCHEM_CACTVS_TAUTO_COUNT>  (1) 
1

>  <PUBCHEM_CONFORMER_ID>  (1) 
00006DCA00000001

>  <PUBCHEM_MMFF94_ENERGY>  (1) 
63.0042

>  <PUBCHEM_FEATURE_SELFOVERLAP>  (1) 
20.373

>  <PUBCHEM_SHAPE_FINGERPRINT>  (1) 
10608611 8 18412824659731528473
11132069 177 18409450275962811593
11543360 7 9511454533066685762
12107183 9 17833267519517430504
12119455 92 17275382092662904284
12251169 10 18411418423151153308
12507560 40 18411136913651154476
12670546 56 18411129247287544587
12892183 10 18408885156834686674
13214271 11 18131068242867890085
13296909 8 18187078438849658421
13581323 91 18260550017303541829
13675066 3 17967820435755979929
13705890 14 10809342248097433830
14252887 29 16732982024929649528
14289901 80 18411136978107299826
14341114 176 18411706473923228520
14866123 147 16614492845098960402
14943859 89 15123509224531113508
15196674 1 18410292514469714481
15219456 202 17988933231861966863
15309172 13 16845573123319828942
15375462 478 18343300370506517612
15536298 74 18411983542142407850
15653759 3 18408322181164286992
16752209 62 14056984023535618077
16945 1 18196933485711782021
17804303 29 18263651679681976486
1813 80 16732987500902338286
19050596 39 18410292531755130664
19862831 5 11167944653654817354
200 152 18272357699140377607
20281475 54 17821446846507349770
20361792 2 15863788408879826094
204376 136 16343982524303749071
20510252 161 18272374135706088297
20528008 55 18411695491449194297
20671657 53 14345796045659680286
20711985 327 17022623091315702892
20871999 31 9511456711037163153
21065199 12 18410292510269699386
21119208 17 9439405735243086530
21267235 1 18409176510241719130
21501925 9 18261111902141970991
21756936 100 17841142574911937688
22094290 60 8646769993455431451
22854114 59 18413387644218449794
23402539 116 18272362075801748901
23463225 33 18408042913689931580
23557571 272 17845390958517261607
23559900 14 18340769235052881678
25 1 13254803442787175580
26918003 58 18187641418493083451
276578 36 15769780143557137414
296302 2 18060421321984505155
351380 180 18343860009409295393
42 15 18260550013024431370
4214541 1 18409729534604736769
474 4 16880212266970903684
5104073 3 18410573985156726930
5374978 207 18411419518320393313
69090 78 18413384341520734111
7364860 26 18199753540038331894
77779 3 18410293609923745320
81228 2 15358524234325716036
90316 7 18040999492831430445
9709674 26 18410580595127926883

>  <PUBCHEM_SHAPE_MULTIPOLES>  (1) 
324.29
8.42
1.55
1.05
0.32
0.01
-0.65
0.06
3.04
-0.1
0.16
0.24
-0.02
0.05

>  <PUBCHEM_SHAPE_SELFOVERLAP>  (1) 
705.286

>  <PUBCHEM_SHAPE_VOLUME>  (1) 
178.5

>  <PUBCHEM_COORDINATE_TYPE>  (1) 
2
5
10

$$$$
