28124
     RDKit          3D

 33 34  0  0  1  0  0  0  0  0999 V2000
   -1.8259    0.6287   -0.3493 O   0  0  0  0  0  0  0  0  0  0  0  0
   -0.4752    1.2706    1.7208 O   0  0  0  0  0  0  0  0  0  0  0  0
   -0.7827   -0.2897   -2.1844 O   0  0  0  0  0  0  0  0  0  0  0  0
    1.6152    1.3202    2.6940 O   0  0  0  0  0  0  0  0  0  0  0  0
    1.3587   -1.6216   -1.0424 O   0  0  0  0  0  0  0  0  0  0  0  0
    0.7301   -3.3379   -2.4417 O   0  0  0  0  0  0  0  0  0  0  0  0
   -1.4295    2.9725    0.2295 C   0  0  0  0  0  0  0  0  0  0  0  0
   -1.6959    1.9353   -0.9166 C   0  0  0  0  0  0  0  0  0  0  0  0
   -2.9011    2.2211   -1.8583 C   0  0  0  0  0  0  0  0  0  0  0  0
   -0.2165    2.5176    1.0879 C   0  0  0  0  0  0  0  0  0  0  0  0
   -2.6275    3.1238    1.1821 C   0  0  0  0  0  0  0  0  0  0  0  0
   -1.1051    4.3556   -0.3758 C   0  0  0  0  0  0  0  0  0  0  0  0
   -4.2688    1.8576   -1.2664 C   0  0  0  0  0  0  0  0  0  0  0  0
   -2.7307    1.4394   -3.1711 C   0  0  0  0  0  0  0  0  0  0  0  0
   -1.3242   -0.3897   -1.0944 C   0  0  0  0  0  0  0  0  0  0  0  0
    0.5344    0.7774    2.5049 C   0  0  0  0  0  0  0  0  0  0  0  0
    0.1184   -0.5567    3.0993 C   0  0  0  0  0  0  0  0  0  0  0  0
   -1.5218   -1.6867   -0.3991 C   0  0  0  0  0  0  0  0  0  0  0  0
    1.2508   -1.1152    3.9529 C   0  0  0  0  0  0  0  0  0  0  0  0
   -1.1615   -0.4090    3.9179 C   0  0  0  0  0  0  0  0  0  0  0  0
   -0.6331   -2.7470   -0.5768 C   0  0  0  0  0  0  0  0  0  0  0  0
   -2.6228   -1.8335    0.4448 C   0  0  0  0  0  0  0  0  0  0  0  0
   -0.8452   -3.9540    0.0895 C   0  0  0  0  0  0  0  0  0  0  0  0
   -2.8349   -3.0404    1.1113 C   0  0  0  0  0  0  0  0  0  0  0  0
    0.5254   -2.6251   -1.4522 C   0  0  0  0  0  0  0  0  0  0  0  0
   -1.9462   -4.1006    0.9335 C   0  0  0  0  0  0  0  0  0  0  0  0
    2.5366   -1.4016   -1.8257 C   0  0  0  0  0  0  0  0  0  0  0  0
    3.3193   -0.2704   -1.2264 C   0  0  0  0  0  0  0  0  0  0  0  0
    3.0771    1.0403   -1.6380 C   0  0  0  0  0  0  0  0  0  0  0  0
    4.2888   -0.5291   -0.2574 C   0  0  0  0  0  0  0  0  0  0  0  0
    3.8044    2.0921   -1.0807 C   0  0  0  0  0  0  0  0  0  0  0  0
    5.0160    0.5227    0.2999 C   0  0  0  0  0  0  0  0  0  0  0  0
    4.7737    1.8333   -0.1119 C   0  0  0  0  0  0  0  0  0  0  0  0
  1  8  1  0
  1 15  1  0
  2 10  1  0
  2 16  1  0
  3 15  2  0
  4 16  2  0
  5 25  1  0
  5 27  1  0
  6 25  2  0
  7  8  1  0
  7 10  1  0
  7 11  1  0
  7 12  1  0
  8  9  1  0
  9 13  1  0
  9 14  1  0
 15 18  1  0
 16 17  1  0
 17 19  1  0
 17 20  1  0
 18 21  2  0
 18 22  1  0
 21 23  1  0
 21 25  1  0
 22 24  2  0
 23 26  2  0
 24 26  1  0
 27 28  1  0
 28 29  2  0
 28 30  1  0
 29 31  1  0
 30 32  2  0
 31 33  2  0
 32 33  1  0
M  END
>  <PUBCHEM_COMPOUND_CID>  (1) 
28124

>  <PUBCHEM_CONFORMER_RMSD>  (1) 
1.2

>  <PUBCHEM_CONFORMER_DIVERSEORDER>  (1) 
1
247
91
168
11
56
205
178
261
36
182
195
166
125
79
116
10
154
34
240
241
237
267
197
121
252
133
231
165
143
117
100
22
62
45
226
224
257
49
71
122
140
258
162
202
118
159
255
109
243
115
180
15
86
123
170
196
80
12
262
21
260
78
169
72
173
6
145
150
209
147
87
191
127
228
4
68
27
38
39
217
44
64
232
198
67
161
129
235
146
249
85
126
208
175
8
216
171
152
70
61
266
187
95
225
83
149
253
53
242
212
139
219
18
74
102
238
222
137
245
32
54
93
142
136
47
84
16
37
131
156
89
114
188
66
101
59
132
94
57
26
186
158
233
179
189
81
153
259
223
265
210
163
82
29
254
119
185
148
28
110
73
46
204
120
193
144
105
128
20
172
215
96
167
221
200
5
130
157
76
65
164
239
104
141
14
199
60
201
97
48
52
75
40
41
174
13
264
2
213
58
7
92
112
236
135
194
77
9
184
23
207
151
3
24
176
19
103
50
30
234
69
113
218
244
263
31
25
183
206
181
99
90
192
88
256
124
177
51
138
98
211
190
250
251
33
227
134
203
106
35
42
107
155
108
63
246
229
160
248
17
55
111
214
43
230
220

>  <PUBCHEM_MMFF94_PARTIAL_CHARGES>  (1) 
34
1 -0.43
10 0.28
15 0.63
16 0.66
17 0.06
18 0.09
2 -0.43
21 0.09
22 -0.15
23 -0.15
24 -0.15
25 0.63
26 -0.15
27 0.42
28 -0.14
29 -0.15
3 -0.57
30 -0.15
31 -0.15
32 -0.15
33 -0.15
4 -0.57
5 -0.43
57 0.15
58 0.15
59 0.15
6 -0.57
60 0.15
63 0.15
64 0.15
65 0.15
66 0.15
67 0.15
8 0.28

>  <PUBCHEM_EFFECTIVE_ROTOR_COUNT>  (1) 
13

>  <PUBCHEM_PHARMACOPHORE_FEATURES>  (1) 
8
1 3 acceptor
1 4 acceptor
1 6 acceptor
3 17 19 20 hydrophobe
3 7 11 12 hydrophobe
3 9 13 14 hydrophobe
6 18 21 22 23 24 26 rings
6 28 29 30 31 32 33 rings

>  <PUBCHEM_HEAVY_ATOM_COUNT>  (1) 
33

>  <PUBCHEM_ATOM_DEF_STEREO_COUNT>  (1) 
0

>  <PUBCHEM_ATOM_UDEF_STEREO_COUNT>  (1) 
1

>  <PUBCHEM_BOND_DEF_STEREO_COUNT>  (1) 
0

>  <PUBCHEM_BOND_UDEF_STEREO_COUNT>  (1) 
0

>  <PUBCHEM_ISOTOPIC_ATOM_COUNT>  (1) 
0

>  <PUBCHEM_COMPONENT_COUNT>  (1) 
1

>  <PUBCHEM_CACTVS_TAUTO_COUNT>  (1) 
1

>  <PUBCHEM_CONFORMER_ID>  (1) 
00006DDC00000001

>  <PUBCHEM_MMFF94_ENERGY>  (1) 
96.9698

>  <PUBCHEM_FEATURE_SELFOVERLAP>  (1) 
40.597

>  <PUBCHEM_SHAPE_FINGERPRINT>  (1) 
11370993 70 18339918200163060420
11582403 64 17314228852321966925
12156800 1 18121467345593288491
144659 39 18187925049527727929
14787075 74 18340761564568144661
19319366 153 17769373825639774613
19930381 70 17471597437574136813
20764821 26 17913742154339266332
23419403 2 17845937428765752395
3493558 16 17840006456660888406
35225 105 16445353051262343155
469060 322 17979945978978712744
9981440 41 18129929088650118502

>  <PUBCHEM_SHAPE_MULTIPOLES>  (1) 
643.91
6.64
5.31
3.67
8.35
0.95
-3.3
-3.19
2.42
-4.71
0.69
-0.3
0.78
1.24

>  <PUBCHEM_SHAPE_SELFOVERLAP>  (1) 
1339.803

>  <PUBCHEM_SHAPE_VOLUME>  (1) 
366.2

>  <PUBCHEM_COORDINATE_TYPE>  (1) 
2
5
10

$$$$
