28126
     RDKit          3D

 35 38  0  0  1  0  0  0  0  0999 V2000
   -0.6708    2.1630    1.7408 O   0  0  0  0  0  0  0  0  0  0  0  0
    1.6647    3.5189    1.7360 O   0  0  0  0  0  0  0  0  0  0  0  0
    3.1932    3.6604   -0.5641 O   0  0  0  0  0  0  0  0  0  0  0  0
   -5.8428   -0.2469    0.8446 O   0  0  0  0  0  0  0  0  0  0  0  0
   -3.7953   -1.8601    1.9542 O   0  0  0  0  0  0  0  0  0  0  0  0
    2.5120   -0.6700    0.2713 O   0  0  0  0  0  0  0  0  0  0  0  0
    0.5271   -1.6693   -1.2962 N   0  0  0  0  0  0  0  0  0  0  0  0
   -0.8187   -1.3422   -1.7705 C   0  0  0  0  0  0  0  0  0  0  0  0
   -0.7990   -0.4416   -3.0212 C   0  0  0  0  0  0  0  0  0  0  0  0
    0.1721    0.7462   -3.0031 C   0  0  0  0  0  0  0  0  0  0  0  0
   -1.7079   -0.7483   -0.6844 C   0  0  0  0  0  0  0  0  0  0  0  0
    0.4628    1.4697   -1.7082 C   0  0  0  0  0  0  0  0  0  0  0  0
   -1.6359    0.7013   -0.4793 C   0  0  0  0  0  0  0  0  0  0  0  0
   -0.3439    1.4375   -0.5559 C   0  0  0  0  0  0  0  0  0  0  0  0
    0.4533   -2.6007   -0.1744 C   0  0  0  0  0  0  0  0  0  0  0  0
   -2.5360   -1.5738   -0.0183 C   0  0  0  0  0  0  0  0  0  0  0  0
    0.0926    2.1167    0.6036 C   0  0  0  0  0  0  0  0  0  0  0  0
    1.3219   -2.2317   -2.3839 C   0  0  0  0  0  0  0  0  0  0  0  0
    1.6486    2.2355   -1.6799 C   0  0  0  0  0  0  0  0  0  0  0  0
   -2.7126    1.4693   -0.2134 C   0  0  0  0  0  0  0  0  0  0  0  0
    1.2768    2.8517    0.6134 C   0  0  0  0  0  0  0  0  0  0  0  0
    2.0521    2.9189   -0.5341 C   0  0  0  0  0  0  0  0  0  0  0  0
    1.8194   -2.9635    0.3443 C   0  0  0  0  0  0  0  0  0  0  0  0
   -3.5868   -1.1849    0.9512 C   0  0  0  0  0  0  0  0  0  0  0  0
   -4.0792    1.0543   -0.0117 C   0  0  0  0  0  0  0  0  0  0  0  0
   -4.4990   -0.0781    0.5642 C   0  0  0  0  0  0  0  0  0  0  0  0
    2.7787   -1.9789    0.5398 C   0  0  0  0  0  0  0  0  0  0  0  0
    2.0986   -4.2957    0.6204 C   0  0  0  0  0  0  0  0  0  0  0  0
    4.0399   -2.3325    1.0197 C   0  0  0  0  0  0  0  0  0  0  0  0
    3.3596   -4.6493    1.1004 C   0  0  0  0  0  0  0  0  0  0  0  0
   -0.4746    1.1202    2.6887 C   0  0  0  0  0  0  0  0  0  0  0  0
    4.3302   -3.6677    1.3000 C   0  0  0  0  0  0  0  0  0  0  0  0
    1.7975    4.9343    1.6331 C   0  0  0  0  0  0  0  0  0  0  0  0
    4.4030    3.0051   -0.1875 C   0  0  0  0  0  0  0  0  0  0  0  0
   -6.5013   -0.8675   -0.2395 C   0  0  0  0  0  0  0  0  0  0  0  0
  1 17  1  0
  1 31  1  0
  2 21  1  0
  2 33  1  0
  3 22  1  0
  3 34  1  0
  4 26  1  0
  4 35  1  0
  5 24  2  0
  6 27  1  0
  7  8  1  0
  7 15  1  0
  7 18  1  0
  8  9  1  0
  8 11  1  0
  9 10  1  0
 10 12  1  0
 11 13  1  0
 11 16  2  0
 12 14  2  0
 12 19  1  0
 13 14  1  0
 13 20  2  0
 14 17  1  0
 15 23  1  0
 16 24  1  0
 17 21  2  0
 19 22  2  0
 20 25  1  0
 21 22  1  0
 23 27  2  0
 23 28  1  0
 24 26  1  0
 25 26  2  0
 27 29  1  0
 28 30  2  0
 29 32  2  0
 30 32  1  0
M  END
>  <PUBCHEM_COMPOUND_CID>  (1) 
28126

>  <PUBCHEM_CONFORMER_RMSD>  (1) 
1

>  <PUBCHEM_CONFORMER_DIVERSEORDER>  (1) 
1
39
6
42
3
34
35
11
46
44
22
24
12
30
36
18
43
27
45
38
13
20
40
8
41
37
16
4
15
14
19
29
9
26
2
21
31
28
10
33
7
17
23
32
5
25

>  <PUBCHEM_MMFF94_PARTIAL_CHARGES>  (1) 
43
1 -0.36
10 0.14
11 -0.14
12 -0.14
13 -0.03
14 0.03
15 0.41
16 -0.14
17 0.08
18 0.27
19 -0.15
2 -0.36
20 -0.15
21 0.08
22 0.08
23 -0.14
24 0.54
25 -0.15
26 0.09
27 0.08
28 -0.15
29 -0.15
3 -0.36
30 -0.15
31 0.28
32 -0.15
33 0.28
34 0.28
35 0.28
4 -0.36
43 0.15
47 0.15
48 0.15
49 0.15
5 -0.57
50 0.15
51 0.15
52 0.15
56 0.15
6 -0.53
63 0.45
7 -0.81
8 0.41

>  <PUBCHEM_EFFECTIVE_ROTOR_COUNT>  (1) 
7.6

>  <PUBCHEM_PHARMACOPHORE_FEATURES>  (1) 
11
1 1 acceptor
1 2 acceptor
1 3 acceptor
1 4 acceptor
1 5 acceptor
1 6 donor
1 7 cation
6 12 14 17 19 21 22 rings
6 23 27 28 29 30 32 rings
7 11 13 16 20 24 25 26 rings
7 8 9 10 11 12 13 14 rings

>  <PUBCHEM_HEAVY_ATOM_COUNT>  (1) 
35

>  <PUBCHEM_ATOM_DEF_STEREO_COUNT>  (1) 
0

>  <PUBCHEM_ATOM_UDEF_STEREO_COUNT>  (1) 
1

>  <PUBCHEM_BOND_DEF_STEREO_COUNT>  (1) 
0

>  <PUBCHEM_BOND_UDEF_STEREO_COUNT>  (1) 
0

>  <PUBCHEM_ISOTOPIC_ATOM_COUNT>  (1) 
0

>  <PUBCHEM_COMPONENT_COUNT>  (1) 
1

>  <PUBCHEM_CACTVS_TAUTO_COUNT>  (1) 
3

>  <PUBCHEM_CONFORMER_ID>  (1) 
00006DDE00000001

>  <PUBCHEM_MMFF94_ENERGY>  (1) 
172.2777

>  <PUBCHEM_FEATURE_SELFOVERLAP>  (1) 
55.848

>  <PUBCHEM_SHAPE_FINGERPRINT>  (1) 
10064457 181 17759245493643859260
10190108 129 17760375787745994163
10305334 12 16482712416502201136
107951 10 17838342139257771077
11007060 377 17550956222480689448
11578080 2 17749664104590654453
11763715 3 17758700853131187974
11963148 33 17977663440528292835
12156800 1 15286458960870535759
131258 43 17979389406794335894
13135754 10 17623294866762765502
133893 2 18123437670435655023
14020679 6 17840035374854943016
14028597 1 17987538024768710249
140371 6 17766284167563544421
14955137 171 18201728331561783582
15927050 60 18194969779852570550
17980427 23 17915171313845616221
19315092 285 18201158866850232899
19319366 153 18268428121518135892
20600515 1 17905894678096122765
21033648 29 16986870121792875295
21049683 118 17414700270711071433
21120745 212 17907598938504733942
21421861 104 18198085624080595617
22956985 138 18259705626807748507
23419403 2 18041826338544257727
23559900 14 17967818258645728919
3383291 50 17558301871488504828
35225 105 17117792651924523770
392239 28 18050288072584092899
4058900 60 18120960526478326724
469060 322 18050290258790882074
484985 159 16671049558362707138
5265222 85 17829906669656069172
56638632 33 18041003886403340338

>  <PUBCHEM_SHAPE_MULTIPOLES>  (1) 
680.09
8.4
6.23
2.41
9.16
2.7
1.09
-6.67
-3.63
-9.56
-2.73
-0.05
0.44
-0.82

>  <PUBCHEM_SHAPE_SELFOVERLAP>  (1) 
1474.913

>  <PUBCHEM_SHAPE_VOLUME>  (1) 
369.6

>  <PUBCHEM_COORDINATE_TYPE>  (1) 
2
5
10

$$$$
