28137
     RDKit          3D

 30 33  0  0  1  0  0  0  0  0999 V2000
   -0.7035    1.2742   -1.7838 O   0  0  0  0  0  0  0  0  0  0  0  0
    0.8774   -2.1116    0.3293 O   0  0  0  0  0  0  0  0  0  0  0  0
   -4.0518   -1.1682    0.8992 O   0  0  0  0  0  0  0  0  0  0  0  0
    2.4456    2.4818    1.8978 O   0  0  0  0  0  0  0  0  0  0  0  0
    3.8757   -0.7979   -2.0796 O   0  0  0  0  0  0  0  0  0  0  0  0
    0.8494   -4.4040    0.1184 O   0  0  0  0  0  0  0  0  0  0  0  0
   -2.4577    0.4478    0.3572 N   0  0  0  0  0  0  0  0  0  0  0  0
    0.4492    1.0911    0.3061 N   0  0  0  0  0  0  0  0  0  0  0  0
    5.8959    0.3581   -0.6902 N   0  0  0  0  0  0  0  0  0  0  0  0
    0.8027   -3.4006    2.1867 N   0  0  0  0  0  0  0  0  0  0  0  0
   -1.3584   -0.3355   -0.1422 C   0  0  0  0  0  0  0  0  0  0  0  0
   -1.4191    0.0820    1.2667 C   0  0  0  0  0  0  0  0  0  0  0  0
   -0.2113    0.3618   -0.8047 C   0  0  0  0  0  0  0  0  0  0  0  0
   -0.3138    1.0551    1.5510 C   0  0  0  0  0  0  0  0  0  0  0  0
    0.9540   -0.4853   -1.4189 C   0  0  0  0  0  0  0  0  0  0  0  0
    1.8168    1.0068    0.1777 C   0  0  0  0  0  0  0  0  0  0  0  0
    2.1705    0.1729   -0.7982 C   0  0  0  0  0  0  0  0  0  0  0  0
   -3.7410   -0.0646    0.4580 C   0  0  0  0  0  0  0  0  0  0  0  0
    0.9215   -1.9737   -1.0786 C   0  0  0  0  0  0  0  0  0  0  0  0
    2.7937    1.7187    1.0036 C   0  0  0  0  0  0  0  0  0  0  0  0
    3.5723   -0.0596   -1.1477 C   0  0  0  0  0  0  0  0  0  0  0  0
   -4.7746    0.9094   -0.0383 C   0  0  0  0  0  0  0  0  0  0  0  0
   -1.1968    0.5906   -2.9258 C   0  0  0  0  0  0  0  0  0  0  0  0
    4.2393    1.4685    0.6850 C   0  0  0  0  0  0  0  0  0  0  0  0
    4.6103    0.6438   -0.3190 C   0  0  0  0  0  0  0  0  0  0  0  0
   -6.1706    0.3179    0.0856 C   0  0  0  0  0  0  0  0  0  0  0  0
    5.1989    2.2148    1.5735 C   0  0  0  0  0  0  0  0  0  0  0  0
   -7.2663    1.2961   -0.3450 C   0  0  0  0  0  0  0  0  0  0  0  0
    0.8438   -3.3941    0.8144 C   0  0  0  0  0  0  0  0  0  0  0  0
   -8.6520    0.7041   -0.1382 C   0  0  0  0  0  0  0  0  0  0  0  0
  1 13  1  0
  1 23  1  0
  2 19  1  0
  2 29  1  0
  3 18  2  0
  4 20  2  0
  5 21  2  0
  6 29  2  0
  7 11  1  0
  7 12  1  0
  7 18  1  0
  8 13  1  0
  8 14  1  0
  8 16  1  0
  9 25  1  0
 10 29  1  0
 11 12  1  0
 11 13  1  0
 12 14  1  0
 13 15  1  0
 15 17  1  0
 15 19  1  0
 16 17  2  0
 16 20  1  0
 17 21  1  0
 18 22  1  0
 20 24  1  0
 21 25  1  0
 22 26  1  0
 24 25  2  0
 24 27  1  0
 26 28  1  0
 28 30  1  0
M  END
>  <PUBCHEM_COMPOUND_CID>  (1) 
28137

>  <PUBCHEM_CONFORMER_RMSD>  (1) 
1

>  <PUBCHEM_CONFORMER_DIVERSEORDER>  (1) 
4
57
18
25
59
17
69
44
52
30
23
48
34
45
13
19
3
54
66
50
8
64
61
22
31
46
38
24
9
41
70
15
68
49
29
1
67
40
6
5
65
51
28
43
21
26
71
60
39
2
35
56
58
62
36
27
37
47
42
16
10
20
55
53
63
33
14
72
11
12
7
32

>  <PUBCHEM_MMFF94_PARTIAL_CHARGES>  (1) 
33
1 -0.56
10 -0.8
11 -0.05
12 -0.05
13 0.74
14 0.46
15 0.14
16 0.11
17 -0.12
18 0.57
19 0.28
2 -0.43
20 0.54
21 0.54
22 0.06
23 0.28
24 -0.12
25 0.11
27 0.14
29 0.78
3 -0.57
31 0.1
32 0.1
4 -0.57
5 -0.57
50 0.4
51 0.4
55 0.37
56 0.37
6 -0.57
7 -0.36
8 -0.84
9 -0.9

>  <PUBCHEM_EFFECTIVE_ROTOR_COUNT>  (1) 
8.6

>  <PUBCHEM_PHARMACOPHORE_FEATURES>  (1) 
13
1 1 acceptor
1 10 donor
1 3 acceptor
1 30 hydrophobe
1 4 acceptor
1 5 acceptor
1 6 acceptor
1 8 cation
1 9 cation
1 9 donor
5 8 13 15 16 17 rings
6 16 17 20 21 24 25 rings
6 7 8 11 12 13 14 rings

>  <PUBCHEM_HEAVY_ATOM_COUNT>  (1) 
30

>  <PUBCHEM_ATOM_DEF_STEREO_COUNT>  (1) 
2

>  <PUBCHEM_ATOM_UDEF_STEREO_COUNT>  (1) 
2

>  <PUBCHEM_BOND_DEF_STEREO_COUNT>  (1) 
0

>  <PUBCHEM_BOND_UDEF_STEREO_COUNT>  (1) 
0

>  <PUBCHEM_ISOTOPIC_ATOM_COUNT>  (1) 
0

>  <PUBCHEM_COMPONENT_COUNT>  (1) 
1

>  <PUBCHEM_CACTVS_TAUTO_COUNT>  (1) 
42

>  <PUBCHEM_CONFORMER_ID>  (1) 
00006DE900000004

>  <PUBCHEM_MMFF94_ENERGY>  (1) 
99.3102

>  <PUBCHEM_FEATURE_SELFOVERLAP>  (1) 
66.144

>  <PUBCHEM_SHAPE_FINGERPRINT>  (1) 
10165383 225 18333454248960487780
10411042 1 17415294823635126838
10906281 52 16951432977893168725
11421498 54 14332865750426261519
11578080 2 17898293792609907525
12236239 1 16056884636961140021
12730499 353 18410016520688931619
13533116 47 18337110039455735331
14787075 74 17916586595093808002
14955137 171 8070022272753993555
15131766 46 17904762525113711804
15183329 4 17774723044926302769
15238133 3 14490474128751356773
16945 1 17488207961714112164
20157964 124 17561084721832259349
20197701 30 18340769337699768626
20554085 129 18334574650655057354
20567600 347 18259988166915016067
21033648 29 18266730458063286256
21049683 118 18127103459540765930
21285901 2 17313669231453588119
22224240 67 18335698373166584805
22393880 68 18343020017228564191
22956985 138 17243564305236574986
23419403 2 17462537556218953106
23558518 356 17694766811469943020
23559900 14 18339375126948779092
335352 9 17561089120633138388
3383291 50 18270125596575414798
34934 24 17560796667055036269
4073 2 18270963552824738851
4340502 62 18411982468637850143
57527293 21 17898551324183452056
57527306 92 17561077012645538432
59755656 215 18408887313509766177
59755656 520 18340480153615373822
70251023 43 17983304724407767991
81228 2 17757259754364646046
9999458 23 18413389860226759533

>  <PUBCHEM_SHAPE_MULTIPOLES>  (1) 
562.25
13.94
3
1.91
29.39
4.1
-0.63
-8.78
-0.14
-2.78
1.83
-1.11
0.09
1.44

>  <PUBCHEM_SHAPE_SELFOVERLAP>  (1) 
1211.013

>  <PUBCHEM_SHAPE_VOLUME>  (1) 
311.6

>  <PUBCHEM_COORDINATE_TYPE>  (1) 
2
5
10

$$$$
