28151
     RDKit          3D

 13 12  0  0  0  0  0  0  0  0999 V2000
    0.8326   -0.1048    0.0651 O   0  0  0  0  0  0  0  0  0  0  0  0
    2.0765    1.8152    0.3251 O   0  0  0  0  0  0  0  0  0  0  0  0
   -2.8808    0.4641    0.0007 C   0  0  0  0  0  0  0  0  0  0  0  0
   -4.1049   -0.4492   -0.1098 C   0  0  0  0  0  0  0  0  0  0  0  0
   -1.5536   -0.2923   -0.0299 C   0  0  0  0  0  0  0  0  0  0  0  0
   -5.4323    0.3099   -0.1040 C   0  0  0  0  0  0  0  0  0  0  0  0
   -0.3684    0.6530    0.1158 C   0  0  0  0  0  0  0  0  0  0  0  0
   -6.6165   -0.6443   -0.1425 C   0  0  0  0  0  0  0  0  0  0  0  0
    1.9945    0.6035    0.1827 C   0  0  0  0  0  0  0  0  0  0  0  0
    3.1636   -0.3243    0.1052 C   0  0  0  0  0  0  0  0  0  0  0  0
    3.0019   -1.7186    0.6340 C   0  0  0  0  0  0  0  0  0  0  0  0
    4.2911    0.1940   -0.4156 C   0  0  0  0  0  0  0  0  0  0  0  0
    5.5960   -0.5062   -0.6267 C   0  0  0  0  0  0  0  0  0  0  0  0
  1  7  1  0
  1  9  1  0
  2  9  2  0
  3  4  1  0
  3  5  1  0
  4  6  1  0
  5  7  1  0
  6  8  1  0
  9 10  1  0
 10 11  1  0
 10 12  2  0
 12 13  1  0
M  END
>  <PUBCHEM_COMPOUND_CID>  (1) 
28151

>  <PUBCHEM_CONFORMER_RMSD>  (1) 
0.8

>  <PUBCHEM_CONFORMER_DIVERSEORDER>  (1) 
1
178
68
183
149
245
32
85
73
184
54
164
169
167
185
72
207
84
162
47
33
130
15
90
168
233
5
157
119
74
234
114
91
191
250
26
211
204
202
4
126
237
247
229
186
248
87
62
206
79
109
213
196
144
179
65
200
67
23
180
92
101
208
182
2
122
111
7
210
24
195
66
116
6
226
187
136
190
46
3
80
217
147
13
251
11
188
29
14
95
81
150
131
163
134
181
35
37
12
240
194
31
198
59
159
174
129
41
146
120
241
177
110
235
154
8
42
205
158
112
121
221
70
231
176
113
93
98
244
60
17
45
105
165
118
108
143
115
44
189
203
214
82
43
222
27
125
104
48
100
57
128
228
127
138
52
170
172
199
10
58
99
89
151
156
21
56
40
242
224
117
19
201
173
38
61
124
83
53
212
141
193
137
25
215
249
103
94
133
39
152
132
160
209
123
34
96
171
220
166
36
22
230
155
76
77
106
139
232
69
16
227
102
20
55
148
63
107
75
135
225
140
9
219
175
142
49
50
71
64
145
78
246
153
197
236
239
86
192
223
28
218
18
97
30
243
238
216
51
88
161

>  <PUBCHEM_MMFF94_PARTIAL_CHARGES>  (1) 
9
1 -0.43
10 -0.12
11 0.14
12 -0.29
13 0.14
2 -0.57
30 0.15
7 0.28
9 0.71

>  <PUBCHEM_EFFECTIVE_ROTOR_COUNT>  (1) 
7

>  <PUBCHEM_PHARMACOPHORE_FEATURES>  (1) 
5
1 11 hydrophobe
1 13 hydrophobe
1 2 acceptor
1 8 hydrophobe
4 3 4 5 6 hydrophobe

>  <PUBCHEM_HEAVY_ATOM_COUNT>  (1) 
13

>  <PUBCHEM_ATOM_DEF_STEREO_COUNT>  (1) 
0

>  <PUBCHEM_ATOM_UDEF_STEREO_COUNT>  (1) 
0

>  <PUBCHEM_BOND_DEF_STEREO_COUNT>  (1) 
0

>  <PUBCHEM_BOND_UDEF_STEREO_COUNT>  (1) 
1

>  <PUBCHEM_ISOTOPIC_ATOM_COUNT>  (1) 
0

>  <PUBCHEM_COMPONENT_COUNT>  (1) 
1

>  <PUBCHEM_CACTVS_TAUTO_COUNT>  (1) 
1

>  <PUBCHEM_CONFORMER_ID>  (1) 
00006DF700000001

>  <PUBCHEM_MMFF94_ENERGY>  (1) 
9.5773

>  <PUBCHEM_FEATURE_SELFOVERLAP>  (1) 
25.374

>  <PUBCHEM_SHAPE_FINGERPRINT>  (1) 
114248 4 17095242518736841559
117890 112 10737275841156081207
12714333 28 14996285829281995366
13167823 11 18271239512958167471
13533116 47 13973694883923420206
13836976 161 18334300876977045822
14123238 8 17676206866462358567
14251718 22 17385726902484259767
14252887 29 17846223228869378302
15048467 5 11746934291846032863
15242433 33 18334295361727412371
15242439 84 18187365450139154273
17834072 33 18408323306482511845
17834072 8 18409727366152466119
17834076 25 17312822679923702903
20645477 70 18114740421981019210
20767249 213 11746938694076630919
21150785 3 13840267035634335043
23402539 116 16343699920489422733
23402655 69 18261388918958472181
23559900 14 18336542836809633265
26918003 58 11887951064575835143
351380 3 18202280303731770407
42788 4 18411982464274239645
465052 167 18273500073840492055
522135 26 18333729117623330130
57483677 66 18341327864596354839
58051976 100 18339639040199985263
8209 1 18407761439219493294

>  <PUBCHEM_SHAPE_MULTIPOLES>  (1) 
255.8
14.86
1.21
0.69
14.77
0.02
-0.01
3.24
-2.39
-0.9
0.2
-0.31
0.05
-0.13

>  <PUBCHEM_SHAPE_SELFOVERLAP>  (1) 
473.315

>  <PUBCHEM_SHAPE_VOLUME>  (1) 
161.4

>  <PUBCHEM_COORDINATE_TYPE>  (1) 
2
5
10

$$$$
