28159
     RDKit          3D

 12 12  0  0  0  0  0  0  0  0999 V2000
    3.0880    1.0979    0.0000 O   0  0  0  0  0  0  0  0  0  0  0  0
    3.0885   -1.0973    0.0002 O   0  0  0  0  0  0  0  0  0  0  0  0
   -3.1438    0.0002    0.0001 N   0  0  0  0  0  0  0  0  0  0  0  0
    2.4804    0.0001   -0.0001 N   0  0  0  0  0  0  0  0  0  0  0  0
   -1.0321    1.2079    0.0001 C   0  0  0  0  0  0  0  0  0  0  0  0
   -1.0321   -1.2081   -0.0006 C   0  0  0  0  0  0  0  0  0  0  0  0
   -1.7295    0.0000   -0.0004 C   0  0  0  0  0  0  0  0  0  0  0  0
    0.3628    1.2078    0.0002 C   0  0  0  0  0  0  0  0  0  0  0  0
    0.3628   -1.2081   -0.0003 C   0  0  0  0  0  0  0  0  0  0  0  0
    1.0602   -0.0002    0.0000 C   0  0  0  0  0  0  0  0  0  0  0  0
   -1.7530    2.5170    0.0001 C   0  0  0  0  0  0  0  0  0  0  0  0
   -1.7524   -2.5173    0.0006 C   0  0  0  0  0  0  0  0  0  0  0  0
  1  4  1  0
  2  4  2  0
  3  7  1  0
  4 10  1  0
  5  7  2  0
  5  8  1  0
  5 11  1  0
  6  7  1  0
  6  9  2  0
  6 12  1  0
  8 10  2  0
  9 10  1  0
M  CHG  2   1  -1   4   1
M  END
>  <PUBCHEM_COMPOUND_CID>  (1) 
28159

>  <PUBCHEM_CONFORMER_RMSD>  (1) 
0.4

>  <PUBCHEM_CONFORMER_DIVERSEORDER>  (1) 
1

>  <PUBCHEM_MMFF94_PARTIAL_CHARGES>  (1) 
16
1 -0.52
10 0.13
11 0.14
12 0.14
13 0.15
14 0.15
2 -0.52
21 0.4
22 0.4
3 -0.9
4 0.91
5 -0.14
6 -0.14
7 0.1
8 -0.15
9 -0.15

>  <PUBCHEM_EFFECTIVE_ROTOR_COUNT>  (1) 
1

>  <PUBCHEM_PHARMACOPHORE_FEATURES>  (1) 
6
1 1 acceptor
1 1 anion
1 2 acceptor
1 3 cation
1 3 donor
6 5 6 7 8 9 10 rings

>  <PUBCHEM_HEAVY_ATOM_COUNT>  (1) 
12

>  <PUBCHEM_ATOM_DEF_STEREO_COUNT>  (1) 
0

>  <PUBCHEM_ATOM_UDEF_STEREO_COUNT>  (1) 
0

>  <PUBCHEM_BOND_DEF_STEREO_COUNT>  (1) 
0

>  <PUBCHEM_BOND_UDEF_STEREO_COUNT>  (1) 
0

>  <PUBCHEM_ISOTOPIC_ATOM_COUNT>  (1) 
0

>  <PUBCHEM_COMPONENT_COUNT>  (1) 
1

>  <PUBCHEM_CACTVS_TAUTO_COUNT>  (1) 
1

>  <PUBCHEM_CONFORMER_ID>  (1) 
00006DFF00000001

>  <PUBCHEM_MMFF94_ENERGY>  (1) 
46.7511

>  <PUBCHEM_FEATURE_SELFOVERLAP>  (1) 
30.528

>  <PUBCHEM_SHAPE_FINGERPRINT>  (1) 
1 1 17761492487151627197
12716758 59 18340483370376735186
13024252 1 14779550071413389725
13380535 76 17976536118363776145
14325111 11 18338797806182569092
16945 1 18410575089010793735
19973954 147 18410857676779841860
20510252 161 18272087149869813337
20588541 1 18342744026492248831
20871998 184 18201162160346090327
21040471 1 18266741281401359936
2334 1 17978228592896648683
23402539 116 18342443829847897943
23402655 69 18051957149185267245
23552423 10 18116433837290720134
23559900 14 18342173380653719832
2748010 2 18051970613015468501
369184 2 18412261739953310178
5084963 1 18129940079017345344
81228 2 18409165549585140281

>  <PUBCHEM_SHAPE_MULTIPOLES>  (1) 
225.25
4.08
2.43
0.59
2.6
0
0
0
0
-1.5
0
-0.05
0
0

>  <PUBCHEM_SHAPE_SELFOVERLAP>  (1) 
471.003

>  <PUBCHEM_SHAPE_VOLUME>  (1) 
130.3

>  <PUBCHEM_COORDINATE_TYPE>  (1) 
2
5
10

$$$$
