28161
     RDKit          3D

 21 22  0  0  0  0  0  0  0  0999 V2000
   -2.4897   -1.9816    0.4207 O   0  0  0  0  0  0  0  0  0  0  0  0
    2.9665    2.1606    0.3620 O   0  0  0  0  0  0  0  0  0  0  0  0
    0.1872    1.9394    0.1324 O   0  0  0  0  0  0  0  0  0  0  0  0
   -1.8201    0.1028   -0.3345 N   0  0  0  0  0  0  0  0  0  0  0  0
    1.7529    0.2216   -0.0729 N   0  0  0  0  0  0  0  0  0  0  0  0
   -0.4895   -0.2354   -0.3070 N   0  0  0  0  0  0  0  0  0  0  0  0
   -4.1710   -0.3966    0.0114 C   0  0  0  0  0  0  0  0  0  0  0  0
    4.1866    0.1844    0.0505 C   0  0  0  0  0  0  0  0  0  0  0  0
   -5.1592   -1.3397   -0.1797 C   0  0  0  0  0  0  0  0  0  0  0  0
   -4.4529    0.9442    0.1693 C   0  0  0  0  0  0  0  0  0  0  0  0
    5.3429    0.8440   -0.3125 C   0  0  0  0  0  0  0  0  0  0  0  0
    4.1681   -1.1658    0.3340 C   0  0  0  0  0  0  0  0  0  0  0  0
   -2.7535   -0.8409    0.0490 C   0  0  0  0  0  0  0  0  0  0  0  0
    2.9196    0.9539    0.1396 C   0  0  0  0  0  0  0  0  0  0  0  0
   -6.4898   -0.9229   -0.2147 C   0  0  0  0  0  0  0  0  0  0  0  0
   -5.7836    1.3609    0.1343 C   0  0  0  0  0  0  0  0  0  0  0  0
    6.5331    0.1215   -0.3960 C   0  0  0  0  0  0  0  0  0  0  0  0
    5.3584   -1.8881    0.2506 C   0  0  0  0  0  0  0  0  0  0  0  0
   -6.8021    0.4273   -0.0576 C   0  0  0  0  0  0  0  0  0  0  0  0
    6.5408   -1.2445   -0.1145 C   0  0  0  0  0  0  0  0  0  0  0  0
    0.4552    0.7549   -0.0645 C   0  0  0  0  0  0  0  0  0  0  0  0
  1 13  2  0
  2 14  2  0
  3 21  2  0
  4  6  1  0
  4 13  1  0
  5 14  1  0
  5 21  1  0
  6 21  1  0
  7  9  2  0
  7 10  1  0
  7 13  1  0
  8 11  2  0
  8 12  1  0
  8 14  1  0
  9 15  1  0
 10 16  2  0
 11 17  1  0
 12 18  2  0
 15 19  2  0
 16 19  1  0
 17 20  2  0
 18 20  1  0
M  END
>  <PUBCHEM_COMPOUND_CID>  (1) 
28161

>  <PUBCHEM_CONFORMER_RMSD>  (1) 
0.8

>  <PUBCHEM_CONFORMER_DIVERSEORDER>  (1) 
1
4
5
6
2
3

>  <PUBCHEM_MMFF94_PARTIAL_CHARGES>  (1) 
34
1 -0.57
10 -0.15
11 -0.15
12 -0.15
13 0.54
14 0.54
15 -0.15
16 -0.15
17 -0.15
18 -0.15
19 -0.15
2 -0.57
20 -0.15
21 0.69
22 0.15
23 0.15
24 0.15
25 0.15
26 0.15
27 0.15
28 0.15
29 0.15
3 -0.57
30 0.37
31 0.37
32 0.15
33 0.15
34 0.37
4 -0.43
5 -0.49
6 -0.43
7 0.09
8 0.09
9 -0.15

>  <PUBCHEM_EFFECTIVE_ROTOR_COUNT>  (1) 
7

>  <PUBCHEM_PHARMACOPHORE_FEATURES>  (1) 
8
1 1 acceptor
1 2 acceptor
1 3 acceptor
1 4 donor
1 5 donor
1 6 donor
6 7 9 10 15 16 19 rings
6 8 11 12 17 18 20 rings

>  <PUBCHEM_HEAVY_ATOM_COUNT>  (1) 
21

>  <PUBCHEM_ATOM_DEF_STEREO_COUNT>  (1) 
0

>  <PUBCHEM_ATOM_UDEF_STEREO_COUNT>  (1) 
0

>  <PUBCHEM_BOND_DEF_STEREO_COUNT>  (1) 
0

>  <PUBCHEM_BOND_UDEF_STEREO_COUNT>  (1) 
0

>  <PUBCHEM_ISOTOPIC_ATOM_COUNT>  (1) 
0

>  <PUBCHEM_COMPONENT_COUNT>  (1) 
1

>  <PUBCHEM_CACTVS_TAUTO_COUNT>  (1) 
10

>  <PUBCHEM_CONFORMER_ID>  (1) 
00006E0100000001

>  <PUBCHEM_MMFF94_ENERGY>  (1) 
58.7163

>  <PUBCHEM_FEATURE_SELFOVERLAP>  (1) 
42.19

>  <PUBCHEM_SHAPE_FINGERPRINT>  (1) 
10 15 10591752166027086918
100830 39 18338516309947949429
10299344 5 18334016081805803822
10638233 991 16009039392514563596
11315181 36 18060423529956599633
11524674 6 17060617811236761311
11638347 137 14405190559969720662
11719270 70 17775004565923827214
12166972 35 18341614854063524257
12236239 1 18413671313717791713
125118 31 11743846867105687755
12516196 113 18273213105990850312
12616971 3 15769486621176490897
13533116 47 18341330011805761418
13685833 64 18408888446769235179
13885169 127 18412262800836898348
14123256 10 8070024467592817765
14251752 14 18334854983197093901
14251764 18 18342177773777379845
14617045 38 17967814933750477754
14933364 13 18408042913943217117
15183329 4 18408884018831903075
15537594 2 16153420666731021667
17844677 252 18411143558161311849
17857418 61 18411983550758436850
18006028 8 18060699485552343976
19489759 90 16630810993598103219
20281389 69 18408603660737008881
21236236 1 18341050710125012097
21267235 1 18410860961986542729
2215653 11 18408037424743021238
22224240 67 16343696639187072206
23016692 55 18411426098880151934
23035841 295 18113616776894524906
23402539 116 18273491295834420813
23522609 53 18193587556055305628
23536379 177 18411138030564230185
23559900 14 18340199808114893473
28498 318 18410008806590103383
3004659 81 18260266344005130642
335352 9 18411136948058411511
4073 2 18041846245796997042
4214541 1 18411136952812359769
4325135 7 18186242836372812892
4463277 17 18409449189330973372
465052 167 18272654554373993174
5104073 3 18200880677158935385
559249 180 18341891896760228487
59682541 35 10015569619623275669
59755656 215 18409732824507695382
59755656 520 18260826017009911463
6138700 20 18410293579906901579
9965369 4 18412825759796745561
999808 66 17822585983920111371

>  <PUBCHEM_SHAPE_MULTIPOLES>  (1) 
399.62
20.95
1.83
0.64
2.7
0
0
-3.77
0.98
-0.54
-0.19
-0.08
-0.02
-0.29

>  <PUBCHEM_SHAPE_SELFOVERLAP>  (1) 
855.33

>  <PUBCHEM_SHAPE_VOLUME>  (1) 
218.9

>  <PUBCHEM_COORDINATE_TYPE>  (1) 
2
5
10

$$$$
