28167
     RDKit          3D

  6  6  0  0  1  0  0  0  0  0999 V2000
   -0.5961    1.7988    0.1332 Cl  0  0  0  0  0  0  0  0  0  0  0  0
   -2.0274   -0.6716   -0.5680 Cl  0  0  0  0  0  0  0  0  0  0  0  0
    2.2611    0.1516   -0.4653 Cl  0  0  0  0  0  0  0  0  0  0  0  0
    0.1529   -0.6481    1.0827 O   0  0  0  0  0  0  0  0  0  0  0  0
   -0.5397    0.0470    0.0379 C   0  0  0  0  0  0  0  0  0  0  0  0
    0.7492   -0.6777   -0.2206 C   0  0  0  0  0  0  0  0  0  0  0  0
  1  5  1  0
  2  5  1  0
  3  6  1  0
  4  5  1  0
  4  6  1  0
  5  6  1  0
M  END
>  <PUBCHEM_COMPOUND_CID>  (1) 
28167

>  <PUBCHEM_CONFORMER_RMSD>  (1) 
0.4

>  <PUBCHEM_CONFORMER_DIVERSEORDER>  (1) 
1
2

>  <PUBCHEM_MMFF94_PARTIAL_CHARGES>  (1) 
7
1 -0.23
2 -0.23
3 -0.23
4 -0.3
5 0.6
6 0.28
7 0.1

>  <PUBCHEM_EFFECTIVE_ROTOR_COUNT>  (1) 
0.6

>  <PUBCHEM_PHARMACOPHORE_FEATURES>  (1) 
1
1 4 acceptor

>  <PUBCHEM_HEAVY_ATOM_COUNT>  (1) 
6

>  <PUBCHEM_ATOM_DEF_STEREO_COUNT>  (1) 
0

>  <PUBCHEM_ATOM_UDEF_STEREO_COUNT>  (1) 
1

>  <PUBCHEM_BOND_DEF_STEREO_COUNT>  (1) 
0

>  <PUBCHEM_BOND_UDEF_STEREO_COUNT>  (1) 
0

>  <PUBCHEM_ISOTOPIC_ATOM_COUNT>  (1) 
0

>  <PUBCHEM_COMPONENT_COUNT>  (1) 
1

>  <PUBCHEM_CACTVS_TAUTO_COUNT>  (1) 
1

>  <PUBCHEM_CONFORMER_ID>  (1) 
00006E0700000001

>  <PUBCHEM_MMFF94_ENERGY>  (1) 
4.4223

>  <PUBCHEM_FEATURE_SELFOVERLAP>  (1) 
5.074

>  <PUBCHEM_SHAPE_FINGERPRINT>  (1) 
16714656 1 18201721747339839423
20096714 4 17830747447572754060
21040471 1 17694493746028810873
29004967 10 18271530908707893015
5943 1 12835067279506655363

>  <PUBCHEM_SHAPE_MULTIPOLES>  (1) 
123.22
2.51
1.43
0.86
0.65
0.88
0.11
-0.46
-0.73
-0.44
0.01
0.01
-0.11
-0.14

>  <PUBCHEM_SHAPE_SELFOVERLAP>  (1) 
207.547

>  <PUBCHEM_SHAPE_VOLUME>  (1) 
84

>  <PUBCHEM_COORDINATE_TYPE>  (1) 
2
5
10

$$$$
