28173
     RDKit          3D

 20 22  0  0  0  0  0  0  0  0999 V2000
    2.8150    1.9830    0.9511 O   0  0  0  0  0  0  0  0  0  0  0  0
    4.1839    0.7112   -0.5697 O   0  0  0  0  0  0  0  0  0  0  0  0
   -1.4746   -2.1993   -0.1852 N   0  0  0  0  0  0  0  0  0  0  0  0
   -1.8587   -0.3685    1.3079 C   0  0  0  0  0  0  0  0  0  0  0  0
   -2.1806    1.0668    0.7832 C   0  0  0  0  0  0  0  0  0  0  0  0
   -0.9109   -1.1145    0.3510 C   0  0  0  0  0  0  0  0  0  0  0  0
   -2.8986    1.1201   -0.5736 C   0  0  0  0  0  0  0  0  0  0  0  0
   -1.3274   -0.2624    2.7578 C   0  0  0  0  0  0  0  0  0  0  0  0
   -3.1893   -1.1585    1.3898 C   0  0  0  0  0  0  0  0  0  0  0  0
    0.3584   -0.6352    0.1395 C   0  0  0  0  0  0  0  0  0  0  0  0
   -3.2129    2.5640   -0.9720 C   0  0  0  0  0  0  0  0  0  0  0  0
    1.1627   -1.3883   -0.7580 C   0  0  0  0  0  0  0  0  0  0  0  0
    0.8693    0.5231    0.7518 C   0  0  0  0  0  0  0  0  0  0  0  0
    2.1633    0.8968    0.4531 C   0  0  0  0  0  0  0  0  0  0  0  0
    2.4766   -0.9707   -1.0338 C   0  0  0  0  0  0  0  0  0  0  0  0
    0.6215   -2.5349   -1.3482 C   0  0  0  0  0  0  0  0  0  0  0  0
   -3.9556    2.6270   -2.2972 C   0  0  0  0  0  0  0  0  0  0  0  0
    2.9439    0.1712   -0.4143 C   0  0  0  0  0  0  0  0  0  0  0  0
   -0.6813   -2.8897   -1.0323 C   0  0  0  0  0  0  0  0  0  0  0  0
    4.0951    1.8588    0.2991 C   0  0  0  0  0  0  0  0  0  0  0  0
  1 14  1  0
  1 20  1  0
  2 18  1  0
  2 20  1  0
  3  6  1  0
  3 19  2  0
  4  5  1  0
  4  6  1  0
  4  8  1  0
  4  9  1  0
  5  7  1  0
  6 10  2  0
  7 11  1  0
 10 12  1  0
 10 13  1  0
 11 17  1  0
 12 15  1  0
 12 16  2  0
 13 14  2  0
 14 18  1  0
 15 18  2  0
 16 19  1  0
M  END
>  <PUBCHEM_COMPOUND_CID>  (1) 
28173

>  <PUBCHEM_CONFORMER_RMSD>  (1) 
0.6

>  <PUBCHEM_CONFORMER_DIVERSEORDER>  (1) 
1
8
4
3
2
5
6
7

>  <PUBCHEM_MMFF94_PARTIAL_CHARGES>  (1) 
16
1 -0.36
13 -0.15
14 0.08
15 -0.15
16 -0.15
18 0.08
19 0.16
2 -0.36
20 0.56
3 -0.62
33 0.15
34 0.15
35 0.15
39 0.15
4 0.14
6 0.17

>  <PUBCHEM_EFFECTIVE_ROTOR_COUNT>  (1) 
4.6

>  <PUBCHEM_PHARMACOPHORE_FEATURES>  (1) 
9
1 1 acceptor
1 17 hydrophobe
1 2 acceptor
1 3 acceptor
3 4 8 9 hydrophobe
4 4 5 7 11 hydrophobe
5 1 2 14 18 20 rings
6 10 12 13 14 15 18 rings
6 3 6 10 12 16 19 rings

>  <PUBCHEM_HEAVY_ATOM_COUNT>  (1) 
20

>  <PUBCHEM_ATOM_DEF_STEREO_COUNT>  (1) 
0

>  <PUBCHEM_ATOM_UDEF_STEREO_COUNT>  (1) 
0

>  <PUBCHEM_BOND_DEF_STEREO_COUNT>  (1) 
0

>  <PUBCHEM_BOND_UDEF_STEREO_COUNT>  (1) 
0

>  <PUBCHEM_ISOTOPIC_ATOM_COUNT>  (1) 
0

>  <PUBCHEM_COMPONENT_COUNT>  (1) 
1

>  <PUBCHEM_CACTVS_TAUTO_COUNT>  (1) 
1

>  <PUBCHEM_CONFORMER_ID>  (1) 
00006E0D00000001

>  <PUBCHEM_MMFF94_ENERGY>  (1) 
69.3299

>  <PUBCHEM_FEATURE_SELFOVERLAP>  (1) 
45.882

>  <PUBCHEM_SHAPE_FINGERPRINT>  (1) 
10871710 139 17254848983708709228
10967382 1 17844832397967922594
11045515 52 17550933128509994295
11221954 11 18188209788943619773
11582403 64 18042944541690357193
11725454 13 18041831810237692117
12077114 3 18335138700220449696
12173636 292 17488482895154944608
12403814 3 18267592496949236843
12730499 353 18267027159495223389
13134695 92 17033575065021832339
13140716 1 17987820573872567354
13294875 104 17172363183521969563
13464514 151 17905050248570453205
13583140 156 18187646937953262130
14468879 13 18334573529958957341
14614273 12 18128260171342600327
14790565 3 13077457104663300422
14817 1 16050175571648119427
14957384 54 18262223500304051424
16945 1 17053598726262369074
17349148 13 17489585615698569466
17357779 13 17198246048038499943
17876694 64 16154289307272233127
18186145 218 17917167064740991084
18219364 16 18270976681864484200
192875 21 17915169109983801674
20510252 161 17272022153107438322
21160774 45 17986959737450085707
21296965 12 18408610266285492227
21427221 339 13263546664809676541
21639500 275 18129385890934468231
22182313 1 18339373993013875526
22907989 373 18055069028050546212
23557571 272 17968961746306330003
23559900 14 17416989356159122476
238 59 18128245697471442997
25 1 18198912413436893549
2748010 2 18340504282372026186
427121 178 17170116928706346093
4921388 177 12175632762707986833
5895379 119 16899020104769668309
633830 44 17417270752766150800
81228 2 17552632964949199058

>  <PUBCHEM_SHAPE_MULTIPOLES>  (1) 
394.87
6.57
3.1
1.91
1.41
0.26
-0.48
-6.1
1.62
-1.27
1.62
-1.77
-0.09
2.55

>  <PUBCHEM_SHAPE_SELFOVERLAP>  (1) 
855.54

>  <PUBCHEM_SHAPE_VOLUME>  (1) 
218.4

>  <PUBCHEM_COORDINATE_TYPE>  (1) 
2
5
10

$$$$
