28182
     RDKit          3D

 14 15  0  0  0  0  0  0  0  0999 V2000
    3.5890    1.1465    0.3890 S   0  0  0  0  0  0  0  0  0  0  0  0
   -1.2735    0.9366   -0.1074 N   0  0  0  0  0  0  0  0  0  0  0  0
   -0.1661    0.1833   -0.2262 N   0  0  0  0  0  0  0  0  0  0  0  0
   -3.0355   -1.3645    0.7460 C   0  0  0  0  0  0  0  0  0  0  0  0
   -3.8460   -0.7420   -0.3870 C   0  0  0  0  0  0  0  0  0  0  0  0
   -2.4038   -0.3790    1.7292 C   0  0  0  0  0  0  0  0  0  0  0  0
   -2.9711   -0.2562   -1.5440 C   0  0  0  0  0  0  0  0  0  0  0  0
   -1.9621    0.9771    1.1768 C   0  0  0  0  0  0  0  0  0  0  0  0
   -2.1686    1.0124   -1.2565 C   0  0  0  0  0  0  0  0  0  0  0  0
    0.9170    0.8331    0.0588 C   0  0  0  0  0  0  0  0  0  0  0  0
    2.2285    0.2088   -0.0085 C   0  0  0  0  0  0  0  0  0  0  0  0
    2.5294   -1.0713   -0.3589 C   0  0  0  0  0  0  0  0  0  0  0  0
    3.9339   -1.3037   -0.3019 C   0  0  0  0  0  0  0  0  0  0  0  0
    4.6288   -0.1810    0.0907 C   0  0  0  0  0  0  0  0  0  0  0  0
  1 11  1  0
  1 14  1  0
  2  3  1  0
  2  8  1  0
  2  9  1  0
  3 10  2  0
  4  5  1  0
  4  6  1  0
  5  7  1  0
  6  8  1  0
  7  9  1  0
 10 11  1  0
 11 12  2  0
 12 13  1  0
 13 14  2  0
M  END
>  <PUBCHEM_COMPOUND_CID>  (1) 
28182

>  <PUBCHEM_CONFORMER_RMSD>  (1) 
0.6

>  <PUBCHEM_CONFORMER_DIVERSEORDER>  (1) 
1
18
11
12
19
4
20
21
13
2
10
22
15
14
17
7
6
8
9
3
16
5

>  <PUBCHEM_MMFF94_PARTIAL_CHARGES>  (1) 
14
1 -0.08
10 0.47
11 -0.05
12 -0.15
13 -0.15
14 -0.11
2 -0.49
27 0.06
28 0.15
29 0.15
3 -0.5
30 0.15
8 0.27
9 0.27

>  <PUBCHEM_EFFECTIVE_ROTOR_COUNT>  (1) 
3.4

>  <PUBCHEM_PHARMACOPHORE_FEATURES>  (1) 
3
1 3 acceptor
5 1 11 12 13 14 rings
7 2 4 5 6 7 8 9 rings

>  <PUBCHEM_HEAVY_ATOM_COUNT>  (1) 
14

>  <PUBCHEM_ATOM_DEF_STEREO_COUNT>  (1) 
0

>  <PUBCHEM_ATOM_UDEF_STEREO_COUNT>  (1) 
0

>  <PUBCHEM_BOND_DEF_STEREO_COUNT>  (1) 
0

>  <PUBCHEM_BOND_UDEF_STEREO_COUNT>  (1) 
1

>  <PUBCHEM_ISOTOPIC_ATOM_COUNT>  (1) 
0

>  <PUBCHEM_COMPONENT_COUNT>  (1) 
1

>  <PUBCHEM_CACTVS_TAUTO_COUNT>  (1) 
1

>  <PUBCHEM_CONFORMER_ID>  (1) 
00006E1600000001

>  <PUBCHEM_MMFF94_ENERGY>  (1) 
20.1378

>  <PUBCHEM_FEATURE_SELFOVERLAP>  (1) 
15.223

>  <PUBCHEM_SHAPE_FINGERPRINT>  (1) 
11127187 94 17023184959375325587
11137873 295 18334579010110243803
11543360 7 16660656167329391478
11615757 297 17846498157994169968
12251169 10 15267062566486529857
12932764 1 16008755701419454508
13024252 1 13984665854491218129
13296908 3 18260548913892644028
13693222 15 18131634490891905952
14123260 362 12685098055180252839
14144814 61 17346877836654716332
14289901 80 17775282755508492642
15239191 94 18060702779855427118
15309172 13 17561084708809883030
15375462 189 17418093230502791842
17870717 6 17458349606459517682
18186145 218 17967819319106823888
19050596 39 17632861923319641848
19422 9 17346600759819384420
19862831 5 14707207729660051888
200 152 18202558492979170327
20279233 1 17967531268355724522
20645476 183 14273453704117293603
20645477 56 17168137893564899717
20645477 70 18342167822396554526
20871999 31 16732976536098699455
21650355 55 15195276573707001247
22169311 21 17967809436234094994
22485316 2 18413107259973541082
22646028 28 18131348600889340174
23402539 116 15068622678426393278
23557571 272 17676481744411929884
23559900 14 17603577518204868344
27216 239 11600002150553095471
4028521 119 10015595951920542003
4175511 318 15574711383215984367
4921388 177 16515694333535297787
74978 22 13479143418567613292
90316 7 16415490337095680241
9882013 296 17346883364071937006

>  <PUBCHEM_SHAPE_MULTIPOLES>  (1) 
282
8.84
1.38
1.3
5.39
0.08
-0.09
2.24
0.06
0.33
-0.06
-1.68
-0.04
0.32

>  <PUBCHEM_SHAPE_SELFOVERLAP>  (1) 
561.95

>  <PUBCHEM_SHAPE_VOLUME>  (1) 
166.3

>  <PUBCHEM_COORDINATE_TYPE>  (1) 
2
5
10

$$$$
