28207
     RDKit          3D

 14 14  0  0  0  0  0  0  0  0999 V2000
    2.8858    0.2853    0.4983 O   0  0  0  0  0  0  0  0  0  0  0  0
   -3.4266    1.5748    0.0707 O   0  0  0  0  0  0  0  0  0  0  0  0
   -2.5511   -0.6028   -0.1574 N   0  0  0  0  0  0  0  0  0  0  0  0
    1.9655   -2.3325    0.0304 N   0  0  0  0  0  0  0  0  0  0  0  0
    1.5531    0.0511    0.3348 C   0  0  0  0  0  0  0  0  0  0  0  0
   -1.1828   -0.3851    0.0066 C   0  0  0  0  0  0  0  0  0  0  0  0
    1.0754   -1.2386    0.1022 C   0  0  0  0  0  0  0  0  0  0  0  0
   -0.2925   -1.4567   -0.0620 C   0  0  0  0  0  0  0  0  0  0  0  0
    0.6628    1.1226    0.4036 C   0  0  0  0  0  0  0  0  0  0  0  0
   -0.7051    0.9045    0.2395 C   0  0  0  0  0  0  0  0  0  0  0  0
    3.5059    1.1727   -0.4297 C   0  0  0  0  0  0  0  0  0  0  0  0
    4.9595    0.7816   -0.5902 C   0  0  0  0  0  0  0  0  0  0  0  0
   -3.5445    0.3679   -0.1132 C   0  0  0  0  0  0  0  0  0  0  0  0
   -4.9054   -0.2448   -0.3336 C   0  0  0  0  0  0  0  0  0  0  0  0
  1  5  1  0
  1 11  1  0
  2 13  2  0
  3  6  1  0
  3 13  1  0
  4  7  1  0
  5  7  2  0
  5  9  1  0
  6  8  2  0
  6 10  1  0
  7  8  1  0
  9 10  2  0
 11 12  1  0
 13 14  1  0
M  END
>  <PUBCHEM_COMPOUND_CID>  (1) 
28207

>  <PUBCHEM_CONFORMER_RMSD>  (1) 
0.6

>  <PUBCHEM_CONFORMER_DIVERSEORDER>  (1) 
1
15
14
10
9
16
13
3
5
6
11
12
7
8
2
4

>  <PUBCHEM_MMFF94_PARTIAL_CHARGES>  (1) 
19
1 -0.36
10 -0.15
11 0.28
13 0.57
14 0.06
15 0.15
16 0.15
17 0.15
18 0.37
2 -0.57
21 0.4
22 0.4
3 -0.55
4 -0.9
5 0.08
6 0.12
7 0.1
8 -0.15
9 -0.15

>  <PUBCHEM_EFFECTIVE_ROTOR_COUNT>  (1) 
4

>  <PUBCHEM_PHARMACOPHORE_FEATURES>  (1) 
6
1 1 acceptor
1 2 acceptor
1 3 donor
1 4 cation
1 4 donor
6 5 6 7 8 9 10 rings

>  <PUBCHEM_HEAVY_ATOM_COUNT>  (1) 
14

>  <PUBCHEM_ATOM_DEF_STEREO_COUNT>  (1) 
0

>  <PUBCHEM_ATOM_UDEF_STEREO_COUNT>  (1) 
0

>  <PUBCHEM_BOND_DEF_STEREO_COUNT>  (1) 
0

>  <PUBCHEM_BOND_UDEF_STEREO_COUNT>  (1) 
0

>  <PUBCHEM_ISOTOPIC_ATOM_COUNT>  (1) 
0

>  <PUBCHEM_COMPONENT_COUNT>  (1) 
1

>  <PUBCHEM_CACTVS_TAUTO_COUNT>  (1) 
2

>  <PUBCHEM_CONFORMER_ID>  (1) 
00006E2F00000001

>  <PUBCHEM_MMFF94_ENERGY>  (1) 
54.2918

>  <PUBCHEM_FEATURE_SELFOVERLAP>  (1) 
30.446

>  <PUBCHEM_SHAPE_FINGERPRINT>  (1) 
10980938 120 18341609287453092315
11031198 65 18410857667767875206
11401426 45 18272929457855529280
11471102 20 18410570678079452270
11543360 7 15482099595928049096
12251169 10 8358260340986339145
12346645 44 18410292505900995681
12644460 14 18187649051014076058
12932764 1 17346019131105953257
13380535 76 18407760352213342578
13760787 19 17749104534528600546
14325111 11 18339920425029523945
14415576 193 18334579044559835060
14576447 43 18058149782971029167
14897335 6 18410854369354440994
14911166 2 18272373109066420820
14993402 34 18410011073884676420
15536298 74 18271806770457720958
16945 1 18342444984835417155
18186145 218 17896320221088574599
187816 3 17988932197212789160
20645476 183 18042411403553492670
20645477 70 18340767035702949015
21501502 16 18197499519541555129
231179 274 17603859005396587612
23402539 116 18272085041768624268
23402655 69 18342166736181129133
25 1 18409164420019206224
3071541 37 18408042892690076110
366044 4 18409730698883628794
449060 50 18259988180210795909
449060 62 18412545392436365354
4990 188 17847068787264649284
53812653 166 18272080634456834936
57096353 35 18272079509571003325
58051976 378 18410575093295374245
7364860 26 18269837523858225126
81539 233 18186236221464189858

>  <PUBCHEM_SHAPE_MULTIPOLES>  (1) 
266.41
8.45
1.69
0.68
1.28
0.67
-0.01
-2.78
-1.87
-0.59
0.02
-0.18
-0.05
-0.29

>  <PUBCHEM_SHAPE_SELFOVERLAP>  (1) 
544.285

>  <PUBCHEM_SHAPE_VOLUME>  (1) 
153.6

>  <PUBCHEM_COORDINATE_TYPE>  (1) 
2
5
10

$$$$
