28206
     RDKit          3D

 17 19  0  0  0  0  0  0  0  0999 V2000
    4.7129   -1.1506   -0.0005 O   0  0  0  0  0  0  0  0  0  0  0  0
    4.5713    1.0401   -0.0006 O   0  0  0  0  0  0  0  0  0  0  0  0
    4.0348   -0.0945   -0.0001 N   0  0  0  0  0  0  0  0  0  0  0  0
   -0.2213   -0.3594    0.0002 C   0  0  0  0  0  0  0  0  0  0  0  0
   -1.6608   -0.3971    0.0000 C   0  0  0  0  0  0  0  0  0  0  0  0
    0.4383    0.8975    0.0001 C   0  0  0  0  0  0  0  0  0  0  0  0
   -2.3853    0.8234    0.0001 C   0  0  0  0  0  0  0  0  0  0  0  0
   -0.3098    2.0775    0.0001 C   0  0  0  0  0  0  0  0  0  0  0  0
   -1.7003    2.0411    0.0001 C   0  0  0  0  0  0  0  0  0  0  0  0
    0.6046   -1.5113    0.0004 C   0  0  0  0  0  0  0  0  0  0  0  0
    1.8418    0.9684    0.0002 C   0  0  0  0  0  0  0  0  0  0  0  0
   -2.4252   -1.5908   -0.0002 C   0  0  0  0  0  0  0  0  0  0  0  0
    2.6183   -0.1861    0.0004 C   0  0  0  0  0  0  0  0  0  0  0  0
   -3.7908    0.8207   -0.0001 C   0  0  0  0  0  0  0  0  0  0  0  0
    1.9996   -1.4266    0.0005 C   0  0  0  0  0  0  0  0  0  0  0  0
   -3.8227   -1.5794   -0.0003 C   0  0  0  0  0  0  0  0  0  0  0  0
   -4.5056   -0.3731   -0.0003 C   0  0  0  0  0  0  0  0  0  0  0  0
  1  3  1  0
  2  3  2  0
  3 13  1  0
  4  5  2  0
  4  6  1  0
  4 10  1  0
  5  7  1  0
  5 12  1  0
  6  8  2  0
  6 11  1  0
  7  9  2  0
  7 14  1  0
  8  9  1  0
 10 15  2  0
 11 13  2  0
 12 16  2  0
 13 15  1  0
 14 17  2  0
 16 17  1  0
M  CHG  2   1  -1   3   1
M  END
>  <PUBCHEM_COMPOUND_CID>  (1) 
28206

>  <PUBCHEM_CONFORMER_RMSD>  (1) 
0.6

>  <PUBCHEM_CONFORMER_DIVERSEORDER>  (1) 
1

>  <PUBCHEM_MMFF94_PARTIAL_CHARGES>  (1) 
22
1 -0.52
10 -0.15
11 -0.15
12 -0.15
13 0.13
14 -0.15
15 -0.15
16 -0.15
17 -0.15
18 0.15
19 0.15
2 -0.52
20 0.15
21 0.15
22 0.15
23 0.15
24 0.15
25 0.15
26 0.15
3 0.91
8 -0.15
9 -0.15

>  <PUBCHEM_EFFECTIVE_ROTOR_COUNT>  (1) 
1

>  <PUBCHEM_PHARMACOPHORE_FEATURES>  (1) 
6
1 1 acceptor
1 1 anion
1 2 acceptor
6 4 5 6 7 8 9 rings
6 4 6 10 11 13 15 rings
6 5 7 12 14 16 17 rings

>  <PUBCHEM_HEAVY_ATOM_COUNT>  (1) 
17

>  <PUBCHEM_ATOM_DEF_STEREO_COUNT>  (1) 
0

>  <PUBCHEM_ATOM_UDEF_STEREO_COUNT>  (1) 
0

>  <PUBCHEM_BOND_DEF_STEREO_COUNT>  (1) 
0

>  <PUBCHEM_BOND_UDEF_STEREO_COUNT>  (1) 
0

>  <PUBCHEM_ISOTOPIC_ATOM_COUNT>  (1) 
0

>  <PUBCHEM_COMPONENT_COUNT>  (1) 
1

>  <PUBCHEM_CACTVS_TAUTO_COUNT>  (1) 
1

>  <PUBCHEM_CONFORMER_ID>  (1) 
00006E2E00000001

>  <PUBCHEM_MMFF94_ENERGY>  (1) 
59.862

>  <PUBCHEM_FEATURE_SELFOVERLAP>  (1) 
30.576

>  <PUBCHEM_SHAPE_FINGERPRINT>  (1) 
10062212 137 18409162229580909331
10616163 171 18411983533447153591
10967382 1 18410855451828656871
11132069 177 18411415115852288200
11806522 49 18409448123915145021
12032990 46 18411421730133539915
12236239 1 17821728325989686440
12403814 3 17676205754292877461
13140716 1 18267312100267728305
13214271 11 18342172276198226623
13221675 6 18411981355829844399
13288520 33 18412547587375630790
13862211 1 18410849975513447279
14115302 16 17822582693183838783
15196674 1 18410575088973889956
15442244 35 18121499046815660218
15536298 74 18270961357511122104
16945 1 18410573938234098853
17804303 29 18342177782246215969
18522853 276 18411982472637333921
19141452 34 18131353037975964767
200 152 18131063857832796935
20510252 161 18200595778814110801
21029758 11 18342171189740610897
21029758 27 18260837037552692485
21267235 1 18410302427750436915
21501502 16 18266457594490072811
221490 88 18046913950629065099
2297311 6 18270975574042483854
23402539 116 18411974771666234767
23463225 33 18408603664620006381
23557571 272 18201166455397606900
23559900 14 18197494013831604198
2748010 2 18194394722391226429
2871803 45 18335415759754547751
3312278 4 18410575067820865441
335352 9 18410856534471626269
34934 24 18409442558186207479
4214541 1 18338797814640504960
43471831 8 18262233318314609538
474 4 17096658784751824484
5104073 3 18411418401576071504
7364860 26 18197216068975242953
8809292 202 18260832648032975035
9709674 26 18411706447884931910

>  <PUBCHEM_SHAPE_MULTIPOLES>  (1) 
333.13
8.25
2.03
0.6
4.06
0.33
0
-1.67
0
-0.58
0
-0.07
0
0

>  <PUBCHEM_SHAPE_SELFOVERLAP>  (1) 
751.512

>  <PUBCHEM_SHAPE_VOLUME>  (1) 
176.3

>  <PUBCHEM_COORDINATE_TYPE>  (1) 
2
5
10

$$$$
