28219
     RDKit          3D

 32 33  0  0  0  0  0  0  0  0999 V2000
   -1.7821   -0.4709    0.1058 O   0  0  0  0  0  0  0  0  0  0  0  0
    4.4712   -0.3023   -0.4168 O   0  0  0  0  0  0  0  0  0  0  0  0
    2.6691   -2.4041   -0.3406 O   0  0  0  0  0  0  0  0  0  0  0  0
    3.5478    2.3026   -0.2391 O   0  0  0  0  0  0  0  0  0  0  0  0
   -2.9679   -0.4105    2.6081 O   0  0  0  0  0  0  0  0  0  0  0  0
   -1.5168    1.8437    0.1833 O   0  0  0  0  0  0  0  0  0  0  0  0
   -5.7064   -0.0554    2.8193 O   0  0  0  0  0  0  0  0  0  0  0  0
   -5.3577    0.1249   -3.1487 O   0  0  0  0  0  0  0  0  0  0  0  0
   -7.3220    0.3434   -2.0261 O   0  0  0  0  0  0  0  0  0  0  0  0
    4.2281   -0.2067   -2.7431 O   0  0  0  0  0  0  0  0  0  0  0  0
    2.8620   -2.4533    1.9919 O   0  0  0  0  0  0  0  0  0  0  0  0
    3.7244    2.1842    2.0921 O   0  0  0  0  0  0  0  0  0  0  0  0
    0.4045    0.4489   -0.0330 C   0  0  0  0  0  0  0  0  0  0  0  0
    3.1359   -0.0558   -0.2922 C   0  0  0  0  0  0  0  0  0  0  0  0
    2.2314   -1.1169   -0.2529 C   0  0  0  0  0  0  0  0  0  0  0  0
    2.6749    1.2575   -0.2018 C   0  0  0  0  0  0  0  0  0  0  0  0
    0.8657   -0.8645   -0.1233 C   0  0  0  0  0  0  0  0  0  0  0  0
    1.3090    1.5098   -0.0723 C   0  0  0  0  0  0  0  0  0  0  0  0
   -1.0495    0.7177    0.1020 C   0  0  0  0  0  0  0  0  0  0  0  0
   -3.1283   -0.2986    0.2271 C   0  0  0  0  0  0  0  0  0  0  0  0
   -3.7286   -0.2664    1.4857 C   0  0  0  0  0  0  0  0  0  0  0  0
   -3.9069   -0.1531   -0.9210 C   0  0  0  0  0  0  0  0  0  0  0  0
   -5.2861    0.0245   -0.8106 C   0  0  0  0  0  0  0  0  0  0  0  0
   -5.1077   -0.0889    1.5962 C   0  0  0  0  0  0  0  0  0  0  0  0
   -5.8865    0.0566    0.4481 C   0  0  0  0  0  0  0  0  0  0  0  0
   -6.0978    0.1789   -2.0075 C   0  0  0  0  0  0  0  0  0  0  0  0
    4.9208   -0.3565   -1.7453 C   0  0  0  0  0  0  0  0  0  0  0  0
    2.9650   -2.9939    0.8986 C   0  0  0  0  0  0  0  0  0  0  0  0
    4.0268    2.6940    1.0214 C   0  0  0  0  0  0  0  0  0  0  0  0
    6.3951   -0.6311   -1.7755 C   0  0  0  0  0  0  0  0  0  0  0  0
    3.4363   -4.4034    0.6959 C   0  0  0  0  0  0  0  0  0  0  0  0
    4.9763    3.8459    0.8740 C   0  0  0  0  0  0  0  0  0  0  0  0
  1 19  1  0
  1 20  1  0
  2 14  1  0
  2 27  1  0
  3 15  1  0
  3 28  1  0
  4 16  1  0
  4 29  1  0
  5 21  1  0
  6 19  2  0
  7 24  1  0
  8 26  1  0
  9 26  2  0
 10 27  2  0
 11 28  2  0
 12 29  2  0
 13 17  2  0
 13 18  1  0
 13 19  1  0
 14 15  2  0
 14 16  1  0
 15 17  1  0
 16 18  2  0
 20 21  2  0
 20 22  1  0
 21 24  1  0
 22 23  2  0
 23 25  1  0
 23 26  1  0
 24 25  2  0
 27 30  1  0
 28 31  1  0
 29 32  1  0
M  END
>  <PUBCHEM_COMPOUND_CID>  (1) 
28219

>  <PUBCHEM_CONFORMER_RMSD>  (1) 
1

>  <PUBCHEM_CONFORMER_DIVERSEORDER>  (1) 
1
37
26
30
12
14
17
34
32
29
13
27
10
6
33
22
19
18
16
5
15
21
35
23
11
20
25
36
31
28
9
4
24
8
2
7
3

>  <PUBCHEM_MMFF94_PARTIAL_CHARGES>  (1) 
39
1 -0.23
10 -0.57
11 -0.57
12 -0.57
13 0.09
14 0.08
15 0.08
16 0.08
17 -0.15
18 -0.15
19 0.63
2 -0.23
20 0.08
21 0.08
22 -0.15
23 0.09
24 0.08
25 -0.15
26 0.63
27 0.66
28 0.66
29 0.66
3 -0.23
30 0.06
31 0.06
32 0.06
33 0.15
34 0.15
35 0.15
36 0.15
37 0.45
38 0.45
4 -0.23
48 0.5
5 -0.53
6 -0.57
7 -0.53
8 -0.65
9 -0.57

>  <PUBCHEM_EFFECTIVE_ROTOR_COUNT>  (1) 
10

>  <PUBCHEM_PHARMACOPHORE_FEATURES>  (1) 
11
1 10 acceptor
1 11 acceptor
1 12 acceptor
1 5 donor
1 6 acceptor
1 7 donor
1 8 acceptor
1 9 acceptor
3 8 9 26 anion
6 13 14 15 16 17 18 rings
6 20 21 22 23 24 25 rings

>  <PUBCHEM_HEAVY_ATOM_COUNT>  (1) 
32

>  <PUBCHEM_ATOM_DEF_STEREO_COUNT>  (1) 
0

>  <PUBCHEM_ATOM_UDEF_STEREO_COUNT>  (1) 
0

>  <PUBCHEM_BOND_DEF_STEREO_COUNT>  (1) 
0

>  <PUBCHEM_BOND_UDEF_STEREO_COUNT>  (1) 
0

>  <PUBCHEM_ISOTOPIC_ATOM_COUNT>  (1) 
0

>  <PUBCHEM_COMPONENT_COUNT>  (1) 
1

>  <PUBCHEM_CACTVS_TAUTO_COUNT>  (1) 
12

>  <PUBCHEM_CONFORMER_ID>  (1) 
00006E3B00000001

>  <PUBCHEM_MMFF94_ENERGY>  (1) 
107.4491

>  <PUBCHEM_FEATURE_SELFOVERLAP>  (1) 
55.886

>  <PUBCHEM_SHAPE_FINGERPRINT>  (1) 
10366900 7 18334871497609948608
10835480 77 17312825952915811727
11135926 11 18334869285623208814
11443803 9 17201902942788475600
12236239 1 17489594485074905097
12616971 3 17560814225044879177
131258 43 17980205189431484902
13533116 47 18262235521827712259
15183329 4 18272644607572737661
17349148 13 17846494808220521943
18222031 100 17703783691844791439
18681886 176 17203609277011935686
20511986 3 17703498970184333585
21033648 144 18342457097065263261
21033648 29 17822288007430901613
22393880 68 18338799021489859990
23522609 53 16772135694082734385
23559900 14 17531247206080173531
23569914 152 17403724563595841871
239999 70 18202569488501610780
29717793 49 17561366179760742789
3004659 81 17775278357562286527
3178227 256 18337124418900663074
32027 91 18189047608330465835
3633792 109 17988637485410727077
3882209 13 16524662813761268667
4403749 210 17830445438669060424
504579 68 16916790720866721333

>  <PUBCHEM_SHAPE_MULTIPOLES>  (1) 
588.11
16.9
3.25
2.41
18.45
1.05
-0.41
-1.89
-5.87
-8.81
1.95
2.55
0.18
1.08

>  <PUBCHEM_SHAPE_SELFOVERLAP>  (1) 
1265.752

>  <PUBCHEM_SHAPE_VOLUME>  (1) 
316.4

>  <PUBCHEM_COORDINATE_TYPE>  (1) 
2
5
10

$$$$
