28210
     RDKit          3D

 15 16  0  0  0  0  0  0  0  0999 V2000
    5.9642   -0.6081    0.0123 N   0  0  0  0  0  0  0  0  0  0  0  0
    2.3064    0.4208   -0.0003 C   0  0  0  0  0  0  0  0  0  0  0  0
    3.7902    0.5707   -0.0001 C   0  0  0  0  0  0  0  0  0  0  0  0
   -0.4694    0.1412   -0.0001 C   0  0  0  0  0  0  0  0  0  0  0  0
    1.6110    0.3626   -1.2083 C   0  0  0  0  0  0  0  0  0  0  0  0
    1.6137    0.3390    1.2077 C   0  0  0  0  0  0  0  0  0  0  0  0
   -1.9090   -0.0045    0.0004 C   0  0  0  0  0  0  0  0  0  0  0  0
    0.2232    0.2230   -1.2080 C   0  0  0  0  0  0  0  0  0  0  0  0
    0.2259    0.1993    1.2079 C   0  0  0  0  0  0  0  0  0  0  0  0
    4.5158   -0.7809   -0.0139 C   0  0  0  0  0  0  0  0  0  0  0  0
   -2.7244    1.1273    0.0117 C   0  0  0  0  0  0  0  0  0  0  0  0
   -2.4815   -1.2764   -0.0110 C   0  0  0  0  0  0  0  0  0  0  0  0
   -4.1122    0.9871    0.0119 C   0  0  0  0  0  0  0  0  0  0  0  0
   -3.8694   -1.4164   -0.0109 C   0  0  0  0  0  0  0  0  0  0  0  0
   -4.6846   -0.2847    0.0006 C   0  0  0  0  0  0  0  0  0  0  0  0
  1 10  1  0
  2  3  1  0
  2  5  2  0
  2  6  1  0
  3 10  1  0
  4  7  1  0
  4  8  2  0
  4  9  1  0
  5  8  1  0
  6  9  2  0
  7 11  2  0
  7 12  1  0
 11 13  1  0
 12 14  2  0
 13 15  2  0
 14 15  1  0
M  END
>  <PUBCHEM_COMPOUND_CID>  (1) 
28210

>  <PUBCHEM_CONFORMER_RMSD>  (1) 
0.6

>  <PUBCHEM_CONFORMER_DIVERSEORDER>  (1) 
1
6
5
4
2
3

>  <PUBCHEM_MMFF94_PARTIAL_CHARGES>  (1) 
24
1 -0.99
10 0.27
11 -0.15
12 -0.15
13 -0.15
14 -0.15
15 -0.15
18 0.15
19 0.15
2 -0.14
20 0.15
21 0.15
24 0.15
25 0.15
26 0.15
27 0.15
28 0.36
29 0.36
3 0.14
30 0.15
5 -0.15
6 -0.15
8 -0.15
9 -0.15

>  <PUBCHEM_EFFECTIVE_ROTOR_COUNT>  (1) 
3

>  <PUBCHEM_PHARMACOPHORE_FEATURES>  (1) 
4
1 1 cation
1 1 donor
6 2 4 5 6 8 9 rings
6 7 11 12 13 14 15 rings

>  <PUBCHEM_HEAVY_ATOM_COUNT>  (1) 
15

>  <PUBCHEM_ATOM_DEF_STEREO_COUNT>  (1) 
0

>  <PUBCHEM_ATOM_UDEF_STEREO_COUNT>  (1) 
0

>  <PUBCHEM_BOND_DEF_STEREO_COUNT>  (1) 
0

>  <PUBCHEM_BOND_UDEF_STEREO_COUNT>  (1) 
0

>  <PUBCHEM_ISOTOPIC_ATOM_COUNT>  (1) 
0

>  <PUBCHEM_COMPONENT_COUNT>  (1) 
1

>  <PUBCHEM_CACTVS_TAUTO_COUNT>  (1) 
1

>  <PUBCHEM_CONFORMER_ID>  (1) 
00006E3200000001

>  <PUBCHEM_MMFF94_ENERGY>  (1) 
39.0495

>  <PUBCHEM_FEATURE_SELFOVERLAP>  (1) 
20.297

>  <PUBCHEM_SHAPE_FINGERPRINT>  (1) 
10465860 250 17989487415766018464
11796584 16 18343022177069820694
12236239 1 17821730550650955029
124424 183 17846777412203587825
12500047 106 18342452638905111935
12507557 5 15769772476945568275
13140716 1 15553587656070121530
13167823 11 18408602573967669834
13288520 33 18408887330082876510
13675066 3 17704347771580144846
13760787 19 18342177795373685182
13760787 5 16415476077904659040
14251731 8 18343582923778254966
14911166 2 16008753511281142874
14993402 34 16950279628433508098
15653759 3 18131067168915004553
17834072 33 18261396680507851124
18175812 5 17774718761851917165
18186145 218 16298667286541913124
19026448 4 18342452673127719800
19026448 5 18335144219343173972
200 152 16515680074655162409
20279233 1 17489595571295254503
204376 136 15626220251665818292
20645477 70 16127822855099913589
21267235 1 17822018627082109499
22854114 59 14045744815840002418
23175994 123 17275389806482463177
23402539 116 18272083886190397445
23402655 69 15719657806588350975
23536379 177 18408323272550106312
23557571 272 18343024350286284213
23559900 14 18341045307013488288
26918003 58 17632860827907997202
4072396 5 16558747858941625982
42 15 18412265034230234014
4214541 1 18410856546855361313
474 4 17097499953384810596
4990 188 17603869983707561826
633830 44 16805326616982093380
7495541 125 17845653779955179081
77492 1 17676485073269676197
77779 3 18410575110559645680
9971528 1 17676206901165320092
9981440 41 16815191663019888268

>  <PUBCHEM_SHAPE_MULTIPOLES>  (1) 
303.71
10.33
1.13
1.01
6.45
0.18
0
2.19
-0.01
-0.85
0
0.37
-0.11
-0.01

>  <PUBCHEM_SHAPE_SELFOVERLAP>  (1) 
647.82

>  <PUBCHEM_SHAPE_VOLUME>  (1) 
167.1

>  <PUBCHEM_COORDINATE_TYPE>  (1) 
2
5
10

$$$$
