28222
     RDKit          3D

  9  8  0  0  1  0  0  0  0  0999 V2000
    3.0662    1.0772   -0.0898 I   0  0  0  0  0  0  0  0  0  0  0  0
   -3.0156    0.3949   -0.0815 Cl  0  0  0  0  0  0  0  0  0  0  0  0
   -0.1448    0.7485   -0.0908 P   0  0  0  0  0  0  0  0  0  0  0  0
    0.0581   -0.7993   -0.5217 O   0  0  0  0  0  0  0  0  0  0  0  0
   -0.2596    1.6681   -1.2747 O   0  0  0  0  0  0  0  0  0  0  0  0
    1.2389    1.1403    0.9788 C   0  0  0  0  0  0  0  0  0  0  0  0
   -1.6043    0.7419    0.9289 C   0  0  0  0  0  0  0  0  0  0  0  0
    0.2523   -1.8244    0.4351 C   0  0  0  0  0  0  0  0  0  0  0  0
    0.4088   -3.1472   -0.2843 C   0  0  0  0  0  0  0  0  0  0  0  0
  1  6  1  0
  2  7  1  0
  3  4  1  0
  3  5  2  0
  3  6  1  0
  3  7  1  0
  4  8  1  0
  8  9  1  0
M  END
>  <PUBCHEM_COMPOUND_CID>  (1) 
28222

>  <PUBCHEM_CONFORMER_RMSD>  (1) 
0.6

>  <PUBCHEM_CONFORMER_DIVERSEORDER>  (1) 
2
7
42
19
34
4
10
9
33
14
13
37
8
25
38
41
11
3
5
31
40
29
32
12
6
39
36
30
43
16
35
20
23
15
21
22
24
26
18
28
17
27
1

>  <PUBCHEM_MMFF94_PARTIAL_CHARGES>  (1) 
8
1 -0.19
2 -0.29
3 0.97
4 -0.55
5 -0.7
6 0.19
7 0.29
8 0.28

>  <PUBCHEM_EFFECTIVE_ROTOR_COUNT>  (1) 
4

>  <PUBCHEM_PHARMACOPHORE_FEATURES>  (1) 
1
1 1 hydrophobe

>  <PUBCHEM_HEAVY_ATOM_COUNT>  (1) 
9

>  <PUBCHEM_ATOM_DEF_STEREO_COUNT>  (1) 
0

>  <PUBCHEM_ATOM_UDEF_STEREO_COUNT>  (1) 
1

>  <PUBCHEM_BOND_DEF_STEREO_COUNT>  (1) 
0

>  <PUBCHEM_BOND_UDEF_STEREO_COUNT>  (1) 
0

>  <PUBCHEM_ISOTOPIC_ATOM_COUNT>  (1) 
0

>  <PUBCHEM_COMPONENT_COUNT>  (1) 
1

>  <PUBCHEM_CACTVS_TAUTO_COUNT>  (1) 
1

>  <PUBCHEM_CONFORMER_ID>  (1) 
00006E3E00000002

>  <PUBCHEM_MMFF94_ENERGY>  (1) 
3.846

>  <PUBCHEM_FEATURE_SELFOVERLAP>  (1) 
5.074

>  <PUBCHEM_SHAPE_FINGERPRINT>  (1) 
100427 49 17261305904839945506
10219947 1 18259988188584926825
14993402 34 18188769586111354077
19021347 11 18340768152277875099
20711978 78 18052521197768717637
20711985 344 17833536174354580002
20711985 365 17835520797068955042
23526114 1 18196655094542760228
3250762 1 17830165805774279573
528862 383 18262791866063221850

>  <PUBCHEM_SHAPE_MULTIPOLES>  (1) 
191.13
3.8
2.78
1.02
1.53
3.51
0.02
-2.1
-0.01
-0.79
0.27
0.06
-0.34
-0.01

>  <PUBCHEM_SHAPE_SELFOVERLAP>  (1) 
303.125

>  <PUBCHEM_SHAPE_VOLUME>  (1) 
138.4

>  <PUBCHEM_COORDINATE_TYPE>  (1) 
2
5
10

$$$$
