28223
     RDKit          3D

  9  8  0  0  0  0  0  0  0  0999 V2000
   -3.2060   -0.8763   -0.1440 I   0  0  0  0  0  0  0  0  0  0  0  0
    3.2519   -0.7199   -0.1534 I   0  0  0  0  0  0  0  0  0  0  0  0
    0.0251   -0.7445   -0.0621 P   0  0  0  0  0  0  0  0  0  0  0  0
   -0.0498    0.8116   -0.5077 O   0  0  0  0  0  0  0  0  0  0  0  0
    0.0588   -1.6767   -1.2415 O   0  0  0  0  0  0  0  0  0  0  0  0
   -1.4146   -0.9752    0.9821 C   0  0  0  0  0  0  0  0  0  0  0  0
    1.4729   -0.8722    0.9875 C   0  0  0  0  0  0  0  0  0  0  0  0
   -0.0269    1.8660    0.4366 C   0  0  0  0  0  0  0  0  0  0  0  0
   -0.1115    3.1872   -0.2975 C   0  0  0  0  0  0  0  0  0  0  0  0
  1  6  1  0
  2  7  1  0
  3  4  1  0
  3  5  2  0
  3  6  1  0
  3  7  1  0
  4  8  1  0
  8  9  1  0
M  END
>  <PUBCHEM_COMPOUND_CID>  (1) 
28223

>  <PUBCHEM_CONFORMER_RMSD>  (1) 
0.6

>  <PUBCHEM_CONFORMER_DIVERSEORDER>  (1) 
1
21
5
8
18
14
6
4
20
7
19
10
16
3
13
15
2
17
11
9
12

>  <PUBCHEM_MMFF94_PARTIAL_CHARGES>  (1) 
8
1 -0.19
2 -0.19
3 0.97
4 -0.55
5 -0.7
6 0.19
7 0.19
8 0.28

>  <PUBCHEM_EFFECTIVE_ROTOR_COUNT>  (1) 
4

>  <PUBCHEM_PHARMACOPHORE_FEATURES>  (1) 
2
1 1 hydrophobe
1 2 hydrophobe

>  <PUBCHEM_HEAVY_ATOM_COUNT>  (1) 
9

>  <PUBCHEM_ATOM_DEF_STEREO_COUNT>  (1) 
0

>  <PUBCHEM_ATOM_UDEF_STEREO_COUNT>  (1) 
0

>  <PUBCHEM_BOND_DEF_STEREO_COUNT>  (1) 
0

>  <PUBCHEM_BOND_UDEF_STEREO_COUNT>  (1) 
0

>  <PUBCHEM_ISOTOPIC_ATOM_COUNT>  (1) 
0

>  <PUBCHEM_COMPONENT_COUNT>  (1) 
1

>  <PUBCHEM_CACTVS_TAUTO_COUNT>  (1) 
1

>  <PUBCHEM_CONFORMER_ID>  (1) 
00006E3F00000001

>  <PUBCHEM_MMFF94_ENERGY>  (1) 
4.8515

>  <PUBCHEM_FEATURE_SELFOVERLAP>  (1) 
10.149

>  <PUBCHEM_SHAPE_FINGERPRINT>  (1) 
100427 49 18338232781870596832
10219947 1 18272373091802454411
14993402 34 18271807972695331047
20711985 344 18120385262958727610
23526114 1 18048319134699326711
23595355 12 17904197384129636160
3250762 1 17694227664157178830
68250623 7 17832139429267489242
81228 2 18192725457196606808

>  <PUBCHEM_SHAPE_MULTIPOLES>  (1) 
201.2
4.48
2.77
1.04
0.08
3.69
0.01
-2.81
-0.25
-0.09
-0.29
0.01
-0.33
0.01

>  <PUBCHEM_SHAPE_SELFOVERLAP>  (1) 
310.525

>  <PUBCHEM_SHAPE_VOLUME>  (1) 
149.4

>  <PUBCHEM_COORDINATE_TYPE>  (1) 
2
5
10

$$$$
