28231
     RDKit          3D

 11 12  0  0  1  0  0  0  0  0999 V2000
   -1.7281   -0.9655    0.3539 C   0  0  0  0  0  0  0  0  0  0  0  0
   -2.5441    0.3211    0.6031 C   0  0  0  0  0  0  0  0  0  0  0  0
   -0.3468   -0.3970    0.1913 C   0  0  0  0  0  0  0  0  0  0  0  0
   -1.8085    1.4666   -0.1101 C   0  0  0  0  0  0  0  0  0  0  0  0
   -0.3951    0.9798   -0.0604 C   0  0  0  0  0  0  0  0  0  0  0  0
   -2.1878   -1.7154   -0.8906 C   0  0  0  0  0  0  0  0  0  0  0  0
    0.8637   -1.0690    0.2459 C   0  0  0  0  0  0  0  0  0  0  0  0
    0.7630    1.7086   -0.2736 C   0  0  0  0  0  0  0  0  0  0  0  0
    2.0372   -0.3395    0.0439 C   0  0  0  0  0  0  0  0  0  0  0  0
    1.9871    1.0392   -0.2148 C   0  0  0  0  0  0  0  0  0  0  0  0
    3.3593   -1.0289    0.1114 C   0  0  0  0  0  0  0  0  0  0  0  0
  1  2  1  0
  1  3  1  0
  1  6  1  0
  2  4  1  0
  3  5  2  0
  3  7  1  0
  4  5  1  0
  5  8  1  0
  7  9  2  0
  8 10  2  0
  9 10  1  0
  9 11  1  0
M  END
>  <PUBCHEM_COMPOUND_CID>  (1) 
28231

>  <PUBCHEM_CONFORMER_RMSD>  (1) 
0.4

>  <PUBCHEM_CONFORMER_DIVERSEORDER>  (1) 
1
2

>  <PUBCHEM_MMFF94_PARTIAL_CHARGES>  (1) 
12
1 0.14
10 -0.15
11 0.14
20 0.15
21 0.15
22 0.15
3 -0.14
4 0.14
5 -0.14
7 -0.15
8 -0.15
9 -0.14

>  <PUBCHEM_EFFECTIVE_ROTOR_COUNT>  (1) 
0.6

>  <PUBCHEM_PHARMACOPHORE_FEATURES>  (1) 
2
5 1 2 3 4 5 rings
6 3 5 7 8 9 10 rings

>  <PUBCHEM_HEAVY_ATOM_COUNT>  (1) 
11

>  <PUBCHEM_ATOM_DEF_STEREO_COUNT>  (1) 
0

>  <PUBCHEM_ATOM_UDEF_STEREO_COUNT>  (1) 
1

>  <PUBCHEM_BOND_DEF_STEREO_COUNT>  (1) 
0

>  <PUBCHEM_BOND_UDEF_STEREO_COUNT>  (1) 
0

>  <PUBCHEM_ISOTOPIC_ATOM_COUNT>  (1) 
0

>  <PUBCHEM_COMPONENT_COUNT>  (1) 
1

>  <PUBCHEM_CACTVS_TAUTO_COUNT>  (1) 
1

>  <PUBCHEM_CONFORMER_ID>  (1) 
00006E4700000001

>  <PUBCHEM_MMFF94_ENERGY>  (1) 
28.8261

>  <PUBCHEM_FEATURE_SELFOVERLAP>  (1) 
10.231

>  <PUBCHEM_SHAPE_FINGERPRINT>  (1) 
11206711 2 18333448746353020654
12423570 1 16395183147757548585
12524768 44 18196094335006978551
12932764 1 18200604703602904424
13024252 1 16588317029231240129
14128692 85 18340770428821467014
16945 1 18340770329821045289
18185500 45 18409167722685533067
20871998 184 18271528610990034663
21040471 1 18265896843570690265
21501502 16 18339926012397035988
23402539 116 17845079693700510069
23463225 33 18262521377681497266
23552423 10 18261114135561966124
23559900 14 18196933272103270278
241688 4 18335697264811951385
2748010 2 18408884061723689980
369184 2 15123504774728736391
5084963 1 18343582975112192810
528886 8 18336542716238994232
63268167 104 18336549416409289265

>  <PUBCHEM_SHAPE_MULTIPOLES>  (1) 
226.37
4.12
1.85
0.76
1.56
0.17
-0.04
-1.17
0.09
-0.32
-0.28
-0.24
-0.11
-0.4

>  <PUBCHEM_SHAPE_SELFOVERLAP>  (1) 
482.365

>  <PUBCHEM_SHAPE_VOLUME>  (1) 
121.8

>  <PUBCHEM_COORDINATE_TYPE>  (1) 
2
5
10

$$$$
