28232
     RDKit          3D

 26 27  0  0  0  0  0  0  0  0999 V2000
    1.8643    0.2702    1.0590 O   0  0  0  0  0  0  0  0  0  0  0  0
   -4.2703   -1.0454   -0.6676 O   0  0  0  0  0  0  0  0  0  0  0  0
    4.4551    0.3264    0.1156 N   0  0  0  0  0  0  0  0  0  0  0  0
    1.2938   -1.1783   -0.6982 N   0  0  0  0  0  0  0  0  0  0  0  0
    5.8418   -0.1014    0.2968 C   0  0  0  0  0  0  0  0  0  0  0  0
    4.3663    1.3414   -0.9336 C   0  0  0  0  0  0  0  0  0  0  0  0
    3.6051   -0.8187   -0.2077 C   0  0  0  0  0  0  0  0  0  0  0  0
    6.0428   -0.6663    1.7007 C   0  0  0  0  0  0  0  0  0  0  0  0
    4.7921    2.7032   -0.3908 C   0  0  0  0  0  0  0  0  0  0  0  0
    2.1644   -0.4953    0.1486 C   0  0  0  0  0  0  0  0  0  0  0  0
   -0.1211   -1.1445   -0.6916 C   0  0  0  0  0  0  0  0  0  0  0  0
    7.4839   -1.0994    1.9225 C   0  0  0  0  0  0  0  0  0  0  0  0
    4.6882    3.7819   -1.4580 C   0  0  0  0  0  0  0  0  0  0  0  0
   -0.8458   -2.3189   -0.4871 C   0  0  0  0  0  0  0  0  0  0  0  0
   -0.7908    0.0630   -0.8892 C   0  0  0  0  0  0  0  0  0  0  0  0
   -2.2402   -2.2854   -0.4787 C   0  0  0  0  0  0  0  0  0  0  0  0
   -2.1851    0.0963   -0.8818 C   0  0  0  0  0  0  0  0  0  0  0  0
   -2.9098   -1.0777   -0.6760 C   0  0  0  0  0  0  0  0  0  0  0  0
   -0.1566   -3.6272   -0.2706 C   0  0  0  0  0  0  0  0  0  0  0  0
   -0.0424    1.3370   -1.1130 C   0  0  0  0  0  0  0  0  0  0  0  0
   -4.8859   -0.0313    0.0466 C   0  0  0  0  0  0  0  0  0  0  0  0
   -4.4379    0.2900    1.3280 C   0  0  0  0  0  0  0  0  0  0  0  0
   -5.9540    0.6685   -0.5145 C   0  0  0  0  0  0  0  0  0  0  0  0
   -5.0584    1.3108    2.0484 C   0  0  0  0  0  0  0  0  0  0  0  0
   -6.5736    1.6901    0.2054 C   0  0  0  0  0  0  0  0  0  0  0  0
   -6.1260    2.0112    1.4869 C   0  0  0  0  0  0  0  0  0  0  0  0
  1 10  2  0
  2 18  1  0
  2 21  1  0
  3  5  1  0
  3  6  1  0
  3  7  1  0
  4 10  1  0
  4 11  1  0
  5  8  1  0
  6  9  1  0
  7 10  1  0
  8 12  1  0
  9 13  1  0
 11 14  2  0
 11 15  1  0
 14 16  1  0
 14 19  1  0
 15 17  2  0
 15 20  1  0
 16 18  2  0
 17 18  1  0
 21 22  2  0
 21 23  1  0
 22 24  1  0
 23 25  2  0
 24 26  2  0
 25 26  1  0
M  END
>  <PUBCHEM_COMPOUND_CID>  (1) 
28232

>  <PUBCHEM_CONFORMER_RMSD>  (1) 
1

>  <PUBCHEM_CONFORMER_DIVERSEORDER>  (1) 
1
41
48
24
50
20
21
19
32
36
51
9
49
34
22
7
30
25
42
37
23
18
5
3
27
6
45
31
14
17
33
11
2
35
38
40
29
4
8
28
12
16
44
13
15
39
10
43
47
46
26

>  <PUBCHEM_MMFF94_PARTIAL_CHARGES>  (1) 
30
1 -0.57
10 0.57
11 0.12
14 -0.14
15 -0.14
16 -0.15
17 -0.15
18 0.08
19 0.14
2 -0.17
20 0.14
21 0.08
22 -0.15
23 -0.15
24 -0.15
25 -0.15
26 -0.15
3 -0.81
37 0.37
4 -0.55
44 0.15
45 0.15
5 0.27
52 0.15
53 0.15
54 0.15
55 0.15
56 0.15
6 0.27
7 0.33

>  <PUBCHEM_EFFECTIVE_ROTOR_COUNT>  (1) 
10

>  <PUBCHEM_PHARMACOPHORE_FEATURES>  (1) 
8
1 1 acceptor
1 12 hydrophobe
1 13 hydrophobe
1 2 acceptor
1 3 cation
1 4 donor
6 11 14 15 16 17 18 rings
6 21 22 23 24 25 26 rings

>  <PUBCHEM_HEAVY_ATOM_COUNT>  (1) 
26

>  <PUBCHEM_ATOM_DEF_STEREO_COUNT>  (1) 
0

>  <PUBCHEM_ATOM_UDEF_STEREO_COUNT>  (1) 
0

>  <PUBCHEM_BOND_DEF_STEREO_COUNT>  (1) 
0

>  <PUBCHEM_BOND_UDEF_STEREO_COUNT>  (1) 
0

>  <PUBCHEM_ISOTOPIC_ATOM_COUNT>  (1) 
0

>  <PUBCHEM_COMPONENT_COUNT>  (1) 
1

>  <PUBCHEM_CACTVS_TAUTO_COUNT>  (1) 
2

>  <PUBCHEM_CONFORMER_ID>  (1) 
00006E4800000001

>  <PUBCHEM_MMFF94_ENERGY>  (1) 
83.0785

>  <PUBCHEM_FEATURE_SELFOVERLAP>  (1) 
40.595

>  <PUBCHEM_SHAPE_FINGERPRINT>  (1) 
10 15 18187937192059500497
11475781 23 16343427228304043000
12107183 9 18408315597522948970
12390115 104 18269851950500093023
12422481 6 17603587447758106325
12596602 18 18041284352479273313
12616971 3 18260823826291156478
12633257 1 18410004464531225870
13540713 5 18192423294032526390
1361 4 9655574115016411765
13782708 43 13479128012614952672
14739800 52 17488730169697987259
14790565 3 18411425020363799821
14840074 17 18114189665439719101
15183329 4 18202288004513277284
15238133 3 18131349730919354864
15348495 7 17749677371269715048
15352257 5 14562526241893868912
19958102 18 12823304493596617477
21150785 3 12823285810477693562
21403212 168 18339917122199725263
21781055 127 18059306370756376154
23522609 53 18189353388653419188
23559900 14 18059031509607893806
249057 25 18340477975850546846
2748736 6 18272087193141245849
2838139 119 17418369182315233185
3178227 256 17530680988516288706
34797466 226 14979952597078676915
3680242 22 18333730239132436596
397830 11 15864363505211958485
5104073 3 18188206628105867162
5385378 56 18269833130022740074
59682541 52 15769227037341997085
6058803 2 18047464815056303166
6328613 192 18342181106424737708
999808 66 16660639610331121434

>  <PUBCHEM_SHAPE_MULTIPOLES>  (1) 
513.37
18.45
3.21
1.57
5.47
0.54
0.78
9.55
9.22
2.07
-1.07
0.46
0.46
-3.88

>  <PUBCHEM_SHAPE_SELFOVERLAP>  (1) 
1059.755

>  <PUBCHEM_SHAPE_VOLUME>  (1) 
296.5

>  <PUBCHEM_COORDINATE_TYPE>  (1) 
2
5
10

$$$$
