28248
     RDKit          3D

 25 27  0  0  1  0  0  0  0  0999 V2000
   -0.3634   -1.2167    0.5681 O   0  0  0  0  0  0  0  0  0  0  0  0
   -1.8343   -2.0636   -1.0028 O   0  0  0  0  0  0  0  0  0  0  0  0
    2.9836   -0.4256   -2.1433 O   0  0  0  0  0  0  0  0  0  0  0  0
    5.5772    1.0533   -0.4377 O   0  0  0  0  0  0  0  0  0  0  0  0
   -2.7368    0.9573    0.1304 C   0  0  0  0  0  0  0  0  0  0  0  0
   -3.7745   -0.0519   -0.2651 C   0  0  0  0  0  0  0  0  0  0  0  0
   -2.6028   -0.4666    0.5662 C   0  0  0  0  0  0  0  0  0  0  0  0
   -1.8471    1.4819   -0.9460 C   0  0  0  0  0  0  0  0  0  0  0  0
   -3.0487    1.9633    1.1879 C   0  0  0  0  0  0  0  0  0  0  0  0
   -5.0903   -0.0376    0.3563 C   0  0  0  0  0  0  0  0  0  0  0  0
   -1.5731   -1.3401   -0.0525 C   0  0  0  0  0  0  0  0  0  0  0  0
   -6.1682    0.6806   -0.0130 C   0  0  0  0  0  0  0  0  0  0  0  0
    0.6858   -2.0185    0.0417 C   0  0  0  0  0  0  0  0  0  0  0  0
   -6.1824    1.6256   -1.1811 C   0  0  0  0  0  0  0  0  0  0  0  0
   -7.4650    0.5809    0.7409 C   0  0  0  0  0  0  0  0  0  0  0  0
    1.0017   -1.5698   -1.3800 C   0  0  0  0  0  0  0  0  0  0  0  0
    1.9557   -1.7854    0.8145 C   0  0  0  0  0  0  0  0  0  0  0  0
    2.9299   -1.1915    0.1117 C   0  0  0  0  0  0  0  0  0  0  0  0
    2.3765   -0.9849   -1.2415 C   0  0  0  0  0  0  0  0  0  0  0  0
    2.0193   -2.2206    2.2417 C   0  0  0  0  0  0  0  0  0  0  0  0
    4.3034   -0.7696    0.4723 C   0  0  0  0  0  0  0  0  0  0  0  0
    4.5674    0.7168    0.3763 C   0  0  0  0  0  0  0  0  0  0  0  0
    3.9722    1.7733    0.9611 C   0  0  0  0  0  0  0  0  0  0  0  0
    4.6738    2.9002    0.4705 C   0  0  0  0  0  0  0  0  0  0  0  0
    5.6399    2.4095   -0.3765 C   0  0  0  0  0  0  0  0  0  0  0  0
  1 11  1  0
  1 13  1  0
  2 11  2  0
  3 19  2  0
  4 22  1  0
  4 25  1  0
  5  6  1  0
  5  7  1  0
  5  8  1  0
  5  9  1  0
  6  7  1  0
  6 10  1  0
  7 11  1  0
 10 12  2  3
 12 14  1  0
 12 15  1  0
 13 16  1  0
 13 17  1  0
 16 19  1  0
 17 18  2  0
 17 20  1  0
 18 19  1  0
 18 21  1  0
 21 22  1  0
 22 23  2  0
 23 24  1  0
 24 25  2  0
M  END
>  <PUBCHEM_COMPOUND_CID>  (1) 
28248

>  <PUBCHEM_CONFORMER_RMSD>  (1) 
1.2

>  <PUBCHEM_CONFORMER_DIVERSEORDER>  (1) 
2
511
206
186
617
124
87
463
620
181
325
570
22
314
273
403
404
109
25
623
60
335
12
381
479
41
168
83
201
370
66
141
316
85
194
556
558
549
93
599
328
338
16
401
579
451
553
123
502
97
45
149
578
336
602
466
420
257
581
516
193
512
352
658
156
227
205
226
96
304
393
378
438
4
238
340
137
241
23
233
120
146
270
324
655
483
10
166
306
33
666
56
210
253
633
208
136
73
608
456
256
222
619
642
86
174
585
38
625
326
3
461
521
379
42
640
48
412
6
11
161
565
489
24
230
107
84
113
529
79
169
95
609
520
197
18
151
524
54
152
312
426
47
198
638
102
628
439
98
188
19
35
536
615
497
44
313
7
104
13
318
50
342
167
400
267
402
236
100
395
1
69
259
425
281
211
8
543
29
46
51
286
119
162
36
114
14
90
82
250
563
341
9
127
53
517
153
618
39
394
61
541
284
77
407
17
111
487
88
202
78
52
92
647
199
535
131
20
291
416
258
554
43

>  <PUBCHEM_MMFF94_PARTIAL_CHARGES>  (1) 
31
1 -0.43
10 -0.19
11 0.72
12 -0.28
13 0.42
14 0.14
15 0.14
16 0.06
17 -0.28
18 -0.12
19 0.49
2 -0.57
20 0.14
21 0.32
22 -0.04
23 -0.15
24 -0.15
25 -0.01
26 0.1
27 0.1
3 -0.57
34 0.15
4 -0.28
49 0.15
5 -0.19
50 0.15
51 0.15
6 -0.06
7 -0.1
8 0.09
9 0.09

>  <PUBCHEM_EFFECTIVE_ROTOR_COUNT>  (1) 
7

>  <PUBCHEM_PHARMACOPHORE_FEATURES>  (1) 
7
1 2 acceptor
1 3 acceptor
1 4 acceptor
3 12 14 15 hydrophobe
3 5 8 9 hydrophobe
5 13 16 17 18 19 rings
5 4 22 23 24 25 rings

>  <PUBCHEM_HEAVY_ATOM_COUNT>  (1) 
25

>  <PUBCHEM_ATOM_DEF_STEREO_COUNT>  (1) 
0

>  <PUBCHEM_ATOM_UDEF_STEREO_COUNT>  (1) 
3

>  <PUBCHEM_BOND_DEF_STEREO_COUNT>  (1) 
0

>  <PUBCHEM_BOND_UDEF_STEREO_COUNT>  (1) 
0

>  <PUBCHEM_ISOTOPIC_ATOM_COUNT>  (1) 
0

>  <PUBCHEM_COMPONENT_COUNT>  (1) 
1

>  <PUBCHEM_CACTVS_TAUTO_COUNT>  (1) 
5

>  <PUBCHEM_CONFORMER_ID>  (1) 
00006E5800000002

>  <PUBCHEM_MMFF94_ENERGY>  (1) 
31.6841

>  <PUBCHEM_FEATURE_SELFOVERLAP>  (1) 
35.522

>  <PUBCHEM_SHAPE_FINGERPRINT>  (1) 
11796584 16 11959718362011609909
12596602 18 18333449850523963387
12788726 201 17775568598483261929
13402501 40 18411135861585328656
13533116 47 17532088298337522907
13685833 64 9007060166636259412
14347332 77 9151183042951715923
14461889 52 17458637735063062443
14739800 52 18335130986390536880
14840074 17 18202277009861379661
14931854 50 18131358518286052400
15142526 21 18188205519898712586
15183329 4 12679470768013074435
15961568 22 18411703187925847460
18335252 114 18273210881472000164
20511986 3 17821999892646001159
21033648 29 16878218672148331279
21304303 94 12103842380456168164
21315764 268 18334852771315336468
21475661 188 18336827614901050396
23227448 37 18270960257867476343
23559900 14 18121217572356466363
249057 3 18202284676547061422
2838139 119 18341040891597255844
3472631 163 18342457066631317958
34797466 226 17988649562847882533
394071 54 18343030986416984057
4340502 62 17458068149200669091
46194498 28 17488475091320654966
474 4 18186804724989341744
5104073 3 17823701867942068545
7808743 9 18271803566227612306
7970288 3 10159705693835564948
8509985 295 12684814402886959000

>  <PUBCHEM_SHAPE_MULTIPOLES>  (1) 
491.01
15.9
2.82
1.44
15.13
0.7
0.07
11.6
-0.71
-3.38
-0.41
-0.57
-0.45
0.03

>  <PUBCHEM_SHAPE_SELFOVERLAP>  (1) 
1040.791

>  <PUBCHEM_SHAPE_VOLUME>  (1) 
280.4

>  <PUBCHEM_COORDINATE_TYPE>  (1) 
2
5
10

$$$$
