28241
     RDKit          3D

 25 27  0  0  0  0  0  0  0  0999 V2000
    5.7959   -1.3281   -1.0493 Cl  0  0  0  0  0  0  0  0  0  0  0  0
   -1.7754    4.9255   -3.2863 Cl  0  0  0  0  0  0  0  0  0  0  0  0
   -4.3952   -1.6648    0.6084 O   0  0  0  0  0  0  0  0  0  0  0  0
   -0.0034    0.5338    1.8513 N   0  0  0  0  0  0  0  0  0  0  0  0
   -0.2776    3.6373    0.2170 N   0  0  0  0  0  0  0  0  0  0  0  0
    0.8277   -2.3586   -1.0660 N   0  0  0  0  0  0  0  0  0  0  0  0
    0.2780   -0.4463    0.8614 C   0  0  0  0  0  0  0  0  0  0  0  0
    0.8826    1.6122    2.1352 C   0  0  0  0  0  0  0  0  0  0  0  0
    0.1013    2.8617    2.5400 C   0  0  0  0  0  0  0  0  0  0  0  0
   -0.7628   -1.2155    0.3313 C   0  0  0  0  0  0  0  0  0  0  0  0
    1.5940   -0.6342    0.4267 C   0  0  0  0  0  0  0  0  0  0  0  0
   -0.9109    3.3463    1.4975 C   0  0  0  0  0  0  0  0  0  0  0  0
   -0.4380   -2.1735   -0.6439 C   0  0  0  0  0  0  0  0  0  0  0  0
    1.8265   -1.6151   -0.5522 C   0  0  0  0  0  0  0  0  0  0  0  0
   -2.0943   -1.0480    0.7496 C   0  0  0  0  0  0  0  0  0  0  0  0
    2.6594    0.1244    0.9421 C   0  0  0  0  0  0  0  0  0  0  0  0
   -1.4700   -2.9425   -1.1754 C   0  0  0  0  0  0  0  0  0  0  0  0
    3.1347   -1.8070   -0.9889 C   0  0  0  0  0  0  0  0  0  0  0  0
   -3.1076   -1.8295    0.2026 C   0  0  0  0  0  0  0  0  0  0  0  0
   -1.2609    4.0859   -0.7589 C   0  0  0  0  0  0  0  0  0  0  0  0
   -2.7943   -2.7787   -0.7618 C   0  0  0  0  0  0  0  0  0  0  0  0
    3.9580   -0.0871    0.4887 C   0  0  0  0  0  0  0  0  0  0  0  0
    4.1957   -1.0549   -0.4789 C   0  0  0  0  0  0  0  0  0  0  0  0
   -0.5831    4.3579   -2.0928 C   0  0  0  0  0  0  0  0  0  0  0  0
   -5.3802   -2.5012    0.0025 C   0  0  0  0  0  0  0  0  0  0  0  0
  1 23  1  0
  2 24  1  0
  3 19  1  0
  3 25  1  0
  4  7  1  0
  4  8  1  0
  5 12  1  0
  5 20  1  0
  6 13  2  0
  6 14  1  0
  7 10  2  0
  7 11  1  0
  8  9  1  0
  9 12  1  0
 10 13  1  0
 10 15  1  0
 11 14  2  0
 11 16  1  0
 13 17  1  0
 14 18  1  0
 15 19  2  0
 16 22  2  0
 17 21  2  0
 18 23  2  0
 19 21  1  0
 20 24  1  0
 22 23  1  0
M  END
>  <PUBCHEM_COMPOUND_CID>  (1) 
28241

>  <PUBCHEM_CONFORMER_RMSD>  (1) 
0.8

>  <PUBCHEM_CONFORMER_DIVERSEORDER>  (1) 
1
46
29
4
19
25
61
33
37
31
26
16
18
17
15
36
42
50
23
44
20
27
54
52
3
41
5
58
53
60
30
12
49
38
57
63
10
65
56
47
9
51
21
13
62
6
39
43
8
55
40
7
28
2
35
48
24
22
32
11
14
45
64
59
34

>  <PUBCHEM_MMFF94_PARTIAL_CHARGES>  (1) 
30
1 -0.18
12 0.27
13 0.31
14 0.31
15 -0.15
16 -0.15
17 -0.15
18 -0.15
19 0.08
2 -0.29
20 0.27
21 -0.15
22 -0.15
23 0.18
24 0.29
25 0.28
3 -0.36
30 0.4
33 0.15
34 0.15
35 0.36
36 0.15
37 0.15
4 -0.87
40 0.15
41 0.15
5 -0.9
6 -0.62
7 0.1
8 0.37

>  <PUBCHEM_EFFECTIVE_ROTOR_COUNT>  (1) 
8

>  <PUBCHEM_PHARMACOPHORE_FEATURES>  (1) 
9
1 3 acceptor
1 4 cation
1 4 donor
1 5 cation
1 5 donor
1 6 acceptor
6 10 13 15 17 19 21 rings
6 11 14 16 18 22 23 rings
6 6 7 10 11 13 14 rings

>  <PUBCHEM_HEAVY_ATOM_COUNT>  (1) 
25

>  <PUBCHEM_ATOM_DEF_STEREO_COUNT>  (1) 
0

>  <PUBCHEM_ATOM_UDEF_STEREO_COUNT>  (1) 
0

>  <PUBCHEM_BOND_DEF_STEREO_COUNT>  (1) 
0

>  <PUBCHEM_BOND_UDEF_STEREO_COUNT>  (1) 
0

>  <PUBCHEM_ISOTOPIC_ATOM_COUNT>  (1) 
0

>  <PUBCHEM_COMPONENT_COUNT>  (1) 
1

>  <PUBCHEM_CACTVS_TAUTO_COUNT>  (1) 
2

>  <PUBCHEM_CONFORMER_ID>  (1) 
00006E5100000001

>  <PUBCHEM_MMFF94_ENERGY>  (1) 
105.0075

>  <PUBCHEM_FEATURE_SELFOVERLAP>  (1) 
45.732

>  <PUBCHEM_SHAPE_FINGERPRINT>  (1) 
10688039 33 18410578391888455074
10763959 59 18341042039113256779
11045515 52 18411704317765405546
11049842 53 16754937386456705176
11582403 64 17174632549778340856
12788726 201 18341056220594596186
13947920 24 18191865630472060172
15210252 30 18121509208966732500
17980427 26 15408618203399554832
18785283 64 17834399295193254315
19319366 153 16189191869071522888
20642791 178 17472979979062279880
21049683 271 18198351851801702586
21267235 1 17702962420983989374
21285901 2 17632035073565068662
21304303 64 17974291220525995580
21641784 216 18265076724424898556
22907989 373 18269565957370897684
23366157 5 17764015166131700890
23559900 14 17843676914458798739
238 59 16821369264652144612
25222932 49 15896638354622482773
26353 1 18337110188914752156
335352 9 17775011218849546487
4409770 3 18199177391671184154
6287921 2 17619903294160630343
86090 222 17689384453878508797

>  <PUBCHEM_SHAPE_MULTIPOLES>  (1) 
497.42
7.56
6.53
2.32
6.33
8.53
-0.33
-6.27
-2.55
-9.48
-4.15
-0.91
3.81
2.45

>  <PUBCHEM_SHAPE_SELFOVERLAP>  (1) 
1048.326

>  <PUBCHEM_SHAPE_VOLUME>  (1) 
282.9

>  <PUBCHEM_COORDINATE_TYPE>  (1) 
2
5
10

$$$$
