28256
     RDKit          3D

 14 14  0  0  0  0  0  0  0  0999 V2000
    2.3628    0.2168   -0.3088 O   0  0  0  0  0  0  0  0  0  0  0  0
   -1.9647    2.1975   -0.0845 O   0  0  0  0  0  0  0  0  0  0  0  0
    5.1599    0.3102   -0.4256 O   0  0  0  0  0  0  0  0  0  0  0  0
   -3.9095    0.5100    0.6681 O   0  0  0  0  0  0  0  0  0  0  0  0
   -1.7556   -0.1903    0.0095 C   0  0  0  0  0  0  0  0  0  0  0  0
    1.0124    0.0834   -0.2048 C   0  0  0  0  0  0  0  0  0  0  0  0
   -1.1859    1.0790   -0.0904 C   0  0  0  0  0  0  0  0  0  0  0  0
    0.1981    1.2159   -0.1974 C   0  0  0  0  0  0  0  0  0  0  0  0
   -0.9412   -1.3227    0.0021 C   0  0  0  0  0  0  0  0  0  0  0  0
    0.4428   -1.1860   -0.1051 C   0  0  0  0  0  0  0  0  0  0  0  0
    3.1643   -0.7842    0.3167 C   0  0  0  0  0  0  0  0  0  0  0  0
   -3.1983   -0.3551    0.1217 C   0  0  0  0  0  0  0  0  0  0  0  0
    4.4875   -0.1706    0.7320 C   0  0  0  0  0  0  0  0  0  0  0  0
   -3.8726   -1.6037   -0.4333 C   0  0  0  0  0  0  0  0  0  0  0  0
  1  6  1  0
  1 11  1  0
  2  7  1  0
  3 13  1  0
  4 12  2  0
  5  7  2  0
  5  9  1  0
  5 12  1  0
  6  8  2  0
  6 10  1  0
  7  8  1  0
  9 10  2  0
 11 13  1  0
 12 14  1  0
M  END
>  <PUBCHEM_COMPOUND_CID>  (1) 
28256

>  <PUBCHEM_CONFORMER_RMSD>  (1) 
0.6

>  <PUBCHEM_CONFORMER_DIVERSEORDER>  (1) 
1
28
32
17
41
26
19
25
15
42
29
14
38
11
22
9
37
4
30
21
33
3
36
10
13
31
27
2
35
34
20
23
5
12
39
18
24
6
40
7
8
16

>  <PUBCHEM_MMFF94_PARTIAL_CHARGES>  (1) 
19
1 -0.36
10 -0.15
11 0.28
12 0.42
13 0.28
14 0.06
15 0.15
16 0.15
17 0.15
2 -0.53
25 0.45
26 0.4
3 -0.68
4 -0.57
5 0.09
6 0.08
7 0.08
8 -0.15
9 -0.15

>  <PUBCHEM_EFFECTIVE_ROTOR_COUNT>  (1) 
4

>  <PUBCHEM_PHARMACOPHORE_FEATURES>  (1) 
6
1 1 acceptor
1 2 donor
1 3 acceptor
1 3 donor
1 4 acceptor
6 5 6 7 8 9 10 rings

>  <PUBCHEM_HEAVY_ATOM_COUNT>  (1) 
14

>  <PUBCHEM_ATOM_DEF_STEREO_COUNT>  (1) 
0

>  <PUBCHEM_ATOM_UDEF_STEREO_COUNT>  (1) 
0

>  <PUBCHEM_BOND_DEF_STEREO_COUNT>  (1) 
0

>  <PUBCHEM_BOND_UDEF_STEREO_COUNT>  (1) 
0

>  <PUBCHEM_ISOTOPIC_ATOM_COUNT>  (1) 
0

>  <PUBCHEM_COMPONENT_COUNT>  (1) 
1

>  <PUBCHEM_CACTVS_TAUTO_COUNT>  (1) 
9

>  <PUBCHEM_CONFORMER_ID>  (1) 
00006E6000000001

>  <PUBCHEM_MMFF94_ENERGY>  (1) 
43.6571

>  <PUBCHEM_FEATURE_SELFOVERLAP>  (1) 
30.45

>  <PUBCHEM_SHAPE_FINGERPRINT>  (1) 
11132069 177 18342743992179853283
11401426 45 18410006637573596439
12032990 46 18337111280089535883
12119455 92 17060335210614179702
12932764 1 17417513753689431518
13214271 11 18273493472944912039
13690532 89 18261107504064090671
13760787 5 18041002877212262471
13897977 58 18409452505267239516
14325111 11 18337670802737831936
14943859 89 10735875079962767188
15209294 21 17916876716151019849
15219456 202 17986957358148882878
16945 1 18409738348135915527
17804303 29 18342739649762266792
18186145 218 15267048238892394234
19026448 4 16271937003571896719
200 152 18260257573344581519
20510252 161 18271526394871319152
20645477 70 14346063193274253760
20871998 184 18272929405856973215
21029758 27 18114470036335319797
21267235 1 18338524139588492271
21339142 126 18335699412870495293
2297311 6 18201169801572730364
23402539 116 18410847772326794743
23463225 33 18334295340405296878
23557571 272 18060147526219513300
23559900 14 18199187283471477446
2748010 2 17977957778334702639
34934 24 18337386033716442539
43471831 8 18261669260254448578
474 4 17096659893022179036
53655031 270 18333731295129726699

>  <PUBCHEM_SHAPE_MULTIPOLES>  (1) 
264.64
8.27
1.59
0.7
7.32
0.36
0.03
-1.24
0.64
-1.29
-0.1
0.09
-0.02
-0.38

>  <PUBCHEM_SHAPE_SELFOVERLAP>  (1) 
545.848

>  <PUBCHEM_SHAPE_VOLUME>  (1) 
151.7

>  <PUBCHEM_COORDINATE_TYPE>  (1) 
2
5
10

$$$$
