28252
     RDKit          3D

 14 15  0  0  0  0  0  0  0  0999 V2000
    2.0807    0.5170   -0.0009 C   0  0  0  0  0  0  0  0  0  0  0  0
    0.8781   -0.3755   -0.0017 C   0  0  0  0  0  0  0  0  0  0  0  0
    3.3964   -0.3174   -0.0004 C   0  0  0  0  0  0  0  0  0  0  0  0
    2.0976    1.4323    1.2596 C   0  0  0  0  0  0  0  0  0  0  0  0
    2.1936    1.4820   -1.2242 C   0  0  0  0  0  0  0  0  0  0  0  0
   -0.4295    0.1369   -0.0026 C   0  0  0  0  0  0  0  0  0  0  0  0
    1.1032   -1.7524   -0.0019 C   0  0  0  0  0  0  0  0  0  0  0  0
   -1.5244   -0.7598   -0.0042 C   0  0  0  0  0  0  0  0  0  0  0  0
   -0.6744    1.5198   -0.0026 C   0  0  0  0  0  0  0  0  0  0  0  0
    0.0265   -2.6342   -0.0033 C   0  0  0  0  0  0  0  0  0  0  0  0
   -1.2793   -2.1427   -0.0046 C   0  0  0  0  0  0  0  0  0  0  0  0
   -2.8319   -0.2473   -0.0051 C   0  0  0  0  0  0  0  0  0  0  0  0
   -1.9801    2.0115   -0.0035 C   0  0  0  0  0  0  0  0  0  0  0  0
   -3.0566    1.1297   -0.0045 C   0  0  0  0  0  0  0  0  0  0  0  0
  1  2  1  0
  1  3  1  0
  1  4  1  0
  1  5  1  0
  2  6  2  0
  2  7  1  0
  6  8  1  0
  6  9  1  0
  7 10  2  0
  8 11  2  0
  8 12  1  0
  9 13  2  0
 10 11  1  0
 12 14  2  0
 13 14  1  0
M  END
>  <PUBCHEM_COMPOUND_CID>  (1) 
28252

>  <PUBCHEM_CONFORMER_RMSD>  (1) 
0.4

>  <PUBCHEM_CONFORMER_DIVERSEORDER>  (1) 
1

>  <PUBCHEM_MMFF94_PARTIAL_CHARGES>  (1) 
16
1 0.14
10 -0.15
11 -0.15
12 -0.15
13 -0.15
14 -0.15
2 -0.14
24 0.15
25 0.15
26 0.15
27 0.15
28 0.15
29 0.15
30 0.15
7 -0.15
9 -0.15

>  <PUBCHEM_EFFECTIVE_ROTOR_COUNT>  (1) 
1

>  <PUBCHEM_PHARMACOPHORE_FEATURES>  (1) 
3
4 1 3 4 5 hydrophobe
6 2 6 7 8 10 11 rings
6 6 8 9 12 13 14 rings

>  <PUBCHEM_HEAVY_ATOM_COUNT>  (1) 
14

>  <PUBCHEM_ATOM_DEF_STEREO_COUNT>  (1) 
0

>  <PUBCHEM_ATOM_UDEF_STEREO_COUNT>  (1) 
0

>  <PUBCHEM_BOND_DEF_STEREO_COUNT>  (1) 
0

>  <PUBCHEM_BOND_UDEF_STEREO_COUNT>  (1) 
0

>  <PUBCHEM_ISOTOPIC_ATOM_COUNT>  (1) 
0

>  <PUBCHEM_COMPONENT_COUNT>  (1) 
1

>  <PUBCHEM_CACTVS_TAUTO_COUNT>  (1) 
1

>  <PUBCHEM_CONFORMER_ID>  (1) 
00006E5C00000001

>  <PUBCHEM_MMFF94_ENERGY>  (1) 
65.9644

>  <PUBCHEM_FEATURE_SELFOVERLAP>  (1) 
15.249

>  <PUBCHEM_SHAPE_FINGERPRINT>  (1) 
1 1 18267862791835892894
10967382 1 18266741268537498607
12716758 59 18341049721844060602
13140716 1 18338517550823512219
13380535 76 18338232665706175531
13538477 17 18042964466064670734
13897977 150 18266455417453486413
15775835 57 18342461395963620297
16945 1 17978511167284883755
17804303 29 18412261718974436922
193761 8 18266740182169729255
19868273 325 17976824512084336390
20510252 161 18270402835515736153
20511035 2 18412541028976673326
20645476 183 17969236679483443990
20871998 184 18126853917566889311
21501502 16 18194960738887720779
21524375 3 18411981338803176823
22802520 49 18128835194675749390
2334 1 18122625217147050359
23402539 116 18270667779432531743
23419403 2 15098917418863481663
23463225 33 18261391088207158922
23493267 7 17748829596539424713
23552423 10 18192714440974685927
23559900 14 18272940419350592692
241688 4 16465584859798423187
2748010 2 18051973911450261415
2897 32 18122628249372680445
305870 269 18264482888818163218
3071541 158 17759527668352034278
5084963 1 18272093798647628400
5255222 1 18339072675299001504
528886 8 18409726240232711475
53812653 166 18342172211583845528
53812653 8 18190755304153081644
7364860 26 18054788373460028855
81228 2 17979067507431524739

>  <PUBCHEM_SHAPE_MULTIPOLES>  (1) 
288.11
4.4
2.59
0.84
0.35
1.04
-0.01
-1.53
0.03
-0.48
0.01
0.47
-0.32
-0.01

>  <PUBCHEM_SHAPE_SELFOVERLAP>  (1) 
622.349

>  <PUBCHEM_SHAPE_VOLUME>  (1) 
153.3

>  <PUBCHEM_COORDINATE_TYPE>  (1) 
2
5
10

$$$$
