28274
     RDKit          3D

 23 25  0  0  1  0  0  0  0  0999 V2000
   -2.5735   -2.9978   -0.4952 Cl  0  0  0  0  0  0  0  0  0  0  0  0
    0.6760   -0.0133    0.0686 O   0  0  0  0  0  0  0  0  0  0  0  0
   -0.7831   -0.2517    1.8134 O   0  0  0  0  0  0  0  0  0  0  0  0
    3.4657   -0.5881   -0.2255 N   0  0  0  0  0  0  0  0  0  0  0  0
   -1.5073   -0.1669   -0.4112 N   0  0  0  0  0  0  0  0  0  0  0  0
    2.9833    0.7379    0.1311 C   0  0  0  0  0  0  0  0  0  0  0  0
    1.6411    0.6599    0.8776 C   0  0  0  0  0  0  0  0  0  0  0  0
    2.8761    1.6029   -1.1318 C   0  0  0  0  0  0  0  0  0  0  0  0
    1.1233    2.0636    1.2066 C   0  0  0  0  0  0  0  0  0  0  0  0
    2.3510    2.9993   -0.7993 C   0  0  0  0  0  0  0  0  0  0  0  0
    3.5915   -1.4676    0.9364 C   0  0  0  0  0  0  0  0  0  0  0  0
    4.8003   -0.5549   -0.8229 C   0  0  0  0  0  0  0  0  0  0  0  0
    1.0280    2.9453   -0.0398 C   0  0  0  0  0  0  0  0  0  0  0  0
    4.4480   -2.6088    0.4082 C   0  0  0  0  0  0  0  0  0  0  0  0
    5.2450   -2.0081   -0.7457 C   0  0  0  0  0  0  0  0  0  0  0  0
   -0.5768   -0.1554    0.6098 C   0  0  0  0  0  0  0  0  0  0  0  0
   -2.9114   -0.2931   -0.3078 C   0  0  0  0  0  0  0  0  0  0  0  0
   -3.6813    0.8552   -0.1788 C   0  0  0  0  0  0  0  0  0  0  0  0
   -3.5020   -1.5491   -0.3358 C   0  0  0  0  0  0  0  0  0  0  0  0
   -5.0680    0.7449   -0.0759 C   0  0  0  0  0  0  0  0  0  0  0  0
   -3.0657    2.2168   -0.1466 C   0  0  0  0  0  0  0  0  0  0  0  0
   -4.8887   -1.6591   -0.2327 C   0  0  0  0  0  0  0  0  0  0  0  0
   -5.6717   -0.5120   -0.1028 C   0  0  0  0  0  0  0  0  0  0  0  0
  1 19  1  0
  2  7  1  0
  2 16  1  0
  3 16  2  0
  4  6  1  0
  4 11  1  0
  4 12  1  0
  5 16  1  0
  5 17  1  0
  6  7  1  0
  6  8  1  0
  7  9  1  0
  8 10  1  0
  9 13  1  0
 10 13  1  0
 11 14  1  0
 12 15  1  0
 14 15  1  0
 17 18  2  0
 17 19  1  0
 18 20  1  0
 18 21  1  0
 19 22  2  0
 20 23  2  0
 22 23  1  0
M  END
>  <PUBCHEM_COMPOUND_CID>  (1) 
28274

>  <PUBCHEM_CONFORMER_RMSD>  (1) 
0.8

>  <PUBCHEM_CONFORMER_DIVERSEORDER>  (1) 
6
32
77
81
62
104
61
75
96
84
65
95
37
80
82
103
36
66
99
73
106
88
30
51
20
21
58
15
85
92
60
87
42
38
63
4
105
55
91
18
9
44
67
13
47
89
86
64
90
54
79
78
29
46
10
71
16
56
35
17
98
24
76
31
27
14
57
48
102
19
97
93
68
101
28
100
59
83
22
108
53
23
25
49
52
40
50
94
45
72
69
1
107
26
39
2
5
33
12
74
43
70
11
8
34
7
41
3

>  <PUBCHEM_MMFF94_PARTIAL_CHARGES>  (1) 
21
1 -0.18
11 0.27
12 0.27
16 0.78
17 0.12
18 -0.14
19 0.18
2 -0.43
20 -0.15
21 0.14
22 -0.15
23 -0.15
3 -0.57
4 -0.81
42 0.37
43 0.15
47 0.15
48 0.15
5 -0.55
6 0.27
7 0.28

>  <PUBCHEM_EFFECTIVE_ROTOR_COUNT>  (1) 
7.2

>  <PUBCHEM_PHARMACOPHORE_FEATURES>  (1) 
6
1 3 acceptor
1 4 cation
1 5 donor
5 4 11 12 14 15 rings
6 17 18 19 20 22 23 rings
6 6 7 8 9 10 13 rings

>  <PUBCHEM_HEAVY_ATOM_COUNT>  (1) 
23

>  <PUBCHEM_ATOM_DEF_STEREO_COUNT>  (1) 
0

>  <PUBCHEM_ATOM_UDEF_STEREO_COUNT>  (1) 
2

>  <PUBCHEM_BOND_DEF_STEREO_COUNT>  (1) 
0

>  <PUBCHEM_BOND_UDEF_STEREO_COUNT>  (1) 
0

>  <PUBCHEM_ISOTOPIC_ATOM_COUNT>  (1) 
0

>  <PUBCHEM_COMPONENT_COUNT>  (1) 
1

>  <PUBCHEM_CACTVS_TAUTO_COUNT>  (1) 
2

>  <PUBCHEM_CONFORMER_ID>  (1) 
00006E7200000006

>  <PUBCHEM_MMFF94_ENERGY>  (1) 
68.254

>  <PUBCHEM_FEATURE_SELFOVERLAP>  (1) 
30.446

>  <PUBCHEM_SHAPE_FINGERPRINT>  (1) 
11405975 8 18341332283848475891
11796584 16 17988648509932431910
12107183 9 18267871571224157113
12633257 1 18201731643387620301
13009979 54 18201730509010378760
13167823 11 18409447007440354623
13533116 47 18339077224312991887
14341114 176 18411703205500699153
14347332 77 18411132542002201351
15183329 4 18337673022919698751
15250474 111 18198613535343130943
15788980 27 17346874546556747911
17349148 13 17561369473873960323
17492 89 18265614462646426711
17818456 19 18201726102447669049
17844677 252 18408610275075919245
18186145 218 17531236305611165373
19784866 240 18131077004253059626
20645477 70 18411421730618927686
21250096 35 18273213071683729410
221357 26 18260827081644563557
221490 88 18264775535094722002
22950370 63 18337392643259693470
23559900 14 18340760533338123523
3004659 81 18334579002159086982
312423 11 18410300241569749025
314173 41 18411983555264900966
335352 9 18340204099346280917
340366 18 18411134744819504903
350125 39 18337954494234353877
4214541 1 18411136914083684247
44062 13 18343581858769453223
46194498 28 17822012051160151820
463206 1 18261391118425820666
474 4 17314788722953038493
5104073 3 18272653476231518891
5281201 14 18334292102000046877
58051976 100 18408040736511096055
633830 44 17676761080594731171
960060 61 18187654600307052958
9709674 26 18264207096257661347
9841814 1 16486976249522145592
9971528 1 18411975871505001072
9981440 41 17543065040460639632

>  <PUBCHEM_SHAPE_MULTIPOLES>  (1) 
453.5
12.2
3.35
1.05
3.91
0.46
-0.21
-6.69
2.23
-1.81
0.43
-0.66
0.12
-0.55

>  <PUBCHEM_SHAPE_SELFOVERLAP>  (1) 
943.165

>  <PUBCHEM_SHAPE_VOLUME>  (1) 
259.5

>  <PUBCHEM_COORDINATE_TYPE>  (1) 
2
5
10

$$$$
