28286
     RDKit          3D

 19 21  0  0  1  0  0  0  0  0999 V2000
   -3.0781   -2.1408    0.2078 O   0  0  0  0  0  0  0  0  0  0  0  0
   -4.2603   -0.1882   -0.5631 O   0  0  0  0  0  0  0  0  0  0  0  0
    1.7810    1.5294    0.5275 N   0  0  0  0  0  0  0  0  0  0  0  0
    2.5879   -1.6114    0.0016 C   0  0  0  0  0  0  0  0  0  0  0  0
    1.9039   -0.7857    1.1232 C   0  0  0  0  0  0  0  0  0  0  0  0
    1.0905    0.3720    0.6371 C   0  0  0  0  0  0  0  0  0  0  0  0
    3.8644   -0.9069   -0.5039 C   0  0  0  0  0  0  0  0  0  0  0  0
   -0.2639    0.2282    0.3340 C   0  0  0  0  0  0  0  0  0  0  0  0
    2.8885   -3.0229    0.5194 C   0  0  0  0  0  0  0  0  0  0  0  0
   -0.9576    1.3823   -0.1203 C   0  0  0  0  0  0  0  0  0  0  0  0
   -0.9359   -1.0000    0.4652 C   0  0  0  0  0  0  0  0  0  0  0  0
    4.5788   -1.6587   -1.6189 C   0  0  0  0  0  0  0  0  0  0  0  0
   -2.2762   -1.0431    0.1410 C   0  0  0  0  0  0  0  0  0  0  0  0
   -2.3238    1.2930   -0.4398 C   0  0  0  0  0  0  0  0  0  0  0  0
   -0.2570    2.5870   -0.2385 C   0  0  0  0  0  0  0  0  0  0  0  0
   -2.9503    0.0707   -0.2987 C   0  0  0  0  0  0  0  0  0  0  0  0
    1.0894    2.6048    0.0931 C   0  0  0  0  0  0  0  0  0  0  0  0
   -4.3342   -1.5915   -0.2394 C   0  0  0  0  0  0  0  0  0  0  0  0
    1.8527    3.8820   -0.0275 C   0  0  0  0  0  0  0  0  0  0  0  0
  1 13  1  0
  1 18  1  0
  2 16  1  0
  2 18  1  0
  3  6  1  0
  3 17  2  0
  4  5  1  0
  4  7  1  0
  4  9  1  0
  5  6  1  0
  6  8  2  0
  7 12  1  0
  8 10  1  0
  8 11  1  0
 10 14  1  0
 10 15  2  0
 11 13  2  0
 13 16  1  0
 14 16  2  0
 15 17  1  0
 17 19  1  0
M  END
>  <PUBCHEM_COMPOUND_CID>  (1) 
28286

>  <PUBCHEM_CONFORMER_RMSD>  (1) 
0.6

>  <PUBCHEM_CONFORMER_DIVERSEORDER>  (1) 
4
16
17
13
5
12
7
9
15
10
2
3
14
1
6
11
8

>  <PUBCHEM_MMFF94_PARTIAL_CHARGES>  (1) 
16
1 -0.36
11 -0.15
13 0.08
14 -0.15
15 -0.15
16 0.08
17 0.17
18 0.56
19 0.14
2 -0.36
28 0.15
3 -0.62
32 0.15
33 0.15
5 0.14
6 0.17

>  <PUBCHEM_EFFECTIVE_ROTOR_COUNT>  (1) 
3.6

>  <PUBCHEM_PHARMACOPHORE_FEATURES>  (1) 
8
1 1 acceptor
1 12 hydrophobe
1 2 acceptor
1 3 acceptor
1 9 hydrophobe
5 1 2 13 16 18 rings
6 3 6 8 10 15 17 rings
6 8 10 11 13 14 16 rings

>  <PUBCHEM_HEAVY_ATOM_COUNT>  (1) 
19

>  <PUBCHEM_ATOM_DEF_STEREO_COUNT>  (1) 
0

>  <PUBCHEM_ATOM_UDEF_STEREO_COUNT>  (1) 
1

>  <PUBCHEM_BOND_DEF_STEREO_COUNT>  (1) 
0

>  <PUBCHEM_BOND_UDEF_STEREO_COUNT>  (1) 
0

>  <PUBCHEM_ISOTOPIC_ATOM_COUNT>  (1) 
0

>  <PUBCHEM_COMPONENT_COUNT>  (1) 
1

>  <PUBCHEM_CACTVS_TAUTO_COUNT>  (1) 
2

>  <PUBCHEM_CONFORMER_ID>  (1) 
00006E7E00000004

>  <PUBCHEM_MMFF94_ENERGY>  (1) 
48.2795

>  <PUBCHEM_FEATURE_SELFOVERLAP>  (1) 
40.779

>  <PUBCHEM_SHAPE_FINGERPRINT>  (1) 
10967382 1 18119803866331688633
11578080 2 16807536575504294100
11680986 33 18263364866276876489
116883 192 18411693258156215413
12054548 360 18338233769760495710
12173636 292 17400918597185093228
12553582 1 18337955584359748162
12788726 201 18046633295953899090
13140716 1 18195513810121235544
13533116 47 18128817633229800155
13583140 156 14117227296419137579
138480 1 18409725183818742024
14178000 29 18272371979263266438
14790565 3 17547012927070274360
14863182 85 17756429622779219967
15042514 8 17833266424316574331
15442244 35 18411697678052051161
15475509 8 17985279465045739461
15502722 9 18194119839767276480
15536298 74 18339636862456231321
16945 1 18263065644469197825
1813 80 18129678421099002782
19591789 44 17544475713851889984
20028762 73 16613087200765792351
20645477 70 18192417787741988703
20671657 53 18412826858865397938
20871998 22 18411127026752574888
20871999 31 18263364702656747070
221490 88 18263648535765987371
22182313 1 18338778070712969916
23366157 5 18040991903386620416
23557571 272 18199459966644553090
23559900 14 18339069479985810201
23566358 27 18196934602482621479
238078 22 18268720415675103708
2748010 2 18265311997995404241
3071541 250 18410859883950076233
3091708 16 9717598674029463488
314173 41 18411423899182091542
335352 9 18338229354998378333
352729 6 17183612200859604825
4280585 95 18410852153721197470
6138700 20 18336547235600332332
6669772 16 17838346525237285676
7164475 11 18047753690082446114
7364860 26 18267018538762676400
81228 2 18194959634933680104
84936 31 17703497913553664184
9709674 26 18191582158783748155

>  <PUBCHEM_SHAPE_MULTIPOLES>  (1) 
374.29
7.34
3.78
0.93
0.56
2.95
0.13
-6.43
2.55
-2.19
-0.07
-0.79
-0.28
0.45

>  <PUBCHEM_SHAPE_SELFOVERLAP>  (1) 
810.359

>  <PUBCHEM_SHAPE_VOLUME>  (1) 
207.6

>  <PUBCHEM_COORDINATE_TYPE>  (1) 
2
5
10

$$$$
