28288
     RDKit          3D

 21 23  0  0  0  0  0  0  0  0999 V2000
   -3.0846   -2.0391    0.6343 O   0  0  0  0  0  0  0  0  0  0  0  0
   -4.2937   -0.4228   -0.6811 O   0  0  0  0  0  0  0  0  0  0  0  0
    1.5893    1.8565    0.2314 N   0  0  0  0  0  0  0  0  0  0  0  0
    1.7683   -0.2144    1.4183 C   0  0  0  0  0  0  0  0  0  0  0  0
    1.9746   -1.5726    0.6757 C   0  0  0  0  0  0  0  0  0  0  0  0
    0.9171    0.7574    0.5809 C   0  0  0  0  0  0  0  0  0  0  0  0
    2.7212   -1.4777   -0.6633 C   0  0  0  0  0  0  0  0  0  0  0  0
    1.1909   -0.4981    2.8261 C   0  0  0  0  0  0  0  0  0  0  0  0
    3.1615    0.4262    1.6415 C   0  0  0  0  0  0  0  0  0  0  0  0
   -0.3839    0.4364    0.2804 C   0  0  0  0  0  0  0  0  0  0  0  0
    2.9159   -2.8636   -1.2829 C   0  0  0  0  0  0  0  0  0  0  0  0
   -1.0936    1.3925   -0.4955 C   0  0  0  0  0  0  0  0  0  0  0  0
   -1.0121   -0.7517    0.6940 C   0  0  0  0  0  0  0  0  0  0  0  0
    0.8836    2.7418   -0.5045 C   0  0  0  0  0  0  0  0  0  0  0  0
   -0.4367    2.5628   -0.8889 C   0  0  0  0  0  0  0  0  0  0  0  0
   -2.4315    1.1465   -0.8504 C   0  0  0  0  0  0  0  0  0  0  0  0
   -2.3258   -0.9527    0.3237 C   0  0  0  0  0  0  0  0  0  0  0  0
   -3.0152   -0.0308   -0.4265 C   0  0  0  0  0  0  0  0  0  0  0  0
    3.6855   -2.7855   -2.5918 C   0  0  0  0  0  0  0  0  0  0  0  0
    1.6000    3.9851   -0.9160 C   0  0  0  0  0  0  0  0  0  0  0  0
   -4.3308   -1.6962   -0.0053 C   0  0  0  0  0  0  0  0  0  0  0  0
  1 17  1  0
  1 21  1  0
  2 18  1  0
  2 21  1  0
  3  6  1  0
  3 14  2  0
  4  5  1  0
  4  6  1  0
  4  8  1  0
  4  9  1  0
  5  7  1  0
  6 10  2  0
  7 11  1  0
 10 12  1  0
 10 13  1  0
 11 19  1  0
 12 15  2  0
 12 16  1  0
 13 17  2  0
 14 15  1  0
 14 20  1  0
 16 18  2  0
 17 18  1  0
M  END
>  <PUBCHEM_COMPOUND_CID>  (1) 
28288

>  <PUBCHEM_CONFORMER_RMSD>  (1) 
0.8

>  <PUBCHEM_CONFORMER_DIVERSEORDER>  (1) 
1
6
5
4
3
2
7

>  <PUBCHEM_MMFF94_PARTIAL_CHARGES>  (1) 
16
1 -0.36
13 -0.15
14 0.17
15 -0.15
16 -0.15
17 0.08
18 0.08
2 -0.36
20 0.14
21 0.56
3 -0.62
34 0.15
35 0.15
36 0.15
4 0.14
6 0.17

>  <PUBCHEM_EFFECTIVE_ROTOR_COUNT>  (1) 
4.6

>  <PUBCHEM_PHARMACOPHORE_FEATURES>  (1) 
9
1 1 acceptor
1 19 hydrophobe
1 2 acceptor
1 3 acceptor
3 4 8 9 hydrophobe
4 4 5 7 11 hydrophobe
5 1 2 17 18 21 rings
6 10 12 13 16 17 18 rings
6 3 6 10 12 14 15 rings

>  <PUBCHEM_HEAVY_ATOM_COUNT>  (1) 
21

>  <PUBCHEM_ATOM_DEF_STEREO_COUNT>  (1) 
0

>  <PUBCHEM_ATOM_UDEF_STEREO_COUNT>  (1) 
0

>  <PUBCHEM_BOND_DEF_STEREO_COUNT>  (1) 
0

>  <PUBCHEM_BOND_UDEF_STEREO_COUNT>  (1) 
0

>  <PUBCHEM_ISOTOPIC_ATOM_COUNT>  (1) 
0

>  <PUBCHEM_COMPONENT_COUNT>  (1) 
1

>  <PUBCHEM_CACTVS_TAUTO_COUNT>  (1) 
1

>  <PUBCHEM_CONFORMER_ID>  (1) 
00006E8000000001

>  <PUBCHEM_MMFF94_ENERGY>  (1) 
71.0483

>  <PUBCHEM_FEATURE_SELFOVERLAP>  (1) 
45.882

>  <PUBCHEM_SHAPE_FINGERPRINT>  (1) 
10967382 1 17608642044502986777
11488393 25 17976285709001893570
116883 192 18337945706351614173
12553582 1 18188768332392061475
12841375 5 18267036113705203860
13135754 10 15263713265449063774
13140716 1 17968650636050028337
13294875 104 12646186811456961386
13533116 47 17275096246264665151
13583140 156 16342835764394890331
14022347 108 18117554033607776257
14115302 16 16443336563974713323
14790565 3 17616538354445820780
14817 1 10896591347661896888
15475509 8 18124883357139651453
15664445 248 18335138674566593012
16945 1 17391619369733594697
1813 80 18338244773229370203
20600515 1 18192128422377923760
20602899 9 17265006221055539508
20645477 70 18117829130922003695
20905425 154 17608932332435707643
21524375 3 17395854722772990160
22182313 1 18340473474571677127
22802520 49 18054497024543122954
23557571 272 18267011766068489208
23559900 14 18411979174218430405
2748010 2 18267002990922698249
4280585 95 18409450242004545838
484985 159 16122477961510714638
5262128 65 18408605868001519915
57003041 14 17771912636431765038
6138700 20 18042120028967873636
7364860 26 18117832420355600225
81228 2 18192704549369955337
84936 31 18059001921250850688
9709674 26 18261667199012719435

>  <PUBCHEM_SHAPE_MULTIPOLES>  (1) 
415.45
6.34
3.82
1.92
3.57
2.62
-0.47
-6.01
2.08
-2.31
2.35
-2.38
-0.9
1.94

>  <PUBCHEM_SHAPE_SELFOVERLAP>  (1) 
897.217

>  <PUBCHEM_SHAPE_VOLUME>  (1) 
231.1

>  <PUBCHEM_COORDINATE_TYPE>  (1) 
2
5
10

$$$$
