28296
     RDKit          3D

 15 15  0  0  0  0  0  0  0  0999 V2000
    2.8807    0.1691   -0.6602 O   0  0  0  0  0  0  0  0  0  0  0  0
   -1.9979   -2.2090   -0.0328 O   0  0  0  0  0  0  0  0  0  0  0  0
    2.2102   -0.0864    1.5495 O   0  0  0  0  0  0  0  0  0  0  0  0
    4.6996   -0.1026    0.7604 O   0  0  0  0  0  0  0  0  0  0  0  0
   -0.4817    0.0309    0.8874 C   0  0  0  0  0  0  0  0  0  0  0  0
   -1.8911    0.1527    0.3620 C   0  0  0  0  0  0  0  0  0  0  0  0
    0.5766    0.1764   -0.2034 C   0  0  0  0  0  0  0  0  0  0  0  0
   -2.5730   -0.9744   -0.0716 C   0  0  0  0  0  0  0  0  0  0  0  0
   -2.4810    1.4076    0.3219 C   0  0  0  0  0  0  0  0  0  0  0  0
    1.9761    0.0796    0.3596 C   0  0  0  0  0  0  0  0  0  0  0  0
   -3.8744   -0.8439   -0.5568 C   0  0  0  0  0  0  0  0  0  0  0  0
   -3.7825    1.5382   -0.1627 C   0  0  0  0  0  0  0  0  0  0  0  0
   -4.4791    0.4124   -0.6023 C   0  0  0  0  0  0  0  0  0  0  0  0
    4.2053    0.0649   -0.3460 C   0  0  0  0  0  0  0  0  0  0  0  0
    5.0122    0.1845   -1.6050 C   0  0  0  0  0  0  0  0  0  0  0  0
  1 10  1  0
  1 14  1  0
  2  8  1  0
  3 10  2  0
  4 14  2  0
  5  6  1  0
  5  7  1  0
  6  8  2  0
  6  9  1  0
  7 10  1  0
  8 11  1  0
  9 12  2  0
 11 13  2  0
 12 13  1  0
 14 15  1  0
M  END
>  <PUBCHEM_COMPOUND_CID>  (1) 
28296

>  <PUBCHEM_CONFORMER_RMSD>  (1) 
0.6

>  <PUBCHEM_CONFORMER_DIVERSEORDER>  (1) 
1
71
109
121
93
68
74
111
113
138
66
61
42
12
72
62
57
69
114
107
117
123
94
30
20
43
105
32
88
49
41
133
143
85
122
63
142
130
65
115
25
87
137
13
129
110
56
90
36
14
37
102
112
104
64
149
148
44
21
97
48
103
27
78
7
106
76
15
6
118
96
140
101
17
5
100
131
55
50
22
24
70
134
18
84
28
33
29
120
127
95
73
91
128
144
82
3
59
11
141
147
52
92
119
26
31
2
146
75
45
80
116
16
8
38
89
86
10
54
135
132
40
19
9
136
77
4
99
81
51
23
47
108
67
39
145
60
83
58
139
79
34
53
126
98
46
35
124
125

>  <PUBCHEM_MMFF94_PARTIAL_CHARGES>  (1) 
20
1 -0.3
10 0.66
11 -0.15
12 -0.15
13 -0.15
14 0.66
15 0.06
2 -0.53
20 0.15
21 0.15
22 0.15
23 0.15
24 0.45
3 -0.57
4 -0.57
5 0.14
6 -0.14
7 0.06
8 0.08
9 -0.15

>  <PUBCHEM_EFFECTIVE_ROTOR_COUNT>  (1) 
5

>  <PUBCHEM_PHARMACOPHORE_FEATURES>  (1) 
4
1 2 donor
1 3 acceptor
1 4 acceptor
6 6 8 9 11 12 13 rings

>  <PUBCHEM_HEAVY_ATOM_COUNT>  (1) 
15

>  <PUBCHEM_ATOM_DEF_STEREO_COUNT>  (1) 
0

>  <PUBCHEM_ATOM_UDEF_STEREO_COUNT>  (1) 
0

>  <PUBCHEM_BOND_DEF_STEREO_COUNT>  (1) 
0

>  <PUBCHEM_BOND_UDEF_STEREO_COUNT>  (1) 
0

>  <PUBCHEM_ISOTOPIC_ATOM_COUNT>  (1) 
0

>  <PUBCHEM_COMPONENT_COUNT>  (1) 
1

>  <PUBCHEM_CACTVS_TAUTO_COUNT>  (1) 
3

>  <PUBCHEM_CONFORMER_ID>  (1) 
00006E8800000001

>  <PUBCHEM_MMFF94_ENERGY>  (1) 
28.4678

>  <PUBCHEM_FEATURE_SELFOVERLAP>  (1) 
20.308

>  <PUBCHEM_SHAPE_FINGERPRINT>  (1) 
10680689 15 18412554218504358073
11543360 7 18339089288807418020
12236239 1 17748825207299041205
12500047 106 18341888584796981295
13675066 3 12324241676613566072
13690532 89 15123791764839217636
13760787 5 16805039614767522956
14123238 8 11530484428053329864
15242439 84 17918274238131688588
15375358 24 17918273151620968462
17834072 33 17967534605313250390
17870717 6 18060149729627381231
18186145 218 17846491522322400081
19489759 90 18273211976203305220
1986462 14 18273496766842027373
20279233 1 17632859732860076814
20300324 65 18409729577823389437
20325693 3 18411987957590054909
20432913 95 14979963557935475910
204376 136 15574721308906329416
20645476 183 18113897182678015139
20645477 56 18411423882302818185
20645477 70 16343708699407578292
20871999 31 18413953884222516053
22485316 2 18272086093787561642
2297311 6 18272942634767733717
23175994 123 16988844994904946513
23402539 116 18342448236711398253
23402655 69 17894916235055361932
23403322 49 17275108314373161095
23557571 272 17988655055362623772
23559900 14 18131346423641601624
26918003 58 13183017428295446637
2838139 119 16083028726110069885
300161 21 18040433313441825780
34797466 226 18130518534357054676
4175511 318 18334289855985163925
449060 50 14923950041479997936
474 4 16806176591295205020
542803 24 17603305946773941300
543368 44 17750244749614324884
573450 72 18335127679276378802
58051976 100 18408324414447106151

>  <PUBCHEM_SHAPE_MULTIPOLES>  (1) 
285.22
10.75
1.3
1.1
9.16
0.3
0.02
-0.93
3.37
-1.84
0.04
1.15
-0.03
-0.18

>  <PUBCHEM_SHAPE_SELFOVERLAP>  (1) 
587.666

>  <PUBCHEM_SHAPE_VOLUME>  (1) 
162.8

>  <PUBCHEM_COORDINATE_TYPE>  (1) 
2
5
10

$$$$
