28295
     RDKit          3D

 17 19  0  0  0  0  0  0  0  0999 V2000
    0.0001   -0.9894   -0.6809 C   0  0  0  0  0  0  0  0  0  0  0  0
    0.0001   -2.2267    0.2080 C   0  0  0  0  0  0  0  0  0  0  0  0
   -1.1792   -0.0679   -0.4039 C   0  0  0  0  0  0  0  0  0  0  0  0
    1.1792   -0.0677   -0.4040 C   0  0  0  0  0  0  0  0  0  0  0  0
   -0.7236    1.2089   -0.0044 C   0  0  0  0  0  0  0  0  0  0  0  0
    0.7234    1.2090   -0.0047 C   0  0  0  0  0  0  0  0  0  0  0  0
    1.2538   -3.0743   -0.0744 C   0  0  0  0  0  0  0  0  0  0  0  0
    0.0002   -1.8075    1.6892 C   0  0  0  0  0  0  0  0  0  0  0  0
   -1.2533   -3.0744   -0.0743 C   0  0  0  0  0  0  0  0  0  0  0  0
   -2.5321   -0.3553   -0.4853 C   0  0  0  0  0  0  0  0  0  0  0  0
    2.5321   -0.3550   -0.4854 C   0  0  0  0  0  0  0  0  0  0  0  0
   -1.6251    2.2133    0.3082 C   0  0  0  0  0  0  0  0  0  0  0  0
    1.6248    2.2134    0.3083 C   0  0  0  0  0  0  0  0  0  0  0  0
   -3.4401    0.6572   -0.1701 C   0  0  0  0  0  0  0  0  0  0  0  0
    3.4400    0.6576   -0.1702 C   0  0  0  0  0  0  0  0  0  0  0  0
   -2.9912    1.9292    0.2218 C   0  0  0  0  0  0  0  0  0  0  0  0
    2.9909    1.9295    0.2220 C   0  0  0  0  0  0  0  0  0  0  0  0
  1  2  1  0
  1  3  1  0
  1  4  1  0
  2  7  1  0
  2  8  1  0
  2  9  1  0
  3  5  2  0
  3 10  1  0
  4  6  2  0
  4 11  1  0
  5  6  1  0
  5 12  1  0
  6 13  1  0
 10 14  2  0
 11 15  2  0
 12 16  2  0
 13 17  2  0
 14 16  1  0
 15 17  1  0
M  END
>  <PUBCHEM_COMPOUND_CID>  (1) 
28295

>  <PUBCHEM_CONFORMER_RMSD>  (1) 
0.6

>  <PUBCHEM_CONFORMER_DIVERSEORDER>  (1) 
1

>  <PUBCHEM_MMFF94_PARTIAL_CHARGES>  (1) 
19
1 0.29
10 -0.15
11 -0.15
12 -0.15
13 -0.15
14 -0.15
15 -0.15
16 -0.15
17 -0.15
28 0.15
29 0.15
3 -0.14
30 0.15
31 0.15
32 0.15
33 0.15
34 0.15
35 0.15
4 -0.14

>  <PUBCHEM_EFFECTIVE_ROTOR_COUNT>  (1) 
1.2

>  <PUBCHEM_PHARMACOPHORE_FEATURES>  (1) 
4
4 2 7 8 9 hydrophobe
5 1 3 4 5 6 rings
6 3 5 10 12 14 16 rings
6 4 6 11 13 15 17 rings

>  <PUBCHEM_HEAVY_ATOM_COUNT>  (1) 
17

>  <PUBCHEM_ATOM_DEF_STEREO_COUNT>  (1) 
0

>  <PUBCHEM_ATOM_UDEF_STEREO_COUNT>  (1) 
0

>  <PUBCHEM_BOND_DEF_STEREO_COUNT>  (1) 
0

>  <PUBCHEM_BOND_UDEF_STEREO_COUNT>  (1) 
0

>  <PUBCHEM_ISOTOPIC_ATOM_COUNT>  (1) 
0

>  <PUBCHEM_COMPONENT_COUNT>  (1) 
1

>  <PUBCHEM_CACTVS_TAUTO_COUNT>  (1) 
1

>  <PUBCHEM_CONFORMER_ID>  (1) 
00006E8700000001

>  <PUBCHEM_MMFF94_ENERGY>  (1) 
72.9267

>  <PUBCHEM_FEATURE_SELFOVERLAP>  (1) 
20.459

>  <PUBCHEM_SHAPE_FINGERPRINT>  (1) 
10411042 1 16754378212380397471
10967382 1 18411700958842478301
12035759 4 18056447687204556967
12553582 1 17185879389789070263
12644460 14 18050863121766257601
12730499 353 18262227808615328605
13027679 85 17113540874587628325
13140716 1 18267584795766724978
13380535 76 18341891930803312892
14790565 3 17189839848253251716
15309172 13 18410018736233121473
16110190 28 12493117364617144195
16945 1 18412545413795053430
18186145 218 18411983537668255116
19591789 44 18410860940522535167
20510252 161 18053667154982922144
20645476 183 18042701648536995548
20645477 70 18119524337444797925
20905425 154 17908706129170200772
21501502 16 18120935276792374236
21524375 3 18334857203568312622
22344851 341 18270683052035516680
2334 1 17979073017658040719
23388829 49 17547000832462402462
23402539 116 18198047282506247341
23419403 2 17177206609583512818
23558518 356 18118401976057860792
23559900 14 18343026597619368444
238 59 17756386466948090469
25 1 18337956696835249596
2748010 2 18051979413334918870
2871803 45 18412535527492631269
305870 269 18336825282174587477
34934 24 17183904666583564855
352729 6 18338800142459863092
4340502 62 17967820414808794209
43471831 8 18408880724465438267
54173680 148 18122062271662565758
5845 1 17252876455579300446
6138700 20 18123474878555251342
7364860 26 18123468272130093647
7832392 63 17621038659990523545
81228 2 17829326139656887809
8809292 202 18267024036658243428
9709674 26 18200315558263054788

>  <PUBCHEM_SHAPE_MULTIPOLES>  (1) 
349.85
4.54
3.52
0.88
0
2.12
0.25
-2.86
-0.35
0
0.52
0
0.31
0

>  <PUBCHEM_SHAPE_SELFOVERLAP>  (1) 
775.324

>  <PUBCHEM_SHAPE_VOLUME>  (1) 
181.2

>  <PUBCHEM_COORDINATE_TYPE>  (1) 
2
5
10

$$$$
