28300
     RDKit          3D

 27 31  0  0  0  0  0  0  0  0999 V2000
    0.0585   -1.9157    1.1123 O   0  0  0  0  0  0  0  0  0  0  0  0
   -0.0297    1.5924   -1.3104 N   0  0  0  0  0  0  0  0  0  0  0  0
    0.0120    1.6291    1.1498 N   0  0  0  0  0  0  0  0  0  0  0  0
    1.2827   -0.1651   -0.0729 C   0  0  0  0  0  0  0  0  0  0  0  0
   -1.2744   -0.1839   -0.0342 C   0  0  0  0  0  0  0  0  0  0  0  0
   -0.0251    2.4594   -0.0919 C   0  0  0  0  0  0  0  0  0  0  0  0
    0.0134   -1.0777   -0.0460 C   0  0  0  0  0  0  0  0  0  0  0  0
    1.1789    0.7359   -1.3437 C   0  0  0  0  0  0  0  0  0  0  0  0
    1.2189    0.7717    1.1721 C   0  0  0  0  0  0  0  0  0  0  0  0
   -1.2189    0.7059   -1.3176 C   0  0  0  0  0  0  0  0  0  0  0  0
   -1.1702    0.7379    1.2196 C   0  0  0  0  0  0  0  0  0  0  0  0
   -1.2593    3.4107   -0.0845 C   0  0  0  0  0  0  0  0  0  0  0  0
    1.1749    3.4531   -0.1256 C   0  0  0  0  0  0  0  0  0  0  0  0
    2.5435   -0.9639   -0.0689 C   0  0  0  0  0  0  0  0  0  0  0  0
   -2.5263   -0.9949    0.0175 C   0  0  0  0  0  0  0  0  0  0  0  0
   -1.2622    4.2716   -1.3194 C   0  0  0  0  0  0  0  0  0  0  0  0
    1.1469    4.3464    1.0857 C   0  0  0  0  0  0  0  0  0  0  0  0
    2.8022   -1.8626   -1.1031 C   0  0  0  0  0  0  0  0  0  0  0  0
   -2.8081   -1.9070   -0.9990 C   0  0  0  0  0  0  0  0  0  0  0  0
    3.4615   -0.8103    0.9694 C   0  0  0  0  0  0  0  0  0  0  0  0
   -3.4131   -0.8394    1.0823 C   0  0  0  0  0  0  0  0  0  0  0  0
    3.9810   -2.6087   -1.0992 C   0  0  0  0  0  0  0  0  0  0  0  0
   -3.9782   -2.6650   -0.9503 C   0  0  0  0  0  0  0  0  0  0  0  0
    4.6400   -1.5566    0.9734 C   0  0  0  0  0  0  0  0  0  0  0  0
   -4.5832   -1.5973    1.1308 C   0  0  0  0  0  0  0  0  0  0  0  0
    4.9001   -2.4557   -0.0611 C   0  0  0  0  0  0  0  0  0  0  0  0
   -4.8657   -2.5104    0.1147 C   0  0  0  0  0  0  0  0  0  0  0  0
  1  7  1  0
  2  6  1  0
  2  8  1  0
  2 10  1  0
  3  6  1  0
  3  9  1  0
  3 11  1  0
  4  7  1  0
  4  8  1  0
  4  9  1  0
  4 14  1  0
  5  7  1  0
  5 10  1  0
  5 11  1  0
  5 15  1  0
  6 12  1  0
  6 13  1  0
 12 16  1  0
 13 17  1  0
 14 18  2  0
 14 20  1  0
 15 19  2  0
 15 21  1  0
 18 22  1  0
 19 23  1  0
 20 24  2  0
 21 25  2  0
 22 26  2  0
 23 27  2  0
 24 26  1  0
 25 27  1  0
M  END
>  <PUBCHEM_COMPOUND_CID>  (1) 
28300

>  <PUBCHEM_CONFORMER_RMSD>  (1) 
0.8

>  <PUBCHEM_CONFORMER_DIVERSEORDER>  (1) 
1
2

>  <PUBCHEM_MMFF94_PARTIAL_CHARGES>  (1) 
34
1 -0.68
10 0.27
11 0.27
14 -0.14
15 -0.14
18 -0.15
19 -0.15
2 -0.81
20 -0.15
21 -0.15
22 -0.15
23 -0.15
24 -0.15
25 -0.15
26 -0.15
27 -0.15
3 -0.81
4 0.14
41 0.4
48 0.15
49 0.15
5 0.14
50 0.15
51 0.15
52 0.15
53 0.15
54 0.15
55 0.15
56 0.15
57 0.15
6 0.54
7 0.28
8 0.27
9 0.27

>  <PUBCHEM_EFFECTIVE_ROTOR_COUNT>  (1) 
5.2

>  <PUBCHEM_PHARMACOPHORE_FEATURES>  (1) 
12
1 1 acceptor
1 1 donor
1 16 hydrophobe
1 17 hydrophobe
1 2 cation
1 3 cation
6 14 18 20 22 24 26 rings
6 15 19 21 23 25 27 rings
6 2 3 4 6 8 9 rings
6 2 3 5 6 10 11 rings
6 2 4 5 7 8 10 rings
6 3 4 5 7 9 11 rings

>  <PUBCHEM_HEAVY_ATOM_COUNT>  (1) 
27

>  <PUBCHEM_ATOM_DEF_STEREO_COUNT>  (1) 
0

>  <PUBCHEM_ATOM_UDEF_STEREO_COUNT>  (1) 
0

>  <PUBCHEM_BOND_DEF_STEREO_COUNT>  (1) 
0

>  <PUBCHEM_BOND_UDEF_STEREO_COUNT>  (1) 
0

>  <PUBCHEM_ISOTOPIC_ATOM_COUNT>  (1) 
0

>  <PUBCHEM_COMPONENT_COUNT>  (1) 
1

>  <PUBCHEM_CACTVS_TAUTO_COUNT>  (1) 
1

>  <PUBCHEM_CONFORMER_ID>  (1) 
00006E8C00000001

>  <PUBCHEM_MMFF94_ENERGY>  (1) 
107.2737

>  <PUBCHEM_FEATURE_SELFOVERLAP>  (1) 
73.886

>  <PUBCHEM_SHAPE_FINGERPRINT>  (1) 
10411042 1 18410011039493581810
10764073 3 16338669491034925267
1100329 8 18337956662766148665
11045515 52 18408887330040593974
11069576 57 17410191225150137863
11265709 11 18410862061609343110
11578080 2 18343007918073875353
12107183 9 18270976678482484755
12160290 23 17758427104478330536
12173636 292 17474948723488407244
12293681 160 17476329748389500884
12363563 72 18335425672565960338
12553582 1 18341057384071543934
12714826 92 18187925032501021295
12788726 201 18262534593301258846
13004483 165 18411416198215948575
13134695 92 18263362658637449143
13140716 1 18338800001021822264
13149001 5 18046314523450165421
13533116 47 18121224440283401483
13544653 18 18409728473790259298
13583140 156 16271635707200393698
13681431 1 18189904282110965517
13690498 29 18055936302993235430
13757389 114 17685794427805985156
13899415 180 18337662100939379407
13911987 19 17464849013539928460
14347332 77 18266747879326552742
14739800 52 17201360917424941905
14787075 74 18187927339367736562
14844126 61 18192704557923129122
14955137 171 18266200399554804763
15042514 8 18194690258642347946
15230672 131 16970288241196558070
15420108 30 17622431067092294576
15927050 60 17261311918158436228
16945 1 17703792530565635729
17357779 13 18340469098142602959
17492 89 18195812001844560339
17539 30 18264764368306145149
17980427 26 17768526445424191845
1813 80 18411426123874982591
20587220 17 16545256606984525561
20600515 1 17916321458547387217
20642791 268 17987803037035392144
20739085 24 18268989975943075819
21041028 32 18408610257748272549
21049683 271 18191877927385090356
21304303 282 17251982110460526420
21421861 104 18127990782730596883
21452121 199 18335698381714204428
2255824 54 17907586074829645623
23366157 5 18120095249755623119
23419403 2 17773854485261287808
23557571 272 18196646294729692790
23559900 14 18269269235271056547
283562 15 18188208693758672922
3027735 51 18044094557754937715
3091708 16 8921880996469011080
3380486 145 17559082476972057040
3759504 43 17760927342391121244
394222 165 17484254306647062641
4409770 3 18047752598917874181
463206 1 18259983786043833555
474 4 17545885288397203573
59755656 520 17614555939549155964
6442390 28 17333382198765125632
6677587 24 15601086687439538605
6700243 42 17484558601713582454
70251023 43 18337381760351259175
7364860 26 18123190379061214253
7399639 24 18129929119168648050
7970288 3 18408325483910969459
9981440 41 17111848168047784312

>  <PUBCHEM_SHAPE_MULTIPOLES>  (1) 
539.82
7.81
5.12
1.42
0.27
6.42
-0.06
-11.54
0.89
-0.18
-0.71
-0.06
0.18
0.69

>  <PUBCHEM_SHAPE_SELFOVERLAP>  (1) 
1194.101

>  <PUBCHEM_SHAPE_VOLUME>  (1) 
281.4

>  <PUBCHEM_COORDINATE_TYPE>  (1) 
2
5
10

$$$$
