28301
     RDKit          3D

 14 14  0  0  1  0  0  0  0  0999 V2000
   -0.9971   -0.7570   -0.3847 O   0  0  0  0  0  0  0  0  0  0  0  0
   -3.7853   -0.9504   -0.7828 O   0  0  0  0  0  0  0  0  0  0  0  0
   -5.4579    0.6589    0.7340 O   0  0  0  0  0  0  0  0  0  0  0  0
    4.3961    0.1176    0.3424 O   0  0  0  0  0  0  0  0  0  0  0  0
   -3.2347   -0.0594    0.1902 C   0  0  0  0  0  0  0  0  0  0  0  0
   -1.8502    0.3776   -0.2745 C   0  0  0  0  0  0  0  0  0  0  0  0
   -4.1775    1.1290    0.3260 C   0  0  0  0  0  0  0  0  0  0  0  0
    0.3429   -0.5396   -0.2040 C   0  0  0  0  0  0  0  0  0  0  0  0
    0.8934    0.6913   -0.5445 C   0  0  0  0  0  0  0  0  0  0  0  0
    1.1407   -1.5517    0.3186 C   0  0  0  0  0  0  0  0  0  0  0  0
    3.0642   -0.0981    0.1638 C   0  0  0  0  0  0  0  0  0  0  0  0
    2.2582    0.9126   -0.3601 C   0  0  0  0  0  0  0  0  0  0  0  0
    2.5055   -1.3303    0.5029 C   0  0  0  0  0  0  0  0  0  0  0  0
    4.9016    1.3996   -0.0270 C   0  0  0  0  0  0  0  0  0  0  0  0
  1  6  1  0
  1  8  1  0
  2  5  1  0
  3  7  1  0
  4 11  1  0
  4 14  1  0
  5  6  1  0
  5  7  1  0
  8  9  2  0
  8 10  1  0
  9 12  1  0
 10 13  2  0
 11 12  2  0
 11 13  1  0
M  END
>  <PUBCHEM_COMPOUND_CID>  (1) 
28301

>  <PUBCHEM_CONFORMER_RMSD>  (1) 
0.6

>  <PUBCHEM_CONFORMER_DIVERSEORDER>  (1) 
2
78
21
38
68
28
17
3
69
4
74
11
72
24
13
66
73
26
42
70
15
33
19
62
59
55
37
50
67
76
9
25
64
18
51
77
14
54
5
45
57
27
36
29
6
12
63
48
60
52
1
8
61
31
53
43
30
58
71
10
47
56
23
46
22
75
34
39
65
35
16
41
49
44
32
40
20
7

>  <PUBCHEM_MMFF94_PARTIAL_CHARGES>  (1) 
20
1 -0.36
10 -0.15
11 0.08
12 -0.15
13 -0.15
14 0.28
2 -0.68
20 0.15
21 0.15
22 0.15
23 0.15
24 0.4
25 0.4
3 -0.68
4 -0.36
5 0.28
6 0.28
7 0.28
8 0.08
9 -0.15

>  <PUBCHEM_EFFECTIVE_ROTOR_COUNT>  (1) 
5

>  <PUBCHEM_PHARMACOPHORE_FEATURES>  (1) 
7
1 1 acceptor
1 2 acceptor
1 2 donor
1 3 acceptor
1 3 donor
1 4 acceptor
6 8 9 10 11 12 13 rings

>  <PUBCHEM_HEAVY_ATOM_COUNT>  (1) 
14

>  <PUBCHEM_ATOM_DEF_STEREO_COUNT>  (1) 
0

>  <PUBCHEM_ATOM_UDEF_STEREO_COUNT>  (1) 
1

>  <PUBCHEM_BOND_DEF_STEREO_COUNT>  (1) 
0

>  <PUBCHEM_BOND_UDEF_STEREO_COUNT>  (1) 
0

>  <PUBCHEM_ISOTOPIC_ATOM_COUNT>  (1) 
0

>  <PUBCHEM_COMPONENT_COUNT>  (1) 
1

>  <PUBCHEM_CACTVS_TAUTO_COUNT>  (1) 
1

>  <PUBCHEM_CONFORMER_ID>  (1) 
00006E8D00000002

>  <PUBCHEM_MMFF94_ENERGY>  (1) 
49.3152

>  <PUBCHEM_FEATURE_SELFOVERLAP>  (1) 
35.534

>  <PUBCHEM_SHAPE_FINGERPRINT>  (1) 
10354089 29 18335989709303817545
12251169 10 18260833691778203247
14252887 29 17313105211588930138
14445660 50 18412545401369171759
14911166 2 11959729378281061364
15242439 84 13254794633872626237
15775835 57 18342739615412986905
18342897 14 18342458144599647632
19050596 39 18408323293845536187
20279233 1 16370723721329093667
20645477 70 17969765411517340039
21119208 17 10447923966932460025
212847 35 18059855039110225128
22854114 59 18259702293833355677
23402539 116 17418087728328075204
23402655 69 18272084998132954071
23557571 272 16630245900503376421
26918003 58 17458349641462548705
2916195 48 17916857054017741408
293599 30 18410857702887405220
300161 21 18412256229869030565
4047638 21 18202284706252408248
42 15 17894917295785670393
449060 50 18333450936754666764
449060 62 18409165511294398770
4990 188 17988932175853861150
5104073 3 18335699455208291274

>  <PUBCHEM_SHAPE_MULTIPOLES>  (1) 
264.64
10.25
1.41
0.75
6.17
0.16
-0.01
-3.84
1.81
-0.74
0.06
0.26
0.01
-0.62

>  <PUBCHEM_SHAPE_SELFOVERLAP>  (1) 
535.477

>  <PUBCHEM_SHAPE_VOLUME>  (1) 
155.6

>  <PUBCHEM_COORDINATE_TYPE>  (1) 
2
5
10

$$$$
