28307
     RDKit          3D

 24 26  0  0  0  0  0  0  0  0999 V2000
   -7.5270    0.5273   -1.6105 F   0  0  0  0  0  0  0  0  0  0  0  0
    4.1349    1.9112   -0.3842 O   0  0  0  0  0  0  0  0  0  0  0  0
   -2.4595   -1.6116    1.4034 O   0  0  0  0  0  0  0  0  0  0  0  0
   -0.3428    0.1280    1.1600 N   0  0  0  0  0  0  0  0  0  0  0  0
    2.3498   -0.1795    0.2574 N   0  0  0  0  0  0  0  0  0  0  0  0
   -0.0564   -0.5827   -0.0924 C   0  0  0  0  0  0  0  0  0  0  0  0
    0.6350    1.2048    1.3579 C   0  0  0  0  0  0  0  0  0  0  0  0
    1.3441   -1.1994   -0.0656 C   0  0  0  0  0  0  0  0  0  0  0  0
    2.0590    0.6483    1.4319 C   0  0  0  0  0  0  0  0  0  0  0  0
   -1.7026    0.6660    1.1448 C   0  0  0  0  0  0  0  0  0  0  0  0
    3.6784   -0.4284   -0.1046 C   0  0  0  0  0  0  0  0  0  0  0  0
   -2.6871   -0.4782    0.9855 C   0  0  0  0  0  0  0  0  0  0  0  0
    4.5668    0.6191   -0.4242 C   0  0  0  0  0  0  0  0  0  0  0  0
    4.1688   -1.7491   -0.1591 C   0  0  0  0  0  0  0  0  0  0  0  0
   -3.9820   -0.2096    0.2919 C   0  0  0  0  0  0  0  0  0  0  0  0
    5.8890    0.3567   -0.7829 C   0  0  0  0  0  0  0  0  0  0  0  0
    5.4910   -2.0114   -0.5178 C   0  0  0  0  0  0  0  0  0  0  0  0
    6.3511   -0.9587   -0.8297 C   0  0  0  0  0  0  0  0  0  0  0  0
   -4.5254    1.0515    0.3775 C   0  0  0  0  0  0  0  0  0  0  0  0
   -4.5800   -1.2332   -0.4062 C   0  0  0  0  0  0  0  0  0  0  0  0
   -5.7343    1.3028   -0.2714 C   0  0  0  0  0  0  0  0  0  0  0  0
   -5.7888   -0.9818   -1.0552 C   0  0  0  0  0  0  0  0  0  0  0  0
    5.0839    2.9217   -0.7186 C   0  0  0  0  0  0  0  0  0  0  0  0
   -6.3660    0.2862   -0.9878 C   0  0  0  0  0  0  0  0  0  0  0  0
  1 24  1  0
  2 13  1  0
  2 23  1  0
  3 12  2  0
  4  6  1  0
  4  7  1  0
  4 10  1  0
  5  8  1  0
  5  9  1  0
  5 11  1  0
  6  8  1  0
  7  9  1  0
 10 12  1  0
 11 13  2  0
 11 14  1  0
 12 15  1  0
 13 16  1  0
 14 17  2  0
 15 19  2  0
 15 20  1  0
 16 18  2  0
 17 18  1  0
 19 21  1  0
 20 22  2  0
 21 24  2  0
 22 24  1  0
M  END
>  <PUBCHEM_COMPOUND_CID>  (1) 
28307

>  <PUBCHEM_CONFORMER_RMSD>  (1) 
0.8

>  <PUBCHEM_CONFORMER_DIVERSEORDER>  (1) 
2
159
67
158
19
135
89
164
101
179
151
178
43
174
186
60
39
126
118
31
134
5
170
98
181
10
56
160
145
116
152
169
130
132
74
156
84
102
86
117
76
22
70
99
173
184
133
177
24
187
123
109
83
6
68
35
157
28
49
139
73
92
172
63
52
94
75
154
114
15
51
127
115
121
1
107
138
11
149
113
167
69
87
96
65
61
97
44
91
85
14
108
37
143
79
147
29
12
32
131
111
119
41
66
48
112
142
88
30
188
34
53
50
16
137
27
120
166
46
125
90
3
55
189
81
153
175
122
57
191
100
155
20
59
21
128
144
38
183
62
124
185
23
129
163
8
105
161
36
93
13
71
78
106
82
146
26
80
176
58
180
140
148
141
45
42
54
77
165
95
162
104
25
171
110
64
33
190
17
182
168
40
9
7
136
4
47
18
72
103
150

>  <PUBCHEM_MMFF94_PARTIAL_CHARGES>  (1) 
32
1 -0.19
10 0.33
11 0.1
12 0.42
13 0.08
14 -0.15
15 0.09
16 -0.15
17 -0.15
18 -0.15
19 -0.15
2 -0.36
20 -0.15
21 -0.15
22 -0.15
23 0.28
24 0.19
3 -0.57
35 0.15
36 0.15
37 0.15
38 0.15
39 0.15
4 -0.81
40 0.15
41 0.15
42 0.15
5 -0.84
6 0.27
7 0.27
8 0.37
9 0.37

>  <PUBCHEM_EFFECTIVE_ROTOR_COUNT>  (1) 
6.2

>  <PUBCHEM_PHARMACOPHORE_FEATURES>  (1) 
7
1 2 acceptor
1 3 acceptor
1 4 cation
1 5 cation
6 11 13 14 16 17 18 rings
6 15 19 20 21 22 24 rings
6 4 5 6 7 8 9 rings

>  <PUBCHEM_HEAVY_ATOM_COUNT>  (1) 
24

>  <PUBCHEM_ATOM_DEF_STEREO_COUNT>  (1) 
0

>  <PUBCHEM_ATOM_UDEF_STEREO_COUNT>  (1) 
0

>  <PUBCHEM_BOND_DEF_STEREO_COUNT>  (1) 
0

>  <PUBCHEM_BOND_UDEF_STEREO_COUNT>  (1) 
0

>  <PUBCHEM_ISOTOPIC_ATOM_COUNT>  (1) 
0

>  <PUBCHEM_COMPONENT_COUNT>  (1) 
1

>  <PUBCHEM_CACTVS_TAUTO_COUNT>  (1) 
2

>  <PUBCHEM_CONFORMER_ID>  (1) 
00006E9300000002

>  <PUBCHEM_MMFF94_ENERGY>  (1) 
87.692

>  <PUBCHEM_FEATURE_SELFOVERLAP>  (1) 
35.524

>  <PUBCHEM_SHAPE_FINGERPRINT>  (1) 
10 15 11169914962018746215
10835480 77 18335422417328649784
11089746 13 18113900455279109658
11315181 36 16343702128076096715
12166972 35 16558744633363106587
12236239 1 17989211430216356786
12670543 26 18411982438303969451
12838862 33 18341048627883544564
13668630 136 16773799186017595676
13782708 43 13613978655981570308
13862211 1 17132114619604787534
14251752 14 18341891862067946871
14251764 18 11602828999501277945
14528608 73 18410013251622739686
14849402 71 8862354541086294262
15183329 4 18408602531070465155
15188451 53 14908177543206421819
15348495 7 9799684905118596349
15475509 35 12750976394703919860
15716309 27 11455885858654670959
17349148 13 16056887956796422915
17857418 61 17632296756989269154
1813 80 14692578710504829832
18222031 100 16415481558045279296
19377110 9 11602825722167243305
200 152 17060336310600684731
20028762 73 15841547483309660758
20157964 124 18409733971838495468
20281389 69 14851602176673056687
20612939 158 18411986870868630344
21033648 29 16805611420811893352
21150785 3 17346878974773713456
21267235 1 17846497054831159531
21623969 137 11312057643050523772
22061861 79 18412545396763007366
221357 26 18335700516455908148
22224240 67 10737292342383541649
23081809 10 17704081684943871993
23198884 109 18260266339768270015
23522609 53 17558862621796795201
23559900 14 18058720425194858569
29717793 49 18201444653583153022
3004659 81 18342738494890967322
3383291 50 14117225214182868261
4015057 19 18341058500731119929
4073 2 17895202150954930154
439807 62 18129941304012134975
465052 167 16917351441747173604
474113 269 17969778585184552058
5104073 3 9006790790714349079
5283173 99 18335702689524671937
5385378 56 14273728508836071049
59682541 35 11386381322585803845
59682541 52 18341325626285163615
7226269 152 15140681380090980909
960060 61 18343303682200440600

>  <PUBCHEM_SHAPE_MULTIPOLES>  (1) 
464.93
19.23
2
1.27
10.86
0.63
-0.15
0.06
10.11
-2.86
0.31
0.92
0.17
-0.24

>  <PUBCHEM_SHAPE_SELFOVERLAP>  (1) 
993.084

>  <PUBCHEM_SHAPE_VOLUME>  (1) 
258.7

>  <PUBCHEM_COORDINATE_TYPE>  (1) 
2
5
10

$$$$
