28313
     RDKit          3D

 24 25  0  0  0  0  0  0  0  0999 V2000
    3.1385    1.0631   -0.0024 O   0  0  0  0  0  0  0  0  0  0  0  0
    0.0757   -1.5402   -0.7380 O   0  0  0  0  0  0  0  0  0  0  0  0
    1.4010    0.7151   -1.4717 O   0  0  0  0  0  0  0  0  0  0  0  0
   -0.3399   -1.0861    1.5188 O   0  0  0  0  0  0  0  0  0  0  0  0
    4.1402    3.1801    0.6005 C   0  0  0  0  0  0  0  0  0  0  0  0
    3.0758    2.4640   -0.2355 C   0  0  0  0  0  0  0  0  0  0  0  0
    5.5488    2.7120    0.2288 C   0  0  0  0  0  0  0  0  0  0  0  0
    4.0218    4.6932    0.4312 C   0  0  0  0  0  0  0  0  0  0  0  0
    2.4086   -1.1356   -0.3562 C   0  0  0  0  0  0  0  0  0  0  0  0
    2.2408    0.3020   -0.6874 C   0  0  0  0  0  0  0  0  0  0  0  0
    1.3192   -1.9825   -0.3981 C   0  0  0  0  0  0  0  0  0  0  0  0
    3.6701   -1.5807   -0.0124 C   0  0  0  0  0  0  0  0  0  0  0  0
    1.4979   -3.3295   -0.0834 C   0  0  0  0  0  0  0  0  0  0  0  0
    3.8489   -2.9278    0.3022 C   0  0  0  0  0  0  0  0  0  0  0  0
    2.7627   -3.8022    0.2667 C   0  0  0  0  0  0  0  0  0  0  0  0
   -4.2716    0.2687    0.3160 C   0  0  0  0  0  0  0  0  0  0  0  0
   -0.6890   -1.1010    0.3486 C   0  0  0  0  0  0  0  0  0  0  0  0
   -2.9265   -0.1950    0.6989 C   0  0  0  0  0  0  0  0  0  0  0  0
   -2.0059   -0.6521   -0.1617 C   0  0  0  0  0  0  0  0  0  0  0  0
   -4.5138    0.6421   -0.9959 C   0  0  0  0  0  0  0  0  0  0  0  0
   -5.2689    0.3202    1.2763 C   0  0  0  0  0  0  0  0  0  0  0  0
   -5.7881    1.0788   -1.3576 C   0  0  0  0  0  0  0  0  0  0  0  0
   -6.5433    0.7570    0.9146 C   0  0  0  0  0  0  0  0  0  0  0  0
   -6.8030    1.1363   -0.4023 C   0  0  0  0  0  0  0  0  0  0  0  0
  1  6  1  0
  1 10  1  0
  2 11  1  0
  2 17  1  0
  3 10  2  0
  4 17  2  0
  5  6  1  0
  5  7  1  0
  5  8  1  0
  9 10  1  0
  9 11  2  0
  9 12  1  0
 11 13  1  0
 12 14  2  0
 13 15  2  0
 14 15  1  0
 16 18  1  0
 16 20  2  0
 16 21  1  0
 17 19  1  0
 18 19  2  0
 20 22  1  0
 21 23  2  0
 22 24  2  0
 23 24  1  0
M  END
>  <PUBCHEM_COMPOUND_CID>  (1) 
28313

>  <PUBCHEM_CONFORMER_RMSD>  (1) 
0.8

>  <PUBCHEM_CONFORMER_DIVERSEORDER>  (1) 
1
255
76
66
91
229
107
172
179
274
190
8
249
326
87
311
110
63
207
155
122
331
85
20
259
243
142
254
99
176
191
241
220
182
185
139
304
334
94
90
205
204
162
171
106
287
128
212
136
152
296
71
133
245
317
247
238
279
329
260
84
88
11
145
263
230
327
272
115
224
208
127
253
100
28
271
302
307
278
203
166
43
118
30
227
103
147
282
144
98
59
108
210
293
273
283
131
80
153
298
164
15
231
275
67
316
234
26
104
151
322
150
154
193
223
319
324
50
225
332
333
116
228
320
184
138
213
216
89
226
181
24
198
137
119
146
303
39
239
159
92
117
264
321
235
262
86
148
276
269
33
35
160
158
53
289
196
313
173
55
267
95
41
177
297
58
257
192
81
188
64
187
211
284
65
97
135
197
114
277
219
25
163
27
221
309
29
299
57
270
202
266
300
47
246
126
250
195
215
209
183
305
186
306
281
12
237
189
79
314
36
240
312
194
157
318
3
130
285
252
180
78
199
161
37
218
310
14
75
268
217
19
175
62
178
48
328
46
101
325
105
7
32
258
248
134
44
330
236
52
10
286
21
168
45
17
109
31
18
280
49
242
149
42
83
51
124
22
69
74
60
4
123
54
2
265
308
82
23
256
292
261
251
72
141
102
288
232
9
201
140
113
125
233
206
61
214
38
244
40
290
6
294
200
156
77
121
222
291
68
169
5
120
56
174
34
93
112
70
143
96
295
165
73
132
167
129
315
323
301
170
16
13
111

>  <PUBCHEM_MMFF94_PARTIAL_CHARGES>  (1) 
32
1 -0.43
10 0.63
11 0.08
12 -0.15
13 -0.15
14 -0.15
15 -0.15
16 0.03
17 0.71
18 -0.18
19 -0.14
2 -0.23
20 -0.15
21 -0.15
22 -0.15
23 -0.15
24 -0.15
3 -0.57
34 0.15
35 0.15
36 0.15
37 0.15
38 0.15
39 0.15
4 -0.57
40 0.15
41 0.15
42 0.15
43 0.15
44 0.15
6 0.28
9 0.09

>  <PUBCHEM_EFFECTIVE_ROTOR_COUNT>  (1) 
8

>  <PUBCHEM_PHARMACOPHORE_FEATURES>  (1) 
5
1 3 acceptor
1 4 acceptor
3 5 7 8 hydrophobe
6 16 20 21 22 23 24 rings
6 9 11 12 13 14 15 rings

>  <PUBCHEM_HEAVY_ATOM_COUNT>  (1) 
24

>  <PUBCHEM_ATOM_DEF_STEREO_COUNT>  (1) 
0

>  <PUBCHEM_ATOM_UDEF_STEREO_COUNT>  (1) 
0

>  <PUBCHEM_BOND_DEF_STEREO_COUNT>  (1) 
0

>  <PUBCHEM_BOND_UDEF_STEREO_COUNT>  (1) 
1

>  <PUBCHEM_ISOTOPIC_ATOM_COUNT>  (1) 
0

>  <PUBCHEM_COMPONENT_COUNT>  (1) 
1

>  <PUBCHEM_CACTVS_TAUTO_COUNT>  (1) 
1

>  <PUBCHEM_CONFORMER_ID>  (1) 
00006E9900000001

>  <PUBCHEM_MMFF94_ENERGY>  (1) 
71.2858

>  <PUBCHEM_FEATURE_SELFOVERLAP>  (1) 
25.372

>  <PUBCHEM_SHAPE_FINGERPRINT>  (1) 
10411042 1 17906734701028544270
10595046 47 18343298176738058903
10937287 8 18123751113207292616
11135609 127 18341603786280792901
12166972 35 18057603170361064715
12616971 3 18201436922979786431
12633257 1 16226885725931257060
12730499 353 18336558178263853427
12769317 202 18271804678576870888
13533116 47 18336832996331243213
13726171 33 17273988020047596403
13878862 14 18262220150071045837
13955234 65 18336829701696208315
13965767 371 18042392694644186020
14251764 75 18270123551146939113
14849402 71 18410299094945362624
15420108 30 18266728268410446174
15475509 35 16660915579106849050
16120349 189 18120651589691806860
17844677 252 18265620884260123181
1979834 28 18114187470627158277
20157964 124 18411417306681189437
21033648 144 18408600379587333943
21033648 29 17458340815478718613
21304303 282 17698143386516104174
2132832 1 18057324985397738473
21403212 168 18342731941250798240
21452121 103 18333728018001043017
21859007 373 17314494951706142133
22122407 14 18197794215314222905
23559900 14 18337675209222109283
23569914 152 9508409844416280257
23845131 108 18263363745138172090
283562 15 17691115354893031694
2838139 119 18341044224212711941
3411729 13 18260827124926240600
44555599 121 18057610868029545537
495365 180 18335989726531302254
5104073 3 18333739030946297003
57124632 79 18410849997267657544
67856867 119 18411980248087198967
77188 2 18050851014380076198
9849439 229 18120098539680038372
9981440 41 18120654883867795962

>  <PUBCHEM_SHAPE_MULTIPOLES>  (1) 
470.43
15.25
4.82
1.1
25.03
1.83
0.02
11.79
-0.8
-12.42
-0.69
1.13
0.15
0.81

>  <PUBCHEM_SHAPE_SELFOVERLAP>  (1) 
993.751

>  <PUBCHEM_SHAPE_VOLUME>  (1) 
262

>  <PUBCHEM_COORDINATE_TYPE>  (1) 
2
5
10

$$$$
