28331
     RDKit          3D

 14 15  0  0  1  0  0  0  0  0999 V2000
   -1.9854   -0.4469   -0.0881 O   0  0  0  0  0  0  0  0  0  0  0  0
   -3.9251    1.5349    0.2890 O   0  0  0  0  0  0  0  0  0  0  0  0
    1.6393    1.0654   -0.2182 C   0  0  0  0  0  0  0  0  0  0  0  0
    2.7870    0.0397    0.0531 C   0  0  0  0  0  0  0  0  0  0  0  0
    0.8262    0.1985    0.8032 C   0  0  0  0  0  0  0  0  0  0  0  0
    2.2112   -0.0129    1.5052 C   0  0  0  0  0  0  0  0  0  0  0  0
    2.6069   -1.2822   -0.7138 C   0  0  0  0  0  0  0  0  0  0  0  0
    0.3009   -1.0662    0.1861 C   0  0  0  0  0  0  0  0  0  0  0  0
    1.1108    1.1555   -1.6358 C   0  0  0  0  0  0  0  0  0  0  0  0
    1.9368    2.4787    0.2613 C   0  0  0  0  0  0  0  0  0  0  0  0
    1.1861   -1.7679   -0.5463 C   0  0  0  0  0  0  0  0  0  0  0  0
   -1.1204   -1.4530    0.4140 C   0  0  0  0  0  0  0  0  0  0  0  0
   -3.3528   -0.7829    0.1125 C   0  0  0  0  0  0  0  0  0  0  0  0
   -4.2215    0.3393   -0.4222 C   0  0  0  0  0  0  0  0  0  0  0  0
  1 12  1  0
  1 13  1  0
  2 14  1  0
  3  4  1  0
  3  5  1  0
  3  9  1  0
  3 10  1  0
  4  6  1  0
  4  7  1  0
  5  6  1  0
  5  8  1  0
  7 11  1  0
  8 11  2  0
  8 12  1  0
 13 14  1  0
M  END
>  <PUBCHEM_COMPOUND_CID>  (1) 
28331

>  <PUBCHEM_CONFORMER_RMSD>  (1) 
0.6

>  <PUBCHEM_CONFORMER_DIVERSEORDER>  (1) 
1
32
23
13
37
30
9
31
6
33
19
35
27
22
25
7
8
38
12
20
36
5
11
21
29
14
24
34
2
18
26
15
28
4
17
16
10
3

>  <PUBCHEM_MMFF94_PARTIAL_CHARGES>  (1) 
11
1 -0.56
11 -0.29
12 0.42
13 0.28
14 0.28
2 -0.68
27 0.15
34 0.4
5 0.12
7 0.14
8 -0.25

>  <PUBCHEM_EFFECTIVE_ROTOR_COUNT>  (1) 
4.6

>  <PUBCHEM_PHARMACOPHORE_FEATURES>  (1) 
5
1 1 acceptor
1 2 acceptor
1 2 donor
3 3 9 10 hydrophobe
7 3 4 5 6 7 8 11 rings

>  <PUBCHEM_HEAVY_ATOM_COUNT>  (1) 
14

>  <PUBCHEM_ATOM_DEF_STEREO_COUNT>  (1) 
0

>  <PUBCHEM_ATOM_UDEF_STEREO_COUNT>  (1) 
2

>  <PUBCHEM_BOND_DEF_STEREO_COUNT>  (1) 
0

>  <PUBCHEM_BOND_UDEF_STEREO_COUNT>  (1) 
0

>  <PUBCHEM_ISOTOPIC_ATOM_COUNT>  (1) 
0

>  <PUBCHEM_COMPONENT_COUNT>  (1) 
1

>  <PUBCHEM_CACTVS_TAUTO_COUNT>  (1) 
1

>  <PUBCHEM_CONFORMER_ID>  (1) 
00006EAB00000001

>  <PUBCHEM_MMFF94_ENERGY>  (1) 
40.0659

>  <PUBCHEM_FEATURE_SELFOVERLAP>  (1) 
25.375

>  <PUBCHEM_SHAPE_FINGERPRINT>  (1) 
10608611 8 18338236067615445827
11086676 242 17677038062782637392
12162725 195 18408880763594839067
12423570 1 13249154418642987882
12654215 9 18412545383915028478
12725867 57 18271811181520769014
13134695 92 17203603744803849768
13571099 22 18131637759383390094
13922767 16 18409443691508947555
14344429 50 17821445772522659774
14648413 74 18264497345841735282
15775835 57 18263363757917078453
16945 1 18270417078228857938
17041 49 18114732768074413081
18186145 218 18059868254962185819
20233049 118 18334579035927689340
20511035 2 18118407482327493922
21452121 99 14979093934010323117
22892500 29 17561070406711108112
230 275 18131071566740028083
23402655 69 18130786729215244749
23419403 2 17626353776899137538
3060560 45 18201718410087538479
5939293 188 18334288803418041533

>  <PUBCHEM_SHAPE_MULTIPOLES>  (1) 
276.37
6.06
2.03
1.12
9.1
0.63
0.07
1.41
0.04
-0.69
0.16
-0.67
0.14
0.19

>  <PUBCHEM_SHAPE_SELFOVERLAP>  (1) 
566.966

>  <PUBCHEM_SHAPE_VOLUME>  (1) 
162.4

>  <PUBCHEM_COORDINATE_TYPE>  (1) 
2
5
10

$$$$
