28341
     RDKit          3D

 20 21  0  0  0  0  0  0  0  0999 V2000
    3.5423   -1.8949    0.4065 O   0  0  0  0  0  0  0  0  0  0  0  0
    4.2170    0.7623   -0.0320 O   0  0  0  0  0  0  0  0  0  0  0  0
   -0.2230    3.0859   -0.6548 O   0  0  0  0  0  0  0  0  0  0  0  0
   -3.3620   -0.2916   -0.2066 N   0  0  0  0  0  0  0  0  0  0  0  0
   -1.1259   -0.7648   -0.0165 N   0  0  0  0  0  0  0  0  0  0  0  0
   -1.8326    1.4682   -0.4462 N   0  0  0  0  0  0  0  0  0  0  0  0
   -2.0817    0.2020   -0.2334 C   0  0  0  0  0  0  0  0  0  0  0  0
    0.2243   -0.4108   -0.0157 C   0  0  0  0  0  0  0  0  0  0  0  0
   -4.4610    0.5410    0.2262 C   0  0  0  0  0  0  0  0  0  0  0  0
   -3.6770   -1.5517   -0.8404 C   0  0  0  0  0  0  0  0  0  0  0  0
    0.5730    0.9277   -0.2364 C   0  0  0  0  0  0  0  0  0  0  0  0
    1.2324   -1.3542    0.1997 C   0  0  0  0  0  0  0  0  0  0  0  0
   -0.5218    1.9113   -0.4625 C   0  0  0  0  0  0  0  0  0  0  0  0
    1.9133    1.3237   -0.2425 C   0  0  0  0  0  0  0  0  0  0  0  0
    2.5721   -0.9618    0.1944 C   0  0  0  0  0  0  0  0  0  0  0  0
    2.9110    0.3735   -0.0258 C   0  0  0  0  0  0  0  0  0  0  0  0
   -4.5508    0.5873    1.7421 C   0  0  0  0  0  0  0  0  0  0  0  0
   -4.1913   -2.5617    0.1714 C   0  0  0  0  0  0  0  0  0  0  0  0
    4.0637   -2.5598   -0.7422 C   0  0  0  0  0  0  0  0  0  0  0  0
    4.7779    1.1684    1.2147 C   0  0  0  0  0  0  0  0  0  0  0  0
  1 15  1  0
  1 19  1  0
  2 16  1  0
  2 20  1  0
  3 13  2  0
  4  7  1  0
  4  9  1  0
  4 10  1  0
  5  7  1  0
  5  8  1  0
  6  7  2  0
  6 13  1  0
  8 11  2  0
  8 12  1  0
  9 17  1  0
 10 18  1  0
 11 13  1  0
 11 14  1  0
 12 15  2  0
 14 16  2  0
 15 16  1  0
M  END
>  <PUBCHEM_COMPOUND_CID>  (1) 
28341

>  <PUBCHEM_CONFORMER_RMSD>  (1) 
0.8

>  <PUBCHEM_CONFORMER_DIVERSEORDER>  (1) 
1
3
6
2
4
5

>  <PUBCHEM_MMFF94_PARTIAL_CHARGES>  (1) 
21
1 -0.36
10 0.37
11 0.09
12 -0.15
13 0.69
14 -0.15
15 0.08
16 0.08
19 0.28
2 -0.36
20 0.28
25 0.4
26 0.15
27 0.15
3 -0.57
4 -0.79
5 -0.55
6 -0.66
7 0.55
8 0.1
9 0.37

>  <PUBCHEM_EFFECTIVE_ROTOR_COUNT>  (1) 
5

>  <PUBCHEM_PHARMACOPHORE_FEATURES>  (1) 
7
1 1 acceptor
1 2 acceptor
1 3 acceptor
1 5 donor
1 6 donor
6 5 6 7 8 11 13 rings
6 8 11 12 14 15 16 rings

>  <PUBCHEM_HEAVY_ATOM_COUNT>  (1) 
20

>  <PUBCHEM_ATOM_DEF_STEREO_COUNT>  (1) 
0

>  <PUBCHEM_ATOM_UDEF_STEREO_COUNT>  (1) 
0

>  <PUBCHEM_BOND_DEF_STEREO_COUNT>  (1) 
0

>  <PUBCHEM_BOND_UDEF_STEREO_COUNT>  (1) 
0

>  <PUBCHEM_ISOTOPIC_ATOM_COUNT>  (1) 
0

>  <PUBCHEM_COMPONENT_COUNT>  (1) 
1

>  <PUBCHEM_CACTVS_TAUTO_COUNT>  (1) 
3

>  <PUBCHEM_CONFORMER_ID>  (1) 
00006EB500000001

>  <PUBCHEM_MMFF94_ENERGY>  (1) 
80.7994

>  <PUBCHEM_FEATURE_SELFOVERLAP>  (1) 
35.585

>  <PUBCHEM_SHAPE_FINGERPRINT>  (1) 
10618630 7 18334574611937164844
10906281 52 18115601473114474200
10967382 1 18336543914909396580
11132069 177 18408600362038192517
11543360 7 13767938917868234299
11552529 35 17774995851767486015
11806522 49 18335414728951749863
12032990 46 18335423439213991399
12236239 1 18131632266932250993
12553582 1 18261950739636714283
12892183 10 17988923409313945881
13140716 1 18340485569194619707
13544653 18 18186802482705202893
13583140 156 14620500204139528295
13675066 3 18259989253873771385
14252887 29 18408325484199788040
14576447 43 18268701895449576303
14787075 74 18042122214488405720
14790565 3 18121225539309803988
14863182 85 18337115674099634006
15196674 1 18410853265526798975
15536298 74 18412823560620528486
16945 1 18334862748914644596
1813 80 17603309245340525621
19141452 34 18341333314798882287
200 152 18200865284270647567
20281475 54 18410577296824457101
20645477 70 18338226077210584591
20739085 24 18264792985589095497
21267235 1 18337397157307569711
221490 88 18044941422632188003
22182313 1 18190165816076935916
23402539 116 18261381282501403564
23559900 14 18338507531229026830
2748010 2 18192138318583603236
34934 24 18335410245575526989
350125 39 18340207372084771968
5104073 3 18342174462052146971
9709674 26 18334859437146914106

>  <PUBCHEM_SHAPE_MULTIPOLES>  (1) 
379.04
9.82
2.7
0.96
1.28
0.42
0.29
3.06
2.54
-0.49
-0.51
0.39
-0.17
0.16

>  <PUBCHEM_SHAPE_SELFOVERLAP>  (1) 
795.553

>  <PUBCHEM_SHAPE_VOLUME>  (1) 
216.3

>  <PUBCHEM_COORDINATE_TYPE>  (1) 
2
5
10

$$$$
