28354
     RDKit          3D

 30 30  0  0  0  0  0  0  0  0999 V2000
   -3.2398   -3.1735    0.6706 I   0  0  0  0  0  0  0  0  0  0  0  0
    2.7275   -3.6909    0.6298 I   0  0  0  0  0  0  0  0  0  0  0  0
   -2.5403    0.4955    0.2593 O   0  0  0  0  0  0  0  0  0  0  0  0
    2.6623    0.0464    0.2241 O   0  0  0  0  0  0  0  0  0  0  0  0
   -2.0445    4.3872    1.4887 O   0  0  0  0  0  0  0  0  0  0  0  0
   -7.2190    0.4564    0.5442 O   0  0  0  0  0  0  0  0  0  0  0  0
    4.5378    3.6738   -2.0776 O   0  0  0  0  0  0  0  0  0  0  0  0
    5.0969    0.2990    3.5275 O   0  0  0  0  0  0  0  0  0  0  0  0
   -3.1540   -0.3290   -1.8263 O   0  0  0  0  0  0  0  0  0  0  0  0
    3.0994   -0.8701   -1.8675 O   0  0  0  0  0  0  0  0  0  0  0  0
   -0.3426   -4.4195    0.4901 O   0  0  0  0  0  0  0  0  0  0  0  0
   -0.0326   -0.7183   -1.0891 N   0  0  0  0  0  0  0  0  0  0  0  0
   -3.6823    1.3902    0.1081 N   0  0  0  0  0  0  0  0  0  0  0  0
    3.9390    0.7321    0.0573 N   0  0  0  0  0  0  0  0  0  0  0  0
   -1.2846   -1.1906   -0.6541 C   0  0  0  0  0  0  0  0  0  0  0  0
    1.1253   -1.3995   -0.6703 C   0  0  0  0  0  0  0  0  0  0  0  0
   -3.4213    2.4832    1.0406 C   0  0  0  0  0  0  0  0  0  0  0  0
   -4.8313    0.5994    0.5401 C   0  0  0  0  0  0  0  0  0  0  0  0
    3.6233    1.9115   -0.7436 C   0  0  0  0  0  0  0  0  0  0  0  0
    4.3342    1.1113    1.4109 C   0  0  0  0  0  0  0  0  0  0  0  0
   -1.4619   -2.3853   -0.0520 C   0  0  0  0  0  0  0  0  0  0  0  0
    1.1024   -2.6078   -0.0695 C   0  0  0  0  0  0  0  0  0  0  0  0
   -2.4498   -0.2970   -0.8379 C   0  0  0  0  0  0  0  0  0  0  0  0
    2.4240   -0.7189   -0.8701 C   0  0  0  0  0  0  0  0  0  0  0  0
    0.0614    0.4380   -1.9956 C   0  0  0  0  0  0  0  0  0  0  0  0
   -0.2431   -3.2440    0.1464 C   0  0  0  0  0  0  0  0  0  0  0  0
   -2.2514    3.3286    0.5628 C   0  0  0  0  0  0  0  0  0  0  0  0
   -6.1310    1.2667    0.1194 C   0  0  0  0  0  0  0  0  0  0  0  0
    4.8927    2.5429   -1.2927 C   0  0  0  0  0  0  0  0  0  0  0  0
    4.7034   -0.1176    2.2265 C   0  0  0  0  0  0  0  0  0  0  0  0
  1 21  1  0
  2 22  1  0
  3 13  1  0
  3 23  1  0
  4 14  1  0
  4 24  1  0
  5 27  1  0
  6 28  1  0
  7 29  1  0
  8 30  1  0
  9 23  2  0
 10 24  2  0
 11 26  2  0
 12 15  1  0
 12 16  1  0
 12 25  1  0
 13 17  1  0
 13 18  1  0
 14 19  1  0
 14 20  1  0
 15 21  2  0
 15 23  1  0
 16 22  2  0
 16 24  1  0
 17 27  1  0
 18 28  1  0
 19 29  1  0
 20 30  1  0
 21 26  1  0
 22 26  1  0
M  END
>  <PUBCHEM_COMPOUND_CID>  (1) 
28354

>  <PUBCHEM_CONFORMER_RMSD>  (1) 
1.2

>  <PUBCHEM_CONFORMER_DIVERSEORDER>  (1) 
1
19
18
17
20
14
15
12
6
13
5
4
16
10
9
2
11
8
7
3
21

>  <PUBCHEM_MMFF94_PARTIAL_CHARGES>  (1) 
34
1 -0.09
10 -0.57
11 -0.57
12 -0.57
13 -0.64
14 -0.64
15 0.11
16 0.11
17 0.27
18 0.27
19 0.27
2 -0.09
20 0.27
21 0.1
22 0.1
23 0.71
24 0.71
25 0.37
26 0.54
27 0.28
28 0.28
29 0.28
3 -0.05
30 0.28
4 -0.05
5 -0.68
50 0.4
51 0.4
52 0.4
53 0.4
6 -0.68
7 -0.68
8 -0.68
9 -0.57

>  <PUBCHEM_EFFECTIVE_ROTOR_COUNT>  (1) 
14

>  <PUBCHEM_PHARMACOPHORE_FEATURES>  (1) 
15
1 1 hydrophobe
1 10 acceptor
1 11 acceptor
1 12 cation
1 2 hydrophobe
1 5 acceptor
1 5 donor
1 6 acceptor
1 6 donor
1 7 acceptor
1 7 donor
1 8 acceptor
1 8 donor
1 9 acceptor
6 12 15 16 21 22 26 rings

>  <PUBCHEM_HEAVY_ATOM_COUNT>  (1) 
30

>  <PUBCHEM_ATOM_DEF_STEREO_COUNT>  (1) 
0

>  <PUBCHEM_ATOM_UDEF_STEREO_COUNT>  (1) 
0

>  <PUBCHEM_BOND_DEF_STEREO_COUNT>  (1) 
0

>  <PUBCHEM_BOND_UDEF_STEREO_COUNT>  (1) 
0

>  <PUBCHEM_ISOTOPIC_ATOM_COUNT>  (1) 
0

>  <PUBCHEM_COMPONENT_COUNT>  (1) 
1

>  <PUBCHEM_CACTVS_TAUTO_COUNT>  (1) 
1

>  <PUBCHEM_CONFORMER_ID>  (1) 
00006EC200000001

>  <PUBCHEM_MMFF94_ENERGY>  (1) 
72.8452

>  <PUBCHEM_FEATURE_SELFOVERLAP>  (1) 
76.127

>  <PUBCHEM_SHAPE_FINGERPRINT>  (1) 
10439779 11 17117475468305443368
10670039 82 18342185517994539244
12107183 9 18334003970578466610
12390115 104 18266198285850288999
12596602 18 17749677388592385809
12633257 1 18260535737091170628
12788726 201 17903641022793768402
13140716 1 18267298918675668313
13617811 41 18413383229568089561
13726171 33 18122922085698676112
14178342 30 18334576858152858710
14739800 52 17917128525530258202
14849402 71 18264498286698282766
21033648 29 17917426596703568722
23559900 14 18271813397845830550
392239 28 18340775922617538403
4340502 62 18413103935980473787
469060 322 18196667391477592099
474 4 18410016519892450629
5104073 3 17895750824093973178
7808743 9 18265905842033584308
9981440 41 18341315739450439827

>  <PUBCHEM_SHAPE_MULTIPOLES>  (1) 
573.49
12.14
5.44
1.98
5.92
0.63
0.81
-9.32
3.96
-0.43
0.9
-3.15
-1.02
-2.17

>  <PUBCHEM_SHAPE_SELFOVERLAP>  (1) 
1114.833

>  <PUBCHEM_SHAPE_VOLUME>  (1) 
354.1

>  <PUBCHEM_COORDINATE_TYPE>  (1) 
2
5
10

$$$$
