28364
     RDKit          3D

 16 17  0  0  0  0  0  0  0  0999 V2000
    3.1620   -2.5180    0.0019 Cl  0  0  0  0  0  0  0  0  0  0  0  0
    5.1553    0.0322   -0.0016 Cl  0  0  0  0  0  0  0  0  0  0  0  0
   -1.3546    0.2189   -1.1915 O   0  0  0  0  0  0  0  0  0  0  0  0
   -1.3558    0.2202    1.1923 O   0  0  0  0  0  0  0  0  0  0  0  0
   -4.8617    0.0863   -0.0015 N   0  0  0  0  0  0  0  0  0  0  0  0
   -3.4335   -0.2364   -0.0005 C   0  0  0  0  0  0  0  0  0  0  0  0
   -2.7746    0.3687   -1.2504 C   0  0  0  0  0  0  0  0  0  0  0  0
   -2.7760    0.3701    1.2496 C   0  0  0  0  0  0  0  0  0  0  0  0
   -0.8242    0.8079    0.0004 C   0  0  0  0  0  0  0  0  0  0  0  0
   -3.2604   -1.7652    0.0005 C   0  0  0  0  0  0  0  0  0  0  0  0
    0.6700    0.5975    0.0012 C   0  0  0  0  0  0  0  0  0  0  0  0
    1.1953   -0.6965    0.0004 C   0  0  0  0  0  0  0  0  0  0  0  0
    1.5324    1.6959    0.0010 C   0  0  0  0  0  0  0  0  0  0  0  0
    2.5765   -0.8911   -0.0006 C   0  0  0  0  0  0  0  0  0  0  0  0
    2.9135    1.5014   -0.0001 C   0  0  0  0  0  0  0  0  0  0  0  0
    3.4357    0.2079   -0.0011 C   0  0  0  0  0  0  0  0  0  0  0  0
  1 14  1  0
  2 16  1  0
  3  7  1  0
  3  9  1  0
  4  8  1  0
  4  9  1  0
  5  6  1  0
  6  7  1  0
  6  8  1  0
  6 10  1  0
  9 11  1  0
 11 12  2  0
 11 13  1  0
 12 14  1  0
 13 15  2  0
 14 16  2  0
 15 16  1  0
M  END
>  <PUBCHEM_COMPOUND_CID>  (1) 
28364

>  <PUBCHEM_CONFORMER_RMSD>  (1) 
0.6

>  <PUBCHEM_CONFORMER_DIVERSEORDER>  (1) 
1
5
6
3
4
2

>  <PUBCHEM_MMFF94_PARTIAL_CHARGES>  (1) 
20
1 -0.18
11 -0.14
12 -0.15
13 -0.15
14 0.18
15 -0.15
16 0.18
2 -0.18
25 0.36
26 0.36
27 0.15
28 0.15
29 0.15
3 -0.56
4 -0.56
5 -0.99
6 0.27
7 0.28
8 0.28
9 0.7

>  <PUBCHEM_EFFECTIVE_ROTOR_COUNT>  (1) 
2.2

>  <PUBCHEM_PHARMACOPHORE_FEATURES>  (1) 
6
1 3 acceptor
1 4 acceptor
1 5 cation
1 5 donor
6 11 12 13 14 15 16 rings
6 3 4 6 7 8 9 rings

>  <PUBCHEM_HEAVY_ATOM_COUNT>  (1) 
16

>  <PUBCHEM_ATOM_DEF_STEREO_COUNT>  (1) 
0

>  <PUBCHEM_ATOM_UDEF_STEREO_COUNT>  (1) 
0

>  <PUBCHEM_BOND_DEF_STEREO_COUNT>  (1) 
0

>  <PUBCHEM_BOND_UDEF_STEREO_COUNT>  (1) 
0

>  <PUBCHEM_ISOTOPIC_ATOM_COUNT>  (1) 
0

>  <PUBCHEM_COMPONENT_COUNT>  (1) 
1

>  <PUBCHEM_CACTVS_TAUTO_COUNT>  (1) 
1

>  <PUBCHEM_CONFORMER_ID>  (1) 
00006ECC00000001

>  <PUBCHEM_MMFF94_ENERGY>  (1) 
31.9471

>  <PUBCHEM_FEATURE_SELFOVERLAP>  (1) 
30.48

>  <PUBCHEM_SHAPE_FINGERPRINT>  (1) 
10616163 171 18271809080939662631
11471102 20 18409730681756623996
11578080 2 17486740074799722488
11615757 297 18343303694990416256
11806522 49 18410857668305789418
12236239 1 17703791418158614864
12251169 10 18272654553782999765
13296908 3 18261390001395764790
13533116 47 18131067087527306387
13760787 19 18272655696492207485
13862211 1 18409729526927548490
14144814 61 18130790048797755056
14251717 144 18410293610055854330
14252887 29 17775292647145229430
14386348 63 17821732727634910730
14576447 43 18343014532080469622
15219456 202 18186795868334403741
15375462 189 17917706907490785184
16945 1 18410855460819414148
17834074 16 18408605889423991959
18186145 218 17676764288766561125
19422 9 18202569462135824651
19433438 38 17967525757849373814
200 152 18343862234054518649
20201158 50 18187367627376369594
20279233 1 17749113283271233882
20281475 54 18410294692171172618
20645477 56 18040710343096035685
20645477 70 18336541621075529422
21267235 1 18342186578149321110
21730867 7 18335138704562766398
221490 88 18263369259870457042
22485316 2 18409728452220120003
2255824 54 18341334504457616812
22646028 28 18202563973104355854
23402539 116 16443055102019755444
23402655 69 18408039593669824789
23557571 272 17167857535142451692
23559900 14 18338792424430356960
26918003 58 18342174483674188673
33824 294 18408040710888939946
474 4 17843672507727258464
5104073 3 18339924929964863171
581208 293 18408604790334071608
77492 1 17703791422448333377
9709674 26 18261397783819022219

>  <PUBCHEM_SHAPE_MULTIPOLES>  (1) 
316.29
9.04
1.77
0.94
0.16
0.9
0
1.57
0
-1.42
0
0.74
-0.1
0

>  <PUBCHEM_SHAPE_SELFOVERLAP>  (1) 
646.495

>  <PUBCHEM_SHAPE_VOLUME>  (1) 
185.2

>  <PUBCHEM_COORDINATE_TYPE>  (1) 
2
5
10

$$$$
