28374
     RDKit          3D

 28 29  0  0  0  0  0  0  0  0999 V2000
   -3.6467   -1.4455   -0.8858 O   0  0  0  0  0  0  0  0  0  0  0  0
    2.2571    0.2760    1.1999 O   0  0  0  0  0  0  0  0  0  0  0  0
    4.8879    0.5136    0.4032 N   0  0  0  0  0  0  0  0  0  0  0  0
    1.8898   -1.2015   -0.5874 N   0  0  0  0  0  0  0  0  0  0  0  0
    6.3216    0.3017    0.2064 C   0  0  0  0  0  0  0  0  0  0  0  0
    4.4286    1.6604   -0.3793 C   0  0  0  0  0  0  0  0  0  0  0  0
    4.1388   -0.6879    0.0374 C   0  0  0  0  0  0  0  0  0  0  0  0
    6.8165   -0.8345    1.0980 C   0  0  0  0  0  0  0  0  0  0  0  0
    5.1886    2.9197    0.0298 C   0  0  0  0  0  0  0  0  0  0  0  0
    2.6611   -0.4641    0.3087 C   0  0  0  0  0  0  0  0  0  0  0  0
    0.4780   -1.2638   -0.6635 C   0  0  0  0  0  0  0  0  0  0  0  0
    8.3108   -1.0611    0.9279 C   0  0  0  0  0  0  0  0  0  0  0  0
    4.7140    4.1327   -0.7554 C   0  0  0  0  0  0  0  0  0  0  0  0
   -0.2020   -2.2266    0.0675 C   0  0  0  0  0  0  0  0  0  0  0  0
   -0.2015   -0.3611   -1.4678 C   0  0  0  0  0  0  0  0  0  0  0  0
   -2.2890   -1.3861   -0.8129 C   0  0  0  0  0  0  0  0  0  0  0  0
   -1.5935   -2.2881   -0.0077 C   0  0  0  0  0  0  0  0  0  0  0  0
   -1.5930   -0.4226   -1.5429 C   0  0  0  0  0  0  0  0  0  0  0  0
    0.5149   -3.2065    0.9389 C   0  0  0  0  0  0  0  0  0  0  0  0
    0.5160    0.6821   -2.2618 C   0  0  0  0  0  0  0  0  0  0  0  0
   -4.3390   -1.9210    0.2676 C   0  0  0  0  0  0  0  0  0  0  0  0
   -5.7211   -1.2813    0.3396 C   0  0  0  0  0  0  0  0  0  0  0  0
   -5.6522    0.2209    0.4703 C   0  0  0  0  0  0  0  0  0  0  0  0
   -5.6078    0.7918    1.7326 C   0  0  0  0  0  0  0  0  0  0  0  0
   -5.6350    1.0026   -0.6740 C   0  0  0  0  0  0  0  0  0  0  0  0
   -5.5446    2.1801    1.8535 C   0  0  0  0  0  0  0  0  0  0  0  0
   -5.5717    2.3908   -0.5531 C   0  0  0  0  0  0  0  0  0  0  0  0
   -5.5265    2.9794    0.7106 C   0  0  0  0  0  0  0  0  0  0  0  0
  1 16  1  0
  1 21  1  0
  2 10  2  0
  3  5  1  0
  3  6  1  0
  3  7  1  0
  4 10  1  0
  4 11  1  0
  5  8  1  0
  6  9  1  0
  7 10  1  0
  8 12  1  0
  9 13  1  0
 11 14  2  0
 11 15  1  0
 14 17  1  0
 14 19  1  0
 15 18  2  0
 15 20  1  0
 16 17  2  0
 16 18  1  0
 21 22  1  0
 22 23  1  0
 23 24  2  0
 23 25  1  0
 24 26  1  0
 25 27  2  0
 26 28  2  0
 27 28  1  0
M  END
>  <PUBCHEM_COMPOUND_CID>  (1) 
28374

>  <PUBCHEM_CONFORMER_RMSD>  (1) 
1

>  <PUBCHEM_CONFORMER_DIVERSEORDER>  (1) 
1
48
61
142
122
27
89
52
101
43
120
128
138
92
5
146
71
107
129
23
12
113
97
116
121
126
103
143
80
3
91
94
90
41
37
123
45
54
102
125
62
44
132
147
7
88
18
57
130
11
17
114
137
109
139
149
19
51
141
133
75
69
118
15
35
74
136
66
87
104
32
108
34
56
76
2
39
150
49
60
93
72
21
46
4
106
145
115
82
64
67
55
99
83
14
144
84
119
36
20
127
86
68
10
28
30
148
16
25
70
81
111
131
13
26
100
98
53
151
85
9
140
38
95
117
33
110
6
58
134
77
31
96
73
63
22
50
40
24
65
105
79
112
47
124
78
42
8
135
29
59

>  <PUBCHEM_MMFF94_PARTIAL_CHARGES>  (1) 
32
1 -0.36
10 0.57
11 0.12
14 -0.14
15 -0.14
16 0.08
17 -0.15
18 -0.15
19 0.14
2 -0.57
20 0.14
21 0.28
22 0.14
23 -0.14
24 -0.15
25 -0.15
26 -0.15
27 -0.15
28 -0.15
3 -0.81
39 0.37
4 -0.55
46 0.15
47 0.15
5 0.27
58 0.15
59 0.15
6 0.27
60 0.15
61 0.15
62 0.15
7 0.33

>  <PUBCHEM_EFFECTIVE_ROTOR_COUNT>  (1) 
12

>  <PUBCHEM_PHARMACOPHORE_FEATURES>  (1) 
8
1 1 acceptor
1 12 hydrophobe
1 13 hydrophobe
1 2 acceptor
1 3 cation
1 4 donor
6 11 14 15 16 17 18 rings
6 23 24 25 26 27 28 rings

>  <PUBCHEM_HEAVY_ATOM_COUNT>  (1) 
28

>  <PUBCHEM_ATOM_DEF_STEREO_COUNT>  (1) 
0

>  <PUBCHEM_ATOM_UDEF_STEREO_COUNT>  (1) 
0

>  <PUBCHEM_BOND_DEF_STEREO_COUNT>  (1) 
0

>  <PUBCHEM_BOND_UDEF_STEREO_COUNT>  (1) 
0

>  <PUBCHEM_ISOTOPIC_ATOM_COUNT>  (1) 
0

>  <PUBCHEM_COMPONENT_COUNT>  (1) 
1

>  <PUBCHEM_CACTVS_TAUTO_COUNT>  (1) 
2

>  <PUBCHEM_CONFORMER_ID>  (1) 
00006ED600000001

>  <PUBCHEM_MMFF94_ENERGY>  (1) 
94.1293

>  <PUBCHEM_FEATURE_SELFOVERLAP>  (1) 
40.594

>  <PUBCHEM_SHAPE_FINGERPRINT>  (1) 
105312 117 16343984715327875101
10533779 1 17558550206477376489
10674148 151 18410290308075551154
10692045 39 18408327674796808262
11456790 92 18335414661250385490
117089 54 9293843590546793521
11963148 33 9367348111568486856
12107183 9 18409162225866164906
12422481 6 17603304851800154101
13167372 99 18413107282023429512
13782708 43 12396297071390803220
14202776 33 17774155863701640623
14251751 18 11458433435881178995
14466204 15 18409733963106311477
14790565 3 18410014363971991533
15238133 3 18060136570496354536
15728490 51 7925625618797653754
16112460 7 18260548978269960012
17780758 139 13768210459413628279
19958102 18 12607414281649843989
20567600 247 8070026649199223661
21599406 157 12535351185885469201
21756936 100 18202274793436643631
22122407 14 18269563891227936432
22393880 68 11311769524324031655
23379529 103 9510303332373055637
23522609 53 17968960668095576428
2747138 104 14417850341869814614
2838139 119 17489581268795871401
392239 28 18409451358442744061
437795 96 17969778576067454469
44555599 121 18410854395535773036
5104073 3 17968932141065201378
54039377 194 9367049096293005229
6431902 208 8646763396581207609
7970288 3 8501782867343236897
999808 66 14490473054155074858

>  <PUBCHEM_SHAPE_MULTIPOLES>  (1) 
554.53
20.37
3.76
1.52
13.42
2.69
-0.16
10.14
8.44
0.33
0.24
-0.97
0.33
-2.32

>  <PUBCHEM_SHAPE_SELFOVERLAP>  (1) 
1138.237

>  <PUBCHEM_SHAPE_VOLUME>  (1) 
321.7

>  <PUBCHEM_COORDINATE_TYPE>  (1) 
2
5
10

$$$$
