28393
     RDKit          3D

 19 19  0  0  0  0  0  0  0  0999 V2000
    2.0402   -3.2653   -0.9942 Cl  0  0  0  0  0  0  0  0  0  0  0  0
    3.5420   -0.6869   -0.8516 O   0  0  0  0  0  0  0  0  0  0  0  0
    2.1175    2.7895    0.6763 O   0  0  0  0  0  0  0  0  0  0  0  0
    3.7573    1.6713   -0.2714 O   0  0  0  0  0  0  0  0  0  0  0  0
    2.5964    1.7361    0.1956 N   0  0  0  0  0  0  0  0  0  0  0  0
   -1.6951   -0.4478    1.2458 C   0  0  0  0  0  0  0  0  0  0  0  0
   -2.8349    0.6739   -0.9909 C   0  0  0  0  0  0  0  0  0  0  0  0
   -2.5851    0.6471    0.5531 C   0  0  0  0  0  0  0  0  0  0  0  0
   -0.2652   -0.5140    0.6723 C   0  0  0  0  0  0  0  0  0  0  0  0
   -1.5537   -0.0364    2.7402 C   0  0  0  0  0  0  0  0  0  0  0  0
   -2.4244   -1.8079    1.2582 C   0  0  0  0  0  0  0  0  0  0  0  0
   -3.6685    1.9433   -1.2952 C   0  0  0  0  0  0  0  0  0  0  0  0
   -3.6752   -0.5308   -1.4574 C   0  0  0  0  0  0  0  0  0  0  0  0
   -1.5526    0.7482   -1.8284 C   0  0  0  0  0  0  0  0  0  0  0  0
    0.4955    0.6254    0.6982 C   0  0  0  0  0  0  0  0  0  0  0  0
    0.1738   -1.7092    0.1660 C   0  0  0  0  0  0  0  0  0  0  0  0
    1.7892    0.5651    0.1803 C   0  0  0  0  0  0  0  0  0  0  0  0
    1.4676   -1.7694   -0.3519 C   0  0  0  0  0  0  0  0  0  0  0  0
    2.2752   -0.6322   -0.3449 C   0  0  0  0  0  0  0  0  0  0  0  0
  1 18  1  0
  2 19  1  0
  3  5  1  0
  4  5  2  0
  5 17  1  0
  6  8  1  0
  6  9  1  0
  6 10  1  0
  6 11  1  0
  7  8  1  0
  7 12  1  0
  7 13  1  0
  7 14  1  0
  9 15  2  0
  9 16  1  0
 15 17  1  0
 16 18  2  0
 17 19  2  0
 18 19  1  0
M  CHG  2   3  -1   5   1
M  END
>  <PUBCHEM_COMPOUND_CID>  (1) 
28393

>  <PUBCHEM_CONFORMER_RMSD>  (1) 
0.6

>  <PUBCHEM_CONFORMER_DIVERSEORDER>  (1) 
1
11
9
4
7
5
6
12
10
8
3
2

>  <PUBCHEM_MMFF94_PARTIAL_CHARGES>  (1) 
15
1 -0.18
15 -0.15
16 -0.15
17 0.13
18 0.18
19 0.08
2 -0.53
3 -0.52
37 0.15
38 0.15
39 0.45
4 -0.52
5 0.91
6 0.14
9 -0.14

>  <PUBCHEM_EFFECTIVE_ROTOR_COUNT>  (1) 
4

>  <PUBCHEM_PHARMACOPHORE_FEATURES>  (1) 
7
1 2 donor
1 3 acceptor
1 3 anion
1 4 acceptor
3 6 10 11 hydrophobe
4 7 12 13 14 hydrophobe
6 9 15 16 17 18 19 rings

>  <PUBCHEM_HEAVY_ATOM_COUNT>  (1) 
19

>  <PUBCHEM_ATOM_DEF_STEREO_COUNT>  (1) 
0

>  <PUBCHEM_ATOM_UDEF_STEREO_COUNT>  (1) 
0

>  <PUBCHEM_BOND_DEF_STEREO_COUNT>  (1) 
0

>  <PUBCHEM_BOND_UDEF_STEREO_COUNT>  (1) 
0

>  <PUBCHEM_ISOTOPIC_ATOM_COUNT>  (1) 
0

>  <PUBCHEM_COMPONENT_COUNT>  (1) 
1

>  <PUBCHEM_CACTVS_TAUTO_COUNT>  (1) 
4

>  <PUBCHEM_CONFORMER_ID>  (1) 
00006EE900000001

>  <PUBCHEM_MMFF94_ENERGY>  (1) 
77.4047

>  <PUBCHEM_FEATURE_SELFOVERLAP>  (1) 
35.6

>  <PUBCHEM_SHAPE_FINGERPRINT>  (1) 
10871710 139 15954995445299106556
11221954 11 17968373545570814757
12077114 3 18115018735961643424
121448 382 17558535061920587562
12553582 1 17693119378307252054
12730499 353 18334859386108063691
13009979 54 16987436395539378487
13294875 104 17460577135460116307
13464514 151 18190174594552225604
13583140 156 17895747530249364984
13764800 53 17023192595758657977
14614273 12 18194411206154078795
14817 1 10827991442472707947
15219456 202 18334018306255809416
15664445 248 16477343518910639173
16945 1 18270135525663200234
17349148 13 17989194963396439114
18186145 218 18271538575535583884
18219364 16 18338245958798554112
18981168 100 18114196266524449261
20465049 17 17327172148913163965
21160774 45 17910958268117808815
21486144 27 18335150764925937769
21524375 3 18122072163383770290
21639500 275 18343022198607285050
21731516 1 15123212373877477255
21756936 100 11894201745262607414
21947302 44 18261660485514196249
22112679 90 16343709806913119563
22802520 49 18261395507644077967
23114952 82 18337673022745456895
232386 152 15697417941563922607
23419403 2 17972911114215283379
23493267 7 17167872954185709648
23526113 38 18190180070561882970
23557571 272 17677063442108568411
23559900 14 17386012698757759098
23598291 2 17345490205498406948
23598294 1 15286798761692835041
238 59 18340473560492089861
25 1 18044937870519907501
2748010 2 18267595778425414074
427121 178 16951406512399843585
5845 1 15083192049107535939
6049 1 17970092004993197699
621550 34 18264220277733683083
621550 5 17104873089408229235
633830 44 17630353971915321016
6992083 37 16983791432920187571
77492 1 17203334355654145811
81228 2 17096384959000643499

>  <PUBCHEM_SHAPE_MULTIPOLES>  (1) 
370.29
6.04
2.69
1.84
0.35
0.26
0.67
-1.64
-2.54
-2.21
-0.36
1.69
0.18
1.53

>  <PUBCHEM_SHAPE_SELFOVERLAP>  (1) 
756.2

>  <PUBCHEM_SHAPE_VOLUME>  (1) 
217.9

>  <PUBCHEM_COORDINATE_TYPE>  (1) 
2
5
10

$$$$
