28391
     RDKit          3D

 18 20  0  0  1  0  0  0  0  0999 V2000
    3.0062    1.8175   -1.1123 O   0  0  0  0  0  0  0  0  0  0  0  0
    2.0233    2.4989    0.9094 N   0  0  0  0  0  0  0  0  0  0  0  0
    0.8457    1.0646    0.0223 C   0  0  0  0  0  0  0  0  0  0  0  0
    0.7630    1.8925    1.3056 C   0  0  0  0  0  0  0  0  0  0  0  0
   -0.2520    1.3148   -0.9747 C   0  0  0  0  0  0  0  0  0  0  0  0
    2.1531    1.8096   -0.2545 C   0  0  0  0  0  0  0  0  0  0  0  0
    1.1014   -0.4622    0.1183 C   0  0  0  0  0  0  0  0  0  0  0  0
   -1.5620    0.6803   -0.5626 C   0  0  0  0  0  0  0  0  0  0  0  0
    1.6393   -1.1491   -0.9701 C   0  0  0  0  0  0  0  0  0  0  0  0
    0.7935   -1.1486    1.2931 C   0  0  0  0  0  0  0  0  0  0  0  0
   -1.8432   -0.6137   -0.9664 C   0  0  0  0  0  0  0  0  0  0  0  0
   -2.4518    1.4068    0.2101 C   0  0  0  0  0  0  0  0  0  0  0  0
    1.8689   -2.5222   -0.8841 C   0  0  0  0  0  0  0  0  0  0  0  0
    1.0232   -2.5217    1.3791 C   0  0  0  0  0  0  0  0  0  0  0  0
    1.5610   -3.2084    0.2905 C   0  0  0  0  0  0  0  0  0  0  0  0
   -3.0509   -1.1990   -0.5862 C   0  0  0  0  0  0  0  0  0  0  0  0
   -3.6596    0.8215    0.5903 C   0  0  0  0  0  0  0  0  0  0  0  0
   -3.9590   -0.4815    0.1920 C   0  0  0  0  0  0  0  0  0  0  0  0
  1  6  2  0
  2  4  1  0
  2  6  1  0
  3  4  1  0
  3  5  1  0
  3  6  1  0
  3  7  1  0
  5  8  1  0
  7  9  2  0
  7 10  1  0
  8 11  2  0
  8 12  1  0
  9 13  1  0
 10 14  2  0
 11 16  1  0
 12 17  2  0
 13 15  2  0
 14 15  1  0
 16 18  2  0
 17 18  1  0
M  END
>  <PUBCHEM_COMPOUND_CID>  (1) 
28391

>  <PUBCHEM_CONFORMER_RMSD>  (1) 
0.6

>  <PUBCHEM_CONFORMER_DIVERSEORDER>  (1) 
2
5
8
4
6
3
7
9
1

>  <PUBCHEM_MMFF94_PARTIAL_CHARGES>  (1) 
29
1 -0.57
10 -0.15
11 -0.15
12 -0.15
13 -0.15
14 -0.15
15 -0.15
16 -0.15
17 -0.15
18 -0.15
2 -0.65
23 0.37
24 0.15
25 0.15
26 0.15
27 0.15
28 0.15
29 0.15
3 0.16
30 0.15
31 0.15
32 0.15
33 0.15
4 0.22
5 0.14
6 0.58
7 -0.11
8 -0.14
9 -0.15

>  <PUBCHEM_EFFECTIVE_ROTOR_COUNT>  (1) 
3.6

>  <PUBCHEM_PHARMACOPHORE_FEATURES>  (1) 
5
1 1 acceptor
1 2 donor
4 2 3 4 6 rings
6 7 9 10 13 14 15 rings
6 8 11 12 16 17 18 rings

>  <PUBCHEM_HEAVY_ATOM_COUNT>  (1) 
18

>  <PUBCHEM_ATOM_DEF_STEREO_COUNT>  (1) 
0

>  <PUBCHEM_ATOM_UDEF_STEREO_COUNT>  (1) 
1

>  <PUBCHEM_BOND_DEF_STEREO_COUNT>  (1) 
0

>  <PUBCHEM_BOND_UDEF_STEREO_COUNT>  (1) 
0

>  <PUBCHEM_ISOTOPIC_ATOM_COUNT>  (1) 
0

>  <PUBCHEM_COMPONENT_COUNT>  (1) 
1

>  <PUBCHEM_CACTVS_TAUTO_COUNT>  (1) 
2

>  <PUBCHEM_CONFORMER_ID>  (1) 
00006EE700000002

>  <PUBCHEM_MMFF94_ENERGY>  (1) 
52.4547

>  <PUBCHEM_FEATURE_SELFOVERLAP>  (1) 
25.373

>  <PUBCHEM_SHAPE_FINGERPRINT>  (1) 
11578080 2 17388244650873124428
12553582 1 17977945687823000719
13533116 47 18413110551031638139
14022347 108 17548993156333149815
14178342 30 18266452290796416265
14223421 5 18410289238021558205
14787075 74 18261112916419527818
15001771 113 17978234859185361784
15209289 33 18268993253256590020
15309172 13 18044367460034466669
15375462 189 18118976788579383843
16945 1 18339071605915481028
17134984 74 17623252347146114599
18981168 100 11958868555302807063
201361 129 18342183284131185113
20559304 39 18272927202881518025
20600515 1 17621873193616286628
20645477 70 18409721851535920455
21524375 3 18193829568924208560
21731516 1 18046341938226064323
22344851 341 18411420605010370432
22445834 79 18413389826431049089
2255824 54 18335425663954283815
23419403 2 14425245660524020117
23557571 272 17693085272177338506
2748010 2 18045231684573935634
2871803 45 18126276682995087015
3323516 105 18270134494738836294
458136 41 18263097637290137009
576247 118 17769648703061344038
5902787 121 18119805811646081011
6138700 20 18410862019651089998
7364860 26 18342454828979626215
74978 22 18267296535343047261
81228 2 17116053804212830080

>  <PUBCHEM_SHAPE_MULTIPOLES>  (1) 
359.58
5.04
3.33
1.27
5.36
0.59
0.16
0.52
-0.22
-3.19
0.47
-0.43
0.09
-0.35

>  <PUBCHEM_SHAPE_SELFOVERLAP>  (1) 
788.685

>  <PUBCHEM_SHAPE_VOLUME>  (1) 
192.7

>  <PUBCHEM_COORDINATE_TYPE>  (1) 
2
5
10

$$$$
