28396
     RDKit          3D

 16 16  0  0  0  0  0  0  0  0999 V2000
    3.0701    1.5413    1.7287 Cl  0  0  0  0  0  0  0  0  0  0  0  0
    4.0241    0.5501   -0.9443 O   0  0  0  0  0  0  0  0  0  0  0  0
   -1.1279   -1.2487    0.4962 C   0  0  0  0  0  0  0  0  0  0  0  0
   -2.4402    1.0498   -0.2486 C   0  0  0  0  0  0  0  0  0  0  0  0
   -2.1323   -0.0765    0.7924 C   0  0  0  0  0  0  0  0  0  0  0  0
    0.2804   -0.7530    0.1102 C   0  0  0  0  0  0  0  0  0  0  0  0
   -0.9668   -2.0514    1.8200 C   0  0  0  0  0  0  0  0  0  0  0  0
   -1.7384   -2.2399   -0.5171 C   0  0  0  0  0  0  0  0  0  0  0  0
   -3.3891    2.0608    0.4418 C   0  0  0  0  0  0  0  0  0  0  0  0
   -3.1922    0.5047   -1.4785 C   0  0  0  0  0  0  0  0  0  0  0  0
   -1.2006    1.8212   -0.7171 C   0  0  0  0  0  0  0  0  0  0  0  0
    0.9426    0.0633    0.9892 C   0  0  0  0  0  0  0  0  0  0  0  0
    0.7993   -1.1538   -1.0931 C   0  0  0  0  0  0  0  0  0  0  0  0
    2.2164    0.5114    0.6394 C   0  0  0  0  0  0  0  0  0  0  0  0
    2.0729   -0.7059   -1.4427 C   0  0  0  0  0  0  0  0  0  0  0  0
    2.7816    0.1266   -0.5765 C   0  0  0  0  0  0  0  0  0  0  0  0
  1 14  1  0
  2 16  1  0
  3  5  1  0
  3  6  1  0
  3  7  1  0
  3  8  1  0
  4  5  1  0
  4  9  1  0
  4 10  1  0
  4 11  1  0
  6 12  2  0
  6 13  1  0
 12 14  1  0
 13 15  2  0
 14 16  2  0
 15 16  1  0
M  END
>  <PUBCHEM_COMPOUND_CID>  (1) 
28396

>  <PUBCHEM_CONFORMER_RMSD>  (1) 
0.6

>  <PUBCHEM_CONFORMER_DIVERSEORDER>  (1) 
1
10
11
5
7
4
9
6
12
8
2
3

>  <PUBCHEM_MMFF94_PARTIAL_CHARGES>  (1) 
13
1 -0.18
12 -0.15
13 -0.15
14 0.18
15 -0.15
16 0.08
2 -0.53
3 0.14
34 0.15
35 0.15
36 0.15
37 0.45
6 -0.14

>  <PUBCHEM_EFFECTIVE_ROTOR_COUNT>  (1) 
3

>  <PUBCHEM_PHARMACOPHORE_FEATURES>  (1) 
4
1 2 donor
3 3 7 8 hydrophobe
4 4 9 10 11 hydrophobe
6 6 12 13 14 15 16 rings

>  <PUBCHEM_HEAVY_ATOM_COUNT>  (1) 
16

>  <PUBCHEM_ATOM_DEF_STEREO_COUNT>  (1) 
0

>  <PUBCHEM_ATOM_UDEF_STEREO_COUNT>  (1) 
0

>  <PUBCHEM_BOND_DEF_STEREO_COUNT>  (1) 
0

>  <PUBCHEM_BOND_UDEF_STEREO_COUNT>  (1) 
0

>  <PUBCHEM_ISOTOPIC_ATOM_COUNT>  (1) 
0

>  <PUBCHEM_COMPONENT_COUNT>  (1) 
1

>  <PUBCHEM_CACTVS_TAUTO_COUNT>  (1) 
3

>  <PUBCHEM_CONFORMER_ID>  (1) 
00006EEC00000001

>  <PUBCHEM_MMFF94_ENERGY>  (1) 
62.1113

>  <PUBCHEM_FEATURE_SELFOVERLAP>  (1) 
20.297

>  <PUBCHEM_SHAPE_FINGERPRINT>  (1) 
12138202 97 18411702088382135951
12251169 10 13840280181642881033
12423570 1 17411041151610959018
124424 183 18341895169572631274
12491281 212 18413108333868313487
12932764 1 18270690873603713298
13294875 104 18194391196017374530
13538477 17 17385723625202673480
13764800 53 18187661184228082617
13839132 238 18336833004488667687
14614273 12 17199661102328501842
14787075 74 14572736530038968379
14817 1 12353006451327268719
15219456 202 18060419166000632416
15775835 57 18262239902509523305
16945 1 18343295963975365563
17357990 137 17240772752492010772
18186145 218 18268430135809954925
18534176 82 18409738390695341214
18981168 100 18127975415364459468
200 152 15698000755704086718
20645476 183 17240489104246024001
20653085 51 17846778486124863873
20671657 53 12679163999847110635
21486144 27 18060426836527458153
21524375 3 18263640663243674139
21639500 275 16629961152719505344
21947302 44 17988633060929435848
22802520 49 18271813397233465183
23402539 116 18409443661491688517
23419403 2 16969205350695694635
23493267 7 18261403260323726650
23557571 272 18196646526046120418
23559900 14 18409737232193582862
23598294 1 17677349318935874442
25 1 18057615260857253553
25610 171 18189059852885781923
2748010 2 17774162452012595298
276578 36 17896046442334374131
305870 269 17604147008671048483
3071541 236 17967808383909195795
427121 178 18189629241385726057
549884 4 17843682153959599337
5845 1 11061882957885017987
6333449 129 18411704296221912983
6442390 28 18120119237628091211
6992083 37 16443607074200525786
7364860 26 17760078519736107931
77492 1 16588023558421505738
81228 2 18189342440676065515

>  <PUBCHEM_SHAPE_MULTIPOLES>  (1) 
325.27
5.63
2.21
1.64
1.7
0.19
-0.24
-3.13
0.82
-1.38
-0.45
0.43
0.23
0.95

>  <PUBCHEM_SHAPE_SELFOVERLAP>  (1) 
654.845

>  <PUBCHEM_SHAPE_VOLUME>  (1) 
194.2

>  <PUBCHEM_COORDINATE_TYPE>  (1) 
2
5
10

$$$$
