28397
     RDKit          3D

 23 24  0  0  1  0  0  0  0  0999 V2000
    1.0761    0.2816    2.4584 O   0  0  0  0  0  0  0  0  0  0  0  0
   -3.1646   -2.0488   -0.6256 N   0  0  0  0  0  0  0  0  0  0  0  0
    0.1862   -0.0818    0.1473 C   0  0  0  0  0  0  0  0  0  0  0  0
   -0.9078   -0.9915   -0.5564 C   0  0  0  0  0  0  0  0  0  0  0  0
    0.2738   -0.5966    1.6607 C   0  0  0  0  0  0  0  0  0  0  0  0
   -2.3178   -1.0865    0.0827 C   0  0  0  0  0  0  0  0  0  0  0  0
   -0.3428    1.3858    0.0816 C   0  0  0  0  0  0  0  0  0  0  0  0
    1.6118   -0.2310   -0.4655 C   0  0  0  0  0  0  0  0  0  0  0  0
    0.7786   -2.0434    1.8613 C   0  0  0  0  0  0  0  0  0  0  0  0
   -3.0110    0.2790    0.0466 C   0  0  0  0  0  0  0  0  0  0  0  0
   -0.4654    1.9540   -1.1494 C   0  0  0  0  0  0  0  0  0  0  0  0
    2.6186    0.4939    0.0977 C   0  0  0  0  0  0  0  0  0  0  0  0
   -0.6461    1.9970    1.2596 C   0  0  0  0  0  0  0  0  0  0  0  0
    1.7576   -1.0767   -1.5237 C   0  0  0  0  0  0  0  0  0  0  0  0
    0.8428   -2.4266    3.3371 C   0  0  0  0  0  0  0  0  0  0  0  0
   -2.5550   -3.4029   -0.6324 C   0  0  0  0  0  0  0  0  0  0  0  0
   -3.4421   -1.5793   -1.9821 C   0  0  0  0  0  0  0  0  0  0  0  0
   -0.9382    3.2650   -1.2083 C   0  0  0  0  0  0  0  0  0  0  0  0
    3.8943    0.3605   -0.4503 C   0  0  0  0  0  0  0  0  0  0  0  0
   -1.1190    3.3080    1.2006 C   0  0  0  0  0  0  0  0  0  0  0  0
    3.0334   -1.2102   -2.0717 C   0  0  0  0  0  0  0  0  0  0  0  0
   -1.2650    3.9420   -0.0334 C   0  0  0  0  0  0  0  0  0  0  0  0
    4.1016   -0.4916   -1.5349 C   0  0  0  0  0  0  0  0  0  0  0  0
  1  5  1  0
  2  6  1  0
  2 16  1  0
  2 17  1  0
  3  4  1  0
  3  5  1  0
  3  7  1  0
  3  8  1  0
  4  6  1  0
  5  9  1  0
  6 10  1  0
  7 11  2  0
  7 13  1  0
  8 12  2  0
  8 14  1  0
  9 15  1  0
 11 18  1  0
 12 19  1  0
 13 20  2  0
 14 21  2  0
 18 22  2  0
 19 23  2  0
 20 22  1  0
 21 23  1  0
M  END
>  <PUBCHEM_COMPOUND_CID>  (1) 
28397

>  <PUBCHEM_CONFORMER_RMSD>  (1) 
0.8

>  <PUBCHEM_CONFORMER_DIVERSEORDER>  (1) 
5
7
9
3
2
8
14
6
11
13
10
4
1
12

>  <PUBCHEM_MMFF94_PARTIAL_CHARGES>  (1) 
30
1 -0.68
11 -0.15
12 -0.15
13 -0.15
14 -0.15
16 0.27
17 0.27
18 -0.15
19 -0.15
2 -0.81
20 -0.15
21 -0.15
22 -0.15
23 -0.15
3 0.29
33 0.15
34 0.15
35 0.15
36 0.15
37 0.4
47 0.15
48 0.15
49 0.15
5 0.28
50 0.15
51 0.15
52 0.15
6 0.27
7 -0.14
8 -0.14

>  <PUBCHEM_EFFECTIVE_ROTOR_COUNT>  (1) 
7

>  <PUBCHEM_PHARMACOPHORE_FEATURES>  (1) 
6
1 1 acceptor
1 1 donor
1 15 hydrophobe
1 2 cation
6 7 11 13 18 20 22 rings
6 8 12 14 19 21 23 rings

>  <PUBCHEM_HEAVY_ATOM_COUNT>  (1) 
23

>  <PUBCHEM_ATOM_DEF_STEREO_COUNT>  (1) 
0

>  <PUBCHEM_ATOM_UDEF_STEREO_COUNT>  (1) 
2

>  <PUBCHEM_BOND_DEF_STEREO_COUNT>  (1) 
0

>  <PUBCHEM_BOND_UDEF_STEREO_COUNT>  (1) 
0

>  <PUBCHEM_ISOTOPIC_ATOM_COUNT>  (1) 
0

>  <PUBCHEM_COMPONENT_COUNT>  (1) 
1

>  <PUBCHEM_CACTVS_TAUTO_COUNT>  (1) 
1

>  <PUBCHEM_CONFORMER_ID>  (1) 
00006EED00000005

>  <PUBCHEM_MMFF94_ENERGY>  (1) 
106.5179

>  <PUBCHEM_FEATURE_SELFOVERLAP>  (1) 
30.446

>  <PUBCHEM_SHAPE_FINGERPRINT>  (1) 
10756046 70 17176297188644056682
107951 10 16598780987067716542
11135609 12 17195425830820750095
11578080 2 16773781606843157881
12035759 4 17970057855544488991
121448 382 18041007219703799404
12173636 292 17767980731011212996
12788726 201 18410296869587644936
13149001 5 17609506273136865594
13681431 1 17979650244088236620
14817 1 13530319401097827370
14943834 7 17825655660658603730
14955137 171 18197242380492914091
16752209 62 18051681153984821997
16945 1 18199766785548193316
17357779 13 18130492115833550925
1813 80 18269005339241690255
20600515 1 17970055858759619328
21285901 2 17917438562466469583
21524375 3 17684676245691563500
21756936 100 17028298693735714548
23402539 116 18335704970489494278
23419403 2 17033343552982717578
23526113 38 17828769773920129146
23557571 272 18343012303045028084
23558518 356 18335715935578508732
239999 70 17616796070259282527
266924 1 17969773086428270906
266924 78 16662334975287397323
298252 57 17618247017194740896
3380486 77 17605538041684198904
394222 165 15864338173595015032
46194498 28 17836619179568986263
497634 4 16844197626569997588
5262128 65 18052256486265953007
5845 1 14729454810008335676
68419 9 18044082454530984586
7364860 26 17623569057326839709
81228 2 18263384567197242348

>  <PUBCHEM_SHAPE_MULTIPOLES>  (1) 
462.48
5.14
4.17
2.47
3.13
2.11
1.65
-1.97
-3.45
-4.26
0.33
1
-1.63
-1.15

>  <PUBCHEM_SHAPE_SELFOVERLAP>  (1) 
967.864

>  <PUBCHEM_SHAPE_VOLUME>  (1) 
261.4

>  <PUBCHEM_COORDINATE_TYPE>  (1) 
2
5
10

$$$$
