2840
     RDKit          3D

 46 49  0  0  1  0  0  0  0  0999 V2000
   -3.6479   -1.0157   -2.2414 O   0  0  0  0  0  0  0  0  0  0  0  0
   -4.5191    3.1488    0.2716 O   0  0  0  0  0  0  0  0  0  0  0  0
   -1.3000   -2.1677    2.2218 O   0  0  0  0  0  0  0  0  0  0  0  0
   -1.6357    2.0329    2.2113 O   0  0  0  0  0  0  0  0  0  0  0  0
    0.7336   -1.2449   -0.9855 O   0  0  0  0  0  0  0  0  0  0  0  0
    3.7538    1.9075    0.0179 O   0  0  0  0  0  0  0  0  0  0  0  0
   -4.4093   -0.2620   -0.1876 N   0  0  0  0  0  0  0  0  0  0  0  0
   -1.6215   -1.3092    0.0950 N   0  0  0  0  0  0  0  0  0  0  0  0
   -2.7345    1.9818   -0.6334 N   0  0  0  0  0  0  0  0  0  0  0  0
   -0.2757    0.8995    0.7167 N   0  0  0  0  0  0  0  0  0  0  0  0
    3.6118   -1.4089    1.8964 N   0  0  0  0  0  0  0  0  0  0  0  0
   -4.9578    0.9867   -0.7581 C   0  0  0  0  0  0  0  0  0  0  0  0
   -6.4363    1.1627   -0.3946 C   0  0  0  0  0  0  0  0  0  0  0  0
   -4.6274   -0.4405    1.2568 C   0  0  0  0  0  0  0  0  0  0  0  0
   -6.7093    0.9709    1.0973 C   0  0  0  0  0  0  0  0  0  0  0  0
   -6.1107   -0.3376    1.5999 C   0  0  0  0  0  0  0  0  0  0  0  0
   -2.7454   -2.1355   -0.3250 C   0  0  0  0  0  0  0  0  0  0  0  0
   -3.6687   -1.1247   -1.0103 C   0  0  0  0  0  0  0  0  0  0  0  0
   -2.2652   -3.2230   -1.2786 C   0  0  0  0  0  0  0  0  0  0  0  0
   -4.0698    2.1535   -0.2924 C   0  0  0  0  0  0  0  0  0  0  0  0
   -1.6494    2.7755   -0.0719 C   0  0  0  0  0  0  0  0  0  0  0  0
   -1.3387   -4.2458   -0.5937 C   0  0  0  0  0  0  0  0  0  0  0  0
   -3.4671   -3.9518   -1.8889 C   0  0  0  0  0  0  0  0  0  0  0  0
   -0.6159    3.1499   -1.1201 C   0  0  0  0  0  0  0  0  0  0  0  0
    0.0026   -0.2397    1.5801 C   0  0  0  0  0  0  0  0  0  0  0  0
   -1.0628   -1.3199    1.3620 C   0  0  0  0  0  0  0  0  0  0  0  0
   -1.1517    1.9114    1.0846 C   0  0  0  0  0  0  0  0  0  0  0  0
    0.5598    3.9086   -0.5035 C   0  0  0  0  0  0  0  0  0  0  0  0
   -0.8473   -5.3413   -1.5291 C   0  0  0  0  0  0  0  0  0  0  0  0
    1.3437   -0.8022    1.2606 C   0  0  0  0  0  0  0  0  0  0  0  0
    1.5819    4.3133   -1.5678 C   0  0  0  0  0  0  0  0  0  0  0  0
    2.7355    5.1125   -0.9538 C   0  0  0  0  0  0  0  0  0  0  0  0
    2.3511   -0.8979    2.1376 C   0  0  0  0  0  0  0  0  0  0  0  0
    1.6000   -1.2951   -0.1205 C   0  0  0  0  0  0  0  0  0  0  0  0
    2.9482   -1.8512   -0.4116 C   0  0  0  0  0  0  0  0  0  0  0  0
    3.9268   -1.8953    0.6072 C   0  0  0  0  0  0  0  0  0  0  0  0
    3.5113    4.3086    0.0883 C   0  0  0  0  0  0  0  0  0  0  0  0
    4.6347   -1.4603    2.9379 C   0  0  0  0  0  0  0  0  0  0  0  0
    3.2167   -2.3222   -1.7043 C   0  0  0  0  0  0  0  0  0  0  0  0
    5.1821   -2.4323    0.2695 C   0  0  0  0  0  0  0  0  0  0  0  0
    4.0806    3.0005   -0.4418 C   0  0  0  0  0  0  0  0  0  0  0  0
    5.4515   -0.1824    2.9312 C   0  0  0  0  0  0  0  0  0  0  0  0
    4.4697   -2.8471   -2.0046 C   0  0  0  0  0  0  0  0  0  0  0  0
    5.4501   -2.9021   -1.0202 C   0  0  0  0  0  0  0  0  0  0  0  0
    5.1102    3.1366   -1.5514 C   0  0  0  0  0  0  0  0  0  0  0  0
    5.6118    1.7951   -2.0537 C   0  0  0  0  0  0  0  0  0  0  0  0
  1 18  2  0
  2 20  2  0
  3 26  2  0
  4 27  2  0
  5 34  2  0
  6 41  2  0
  7 12  1  0
  7 14  1  0
  7 18  1  0
  8 17  1  0
  8 26  1  0
  9 20  1  0
  9 21  1  0
 10 25  1  0
 10 27  1  0
 11 33  1  0
 11 36  1  0
 11 38  1  0
 12 13  1  0
 12 20  1  0
 13 15  1  0
 14 16  1  0
 15 16  1  0
 17 18  1  0
 17 19  1  0
 19 22  1  0
 19 23  1  0
 21 24  1  0
 21 27  1  0
 22 29  1  0
 24 28  1  0
 25 26  1  0
 25 30  1  0
 28 31  1  0
 30 33  2  0
 30 34  1  0
 31 32  1  0
 32 37  1  0
 34 35  1  0
 35 36  2  0
 35 39  1  0
 36 40  1  0
 37 41  1  0
 38 42  1  0
 39 43  2  0
 40 44  2  0
 41 45  1  0
 43 44  1  0
 45 46  1  0
M  END
>  <PUBCHEM_COMPOUND_CID>  (1) 
2840

>  <PUBCHEM_CONFORMER_RMSD>  (1) 
1.6

>  <PUBCHEM_CONFORMER_DIVERSEORDER>  (1) 
1
36
134
60
82
171
49
179
118
63
16
97
51
22
115
73
25
145
110
70
87
47
170
17
50
15
65
58
123
66
168
113
81
109
4
45
103
175
48
132
105
92
21
67
144
18
169
10
158
69
138
13
129
64
159
61
122
167
133
37
131
127
155
38
93
43
114
125
163
162
140
3
180
86
101
154
39
78
72
173
90
6
54
91
88
30
20
83
12
100
181
7
128
141
79
164
40
106
74
34
102
151
157
11
147
80
112
71
96
143
161
24
32
27
149
176
28
152
75
52
116
146
23
42
59
142
177
8
89
119
135
120
121
26
14
99
33
98
108
111
124
172
136
9
2
95
165
148
137
29
130
166
153
57
174
19
126
41
139
5
160
84
55
35
178
107
117
104
53
76
56
31
156
62
44
94
150
77
46
68
85

>  <PUBCHEM_MMFF94_PARTIAL_CHARGES>  (1) 
41
1 -0.57
10 -0.73
11 -0.57
12 0.36
14 0.3
17 0.36
18 0.57
2 -0.57
20 0.57
21 0.36
25 0.5
26 0.57
27 0.57
3 -0.57
30 -0.12
33 -0.05
34 0.47
35 0.09
36 0.1
37 0.06
38 0.37
39 -0.15
4 -0.57
40 -0.15
41 0.45
43 -0.15
44 -0.15
45 0.06
5 -0.57
6 -0.57
61 0.37
62 0.37
7 -0.66
71 0.37
79 0.15
8 -0.73
84 0.15
85 0.15
89 0.15
9 -0.73
90 0.15

>  <PUBCHEM_EFFECTIVE_ROTOR_COUNT>  (1) 
13

>  <PUBCHEM_PHARMACOPHORE_FEATURES>  (1) 
17
1 1 acceptor
1 10 donor
1 11 cation
1 2 acceptor
1 23 hydrophobe
1 29 hydrophobe
1 3 acceptor
1 4 acceptor
1 46 hydrophobe
1 5 acceptor
1 6 acceptor
1 8 donor
1 9 donor
5 24 28 31 32 37 hydrophobe
6 11 30 33 34 35 36 rings
6 35 36 39 40 43 44 rings
6 7 12 13 14 15 16 rings

>  <PUBCHEM_HEAVY_ATOM_COUNT>  (1) 
46

>  <PUBCHEM_ATOM_DEF_STEREO_COUNT>  (1) 
0

>  <PUBCHEM_ATOM_UDEF_STEREO_COUNT>  (1) 
5

>  <PUBCHEM_BOND_DEF_STEREO_COUNT>  (1) 
0

>  <PUBCHEM_BOND_UDEF_STEREO_COUNT>  (1) 
0

>  <PUBCHEM_ISOTOPIC_ATOM_COUNT>  (1) 
0

>  <PUBCHEM_COMPONENT_COUNT>  (1) 
1

>  <PUBCHEM_CACTVS_TAUTO_COUNT>  (1) 
24

>  <PUBCHEM_CONFORMER_ID>  (1) 
00000B1800000001

>  <PUBCHEM_MMFF94_ENERGY>  (1) 
112.5423

>  <PUBCHEM_FEATURE_SELFOVERLAP>  (1) 
86.307

>  <PUBCHEM_SHAPE_FINGERPRINT>  (1) 
10581848 31 18060422451920009747
11513181 2 18341330101562010686
11578080 2 17313395581706804514
13617811 41 18266457607865715335
15082195 135 18197484324063371719
15361156 5 17703501147437490062
15484559 13 16747585471897935901
16112460 7 18269851856074421465
21792965 270 17979091383925103409
23559900 14 18060701672039331414
4173938 77 18335997388710526510
469060 322 18123771776521703563

>  <PUBCHEM_SHAPE_MULTIPOLES>  (1) 
886.54
13.86
6.97
2.43
5.1
2.17
-1.11
1.48
-0.63
-4.28
4.45
-2.24
-1.17
-2.59

>  <PUBCHEM_SHAPE_SELFOVERLAP>  (1) 
1846.207

>  <PUBCHEM_SHAPE_VOLUME>  (1) 
495.5

>  <PUBCHEM_COORDINATE_TYPE>  (1) 
2
5
10

$$$$
