28412
     RDKit          3D

 16 17  0  0  0  0  0  0  0  0999 V2000
   -0.1628    3.0563   -0.0630 Br  0  0  0  0  0  0  0  0  0  0  0  0
    3.2353   -1.8807    0.2298 O   0  0  0  0  0  0  0  0  0  0  0  0
    4.1924    0.1360   -0.6789 O   0  0  0  0  0  0  0  0  0  0  0  0
   -3.4834   -0.1527    0.5526 N   0  0  0  0  0  0  0  0  0  0  0  0
   -5.7461   -0.4899    0.1898 N   0  0  0  0  0  0  0  0  0  0  0  0
   -4.3549   -0.8107   -1.5869 N   0  0  0  0  0  0  0  0  0  0  0  0
    0.2921    0.2799    0.5935 C   0  0  0  0  0  0  0  0  0  0  0  0
   -1.1208    0.2354    1.0811 C   0  0  0  0  0  0  0  0  0  0  0  0
    2.3520   -0.8452    0.2263 C   0  0  0  0  0  0  0  0  0  0  0  0
    1.0493   -0.8908    0.6785 C   0  0  0  0  0  0  0  0  0  0  0  0
    2.8985    0.3063   -0.2927 C   0  0  0  0  0  0  0  0  0  0  0  0
    0.8505    1.4564    0.0633 C   0  0  0  0  0  0  0  0  0  0  0  0
   -2.1280   -0.1552   -0.0045 C   0  0  0  0  0  0  0  0  0  0  0  0
    2.1723    1.4756   -0.3878 C   0  0  0  0  0  0  0  0  0  0  0  0
    4.3991   -1.2520   -0.3452 C   0  0  0  0  0  0  0  0  0  0  0  0
   -4.4455   -0.4689   -0.2559 C   0  0  0  0  0  0  0  0  0  0  0  0
  1 12  1  0
  2  9  1  0
  2 15  1  0
  3 11  1  0
  3 15  1  0
  4 13  1  0
  4 16  2  3
  5 16  1  0
  6 16  1  0
  7  8  1  0
  7 10  1  0
  7 12  2  0
  8 13  1  0
  9 10  2  0
  9 11  1  0
 11 14  2  0
 12 14  1  0
M  END
>  <PUBCHEM_COMPOUND_CID>  (1) 
28412

>  <PUBCHEM_CONFORMER_RMSD>  (1) 
0.6

>  <PUBCHEM_CONFORMER_DIVERSEORDER>  (1) 
4
23
5
15
11
2
25
21
18
1
24
19
22
20
6
3
13
9
17
7
12
16
8
10
14

>  <PUBCHEM_MMFF94_PARTIAL_CHARGES>  (1) 
22
1 -0.11
10 -0.15
11 0.08
12 0.11
13 0.25
14 -0.15
15 0.56
16 0.55
19 0.15
2 -0.36
22 0.15
25 0.4
26 0.4
27 0.4
28 0.4
3 -0.36
4 -0.7
5 -0.85
6 -0.85
7 -0.14
8 0.14
9 0.08

>  <PUBCHEM_EFFECTIVE_ROTOR_COUNT>  (1) 
3.6

>  <PUBCHEM_PHARMACOPHORE_FEATURES>  (1) 
8
1 1 hydrophobe
1 2 acceptor
1 3 acceptor
1 5 donor
1 6 donor
4 4 5 6 16 cation
5 2 3 9 11 15 rings
6 7 9 10 11 12 14 rings

>  <PUBCHEM_HEAVY_ATOM_COUNT>  (1) 
16

>  <PUBCHEM_ATOM_DEF_STEREO_COUNT>  (1) 
0

>  <PUBCHEM_ATOM_UDEF_STEREO_COUNT>  (1) 
0

>  <PUBCHEM_BOND_DEF_STEREO_COUNT>  (1) 
0

>  <PUBCHEM_BOND_UDEF_STEREO_COUNT>  (1) 
0

>  <PUBCHEM_ISOTOPIC_ATOM_COUNT>  (1) 
0

>  <PUBCHEM_COMPONENT_COUNT>  (1) 
1

>  <PUBCHEM_CACTVS_TAUTO_COUNT>  (1) 
2

>  <PUBCHEM_CONFORMER_ID>  (1) 
00006EFC00000004

>  <PUBCHEM_MMFF94_ENERGY>  (1) 
43.7748

>  <PUBCHEM_FEATURE_SELFOVERLAP>  (1) 
40.806

>  <PUBCHEM_SHAPE_FINGERPRINT>  (1) 
10498660 4 15502919854117947991
11471102 20 18261396667374899184
11578080 2 17845070931519314961
12236239 1 18060425720252549537
12251169 10 11815894556911425353
13134695 92 18411418457574793045
14251717 144 18408887351610525498
14576447 43 18341611542179099366
14911166 2 18186525414222669138
15477762 27 18410577288308362418
15848700 24 18408882940827019828
16945 1 18189076264768261536
17357779 13 18113611283668660245
1798214 20 18413387639918324519
18186145 218 17603863416792133281
18915474 69 18130502041524154943
19784866 140 18113899321365526267
200 152 18411139112684992168
20645477 70 18335143098077349194
20671657 53 18412547617477617329
20871999 31 18187925024116762981
21256008 61 18412546522033856808
21637258 2 16845015602854040038
221357 26 18260540126822346365
221490 88 18118693359577280483
22289505 5 18187636995077935693
23402539 116 18339080393344559585
23402655 69 18260828189787986029
23622692 118 18045777893520453282
2748010 2 17831325026807199984
2838139 119 15503513732199524406
2871803 45 18260832566386112298
3060560 45 18261387875250166910
351380 3 18131351912515165607
4072396 5 18041267851589409744
46194498 28 17531248421877334575
465052 167 18272658973721566215
4990 188 17603584140622478275
5281201 14 17894347787459432045
7164475 11 18191307079034264780
7471813 234 18272931639282730033
9971528 1 18342170102871318017

>  <PUBCHEM_SHAPE_MULTIPOLES>  (1) 
308.53
9.54
2.13
0.93
10.25
1.94
0.11
-5.43
2.42
-1.1
0.09
0.52
-0.1
-0.41

>  <PUBCHEM_SHAPE_SELFOVERLAP>  (1) 
640.712

>  <PUBCHEM_SHAPE_VOLUME>  (1) 
180.7

>  <PUBCHEM_COORDINATE_TYPE>  (1) 
2
5
10

$$$$
