28423
     RDKit          3D

 16 16  0  0  0  0  0  0  0  0999 V2000
    1.9275   -0.3230    0.9324 O   0  0  0  0  0  0  0  0  0  0  0  0
    4.0473    0.0773    0.2842 O   0  0  0  0  0  0  0  0  0  0  0  0
   -4.2478    1.6313    0.1807 O   0  0  0  0  0  0  0  0  0  0  0  0
    2.3594    0.3295   -1.2653 O   0  0  0  0  0  0  0  0  0  0  0  0
   -3.4755   -0.5442   -0.2986 N   0  0  0  0  0  0  0  0  0  0  0  0
   -2.1161   -0.4884    0.0105 C   0  0  0  0  0  0  0  0  0  0  0  0
    0.6018   -0.3769    0.6291 C   0  0  0  0  0  0  0  0  0  0  0  0
   -1.5570    0.6981    0.4848 C   0  0  0  0  0  0  0  0  0  0  0  0
   -1.3163   -1.6193   -0.1544 C   0  0  0  0  0  0  0  0  0  0  0  0
   -0.1979    0.7539    0.7940 C   0  0  0  0  0  0  0  0  0  0  0  0
    0.0427   -1.5635    0.1550 C   0  0  0  0  0  0  0  0  0  0  0  0
   -4.4282    0.4786   -0.1985 C   0  0  0  0  0  0  0  0  0  0  0  0
    5.0127    0.4515   -0.7040 C   0  0  0  0  0  0  0  0  0  0  0  0
    6.3922    0.4235   -0.0813 C   0  0  0  0  0  0  0  0  0  0  0  0
    2.7511    0.0583   -0.1371 C   0  0  0  0  0  0  0  0  0  0  0  0
   -5.7958    0.0132   -0.6315 C   0  0  0  0  0  0  0  0  0  0  0  0
  1  7  1  0
  1 15  1  0
  2 13  1  0
  2 15  1  0
  3 12  2  0
  4 15  2  0
  5  6  1  0
  5 12  1  0
  6  8  2  0
  6  9  1  0
  7 10  2  0
  7 11  1  0
  8 10  1  0
  9 11  2  0
 12 16  1  0
 13 14  1  0
M  END
>  <PUBCHEM_COMPOUND_CID>  (1) 
28423

>  <PUBCHEM_CONFORMER_RMSD>  (1) 
0.8

>  <PUBCHEM_CONFORMER_DIVERSEORDER>  (1) 
1
9
14
5
16
18
6
10
8
3
15
11
12
17
4
13
2
7

>  <PUBCHEM_MMFF94_PARTIAL_CHARGES>  (1) 
20
1 -0.23
10 -0.15
11 -0.15
12 0.57
13 0.28
15 0.87
16 0.06
17 0.15
18 0.15
19 0.15
2 -0.43
20 0.15
21 0.37
3 -0.57
4 -0.57
5 -0.55
6 0.12
7 0.08
8 -0.15
9 -0.15

>  <PUBCHEM_EFFECTIVE_ROTOR_COUNT>  (1) 
6

>  <PUBCHEM_PHARMACOPHORE_FEATURES>  (1) 
3
1 3 acceptor
1 5 donor
6 6 7 8 9 10 11 rings

>  <PUBCHEM_HEAVY_ATOM_COUNT>  (1) 
16

>  <PUBCHEM_ATOM_DEF_STEREO_COUNT>  (1) 
0

>  <PUBCHEM_ATOM_UDEF_STEREO_COUNT>  (1) 
0

>  <PUBCHEM_BOND_DEF_STEREO_COUNT>  (1) 
0

>  <PUBCHEM_BOND_UDEF_STEREO_COUNT>  (1) 
0

>  <PUBCHEM_ISOTOPIC_ATOM_COUNT>  (1) 
0

>  <PUBCHEM_COMPONENT_COUNT>  (1) 
1

>  <PUBCHEM_CACTVS_TAUTO_COUNT>  (1) 
2

>  <PUBCHEM_CONFORMER_ID>  (1) 
00006F0700000001

>  <PUBCHEM_MMFF94_ENERGY>  (1) 
44.4204

>  <PUBCHEM_FEATURE_SELFOVERLAP>  (1) 
15.223

>  <PUBCHEM_SHAPE_FINGERPRINT>  (1) 
10354089 29 16877663461277532020
106641 1 11314321550160543789
11315181 36 17989214776497008120
11401426 45 18412544323152915480
12119455 92 15285356232206675283
12236239 1 18040995155161828994
12251169 10 12035451648711052442
12670543 26 18060422369740260660
12714333 28 18334856121373846980
13288520 33 12247680478758710891
13533116 47 18271804572041445298
13760787 19 17968089841748534283
14350574 20 16988840609969956143
14911166 2 18202562895283770963
15048467 5 17894345566987804445
17834072 33 11527943469967335858
17834072 8 18272087214283448068
17834076 25 18408602569777892276
187816 3 17989489623331709827
19784866 240 13901915526546681056
200 152 14405189456215982850
20279233 1 17274832371683625222
20281389 69 17749103396589185244
20645476 183 18261392286287276403
20645477 56 18408040723304005398
20645477 70 16916796132514471518
20871999 31 18270675493046368519
21267235 1 18130783525892685975
21637258 2 13254792400067665452
22224240 67 13695870346094487945
23402539 116 18272366490632425356
23402655 69 18059572443373831661
23559900 14 18131068273359831800
26918003 58 12247677193040229373
293599 30 18411699868253055521
351380 3 11600004345096800245
3545911 37 18113620088203650706
366044 4 18410855464460474715
3759504 43 18114181968895332035
42 15 9007057967639306144
465052 167 10879701131135967197
4990 188 17561082497334099055
59755656 520 17822005436679043539

>  <PUBCHEM_SHAPE_MULTIPOLES>  (1) 
300.81
12.64
1.23
0.87
6.79
0.24
0.04
-3.8
3.21
-0.88
-0.06
0.25
-0.05
-0.29

>  <PUBCHEM_SHAPE_SELFOVERLAP>  (1) 
614.394

>  <PUBCHEM_SHAPE_VOLUME>  (1) 
171.3

>  <PUBCHEM_COORDINATE_TYPE>  (1) 
2
5
10

$$$$
