28426
     RDKit          3D

 20 21  0  0  1  0  0  0  0  0999 V2000
   -0.2190    0.2204   -1.2694 S   0  0  0  0  0  0  0  0  0  0  0  0
    2.1769   -2.6293   -0.2320 O   0  0  0  0  0  0  0  0  0  0  0  0
   -3.1005    1.0332    0.4441 O   0  0  0  0  0  0  0  0  0  0  0  0
   -3.7169    0.1710   -1.6092 O   0  0  0  0  0  0  0  0  0  0  0  0
    2.4013    0.2431   -0.5235 N   0  0  0  0  0  0  0  0  0  0  0  0
   -0.0861   -2.0494   -0.0436 N   0  0  0  0  0  0  0  0  0  0  0  0
    1.9555    0.5355    0.8460 C   0  0  0  0  0  0  0  0  0  0  0  0
    2.6691    1.4801   -1.2704 C   0  0  0  0  0  0  0  0  0  0  0  0
    3.0062    1.3455    1.6074 C   0  0  0  0  0  0  0  0  0  0  0  0
    3.7428    2.3211   -0.5784 C   0  0  0  0  0  0  0  0  0  0  0  0
    3.3616    2.6286    0.8653 C   0  0  0  0  0  0  0  0  0  0  0  0
    1.4074   -0.5714   -1.2222 C   0  0  0  0  0  0  0  0  0  0  0  0
    1.2394   -1.8658   -0.4501 C   0  0  0  0  0  0  0  0  0  0  0  0
   -0.9822   -1.0580   -0.3901 C   0  0  0  0  0  0  0  0  0  0  0  0
   -0.4836   -3.2299    0.7084 C   0  0  0  0  0  0  0  0  0  0  0  0
   -2.2895   -1.0363   -0.1040 C   0  0  0  0  0  0  0  0  0  0  0  0
   -0.3590   -3.0049    2.2011 C   0  0  0  0  0  0  0  0  0  0  0  0
   -3.1224    0.1001   -0.5454 C   0  0  0  0  0  0  0  0  0  0  0  0
   -3.8634    2.2174    0.1898 C   0  0  0  0  0  0  0  0  0  0  0  0
   -3.7378    3.1492    1.3763 C   0  0  0  0  0  0  0  0  0  0  0  0
  1 12  1  0
  1 14  1  0
  2 13  2  0
  3 18  1  0
  3 19  1  0
  4 18  2  0
  5  7  1  0
  5  8  1  0
  5 12  1  0
  6 13  1  0
  6 14  1  0
  6 15  1  0
  7  9  1  0
  8 10  1  0
  9 11  1  0
 10 11  1  0
 12 13  1  0
 14 16  2  0
 15 17  1  0
 16 18  1  0
 19 20  1  0
M  END
>  <PUBCHEM_COMPOUND_CID>  (1) 
28426

>  <PUBCHEM_CONFORMER_RMSD>  (1) 
0.8

>  <PUBCHEM_CONFORMER_DIVERSEORDER>  (1) 
1
48
38
36
11
13
39
15
42
7
27
41
30
3
29
22
9
4
19
6
31
18
33
5
17
2
47
32
45
16
10
26
44
37
12
24
23
34
43
46
20
40
14
21
25
35
28
8

>  <PUBCHEM_MMFF94_PARTIAL_CHARGES>  (1) 
16
1 -0.33
12 0.56
13 0.57
14 0.21
15 0.3
16 -0.14
18 0.71
19 0.28
2 -0.57
3 -0.43
34 0.15
4 -0.57
5 -0.81
6 -0.47
7 0.27
8 0.27

>  <PUBCHEM_EFFECTIVE_ROTOR_COUNT>  (1) 
6.8

>  <PUBCHEM_PHARMACOPHORE_FEATURES>  (1) 
5
1 2 acceptor
1 4 acceptor
1 5 cation
5 1 6 12 13 14 rings
6 5 7 8 9 10 11 rings

>  <PUBCHEM_HEAVY_ATOM_COUNT>  (1) 
20

>  <PUBCHEM_ATOM_DEF_STEREO_COUNT>  (1) 
0

>  <PUBCHEM_ATOM_UDEF_STEREO_COUNT>  (1) 
1

>  <PUBCHEM_BOND_DEF_STEREO_COUNT>  (1) 
0

>  <PUBCHEM_BOND_UDEF_STEREO_COUNT>  (1) 
1

>  <PUBCHEM_ISOTOPIC_ATOM_COUNT>  (1) 
0

>  <PUBCHEM_COMPONENT_COUNT>  (1) 
1

>  <PUBCHEM_CACTVS_TAUTO_COUNT>  (1) 
1

>  <PUBCHEM_CONFORMER_ID>  (1) 
00006F0A00000001

>  <PUBCHEM_MMFF94_ENERGY>  (1) 
33.8423

>  <PUBCHEM_FEATURE_SELFOVERLAP>  (1) 
25.371

>  <PUBCHEM_SHAPE_FINGERPRINT>  (1) 
11221954 11 18272941530665947305
11725454 13 16556752400108938536
12173636 292 18052252083908377620
12403259 327 14490467574145992533
12633257 1 18042385998637002690
12788726 201 17610341910690738019
13140716 1 18260552177983730819
13275264 69 17248936879578811787
13464514 151 18270975569831886564
13583140 156 14852169606066274413
13764800 53 18122347049537698778
13878862 14 17830443983065959557
13965767 371 18114454591754626108
14178342 30 18260554411667060735
14787075 74 18121769789223018743
14848178 96 18340204103108920373
15295992 7 18191606171829602467
15475509 84 16532012971582312041
15848702 68 17836644128580580149
17868525 174 17325211723938753065
17980427 23 17627484082935893431
19141452 34 10809609420970277197
20510252 161 17977388552970188734
21041028 32 16893145392530253723
21524375 3 18338785797306245246
21665062 11 17619643379945885601
23419403 2 12700960610940444087
23493267 7 18117282656346896800
23558518 356 18335983150905139371
2748010 2 18114475508371964671
352729 6 17901675091544398599
474 4 18335700499349554037
5895379 119 16770703906462379041
7808743 9 18193847169806423356
81228 2 17753068359983715851
84936 182 18343301431357996056
9981440 41 18198613514036456410

>  <PUBCHEM_SHAPE_MULTIPOLES>  (1) 
387.87
6.9
4.09
1.64
1.94
0.93
0.45
-7.97
0.3
0.94
2.17
-0.08
0.11
-0.24

>  <PUBCHEM_SHAPE_SELFOVERLAP>  (1) 
777.223

>  <PUBCHEM_SHAPE_VOLUME>  (1) 
230.5

>  <PUBCHEM_COORDINATE_TYPE>  (1) 
2
5
10

$$$$
