28424
     RDKit          3D

 22 24  0  0  0  0  0  0  0  0999 V2000
    2.2863    2.3782   -1.5215 O   0  0  0  0  0  0  0  0  0  0  0  0
    0.0625   -0.3418    0.7970 N   0  0  0  0  0  0  0  0  0  0  0  0
   -2.7163   -1.8530   -0.8004 N   0  0  0  0  0  0  0  0  0  0  0  0
   -0.6571   -1.4864    1.3796 C   0  0  0  0  0  0  0  0  0  0  0  0
   -0.6998   -2.6554    0.3960 C   0  0  0  0  0  0  0  0  0  0  0  0
   -0.7116    0.8486    0.7369 C   0  0  0  0  0  0  0  0  0  0  0  0
    1.4396   -0.5201    0.4854 C   0  0  0  0  0  0  0  0  0  0  0  0
   -0.6983    1.6800   -0.3971 C   0  0  0  0  0  0  0  0  0  0  0  0
   -1.3473   -2.3298   -0.9535 C   0  0  0  0  0  0  0  0  0  0  0  0
    0.1521    1.3183   -1.5728 C   0  0  0  0  0  0  0  0  0  0  0  0
    2.1850    0.3136   -0.3819 C   0  0  0  0  0  0  0  0  0  0  0  0
    1.5989    1.4165   -1.1874 C   0  0  0  0  0  0  0  0  0  0  0  0
   -1.5309    1.2332    1.8199 C   0  0  0  0  0  0  0  0  0  0  0  0
    2.1724   -1.5578    1.1179 C   0  0  0  0  0  0  0  0  0  0  0  0
   -1.4776    2.8483   -0.4350 C   0  0  0  0  0  0  0  0  0  0  0  0
    3.5668    0.1117   -0.5824 C   0  0  0  0  0  0  0  0  0  0  0  0
   -2.3040    2.3953    1.7762 C   0  0  0  0  0  0  0  0  0  0  0  0
   -2.2777    3.2031    0.6470 C   0  0  0  0  0  0  0  0  0  0  0  0
    3.5410   -1.7580    0.9104 C   0  0  0  0  0  0  0  0  0  0  0  0
    4.2401   -0.9194    0.0606 C   0  0  0  0  0  0  0  0  0  0  0  0
   -3.5597   -2.8901   -0.2030 C   0  0  0  0  0  0  0  0  0  0  0  0
   -3.2645   -1.4349   -2.0919 C   0  0  0  0  0  0  0  0  0  0  0  0
  1 12  2  0
  2  4  1  0
  2  6  1  0
  2  7  1  0
  3  9  1  0
  3 21  1  0
  3 22  1  0
  4  5  1  0
  5  9  1  0
  6  8  2  0
  6 13  1  0
  7 11  2  0
  7 14  1  0
  8 10  1  0
  8 15  1  0
 10 12  1  0
 11 12  1  0
 11 16  1  0
 13 17  2  0
 14 19  2  0
 15 18  2  0
 16 20  2  0
 17 18  1  0
 19 20  1  0
M  END
>  <PUBCHEM_COMPOUND_CID>  (1) 
28424

>  <PUBCHEM_CONFORMER_RMSD>  (1) 
0.8

>  <PUBCHEM_CONFORMER_DIVERSEORDER>  (1) 
1
10
12
15
8
11
16
14
19
21
17
20
7
13
5
4
6
2
9
22
18
3

>  <PUBCHEM_MMFF94_PARTIAL_CHARGES>  (1) 
29
1 -0.57
10 0.2
11 0.09
12 0.42
13 -0.15
14 -0.15
15 -0.15
16 -0.15
17 -0.15
18 -0.15
19 -0.15
2 -0.57
20 -0.15
21 0.27
22 0.27
3 -0.81
31 0.15
32 0.15
33 0.15
34 0.15
35 0.15
36 0.15
37 0.15
38 0.15
4 0.37
6 0.1
7 0.1
8 -0.14
9 0.27

>  <PUBCHEM_EFFECTIVE_ROTOR_COUNT>  (1) 
4.4

>  <PUBCHEM_PHARMACOPHORE_FEATURES>  (1) 
6
1 1 acceptor
1 2 cation
1 3 cation
6 6 8 13 15 17 18 rings
6 7 11 14 16 19 20 rings
7 2 6 7 8 10 11 12 rings

>  <PUBCHEM_HEAVY_ATOM_COUNT>  (1) 
22

>  <PUBCHEM_ATOM_DEF_STEREO_COUNT>  (1) 
0

>  <PUBCHEM_ATOM_UDEF_STEREO_COUNT>  (1) 
0

>  <PUBCHEM_BOND_DEF_STEREO_COUNT>  (1) 
0

>  <PUBCHEM_BOND_UDEF_STEREO_COUNT>  (1) 
0

>  <PUBCHEM_ISOTOPIC_ATOM_COUNT>  (1) 
0

>  <PUBCHEM_COMPONENT_COUNT>  (1) 
1

>  <PUBCHEM_CACTVS_TAUTO_COUNT>  (1) 
2

>  <PUBCHEM_CONFORMER_ID>  (1) 
00006F0800000001

>  <PUBCHEM_MMFF94_ENERGY>  (1) 
89.3407

>  <PUBCHEM_FEATURE_SELFOVERLAP>  (1) 
30.461

>  <PUBCHEM_SHAPE_FINGERPRINT>  (1) 
10064457 181 17840585903382408818
104564 63 18342449318790195887
10764073 3 17041690891022064593
11578080 2 18199734990000883849
12035759 4 18189320308477389423
12293681 160 17689171418477288532
12422481 6 17912398388443892331
12788726 201 18271535285311093053
13004483 165 18270954773305197226
13134695 92 17911780664529678863
14251757 17 17605530318947788327
14617773 55 18338806709528331052
15309172 13 17976825285510915120
15420108 30 17618495485137097440
16945 1 18198608969691778066
17138139 8 17480813673515007117
20600515 1 17683202058291440522
22112679 90 18199486517589135923
23184049 59 17900271797175175336
23419403 2 17691916744477035256
23558518 356 18408047324932574600
25147074 1 18187087239775535754
3060560 45 17403741051611539871
394222 165 16448395645203878428
4340502 62 17628360372872362689
6438718 38 18271819985845263443
6992083 37 18263363577702349920
7164475 11 18412263943388006350
7471813 234 18197489830237844558
81228 2 18334847329728877282
84936 31 17119167625501066433
90525 40 18264498277664807792

>  <PUBCHEM_SHAPE_MULTIPOLES>  (1) 
436.92
5.74
3.96
1.76
3.95
0.09
0.11
2
0.36
-4.11
0.27
-0.81
-0.31
-2.39

>  <PUBCHEM_SHAPE_SELFOVERLAP>  (1) 
935.757

>  <PUBCHEM_SHAPE_VOLUME>  (1) 
242

>  <PUBCHEM_COORDINATE_TYPE>  (1) 
2
5
10

$$$$
