28421
     RDKit          3D

 17 17  0  0  0  0  0  0  0  0999 V2000
    3.7281    0.6271    0.2780 O   0  0  0  0  0  0  0  0  0  0  0  0
    1.6220    0.3132    1.0127 O   0  0  0  0  0  0  0  0  0  0  0  0
    2.0736    0.2184   -1.2741 O   0  0  0  0  0  0  0  0  0  0  0  0
   -4.6464    1.4403   -0.3855 O   0  0  0  0  0  0  0  0  0  0  0  0
   -3.7149   -0.7064   -0.0983 N   0  0  0  0  0  0  0  0  0  0  0  0
    4.7543    0.0865   -0.5607 C   0  0  0  0  0  0  0  0  0  0  0  0
    6.1142    0.4825   -0.0063 C   0  0  0  0  0  0  0  0  0  0  0  0
    4.5925   -1.4239   -0.6400 C   0  0  0  0  0  0  0  0  0  0  0  0
   -2.3721   -0.4500    0.1806 C   0  0  0  0  0  0  0  0  0  0  0  0
    0.3126    0.0629    0.7388 C   0  0  0  0  0  0  0  0  0  0  0  0
   -1.9088    0.8647    0.2293 C   0  0  0  0  0  0  0  0  0  0  0  0
   -1.4932   -1.5083    0.4112 C   0  0  0  0  0  0  0  0  0  0  0  0
   -0.5664    1.1212    0.5082 C   0  0  0  0  0  0  0  0  0  0  0  0
   -0.1508   -1.2517    0.6903 C   0  0  0  0  0  0  0  0  0  0  0  0
    2.4491    0.3721   -0.1186 C   0  0  0  0  0  0  0  0  0  0  0  0
   -4.7371    0.2173   -0.3542 C   0  0  0  0  0  0  0  0  0  0  0  0
   -6.0567   -0.4660   -0.6115 C   0  0  0  0  0  0  0  0  0  0  0  0
  1  6  1  0
  1 15  1  0
  2 10  1  0
  2 15  1  0
  3 15  2  0
  4 16  2  0
  5  9  1  0
  5 16  1  0
  6  7  1  0
  6  8  1  0
  9 11  2  0
  9 12  1  0
 10 13  2  0
 10 14  1  0
 11 13  1  0
 12 14  2  0
 16 17  1  0
M  END
>  <PUBCHEM_COMPOUND_CID>  (1) 
28421

>  <PUBCHEM_CONFORMER_RMSD>  (1) 
0.8

>  <PUBCHEM_CONFORMER_DIVERSEORDER>  (1) 
1
4
10
22
21
17
15
5
6
8
12
3
20
23
19
18
7
2
14
13
11
9
16

>  <PUBCHEM_MMFF94_PARTIAL_CHARGES>  (1) 
20
1 -0.43
10 0.08
11 -0.15
12 -0.15
13 -0.15
14 -0.15
15 0.87
16 0.57
17 0.06
2 -0.23
25 0.15
26 0.15
27 0.15
28 0.15
29 0.37
3 -0.57
4 -0.57
5 -0.55
6 0.28
9 0.12

>  <PUBCHEM_EFFECTIVE_ROTOR_COUNT>  (1) 
6

>  <PUBCHEM_PHARMACOPHORE_FEATURES>  (1) 
4
1 4 acceptor
1 5 donor
3 6 7 8 hydrophobe
6 9 10 11 12 13 14 rings

>  <PUBCHEM_HEAVY_ATOM_COUNT>  (1) 
17

>  <PUBCHEM_ATOM_DEF_STEREO_COUNT>  (1) 
0

>  <PUBCHEM_ATOM_UDEF_STEREO_COUNT>  (1) 
0

>  <PUBCHEM_BOND_DEF_STEREO_COUNT>  (1) 
0

>  <PUBCHEM_BOND_UDEF_STEREO_COUNT>  (1) 
0

>  <PUBCHEM_ISOTOPIC_ATOM_COUNT>  (1) 
0

>  <PUBCHEM_COMPONENT_COUNT>  (1) 
1

>  <PUBCHEM_CACTVS_TAUTO_COUNT>  (1) 
2

>  <PUBCHEM_CONFORMER_ID>  (1) 
00006F0500000001

>  <PUBCHEM_MMFF94_ENERGY>  (1) 
51.4305

>  <PUBCHEM_FEATURE_SELFOVERLAP>  (1) 
20.297

>  <PUBCHEM_SHAPE_FINGERPRINT>  (1) 
10354089 29 16008749108480839061
106641 1 15195556915092238762
10968037 39 18273217521148476756
11045977 3 8430306935739532055
11315181 36 18343028813521754248
11401426 45 18410574002442096672
12236239 1 17530681022258731232
12251169 10 8790881878311085706
12670543 26 18340484478773683693
12815109 37 17918557933922866054
12916748 109 18040439879813844516
13214271 11 8358263631522002083
13288520 33 15410897370997926689
13533116 47 18342174419862128546
13668630 136 16630530651986285374
13760787 19 17095517422693450691
1420 363 10879995769981516804
14911166 2 18411135861779780025
15048467 5 14490185008305318207
15099037 51 18409450297284673737
17834072 33 12895348915138049488
17834072 8 18260266356183306774
17834076 25 15430034361756689889
18222031 100 15267346219486432928
187816 3 18342177773656093209
200 152 16415482640202925361
20279233 1 17917722317870470430
20281389 69 16805316699813215700
20374829 77 18059853969589521535
20645476 183 17749389303771841355
20645477 56 18259984902929430264
20645477 70 17988368070675874838
21119208 17 18040436602853901004
21267235 1 18339642352416283719
21637258 2 15841258308105226365
22224240 67 11746937599023799537
23402539 116 18412259549467358892
23536379 177 17275107215251747921
23557571 272 18271811189937240788
23559900 14 18342174527193892328
26918003 58 14333408973816048663
300161 21 18335137622747927016
3004659 81 18335423422904845946
347723 3 18113336409760926753
351380 180 18343584049228537076
3759504 43 17386007299514363707
449060 50 11746934287060338272
4990 188 18202563973552657807
5283173 99 18272369720153192944

>  <PUBCHEM_SHAPE_MULTIPOLES>  (1) 
321.39
13.33
1.29
0.9
1.79
0.22
0.03
-0.38
3.99
-0.23
-0.05
0.18
0.04
0.34

>  <PUBCHEM_SHAPE_SELFOVERLAP>  (1) 
656.513

>  <PUBCHEM_SHAPE_VOLUME>  (1) 
183.4

>  <PUBCHEM_COORDINATE_TYPE>  (1) 
2
5
10

$$$$
