28432
     RDKit          3D

 19 20  0  0  0  0  0  0  0  0999 V2000
    1.2893    2.9583   -0.9193 O   0  0  0  0  0  0  0  0  0  0  0  0
    0.4690    0.8559   -0.3362 N   0  0  0  0  0  0  0  0  0  0  0  0
   -0.3854   -0.1745   -0.6600 N   0  0  0  0  0  0  0  0  0  0  0  0
   -2.1495    0.8746    0.5333 N   0  0  0  0  0  0  0  0  0  0  0  0
   -3.4492    0.9239    0.9308 N   0  0  0  0  0  0  0  0  0  0  0  0
    1.2585    0.6932    0.8581 C   0  0  0  0  0  0  0  0  0  0  0  0
    2.5684    0.0337    0.5863 C   0  0  0  0  0  0  0  0  0  0  0  0
   -1.7285   -0.1409   -0.2611 C   0  0  0  0  0  0  0  0  0  0  0  0
   -2.5868   -1.1433   -0.6876 C   0  0  0  0  0  0  0  0  0  0  0  0
    2.6758   -1.3558    0.6462 C   0  0  0  0  0  0  0  0  0  0  0  0
    3.6862    0.8067    0.2722 C   0  0  0  0  0  0  0  0  0  0  0  0
   -3.9092   -1.0931   -0.2831 C   0  0  0  0  0  0  0  0  0  0  0  0
   -4.2984   -0.0438    0.5249 C   0  0  0  0  0  0  0  0  0  0  0  0
   -2.1248   -2.2596   -1.5610 C   0  0  0  0  0  0  0  0  0  0  0  0
    3.9010   -1.9724    0.3916 C   0  0  0  0  0  0  0  0  0  0  0  0
    4.9114    0.1901    0.0178 C   0  0  0  0  0  0  0  0  0  0  0  0
    0.5645    1.9895   -1.1178 C   0  0  0  0  0  0  0  0  0  0  0  0
    5.0189   -1.1995    0.0772 C   0  0  0  0  0  0  0  0  0  0  0  0
   -5.7113    0.0571    0.9878 C   0  0  0  0  0  0  0  0  0  0  0  0
  1 17  2  0
  2  3  1  0
  2  6  1  0
  2 17  1  0
  3  8  1  0
  4  5  2  0
  4  8  1  0
  5 13  1  0
  6  7  1  0
  7 10  2  0
  7 11  1  0
  8  9  2  0
  9 12  1  0
  9 14  1  0
 10 15  1  0
 11 16  2  0
 12 13  2  0
 13 19  1  0
 15 18  2  0
 16 18  1  0
M  END
>  <PUBCHEM_COMPOUND_CID>  (1) 
28432

>  <PUBCHEM_CONFORMER_RMSD>  (1) 
0.8

>  <PUBCHEM_CONFORMER_DIVERSEORDER>  (1) 
1
52
22
66
7
65
61
18
12
32
62
37
25
42
15
70
49
60
68
3
4
44
46
43
9
11
38
48
69
21
28
39
29
24
51
54
23
63
50
58
20
16
47
36
41
6
26
13
57
45
33
27
5
55
67
53
14
31
40
64
34
19
35
17
30
56
10
59
8
2

>  <PUBCHEM_MMFF94_PARTIAL_CHARGES>  (1) 
27
1 -0.57
10 -0.15
11 -0.15
12 -0.15
13 0.17
14 0.14
15 -0.15
16 -0.15
17 0.57
18 -0.15
19 0.14
2 -0.34
22 0.4
23 0.15
24 0.15
25 0.15
29 0.15
3 -0.52
30 0.15
31 0.06
32 0.15
4 -0.31
5 -0.31
6 0.44
7 -0.14
8 0.41
9 -0.14

>  <PUBCHEM_EFFECTIVE_ROTOR_COUNT>  (1) 
5

>  <PUBCHEM_PHARMACOPHORE_FEATURES>  (1) 
6
1 1 acceptor
1 3 donor
1 5 acceptor
3 3 4 8 cation
6 4 5 8 9 12 13 rings
6 7 10 11 15 16 18 rings

>  <PUBCHEM_HEAVY_ATOM_COUNT>  (1) 
19

>  <PUBCHEM_ATOM_DEF_STEREO_COUNT>  (1) 
0

>  <PUBCHEM_ATOM_UDEF_STEREO_COUNT>  (1) 
0

>  <PUBCHEM_BOND_DEF_STEREO_COUNT>  (1) 
0

>  <PUBCHEM_BOND_UDEF_STEREO_COUNT>  (1) 
0

>  <PUBCHEM_ISOTOPIC_ATOM_COUNT>  (1) 
0

>  <PUBCHEM_COMPONENT_COUNT>  (1) 
1

>  <PUBCHEM_CACTVS_TAUTO_COUNT>  (1) 
2

>  <PUBCHEM_CONFORMER_ID>  (1) 
00006F1000000001

>  <PUBCHEM_MMFF94_ENERGY>  (1) 
54.3427

>  <PUBCHEM_FEATURE_SELFOVERLAP>  (1) 
30.446

>  <PUBCHEM_SHAPE_FINGERPRINT>  (1) 
10616163 171 18130221665943508358
12107183 9 17623578548893445082
12236239 1 18413392051060617329
12251169 10 18201718457379020723
12403259 327 16845565422406823250
12553582 1 18260534615899211938
12596602 18 17060333054762689186
12633257 1 17346878953177389131
12670546 56 17845925325004424505
128620 24 15430034344624566378
13167823 11 18343581858510561426
13533116 47 18197210576160171983
13551218 46 18270683065216259311
13583140 156 14692557841000411862
14251764 30 17530967964354724867
14341114 176 18410581694987097443
14386348 63 17095526192499600306
15375462 189 18409440363336795146
15527383 91 18411136935358275152
15537594 2 18408603652199951742
15664445 248 18340506525252654684
17349148 13 17775277301126880301
17804303 29 18060416932343390275
1813 80 18187092715246850588
19141452 34 18272085006712735439
20281475 54 18342164571201178526
21033648 29 18058431146062513865
21267235 1 18336835208318762282
2255824 54 18117561953559417548
22950370 63 18334579018879604402
23402539 116 17749662996863312586
235170 7 15140957310255109698
23559900 14 17561358517733940712
23598288 3 17681253487442473644
23598291 2 18267581501695594893
23622692 88 18412829088333083469
351380 180 9079113358691625906
42 15 18343866614942311651
5104073 3 18131345362315642835
7097593 13 18342171228004595205
7495541 125 14996288054138507516
83771 10 18335415751554860300
9981440 41 17257646149874489881

>  <PUBCHEM_SHAPE_MULTIPOLES>  (1) 
365.22
11.2
2.16
1.11
1.72
0.37
0.18
-3.12
-3.13
-0.91
0.88
0.62
0
-1.26

>  <PUBCHEM_SHAPE_SELFOVERLAP>  (1) 
767.019

>  <PUBCHEM_SHAPE_VOLUME>  (1) 
205.5

>  <PUBCHEM_COORDINATE_TYPE>  (1) 
2
5
10

$$$$
