28438
     RDKit          3D

 30 34  0  0  1  0  0  0  0  0999 V2000
    3.5330   -0.2098   -1.1119 O   0  0  0  0  0  0  0  0  0  0  0  0
    3.1364    2.4244    0.1567 O   0  0  0  0  0  0  0  0  0  0  0  0
   -0.3776   -3.3360   -1.4006 O   0  0  0  0  0  0  0  0  0  0  0  0
   -1.1860    1.7708   -0.0410 O   0  0  0  0  0  0  0  0  0  0  0  0
    3.0620    4.2885   -1.1922 O   0  0  0  0  0  0  0  0  0  0  0  0
    4.4819   -1.9702    1.0247 N   0  0  0  0  0  0  0  0  0  0  0  0
    1.8035   -1.6941   -0.4161 N   0  0  0  0  0  0  0  0  0  0  0  0
   -3.3296    0.4334   -1.0057 N   0  0  0  0  0  0  0  0  0  0  0  0
    4.7591    3.9904    0.3302 N   0  0  0  0  0  0  0  0  0  0  0  0
    3.4036   -0.9956    1.1563 C   0  0  0  0  0  0  0  0  0  0  0  0
    3.1497   -2.4590    1.3336 C   0  0  0  0  0  0  0  0  0  0  0  0
    2.6420   -0.5270   -0.0487 C   0  0  0  0  0  0  0  0  0  0  0  0
    2.2219   -2.9263    0.2509 C   0  0  0  0  0  0  0  0  0  0  0  0
    1.5888    0.6055    0.2169 C   0  0  0  0  0  0  0  0  0  0  0  0
    0.5051   -1.2914   -0.6405 C   0  0  0  0  0  0  0  0  0  0  0  0
    0.3162   -0.0104   -0.3267 C   0  0  0  0  0  0  0  0  0  0  0  0
    5.3186   -1.9731    2.2129 C   0  0  0  0  0  0  0  0  0  0  0  0
    1.9435    1.9399   -0.4324 C   0  0  0  0  0  0  0  0  0  0  0  0
   -0.5758   -2.1602   -1.1144 C   0  0  0  0  0  0  0  0  0  0  0  0
   -1.0086    0.6111   -0.4010 C   0  0  0  0  0  0  0  0  0  0  0  0
   -1.9286   -1.5265   -1.2492 C   0  0  0  0  0  0  0  0  0  0  0  0
   -2.1376   -0.2331   -0.9215 C   0  0  0  0  0  0  0  0  0  0  0  0
   -2.9918   -2.4570   -1.7702 C   0  0  0  0  0  0  0  0  0  0  0  0
    3.6026    3.6253   -0.3136 C   0  0  0  0  0  0  0  0  0  0  0  0
   -4.3231    0.5563   -0.0306 C   0  0  0  0  0  0  0  0  0  0  0  0
   -5.4909    1.2850   -0.2937 C   0  0  0  0  0  0  0  0  0  0  0  0
   -4.1650   -0.0475    1.2243 C   0  0  0  0  0  0  0  0  0  0  0  0
   -6.4820    1.4080    0.6800 C   0  0  0  0  0  0  0  0  0  0  0  0
   -5.1564    0.0755    2.1979 C   0  0  0  0  0  0  0  0  0  0  0  0
   -6.3149    0.8032    1.9257 C   0  0  0  0  0  0  0  0  0  0  0  0
  1 12  1  0
  2 18  1  0
  2 24  1  0
  3 19  2  0
  4 20  2  0
  5 24  2  0
  6 10  1  0
  6 11  1  0
  6 17  1  0
  7 12  1  0
  7 13  1  0
  7 15  1  0
  8 22  1  0
  8 25  1  0
  9 24  1  0
 10 11  1  0
 10 12  1  0
 11 13  1  0
 12 14  1  0
 14 16  1  0
 14 18  1  0
 15 16  2  0
 15 19  1  0
 16 20  1  0
 19 21  1  0
 20 22  1  0
 21 22  2  0
 21 23  1  0
 25 26  2  0
 25 27  1  0
 26 28  1  0
 27 29  2  0
 28 30  2  0
 29 30  1  0
M  END
>  <PUBCHEM_COMPOUND_CID>  (1) 
28438

>  <PUBCHEM_CONFORMER_RMSD>  (1) 
0.8

>  <PUBCHEM_CONFORMER_DIVERSEORDER>  (1) 
1
83
122
76
53
46
64
14
93
121
55
41
81
32
79
82
12
27
68
66
23
70
15
50
104
105
48
115
54
61
97
6
30
72
56
21
17
19
67
37
9
62
96
86
8
108
90
13
110
29
22
11
57
85
117
28
51
88
38
107
111
10
103
31
63
45
58
16
44
119
100
95
87
60
20
71
25
59
112
33
114
52
98
75
69
40
35
113
73
77
80
102
24
65
109
4
2
42
43
36
49
74
3
34
78
101
39
26
99
91
89
5
94
47
7
116
92
18
123
120
84
106
118

>  <PUBCHEM_MMFF94_PARTIAL_CHARGES>  (1) 
41
1 -0.68
10 -0.04
11 -0.04
12 0.74
13 0.46
14 0.14
15 0.11
16 -0.12
17 0.27
18 0.28
19 0.54
2 -0.43
20 0.54
21 -0.12
22 0.11
23 0.14
24 0.78
25 0.1
26 -0.15
27 -0.15
28 -0.15
29 -0.15
3 -0.57
30 -0.15
31 0.1
32 0.1
39 0.4
4 -0.57
45 0.4
46 0.37
47 0.37
48 0.15
49 0.15
5 -0.57
50 0.15
51 0.15
52 0.15
6 -0.59
7 -0.84
8 -0.6
9 -0.8

>  <PUBCHEM_EFFECTIVE_ROTOR_COUNT>  (1) 
5.6

>  <PUBCHEM_PHARMACOPHORE_FEATURES>  (1) 
14
1 1 acceptor
1 1 donor
1 3 acceptor
1 4 acceptor
1 5 acceptor
1 6 cation
1 7 cation
1 8 cation
1 8 donor
1 9 donor
5 7 12 14 15 16 rings
6 15 16 19 20 21 22 rings
6 25 26 27 28 29 30 rings
6 6 7 10 11 12 13 rings

>  <PUBCHEM_HEAVY_ATOM_COUNT>  (1) 
30

>  <PUBCHEM_ATOM_DEF_STEREO_COUNT>  (1) 
0

>  <PUBCHEM_ATOM_UDEF_STEREO_COUNT>  (1) 
4

>  <PUBCHEM_BOND_DEF_STEREO_COUNT>  (1) 
0

>  <PUBCHEM_BOND_UDEF_STEREO_COUNT>  (1) 
0

>  <PUBCHEM_ISOTOPIC_ATOM_COUNT>  (1) 
0

>  <PUBCHEM_COMPONENT_COUNT>  (1) 
1

>  <PUBCHEM_CACTVS_TAUTO_COUNT>  (1) 
42

>  <PUBCHEM_CONFORMER_ID>  (1) 
00006F1600000001

>  <PUBCHEM_MMFF94_ENERGY>  (1) 
115.7935

>  <PUBCHEM_FEATURE_SELFOVERLAP>  (1) 
71.224

>  <PUBCHEM_SHAPE_FINGERPRINT>  (1) 
10369192 42 16734973360746968412
1100329 8 18412535522796892798
11049842 53 17417823824289536966
11135609 201 18054793059258663409
12390115 104 17985563366620950085
12403259 118 18269556036154855377
12633257 1 18343012277190873895
12644460 14 18407762538409419624
12788726 201 17418108602275849017
13140716 1 18412257359229495943
13540713 5 18198328731644933287
13583140 156 17823405012376247103
13782708 43 16733266742459554315
14790565 3 18269280234339280333
14849402 71 18260830432199141088
14950920 106 18186810158302339459
14955137 171 18264210214804916130
15183329 4 12324246058266548979
15348495 7 18114471093709404937
15475509 35 17023183777774036443
15475509 8 18058463027952632246
17980427 23 17916278650798024830
18785283 64 18334297573719725548
20642791 268 18271507759388185550
20739085 24 18336840731509782445
21033648 29 17699258015874491065
21033650 10 15338856256601859923
21421861 104 18410009936193259248
21796203 349 18263376810787025970
21987483 16 18116157847974360059
22122407 14 18268161881365561217
23559900 14 17167869638544725549
24771293 8 18269816758382212112
25147074 1 18200300143435525503
3178227 256 18260272967045687544
3411729 13 18337118959100917865
38570 142 18196675057830729996
5104073 3 18339915012980744099
5252454 2 18269552913181108325
6034566 193 18196379336758728301
6058803 2 18125703820104698446
7495541 125 18040439854038655643
9981440 41 17684632613403458584

>  <PUBCHEM_SHAPE_MULTIPOLES>  (1) 
568.12
12.95
4.26
1.73
13.72
3.56
-0.65
4.93
-8.03
-7.49
1.18
0.86
-0.91
-2.92

>  <PUBCHEM_SHAPE_SELFOVERLAP>  (1) 
1252.838

>  <PUBCHEM_SHAPE_VOLUME>  (1) 
308.1

>  <PUBCHEM_COORDINATE_TYPE>  (1) 
2
5
10

$$$$
