28449
     RDKit          3D

 13 13  0  0  0  0  0  0  0  0999 V2000
    1.9514    2.9840    0.2422 Cl  0  0  0  0  0  0  0  0  0  0  0  0
    4.0528   -1.7312   -0.3999 Cl  0  0  0  0  0  0  0  0  0  0  0  0
   -1.1400   -1.2773    0.3448 S   0  0  0  0  0  0  0  0  0  0  0  0
    1.5008   -1.3733   -0.0272 N   0  0  0  0  0  0  0  0  0  0  0  0
    0.5314    0.8016    0.2688 N   0  0  0  0  0  0  0  0  0  0  0  0
    2.8961    0.5783   -0.0724 N   0  0  0  0  0  0  0  0  0  0  0  0
   -3.7149   -0.2725   -0.3147 C   0  0  0  0  0  0  0  0  0  0  0  0
   -2.2091    0.0414   -0.3112 C   0  0  0  0  0  0  0  0  0  0  0  0
   -4.2570   -0.5870    1.0812 C   0  0  0  0  0  0  0  0  0  0  0  0
   -4.5470    0.8261   -0.9797 C   0  0  0  0  0  0  0  0  0  0  0  0
    0.4777   -0.5333    0.1761 C   0  0  0  0  0  0  0  0  0  0  0  0
    1.7756    1.2887    0.1344 C   0  0  0  0  0  0  0  0  0  0  0  0
    2.6822   -0.7455   -0.1424 C   0  0  0  0  0  0  0  0  0  0  0  0
  1 12  1  0
  2 13  1  0
  3  8  1  0
  3 11  1  0
  4 11  2  0
  4 13  1  0
  5 11  1  0
  5 12  2  0
  6 12  1  0
  6 13  2  0
  7  8  1  0
  7  9  1  0
  7 10  1  0
M  END
>  <PUBCHEM_COMPOUND_CID>  (1) 
28449

>  <PUBCHEM_CONFORMER_RMSD>  (1) 
0.6

>  <PUBCHEM_CONFORMER_DIVERSEORDER>  (1) 
1
3
8
9
4
7
2
6
5

>  <PUBCHEM_MMFF94_PARTIAL_CHARGES>  (1) 
10
1 -0.18
11 0.72
12 0.8
13 0.8
2 -0.18
3 -0.33
4 -0.62
5 -0.62
6 -0.62
8 0.23

>  <PUBCHEM_EFFECTIVE_ROTOR_COUNT>  (1) 
3

>  <PUBCHEM_PHARMACOPHORE_FEATURES>  (1) 
5
3 4 5 11 cation
3 4 6 13 cation
3 5 6 12 cation
3 7 9 10 hydrophobe
6 4 5 6 11 12 13 rings

>  <PUBCHEM_HEAVY_ATOM_COUNT>  (1) 
13

>  <PUBCHEM_ATOM_DEF_STEREO_COUNT>  (1) 
0

>  <PUBCHEM_ATOM_UDEF_STEREO_COUNT>  (1) 
0

>  <PUBCHEM_BOND_DEF_STEREO_COUNT>  (1) 
0

>  <PUBCHEM_BOND_UDEF_STEREO_COUNT>  (1) 
0

>  <PUBCHEM_ISOTOPIC_ATOM_COUNT>  (1) 
0

>  <PUBCHEM_COMPONENT_COUNT>  (1) 
1

>  <PUBCHEM_CACTVS_TAUTO_COUNT>  (1) 
1

>  <PUBCHEM_CONFORMER_ID>  (1) 
00006F2100000001

>  <PUBCHEM_MMFF94_ENERGY>  (1) 
18.9536

>  <PUBCHEM_FEATURE_SELFOVERLAP>  (1) 
28.157

>  <PUBCHEM_SHAPE_FINGERPRINT>  (1) 
10608611 8 18334853974169773769
11471102 20 18411696586581484798
12916754 54 18341332288470743863
12932764 1 17749095712808257443
13081056 2 18334011709914088461
13922767 16 18409160017519472384
14250199 8 18413386549271035445
14648413 74 18264489670803521848
14911166 2 18409169874744119646
15219456 202 18334576892749356771
15242439 84 18114179697089253743
15848700 24 18272367517272222190
17041 50 18409445860488479071
18186145 218 18341898502203444011
20233049 118 18187644657056667126
20339313 130 18342462517097693154
20606313 2 18411697690599063420
20645477 70 18341890779641515839
20671657 1 18341335607667918100
20671657 53 18270408195861741974
221490 88 18337397161338838387
22943178 12 18187645855674406483
23402539 116 18059007268179088174
23402655 69 18341890784062784733
7364860 26 18342739671648722272
9971528 1 18202276979500754298

>  <PUBCHEM_SHAPE_MULTIPOLES>  (1) 
260.18
8.51
2.25
0.84
7
1.71
-0.02
-1.3
1.05
-2.7
-0.13
0.73
-0.01
0.94

>  <PUBCHEM_SHAPE_SELFOVERLAP>  (1) 
487.611

>  <PUBCHEM_SHAPE_VOLUME>  (1) 
164.4

>  <PUBCHEM_COORDINATE_TYPE>  (1) 
2
5
10

$$$$
