28459
     RDKit          3D

 12 11  0  0  0  0  0  0  0  0999 V2000
    3.7377   -0.0432   -0.0353 C   0  0  0  0  0  0  0  0  0  0  0  0
    2.3641    0.6785    0.0023 C   0  0  0  0  0  0  0  0  0  0  0  0
    1.1340   -0.2332    0.0931 C   0  0  0  0  0  0  0  0  0  0  0  0
   -0.1604    0.5853    0.0578 C   0  0  0  0  0  0  0  0  0  0  0  0
   -1.3934   -0.3202    0.1106 C   0  0  0  0  0  0  0  0  0  0  0  0
    3.9822   -0.8431    1.2548 C   0  0  0  0  0  0  0  0  0  0  0  0
    3.8370   -0.9886   -1.2439 C   0  0  0  0  0  0  0  0  0  0  0  0
    4.8389    1.0280   -0.1617 C   0  0  0  0  0  0  0  0  0  0  0  0
   -2.6847    0.4981    0.0421 C   0  0  0  0  0  0  0  0  0  0  0  0
   -3.9522   -0.3605    0.0684 C   0  0  0  0  0  0  0  0  0  0  0  0
   -5.2401    0.4513   -0.0739 C   0  0  0  0  0  0  0  0  0  0  0  0
   -6.4632   -0.4523   -0.1144 C   0  0  0  0  0  0  0  0  0  0  0  0
  1  2  1  0
  1  6  1  0
  1  7  1  0
  1  8  1  0
  2  3  1  0
  3  4  1  0
  4  5  1  0
  5  9  1  0
  9 10  1  0
 10 11  1  0
 11 12  1  0
M  END
>  <PUBCHEM_COMPOUND_CID>  (1) 
28459

>  <PUBCHEM_CONFORMER_RMSD>  (1) 
0.8

>  <PUBCHEM_CONFORMER_DIVERSEORDER>  (1) 
1
31
44
4
48
9
28
32
27
2
39
11
47
26
43
5
30
37
15
8
49
7
13
42
46
36
22
3
41
21
33
10
23
45
40
20
14
12
29
35
38
17
25
19
24
34
16
6
18

>  <PUBCHEM_MMFF94_PARTIAL_CHARGES>  (1) 
0

>  <PUBCHEM_EFFECTIVE_ROTOR_COUNT>  (1) 
7

>  <PUBCHEM_PHARMACOPHORE_FEATURES>  (1) 
2
1 12 hydrophobe
4 1 6 7 8 hydrophobe

>  <PUBCHEM_HEAVY_ATOM_COUNT>  (1) 
12

>  <PUBCHEM_ATOM_DEF_STEREO_COUNT>  (1) 
0

>  <PUBCHEM_ATOM_UDEF_STEREO_COUNT>  (1) 
0

>  <PUBCHEM_BOND_DEF_STEREO_COUNT>  (1) 
0

>  <PUBCHEM_BOND_UDEF_STEREO_COUNT>  (1) 
0

>  <PUBCHEM_ISOTOPIC_ATOM_COUNT>  (1) 
0

>  <PUBCHEM_COMPONENT_COUNT>  (1) 
1

>  <PUBCHEM_CACTVS_TAUTO_COUNT>  (1) 
1

>  <PUBCHEM_CONFORMER_ID>  (1) 
00006F2B00000001

>  <PUBCHEM_MMFF94_ENERGY>  (1) 
9.3957

>  <PUBCHEM_FEATURE_SELFOVERLAP>  (1) 
10.149

>  <PUBCHEM_SHAPE_FINGERPRINT>  (1) 
11287383 113 18334859450173864041
114248 4 18408323293808677841
13533116 47 16200158651117467822
14123238 8 17132115745118126269
1420 363 18261398858325256467
14251718 22 18410012160970058797
17834072 33 18131348643960338877
17834076 25 17346599681450342100
20281389 69 17458340789814929517
20645477 70 17988932115645509654
212847 35 8790882986845255582
22485316 2 18040997362242243186
23402539 116 18411694384054663333
300161 21 18341607152854164236
42788 4 18407759240111977953
522135 26 17240483598377544866
5374978 207 18272082799484433480
57483677 66 18334010614565799571

>  <PUBCHEM_SHAPE_MULTIPOLES>  (1) 
246.95
14.69
0.99
0.88
16.49
0.01
0
-0.84
0.65
-0.76
0.04
-1.02
-0.24
-0.03

>  <PUBCHEM_SHAPE_SELFOVERLAP>  (1) 
442.056

>  <PUBCHEM_SHAPE_VOLUME>  (1) 
163.1

>  <PUBCHEM_COORDINATE_TYPE>  (1) 
2
5
10

$$$$
