28463
     RDKit          3D

 30 32  0  0  0  0  0  0  0  0999 V2000
   -0.6832   -1.9400    0.6803 O   0  0  0  0  0  0  0  0  0  0  0  0
    0.9778   -0.3211    0.2045 N   0  0  0  0  0  0  0  0  0  0  0  0
    3.1190    2.9764   -1.7025 N   0  0  0  0  0  0  0  0  0  0  0  0
    1.3257    0.9973   -0.2497 C   0  0  0  0  0  0  0  0  0  0  0  0
   -1.4731    0.1540   -0.1818 C   0  0  0  0  0  0  0  0  0  0  0  0
    1.5554    1.0552   -1.7587 C   0  0  0  0  0  0  0  0  0  0  0  0
    2.0623   -1.2185    0.6016 C   0  0  0  0  0  0  0  0  0  0  0  0
   -0.3655   -0.8102    0.2923 C   0  0  0  0  0  0  0  0  0  0  0  0
    1.8952    2.4492   -2.2939 C   0  0  0  0  0  0  0  0  0  0  0  0
   -1.9972    1.0617    0.9277 C   0  0  0  0  0  0  0  0  0  0  0  0
   -2.5944   -0.5956   -0.9047 C   0  0  0  0  0  0  0  0  0  0  0  0
    2.8702   -0.8220    1.6270 C   0  0  0  0  0  0  0  0  0  0  0  0
    2.1942   -2.3937   -0.0789 C   0  0  0  0  0  0  0  0  0  0  0  0
    3.9039   -1.6785    2.0063 C   0  0  0  0  0  0  0  0  0  0  0  0
    3.2278   -3.2501    0.3005 C   0  0  0  0  0  0  0  0  0  0  0  0
   -2.4694    2.3121    0.5931 C   0  0  0  0  0  0  0  0  0  0  0  0
   -2.4984   -0.7708   -2.2660 C   0  0  0  0  0  0  0  0  0  0  0  0
   -1.9804    0.5993    2.2256 C   0  0  0  0  0  0  0  0  0  0  0  0
   -3.6553   -1.0662   -0.1656 C   0  0  0  0  0  0  0  0  0  0  0  0
    2.7043    0.4717    2.3567 C   0  0  0  0  0  0  0  0  0  0  0  0
    1.2945   -2.8052   -1.1991 C   0  0  0  0  0  0  0  0  0  0  0  0
    4.0826   -2.8925    1.3429 C   0  0  0  0  0  0  0  0  0  0  0  0
    4.2392    2.0629   -1.9347 C   0  0  0  0  0  0  0  0  0  0  0  0
    3.4244    4.3017   -2.2447 C   0  0  0  0  0  0  0  0  0  0  0  0
   -2.9487    3.1416    1.6070 C   0  0  0  0  0  0  0  0  0  0  0  0
   -3.5203   -1.4542   -2.9251 C   0  0  0  0  0  0  0  0  0  0  0  0
   -2.4598    1.4289    3.2394 C   0  0  0  0  0  0  0  0  0  0  0  0
   -4.6771   -1.7497   -0.8248 C   0  0  0  0  0  0  0  0  0  0  0  0
   -2.9440    2.7000    2.9300 C   0  0  0  0  0  0  0  0  0  0  0  0
   -4.6096   -1.9438   -2.2045 C   0  0  0  0  0  0  0  0  0  0  0  0
  1  8  2  0
  2  4  1  0
  2  7  1  0
  2  8  1  0
  3  9  1  0
  3 23  1  0
  3 24  1  0
  4  6  1  0
  5  8  1  0
  5 10  1  0
  5 11  1  0
  6  9  1  0
  7 12  2  0
  7 13  1  0
 10 16  2  0
 10 18  1  0
 11 17  2  0
 11 19  1  0
 12 14  1  0
 12 20  1  0
 13 15  2  0
 13 21  1  0
 14 22  2  0
 15 22  1  0
 16 25  1  0
 17 26  1  0
 18 27  2  0
 19 28  2  0
 25 29  2  0
 26 30  2  0
 27 29  1  0
 28 30  1  0
M  END
>  <PUBCHEM_COMPOUND_CID>  (1) 
28463

>  <PUBCHEM_CONFORMER_RMSD>  (1) 
1

>  <PUBCHEM_CONFORMER_DIVERSEORDER>  (1) 
3
7
13
8
27
24
9
19
29
10
26
22
15
11
34
14
20
6
16
23
28
25
30
33
31
17
32
2
35
5
1
21
4
18
12

>  <PUBCHEM_MMFF94_PARTIAL_CHARGES>  (1) 
42
1 -0.57
10 -0.14
11 -0.14
12 -0.14
13 -0.14
14 -0.15
15 -0.15
16 -0.15
17 -0.15
18 -0.15
19 -0.15
2 -0.48
20 0.14
21 0.14
22 -0.15
23 0.27
24 0.27
25 -0.15
26 -0.15
27 -0.15
28 -0.15
29 -0.15
3 -0.81
30 -0.15
38 0.15
39 0.15
4 0.3
40 0.15
41 0.15
42 0.15
43 0.15
5 0.35
50 0.15
57 0.15
58 0.15
59 0.15
60 0.15
61 0.15
62 0.15
7 0.12
8 0.57
9 0.27

>  <PUBCHEM_EFFECTIVE_ROTOR_COUNT>  (1) 
9

>  <PUBCHEM_PHARMACOPHORE_FEATURES>  (1) 
5
1 1 acceptor
1 3 cation
6 10 16 18 25 27 29 rings
6 11 17 19 26 28 30 rings
6 7 12 13 14 15 22 rings

>  <PUBCHEM_HEAVY_ATOM_COUNT>  (1) 
30

>  <PUBCHEM_ATOM_DEF_STEREO_COUNT>  (1) 
0

>  <PUBCHEM_ATOM_UDEF_STEREO_COUNT>  (1) 
0

>  <PUBCHEM_BOND_DEF_STEREO_COUNT>  (1) 
0

>  <PUBCHEM_BOND_UDEF_STEREO_COUNT>  (1) 
0

>  <PUBCHEM_ISOTOPIC_ATOM_COUNT>  (1) 
0

>  <PUBCHEM_COMPONENT_COUNT>  (1) 
1

>  <PUBCHEM_CACTVS_TAUTO_COUNT>  (1) 
1

>  <PUBCHEM_CONFORMER_ID>  (1) 
00006F2F00000003

>  <PUBCHEM_MMFF94_ENERGY>  (1) 
118.71

>  <PUBCHEM_FEATURE_SELFOVERLAP>  (1) 
25.373

>  <PUBCHEM_SHAPE_FINGERPRINT>  (1) 
10169797 241 16903821122366582855
10369192 42 16519673535167947612
10940486 97 17914348878805285366
11049842 53 17415302558106205839
11421498 54 18057058001930776079
11763715 3 17988067993509898659
12160290 23 17560531616597514777
12293681 160 17764316432406934092
12549972 3 15864067650399910384
12553582 1 17774156950455362847
12633257 1 17554312623801223338
12788726 201 18060148664981984519
12930653 34 17202182046051961450
13009979 54 18342170029703659162
133893 2 18113343015673894164
13583140 156 15911038757380075458
14955137 171 17684122126301458098
15448158 6 14044648658914580173
15664445 248 17058080267169445581
15775530 1 15864081991443248833
15815584 197 17195983270467286555
15842332 3 18341624689168833937
17349148 13 18337657668253736930
17980427 23 18409442553848983794
17980427 26 17973200376131544188
1813 80 17972328308923588018
2132832 1 18337943524101909469
25147074 1 18340778069563167833
266924 1 18341622533274658205
3380486 145 17756698646645882462
3380486 77 17533466029140293962
376196 1 16374350056548457429
394222 165 17389366423353467568
4409770 3 14090140157844361471
46194498 28 17751890688746758167
463206 1 17913741046628919295
9981440 41 16373527647404451421

>  <PUBCHEM_SHAPE_MULTIPOLES>  (1) 
601.55
8.69
4.57
3.47
0.9
2.37
-0.12
-2.1
1.3
-2.8
1.37
0.52
2.27
-7.37

>  <PUBCHEM_SHAPE_SELFOVERLAP>  (1) 
1281.476

>  <PUBCHEM_SHAPE_VOLUME>  (1) 
333.4

>  <PUBCHEM_COORDINATE_TYPE>  (1) 
2
5
10

$$$$
