28466
     RDKit          3D

 25 26  0  0  0  0  0  0  0  0999 V2000
   -0.6856   -1.8547    1.1459 O   0  0  0  0  0  0  0  0  0  0  0  0
   -1.1953    0.3774    0.6285 N   0  0  0  0  0  0  0  0  0  0  0  0
   -5.5646   -1.8392   -0.2168 N   0  0  0  0  0  0  0  0  0  0  0  0
   -2.6158    0.3198    1.0074 C   0  0  0  0  0  0  0  0  0  0  0  0
   -3.3969   -0.7122    0.1961 C   0  0  0  0  0  0  0  0  0  0  0  0
   -0.6538    1.6250    0.1287 C   0  0  0  0  0  0  0  0  0  0  0  0
   -4.8745   -0.8321    0.5800 C   0  0  0  0  0  0  0  0  0  0  0  0
   -0.3417   -0.7433    0.7359 C   0  0  0  0  0  0  0  0  0  0  0  0
    1.1155   -0.5110    0.3432 C   0  0  0  0  0  0  0  0  0  0  0  0
   -0.1237    2.5092    1.0321 C   0  0  0  0  0  0  0  0  0  0  0  0
   -0.6990    1.8560   -1.2218 C   0  0  0  0  0  0  0  0  0  0  0  0
    1.9732   -1.7711    0.4870 C   0  0  0  0  0  0  0  0  0  0  0  0
    0.3985    3.7097    0.5506 C   0  0  0  0  0  0  0  0  0  0  0  0
   -0.1767    3.0564   -1.7031 C   0  0  0  0  0  0  0  0  0  0  0  0
    3.4077   -1.5154    0.1018 C   0  0  0  0  0  0  0  0  0  0  0  0
   -0.0808    2.2449    2.5024 C   0  0  0  0  0  0  0  0  0  0  0  0
   -1.2793    0.8827   -2.1963 C   0  0  0  0  0  0  0  0  0  0  0  0
    0.3719    3.9834   -0.8170 C   0  0  0  0  0  0  0  0  0  0  0  0
   -5.5672   -1.4644   -1.6320 C   0  0  0  0  0  0  0  0  0  0  0  0
   -4.9409   -3.1521   -0.0408 C   0  0  0  0  0  0  0  0  0  0  0  0
    3.8036   -1.7018   -1.2145 C   0  0  0  0  0  0  0  0  0  0  0  0
    4.3095   -1.0973    1.0694 C   0  0  0  0  0  0  0  0  0  0  0  0
    5.1311   -1.4650   -1.5713 C   0  0  0  0  0  0  0  0  0  0  0  0
    5.6370   -0.8604    0.7125 C   0  0  0  0  0  0  0  0  0  0  0  0
    6.0477   -1.0443   -0.6079 C   0  0  0  0  0  0  0  0  0  0  0  0
  1  8  2  0
  2  4  1  0
  2  6  1  0
  2  8  1  0
  3  7  1  0
  3 19  1  0
  3 20  1  0
  4  5  1  0
  5  7  1  0
  6 10  2  0
  6 11  1  0
  8  9  1  0
  9 12  1  0
 10 13  1  0
 10 16  1  0
 11 14  2  0
 11 17  1  0
 12 15  1  0
 13 18  2  0
 14 18  1  0
 15 21  2  0
 15 22  1  0
 21 23  1  0
 22 24  2  0
 23 25  2  0
 24 25  1  0
M  END
>  <PUBCHEM_COMPOUND_CID>  (1) 
28466

>  <PUBCHEM_CONFORMER_RMSD>  (1) 
1

>  <PUBCHEM_CONFORMER_DIVERSEORDER>  (1) 
1
25
20
32
13
47
69
12
35
34
71
3
74
40
7
19
14
31
29
15
63
51
65
10
46
38
44
66
58
76
59
16
45
28
24
52
55
33
54
18
27
60
9
22
72
26
5
67
75
62
43
49
36
41
4
70
42
56
6
48
64
8
73
2
61
23
21
50
68
57
17
53
37
39
11
30

>  <PUBCHEM_MMFF94_PARTIAL_CHARGES>  (1) 
32
1 -0.57
10 -0.14
11 -0.14
12 0.14
13 -0.15
14 -0.15
15 -0.14
16 0.14
17 0.14
18 -0.15
19 0.27
2 -0.48
20 0.27
21 -0.15
22 -0.15
23 -0.15
24 -0.15
25 -0.15
3 -0.81
36 0.15
37 0.15
4 0.3
44 0.15
51 0.15
52 0.15
53 0.15
54 0.15
55 0.15
6 0.12
7 0.27
8 0.57
9 0.06

>  <PUBCHEM_EFFECTIVE_ROTOR_COUNT>  (1) 
9

>  <PUBCHEM_PHARMACOPHORE_FEATURES>  (1) 
4
1 1 acceptor
1 3 cation
6 15 21 22 23 24 25 rings
6 6 10 11 13 14 18 rings

>  <PUBCHEM_HEAVY_ATOM_COUNT>  (1) 
25

>  <PUBCHEM_ATOM_DEF_STEREO_COUNT>  (1) 
0

>  <PUBCHEM_ATOM_UDEF_STEREO_COUNT>  (1) 
0

>  <PUBCHEM_BOND_DEF_STEREO_COUNT>  (1) 
0

>  <PUBCHEM_BOND_UDEF_STEREO_COUNT>  (1) 
0

>  <PUBCHEM_ISOTOPIC_ATOM_COUNT>  (1) 
0

>  <PUBCHEM_COMPONENT_COUNT>  (1) 
1

>  <PUBCHEM_CACTVS_TAUTO_COUNT>  (1) 
1

>  <PUBCHEM_CONFORMER_ID>  (1) 
00006F3200000001

>  <PUBCHEM_MMFF94_ENERGY>  (1) 
91.8733

>  <PUBCHEM_FEATURE_SELFOVERLAP>  (1) 
20.297

>  <PUBCHEM_SHAPE_FINGERPRINT>  (1) 
10670039 82 18044396954540194470
10692045 39 9150907052922640076
10764073 3 14045198319774599293
11045515 52 18333734589469934277
11582403 64 15261985249475839153
12156800 1 15576644346179976724
12173636 292 17831304900316274116
12422481 6 11023286246705525783
12788726 201 18041273262541665466
13009979 54 18201733881255395425
13149001 5 17969511583334693931
13782708 43 17845101679881296150
14347332 77 18192995920458172466
167882 2 18045507670793458045
17980427 26 17198244952911847769
1813 80 18342461443429897991
20554085 129 10737560691449787183
20600515 1 18117023068165213739
21033648 29 7853560306245001030
21344244 246 18120940773954672934
23419403 2 18269813424538329449
23557571 272 18340776927397396238
23559900 14 18265606770850188155
249057 3 18412262831893192907
283562 15 18262238794371213546
4017518 198 17548987002357885900
4280585 95 18334848450620649075
469060 322 18262527983372854000
497634 4 17916597419023291346
5081480 168 18116415111687263943
7399639 24 18059005095711918654

>  <PUBCHEM_SHAPE_MULTIPOLES>  (1) 
498.66
11.74
4.32
1.83
3.14
4.33
-0.24
-15.22
-2.67
-1.9
-0.46
-0.07
0.87
0.13

>  <PUBCHEM_SHAPE_SELFOVERLAP>  (1) 
1031.488

>  <PUBCHEM_SHAPE_VOLUME>  (1) 
286.8

>  <PUBCHEM_COORDINATE_TYPE>  (1) 
2
5
10

$$$$
