28477
     RDKit          3D

 13 12  0  0  1  0  0  0  0  0999 V2000
    0.1582    1.4067   -0.1699 C   0  0  0  0  0  0  0  0  0  0  0  0
    0.9309    0.1041    0.1415 C   0  0  0  0  0  0  0  0  0  0  0  0
    2.3723    0.2736    0.6735 C   0  0  0  0  0  0  0  0  0  0  0  0
   -1.2656    1.1125   -0.6967 C   0  0  0  0  0  0  0  0  0  0  0  0
    3.0826   -1.0902    0.8385 C   0  0  0  0  0  0  0  0  0  0  0  0
   -2.1034    0.2349    0.2401 C   0  0  0  0  0  0  0  0  0  0  0  0
    0.8960    2.2695   -1.2007 C   0  0  0  0  0  0  0  0  0  0  0  0
    2.3959    1.0054    2.0213 C   0  0  0  0  0  0  0  0  0  0  0  0
   -3.4889   -0.0377   -0.3530 C   0  0  0  0  0  0  0  0  0  0  0  0
    3.2105   -1.9433   -0.4280 C   0  0  0  0  0  0  0  0  0  0  0  0
   -4.3829   -0.8816    0.5582 C   0  0  0  0  0  0  0  0  0  0  0  0
    3.9281   -1.2395   -1.5688 C   0  0  0  0  0  0  0  0  0  0  0  0
   -5.7338   -1.2146   -0.0559 C   0  0  0  0  0  0  0  0  0  0  0  0
  1  2  1  0
  1  4  1  0
  1  7  1  0
  2  3  1  0
  3  5  1  0
  3  8  1  0
  4  6  1  0
  5 10  1  0
  6  9  1  0
  9 11  1  0
 10 12  1  0
 11 13  1  0
M  END
>  <PUBCHEM_COMPOUND_CID>  (1) 
28477

>  <PUBCHEM_CONFORMER_RMSD>  (1) 
0.8

>  <PUBCHEM_CONFORMER_DIVERSEORDER>  (1) 
1
42
6
35
16
25
72
11
91
112
15
37
64
58
119
61
49
79
121
36
31
78
122
45
39
101
89
93
46
27
53
7
13
117
118
82
126
44
8
83
74
116
94
59
55
28
99
24
14
66
4
81
123
92
38
32
17
127
103
23
54
105
102
40
41
9
76
71
109
34
29
67
84
60
86
80
124
70
114
95
104
65
5
18
22
87
120
43
125
113
48
90
20
50
57
26
21
107
52
73
115
100
85
62
2
12
108
96
10
69
77
63
47
75
106
3
33
98
51
19
30
88
111
56
97
68
110

>  <PUBCHEM_MMFF94_PARTIAL_CHARGES>  (1) 
0

>  <PUBCHEM_EFFECTIVE_ROTOR_COUNT>  (1) 
8

>  <PUBCHEM_PHARMACOPHORE_FEATURES>  (1) 
4
1 12 hydrophobe
1 13 hydrophobe
1 7 hydrophobe
1 8 hydrophobe

>  <PUBCHEM_HEAVY_ATOM_COUNT>  (1) 
13

>  <PUBCHEM_ATOM_DEF_STEREO_COUNT>  (1) 
0

>  <PUBCHEM_ATOM_UDEF_STEREO_COUNT>  (1) 
2

>  <PUBCHEM_BOND_DEF_STEREO_COUNT>  (1) 
0

>  <PUBCHEM_BOND_UDEF_STEREO_COUNT>  (1) 
0

>  <PUBCHEM_ISOTOPIC_ATOM_COUNT>  (1) 
0

>  <PUBCHEM_COMPONENT_COUNT>  (1) 
1

>  <PUBCHEM_CACTVS_TAUTO_COUNT>  (1) 
1

>  <PUBCHEM_CONFORMER_ID>  (1) 
00006F3D00000001

>  <PUBCHEM_MMFF94_ENERGY>  (1) 
8.2413

>  <PUBCHEM_FEATURE_SELFOVERLAP>  (1) 
20.3

>  <PUBCHEM_SHAPE_FINGERPRINT>  (1) 
11543360 7 13695591057429924915
11715629 250 10303823059918295243
11858739 19 18341889710964603935
12006461 19 18341615893102192051
122479 349 9943223953206567022
12616999 72 17022621961676403282
13464513 79 18412829083985725862
13533116 47 17846498162584770243
13675066 3 18343294890866544201
14178000 29 18409174285379743948
1420 369 18341612638044690695
14251710 61 18412827954198180847
14251740 57 18201724015373300303
14251758 9 18339647746647164433
14251764 30 17273715173460062166
14252887 29 18410287034149629664
14366163 111 13045939106068658079
15342816 4 18114179692567484922
177051 138 18412261744548931929
1798214 55 10447926178872428387
193927 3 18334303080427007355
19752476 56 11097843090919111671
19782 4 9295280621487461391
20281475 54 18188491255092518649
20388580 30 18260838102229854525
20645477 70 17968937630001600659
20671657 53 17822285782284674141
20871998 22 18334288760357345245
20871999 31 17822016358859225477
212847 35 11024112066137894682
23016692 55 18336276669212325799
23382010 3 15430048659618649696
23402655 69 12107787389205281499
23532345 42 18335133189571609186
23557571 272 18115300078158423060
23590187 173 7781513702716951830
31174 14 17917700318979629696
32948 21 15937230267331256911
4463277 69 18413101767116551735
449060 62 11743569820561440689
5352402 22 17846781775795791959
57003041 14 18056762014444201116
7364860 26 18263365961219860468
94968 8 18335422352809019402

>  <PUBCHEM_SHAPE_MULTIPOLES>  (1) 
267.53
9.74
2.02
1.41
13.45
0.3
-0.25
-7.29
0.12
-1.22
0.61
-1.7
0.28
0.99

>  <PUBCHEM_SHAPE_SELFOVERLAP>  (1) 
477.572

>  <PUBCHEM_SHAPE_VOLUME>  (1) 
175.8

>  <PUBCHEM_COORDINATE_TYPE>  (1) 
2
5
10

$$$$
