28475
     RDKit          3D

 13 12  0  0  1  0  0  0  0  0999 V2000
   -1.0616    1.2474   -0.1229 C   0  0  0  0  0  0  0  0  0  0  0  0
   -2.4596    0.8035    0.4160 C   0  0  0  0  0  0  0  0  0  0  0  0
    0.0318    0.2183    0.2539 C   0  0  0  0  0  0  0  0  0  0  0  0
   -3.0242   -0.4349   -0.3154 C   0  0  0  0  0  0  0  0  0  0  0  0
    1.4469    0.6721   -0.1254 C   0  0  0  0  0  0  0  0  0  0  0  0
   -1.0643    1.5315   -1.6302 C   0  0  0  0  0  0  0  0  0  0  0  0
   -2.4161    0.5867    1.9358 C   0  0  0  0  0  0  0  0  0  0  0  0
    2.5300   -0.3522    0.2324 C   0  0  0  0  0  0  0  0  0  0  0  0
   -4.4582   -0.7835    0.0976 C   0  0  0  0  0  0  0  0  0  0  0  0
    3.9706    0.0536   -0.0961 C   0  0  0  0  0  0  0  0  0  0  0  0
    5.0407   -0.9970    0.2090 C   0  0  0  0  0  0  0  0  0  0  0  0
   -4.9815   -1.9841   -0.6773 C   0  0  0  0  0  0  0  0  0  0  0  0
    6.4455   -0.5615   -0.1775 C   0  0  0  0  0  0  0  0  0  0  0  0
  1  2  1  0
  1  3  1  0
  1  6  1  0
  2  4  1  0
  2  7  1  0
  3  5  1  0
  4  9  1  0
  5  8  1  0
  8 10  1  0
  9 12  1  0
 10 11  1  0
 11 13  1  0
M  END
>  <PUBCHEM_COMPOUND_CID>  (1) 
28475

>  <PUBCHEM_CONFORMER_RMSD>  (1) 
0.8

>  <PUBCHEM_CONFORMER_DIVERSEORDER>  (1) 
64
45
200
91
125
202
39
6
211
122
226
157
66
12
218
82
151
154
199
178
42
135
131
158
50
105
173
148
152
88
215
162
20
169
119
103
205
207
124
58
43
87
163
193
83
55
120
16
223
31
27
209
167
128
159
186
99
133
116
224
184
73
201
118
4
110
221
101
212
1
182
3
214
164
113
19
138
190
174
2
155
123
35
21
217
30
176
140
136
13
67
69
40
86
24
115
90
108
89
134
112
100
130
33
185
210
129
109
93
8
141
225
197
92
74
53
70
10
191
208
71
68
17
216
59
183
51
62
188
48
104
143
46
132
77
165
7
85
76
156
180
44
194
196
57
28
160
220
96
47
161
114
78
98
147
49
97
179
146
38
203
145
94
189
52
139
177
106
171
219
84
26
144
195
181
25
23
150
206
41
117
32
15
56
187
37
213
149
36
11
34
60
166
170
198
72
54
14
9
65
153
172
192
137
63
29
142
127
107
81
168
79
61
204
95
5
80
22
222
175
18
121
102
111
75
126

>  <PUBCHEM_MMFF94_PARTIAL_CHARGES>  (1) 
0

>  <PUBCHEM_EFFECTIVE_ROTOR_COUNT>  (1) 
8

>  <PUBCHEM_PHARMACOPHORE_FEATURES>  (1) 
4
1 12 hydrophobe
1 13 hydrophobe
1 6 hydrophobe
1 7 hydrophobe

>  <PUBCHEM_HEAVY_ATOM_COUNT>  (1) 
13

>  <PUBCHEM_ATOM_DEF_STEREO_COUNT>  (1) 
0

>  <PUBCHEM_ATOM_UDEF_STEREO_COUNT>  (1) 
2

>  <PUBCHEM_BOND_DEF_STEREO_COUNT>  (1) 
0

>  <PUBCHEM_BOND_UDEF_STEREO_COUNT>  (1) 
0

>  <PUBCHEM_ISOTOPIC_ATOM_COUNT>  (1) 
0

>  <PUBCHEM_COMPONENT_COUNT>  (1) 
1

>  <PUBCHEM_CACTVS_TAUTO_COUNT>  (1) 
1

>  <PUBCHEM_CONFORMER_ID>  (1) 
00006F3B00000040

>  <PUBCHEM_MMFF94_ENERGY>  (1) 
9.5541

>  <PUBCHEM_FEATURE_SELFOVERLAP>  (1) 
20.3

>  <PUBCHEM_SHAPE_FINGERPRINT>  (1) 
10366900 7 17603585223207587672
10680689 15 18187932729440936184
10803635 8 14490193825451268568
11046707 91 18411698794358172643
12596602 18 17847061069651705770
12916754 54 18412543227836489496
13214271 11 17418093165741094409
13288520 33 18341895181755750829
13675066 3 15985105180873532760
14123238 8 18334580123197681538
14251718 22 18408322186202909710
14251732 16 18201716306254520400
14251764 75 11677641896512301111
15242439 84 15430038768662128396
15880784 105 18341896315943699928
17834072 33 18341614849841825036
187816 3 16515399673214625449
19784866 240 18334862770642740591
200 152 17822009804623164908
20112054 13 11743845776357339761
20671657 53 18336548339037285845
20724930 69 9799693705369416086
20767249 213 9223232949151060715
20871999 31 16660634142615869557
21426921 1 18336543807208809765
21637258 2 18201427130222444255
22224240 67 13254800157659505279
22896161 15 18341893030889732522
23402539 116 17530684281711751332
23500284 214 11095882683166612293
23557571 272 17749954345637898220
23559900 14 18270671099637599281
3286 77 18201719591155857368
49783359 22 18342739594297138906
57003041 33 17095240311202967594
58051976 378 16950568749180097074

>  <PUBCHEM_SHAPE_MULTIPOLES>  (1) 
267.53
12.86
1.51
1.18
15.88
0.23
-0.21
8.16
0.64
-1.65
0.43
-1.1
-0.42
-0.64

>  <PUBCHEM_SHAPE_SELFOVERLAP>  (1) 
476.886

>  <PUBCHEM_SHAPE_VOLUME>  (1) 
175.9

>  <PUBCHEM_COORDINATE_TYPE>  (1) 
2
5
10

$$$$
