28471
     RDKit          3D

 13 12  0  0  0  0  0  0  0  0999 V2000
    2.3359   -0.7950   -0.0369 C   0  0  0  0  0  0  0  0  0  0  0  0
    0.8909   -1.0053    0.5110 C   0  0  0  0  0  0  0  0  0  0  0  0
    2.8065    0.6599    0.2466 C   0  0  0  0  0  0  0  0  0  0  0  0
   -0.2119   -0.1755   -0.1610 C   0  0  0  0  0  0  0  0  0  0  0  0
    2.3794   -1.0951   -1.5469 C   0  0  0  0  0  0  0  0  0  0  0  0
    3.2478   -1.8099    0.6849 C   0  0  0  0  0  0  0  0  0  0  0  0
   -1.5877   -0.5229    0.4171 C   0  0  0  0  0  0  0  0  0  0  0  0
    4.2493    0.9874   -0.1581 C   0  0  0  0  0  0  0  0  0  0  0  0
   -2.7294    0.3004   -0.1876 C   0  0  0  0  0  0  0  0  0  0  0  0
   -4.1396   -0.0601    0.2896 C   0  0  0  0  0  0  0  0  0  0  0  0
    4.6174    2.4143    0.2256 C   0  0  0  0  0  0  0  0  0  0  0  0
   -5.2401    0.7517   -0.3936 C   0  0  0  0  0  0  0  0  0  0  0  0
   -6.6184    0.3500    0.1091 C   0  0  0  0  0  0  0  0  0  0  0  0
  1  2  1  0
  1  3  1  0
  1  5  1  0
  1  6  1  0
  2  4  1  0
  3  8  1  0
  4  7  1  0
  7  9  1  0
  8 11  1  0
  9 10  1  0
 10 12  1  0
 12 13  1  0
M  END
>  <PUBCHEM_COMPOUND_CID>  (1) 
28471

>  <PUBCHEM_CONFORMER_RMSD>  (1) 
0.8

>  <PUBCHEM_CONFORMER_DIVERSEORDER>  (1) 
1
27
30
45
39
37
14
36
16
47
42
24
26
48
6
44
32
5
3
43
46
23
51
10
20
2
12
41
7
18
29
13
49
11
17
22
28
15
8
33
35
31
40
4
9
38
50
34
21
19
25

>  <PUBCHEM_MMFF94_PARTIAL_CHARGES>  (1) 
0

>  <PUBCHEM_EFFECTIVE_ROTOR_COUNT>  (1) 
8

>  <PUBCHEM_PHARMACOPHORE_FEATURES>  (1) 
3
1 11 hydrophobe
1 13 hydrophobe
3 1 5 6 hydrophobe

>  <PUBCHEM_HEAVY_ATOM_COUNT>  (1) 
13

>  <PUBCHEM_ATOM_DEF_STEREO_COUNT>  (1) 
0

>  <PUBCHEM_ATOM_UDEF_STEREO_COUNT>  (1) 
0

>  <PUBCHEM_BOND_DEF_STEREO_COUNT>  (1) 
0

>  <PUBCHEM_BOND_UDEF_STEREO_COUNT>  (1) 
0

>  <PUBCHEM_ISOTOPIC_ATOM_COUNT>  (1) 
0

>  <PUBCHEM_COMPONENT_COUNT>  (1) 
1

>  <PUBCHEM_CACTVS_TAUTO_COUNT>  (1) 
1

>  <PUBCHEM_CONFORMER_ID>  (1) 
00006F3700000001

>  <PUBCHEM_MMFF94_ENERGY>  (1) 
12.0338

>  <PUBCHEM_FEATURE_SELFOVERLAP>  (1) 
15.223

>  <PUBCHEM_SHAPE_FINGERPRINT>  (1) 
10912923 1 18131632262510845811
11287383 113 18410012144011878787
12616999 72 17132116835860582158
13081056 2 18187926136560453541
13533116 47 17749384802524666219
13955234 65 18189052010328929531
14123238 8 18131631175910298533
14251718 22 18271805761593885711
14251732 16 18337674226217287067
14774955 27 18341047514220723732
16079462 125 17749377162479349421
17834072 33 18131627911608559629
17834076 25 17632858620684956775
20281389 69 18041842789034430893
20605781 2 18409448119646876273
20645477 56 18040435507922155087
20645477 70 18271247114475521879
20871999 31 17631159956840675127
212847 35 18272646831468777089
21452121 103 18260540113573297968
21618674 25 18187082879545090666
22289505 5 18343579616490478376
22896161 15 18337953502397666811
23402655 69 18131350821408433671
23532345 1 18408324401867938554
23559900 14 17458354000374676562
270888 7 18194118753874520656
2916195 48 18186516614473138785
300161 21 18412258454693744919
3060560 45 17203331139325086404
3545911 37 18260269654728616028
4047638 21 18407761430260546794
42788 4 18336264562079098715
449060 50 18333448763643737213
449060 62 18412825815605108888
5104073 3 18113903745440324115
522135 26 16988562377160960055
5374978 207 18113333085567028985
59682541 52 17488764336716682596
6025842 7 18273217473951731942
77188 2 18048311138536215394
90127 26 18338812108824390321
94968 8 10663830671923155628

>  <PUBCHEM_SHAPE_MULTIPOLES>  (1) 
267.53
13.55
1.73
0.9
20.82
0.53
0.25
6.15
-0.09
-3.36
-0.16
-0.49
-0.27
0.29

>  <PUBCHEM_SHAPE_SELFOVERLAP>  (1) 
479.551

>  <PUBCHEM_SHAPE_VOLUME>  (1) 
176

>  <PUBCHEM_COORDINATE_TYPE>  (1) 
2
5
10

$$$$
