28482
     RDKit          3D

 17 19  0  0  0  0  0  0  0  0999 V2000
   -1.9942   -2.3354    0.0134 O   0  0  0  0  0  0  0  0  0  0  0  0
   -3.9791    1.3866    0.0111 O   0  0  0  0  0  0  0  0  0  0  0  0
   -0.4214    1.9011   -0.0447 N   0  0  0  0  0  0  0  0  0  0  0  0
   -1.7839    2.1178   -0.0403 N   0  0  0  0  0  0  0  0  0  0  0  0
   -2.9555   -1.3226    0.0295 N   0  0  0  0  0  0  0  0  0  0  0  0
   -0.8663   -0.4177    0.0158 C   0  0  0  0  0  0  0  0  0  0  0  0
    0.0521    0.6865   -0.0050 C   0  0  0  0  0  0  0  0  0  0  0  0
   -2.2469   -0.1930    0.0209 C   0  0  0  0  0  0  0  0  0  0  0  0
   -0.7491   -1.7794   -0.0044 C   0  0  0  0  0  0  0  0  0  0  0  0
    1.5115    0.4651    0.0012 C   0  0  0  0  0  0  0  0  0  0  0  0
   -2.7770    1.1418    0.0003 C   0  0  0  0  0  0  0  0  0  0  0  0
    0.3787   -2.7192   -0.0398 C   0  0  0  0  0  0  0  0  0  0  0  0
    2.2026    0.3365   -1.2036 C   0  0  0  0  0  0  0  0  0  0  0  0
    2.1992    0.3843    1.2119 C   0  0  0  0  0  0  0  0  0  0  0  0
    3.5816    0.1269   -1.1975 C   0  0  0  0  0  0  0  0  0  0  0  0
    3.5782    0.1748    1.2180 C   0  0  0  0  0  0  0  0  0  0  0  0
    4.2694    0.0461    0.0131 C   0  0  0  0  0  0  0  0  0  0  0  0
  1  5  1  0
  1  9  1  0
  2 11  2  0
  3  4  1  0
  3  7  2  0
  4 11  1  0
  5  8  2  0
  6  7  1  0
  6  8  1  0
  6  9  2  0
  7 10  1  0
  8 11  1  0
  9 12  1  0
 10 13  2  0
 10 14  1  0
 13 15  1  0
 14 16  2  0
 15 17  2  0
 16 17  1  0
M  END
>  <PUBCHEM_COMPOUND_CID>  (1) 
28482

>  <PUBCHEM_CONFORMER_RMSD>  (1) 
0.6

>  <PUBCHEM_CONFORMER_DIVERSEORDER>  (1) 
1

>  <PUBCHEM_MMFF94_PARTIAL_CHARGES>  (1) 
23
1 -0.02
10 0.09
11 0.72
12 0.18
13 -0.15
14 -0.15
15 -0.15
16 -0.15
17 -0.15
2 -0.57
21 0.37
22 0.15
23 0.15
24 0.15
25 0.15
26 0.15
3 -0.51
4 -0.37
5 -0.41
6 -0.09
7 0.45
8 0.2
9 -0.04

>  <PUBCHEM_EFFECTIVE_ROTOR_COUNT>  (1) 
1

>  <PUBCHEM_PHARMACOPHORE_FEATURES>  (1) 
7
1 2 acceptor
1 3 acceptor
1 4 donor
1 5 acceptor
5 1 5 6 8 9 rings
6 10 13 14 15 16 17 rings
6 3 4 6 7 8 11 rings

>  <PUBCHEM_HEAVY_ATOM_COUNT>  (1) 
17

>  <PUBCHEM_ATOM_DEF_STEREO_COUNT>  (1) 
0

>  <PUBCHEM_ATOM_UDEF_STEREO_COUNT>  (1) 
0

>  <PUBCHEM_BOND_DEF_STEREO_COUNT>  (1) 
0

>  <PUBCHEM_BOND_UDEF_STEREO_COUNT>  (1) 
0

>  <PUBCHEM_ISOTOPIC_ATOM_COUNT>  (1) 
0

>  <PUBCHEM_COMPONENT_COUNT>  (1) 
1

>  <PUBCHEM_CACTVS_TAUTO_COUNT>  (1) 
2

>  <PUBCHEM_CONFORMER_ID>  (1) 
00006F4200000001

>  <PUBCHEM_MMFF94_ENERGY>  (1) 
49.5465

>  <PUBCHEM_FEATURE_SELFOVERLAP>  (1) 
35.635

>  <PUBCHEM_SHAPE_FINGERPRINT>  (1) 
10967382 1 18266740190490144815
11132069 177 18410573972335354913
11680986 33 18192719942733301395
12236239 1 17676488345961039148
12500047 106 18413384337336328750
12553582 1 17905896133805796726
13140716 1 18339083804055430329
13380535 76 18338232670222610983
13538477 17 18186518821643028876
13544592 145 18130516227895773860
13862211 1 18338513162084769235
15219456 202 17775001327903256488
15309172 13 18337400361215788801
15375358 24 17989200465207171688
15669948 3 18335703887951922734
15775835 57 18408602530933263344
16752209 62 18336538417135350031
16945 1 18410575067794673461
17804303 29 18341332274820736760
18186145 218 17918001563664111594
19049666 15 17845663542821940070
19422 9 17749108928401346442
20279233 1 17846780706770629452
20510252 161 18271810163144255600
20645476 183 17822581584976729254
20871999 31 18339090396687350196
20905425 154 18341898428899408542
23184049 29 18050281775882078202
2334 1 18122343746803053505
23402539 116 18341884203861677036
23419403 2 13971398175979731999
23463225 33 18260261906897933410
23493267 7 17968389986631270634
23526113 38 17560245713256288230
23557571 272 18198911486394195472
23559900 14 18272093777974528540
23598291 2 17676493877810215324
2748010 2 18194675106483102197
350125 39 17762063137997591569
4175511 318 17822002091083610229
43471831 8 18335416833481047923
465052 167 17825127028137793987
53812653 166 18272087167044011192
69090 78 17560793342686792631
7364860 26 17983012250093489686
74978 22 18335982077136519380
77492 1 17676204693324990220
81228 2 18195521721598622499
90525 40 18260833704373195150
9709674 26 18343308076231890774

>  <PUBCHEM_SHAPE_MULTIPOLES>  (1) 
323.17
6.5
2.23
0.96
2.36
1.16
-0.01
-1.42
-0.05
-1.97
0.02
1.07
-0.09
0.05

>  <PUBCHEM_SHAPE_SELFOVERLAP>  (1) 
718.597

>  <PUBCHEM_SHAPE_VOLUME>  (1) 
174.1

>  <PUBCHEM_COORDINATE_TYPE>  (1) 
2
5
10

$$$$
