28488
     RDKit          3D

  8  7  0  0  0  0  0  0  0  0999 V2000
   -0.1781    0.6873    0.4206 O   0  0  0  0  0  0  0  0  0  0  0  0
    1.0413    0.0688    0.0086 C   0  0  0  0  0  0  0  0  0  0  0  0
   -1.2927    0.1309   -0.2582 C   0  0  0  0  0  0  0  0  0  0  0  0
    0.8891   -0.3876   -1.4418 C   0  0  0  0  0  0  0  0  0  0  0  0
    2.1502    1.1117    0.1301 C   0  0  0  0  0  0  0  0  0  0  0  0
    1.3187   -1.1200    0.9275 C   0  0  0  0  0  0  0  0  0  0  0  0
   -1.3733   -1.3569    0.0473 C   0  0  0  0  0  0  0  0  0  0  0  0
   -2.5552    0.8658    0.1659 C   0  0  0  0  0  0  0  0  0  0  0  0
  1  2  1  0
  1  3  1  0
  2  4  1  0
  2  5  1  0
  2  6  1  0
  3  7  1  0
  3  8  1  0
M  END
>  <PUBCHEM_COMPOUND_CID>  (1) 
28488

>  <PUBCHEM_CONFORMER_RMSD>  (1) 
0.4

>  <PUBCHEM_CONFORMER_DIVERSEORDER>  (1) 
1

>  <PUBCHEM_MMFF94_PARTIAL_CHARGES>  (1) 
3
1 -0.56
2 0.28
3 0.28

>  <PUBCHEM_EFFECTIVE_ROTOR_COUNT>  (1) 
2

>  <PUBCHEM_PHARMACOPHORE_FEATURES>  (1) 
3
1 1 acceptor
3 3 7 8 hydrophobe
4 2 4 5 6 hydrophobe

>  <PUBCHEM_HEAVY_ATOM_COUNT>  (1) 
8

>  <PUBCHEM_ATOM_DEF_STEREO_COUNT>  (1) 
0

>  <PUBCHEM_ATOM_UDEF_STEREO_COUNT>  (1) 
0

>  <PUBCHEM_BOND_DEF_STEREO_COUNT>  (1) 
0

>  <PUBCHEM_BOND_UDEF_STEREO_COUNT>  (1) 
0

>  <PUBCHEM_ISOTOPIC_ATOM_COUNT>  (1) 
0

>  <PUBCHEM_COMPONENT_COUNT>  (1) 
1

>  <PUBCHEM_CACTVS_TAUTO_COUNT>  (1) 
1

>  <PUBCHEM_CONFORMER_ID>  (1) 
00006F4800000001

>  <PUBCHEM_MMFF94_ENERGY>  (1) 
45.0243

>  <PUBCHEM_FEATURE_SELFOVERLAP>  (1) 
15.223

>  <PUBCHEM_SHAPE_FINGERPRINT>  (1) 
12423570 1 9798040117138080110
137420 1 10654154926195159102
14390081 3 18272367611302813593
18185500 45 18187078481461616939
21040471 1 18409170982781975533
23235685 24 17846780697895975121
23552423 10 18260265261045936338
24536 1 17775571909617689915
29004967 10 17274276044221536546
5084963 1 18125725831600690784
5943 1 16382299117689880894

>  <PUBCHEM_SHAPE_MULTIPOLES>  (1) 
158.77
2.98
1.33
1.02
0.99
0.21
-0.3
-0.86
0.3
0.01
0.2
-0.36
0.19
-0.12

>  <PUBCHEM_SHAPE_SELFOVERLAP>  (1) 
291.647

>  <PUBCHEM_SHAPE_VOLUME>  (1) 
103.9

>  <PUBCHEM_COORDINATE_TYPE>  (1) 
2
5
10

$$$$
