28493
     RDKit          3D

 11 11  0  0  0  0  0  0  0  0999 V2000
    2.8800   -0.0274    0.1920 N   0  0  0  0  0  0  0  0  0  0  0  0
    0.6463   -0.1884   -0.6998 N   0  0  0  0  0  0  0  0  0  0  0  0
   -3.4008    0.1086    0.3575 N   0  0  0  0  0  0  0  0  0  0  0  0
    3.5661   -0.3110   -1.0605 C   0  0  0  0  0  0  0  0  0  0  0  0
    3.7000    0.4651    1.2900 C   0  0  0  0  0  0  0  0  0  0  0  0
    1.4987    0.0084    0.2569 C   0  0  0  0  0  0  0  0  0  0  0  0
   -0.7102   -0.0898   -0.3466 C   0  0  0  0  0  0  0  0  0  0  0  0
   -1.3581    1.1336   -0.4311 C   0  0  0  0  0  0  0  0  0  0  0  0
   -1.3958   -1.2149    0.0868 C   0  0  0  0  0  0  0  0  0  0  0  0
   -2.6950    1.1796   -0.0700 C   0  0  0  0  0  0  0  0  0  0  0  0
   -2.7311   -1.0638    0.4248 C   0  0  0  0  0  0  0  0  0  0  0  0
  1  4  1  0
  1  5  1  0
  1  6  1  0
  2  6  2  0
  2  7  1  0
  3 10  2  0
  3 11  1  0
  7  8  2  0
  7  9  1  0
  8 10  1  0
  9 11  2  0
M  END
>  <PUBCHEM_COMPOUND_CID>  (1) 
28493

>  <PUBCHEM_CONFORMER_RMSD>  (1) 
0.4

>  <PUBCHEM_CONFORMER_DIVERSEORDER>  (1) 
1
6
5
3
4
2

>  <PUBCHEM_MMFF94_PARTIAL_CHARGES>  (1) 
16
1 -0.79
10 0.16
11 0.16
18 0.06
19 0.15
2 -0.63
20 0.15
21 0.15
22 0.15
3 -0.62
4 0.37
5 0.37
6 0.44
7 0.18
8 -0.15
9 -0.15

>  <PUBCHEM_EFFECTIVE_ROTOR_COUNT>  (1) 
2

>  <PUBCHEM_PHARMACOPHORE_FEATURES>  (1) 
3
1 3 acceptor
3 1 2 6 cation
6 3 7 8 9 10 11 rings

>  <PUBCHEM_HEAVY_ATOM_COUNT>  (1) 
11

>  <PUBCHEM_ATOM_DEF_STEREO_COUNT>  (1) 
0

>  <PUBCHEM_ATOM_UDEF_STEREO_COUNT>  (1) 
0

>  <PUBCHEM_BOND_DEF_STEREO_COUNT>  (1) 
0

>  <PUBCHEM_BOND_UDEF_STEREO_COUNT>  (1) 
0

>  <PUBCHEM_ISOTOPIC_ATOM_COUNT>  (1) 
0

>  <PUBCHEM_COMPONENT_COUNT>  (1) 
1

>  <PUBCHEM_CACTVS_TAUTO_COUNT>  (1) 
1

>  <PUBCHEM_CONFORMER_ID>  (1) 
00006F4D00000001

>  <PUBCHEM_MMFF94_ENERGY>  (1) 
28.2868

>  <PUBCHEM_FEATURE_SELFOVERLAP>  (1) 
15.223

>  <PUBCHEM_SHAPE_FINGERPRINT>  (1) 
10857977 72 18410011061163103385
11062470 55 14345796054249620943
12932764 1 18131911559543582894
13024252 1 13839983305403817029
14144814 61 17894912927556003948
14325111 11 18409449159118372846
18186145 218 16415483757337527420
190213 19 17531245054354019818
19422 9 17240484693399098114
20279233 1 18131630084624809926
20645464 45 18202279208182683391
20645477 70 16916789535623806030
20715346 28 18060137656701067620
20871998 184 18341338898056348911
22485316 2 14201399404013410561
23402539 116 18411971478222631039
3248919 1 18040429993073539750
369184 2 18201998824428300791

>  <PUBCHEM_SHAPE_MULTIPOLES>  (1) 
211.43
6.73
1.14
0.97
4.19
0.02
0.06
0.29
1.02
-0.95
0.01
0.93
0.03
0.5

>  <PUBCHEM_SHAPE_SELFOVERLAP>  (1) 
426.017

>  <PUBCHEM_SHAPE_VOLUME>  (1) 
123.2

>  <PUBCHEM_COORDINATE_TYPE>  (1) 
2
5
10

$$$$
