28490
     RDKit          3D

 14 14  0  0  0  0  0  0  0  0999 V2000
    0.0313    0.6566   -0.7754 O   0  0  0  0  0  0  0  0  0  0  0  0
    3.5859    0.0625    0.1928 N   0  0  0  0  0  0  0  0  0  0  0  0
    2.3484    0.8640   -0.1843 C   0  0  0  0  0  0  0  0  0  0  0  0
    3.8961   -0.9404   -0.9090 C   0  0  0  0  0  0  0  0  0  0  0  0
    4.7673    1.0058    0.3676 C   0  0  0  0  0  0  0  0  0  0  0  0
    3.3319   -0.6794    1.4971 C   0  0  0  0  0  0  0  0  0  0  0  0
    1.1818   -0.0825   -0.3876 C   0  0  0  0  0  0  0  0  0  0  0  0
   -1.1857    0.1419   -0.4115 C   0  0  0  0  0  0  0  0  0  0  0  0
   -2.2521    1.0005   -0.1710 C   0  0  0  0  0  0  0  0  0  0  0  0
   -1.3409   -1.2340   -0.2869 C   0  0  0  0  0  0  0  0  0  0  0  0
   -3.4906    0.4762    0.1991 C   0  0  0  0  0  0  0  0  0  0  0  0
   -2.5793   -1.7582    0.0833 C   0  0  0  0  0  0  0  0  0  0  0  0
   -3.6543   -0.9032    0.3263 C   0  0  0  0  0  0  0  0  0  0  0  0
   -4.6397    1.3902    0.4594 C   0  0  0  0  0  0  0  0  0  0  0  0
  1  7  1  0
  1  8  1  0
  2  3  1  0
  2  4  1  0
  2  5  1  0
  2  6  1  0
  3  7  1  0
  8  9  2  0
  8 10  1  0
  9 11  1  0
 10 12  2  0
 11 13  2  0
 11 14  1  0
 12 13  1  0
M  CHG  1   2   1
M  END
>  <PUBCHEM_COMPOUND_CID>  (1) 
28490

>  <PUBCHEM_CONFORMER_RMSD>  (1) 
0.6

>  <PUBCHEM_CONFORMER_DIVERSEORDER>  (1) 
3
11
10
6
29
2
24
18
12
5
31
7
9
20
4
30
13
32
17
28
1
26
14
16
23
8
22
19
27
21
15
25

>  <PUBCHEM_MMFF94_PARTIAL_CHARGES>  (1) 
18
1 -0.36
10 -0.15
11 -0.14
12 -0.15
13 -0.15
14 0.14
2 -1.01
28 0.15
29 0.15
3 0.5
30 0.15
31 0.15
4 0.5
5 0.5
6 0.5
7 0.28
8 0.08
9 -0.15

>  <PUBCHEM_EFFECTIVE_ROTOR_COUNT>  (1) 
4

>  <PUBCHEM_PHARMACOPHORE_FEATURES>  (1) 
3
1 1 acceptor
1 2 cation
6 8 9 10 11 12 13 rings

>  <PUBCHEM_HEAVY_ATOM_COUNT>  (1) 
14

>  <PUBCHEM_ATOM_DEF_STEREO_COUNT>  (1) 
0

>  <PUBCHEM_ATOM_UDEF_STEREO_COUNT>  (1) 
0

>  <PUBCHEM_BOND_DEF_STEREO_COUNT>  (1) 
0

>  <PUBCHEM_BOND_UDEF_STEREO_COUNT>  (1) 
0

>  <PUBCHEM_ISOTOPIC_ATOM_COUNT>  (1) 
0

>  <PUBCHEM_COMPONENT_COUNT>  (1) 
1

>  <PUBCHEM_CACTVS_TAUTO_COUNT>  (1) 
1

>  <PUBCHEM_CONFORMER_ID>  (1) 
00006F4A00000003

>  <PUBCHEM_MMFF94_ENERGY>  (1) 
53.0201

>  <PUBCHEM_FEATURE_SELFOVERLAP>  (1) 
15.223

>  <PUBCHEM_SHAPE_FINGERPRINT>  (1) 
10014705 185 18413105061446385165
11132069 177 18408886239208610717
12119455 92 17060057012935029285
12251169 10 18335138708625833092
124424 183 17704072888966900409
12500047 106 17774998029162761846
12932764 1 17676761024570323852
13214271 11 18201999954078604981
13675066 3 18343305876680711375
14144814 61 18260825994917350810
14252887 29 18410015442557175026
14445660 50 18407759257096707324
15375358 24 18130790048781944046
15375462 189 17676200260792257464
17804303 29 18410017645395460565
18186145 218 18186798084774723380
19050596 39 18113335345020630276
19107657 47 16200434658648081498
19422 9 18041002894223410871
20279233 1 17775574138600293334
20281475 54 17313104172106812410
20432913 95 16587743131290273481
20645464 45 18130795559763015999
20645477 56 18413392029564941477
20645477 70 15936950986392180018
20671657 53 12468638317964709646
20828058 44 18408038528929112568
21065199 12 18343302604084417522
212916 134 18201708514814710491
22485316 2 17967526878735682540
2255824 54 17458914854832067220
23402539 116 18271801346578378959
23559900 14 18201726119985818486
2838139 119 15625106296559165129
300161 21 18334006203201726900
42 15 18187364315946021632
449060 50 18201720691052340468
5104073 3 18409729573248711722
573450 72 18335976532391658771
77779 3 18412266159696229852

>  <PUBCHEM_SHAPE_MULTIPOLES>  (1) 
277.26
10.08
1.5
0.94
4.01
0.24
-0.18
-1.76
-1.84
-0.96
-0.04
0.73
0.12
0

>  <PUBCHEM_SHAPE_SELFOVERLAP>  (1) 
551.179

>  <PUBCHEM_SHAPE_VOLUME>  (1) 
168.7

>  <PUBCHEM_COORDINATE_TYPE>  (1) 
2
5
10

$$$$
