28494
     RDKit          3D

  7  7  0  0  1  0  0  0  0  0999 V2000
    0.9124   -1.7747   -0.3592 Cl  0  0  0  0  0  0  0  0  0  0  0  0
    2.1245    0.4615    1.1177 Cl  0  0  0  0  0  0  0  0  0  0  0  0
   -1.6079   -0.0501   -0.3401 O   0  0  0  0  0  0  0  0  0  0  0  0
   -0.4189    0.6939   -0.0269 C   0  0  0  0  0  0  0  0  0  0  0  0
    0.8863   -0.0468   -0.0284 C   0  0  0  0  0  0  0  0  0  0  0  0
    0.5495    0.8821   -1.1577 C   0  0  0  0  0  0  0  0  0  0  0  0
   -2.4459   -0.1659    0.7947 C   0  0  0  0  0  0  0  0  0  0  0  0
  1  5  1  0
  2  5  1  0
  3  4  1  0
  3  7  1  0
  4  5  1  0
  4  6  1  0
  5  6  1  0
M  END
>  <PUBCHEM_COMPOUND_CID>  (1) 
28494

>  <PUBCHEM_CONFORMER_RMSD>  (1) 
0.4

>  <PUBCHEM_CONFORMER_DIVERSEORDER>  (1) 
2
3
4
1

>  <PUBCHEM_MMFF94_PARTIAL_CHARGES>  (1) 
10
1 -0.23
10 0.1
2 -0.23
3 -0.43
4 0.05
5 0.45
6 -0.2
7 0.28
8 0.1
9 0.1

>  <PUBCHEM_EFFECTIVE_ROTOR_COUNT>  (1) 
1.6

>  <PUBCHEM_PHARMACOPHORE_FEATURES>  (1) 
1
1 3 acceptor

>  <PUBCHEM_HEAVY_ATOM_COUNT>  (1) 
7

>  <PUBCHEM_ATOM_DEF_STEREO_COUNT>  (1) 
0

>  <PUBCHEM_ATOM_UDEF_STEREO_COUNT>  (1) 
1

>  <PUBCHEM_BOND_DEF_STEREO_COUNT>  (1) 
0

>  <PUBCHEM_BOND_UDEF_STEREO_COUNT>  (1) 
0

>  <PUBCHEM_ISOTOPIC_ATOM_COUNT>  (1) 
0

>  <PUBCHEM_COMPONENT_COUNT>  (1) 
1

>  <PUBCHEM_CACTVS_TAUTO_COUNT>  (1) 
1

>  <PUBCHEM_CONFORMER_ID>  (1) 
00006F4E00000002

>  <PUBCHEM_MMFF94_ENERGY>  (1) 
9.6082

>  <PUBCHEM_FEATURE_SELFOVERLAP>  (1) 
5.074

>  <PUBCHEM_SHAPE_FINGERPRINT>  (1) 
137420 1 13429975178381894388
20096714 4 15123501553614209808
20653085 51 15122382337008737592
20711978 78 17915168018914616862
21040471 1 18269565007629016262
23552449 11 17916587514301380735
24536 1 18187374203071610781
29004967 10 18259989253562353185
5943 1 12996846908046390196

>  <PUBCHEM_SHAPE_MULTIPOLES>  (1) 
141.93
2.77
1.34
1.13
1.37
0.75
0
-0.09
1.25
-0.55
-0.19
-0.25
-0.25
0.22

>  <PUBCHEM_SHAPE_SELFOVERLAP>  (1) 
251.471

>  <PUBCHEM_SHAPE_VOLUME>  (1) 
93.9

>  <PUBCHEM_COORDINATE_TYPE>  (1) 
2
5
10

$$$$
