28498
     RDKit          3D

 19 18  0  0  0  0  0  0  0  0999 V2000
   -1.2042    2.5413    1.2641 O   0  0  0  0  0  0  0  0  0  0  0  0
   -0.0750    1.8008   -0.6083 O   0  0  0  0  0  0  0  0  0  0  0  0
    3.0412   -0.3885   -0.2337 C   0  0  0  0  0  0  0  0  0  0  0  0
    4.5181   -0.0191   -0.4088 C   0  0  0  0  0  0  0  0  0  0  0  0
    2.7223   -1.8135   -0.6996 C   0  0  0  0  0  0  0  0  0  0  0  0
    4.8569    1.3801    0.1111 C   0  0  0  0  0  0  0  0  0  0  0  0
    1.2897   -2.2000   -0.4640 C   0  0  0  0  0  0  0  0  0  0  0  0
    6.3342    1.7249    0.0086 C   0  0  0  0  0  0  0  0  0  0  0  0
    0.9152   -3.1918    0.3599 C   0  0  0  0  0  0  0  0  0  0  0  0
   -0.4827   -3.6640    0.6590 C   0  0  0  0  0  0  0  0  0  0  0  0
   -1.5793   -2.9384   -0.0649 C   0  0  0  0  0  0  0  0  0  0  0  0
   -3.7003   -1.5315   -0.2461 C   0  0  0  0  0  0  0  0  0  0  0  0
   -3.4984    2.3612   -0.5379 C   0  0  0  0  0  0  0  0  0  0  0  0
   -2.6025   -2.2579    0.4751 C   0  0  0  0  0  0  0  0  0  0  0  0
   -2.1514    3.0110   -0.8444 C   0  0  0  0  0  0  0  0  0  0  0  0
   -3.5038    0.8940   -0.8590 C   0  0  0  0  0  0  0  0  0  0  0  0
   -3.6749   -0.0641    0.0637 C   0  0  0  0  0  0  0  0  0  0  0  0
   -1.0165    2.3754   -0.0763 C   0  0  0  0  0  0  0  0  0  0  0  0
   -0.1886    1.9800    2.1015 C   0  0  0  0  0  0  0  0  0  0  0  0
  1 18  1  0
  1 19  1  0
  2 18  2  0
  3  4  1  0
  3  5  1  0
  4  6  1  0
  5  7  1  0
  6  8  1  0
  7  9  2  0
  9 10  1  0
 10 11  1  0
 11 14  2  0
 12 14  1  0
 12 17  1  0
 13 15  1  0
 13 16  1  0
 15 18  1  0
 16 17  2  0
M  END
>  <PUBCHEM_COMPOUND_CID>  (1) 
28498

>  <PUBCHEM_CONFORMER_RMSD>  (1) 
1

>  <PUBCHEM_CONFORMER_DIVERSEORDER>  (1) 
4
219
386
274
430
83
309
352
411
73
112
31
8
272
326
423
89
215
77
429
310
17
69
155
422
43
45
136
72
432
424
268
389
142
223
360
421
15
273
21
153
297
10
426
331
175
335
311
51
463
236
44
58
227
160
67
118
34
399
322
3
248
68
32
440
164
26
212
445
291
35
266
28
11
462
253
148
373
2
255
454
318
53
203
427
151
81
420
431
290
435
306
339
269
367
128
137
165
384
218
398
204
298
434
196
82
94
317
168
286
199
163
392
428
371
75
187
238
123
48
281
388
415
328
105
244
210
359
49
313
110
453
182
100
351
197
458
242
379
450
461
84
64
437
377
25
321
194
52
106
93
208
152
409
439
455
55
216
19
451
214
405
300
280
442
345
332
102
251
319
235
79
211
361
6
446
368
131
303
433
275
374
285
452
438
116
29
444
250
403
337
296
293
109
292
468
382
87
295
354
410
126
37
325
369
353
229
448
419
271
378
467
213
173
324
158
282
129
86
66
157
190
176
320
343
469
38
363
78
1
447
449
174
315
186
92
413
111
265
107
470
30
356
88
414
130
425
104
270
375
47
159
184
385
13
200
338
192
277
220
125
365
122
416
46
240
24
408
464
98
56
91
412
145
54
135
279
206
115
443
288
370
180
465
188
401
167
247
74
222
299
127
289
76
249
172
124
198
393
258
16
391
101
225
362
191
207
342
141
245
183
205
139
256
329
170
308
347
114
457
252
138
387
95
334
147
202
71
312
267
231
120
169
243
27
65
397
436
201
264
330
140
97
57
383
260
193
162
241
466
177
341
42
390
39
348
143
96
117
340
307
407
257
283
70
418
134
276
346
146
99
80
150
381
350
20
133
40
237
406
301
460
230
228
209
254
132
355
60
121
22
189
9
63
441
41
36
302
156
459
327
85
59
185
278
400
144
305
316
294
232
50
113
239
221
364
166
103
7
471
358
90
349
154
195
287
336
161
417
5
108
304
314
217
179
395
178
171
261
456
380
376
333
394
181
366
12
263
224
262
14
404
233
246
23
226
323
18
234
61
33
62
284
344
149
119
357
259
402
396
372

>  <PUBCHEM_MMFF94_PARTIAL_CHARGES>  (1) 
21
1 -0.43
10 0.28
11 -0.29
12 0.28
13 0.14
14 -0.29
15 0.06
16 -0.29
17 -0.29
18 0.66
19 0.28
2 -0.57
28 0.15
32 0.15
35 0.15
40 0.15
43 0.15
44 0.15
5 0.14
7 -0.29
9 -0.29

>  <PUBCHEM_EFFECTIVE_ROTOR_COUNT>  (1) 
12

>  <PUBCHEM_PHARMACOPHORE_FEATURES>  (1) 
3
1 2 acceptor
1 8 hydrophobe
5 3 4 5 6 7 hydrophobe

>  <PUBCHEM_HEAVY_ATOM_COUNT>  (1) 
19

>  <PUBCHEM_ATOM_DEF_STEREO_COUNT>  (1) 
0

>  <PUBCHEM_ATOM_UDEF_STEREO_COUNT>  (1) 
0

>  <PUBCHEM_BOND_DEF_STEREO_COUNT>  (1) 
0

>  <PUBCHEM_BOND_UDEF_STEREO_COUNT>  (1) 
3

>  <PUBCHEM_ISOTOPIC_ATOM_COUNT>  (1) 
0

>  <PUBCHEM_COMPONENT_COUNT>  (1) 
1

>  <PUBCHEM_CACTVS_TAUTO_COUNT>  (1) 
1

>  <PUBCHEM_CONFORMER_ID>  (1) 
00006F5200000004

>  <PUBCHEM_MMFF94_ENERGY>  (1) 
6.5451

>  <PUBCHEM_FEATURE_SELFOVERLAP>  (1) 
15.223

>  <PUBCHEM_SHAPE_FINGERPRINT>  (1) 
11135609 187 18263913355519401141
11370993 70 18263077712947335676
12539773 59 16474277654857659229
13165053 103 16340646500038317388
13402501 40 18269554003917620138
13615921 28 16844738662898421323
13947920 24 18270683181580868392
14123250 116 17841442427135212753
14251757 5 18264488571502988218
14251764 38 18339642210054576698
14251764 75 18125728889807667097
14765038 42 18129120990336929641
14787075 74 18272360979793966740
14932702 115 18124891306734238972
15322535 138 18118111486029842012
20765182 40 18342166813611658520
20765182 5 18263645241900475116
21141583 151 18272373031535658354
5047190 48 16828670619098889448
526903 126 18265336110178992375

>  <PUBCHEM_SHAPE_MULTIPOLES>  (1) 
379.27
9.9
5.2
1.11
15.48
1.94
-0.52
-5.37
1.64
-2.56
-0.56
-0.28
-0.65
0.89

>  <PUBCHEM_SHAPE_SELFOVERLAP>  (1) 
707.479

>  <PUBCHEM_SHAPE_VOLUME>  (1) 
236.1

>  <PUBCHEM_COORDINATE_TYPE>  (1) 
2
5
10

$$$$
