28499
     RDKit          3D

 13 12  0  0  1  0  0  0  0  0999 V2000
    1.0733   -0.9151   -1.3527 O   0  0  0  0  0  0  0  0  0  0  0  0
    4.8580    0.8829   -0.9786 O   0  0  0  0  0  0  0  0  0  0  0  0
    3.7226    1.4822    0.8927 O   0  0  0  0  0  0  0  0  0  0  0  0
   -0.3237   -0.6910    0.6090 C   0  0  0  0  0  0  0  0  0  0  0  0
   -1.4648   -0.0311   -0.1751 C   0  0  0  0  0  0  0  0  0  0  0  0
    1.0482   -0.4090   -0.0162 C   0  0  0  0  0  0  0  0  0  0  0  0
   -2.8463   -0.2815    0.4387 C   0  0  0  0  0  0  0  0  0  0  0  0
    2.2272   -1.0363    0.7448 C   0  0  0  0  0  0  0  0  0  0  0  0
   -4.0310    0.3360   -0.3103 C   0  0  0  0  0  0  0  0  0  0  0  0
   -5.3753    0.1050    0.3803 C   0  0  0  0  0  0  0  0  0  0  0  0
    3.5935   -0.8170    0.0944 C   0  0  0  0  0  0  0  0  0  0  0  0
   -6.5148    0.7440   -0.3986 C   0  0  0  0  0  0  0  0  0  0  0  0
    4.0328    0.6308    0.0715 C   0  0  0  0  0  0  0  0  0  0  0  0
  1  6  1  0
  2 13  1  0
  3 13  2  0
  4  5  1  0
  4  6  1  0
  5  7  1  0
  6  8  1  0
  7  9  1  0
  8 11  1  0
  9 10  1  0
 10 12  1  0
 11 13  1  0
M  END
>  <PUBCHEM_COMPOUND_CID>  (1) 
28499

>  <PUBCHEM_CONFORMER_RMSD>  (1) 
0.8

>  <PUBCHEM_CONFORMER_DIVERSEORDER>  (1) 
1
172
20
110
291
47
238
191
32
226
263
254
260
206
288
150
76
15
274
58
31
208
2
6
86
187
164
157
103
297
294
64
160
123
194
222
146
277
161
210
216
34
217
167
38
9
44
247
276
198
270
78
101
112
171
190
51
54
256
62
248
168
88
25
162
11
235
228
87
285
282
214
23
165
265
278
215
73
27
280
273
41
209
233
8
18
221
16
239
230
219
59
72
69
74
268
13
196
143
199
286
249
292
242
134
264
258
203
36
200
120
153
279
5
271
231
155
140
19
223
197
49
77
4
236
3
114
116
81
29
255
227
89
85
130
237
259
156
175
40
92
106
148
91
68
261
124
159
181
147
290
24
135
67
109
98
246
185
42
154
287
137
61
17
207
84
170
122
252
169
204
79
262
70
53
94
298
46
178
138
295
158
121
269
201
33
182
14
66
272
299
173
55
97
186
149
251
234
26
243
224
267
57
179
177
152
28
213
266
7
184
284
10
244
281
257
35
133
100
250
174
218
52
189
253
205
111
50
75
240
241
232
12
275
65
126
212
211
93
131
71
163
30
142
22
188
192
82
48
102
63
151
145
83
195
176
245
136
183
115
141
107
21
220
180
43
289
90
45
229
128
202
80
293
144
166
37
118
125
39
104
225
119
127
129
60
296
193
283
108
96
95
56
117
99
113
132
105
139

>  <PUBCHEM_MMFF94_PARTIAL_CHARGES>  (1) 
8
1 -0.68
11 0.06
13 0.66
2 -0.65
29 0.4
3 -0.57
33 0.5
6 0.28

>  <PUBCHEM_EFFECTIVE_ROTOR_COUNT>  (1) 
8

>  <PUBCHEM_PHARMACOPHORE_FEATURES>  (1) 
7
1 1 acceptor
1 1 donor
1 12 hydrophobe
1 2 acceptor
1 3 acceptor
3 2 3 13 anion
5 4 5 7 9 10 hydrophobe

>  <PUBCHEM_HEAVY_ATOM_COUNT>  (1) 
13

>  <PUBCHEM_ATOM_DEF_STEREO_COUNT>  (1) 
0

>  <PUBCHEM_ATOM_UDEF_STEREO_COUNT>  (1) 
1

>  <PUBCHEM_BOND_DEF_STEREO_COUNT>  (1) 
0

>  <PUBCHEM_BOND_UDEF_STEREO_COUNT>  (1) 
0

>  <PUBCHEM_ISOTOPIC_ATOM_COUNT>  (1) 
0

>  <PUBCHEM_COMPONENT_COUNT>  (1) 
1

>  <PUBCHEM_CACTVS_TAUTO_COUNT>  (1) 
1

>  <PUBCHEM_CONFORMER_ID>  (1) 
00006F5300000001

>  <PUBCHEM_MMFF94_ENERGY>  (1) 
6.7573

>  <PUBCHEM_FEATURE_SELFOVERLAP>  (1) 
35.58

>  <PUBCHEM_SHAPE_FINGERPRINT>  (1) 
11287383 113 18342176683109102195
11401426 45 17313104146969900883
117890 112 18259984851743296053
12596602 18 15719396148327461049
12714333 28 18060416923795647273
13533116 47 17896032161637154899
14123238 8 18343300358322891267
14251718 22 18272930540646204367
14251732 16 18336828701743904835
14252887 29 14273449250257390832
17834072 33 18060413634378160671
17834076 25 18186521003233090747
20605781 2 18334294287948450792
20621476 8 12751244684599886683
20645477 56 18186521012471949779
20645477 70 18201441307334865286
20767249 213 18040716974546243045
212847 35 18334574646766375616
23402539 116 14056717964014353067
270888 7 18119812667295438172
300161 21 18259978276259155195
4047638 21 18333732412053377730
42 15 10881398733801749403
42788 4 18333731295741513387
449060 50 17749107789923867415
449060 62 18335140895217607426
4990 188 13039189207989915817
522135 26 17917992759197614314
5374978 207 16008744706260667020
542803 24 18131633366222319835
59345606 91 18408885135802961657

>  <PUBCHEM_SHAPE_MULTIPOLES>  (1) 
249.93
13.79
1.11
0.92
14.56
0.09
0.11
5.19
0.13
-1.05
-0.1
-0.52
0.03
0.26

>  <PUBCHEM_SHAPE_SELFOVERLAP>  (1) 
457.146

>  <PUBCHEM_SHAPE_VOLUME>  (1) 
158.6

>  <PUBCHEM_COORDINATE_TYPE>  (1) 
2
5
10

$$$$
