28506
     RDKit          3D

 16 17  0  0  0  0  0  0  0  0999 V2000
   -1.6667    1.8310   -0.0230 O   0  0  0  0  0  0  0  0  0  0  0  0
   -0.2431   -2.5046   -0.1065 N   0  0  0  0  0  0  0  0  0  0  0  0
    4.3374    2.3930    0.1126 N   0  0  0  0  0  0  0  0  0  0  0  0
   -3.5513    0.3603   -0.1141 C   0  0  0  0  0  0  0  0  0  0  0  0
   -1.0667   -0.4436   -0.0780 C   0  0  0  0  0  0  0  0  0  0  0  0
    0.3532   -0.3557   -0.0433 C   0  0  0  0  0  0  0  0  0  0  0  0
   -2.0209    0.6288   -0.0742 C   0  0  0  0  0  0  0  0  0  0  0  0
    0.8452   -1.6626   -0.0621 C   0  0  0  0  0  0  0  0  0  0  0  0
   -1.4029   -1.7772   -0.1165 C   0  0  0  0  0  0  0  0  0  0  0  0
   -4.0911    0.2442    1.3083 C   0  0  0  0  0  0  0  0  0  0  0  0
   -4.2993    1.4540   -0.8791 C   0  0  0  0  0  0  0  0  0  0  0  0
    1.2698    0.7134    0.0025 C   0  0  0  0  0  0  0  0  0  0  0  0
    2.2135   -1.9549   -0.0371 C   0  0  0  0  0  0  0  0  0  0  0  0
    2.6415    0.4361    0.0277 C   0  0  0  0  0  0  0  0  0  0  0  0
    3.1038   -0.8783    0.0082 C   0  0  0  0  0  0  0  0  0  0  0  0
    3.5775    1.5161    0.0746 C   0  0  0  0  0  0  0  0  0  0  0  0
  1  7  2  0
  2  8  1  0
  2  9  1  0
  3 16  3  0
  4  7  1  0
  4 10  1  0
  4 11  1  0
  5  6  1  0
  5  7  1  0
  5  9  2  0
  6  8  2  0
  6 12  1  0
  8 13  1  0
 12 14  2  0
 13 15  2  0
 14 15  1  0
 14 16  1  0
M  END
>  <PUBCHEM_COMPOUND_CID>  (1) 
28506

>  <PUBCHEM_CONFORMER_RMSD>  (1) 
0.6

>  <PUBCHEM_CONFORMER_DIVERSEORDER>  (1) 
1
7
4
8
3
2
5
6

>  <PUBCHEM_MMFF94_PARTIAL_CHARGES>  (1) 
18
1 -0.57
12 -0.15
13 -0.15
14 0.07
15 -0.15
16 0.48
18 0.15
19 0.27
2 0.03
26 0.15
27 0.15
28 0.15
3 -0.56
4 0.06
5 -0.09
7 0.6
8 -0.15
9 -0.3

>  <PUBCHEM_EFFECTIVE_ROTOR_COUNT>  (1) 
2

>  <PUBCHEM_PHARMACOPHORE_FEATURES>  (1) 
7
1 1 acceptor
1 2 cation
1 2 donor
1 3 acceptor
3 4 10 11 hydrophobe
5 2 5 6 8 9 rings
6 6 8 12 13 14 15 rings

>  <PUBCHEM_HEAVY_ATOM_COUNT>  (1) 
16

>  <PUBCHEM_ATOM_DEF_STEREO_COUNT>  (1) 
0

>  <PUBCHEM_ATOM_UDEF_STEREO_COUNT>  (1) 
0

>  <PUBCHEM_BOND_DEF_STEREO_COUNT>  (1) 
0

>  <PUBCHEM_BOND_UDEF_STEREO_COUNT>  (1) 
0

>  <PUBCHEM_ISOTOPIC_ATOM_COUNT>  (1) 
0

>  <PUBCHEM_COMPONENT_COUNT>  (1) 
1

>  <PUBCHEM_CACTVS_TAUTO_COUNT>  (1) 
5

>  <PUBCHEM_CONFORMER_ID>  (1) 
00006F5A00000001

>  <PUBCHEM_MMFF94_ENERGY>  (1) 
26.399

>  <PUBCHEM_FEATURE_SELFOVERLAP>  (1) 
35.612

>  <PUBCHEM_SHAPE_FINGERPRINT>  (1) 
10411042 1 17402329274513901263
10498660 4 18411135865695335501
10608611 8 18263079933677672493
10681291 71 18338811112160018252
10967382 1 18411136926815741652
11471102 20 18339357440252316095
11543360 7 15410607133597199489
12390115 104 18053119581561449328
12403259 415 18261116236154570821
12507560 40 18114185232922088705
12644460 14 18261396611762033394
13140716 1 18409171004067538418
13380535 21 18340493356191814802
13380535 76 18412259545272884478
13583140 156 16733247045644218213
14026960 21 18335425651232944505
14123255 52 18410007771213204748
14250199 8 18198903608959600407
14897335 6 18411976987943043422
15196674 1 18410854365228064447
15219456 202 18261397702651882675
15309172 13 18411986827992803899
15775835 57 18343304790069835728
16945 1 18267866086102481430
1741750 31 18271807990280953362
17834072 32 18266180728578448620
1798214 55 18411698833224349104
18175812 5 18041283154156945535
18186145 218 18272939280092216479
200 152 18057873659544349605
204376 136 18411139160161727897
20510252 161 18197503028540502474
20645477 56 18337954601286984292
20645477 70 18268985385108541311
21499 59 18412538812752098983
21501502 16 18341042012531206214
21524375 3 18343295964049393830
22854114 111 18409167675451481270
23402655 69 18272644606897426165
23557571 272 17913783966067289358
23559900 14 18265891350302627338
25 1 18272371988069283704
2748010 2 18338247032313875470
474 4 18412260606034575321
5104073 3 18334017155668863505
6333272 397 18409729551631430168
633830 44 17987810605063140517
7364860 26 18342177722580936542

>  <PUBCHEM_SHAPE_MULTIPOLES>  (1) 
313.44
7.7
2.44
0.77
2.21
0.29
0.1
-5.09
0.41
-1.66
-0.14
0.68
-0.08
0.4

>  <PUBCHEM_SHAPE_SELFOVERLAP>  (1) 
676.205

>  <PUBCHEM_SHAPE_VOLUME>  (1) 
172.6

>  <PUBCHEM_COORDINATE_TYPE>  (1) 
2
5
10

$$$$
