28508
     RDKit          3D

 20 22  0  0  0  0  0  0  0  0999 V2000
    0.8674    0.8800    0.0391 O   0  0  0  0  0  0  0  0  0  0  0  0
   -1.9360   -2.7228   -0.0064 N   0  0  0  0  0  0  0  0  0  0  0  0
   -4.6027    3.4338   -0.0048 N   0  0  0  0  0  0  0  0  0  0  0  0
   -1.7748   -0.4978    0.0059 C   0  0  0  0  0  0  0  0  0  0  0  0
   -0.4672   -1.0588    0.0165 C   0  0  0  0  0  0  0  0  0  0  0  0
   -2.6778   -1.5631   -0.0083 C   0  0  0  0  0  0  0  0  0  0  0  0
    0.7922   -0.3701    0.0314 C   0  0  0  0  0  0  0  0  0  0  0  0
    2.1142   -1.1677    0.0395 C   0  0  0  0  0  0  0  0  0  0  0  0
   -0.5991   -2.4283    0.0086 C   0  0  0  0  0  0  0  0  0  0  0  0
   -2.2786    0.8182    0.0070 C   0  0  0  0  0  0  0  0  0  0  0  0
    3.3614   -0.3190    0.0124 C   0  0  0  0  0  0  0  0  0  0  0  0
   -4.0648   -1.3775   -0.0217 C   0  0  0  0  0  0  0  0  0  0  0  0
   -3.6637    1.0191   -0.0060 C   0  0  0  0  0  0  0  0  0  0  0  0
   -4.5412   -0.0633   -0.0202 C   0  0  0  0  0  0  0  0  0  0  0  0
    3.9149    0.0377   -1.2076 C   0  0  0  0  0  0  0  0  0  0  0  0
    3.9321    0.0898    1.2079 C   0  0  0  0  0  0  0  0  0  0  0  0
    5.0678    0.8224   -1.2328 C   0  0  0  0  0  0  0  0  0  0  0  0
    5.0850    0.8747    1.1826 C   0  0  0  0  0  0  0  0  0  0  0  0
    5.6528    1.2410   -0.0378 C   0  0  0  0  0  0  0  0  0  0  0  0
   -4.1820    2.3517   -0.0054 C   0  0  0  0  0  0  0  0  0  0  0  0
  1  7  2  0
  2  6  1  0
  2  9  1  0
  3 20  3  0
  4  5  1  0
  4  6  2  0
  4 10  1  0
  5  7  1  0
  5  9  2  0
  6 12  1  0
  7  8  1  0
  8 11  1  0
 10 13  2  0
 11 15  2  0
 11 16  1  0
 12 14  2  0
 13 14  1  0
 13 20  1  0
 15 17  1  0
 16 18  2  0
 17 19  2  0
 18 19  1  0
M  END
>  <PUBCHEM_COMPOUND_CID>  (1) 
28508

>  <PUBCHEM_CONFORMER_RMSD>  (1) 
0.6

>  <PUBCHEM_CONFORMER_DIVERSEORDER>  (1) 
1
19
27
41
28
32
25
29
34
3
33
8
20
9
14
15
24
23
10
2
40
6
17
39
4
35
38
31
22
26
16
5
43
18
42
11
37
21
12
30
36
7
13

>  <PUBCHEM_MMFF94_PARTIAL_CHARGES>  (1) 
29
1 -0.57
10 -0.15
11 -0.14
12 -0.15
13 0.07
14 -0.15
15 -0.15
16 -0.15
17 -0.15
18 -0.15
19 -0.15
2 0.03
20 0.48
23 0.15
24 0.27
25 0.15
26 0.15
27 0.15
28 0.15
29 0.15
3 -0.56
30 0.15
31 0.15
32 0.15
5 -0.09
6 -0.15
7 0.6
8 0.2
9 -0.3

>  <PUBCHEM_EFFECTIVE_ROTOR_COUNT>  (1) 
3

>  <PUBCHEM_PHARMACOPHORE_FEATURES>  (1) 
7
1 1 acceptor
1 2 cation
1 2 donor
1 3 acceptor
5 2 4 5 6 9 rings
6 11 15 16 17 18 19 rings
6 4 6 10 12 13 14 rings

>  <PUBCHEM_HEAVY_ATOM_COUNT>  (1) 
20

>  <PUBCHEM_ATOM_DEF_STEREO_COUNT>  (1) 
0

>  <PUBCHEM_ATOM_UDEF_STEREO_COUNT>  (1) 
0

>  <PUBCHEM_BOND_DEF_STEREO_COUNT>  (1) 
0

>  <PUBCHEM_BOND_UDEF_STEREO_COUNT>  (1) 
0

>  <PUBCHEM_ISOTOPIC_ATOM_COUNT>  (1) 
0

>  <PUBCHEM_COMPONENT_COUNT>  (1) 
1

>  <PUBCHEM_CACTVS_TAUTO_COUNT>  (1) 
5

>  <PUBCHEM_CONFORMER_ID>  (1) 
00006F5C00000001

>  <PUBCHEM_MMFF94_ENERGY>  (1) 
40.4947

>  <PUBCHEM_FEATURE_SELFOVERLAP>  (1) 
35.612

>  <PUBCHEM_SHAPE_FINGERPRINT>  (1) 
10319926 262 18269535253034684706
10411042 1 17834114522109473547
10498660 4 18272373049068871240
10615611 76 17532111495039007757
10670039 82 18261966171712360436
10912923 1 17603863442530217034
11056379 131 18266184005137439598
12107183 9 17973995168440650690
12173636 292 18411132524448188703
12236239 1 17749103435354504530
12390115 104 18271819973450946241
12403259 415 18271815587677329134
12403814 3 17385717006573713567
12596602 18 17167580518288962185
12788726 201 17318184075116306090
12916748 109 18410016558689775699
12969540 114 16988839488630051326
13073987 5 18334855026299774010
14251764 75 17839188403283907713
14341114 328 17675922123310889410
14508225 48 17840008969701891279
14573314 32 18059862770309684188
14739800 52 18267283465847360512
14790565 3 18124320402401340785
15042514 8 18194124251385167387
15196674 1 18410855421478997235
15375358 24 18202565107397942590
1601671 61 18409450280569346676
16079462 125 17632286917899585544
17834072 32 18337956692714537381
17844677 252 18339930415150010152
200 152 14261360158506943082
20645477 56 18272655679106980147
20645477 70 16630540522586230526
21033648 29 17774992518650928880
21033650 10 18263669345219821910
21279426 13 18200599086175870174
21421861 104 17750502980760649810
22122407 14 15936411135062774197
23402539 116 18340760550550076663
23557571 272 18271538566935028708
23559900 14 18129095796074699208
268830 7 17386001815004396876
283562 15 18410290329376463331
2916195 48 18272644666858280144
3004659 81 18409732834031338806
341906 21 18411694392217265024
34797466 226 17845664775588655396
350125 39 18410295830981363713
3545911 37 18343306985236097278
4214541 1 18410855481914286608
474 4 17241049915680317342
495365 180 17489296448446130622
5104073 3 18261393295651804691
5283173 99 18343303656483644136
542803 24 17894630392107571022
573450 72 18260818341623499650
59682541 35 18335152969262766561
6327066 14 18190454975003821013
633830 44 18268424629699032383
7064713 232 18334013861028423204
7808743 9 18409728422493206145
9981440 41 18334579019085775195

>  <PUBCHEM_SHAPE_MULTIPOLES>  (1) 
395.76
12.78
2.61
0.91
8.84
0.78
-0.01
7.59
-0.14
-4.41
0
1.37
0.12
0

>  <PUBCHEM_SHAPE_SELFOVERLAP>  (1) 
875.722

>  <PUBCHEM_SHAPE_VOLUME>  (1) 
210.4

>  <PUBCHEM_COORDINATE_TYPE>  (1) 
2
5
10

$$$$
