28507
     RDKit          3D

 19 21  0  0  0  0  0  0  0  0999 V2000
    1.4678    0.6801   -2.3010 O   0  0  0  0  0  0  0  0  0  0  0  0
   -1.1744    2.7241    0.5134 N   0  0  0  0  0  0  0  0  0  0  0  0
   -3.9235   -3.3323   -0.3687 N   0  0  0  0  0  0  0  0  0  0  0  0
   -1.1087    0.6040   -0.1779 C   0  0  0  0  0  0  0  0  0  0  0  0
    0.1445    1.2209   -0.4497 C   0  0  0  0  0  0  0  0  0  0  0  0
   -1.9179    1.5687    0.4263 C   0  0  0  0  0  0  0  0  0  0  0  0
    0.0731    2.5238   -0.0134 C   0  0  0  0  0  0  0  0  0  0  0  0
   -1.6339   -0.6864   -0.3885 C   0  0  0  0  0  0  0  0  0  0  0  0
    1.3042    0.6382   -1.0629 C   0  0  0  0  0  0  0  0  0  0  0  0
   -3.2312    1.3063    0.8322 C   0  0  0  0  0  0  0  0  0  0  0  0
    2.3868   -0.0515   -0.2785 C   0  0  0  0  0  0  0  0  0  0  0  0
   -2.9461   -0.9633    0.0122 C   0  0  0  0  0  0  0  0  0  0  0  0
   -3.7306    0.0192    0.6131 C   0  0  0  0  0  0  0  0  0  0  0  0
    2.2532   -0.1240    1.0836 C   0  0  0  0  0  0  0  0  0  0  0  0
    3.4520   -0.5729   -0.9655 C   0  0  0  0  0  0  0  0  0  0  0  0
    3.2568   -0.7637    1.8109 C   0  0  0  0  0  0  0  0  0  0  0  0
    4.4556   -1.2126   -0.2380 C   0  0  0  0  0  0  0  0  0  0  0  0
    4.3579   -1.3080    1.1502 C   0  0  0  0  0  0  0  0  0  0  0  0
   -3.4855   -2.2707   -0.1979 C   0  0  0  0  0  0  0  0  0  0  0  0
  1  9  2  0
  2  6  1  0
  2  7  1  0
  3 19  3  0
  4  5  1  0
  4  6  2  0
  4  8  1  0
  5  7  2  0
  5  9  1  0
  6 10  1  0
  8 12  2  0
  9 11  1  0
 10 13  2  0
 11 14  2  0
 11 15  1  0
 12 13  1  0
 12 19  1  0
 14 16  1  0
 15 17  2  0
 16 18  2  0
 17 18  1  0
M  END
>  <PUBCHEM_COMPOUND_CID>  (1) 
28507

>  <PUBCHEM_CONFORMER_RMSD>  (1) 
0.6

>  <PUBCHEM_CONFORMER_DIVERSEORDER>  (1) 
2
4
1
3

>  <PUBCHEM_MMFF94_PARTIAL_CHARGES>  (1) 
28
1 -0.57
10 -0.15
11 0.09
12 0.07
13 -0.15
14 -0.15
15 -0.15
16 -0.15
17 -0.15
18 -0.15
19 0.48
2 0.03
20 0.15
21 0.27
22 0.15
23 0.15
24 0.15
25 0.15
26 0.15
27 0.15
28 0.15
29 0.15
3 -0.56
5 -0.09
6 -0.15
7 -0.3
8 -0.15
9 0.57

>  <PUBCHEM_EFFECTIVE_ROTOR_COUNT>  (1) 
2

>  <PUBCHEM_PHARMACOPHORE_FEATURES>  (1) 
7
1 1 acceptor
1 2 cation
1 2 donor
1 3 acceptor
5 2 4 5 6 7 rings
6 11 14 15 16 17 18 rings
6 4 6 8 10 12 13 rings

>  <PUBCHEM_HEAVY_ATOM_COUNT>  (1) 
19

>  <PUBCHEM_ATOM_DEF_STEREO_COUNT>  (1) 
0

>  <PUBCHEM_ATOM_UDEF_STEREO_COUNT>  (1) 
0

>  <PUBCHEM_BOND_DEF_STEREO_COUNT>  (1) 
0

>  <PUBCHEM_BOND_UDEF_STEREO_COUNT>  (1) 
0

>  <PUBCHEM_ISOTOPIC_ATOM_COUNT>  (1) 
0

>  <PUBCHEM_COMPONENT_COUNT>  (1) 
1

>  <PUBCHEM_CACTVS_TAUTO_COUNT>  (1) 
3

>  <PUBCHEM_CONFORMER_ID>  (1) 
00006F5B00000002

>  <PUBCHEM_MMFF94_ENERGY>  (1) 
50.4735

>  <PUBCHEM_FEATURE_SELFOVERLAP>  (1) 
35.612

>  <PUBCHEM_SHAPE_FINGERPRINT>  (1) 
10062212 137 18259989262548011243
10366900 7 17703219603651111996
11046707 91 18335417937492760402
11370993 144 16988288560168999522
11552529 35 17632289103289203179
11578080 2 17896019044918296564
12236239 1 17895486821239264692
12346177 29 18341603798769516967
12363563 72 18340769355174991399
12553582 1 18408044017702423995
12633257 1 17775006756235283256
12670545 47 17131827651449372828
12824470 246 18188205506866253391
13083527 12 17485624264139517189
13140716 1 18272658986701290153
13828863 39 15910494709640391282
13911987 19 15142971671871526382
14081887 123 18200024041151659114
14178342 30 18059308590790582211
14251764 38 11741078245804701587
14787075 74 18190183575935730324
15375462 189 18187092766480691000
15653759 3 17774717555050340800
16752209 62 18189888734746267053
1813 80 17604724252671166070
18186145 218 12685091454010489884
19049666 15 17056690175149992876
200 152 16588309328745352952
20291156 8 18333732428932508018
20361792 2 17167865214628313980
20600515 1 18201446839316078241
20645477 70 15140966102463978498
212916 134 17914059694615713337
21421861 104 18051697947296296075
21452121 199 18267580402321441385
21452121 71 18335422412658941369
21650355 55 18341890758187804169
21713013 43 14851900165635484035
22112679 90 18189352211431414100
22646028 28 18260550021741141826
23184049 29 18340486793666246961
232386 152 18409736157333478925
23366157 5 18118690061079761861
23503958 8 18340765949287076826
23557571 272 17988933227719934661
23559900 14 18129392509953877540
25222932 49 17188979458698170199
2838139 119 14116398205023251145
58807428 26 17909846340303764745
5902787 121 18341336685942196565
602551 16 18342457002676482114
633830 44 12391517520352132384
77492 1 17895489020262611308
7970288 3 18338797930579307127
90316 7 18338519625351238361

>  <PUBCHEM_SHAPE_MULTIPOLES>  (1) 
375.18
8.33
2.67
1.35
2.98
0.54
0.14
6.12
-1.67
-3.28
0.03
1.3
-0.04
-1.17

>  <PUBCHEM_SHAPE_SELFOVERLAP>  (1) 
840.442

>  <PUBCHEM_SHAPE_VOLUME>  (1) 
197.7

>  <PUBCHEM_COORDINATE_TYPE>  (1) 
2
5
10

$$$$
