28510
     RDKit          3D

 18 20  0  0  0  0  0  0  0  0999 V2000
    0.8961   -2.7898   -0.4202 N   0  0  0  0  0  0  0  0  0  0  0  0
    3.9238    3.1563    0.2822 N   0  0  0  0  0  0  0  0  0  0  0  0
   -0.2690   -1.2643    0.6944 C   0  0  0  0  0  0  0  0  0  0  0  0
    0.9711   -0.6827    0.3090 C   0  0  0  0  0  0  0  0  0  0  0  0
   -1.3504   -0.6056    1.4546 C   0  0  0  0  0  0  0  0  0  0  0  0
    1.6832   -1.6607   -0.3889 C   0  0  0  0  0  0  0  0  0  0  0  0
   -0.2856   -2.5600    0.2317 C   0  0  0  0  0  0  0  0  0  0  0  0
   -2.3825    0.1060    0.5924 C   0  0  0  0  0  0  0  0  0  0  0  0
    1.5581    0.5858    0.4873 C   0  0  0  0  0  0  0  0  0  0  0  0
    2.9580   -1.4326   -0.9192 C   0  0  0  0  0  0  0  0  0  0  0  0
    2.8326    0.8283   -0.0379 C   0  0  0  0  0  0  0  0  0  0  0  0
    3.5200   -0.1669   -0.7299 C   0  0  0  0  0  0  0  0  0  0  0  0
   -3.4901   -0.5958    0.1613 C   0  0  0  0  0  0  0  0  0  0  0  0
   -2.1809    1.4321    0.2673 C   0  0  0  0  0  0  0  0  0  0  0  0
   -4.4364    0.0564   -0.6290 C   0  0  0  0  0  0  0  0  0  0  0  0
   -3.1275    2.0843   -0.5229 C   0  0  0  0  0  0  0  0  0  0  0  0
   -4.2552    1.3963   -0.9710 C   0  0  0  0  0  0  0  0  0  0  0  0
    3.4348    2.1129    0.1388 C   0  0  0  0  0  0  0  0  0  0  0  0
  1  6  1  0
  1  7  1  0
  2 18  3  0
  3  4  1  0
  3  5  1  0
  3  7  2  0
  4  6  2  0
  4  9  1  0
  5  8  1  0
  6 10  1  0
  8 13  2  0
  8 14  1  0
  9 11  2  0
 10 12  2  0
 11 12  1  0
 11 18  1  0
 13 15  1  0
 14 16  2  0
 15 17  2  0
 16 17  1  0
M  END
>  <PUBCHEM_COMPOUND_CID>  (1) 
28510

>  <PUBCHEM_CONFORMER_RMSD>  (1) 
0.6

>  <PUBCHEM_CONFORMER_DIVERSEORDER>  (1) 
1
6
4
7
3
8
5
2

>  <PUBCHEM_MMFF94_PARTIAL_CHARGES>  (1) 
27
1 0.03
10 -0.15
11 0.07
12 -0.15
13 -0.15
14 -0.15
15 -0.15
16 -0.15
17 -0.15
18 0.48
2 -0.56
21 0.15
22 0.27
23 0.15
24 0.15
25 0.15
26 0.15
27 0.15
28 0.15
29 0.15
3 -0.18
30 0.15
5 0.32
6 -0.15
7 -0.3
8 -0.14
9 -0.15

>  <PUBCHEM_EFFECTIVE_ROTOR_COUNT>  (1) 
2

>  <PUBCHEM_PHARMACOPHORE_FEATURES>  (1) 
6
1 1 cation
1 1 donor
1 2 acceptor
5 1 3 4 6 7 rings
6 4 6 9 10 11 12 rings
6 8 13 14 15 16 17 rings

>  <PUBCHEM_HEAVY_ATOM_COUNT>  (1) 
18

>  <PUBCHEM_ATOM_DEF_STEREO_COUNT>  (1) 
0

>  <PUBCHEM_ATOM_UDEF_STEREO_COUNT>  (1) 
0

>  <PUBCHEM_BOND_DEF_STEREO_COUNT>  (1) 
0

>  <PUBCHEM_BOND_UDEF_STEREO_COUNT>  (1) 
0

>  <PUBCHEM_ISOTOPIC_ATOM_COUNT>  (1) 
0

>  <PUBCHEM_COMPONENT_COUNT>  (1) 
1

>  <PUBCHEM_CACTVS_TAUTO_COUNT>  (1) 
1

>  <PUBCHEM_CONFORMER_ID>  (1) 
00006F5E00000001

>  <PUBCHEM_MMFF94_ENERGY>  (1) 
38.1323

>  <PUBCHEM_FEATURE_SELFOVERLAP>  (1) 
30.538

>  <PUBCHEM_SHAPE_FINGERPRINT>  (1) 
10498660 4 18260824874252984493
10608611 8 18408327678606257817
10646746 165 18260268538068754620
10871710 139 16677828631637047020
11370993 70 18409725200924875092
11725454 13 17968644008134684161
11759241 127 18336538413056394741
12403259 415 18335995236736777912
12403260 363 18411693266772257674
12670546 177 18131351933799929383
12730499 353 18262808367670431923
12892183 10 10953753187674235071
13103583 49 11170461375957993493
13134695 92 17975406919758942222
13464514 151 18045792182121922139
13583140 156 17894916264930294626
14250199 8 18269275664652040353
14251764 38 18409725153791368600
14466204 15 18191014604835986042
14957384 54 18188758587306835568
17134986 127 18410571786439639870
1813 80 13758353384287665179
18186145 218 18271818886296634538
20361792 2 15194985112873266451
21524375 3 18261111855003196154
21639500 275 18341337686511288594
22096605 113 18411136909556718811
22182313 1 18194422171411248626
22892500 29 18336547105991190894
23227448 37 18195244648841999565
23402655 69 18270401581569836837
23557571 272 17677071108714804299
23559900 14 18267016167898635026
238 59 18342736278096771575
25 1 18192442878381814795
2748010 2 18196113216100079650
3060560 45 18269834229254293118
345986 75 16593912289703532250
351380 180 18335697226373302496
4028521 119 18187644657441782493
4280585 95 17122273771404125998
43658 37 18411414042131712449
4371632 12 13322337882607852736
474 4 18410571773327995153
5262128 65 17772485485867994631
5281201 14 18341338773290774671
6327066 14 18192424397454720468
633830 44 17916889952960507905
7832392 63 17693381036124854977
84936 182 18044092350230736075
9981440 41 18262511610540667202

>  <PUBCHEM_SHAPE_MULTIPOLES>  (1) 
360.47
8.12
2.97
0.99
3.28
0.51
-0.06
5.2
2.18
-2.29
0.09
0.26
-0.1
1.15

>  <PUBCHEM_SHAPE_SELFOVERLAP>  (1) 
799.93

>  <PUBCHEM_SHAPE_VOLUME>  (1) 
192.7

>  <PUBCHEM_COORDINATE_TYPE>  (1) 
2
5
10

$$$$
