28519
     RDKit          3D

 38 41  0  0  0  0  0  0  0  0999 V2000
   -2.9932   -0.3611    2.2725 S   0  0  0  0  0  0  0  0  0  0  0  0
    2.9931   -0.3610   -2.2725 S   0  0  0  0  0  0  0  0  0  0  0  0
   -3.8176   -1.1176    1.0770 O   0  0  0  0  0  0  0  0  0  0  0  0
    3.8176   -1.1176   -1.0771 O   0  0  0  0  0  0  0  0  0  0  0  0
   -1.8279   -1.1625    2.6190 O   0  0  0  0  0  0  0  0  0  0  0  0
   -3.9574    0.0372    3.2899 O   0  0  0  0  0  0  0  0  0  0  0  0
    1.8280   -1.1624   -2.6190 O   0  0  0  0  0  0  0  0  0  0  0  0
    3.9574    0.0373   -3.2899 O   0  0  0  0  0  0  0  0  0  0  0  0
   -4.7036    0.7636   -2.4468 O   0  0  0  0  0  0  0  0  0  0  0  0
    4.7036    0.7634    2.4468 O   0  0  0  0  0  0  0  0  0  0  0  0
   -5.7284    0.0051   -0.5650 O   0  0  0  0  0  0  0  0  0  0  0  0
    5.7284    0.0052    0.5650 O   0  0  0  0  0  0  0  0  0  0  0  0
   -0.6483    2.2635    0.3212 C   0  0  0  0  0  0  0  0  0  0  0  0
    0.6484    2.2634   -0.3212 C   0  0  0  0  0  0  0  0  0  0  0  0
   -2.3836    1.0983    1.5329 C   0  0  0  0  0  0  0  0  0  0  0  0
    2.3836    1.0984   -1.5328 C   0  0  0  0  0  0  0  0  0  0  0  0
   -1.1344    1.0973    0.9124 C   0  0  0  0  0  0  0  0  0  0  0  0
    1.1343    1.0973   -0.9125 C   0  0  0  0  0  0  0  0  0  0  0  0
   -1.4115    3.4306    0.3503 C   0  0  0  0  0  0  0  0  0  0  0  0
    1.4116    3.4306   -0.3502 C   0  0  0  0  0  0  0  0  0  0  0  0
   -3.1470    2.2654    1.5618 C   0  0  0  0  0  0  0  0  0  0  0  0
    3.1469    2.2654   -1.5618 C   0  0  0  0  0  0  0  0  0  0  0  0
   -2.6609    3.4315    0.9706 C   0  0  0  0  0  0  0  0  0  0  0  0
    2.6609    3.4316   -0.9705 C   0  0  0  0  0  0  0  0  0  0  0  0
   -3.2458   -1.5239   -0.1041 C   0  0  0  0  0  0  0  0  0  0  0  0
    3.2458   -1.5240    0.1041 C   0  0  0  0  0  0  0  0  0  0  0  0
   -3.7066   -1.0290   -1.3177 C   0  0  0  0  0  0  0  0  0  0  0  0
    3.7066   -1.0290    1.3177 C   0  0  0  0  0  0  0  0  0  0  0  0
   -2.2000   -2.4380   -0.0601 C   0  0  0  0  0  0  0  0  0  0  0  0
    2.2000   -2.4380    0.0600 C   0  0  0  0  0  0  0  0  0  0  0  0
   -3.1125   -1.4544   -2.5059 C   0  0  0  0  0  0  0  0  0  0  0  0
    3.1125   -1.4545    2.5058 C   0  0  0  0  0  0  0  0  0  0  0  0
   -1.6061   -2.8635   -1.2482 C   0  0  0  0  0  0  0  0  0  0  0  0
    1.6061   -2.8635    1.2481 C   0  0  0  0  0  0  0  0  0  0  0  0
   -2.0624   -2.3718   -2.4711 C   0  0  0  0  0  0  0  0  0  0  0  0
    2.0623   -2.3719    2.4711 C   0  0  0  0  0  0  0  0  0  0  0  0
   -4.8016   -0.0707   -1.3765 C   0  0  0  0  0  0  0  0  0  0  0  0
    4.8016   -0.0707    1.3765 C   0  0  0  0  0  0  0  0  0  0  0  0
  1  3  1  0
  1  5  2  0
  1  6  2  0
  1 15  1  0
  2  4  1  0
  2  7  2  0
  2  8  2  0
  2 16  1  0
  3 25  1  0
  4 26  1  0
  9 37  1  0
 10 38  1  0
 11 37  2  0
 12 38  2  0
 13 14  1  0
 13 17  2  0
 13 19  1  0
 14 18  2  0
 14 20  1  0
 15 17  1  0
 15 21  2  0
 16 18  1  0
 16 22  2  0
 19 23  2  0
 20 24  2  0
 21 23  1  0
 22 24  1  0
 25 27  2  0
 25 29  1  0
 26 28  2  0
 26 30  1  0
 27 31  1  0
 27 37  1  0
 28 32  1  0
 28 38  1  0
 29 33  2  0
 30 34  2  0
 31 35  2  0
 32 36  2  0
 33 35  1  0
 34 36  1  0
M  END
>  <PUBCHEM_COMPOUND_CID>  (1) 
28519

>  <PUBCHEM_CONFORMER_RMSD>  (1) 
1

>  <PUBCHEM_CONFORMER_DIVERSEORDER>  (1) 
1
183
41
40
106
4
258
68
197
165
27
211
14
254
66
8
82
25
169
39
23
12
35
237
268
3
271
249
33
74
144
5
172
138
70
18
188
80
324
201
251
185
57
219
52
6
189
321
191
293
186
2
266
155
102
263
198
202
318
192
283
304
180
36
175
319
230
224
140
229
24
159
167
16
164
290
316
281
226
326
234
227
59
96
241
161
255
212
320
29
133
270
148
267
278
13
170
69
315
214
145
216
184
299
300
137
302
81
322
274
225
317
213
222
113
314
60
65
309
32
291
210
289
64
177
154
93
310
277
111
61
120
43
285
193
308
303
204
305
284
276
246
45
143
182
294
150
292
147
158
46
228
264
259
252
295
250
121
247
297
307
261
223
207
128
257
239
287
312
72
209
195
152
75
288
221
296
151
256
131
217
282
91
127
301
323
280
11
269
298
117
242
206
38
286
20
50
200
311
142
123
95
162
118
233
116
103
166
306
124
31
77
54
245
104
174
244
220
56
176
83
205
9
100
19
275
76
235
196
187
146
273
231
149
199
62
48
203
21
132
122
86
253
240
130
265
136
89
135
313
260
232
99
10
178
153
115
119
181
108
26
156
141
208
134
30
139
7
194
190
129
125
15
179
28
42
73
105
78
215
160
55
84
173
248
17
109
110
53
22
49
112
97
94
272
107
92
126
236
47
79
168
325
218
34
171
98
243
101
87
71
163
44
67
85
114
262
37
279
157
58
88
90
51
238
63

>  <PUBCHEM_MMFF94_PARTIAL_CHARGES>  (1) 
54
1 1.49
10 -0.65
11 -0.57
12 -0.57
15 -0.01
16 -0.01
17 -0.15
18 -0.15
19 -0.15
2 1.49
20 -0.15
21 -0.15
22 -0.15
23 -0.15
24 -0.15
25 0.08
26 0.08
27 0.09
28 0.09
29 -0.15
3 -0.27
30 -0.15
31 -0.15
32 -0.15
33 -0.15
34 -0.15
35 -0.15
36 -0.15
37 0.63
38 0.63
39 0.15
4 -0.27
40 0.15
41 0.15
42 0.15
43 0.15
44 0.15
45 0.15
46 0.15
47 0.15
48 0.15
49 0.15
5 -0.65
50 0.15
51 0.15
52 0.15
53 0.15
54 0.15
55 0.5
56 0.5
6 -0.65
7 -0.65
8 -0.65
9 -0.65

>  <PUBCHEM_EFFECTIVE_ROTOR_COUNT>  (1) 
9

>  <PUBCHEM_PHARMACOPHORE_FEATURES>  (1) 
14
1 10 acceptor
1 11 acceptor
1 12 acceptor
1 5 acceptor
1 6 acceptor
1 7 acceptor
1 8 acceptor
1 9 acceptor
3 10 12 38 anion
3 9 11 37 anion
6 13 15 17 19 21 23 rings
6 14 16 18 20 22 24 rings
6 25 27 29 31 33 35 rings
6 26 28 30 32 34 36 rings

>  <PUBCHEM_HEAVY_ATOM_COUNT>  (1) 
38

>  <PUBCHEM_ATOM_DEF_STEREO_COUNT>  (1) 
0

>  <PUBCHEM_ATOM_UDEF_STEREO_COUNT>  (1) 
0

>  <PUBCHEM_BOND_DEF_STEREO_COUNT>  (1) 
0

>  <PUBCHEM_BOND_UDEF_STEREO_COUNT>  (1) 
0

>  <PUBCHEM_ISOTOPIC_ATOM_COUNT>  (1) 
0

>  <PUBCHEM_COMPONENT_COUNT>  (1) 
1

>  <PUBCHEM_CACTVS_TAUTO_COUNT>  (1) 
1

>  <PUBCHEM_CONFORMER_ID>  (1) 
00006F6700000001

>  <PUBCHEM_MMFF94_ENERGY>  (1) 
107.7649

>  <PUBCHEM_FEATURE_SELFOVERLAP>  (1) 
71.203

>  <PUBCHEM_SHAPE_FINGERPRINT>  (1) 
10032420 55 17607564394047542900
11007060 377 17684651322471664180
12422481 6 18056214471013056201
12553582 1 18338536186617952873
12788726 201 18202005430347004093
14251757 17 15719939233787658134
14840074 17 18272646840560053587
15001296 14 18271539692184935165
15406563 42 16271635806126741306
15968369 153 18343027658123278649
17809404 112 18410565197691328071
19026451 147 18055340590211400815
19311894 1 17981622755570266350
19315092 285 17974267009653144631
20554085 129 15694664713715291739
20764821 26 18114742771042851931
208703 8 18337972128647780998
27425 322 15696603130739239881
3459 110 13830132810394780117
35225 105 17485346903393576302
460360 51 17458349615060125393
463206 1 18266727172586676225
5895379 119 18059023881640064478

>  <PUBCHEM_SHAPE_MULTIPOLES>  (1) 
731.03
10.11
4.19
3.33
0
2.38
0
-1.27
0
0
0
0
-1.28
-2.63

>  <PUBCHEM_SHAPE_SELFOVERLAP>  (1) 
1588.389

>  <PUBCHEM_SHAPE_VOLUME>  (1) 
397

>  <PUBCHEM_COORDINATE_TYPE>  (1) 
2
5
10

$$$$
