28513
     RDKit          3D

 15 15  0  0  1  0  0  0  0  0999 V2000
   -1.1837   -0.3578   -1.2642 O   0  0  0  0  0  0  0  0  0  0  0  0
   -1.2770    0.4691    0.9613 O   0  0  0  0  0  0  0  0  0  0  0  0
    2.5160    1.3075   -0.5178 O   0  0  0  0  0  0  0  0  0  0  0  0
    0.8587   -0.3258    0.0777 C   0  0  0  0  0  0  0  0  0  0  0  0
    2.3551    0.0023    0.0188 C   0  0  0  0  0  0  0  0  0  0  0  0
    0.2355   -0.2078   -1.3258 C   0  0  0  0  0  0  0  0  0  0  0  0
    0.1373    0.6614    1.0147 C   0  0  0  0  0  0  0  0  0  0  0  0
    0.6751   -1.7626    0.6036 C   0  0  0  0  0  0  0  0  0  0  0  0
   -1.7602    0.6036   -0.3773 C   0  0  0  0  0  0  0  0  0  0  0  0
   -3.2614    0.3718   -0.3541 C   0  0  0  0  0  0  0  0  0  0  0  0
    2.9928   -0.0670    1.3931 C   0  0  0  0  0  0  0  0  0  0  0  0
    1.3742   -2.7584   -0.2931 C   0  0  0  0  0  0  0  0  0  0  0  0
   -3.5876   -1.0337    0.1544 C   0  0  0  0  0  0  0  0  0  0  0  0
   -3.9618    1.4236    0.5082 C   0  0  0  0  0  0  0  0  0  0  0  0
    3.8870    1.6738   -0.5994 C   0  0  0  0  0  0  0  0  0  0  0  0
  1  6  1  0
  1  9  1  0
  2  7  1  0
  2  9  1  0
  3  5  1  0
  3 15  1  0
  4  5  1  0
  4  6  1  0
  4  7  1  0
  4  8  1  0
  5 11  1  0
  8 12  1  0
  9 10  1  0
 10 13  1  0
 10 14  1  0
M  END
>  <PUBCHEM_COMPOUND_CID>  (1) 
28513

>  <PUBCHEM_CONFORMER_RMSD>  (1) 
0.6

>  <PUBCHEM_CONFORMER_DIVERSEORDER>  (1) 
1
16
35
33
29
37
18
12
32
24
19
30
7
28
40
39
11
3
36
17
25
26
31
14
34
9
38
23
15
6
22
13
8
21
10
4
2
27
20
5

>  <PUBCHEM_MMFF94_PARTIAL_CHARGES>  (1) 
8
1 -0.56
15 0.28
2 -0.56
3 -0.56
5 0.28
6 0.28
7 0.28
9 0.56

>  <PUBCHEM_EFFECTIVE_ROTOR_COUNT>  (1) 
5.2

>  <PUBCHEM_PHARMACOPHORE_FEATURES>  (1) 
6
1 1 acceptor
1 12 hydrophobe
1 2 acceptor
1 3 acceptor
3 10 13 14 hydrophobe
6 1 2 4 6 7 9 rings

>  <PUBCHEM_HEAVY_ATOM_COUNT>  (1) 
15

>  <PUBCHEM_ATOM_DEF_STEREO_COUNT>  (1) 
0

>  <PUBCHEM_ATOM_UDEF_STEREO_COUNT>  (1) 
1

>  <PUBCHEM_BOND_DEF_STEREO_COUNT>  (1) 
0

>  <PUBCHEM_BOND_UDEF_STEREO_COUNT>  (1) 
0

>  <PUBCHEM_ISOTOPIC_ATOM_COUNT>  (1) 
0

>  <PUBCHEM_COMPONENT_COUNT>  (1) 
1

>  <PUBCHEM_CACTVS_TAUTO_COUNT>  (1) 
1

>  <PUBCHEM_CONFORMER_ID>  (1) 
00006F6100000001

>  <PUBCHEM_MMFF94_ENERGY>  (1) 
49.6328

>  <PUBCHEM_FEATURE_SELFOVERLAP>  (1) 
30.483

>  <PUBCHEM_SHAPE_FINGERPRINT>  (1) 
10219947 1 17531242863704427637
10465860 228 18340208466494362944
10922049 32 18339088184837357838
10980938 120 18271239435173703459
11031198 65 18413108346589704448
11132069 177 16950278546191465861
12119455 92 17822564006050022724
12423570 1 15478139288426020014
12932764 1 17489296486957898193
13380535 21 18341334414089067823
13581323 91 14418141711849703593
13760787 19 18343866610932103031
14289901 80 18410577267002318353
14943859 89 18060138786346168108
15775835 57 18413389860416650508
16945 1 17275103963513228728
18175812 5 17530685415704352258
18186145 218 18408041801483423108
19026448 5 18260824908343457009
19422 9 18343864398802529335
19786989 88 18187076247988790030
19873495 37 18059574740864967334
201361 129 18340771450965641723
20233049 118 17274816909353181313
20645476 183 18202281454598188348
20645477 70 18267579114253284967
20820808 20 18413109467845324160
21499 59 18336547208927935492
21501502 16 18270396093034317991
21524375 3 18188489198220038596
21730867 7 18334858260193811271
228727 97 17775013379222721728
23402539 116 17095793391337165599
23493267 7 17775015565598334943
23557571 272 15285912508229415551
23559900 14 18267581304000952891
25 1 18410858767543357416
276578 36 18273493455438150914
296302 2 18186241736307530541
3248919 1 18337097987223452203
449060 50 18334299743242718877
458136 41 18337404784995375154
57812782 119 14129052625711849533
633830 44 18342461443276910708
7364860 26 18269275660114642478
81228 2 17543615891754386042
81539 233 18409448068223092614
8272917 22 18338803290839650547

>  <PUBCHEM_SHAPE_MULTIPOLES>  (1) 
291.09
6.38
1.95
1.17
2.76
1.13
0.02
-2.87
0.36
-1.05
-0.13
-0.32
-0.05
-0.5

>  <PUBCHEM_SHAPE_SELFOVERLAP>  (1) 
571.955

>  <PUBCHEM_SHAPE_VOLUME>  (1) 
174.5

>  <PUBCHEM_COORDINATE_TYPE>  (1) 
2
5
10

$$$$
