28521
     RDKit          3D

 16 16  0  0  1  0  0  0  0  0999 V2000
    4.0405   -2.9547   -0.2477 O   0  0  0  0  0  0  0  0  0  0  0  0
   -0.0478    1.9913   -0.2342 C   0  0  0  0  0  0  0  0  0  0  0  0
   -0.9919    0.9365    0.3614 C   0  0  0  0  0  0  0  0  0  0  0  0
    1.3885    1.9908    0.3344 C   0  0  0  0  0  0  0  0  0  0  0  0
   -2.3763    0.9201   -0.2909 C   0  0  0  0  0  0  0  0  0  0  0  0
   -3.3412   -0.0758    0.3622 C   0  0  0  0  0  0  0  0  0  0  0  0
   -4.7390   -0.1548   -0.2601 C   0  0  0  0  0  0  0  0  0  0  0  0
    2.1021    0.6594    0.1776 C   0  0  0  0  0  0  0  0  0  0  0  0
    2.2045    3.1134   -0.3197 C   0  0  0  0  0  0  0  0  0  0  0  0
   -5.6387   -1.2031    0.3945 C   0  0  0  0  0  0  0  0  0  0  0  0
    2.5399   -0.0029    1.3077 C   0  0  0  0  0  0  0  0  0  0  0  0
    2.2939    0.1476   -1.0910 C   0  0  0  0  0  0  0  0  0  0  0  0
   -6.9801   -1.3053   -0.3150 C   0  0  0  0  0  0  0  0  0  0  0  0
    3.1957   -1.2255    1.1636 C   0  0  0  0  0  0  0  0  0  0  0  0
    2.9495   -1.0751   -1.2352 C   0  0  0  0  0  0  0  0  0  0  0  0
    3.4004   -1.7618   -0.1078 C   0  0  0  0  0  0  0  0  0  0  0  0
  1 16  1  0
  2  3  1  0
  2  4  1  0
  3  5  1  0
  4  8  1  0
  4  9  1  0
  5  6  1  0
  6  7  1  0
  7 10  1  0
  8 11  2  0
  8 12  1  0
 10 13  1  0
 11 14  1  0
 12 15  2  0
 14 16  2  0
 15 16  1  0
M  END
>  <PUBCHEM_COMPOUND_CID>  (1) 
28521

>  <PUBCHEM_CONFORMER_RMSD>  (1) 
0.8

>  <PUBCHEM_CONFORMER_DIVERSEORDER>  (1) 
4
62
41
9
53
72
38
81
67
64
22
74
78
47
46
37
6
17
18
52
57
54
25
55
58
77
33
43
7
59
63
20
29
28
23
3
79
80
56
85
21
49
86
48
36
61
8
73
45
5
14
70
15
76
26
65
19
11
71
82
50
39
69
34
13
42
12
68
32
84
83
66
60
44
75
27
16
51
31
2
10
40
87
24
35
1
30

>  <PUBCHEM_MMFF94_PARTIAL_CHARGES>  (1) 
13
1 -0.53
11 -0.15
12 -0.15
14 -0.15
15 -0.15
16 0.08
33 0.15
34 0.15
38 0.15
39 0.15
4 0.14
40 0.45
8 -0.14

>  <PUBCHEM_EFFECTIVE_ROTOR_COUNT>  (1) 
7

>  <PUBCHEM_PHARMACOPHORE_FEATURES>  (1) 
4
1 1 donor
1 13 hydrophobe
1 9 hydrophobe
6 8 11 12 14 15 16 rings

>  <PUBCHEM_HEAVY_ATOM_COUNT>  (1) 
16

>  <PUBCHEM_ATOM_DEF_STEREO_COUNT>  (1) 
0

>  <PUBCHEM_ATOM_UDEF_STEREO_COUNT>  (1) 
1

>  <PUBCHEM_BOND_DEF_STEREO_COUNT>  (1) 
0

>  <PUBCHEM_BOND_UDEF_STEREO_COUNT>  (1) 
0

>  <PUBCHEM_ISOTOPIC_ATOM_COUNT>  (1) 
0

>  <PUBCHEM_COMPONENT_COUNT>  (1) 
1

>  <PUBCHEM_CACTVS_TAUTO_COUNT>  (1) 
2

>  <PUBCHEM_CONFORMER_ID>  (1) 
00006F6900000004

>  <PUBCHEM_MMFF94_ENERGY>  (1) 
23.2419

>  <PUBCHEM_FEATURE_SELFOVERLAP>  (1) 
20.297

>  <PUBCHEM_SHAPE_FINGERPRINT>  (1) 
11858739 19 18411412926415849903
12107183 9 18126578829913527489
12363563 72 18337957774919318632
13464513 79 18343867710327887574
13533116 47 18270964652441738601
13955234 65 18198905992556258305
13965767 371 11527654229594899434
1420 369 18343584036528335915
14251740 57 18202284714584302447
14252887 29 18412822499431563744
14528608 73 11097854108264151523
15342816 4 18262802848389497406
15477762 27 18410012135031787848
15885798 251 18413109451019181617
17859628 70 18413109489051005206
1798214 55 9367052372392741923
193927 3 18408892823868261779
20369508 70 18260823813000183097
20388580 30 18410015429060687817
20645477 70 18335418006428664393
20871998 22 18339920424929797368
22224240 67 18057313097493044688
23590187 173 8430313528519534335
239999 70 18115023125154501953
270888 7 10628915121289208694
3060560 45 14418131820466200680
312423 11 18411149034608630761
33824 294 18338236093079664688
3421961 26 18412261744127276569
3472631 163 10737296744508839979
465052 167 18341619230692876871
5104073 3 18202008733493067849
5207 123 18338796719903723653
6025842 7 18264489662071714581
621550 34 18191296285645047229
7970288 3 18266459810731121079
94968 8 18335141985812330968
960060 61 17748831830154410143

>  <PUBCHEM_SHAPE_MULTIPOLES>  (1) 
323.4
12.44
2.83
1.04
28.8
0.54
-0.03
-9.58
0.47
-3.68
0.27
-0.89
-0.21
0.09

>  <PUBCHEM_SHAPE_SELFOVERLAP>  (1) 
635.338

>  <PUBCHEM_SHAPE_VOLUME>  (1) 
195.1

>  <PUBCHEM_COORDINATE_TYPE>  (1) 
2
5
10

$$$$
