2852
     RDKit          3D

 42 45  0  0  1  0  0  0  0  0999 V2000
    1.8420   -1.9314   -2.5988 O   0  0  0  0  0  0  0  0  0  0  0  0
    2.9258   -0.3857    2.6282 O   0  0  0  0  0  0  0  0  0  0  0  0
   -0.7899    0.1340   -2.9627 O   0  0  0  0  0  0  0  0  0  0  0  0
    2.0335    2.4579   -1.5148 O   0  0  0  0  0  0  0  0  0  0  0  0
   -6.5808   -2.0019    2.0571 O   0  0  0  0  0  0  0  0  0  0  0  0
   -7.8412    0.3875    2.1607 O   0  0  0  0  0  0  0  0  0  0  0  0
    2.8072   -1.9079    0.9042 N   0  0  0  0  0  0  0  0  0  0  0  0
    0.4969   -1.9260   -0.7148 N   0  0  0  0  0  0  0  0  0  0  0  0
    1.7236    1.0199    0.2837 N   0  0  0  0  0  0  0  0  0  0  0  0
   -0.7336    0.6313   -0.6947 N   0  0  0  0  0  0  0  0  0  0  0  0
   -7.7459   -0.3345    0.9637 N   0  0  0  0  0  0  0  0  0  0  0  0
    2.9103   -2.3482   -0.4940 C   0  0  0  0  0  0  0  0  0  0  0  0
    3.0167   -3.8809   -0.4121 C   0  0  0  0  0  0  0  0  0  0  0  0
    3.4580   -4.1530    1.0176 C   0  0  0  0  0  0  0  0  0  0  0  0
    2.7580   -3.0579    1.7980 C   0  0  0  0  0  0  0  0  0  0  0  0
    1.7136   -1.9969   -1.3751 C   0  0  0  0  0  0  0  0  0  0  0  0
    2.9702   -0.6256    1.4162 C   0  0  0  0  0  0  0  0  0  0  0  0
    3.0845    0.5264    0.4187 C   0  0  0  0  0  0  0  0  0  0  0  0
   -0.7689   -1.6991   -1.4098 C   0  0  0  0  0  0  0  0  0  0  0  0
   -1.9624   -2.1164   -0.5655 C   0  0  0  0  0  0  0  0  0  0  0  0
    4.0187    1.6101    0.9468 C   0  0  0  0  0  0  0  0  0  0  0  0
   -0.2255    1.9910   -0.8135 C   0  0  0  0  0  0  0  0  0  0  0  0
   -3.2816   -1.8327   -1.2854 C   0  0  0  0  0  0  0  0  0  0  0  0
   -0.7896   -0.2232   -1.7852 C   0  0  0  0  0  0  0  0  0  0  0  0
    1.2950    1.8424   -0.7484 C   0  0  0  0  0  0  0  0  0  0  0  0
   -4.5163   -2.2471   -0.4789 C   0  0  0  0  0  0  0  0  0  0  0  0
    5.4591    1.2996    0.6420 C   0  0  0  0  0  0  0  0  0  0  0  0
   -0.7527    2.8867    0.2935 C   0  0  0  0  0  0  0  0  0  0  0  0
   -5.8383   -1.8843   -1.1637 C   0  0  0  0  0  0  0  0  0  0  0  0
   -2.2540    3.0126    0.2486 C   0  0  0  0  0  0  0  0  0  0  0  0
    6.2209    0.5631    1.5492 C   0  0  0  0  0  0  0  0  0  0  0  0
    6.0327    1.7479   -0.5479 C   0  0  0  0  0  0  0  0  0  0  0  0
   -7.0519   -2.2430   -0.3060 C   0  0  0  0  0  0  0  0  0  0  0  0
    7.5561    0.2751    1.2668 C   0  0  0  0  0  0  0  0  0  0  0  0
    7.3679    1.4596   -0.8304 C   0  0  0  0  0  0  0  0  0  0  0  0
   -2.8464    4.0298   -0.4998 C   0  0  0  0  0  0  0  0  0  0  0  0
   -3.0510    2.1120    0.9552 C   0  0  0  0  0  0  0  0  0  0  0  0
    8.1296    0.7232    0.0770 C   0  0  0  0  0  0  0  0  0  0  0  0
   -7.0816   -1.5353    1.0375 C   0  0  0  0  0  0  0  0  0  0  0  0
   -4.2358    4.1464   -0.5416 C   0  0  0  0  0  0  0  0  0  0  0  0
   -4.4404    2.2286    0.9133 C   0  0  0  0  0  0  0  0  0  0  0  0
   -5.0327    3.2458    0.1649 C   0  0  0  0  0  0  0  0  0  0  0  0
  1 16  2  0
  2 17  2  0
  3 24  2  0
  4 25  2  0
  5 39  2  0
  6 11  1  0
  7 12  1  0
  7 15  1  0
  7 17  1  0
  8 16  1  0
  8 19  1  0
  9 18  1  0
  9 25  1  0
 10 22  1  0
 10 24  1  0
 11 39  1  0
 12 13  1  0
 12 16  1  0
 13 14  1  0
 14 15  1  0
 17 18  1  0
 18 21  1  0
 19 20  1  0
 19 24  1  0
 20 23  1  0
 21 27  1  0
 22 25  1  0
 22 28  1  0
 23 26  1  0
 26 29  1  0
 27 31  2  0
 27 32  1  0
 28 30  1  0
 29 33  1  0
 30 36  2  0
 30 37  1  0
 31 34  1  0
 32 35  2  0
 33 39  1  0
 34 38  2  0
 35 38  1  0
 36 40  1  0
 37 41  2  0
 40 42  2  0
 41 42  1  0
M  END
>  <PUBCHEM_COMPOUND_CID>  (1) 
2852

>  <PUBCHEM_CONFORMER_RMSD>  (1) 
2

>  <PUBCHEM_CONFORMER_DIVERSEORDER>  (1) 
1
12
65
18
78
2
61
21
20
82
45
46
72
63
55
77
42
33
59
74
25
60
44
52
22
35
4
28
11
32
53
48
43
10
68
5
51
81
29
67
30
66
79
56
41
80
38
39
57
71
17
50
76
27
40
26
31
13
62
36
54
14
19
3
73
6
64
7
9
69
15
37
58
34
23
70
49
75
16
8
24
47

>  <PUBCHEM_MMFF94_PARTIAL_CHARGES>  (1) 
51
1 -0.57
10 -0.73
11 -0.39
12 0.36
15 0.3
16 0.57
17 0.57
18 0.36
19 0.36
2 -0.57
21 0.14
22 0.36
24 0.57
25 0.57
27 -0.14
28 0.14
3 -0.57
30 -0.14
31 -0.15
32 -0.15
33 0.06
34 -0.15
35 -0.15
36 -0.15
37 -0.15
38 -0.15
39 0.57
4 -0.57
40 -0.15
41 -0.15
42 -0.15
5 -0.57
52 0.37
57 0.37
6 -0.44
61 0.37
68 0.15
69 0.15
7 -0.66
72 0.15
73 0.15
74 0.15
75 0.15
76 0.15
77 0.15
78 0.15
79 0.15
8 -0.73
80 0.37
81 0.4
9 -0.73

>  <PUBCHEM_EFFECTIVE_ROTOR_COUNT>  (1) 
12.8

>  <PUBCHEM_PHARMACOPHORE_FEATURES>  (1) 
13
1 1 acceptor
1 10 donor
1 11 donor
1 2 acceptor
1 3 acceptor
1 4 acceptor
1 5 acceptor
1 8 donor
1 9 donor
5 20 23 26 29 33 hydrophobe
5 7 12 13 14 15 rings
6 27 31 32 34 35 38 rings
6 30 36 37 40 41 42 rings

>  <PUBCHEM_HEAVY_ATOM_COUNT>  (1) 
42

>  <PUBCHEM_ATOM_DEF_STEREO_COUNT>  (1) 
0

>  <PUBCHEM_ATOM_UDEF_STEREO_COUNT>  (1) 
4

>  <PUBCHEM_BOND_DEF_STEREO_COUNT>  (1) 
0

>  <PUBCHEM_BOND_UDEF_STEREO_COUNT>  (1) 
0

>  <PUBCHEM_ISOTOPIC_ATOM_COUNT>  (1) 
0

>  <PUBCHEM_COMPONENT_COUNT>  (1) 
1

>  <PUBCHEM_CACTVS_TAUTO_COUNT>  (1) 
24

>  <PUBCHEM_CONFORMER_ID>  (1) 
00000B2400000001

>  <PUBCHEM_MMFF94_ENERGY>  (1) 
114.459

>  <PUBCHEM_FEATURE_SELFOVERLAP>  (1) 
65.984

>  <PUBCHEM_SHAPE_FINGERPRINT>  (1) 
10190108 129 18410856598647929792
10674148 151 17560521828625522914
13111901 25 18411700980301529713
15064986 96 17845371059987066214
15347590 135 18261113002097269611
19311894 1 17767388442727114990
22311459 1 18339075012204426406
3411729 13 18267303124050141700
6523845 18 15913324714830814455

>  <PUBCHEM_SHAPE_MULTIPOLES>  (1) 
804.22
19.94
5.3
1.99
4.73
0.36
0.07
0.49
-8.68
3.66
0.22
0.3
-0.82
-0.75

>  <PUBCHEM_SHAPE_SELFOVERLAP>  (1) 
1686.639

>  <PUBCHEM_SHAPE_VOLUME>  (1) 
448.5

>  <PUBCHEM_COORDINATE_TYPE>  (1) 
2
5
10

$$$$
