28538
     RDKit          3D

 33 36  0  0  0  0  0  0  0  0999 V2000
   -0.7676   -4.7235   -0.4484 O   0  0  0  0  0  0  0  0  0  0  0  0
   -2.9751   -3.3621    0.6097 O   0  0  0  0  0  0  0  0  0  0  0  0
    1.6967   -4.0520    0.6510 O   0  0  0  0  0  0  0  0  0  0  0  0
   -4.4356    1.9370   -0.2340 N   0  0  0  0  0  0  0  0  0  0  0  0
    4.8446    0.4567   -0.1787 N   0  0  0  0  0  0  0  0  0  0  0  0
   -2.0513   -5.3338   -0.3939 C   0  0  0  0  0  0  0  0  0  0  0  0
    0.2716   -5.6883   -0.3601 C   0  0  0  0  0  0  0  0  0  0  0  0
   -3.1153   -4.2577   -0.4922 C   0  0  0  0  0  0  0  0  0  0  0  0
    1.6111   -4.9801   -0.4235 C   0  0  0  0  0  0  0  0  0  0  0  0
   -4.0653    0.5950   -0.0204 C   0  0  0  0  0  0  0  0  0  0  0  0
    4.0462   -0.6868    0.0322 C   0  0  0  0  0  0  0  0  0  0  0  0
   -3.3325   -2.0652    0.4033 C   0  0  0  0  0  0  0  0  0  0  0  0
    2.4721   -2.9412    0.4467 C   0  0  0  0  0  0  0  0  0  0  0  0
   -3.0619    0.2839    0.8988 C   0  0  0  0  0  0  0  0  0  0  0  0
    2.9431   -0.6203    0.8833 C   0  0  0  0  0  0  0  0  0  0  0  0
   -4.7014   -0.4266   -0.7273 C   0  0  0  0  0  0  0  0  0  0  0  0
    4.3598   -1.8840   -0.6110 C   0  0  0  0  0  0  0  0  0  0  0  0
   -2.6957   -1.0454    1.1104 C   0  0  0  0  0  0  0  0  0  0  0  0
    2.1535   -1.7513    1.0912 C   0  0  0  0  0  0  0  0  0  0  0  0
   -4.3353   -1.7558   -0.5155 C   0  0  0  0  0  0  0  0  0  0  0  0
    3.5701   -3.0149   -0.4031 C   0  0  0  0  0  0  0  0  0  0  0  0
   -3.7208    3.1500   -0.1509 C   0  0  0  0  0  0  0  0  0  0  0  0
    4.5585    1.8356   -0.1650 C   0  0  0  0  0  0  0  0  0  0  0  0
   -4.3829    4.3268    0.1988 C   0  0  0  0  0  0  0  0  0  0  0  0
    5.5435    2.7504    0.2111 C   0  0  0  0  0  0  0  0  0  0  0  0
   -2.3519    3.1728   -0.4173 C   0  0  0  0  0  0  0  0  0  0  0  0
    3.2899    2.2906   -0.5281 C   0  0  0  0  0  0  0  0  0  0  0  0
   -3.6761    5.5266    0.2820 C   0  0  0  0  0  0  0  0  0  0  0  0
    5.2606    4.1162    0.2240 C   0  0  0  0  0  0  0  0  0  0  0  0
   -1.6450    4.3724   -0.3341 C   0  0  0  0  0  0  0  0  0  0  0  0
    3.0071    3.6564   -0.5153 C   0  0  0  0  0  0  0  0  0  0  0  0
   -2.3072    5.5492    0.0156 C   0  0  0  0  0  0  0  0  0  0  0  0
    3.9925    4.5692   -0.1392 C   0  0  0  0  0  0  0  0  0  0  0  0
  1  6  1  0
  1  7  1  0
  2  8  1  0
  2 12  1  0
  3  9  1  0
  3 13  1  0
  4 10  1  0
  4 22  1  0
  5 11  1  0
  5 23  1  0
  6  8  1  0
  7  9  1  0
 10 14  2  0
 10 16  1  0
 11 15  2  0
 11 17  1  0
 12 18  2  0
 12 20  1  0
 13 19  2  0
 13 21  1  0
 14 18  1  0
 15 19  1  0
 16 20  2  0
 17 21  2  0
 22 24  2  0
 22 26  1  0
 23 25  2  0
 23 27  1  0
 24 28  1  0
 25 29  1  0
 26 30  2  0
 27 31  2  0
 28 32  2  0
 29 33  2  0
 30 32  1  0
 31 33  1  0
M  END
>  <PUBCHEM_COMPOUND_CID>  (1) 
28538

>  <PUBCHEM_CONFORMER_RMSD>  (1) 
1.2

>  <PUBCHEM_CONFORMER_DIVERSEORDER>  (1) 
1
168
98
183
15
101
140
125
21
164
138
144
45
150
182
14
127
79
69
169
124
16
146
57
31
142
10
167
9
51
180
173
134
143
129
13
27
96
100
6
56
44
123
20
81
84
131
181
18
12
59
60
19
25
48
50
187
87
52
145
39
157
95
192
189
38
121
175
114
24
119
53
185
74
99
133
73
65
171
115
152
160
23
139
166
77
172
17
41
80
102
126
159
158
107
122
63
170
11
184
37
188
67
35
163
85
132
191
186
177
68
118
76
91
120
178
128
151
40
108
62
89
97
34
26
154
82
147
161
86
64
190
29
55
176
58
28
137
2
130
71
46
36
165
141
117
109
94
4
174
153
75
111
106
32
7
162
54
72
42
70
3
148
66
179
104
33
90
92
135
156
47
22
30
43
61
78
8
116
83
112
88
105
49
103
193
113
93
149
5
155
136
110

>  <PUBCHEM_MMFF94_PARTIAL_CHARGES>  (1) 
53
1 -0.56
10 0.1
11 0.1
12 0.08
13 0.08
14 -0.15
15 -0.15
16 -0.15
17 -0.15
18 -0.15
19 -0.15
2 -0.36
20 -0.15
21 -0.15
22 0.1
23 0.1
24 -0.15
25 -0.15
26 -0.15
27 -0.15
28 -0.15
29 -0.15
3 -0.36
30 -0.15
31 -0.15
32 -0.15
33 -0.15
4 -0.6
42 0.15
43 0.15
44 0.15
45 0.15
46 0.15
47 0.15
48 0.15
49 0.15
5 -0.6
50 0.4
51 0.4
52 0.15
53 0.15
54 0.15
55 0.15
56 0.15
57 0.15
58 0.15
59 0.15
6 0.28
60 0.15
61 0.15
7 0.28
8 0.28
9 0.28

>  <PUBCHEM_EFFECTIVE_ROTOR_COUNT>  (1) 
12

>  <PUBCHEM_PHARMACOPHORE_FEATURES>  (1) 
11
1 1 acceptor
1 2 acceptor
1 3 acceptor
1 4 cation
1 4 donor
1 5 cation
1 5 donor
6 10 12 14 16 18 20 rings
6 11 13 15 17 19 21 rings
6 22 24 26 28 30 32 rings
6 23 25 27 29 31 33 rings

>  <PUBCHEM_HEAVY_ATOM_COUNT>  (1) 
33

>  <PUBCHEM_ATOM_DEF_STEREO_COUNT>  (1) 
0

>  <PUBCHEM_ATOM_UDEF_STEREO_COUNT>  (1) 
0

>  <PUBCHEM_BOND_DEF_STEREO_COUNT>  (1) 
0

>  <PUBCHEM_BOND_UDEF_STEREO_COUNT>  (1) 
0

>  <PUBCHEM_ISOTOPIC_ATOM_COUNT>  (1) 
0

>  <PUBCHEM_COMPONENT_COUNT>  (1) 
1

>  <PUBCHEM_CACTVS_TAUTO_COUNT>  (1) 
1

>  <PUBCHEM_CONFORMER_ID>  (1) 
00006F7A00000001

>  <PUBCHEM_MMFF94_ENERGY>  (1) 
135.5272

>  <PUBCHEM_FEATURE_SELFOVERLAP>  (1) 
55.829

>  <PUBCHEM_SHAPE_FINGERPRINT>  (1) 
10439779 11 18264197016396724842
10951579 204 18121798381295380892
11973864 220 16530608431536684228
12173638 102 16385878573604563269
13617811 41 18196075871655229787
14394314 77 18051138287636840371
15320291 9 18334855034673281300
15320467 1 18410575114849585100
15538507 32 16969146423358933575
21792965 270 16606604484567014715
325973 47 17905610995105171425
3388396 114 18125141986410290231
4173938 77 17549277934308347267
4487111 67 18266738163392383176
50677037 204 17765435735375658146

>  <PUBCHEM_SHAPE_MULTIPOLES>  (1) 
651.55
12.79
12.07
0.87
5.13
1.4
-0.1
-11.11
0.47
-3.48
1.28
-0.07
0.27
-0.4

>  <PUBCHEM_SHAPE_SELFOVERLAP>  (1) 
1396.377

>  <PUBCHEM_SHAPE_VOLUME>  (1) 
357.3

>  <PUBCHEM_COORDINATE_TYPE>  (1) 
2
5
10

$$$$
