28557
     RDKit          3D

 18 18  0  0  0  0  0  0  0  0999 V2000
    2.0903    1.9155   -0.2202 O   0  0  0  0  0  0  0  0  0  0  0  0
   -0.6137    2.7676    0.2205 O   0  0  0  0  0  0  0  0  0  0  0  0
    2.7045   -0.8527    0.2205 O   0  0  0  0  0  0  0  0  0  0  0  0
   -2.7045    0.8524   -0.2214 O   0  0  0  0  0  0  0  0  0  0  0  0
    0.6137   -2.7674   -0.2202 O   0  0  0  0  0  0  0  0  0  0  0  0
   -2.0904   -1.9151    0.2208 O   0  0  0  0  0  0  0  0  0  0  0  0
    1.7386    3.1964    0.3043 C   0  0  0  0  0  0  0  0  0  0  0  0
    3.3363    1.4535    0.3032 C   0  0  0  0  0  0  0  0  0  0  0  0
    0.4093    3.6158   -0.3025 C   0  0  0  0  0  0  0  0  0  0  0  0
    3.6378    0.0927   -0.3040 C   0  0  0  0  0  0  0  0  0  0  0  0
   -1.8989    3.1038   -0.3038 C   0  0  0  0  0  0  0  0  0  0  0  0
    2.9270   -2.1623   -0.3040 C   0  0  0  0  0  0  0  0  0  0  0  0
   -2.9269    2.1621    0.3028 C   0  0  0  0  0  0  0  0  0  0  0  0
    1.8994   -3.1042    0.3027 C   0  0  0  0  0  0  0  0  0  0  0  0
   -3.6383   -0.0925    0.3028 C   0  0  0  0  0  0  0  0  0  0  0  0
   -0.4091   -3.6154    0.3039 C   0  0  0  0  0  0  0  0  0  0  0  0
   -3.3364   -1.4539   -0.3029 C   0  0  0  0  0  0  0  0  0  0  0  0
   -1.7387   -3.1965   -0.3026 C   0  0  0  0  0  0  0  0  0  0  0  0
  1  7  1  0
  1  8  1  0
  2  9  1  0
  2 11  1  0
  3 10  1  0
  3 12  1  0
  4 13  1  0
  4 15  1  0
  5 14  1  0
  5 16  1  0
  6 17  1  0
  6 18  1  0
  7  9  1  0
  8 10  1  0
 11 13  1  0
 12 14  1  0
 15 17  1  0
 16 18  1  0
M  END
>  <PUBCHEM_COMPOUND_CID>  (1) 
28557

>  <PUBCHEM_CONFORMER_RMSD>  (1) 
0.6

>  <PUBCHEM_CONFORMER_DIVERSEORDER>  (1) 
1
9
3
10
8
6
2
12
13
5
7
4
11

>  <PUBCHEM_MMFF94_PARTIAL_CHARGES>  (1) 
18
1 -0.56
10 0.28
11 0.28
12 0.28
13 0.28
14 0.28
15 0.28
16 0.28
17 0.28
18 0.28
2 -0.56
3 -0.56
4 -0.56
5 -0.56
6 -0.56
7 0.28
8 0.28
9 0.28

>  <PUBCHEM_EFFECTIVE_ROTOR_COUNT>  (1) 
3.6

>  <PUBCHEM_PHARMACOPHORE_FEATURES>  (1) 
6
1 1 acceptor
1 2 acceptor
1 3 acceptor
1 4 acceptor
1 5 acceptor
1 6 acceptor

>  <PUBCHEM_HEAVY_ATOM_COUNT>  (1) 
18

>  <PUBCHEM_ATOM_DEF_STEREO_COUNT>  (1) 
0

>  <PUBCHEM_ATOM_UDEF_STEREO_COUNT>  (1) 
0

>  <PUBCHEM_BOND_DEF_STEREO_COUNT>  (1) 
0

>  <PUBCHEM_BOND_UDEF_STEREO_COUNT>  (1) 
0

>  <PUBCHEM_ISOTOPIC_ATOM_COUNT>  (1) 
0

>  <PUBCHEM_COMPONENT_COUNT>  (1) 
1

>  <PUBCHEM_CACTVS_TAUTO_COUNT>  (1) 
1

>  <PUBCHEM_CONFORMER_ID>  (1) 
00006F8D00000001

>  <PUBCHEM_MMFF94_ENERGY>  (1) 
36.4617

>  <PUBCHEM_FEATURE_SELFOVERLAP>  (1) 
30.466

>  <PUBCHEM_SHAPE_FINGERPRINT>  (1) 
12038231 1 18266458693996380164
12539773 59 17703798067295483751
13122387 1 17906171754598891524
14251705 54 18409732824428444008
14251757 5 17759545634981098588
14784336 7 17844243142057108481
14916288 52 17979074881916732540
14940714 1 9270089731868196869
17093844 170 18268419320961192256
19930381 70 18409728426893447459
20621476 13 17834385001362420391
20621476 7 18338812155873721873
3014063 31 18410853244252071901

>  <PUBCHEM_SHAPE_MULTIPOLES>  (1) 
335.22
6.52
6.52
0.66
0
0
0
0
0
0
0
0
0
0

>  <PUBCHEM_SHAPE_SELFOVERLAP>  (1) 
628.619

>  <PUBCHEM_SHAPE_VOLUME>  (1) 
207.6

>  <PUBCHEM_COORDINATE_TYPE>  (1) 
2
5
10

$$$$
