28573
     RDKit          3D

 24 26  0  0  0  0  0  0  0  0999 V2000
    7.0743   -1.1752    0.5042 O   0  0  0  0  0  0  0  0  0  0  0  0
    0.9829    0.6748   -0.1412 O   0  0  0  0  0  0  0  0  0  0  0  0
    0.8335    2.8317   -0.9316 O   0  0  0  0  0  0  0  0  0  0  0  0
   -1.2340    4.0765    0.3142 O   0  0  0  0  0  0  0  0  0  0  0  0
    4.3690   -0.7716   -0.2835 N   0  0  0  0  0  0  0  0  0  0  0  0
    5.1018    0.2372    0.4942 C   0  0  0  0  0  0  0  0  0  0  0  0
    4.8911   -2.1129    0.0131 C   0  0  0  0  0  0  0  0  0  0  0  0
    2.9358   -0.6997   -0.0068 C   0  0  0  0  0  0  0  0  0  0  0  0
    6.5952    0.1348    0.1977 C   0  0  0  0  0  0  0  0  0  0  0  0
    6.3897   -2.1601   -0.2709 C   0  0  0  0  0  0  0  0  0  0  0  0
    2.3783    0.6557   -0.4113 C   0  0  0  0  0  0  0  0  0  0  0  0
   -1.1141    1.7209   -0.1206 C   0  0  0  0  0  0  0  0  0  0  0  0
    0.3295    1.8289   -0.4502 C   0  0  0  0  0  0  0  0  0  0  0  0
   -3.0625    0.3537    0.1140 C   0  0  0  0  0  0  0  0  0  0  0  0
   -1.7070    0.4753   -0.1921 C   0  0  0  0  0  0  0  0  0  0  0  0
   -1.8217    2.8489    0.2444 C   0  0  0  0  0  0  0  0  0  0  0  0
   -3.7065   -0.9402    0.0465 C   0  0  0  0  0  0  0  0  0  0  0  0
   -3.7975    1.4794    0.4851 C   0  0  0  0  0  0  0  0  0  0  0  0
   -3.1772    2.7270    0.5501 C   0  0  0  0  0  0  0  0  0  0  0  0
   -3.7381   -1.7631    1.1725 C   0  0  0  0  0  0  0  0  0  0  0  0
   -4.2965   -1.3648   -1.1442 C   0  0  0  0  0  0  0  0  0  0  0  0
   -4.3592   -3.0104    1.1078 C   0  0  0  0  0  0  0  0  0  0  0  0
   -4.9177   -2.6120   -1.2087 C   0  0  0  0  0  0  0  0  0  0  0  0
   -4.9490   -3.4348   -0.0827 C   0  0  0  0  0  0  0  0  0  0  0  0
  1  9  1  0
  1 10  1  0
  2 11  1  0
  2 13  1  0
  3 13  2  0
  4 16  1  0
  5  6  1  0
  5  7  1  0
  5  8  1  0
  6  9  1  0
  7 10  1  0
  8 11  1  0
 12 13  1  0
 12 15  2  0
 12 16  1  0
 14 15  1  0
 14 17  1  0
 14 18  2  0
 16 19  2  0
 17 20  2  0
 17 21  1  0
 18 19  1  0
 20 22  1  0
 21 23  2  0
 22 24  2  0
 23 24  1  0
M  END
>  <PUBCHEM_COMPOUND_CID>  (1) 
28573

>  <PUBCHEM_CONFORMER_RMSD>  (1) 
0.8

>  <PUBCHEM_CONFORMER_DIVERSEORDER>  (1) 
1
128
16
147
136
119
109
38
53
149
160
150
31
155
92
157
99
46
13
30
44
63
11
123
89
144
73
103
50
173
113
122
134
111
169
45
69
21
77
174
168
80
41
20
84
101
132
75
131
121
94
34
105
6
19
76
102
106
164
57
125
159
47
171
42
9
10
59
26
110
71
165
127
141
138
154
39
68
61
81
115
25
108
49
163
107
52
86
96
4
33
137
146
83
58
66
133
90
95
93
170
139
162
8
140
87
28
88
23
51
117
85
17
12
18
40
60
24
166
148
65
3
156
120
74
72
64
158
22
48
130
82
114
29
91
116
15
5
27
35
126
67
172
2
129
79
152
142
98
37
153
112
124
118
143
145
32
70
135
167
161
54
151
55
14
43
7
78
36
97
56
100
62
104

>  <PUBCHEM_MMFF94_PARTIAL_CHARGES>  (1) 
31
1 -0.56
10 0.28
11 0.28
12 0.09
13 0.63
15 -0.15
16 0.08
18 -0.15
19 -0.15
2 -0.43
20 -0.15
21 -0.15
22 -0.15
23 -0.15
24 -0.15
3 -0.57
37 0.15
38 0.15
39 0.15
4 -0.53
40 0.15
41 0.15
42 0.15
43 0.15
44 0.15
45 0.45
5 -0.81
6 0.27
7 0.27
8 0.27
9 0.28

>  <PUBCHEM_EFFECTIVE_ROTOR_COUNT>  (1) 
7.2

>  <PUBCHEM_PHARMACOPHORE_FEATURES>  (1) 
7
1 1 acceptor
1 3 acceptor
1 4 donor
1 5 cation
6 1 5 6 7 9 10 rings
6 12 14 15 16 18 19 rings
6 17 20 21 22 23 24 rings

>  <PUBCHEM_HEAVY_ATOM_COUNT>  (1) 
24

>  <PUBCHEM_ATOM_DEF_STEREO_COUNT>  (1) 
0

>  <PUBCHEM_ATOM_UDEF_STEREO_COUNT>  (1) 
0

>  <PUBCHEM_BOND_DEF_STEREO_COUNT>  (1) 
0

>  <PUBCHEM_BOND_UDEF_STEREO_COUNT>  (1) 
0

>  <PUBCHEM_ISOTOPIC_ATOM_COUNT>  (1) 
0

>  <PUBCHEM_COMPONENT_COUNT>  (1) 
1

>  <PUBCHEM_CACTVS_TAUTO_COUNT>  (1) 
4

>  <PUBCHEM_CONFORMER_ID>  (1) 
00006F9D00000001

>  <PUBCHEM_MMFF94_ENERGY>  (1) 
67.3948

>  <PUBCHEM_FEATURE_SELFOVERLAP>  (1) 
35.522

>  <PUBCHEM_SHAPE_FINGERPRINT>  (1) 
10391435 84 18337941364207898922
10411042 1 18339360894086529875
11200772 48 17969489430320480613
12107183 9 18269574861476334803
12616971 3 17386584482968122868
12633257 1 15913046590081380399
12760667 363 18410011070280857471
13140716 1 18341904008573602849
13540713 5 18264227944293140949
13631057 29 18410290315826435986
13782708 43 18130787833481392910
13911882 115 18060145297812436726
14168556 18 18340202012335098824
14211702 104 18411143532781859566
14429380 30 18336549429241820354
14461889 52 18341322358864974450
14659021 117 18334573555390911275
14844126 61 18413108351502064859
14866123 147 18411426099154562467
15042514 8 18411143511433486969
15131766 46 15867777501954482397
15250474 111 18116704115652363146
15352361 1 18409449232212236927
15728490 83 18261121755188215867
15803439 3 17391601443146685893
17492 89 18337674238421765257
17780758 139 17988649584016868075
18927931 339 18342461430460600031
19315092 285 17129861871052002659
21236236 1 18411700958979745290
21796203 349 17907329832712277587
22122407 14 15769489842048386648
2303208 19 17560528322442137974
23428019 142 17313105271661139419
23559900 14 18339632421566062025
23622692 118 18410854403930450925
25025965 108 18128796604606910454
329604 57 18335424612156801182
4073 2 18339365159073470506
484985 159 18408880716498229959
5104073 3 18201444700453864592
5486654 36 18261403269045621169
559249 180 18409448056008123053
5924683 9 18413107234304067993
6431902 208 18409448111178644190
6673363 416 18341626945293560380
7970288 3 18267583700957168647

>  <PUBCHEM_SHAPE_MULTIPOLES>  (1) 
465.45
16.34
4.46
0.94
28.95
1.33
-0.02
-16.07
0.97
-5.69
0.2
-0.92
-0.35
-0.49

>  <PUBCHEM_SHAPE_SELFOVERLAP>  (1) 
996.122

>  <PUBCHEM_SHAPE_VOLUME>  (1) 
257.6

>  <PUBCHEM_COORDINATE_TYPE>  (1) 
2
5
10

$$$$
