2857
     RDKit          3D

 24 26  0  0  0  0  0  0  0  0999 V2000
    5.6687   -0.4342   -2.6701 Br  0  0  0  0  0  0  0  0  0  0  0  0
   -3.0190    1.9284    0.6233 O   0  0  0  0  0  0  0  0  0  0  0  0
   -4.5602   -0.3367    0.1592 O   0  0  0  0  0  0  0  0  0  0  0  0
    1.7702    0.2543    0.8243 N   0  0  0  0  0  0  0  0  0  0  0  0
   -0.6392   -3.0396    0.1353 N   0  0  0  0  0  0  0  0  0  0  0  0
    1.5365   -2.0605    0.4741 N   0  0  0  0  0  0  0  0  0  0  0  0
   -0.4445   -0.6753    0.4887 C   0  0  0  0  0  0  0  0  0  0  0  0
   -1.2113   -1.8285    0.2546 C   0  0  0  0  0  0  0  0  0  0  0  0
   -2.4355    0.7046    0.5017 C   0  0  0  0  0  0  0  0  0  0  0  0
   -1.0536    0.5856    0.6118 C   0  0  0  0  0  0  0  0  0  0  0  0
   -3.2054   -0.4298    0.2701 C   0  0  0  0  0  0  0  0  0  0  0  0
    0.9313   -0.8633    0.5884 C   0  0  0  0  0  0  0  0  0  0  0  0
   -2.5921   -1.6804    0.1489 C   0  0  0  0  0  0  0  0  0  0  0  0
    3.0962    0.5369    0.4601 C   0  0  0  0  0  0  0  0  0  0  0  0
   -2.6265    2.9306   -0.3132 C   0  0  0  0  0  0  0  0  0  0  0  0
    0.7034   -3.0897    0.2511 C   0  0  0  0  0  0  0  0  0  0  0  0
   -5.1407   -0.7659   -1.0707 C   0  0  0  0  0  0  0  0  0  0  0  0
    3.6326    0.0060   -0.7171 C   0  0  0  0  0  0  0  0  0  0  0  0
    3.8906    1.3505    1.2736 C   0  0  0  0  0  0  0  0  0  0  0  0
   -3.7911    3.8685   -0.5490 C   0  0  0  0  0  0  0  0  0  0  0  0
   -6.4085    0.0229   -1.3195 C   0  0  0  0  0  0  0  0  0  0  0  0
    4.9507    0.2862   -1.0771 C   0  0  0  0  0  0  0  0  0  0  0  0
    5.2087    1.6308    0.9135 C   0  0  0  0  0  0  0  0  0  0  0  0
    5.7387    1.0987   -0.2619 C   0  0  0  0  0  0  0  0  0  0  0  0
  1 22  1  0
  2  9  1  0
  2 15  1  0
  3 11  1  0
  3 17  1  0
  4 12  1  0
  4 14  1  0
  5  8  2  0
  5 16  1  0
  6 12  1  0
  6 16  2  0
  7  8  1  0
  7 10  1  0
  7 12  2  0
  8 13  1  0
  9 10  2  0
  9 11  1  0
 11 13  2  0
 14 18  2  0
 14 19  1  0
 15 20  1  0
 17 21  1  0
 18 22  1  0
 19 23  2  0
 22 24  2  0
 23 24  1  0
M  END
>  <PUBCHEM_COMPOUND_CID>  (1) 
2857

>  <PUBCHEM_CONFORMER_RMSD>  (1) 
0.8

>  <PUBCHEM_CONFORMER_DIVERSEORDER>  (1) 
1
12
39
30
10
22
3
31
23
13
15
2
9
26
41
38
21
19
24
43
29
5
44
20
14
16
27
25
32
17
33
28
4
34
36
42
35
11
40
18
7
6
37
45
8

>  <PUBCHEM_MMFF94_PARTIAL_CHARGES>  (1) 
29
1 -0.11
10 -0.15
11 0.08
12 0.41
13 -0.15
14 0.1
15 0.28
16 0.47
17 0.28
18 -0.15
19 -0.15
2 -0.36
22 0.11
23 -0.15
24 -0.15
25 0.15
26 0.15
27 0.4
3 -0.36
32 0.15
33 0.15
34 0.15
4 -0.6
41 0.15
42 0.15
5 -0.62
6 -0.62
8 0.31
9 0.08

>  <PUBCHEM_EFFECTIVE_ROTOR_COUNT>  (1) 
6

>  <PUBCHEM_PHARMACOPHORE_FEATURES>  (1) 
9
1 1 hydrophobe
1 2 acceptor
1 3 acceptor
1 4 donor
3 4 6 12 cation
3 5 6 16 cation
6 14 18 19 22 23 24 rings
6 5 6 7 8 12 16 rings
6 7 8 9 10 11 13 rings

>  <PUBCHEM_HEAVY_ATOM_COUNT>  (1) 
24

>  <PUBCHEM_ATOM_DEF_STEREO_COUNT>  (1) 
0

>  <PUBCHEM_ATOM_UDEF_STEREO_COUNT>  (1) 
0

>  <PUBCHEM_BOND_DEF_STEREO_COUNT>  (1) 
0

>  <PUBCHEM_BOND_UDEF_STEREO_COUNT>  (1) 
0

>  <PUBCHEM_ISOTOPIC_ATOM_COUNT>  (1) 
0

>  <PUBCHEM_COMPONENT_COUNT>  (1) 
1

>  <PUBCHEM_CACTVS_TAUTO_COUNT>  (1) 
3

>  <PUBCHEM_CONFORMER_ID>  (1) 
00000B2900000001

>  <PUBCHEM_MMFF94_ENERGY>  (1) 
92.2061

>  <PUBCHEM_FEATURE_SELFOVERLAP>  (1) 
45.847

>  <PUBCHEM_SHAPE_FINGERPRINT>  (1) 
10411042 1 17545600518495651962
10498660 4 18337387244227476155
10591671 39 18114470041020566695
10615611 76 17168729495308540852
10670039 82 18260557693001242828
10906281 52 18041567958018303009
12173636 292 18410007749754075670
12236239 1 17386280008652239722
12390115 104 18269847428058227729
12596602 18 16733269070526701800
12916748 109 18409453621926912832
12954195 1 18130518448024730427
13540713 5 18125433117211505531
13617811 41 18334575780585280365
13668630 136 15267075756832529164
14251757 17 18059867147113525912
15183329 4 18410863149058884926
15575132 122 18260547814444755397
173720 79 18114445834468835778
19958102 18 18271813414745917062
200 152 15625956343453592170
20567600 247 15554728871535105871
20645477 70 16916800574074813396
21279426 13 18198916816648849366
21344244 181 17561088037515760599
21521239 73 17561363997722411550
21637258 2 14476958995703872431
22122407 14 15574720200636274468
221357 26 18060701701750200512
22393880 68 18271527481540197348
23366157 5 17898288303504871466
23559900 14 18129954493977240280
23569914 152 17195445188385026685
283562 15 18412259541589516049
3004659 81 11743842495128998178
46194498 28 17917714647344112852
508706 21 18410302410301497076
5486654 2 18410285948182416351
57003041 33 18409722985233011531
59755656 215 18412545409510850126
8863177 126 12246815231916961949
9709674 26 17986964136156031750
9981440 41 18260829289215660315

>  <PUBCHEM_SHAPE_MULTIPOLES>  (1) 
473.17
13.88
3.27
1.44
3.91
1.03
-0.96
5.6
-7.13
-3.19
0.13
1.99
0.03
1.16

>  <PUBCHEM_SHAPE_SELFOVERLAP>  (1) 
1003.415

>  <PUBCHEM_SHAPE_VOLUME>  (1) 
271.6

>  <PUBCHEM_COORDINATE_TYPE>  (1) 
2
5
10

$$$$
