28584
     RDKit          3D

 23 24  0  0  1  0  0  0  0  0999 V2000
    3.1031    3.1255   -1.6527 S   0  0  0  0  0  0  0  0  0  0  0  0
    2.7065   -3.3768    0.8868 S   0  0  0  0  0  0  0  0  0  0  0  0
    1.2442    0.7092    1.9914 O   0  0  0  0  0  0  0  0  0  0  0  0
   -2.5960   -0.2356    0.2754 N   0  0  0  0  0  0  0  0  0  0  0  0
   -1.2225   -0.4932    0.7845 C   0  0  0  0  0  0  0  0  0  0  0  0
   -2.6562   -0.4318   -1.2446 C   0  0  0  0  0  0  0  0  0  0  0  0
   -3.0302    1.2011    0.5913 C   0  0  0  0  0  0  0  0  0  0  0  0
   -0.2061    0.4450    0.0997 C   0  0  0  0  0  0  0  0  0  0  0  0
   -3.6028   -1.1945    0.9230 C   0  0  0  0  0  0  0  0  0  0  0  0
    1.2804    0.3545    0.5927 C   0  0  0  0  0  0  0  0  0  0  0  0
   -1.2431   -0.2791    2.2943 C   0  0  0  0  0  0  0  0  0  0  0  0
   -2.3311   -1.8802   -1.5730 C   0  0  0  0  0  0  0  0  0  0  0  0
   -4.4343    1.4266    0.0534 C   0  0  0  0  0  0  0  0  0  0  0  0
    2.2281    1.3480   -0.1095 C   0  0  0  0  0  0  0  0  0  0  0  0
    1.8167   -1.0732    0.4031 C   0  0  0  0  0  0  0  0  0  0  0  0
   -2.3324   -2.1174   -3.0744 C   0  0  0  0  0  0  0  0  0  0  0  0
   -4.8953    2.8537    0.3009 C   0  0  0  0  0  0  0  0  0  0  0  0
    3.5684    1.4616    0.2483 C   0  0  0  0  0  0  0  0  0  0  0  0
    1.9862   -1.6373   -0.8611 C   0  0  0  0  0  0  0  0  0  0  0  0
    1.8061    2.1539   -1.0996 C   0  0  0  0  0  0  0  0  0  0  0  0
    2.1499   -1.8573    1.4469 C   0  0  0  0  0  0  0  0  0  0  0  0
    4.1842    2.4170   -0.5297 C   0  0  0  0  0  0  0  0  0  0  0  0
    2.4762   -2.9197   -0.7472 C   0  0  0  0  0  0  0  0  0  0  0  0
  1 20  1  0
  1 22  1  0
  2 21  1  0
  2 23  1  0
  3 10  1  0
  4  5  1  0
  4  6  1  0
  4  7  1  0
  4  9  1  0
  5  8  1  0
  5 11  1  0
  6 12  1  0
  7 13  1  0
  8 10  1  0
 10 14  1  0
 10 15  1  0
 12 16  1  0
 13 17  1  0
 14 18  1  0
 14 20  2  0
 15 19  1  0
 15 21  2  0
 18 22  2  0
 19 23  2  0
M  CHG  1   4   1
M  END
>  <PUBCHEM_COMPOUND_CID>  (1) 
28584

>  <PUBCHEM_CONFORMER_RMSD>  (1) 
0.8

>  <PUBCHEM_CONFORMER_DIVERSEORDER>  (1) 
1
3
24
21
41
38
43
48
50
40
23
55
34
9
25
44
30
54
15
53
62
10
42
20
27
33
13
11
4
5
46
26
17
18
59
7
45
31
39
16
61
58
22
28
6
60
32
56
51
29
2
8
14
35
57
19
12
47
37
52
36
49

>  <PUBCHEM_MMFF94_PARTIAL_CHARGES>  (1) 
24
1 -0.08
10 0.64
14 -0.18
15 -0.18
18 -0.15
19 -0.15
2 -0.08
20 -0.11
21 -0.11
22 -0.11
23 -0.11
3 -0.68
4 -1.01
47 0.4
48 0.15
49 0.15
5 0.5
50 0.15
51 0.15
52 0.15
53 0.15
6 0.5
7 0.5
9 0.5

>  <PUBCHEM_EFFECTIVE_ROTOR_COUNT>  (1) 
9

>  <PUBCHEM_PHARMACOPHORE_FEATURES>  (1) 
7
1 16 hydrophobe
1 17 hydrophobe
1 3 acceptor
1 3 donor
1 4 cation
5 1 14 18 20 22 rings
5 2 15 19 21 23 rings

>  <PUBCHEM_HEAVY_ATOM_COUNT>  (1) 
23

>  <PUBCHEM_ATOM_DEF_STEREO_COUNT>  (1) 
0

>  <PUBCHEM_ATOM_UDEF_STEREO_COUNT>  (1) 
1

>  <PUBCHEM_BOND_DEF_STEREO_COUNT>  (1) 
0

>  <PUBCHEM_BOND_UDEF_STEREO_COUNT>  (1) 
0

>  <PUBCHEM_ISOTOPIC_ATOM_COUNT>  (1) 
0

>  <PUBCHEM_COMPONENT_COUNT>  (1) 
1

>  <PUBCHEM_CACTVS_TAUTO_COUNT>  (1) 
1

>  <PUBCHEM_CONFORMER_ID>  (1) 
00006FA800000001

>  <PUBCHEM_MMFF94_ENERGY>  (1) 
74.9368

>  <PUBCHEM_FEATURE_SELFOVERLAP>  (1) 
35.52

>  <PUBCHEM_SHAPE_FINGERPRINT>  (1) 
10369192 42 17606705744396925220
105312 117 17827099582205012180
11578080 2 17098377213634584914
11640471 11 18343591758341574409
121448 382 17841432832536930314
12173636 292 17975142250772749188
12422481 6 18121467243310450928
12633257 1 17168412857345082120
13004483 165 17761482600517291682
133893 2 18262498369468086342
13464514 151 18187093844860432232
13681431 1 18265627493935457434
14115302 16 17703217404659700059
14251751 93 18057896924743992892
15163728 17 17751950096612829756
15502722 9 18335994133341678514
15664445 248 17194854080879135045
16752209 62 17346022481106923175
17818456 19 17843119199764199065
17980427 23 18118373298741158864
17980427 26 17968087569726372931
1813 80 18051135787633259298
20600515 1 17769933481200305634
21033648 144 17387965619738469308
21033648 29 16298956334480241013
21486144 27 17603591824345201619
21524375 3 17752769314448316872
22393880 68 17988638653114336588
22907989 373 17326063248380519870
23419403 2 15683838964424150010
23557571 272 15792001316446374679
23559900 14 18339361842567343050
23598288 3 18201995547722013447
23598291 2 18341600500045067447
340366 18 18198054781830401975
474 4 18114183085307071948
5081480 168 18190464852715854628
633830 44 18261681484036938468
7364860 26 18409454648429507584
81228 2 17545326276738726778
9981440 41 18189621725045596720
9999458 23 17823710650981201617

>  <PUBCHEM_SHAPE_MULTIPOLES>  (1) 
470.18
8.11
4.02
2.06
5.8
0.02
-0.88
-4.93
-0.45
-3.38
-1.2
0.98
1.06
-2.35

>  <PUBCHEM_SHAPE_SELFOVERLAP>  (1) 
940.628

>  <PUBCHEM_SHAPE_VOLUME>  (1) 
283.7

>  <PUBCHEM_COORDINATE_TYPE>  (1) 
2
5
10

$$$$
