28582
     RDKit          3D

 20 21  0  0  1  0  0  0  0  0999 V2000
   -0.5659   -3.6861   -0.9551 S   0  0  0  0  0  0  0  0  0  0  0  0
   -4.2034    1.7123    0.9288 S   0  0  0  0  0  0  0  0  0  0  0  0
    0.0062    0.6788   -1.3551 O   0  0  0  0  0  0  0  0  0  0  0  0
    2.5149    0.5768   -0.1402 N   0  0  0  0  0  0  0  0  0  0  0  0
    1.7440    0.1746    1.0344 C   0  0  0  0  0  0  0  0  0  0  0  0
    0.3051    0.7475    1.0079 C   0  0  0  0  0  0  0  0  0  0  0  0
   -0.6369    0.2344   -0.1381 C   0  0  0  0  0  0  0  0  0  0  0  0
    2.4751    0.6448    2.2948 C   0  0  0  0  0  0  0  0  0  0  0  0
   -0.7465   -1.3029   -0.1831 C   0  0  0  0  0  0  0  0  0  0  0  0
   -2.0512    0.8212   -0.0271 C   0  0  0  0  0  0  0  0  0  0  0  0
    3.8760   -0.0195   -0.1276 C   0  0  0  0  0  0  0  0  0  0  0  0
    2.5729    2.0355   -0.2384 C   0  0  0  0  0  0  0  0  0  0  0  0
   -1.3213   -2.0287    0.8564 C   0  0  0  0  0  0  0  0  0  0  0  0
   -2.8098    1.1442   -1.1531 C   0  0  0  0  0  0  0  0  0  0  0  0
   -0.2907   -2.0180   -1.2267 C   0  0  0  0  0  0  0  0  0  0  0  0
   -2.6381    1.0589    1.1632 C   0  0  0  0  0  0  0  0  0  0  0  0
    3.8191   -1.5298   -0.0258 C   0  0  0  0  0  0  0  0  0  0  0  0
    3.2745    2.4788   -1.5055 C   0  0  0  0  0  0  0  0  0  0  0  0
   -1.2908   -3.3745    0.5646 C   0  0  0  0  0  0  0  0  0  0  0  0
   -4.0330    1.6515   -0.7740 C   0  0  0  0  0  0  0  0  0  0  0  0
  1 15  1  0
  1 19  1  0
  2 16  1  0
  2 20  1  0
  3  7  1  0
  4  5  1  0
  4 11  1  0
  4 12  1  0
  5  6  1  0
  5  8  1  0
  6  7  1  0
  7  9  1  0
  7 10  1  0
  9 13  1  0
  9 15  2  0
 10 14  1  0
 10 16  2  0
 11 17  1  0
 12 18  1  0
 13 19  2  0
 14 20  2  0
M  END
>  <PUBCHEM_COMPOUND_CID>  (1) 
28582

>  <PUBCHEM_CONFORMER_RMSD>  (1) 
0.8

>  <PUBCHEM_CONFORMER_DIVERSEORDER>  (1) 
1
30
22
52
46
20
35
37
39
53
21
47
15
36
40
50
55
34
26
54
48
17
29
2
38
51
49
42
18
41
57
31
19
43
56
33
44
3
24
14
32
45
58
25
16
6
4
28
13
5
23
7
27
9
8
11
12
10

>  <PUBCHEM_MMFF94_PARTIAL_CHARGES>  (1) 
23
1 -0.08
10 -0.18
11 0.27
12 0.27
13 -0.15
14 -0.15
15 -0.11
16 -0.11
19 -0.11
2 -0.08
20 -0.11
3 -0.68
31 0.4
32 0.15
33 0.15
34 0.15
35 0.15
4 -0.81
42 0.15
43 0.15
5 0.27
7 0.64
9 -0.18

>  <PUBCHEM_EFFECTIVE_ROTOR_COUNT>  (1) 
7

>  <PUBCHEM_PHARMACOPHORE_FEATURES>  (1) 
5
1 3 acceptor
1 3 donor
1 4 cation
5 1 9 13 15 19 rings
5 2 10 14 16 20 rings

>  <PUBCHEM_HEAVY_ATOM_COUNT>  (1) 
20

>  <PUBCHEM_ATOM_DEF_STEREO_COUNT>  (1) 
0

>  <PUBCHEM_ATOM_UDEF_STEREO_COUNT>  (1) 
1

>  <PUBCHEM_BOND_DEF_STEREO_COUNT>  (1) 
0

>  <PUBCHEM_BOND_UDEF_STEREO_COUNT>  (1) 
0

>  <PUBCHEM_ISOTOPIC_ATOM_COUNT>  (1) 
0

>  <PUBCHEM_COMPONENT_COUNT>  (1) 
1

>  <PUBCHEM_CACTVS_TAUTO_COUNT>  (1) 
1

>  <PUBCHEM_CONFORMER_ID>  (1) 
00006FA600000001

>  <PUBCHEM_MMFF94_ENERGY>  (1) 
42.3887

>  <PUBCHEM_FEATURE_SELFOVERLAP>  (1) 
25.371

>  <PUBCHEM_SHAPE_FINGERPRINT>  (1) 
10871710 139 17395599623174614141
10922049 32 18410013191656812379
11322862 65 18411133649529263895
12173636 292 18341333374570105029
12500047 106 18342730854033189560
12553582 1 17474385154843761466
12592029 89 18190743029268548643
12714826 92 17913221033177737938
12788726 201 17975965776629551715
12930653 34 17841408630639129384
13583140 156 16733253599859361385
13681431 1 17548973356686791911
14115302 16 18343867710581036744
14178342 30 18194664068601534456
15295992 7 17847059990865620387
15309172 13 18335701603066562737
15342816 4 8430304749591174545
15906896 17 18265043807600583283
16752209 62 18268134530412140567
16945 1 17968927600562043673
18186145 218 18201146664104164057
18981168 100 17914611902470766296
19784866 9 17985271768284938745
200 152 10879990246564260696
20645476 183 18335976523606473674
20905425 154 17264406540251386358
21524375 3 18272084951236460303
22907989 373 18125162881726170381
23419403 2 15544676032907221885
23557571 272 17983842656645811952
23558518 356 18337662139446515186
23559900 14 18130785669049399936
23598288 3 18265052625083851082
23598291 2 18041272274925624308
25 1 18129380406356027393
3060560 45 18190452779668136956
340366 18 18262249854386449238
352729 6 18342465828364692515
4340502 62 18269009604988273265
458136 41 18269569255963471889
474 4 18269277868065423121
5845 1 8751322799112290328
6049 1 17557993028500297520
6138700 20 17909551658255730510
633830 44 17774708784690660377
7364860 26 17768527197322640095
74978 22 18410851101111162712
7615 1 17679841963720966856
7832392 63 18261677081674536300
81228 2 18050830406767975787
81539 233 18266171730637014773
8272917 22 18051975823175068209
9981440 41 16265684218241387825
9999458 23 17967822595718490662

>  <PUBCHEM_SHAPE_MULTIPOLES>  (1) 
408.44
6.77
3.69
1.57
0.47
3.98
-0.3
-5.09
0.05
-0.71
0.9
0.38
-0.44
-0.42

>  <PUBCHEM_SHAPE_SELFOVERLAP>  (1) 
822.517

>  <PUBCHEM_SHAPE_VOLUME>  (1) 
244.2

>  <PUBCHEM_COORDINATE_TYPE>  (1) 
2
5
10

$$$$
