28588
     RDKit          3D

 21 23  0  0  1  0  0  0  0  0999 V2000
    2.2842    3.1352    1.5515 S   0  0  0  0  0  0  0  0  0  0  0  0
    3.5764   -3.1948    0.0397 S   0  0  0  0  0  0  0  0  0  0  0  0
    1.1845    0.0380   -1.9449 O   0  0  0  0  0  0  0  0  0  0  0  0
   -2.7686    0.5729   -0.3657 N   0  0  0  0  0  0  0  0  0  0  0  0
   -1.3700    0.8307   -0.7075 C   0  0  0  0  0  0  0  0  0  0  0  0
   -0.4068   -0.2563   -0.1667 C   0  0  0  0  0  0  0  0  0  0  0  0
   -3.1936   -0.7324   -0.8902 C   0  0  0  0  0  0  0  0  0  0  0  0
   -2.9651    0.6504    1.0888 C   0  0  0  0  0  0  0  0  0  0  0  0
   -4.6686   -0.9965   -0.5838 C   0  0  0  0  0  0  0  0  0  0  0  0
   -4.4327    0.4318    1.4599 C   0  0  0  0  0  0  0  0  0  0  0  0
    1.1089   -0.0887   -0.5145 C   0  0  0  0  0  0  0  0  0  0  0  0
   -4.9521   -0.8919    0.9104 C   0  0  0  0  0  0  0  0  0  0  0  0
   -1.2630    0.9174   -2.2313 C   0  0  0  0  0  0  0  0  0  0  0  0
    1.7496    1.1938    0.0456 C   0  0  0  0  0  0  0  0  0  0  0  0
    1.8958   -1.3224   -0.0477 C   0  0  0  0  0  0  0  0  0  0  0  0
    2.7439    1.8842   -0.6447 C   0  0  0  0  0  0  0  0  0  0  0  0
    1.5882   -1.9932    1.1364 C   0  0  0  0  0  0  0  0  0  0  0  0
    1.3815    1.7158    1.2307 C   0  0  0  0  0  0  0  0  0  0  0  0
    2.9257   -1.8256   -0.7568 C   0  0  0  0  0  0  0  0  0  0  0  0
    3.1392    2.9902    0.0751 C   0  0  0  0  0  0  0  0  0  0  0  0
    2.4426   -3.0587    1.3155 C   0  0  0  0  0  0  0  0  0  0  0  0
  1 18  1  0
  1 20  1  0
  2 19  1  0
  2 21  1  0
  3 11  1  0
  4  5  1  0
  4  7  1  0
  4  8  1  0
  5  6  1  0
  5 13  1  0
  6 11  1  0
  7  9  1  0
  8 10  1  0
  9 12  1  0
 10 12  1  0
 11 14  1  0
 11 15  1  0
 14 16  1  0
 14 18  2  0
 15 17  1  0
 15 19  2  0
 16 20  2  0
 17 21  2  0
M  END
>  <PUBCHEM_COMPOUND_CID>  (1) 
28588

>  <PUBCHEM_CONFORMER_RMSD>  (1) 
0.8

>  <PUBCHEM_CONFORMER_DIVERSEORDER>  (1) 
11
65
72
53
61
59
43
68
23
57
17
46
4
73
82
64
35
16
62
20
42
70
74
54
56
27
66
22
19
15
75
69
55
2
63
30
24
21
18
81
39
71
40
26
1
58
25
41
29
80
3
28
14
67
34
77
51
36
13
60
79
31
44
38
78
33
5
37
76
32
47
6
48
45
8
9
7
49
10
50
52
12

>  <PUBCHEM_MMFF94_PARTIAL_CHARGES>  (1) 
23
1 -0.08
11 0.64
14 -0.18
15 -0.18
16 -0.15
17 -0.15
18 -0.11
19 -0.11
2 -0.08
20 -0.11
21 -0.11
3 -0.68
38 0.4
39 0.15
4 -0.81
40 0.15
41 0.15
42 0.15
43 0.15
44 0.15
5 0.27
7 0.27
8 0.27

>  <PUBCHEM_EFFECTIVE_ROTOR_COUNT>  (1) 
6.2

>  <PUBCHEM_PHARMACOPHORE_FEATURES>  (1) 
6
1 3 acceptor
1 3 donor
1 4 cation
5 1 14 16 18 20 rings
5 2 15 17 19 21 rings
6 4 7 8 9 10 12 rings

>  <PUBCHEM_HEAVY_ATOM_COUNT>  (1) 
21

>  <PUBCHEM_ATOM_DEF_STEREO_COUNT>  (1) 
0

>  <PUBCHEM_ATOM_UDEF_STEREO_COUNT>  (1) 
1

>  <PUBCHEM_BOND_DEF_STEREO_COUNT>  (1) 
0

>  <PUBCHEM_BOND_UDEF_STEREO_COUNT>  (1) 
0

>  <PUBCHEM_ISOTOPIC_ATOM_COUNT>  (1) 
0

>  <PUBCHEM_COMPONENT_COUNT>  (1) 
1

>  <PUBCHEM_CACTVS_TAUTO_COUNT>  (1) 
1

>  <PUBCHEM_CONFORMER_ID>  (1) 
00006FAC0000000B

>  <PUBCHEM_MMFF94_ENERGY>  (1) 
41.3877

>  <PUBCHEM_FEATURE_SELFOVERLAP>  (1) 
30.446

>  <PUBCHEM_SHAPE_FINGERPRINT>  (1) 
10165383 225 18191036796726932180
10366900 7 18335709394000081217
10382601 240 18202285844039603056
11405975 8 18337673010641503969
11578080 2 18187920634623705501
12107183 9 17982745078043326841
12160290 23 15648440145171831941
12549972 3 18042949996568381021
12553582 1 18196369217267288974
12644460 14 18201726175308664121
12707595 3 18264762156208447326
12714826 92 17753894917585639439
12788726 201 16897335644254333986
13009979 54 17345206514440086194
13533116 47 18411139156542305907
13583140 156 18342172302400923709
13878862 14 18340472380310610853
14178342 30 18045227295592073939
14252887 29 17749114426138852709
14289901 80 18410009970695331217
14787075 74 18261680290284060014
14955137 171 18059861623727801262
15142526 21 17697029602269067345
15375462 189 18263930938366027914
15475509 84 18125169238410449337
15842332 3 17631997750209089015
17868525 174 18194964046018450465
1813 80 17915183421136981718
18785283 64 18261953050719314624
19078846 21 18128266583855257137
20600515 1 17698167240479447024
20603629 256 18411419514115103251
20645477 70 18337095818344401415
20681677 274 18411703175541378035
21041028 32 18199750228755527824
21120745 212 17765447448400573910
21344244 78 18059847316758917105
21421861 104 18342470196314810449
21524375 3 18056192712107801916
22182313 1 17749372764116035127
22224240 67 18121214548213706089
2255824 54 18411703188099439878
23557571 272 17240748580685491093
23558518 356 17191492920666739916
23559900 14 17749105561262881839
25222932 49 17769653432559367983
2637199 183 17273993516867620957
298252 57 16843894285434994700
31174 14 18410570678132245397
312423 11 18202846561068491863
3286 77 18337397045722517139
3797600 57 17416124108309387995
394222 165 17845370119035287320
427121 178 18266184022337732152
458136 41 18336269066940921916
474 4 18125160691235482593
5104073 3 18342751715237966635
5486654 36 18118412743699381283
5895379 119 16915684491656354625
59755656 520 17980751959688791696
6049 1 18041272167388093949
633830 44 17914616304675211388
6442390 28 17977951516077284056
6786 2 17977675526148460600
7097593 13 18199751345383584715
7288768 16 17338134751771541664
7364860 26 18412821400199328574
7615 1 17488725857613638021
81228 2 17023172766074352101
9841814 1 18340487768523849778
9999458 23 18338801246704808532

>  <PUBCHEM_SHAPE_MULTIPOLES>  (1) 
429.02
8.34
3.68
1.68
11.43
0.1
-0.27
2.53
1.8
-6.6
1.42
0.42
-0.34
-0.05

>  <PUBCHEM_SHAPE_SELFOVERLAP>  (1) 
882.864

>  <PUBCHEM_SHAPE_VOLUME>  (1) 
250.6

>  <PUBCHEM_COORDINATE_TYPE>  (1) 
2
5
10

$$$$
