28605
     RDKit          3D

 16 16  0  0  0  0  0  0  0  0999 V2000
   -0.5832    2.8577   -0.7037 Cl  0  0  0  0  0  0  0  0  0  0  0  0
    1.0499    0.3841   -0.8754 O   0  0  0  0  0  0  0  0  0  0  0  0
    1.7262    0.7033    1.3262 O   0  0  0  0  0  0  0  0  0  0  0  0
    3.2496    0.8324   -0.4187 N   0  0  0  0  0  0  0  0  0  0  0  0
    0.2887   -2.2653   -0.2298 C   0  0  0  0  0  0  0  0  0  0  0  0
   -0.6397   -1.1033   -0.0959 C   0  0  0  0  0  0  0  0  0  0  0  0
   -0.2234    0.1868   -0.4249 C   0  0  0  0  0  0  0  0  0  0  0  0
   -0.2135   -3.3030   -1.2505 C   0  0  0  0  0  0  0  0  0  0  0  0
    0.5692   -2.9511    1.1198 C   0  0  0  0  0  0  0  0  0  0  0  0
   -1.9381   -1.3210    0.3649 C   0  0  0  0  0  0  0  0  0  0  0  0
   -2.4040    1.0415    0.1677 C   0  0  0  0  0  0  0  0  0  0  0  0
   -1.1057    1.2591   -0.2933 C   0  0  0  0  0  0  0  0  0  0  0  0
   -2.8202   -0.2486    0.4967 C   0  0  0  0  0  0  0  0  0  0  0  0
   -3.3829    2.1605    0.3238 C   0  0  0  0  0  0  0  0  0  0  0  0
    1.9974    0.6475    0.1303 C   0  0  0  0  0  0  0  0  0  0  0  0
    4.4298    1.1195    0.3629 C   0  0  0  0  0  0  0  0  0  0  0  0
  1 12  1  0
  2  7  1  0
  2 15  1  0
  3 15  2  0
  4 15  1  0
  4 16  1  0
  5  6  1  0
  5  8  1  0
  5  9  1  0
  6  7  2  0
  6 10  1  0
  7 12  1  0
 10 13  2  0
 11 12  2  0
 11 13  1  0
 11 14  1  0
M  END
>  <PUBCHEM_COMPOUND_CID>  (1) 
28605

>  <PUBCHEM_CONFORMER_RMSD>  (1) 
0.6

>  <PUBCHEM_CONFORMER_DIVERSEORDER>  (1) 
1
6
7
8
11
13
10
12
14
5
3
9
4
2

>  <PUBCHEM_MMFF94_PARTIAL_CHARGES>  (1) 
17
1 -0.18
10 -0.15
11 -0.14
12 0.18
13 -0.15
14 0.14
15 0.78
16 0.3
2 -0.23
24 0.15
25 0.15
29 0.37
3 -0.57
4 -0.73
5 0.14
6 -0.14
7 0.08

>  <PUBCHEM_EFFECTIVE_ROTOR_COUNT>  (1) 
4

>  <PUBCHEM_PHARMACOPHORE_FEATURES>  (1) 
4
1 3 acceptor
1 4 donor
3 5 8 9 hydrophobe
6 6 7 10 11 12 13 rings

>  <PUBCHEM_HEAVY_ATOM_COUNT>  (1) 
16

>  <PUBCHEM_ATOM_DEF_STEREO_COUNT>  (1) 
0

>  <PUBCHEM_ATOM_UDEF_STEREO_COUNT>  (1) 
0

>  <PUBCHEM_BOND_DEF_STEREO_COUNT>  (1) 
0

>  <PUBCHEM_BOND_UDEF_STEREO_COUNT>  (1) 
0

>  <PUBCHEM_ISOTOPIC_ATOM_COUNT>  (1) 
0

>  <PUBCHEM_COMPONENT_COUNT>  (1) 
1

>  <PUBCHEM_CACTVS_TAUTO_COUNT>  (1) 
2

>  <PUBCHEM_CONFORMER_ID>  (1) 
00006FBD00000001

>  <PUBCHEM_MMFF94_ENERGY>  (1) 
41.1479

>  <PUBCHEM_FEATURE_SELFOVERLAP>  (1) 
20.297

>  <PUBCHEM_SHAPE_FINGERPRINT>  (1) 
10382601 240 18119546352787683633
11578080 2 16156803661998941838
12423570 1 10855386715513824969
13140716 1 18337114440895322147
13380535 76 18336547118986621803
14178342 30 18337691740856718905
14648413 74 17760928441934169865
14817 1 13823371599620419250
15042514 8 18122350335024773603
15309172 13 18408888442426873048
16945 1 18128536166056826135
193761 8 17975977557677014413
20510252 161 18271251619901314849
20524608 308 18128818719213019286
20645476 183 17460335445029335910
20871998 184 18195818576615960135
21501502 16 18195801878320878099
21524375 3 18411133627985335786
22112679 90 17405161002217436127
2334 1 18410300228326040559
23402539 116 18199460146511226111
23419403 2 16899289514829011456
23557571 272 18126298673470911188
257057 1 17262430116286863183
2748010 2 18338253578170874439
305870 269 18338517439164736275
3250762 1 17831299402399439269
43471831 8 18334012774354217786
5706482 22 18411410726406378090
58807428 26 18335424530146208440
6338986 31 17047384350861232782
7364860 26 18053949441808756367
81228 2 17978775033001189042

>  <PUBCHEM_SHAPE_MULTIPOLES>  (1) 
314.42
4.91
3.65
1.01
3.18
2.29
-0.02
-4.12
-1.1
-0.12
0.58
0.19
0.38
0.08

>  <PUBCHEM_SHAPE_SELFOVERLAP>  (1) 
636.179

>  <PUBCHEM_SHAPE_VOLUME>  (1) 
186.4

>  <PUBCHEM_COORDINATE_TYPE>  (1) 
2
5
10

$$$$
