28615
     RDKit          3D

 19 20  0  0  1  0  0  0  0  0999 V2000
   -0.5958    0.5290   -0.1155 N   0  0  0  0  0  0  0  0  0  0  0  0
   -0.9981   -2.8600    0.1574 N   0  0  0  0  0  0  0  0  0  0  0  0
    0.7509    0.2725    0.4037 C   0  0  0  0  0  0  0  0  0  0  0  0
    1.7733    1.1173   -0.3781 C   0  0  0  0  0  0  0  0  0  0  0  0
   -1.5710   -0.3183    0.5502 C   0  0  0  0  0  0  0  0  0  0  0  0
    0.7565    0.5834    1.9005 C   0  0  0  0  0  0  0  0  0  0  0  0
    3.1825    0.5797   -0.3069 C   0  0  0  0  0  0  0  0  0  0  0  0
   -2.9932    0.0134    0.1394 C   0  0  0  0  0  0  0  0  0  0  0  0
    4.0205    1.0044    0.7117 C   0  0  0  0  0  0  0  0  0  0  0  0
    3.6118   -0.3281   -1.2617 C   0  0  0  0  0  0  0  0  0  0  0  0
   -3.2401    0.4209   -1.1581 C   0  0  0  0  0  0  0  0  0  0  0  0
   -4.0059   -0.1001    1.0732 C   0  0  0  0  0  0  0  0  0  0  0  0
   -1.2506   -1.7402    0.3284 C   0  0  0  0  0  0  0  0  0  0  0  0
    5.3224    0.5079    0.7773 C   0  0  0  0  0  0  0  0  0  0  0  0
    4.9137   -0.8245   -1.1960 C   0  0  0  0  0  0  0  0  0  0  0  0
    5.7690   -0.4067   -0.1765 C   0  0  0  0  0  0  0  0  0  0  0  0
   -4.5478    0.7261   -1.5357 C   0  0  0  0  0  0  0  0  0  0  0  0
   -5.3136    0.2051    0.6956 C   0  0  0  0  0  0  0  0  0  0  0  0
   -5.5845    0.6181   -0.6088 C   0  0  0  0  0  0  0  0  0  0  0  0
  1  3  1  0
  1  5  1  0
  2 13  3  0
  3  4  1  0
  3  6  1  0
  4  7  1  0
  5  8  1  0
  5 13  1  0
  7  9  2  0
  7 10  1  0
  8 11  2  0
  8 12  1  0
  9 14  1  0
 10 15  2  0
 11 17  1  0
 12 18  2  0
 14 16  2  0
 15 16  1  0
 17 19  2  0
 18 19  1  0
M  END
>  <PUBCHEM_COMPOUND_CID>  (1) 
28615

>  <PUBCHEM_CONFORMER_RMSD>  (1) 
0.6

>  <PUBCHEM_CONFORMER_DIVERSEORDER>  (1) 
6
28
27
5
16
17
13
21
19
31
23
2
29
26
24
14
10
22
30
20
9
18
1
25
4
12
15
8
11
3
7

>  <PUBCHEM_MMFF94_PARTIAL_CHARGES>  (1) 
29
1 -0.9
10 -0.15
11 -0.15
12 -0.15
13 0.36
14 -0.15
15 -0.15
16 -0.15
17 -0.15
18 -0.15
19 -0.15
2 -0.56
23 0.36
28 0.15
29 0.15
3 0.27
30 0.15
31 0.15
32 0.15
33 0.15
34 0.15
35 0.15
36 0.15
37 0.15
4 0.14
5 0.61
7 -0.14
8 -0.14
9 -0.15

>  <PUBCHEM_EFFECTIVE_ROTOR_COUNT>  (1) 
5

>  <PUBCHEM_PHARMACOPHORE_FEATURES>  (1) 
5
1 1 cation
1 1 donor
1 2 acceptor
6 7 9 10 14 15 16 rings
6 8 11 12 17 18 19 rings

>  <PUBCHEM_HEAVY_ATOM_COUNT>  (1) 
19

>  <PUBCHEM_ATOM_DEF_STEREO_COUNT>  (1) 
0

>  <PUBCHEM_ATOM_UDEF_STEREO_COUNT>  (1) 
2

>  <PUBCHEM_BOND_DEF_STEREO_COUNT>  (1) 
0

>  <PUBCHEM_BOND_UDEF_STEREO_COUNT>  (1) 
0

>  <PUBCHEM_ISOTOPIC_ATOM_COUNT>  (1) 
0

>  <PUBCHEM_COMPONENT_COUNT>  (1) 
1

>  <PUBCHEM_CACTVS_TAUTO_COUNT>  (1) 
1

>  <PUBCHEM_CONFORMER_ID>  (1) 
00006FC700000006

>  <PUBCHEM_MMFF94_ENERGY>  (1) 
47.753

>  <PUBCHEM_FEATURE_SELFOVERLAP>  (1) 
25.371

>  <PUBCHEM_SHAPE_FINGERPRINT>  (1) 
10354089 29 13479135687943069724
10366900 7 17275113847066381466
10447042 23 16845568695709940580
105312 117 18186512199046337911
107951 10 17676494955457526154
10912923 1 15769781259916207768
11315181 36 13614522982555518250
12107183 9 14710824972544782477
12236239 1 15267342916176683748
12555020 224 18343866601931218670
12592029 89 17967536752749718474
12596602 18 13686292487768149846
12815109 37 16272209686750643256
12916748 109 18335140881926971841
13167823 11 16200432463750949548
13533116 47 17846220999866092038
13544592 145 18412548708541423638
14251751 18 14045446878385515533
14251751 93 18040997384091931483
14251764 18 14189576347855286661
14341114 176 13551475843209913733
14528608 73 15841267147095544232
15099037 51 18335422378288445549
15183329 4 18410573950823374304
15375358 24 18060423534198799606
15788980 27 18407759252733096900
15880784 105 15195293006299491686
17349148 13 17846506919701015160
17834072 33 15841830062266986960
17834072 8 18334577936558193980
17844677 252 17458352960897677973
17857418 61 15985099708563036173
18186145 218 18201145633812906777
18222031 100 14620801517955112536
19141452 34 18410856602863996654
19489759 90 13901911094251064995
200 152 16343985809959004840
20511986 3 15913035478900765540
20645477 56 18334572494476265164
20645477 70 17275391976136955252
21033648 29 18336530677683832737
21285901 2 18262523576651785260
220451 1 16200157607382164772
2215653 11 18272657827033590694
23402539 116 17989489610800567073
23536379 177 16773799177765296753
23559900 14 18201439233614292864
26918003 58 18060422430666381338
300161 21 16200148785514102876
3004659 81 16773802480901271740
340366 18 18187373180895645262
347723 3 18410294692018263648
3545911 37 16877940525708139877
3729539 64 18191876617267772622
4015057 19 17703501211592617320
439807 62 16127509628084092357
5283173 99 17417534596728357136
5385378 56 18189621544931062131
54446538 1 15574715802489315092
59755656 520 18273494581595360383
67856867 119 15266765728222112481
8988823 20 17561359583170887288
9971528 1 18131632296644217864

>  <PUBCHEM_SHAPE_MULTIPOLES>  (1) 
381.05
14.11
1.41
1.38
2.51
0.99
0.08
-1.24
2.68
0.37
-0.35
-0.66
-0.09
1.01

>  <PUBCHEM_SHAPE_SELFOVERLAP>  (1) 
801.094

>  <PUBCHEM_SHAPE_VOLUME>  (1) 
212.6

>  <PUBCHEM_COORDINATE_TYPE>  (1) 
2
5
10

$$$$
