28617
     RDKit          3D

 14 14  0  0  0  0  0  0  0  0999 V2000
    1.5883    0.0003   -0.9658 O   0  0  0  0  0  0  0  0  0  0  0  0
   -3.7266   -0.0004    0.5061 O   0  0  0  0  0  0  0  0  0  0  0  0
    2.1660    0.0013    1.2864 O   0  0  0  0  0  0  0  0  0  0  0  0
    3.8010    0.0000   -0.3596 N   0  0  0  0  0  0  0  0  0  0  0  0
   -1.7395   -1.2081   -0.0440 C   0  0  0  0  0  0  0  0  0  0  0  0
   -1.7401    1.2080   -0.0437 C   0  0  0  0  0  0  0  0  0  0  0  0
   -2.4121   -0.0002    0.1421 C   0  0  0  0  0  0  0  0  0  0  0  0
    0.2767    0.0002   -0.6017 C   0  0  0  0  0  0  0  0  0  0  0  0
   -0.3952   -1.2079   -0.4158 C   0  0  0  0  0  0  0  0  0  0  0  0
   -0.3956    1.2081   -0.4157 C   0  0  0  0  0  0  0  0  0  0  0  0
   -2.4412   -2.5118    0.1510 C   0  0  0  0  0  0  0  0  0  0  0  0
   -2.4425    2.5112    0.1506 C   0  0  0  0  0  0  0  0  0  0  0  0
    2.5021   -0.0002    0.1058 C   0  0  0  0  0  0  0  0  0  0  0  0
    4.9586   -0.0005    0.5042 C   0  0  0  0  0  0  0  0  0  0  0  0
  1  8  1  0
  1 13  1  0
  2  7  1  0
  3 13  2  0
  4 13  1  0
  4 14  1  0
  5  7  2  0
  5  9  1  0
  5 11  1  0
  6  7  1  0
  6 10  2  0
  6 12  1  0
  8  9  2  0
  8 10  1  0
M  END
>  <PUBCHEM_COMPOUND_CID>  (1) 
28617

>  <PUBCHEM_CONFORMER_RMSD>  (1) 
0.6

>  <PUBCHEM_CONFORMER_DIVERSEORDER>  (1) 
1
9
4
8
13
5
3
7
14
11
10
2
12
6

>  <PUBCHEM_MMFF94_PARTIAL_CHARGES>  (1) 
18
1 -0.23
10 -0.15
11 0.14
12 0.14
13 0.78
14 0.3
15 0.15
16 0.15
2 -0.53
23 0.45
24 0.37
3 -0.57
4 -0.73
5 -0.14
6 -0.14
7 0.08
8 0.08
9 -0.15

>  <PUBCHEM_EFFECTIVE_ROTOR_COUNT>  (1) 
3

>  <PUBCHEM_PHARMACOPHORE_FEATURES>  (1) 
4
1 2 donor
1 3 acceptor
1 4 donor
6 5 6 7 8 9 10 rings

>  <PUBCHEM_HEAVY_ATOM_COUNT>  (1) 
14

>  <PUBCHEM_ATOM_DEF_STEREO_COUNT>  (1) 
0

>  <PUBCHEM_ATOM_UDEF_STEREO_COUNT>  (1) 
0

>  <PUBCHEM_BOND_DEF_STEREO_COUNT>  (1) 
0

>  <PUBCHEM_BOND_UDEF_STEREO_COUNT>  (1) 
0

>  <PUBCHEM_ISOTOPIC_ATOM_COUNT>  (1) 
0

>  <PUBCHEM_COMPONENT_COUNT>  (1) 
1

>  <PUBCHEM_CACTVS_TAUTO_COUNT>  (1) 
4

>  <PUBCHEM_CONFORMER_ID>  (1) 
00006FC900000001

>  <PUBCHEM_MMFF94_ENERGY>  (1) 
36.4766

>  <PUBCHEM_FEATURE_SELFOVERLAP>  (1) 
20.297

>  <PUBCHEM_SHAPE_FINGERPRINT>  (1) 
11132069 177 18412830191638531422
12119455 92 17203325585304423885
12251169 10 18408324384545819724
124424 183 17775279418503526130
12500047 106 18338790113859069280
13024252 1 14201115691701630085
13140716 1 18267032841515039921
15219456 202 18059299738609609070
15375462 189 17822006540674802162
15653759 3 18202280329601638602
16945 1 18410866455761365479
17804303 29 18341899622910190372
19049666 15 17844539807436300470
19422 9 18186240645591500806
200 152 15646766799689454476
20510252 161 18271811159851143657
20645464 45 17989490709979476205
20645477 56 18340209596245094884
20645477 70 14273721938100305352
20871998 184 18272375312337353207
21650355 55 18338795740329517667
22445834 79 17967526840133789682
23175994 123 17060628793631354912
23402539 116 18341323449306314127
23557571 272 18201170879572910404
23559900 14 18200036123849490422
2748010 2 17977121075935123487
43471831 8 18261111812022206099
75552 356 18409449197709729533
77492 1 17676215684140967870
81228 2 18339936977896792695

>  <PUBCHEM_SHAPE_MULTIPOLES>  (1) 
265.52
6.87
2.02
0.84
8.95
0
-0.05
0
-1.49
-2.79
-0.07
0.31
0
0

>  <PUBCHEM_SHAPE_SELFOVERLAP>  (1) 
548.727

>  <PUBCHEM_SHAPE_VOLUME>  (1) 
152.8

>  <PUBCHEM_COORDINATE_TYPE>  (1) 
2
5
10

$$$$
