28639
     RDKit          3D

  8  8  0  0  1  0  0  0  0  0999 V2000
    1.2851   -1.0270    0.7133 O   0  0  0  0  0  0  0  0  0  0  0  0
    1.3300    0.2008   -0.0249 C   0  0  0  0  0  0  0  0  0  0  0  0
    0.2865   -0.8210   -0.2728 C   0  0  0  0  0  0  0  0  0  0  0  0
   -1.1129   -0.6772    0.3037 C   0  0  0  0  0  0  0  0  0  0  0  0
    1.1023    1.4199    0.7877 C   0  0  0  0  0  0  0  0  0  0  0  0
    2.4741    0.2930   -0.9633 C   0  0  0  0  0  0  0  0  0  0  0  0
   -1.9873    0.2225   -0.5675 C   0  0  0  0  0  0  0  0  0  0  0  0
   -3.3779    0.3889    0.0237 C   0  0  0  0  0  0  0  0  0  0  0  0
  1  2  1  0
  1  3  1  0
  2  3  1  0
  2  5  1  0
  2  6  1  0
  3  4  1  0
  4  7  1  0
  7  8  1  0
M  END
>  <PUBCHEM_COMPOUND_CID>  (1) 
28639

>  <PUBCHEM_CONFORMER_RMSD>  (1) 
0.4

>  <PUBCHEM_CONFORMER_DIVERSEORDER>  (1) 
1
8
13
3
11
7
10
5
2
6
4
9
12

>  <PUBCHEM_MMFF94_PARTIAL_CHARGES>  (1) 
7
1 -0.3
2 -0.04
3 -0.05
4 0.09
5 0.09
6 0.09
9 0.1

>  <PUBCHEM_EFFECTIVE_ROTOR_COUNT>  (1) 
2.6

>  <PUBCHEM_PHARMACOPHORE_FEATURES>  (1) 
3
1 1 acceptor
1 8 hydrophobe
3 2 5 6 hydrophobe

>  <PUBCHEM_HEAVY_ATOM_COUNT>  (1) 
8

>  <PUBCHEM_ATOM_DEF_STEREO_COUNT>  (1) 
0

>  <PUBCHEM_ATOM_UDEF_STEREO_COUNT>  (1) 
1

>  <PUBCHEM_BOND_DEF_STEREO_COUNT>  (1) 
0

>  <PUBCHEM_BOND_UDEF_STEREO_COUNT>  (1) 
0

>  <PUBCHEM_ISOTOPIC_ATOM_COUNT>  (1) 
0

>  <PUBCHEM_COMPONENT_COUNT>  (1) 
1

>  <PUBCHEM_CACTVS_TAUTO_COUNT>  (1) 
1

>  <PUBCHEM_CONFORMER_ID>  (1) 
00006FDF00000001

>  <PUBCHEM_MMFF94_ENERGY>  (1) 
8.32

>  <PUBCHEM_FEATURE_SELFOVERLAP>  (1) 
15.223

>  <PUBCHEM_SHAPE_FINGERPRINT>  (1) 
10857977 72 17385728028045285665
12932764 1 18410848867949487543
14390081 3 18411976992475432933
20096714 4 18341325703457372779
21040471 1 18261387913989047770
23235685 24 17894911853787897381
29004967 10 17489321810064067486
5084963 1 18263654037471094975

>  <PUBCHEM_SHAPE_MULTIPOLES>  (1) 
158.77
4.1
1.15
0.91
3.03
0.22
0.05
0.77
0.8
-0.32
-0.25
-0.32
0.02
0.08

>  <PUBCHEM_SHAPE_SELFOVERLAP>  (1) 
297.384

>  <PUBCHEM_SHAPE_VOLUME>  (1) 
102

>  <PUBCHEM_COORDINATE_TYPE>  (1) 
2
5
10

$$$$
