28649
     RDKit          3D

 15 17  0  0  1  0  0  0  0  0999 V2000
   -0.0040   -1.6580   -0.0010 O   0  0  0  0  0  0  0  0  0  0  0  0
   -0.4920   -0.4379   -0.5617 C   0  0  0  0  0  0  0  0  0  0  0  0
    0.4943   -0.4381    0.5629 C   0  0  0  0  0  0  0  0  0  0  0  0
   -1.9193   -0.1025   -0.2953 C   0  0  0  0  0  0  0  0  0  0  0  0
    1.9114   -0.1051    0.2975 C   0  0  0  0  0  0  0  0  0  0  0  0
   -2.8234   -1.1122    0.0347 C   0  0  0  0  0  0  0  0  0  0  0  0
    2.8252   -1.1125   -0.0349 C   0  0  0  0  0  0  0  0  0  0  0  0
   -2.3517    1.2212   -0.3771 C   0  0  0  0  0  0  0  0  0  0  0  0
    2.3539    1.2210    0.3773 C   0  0  0  0  0  0  0  0  0  0  0  0
   -4.1596   -0.7982    0.2830 C   0  0  0  0  0  0  0  0  0  0  0  0
    4.1612   -0.7985   -0.2840 C   0  0  0  0  0  0  0  0  0  0  0  0
   -3.6878    1.5353   -0.1286 C   0  0  0  0  0  0  0  0  0  0  0  0
    3.6899    1.5350    0.1280 C   0  0  0  0  0  0  0  0  0  0  0  0
   -4.5918    0.5255    0.2016 C   0  0  0  0  0  0  0  0  0  0  0  0
    4.5937    0.5252   -0.2026 C   0  0  0  0  0  0  0  0  0  0  0  0
  1  2  1  0
  1  3  1  0
  2  3  1  0
  2  4  1  0
  3  5  1  0
  4  6  2  0
  4  8  1  0
  5  7  2  0
  5  9  1  0
  6 10  1  0
  7 11  1  0
  8 12  2  0
  9 13  2  0
 10 14  2  0
 11 15  2  0
 12 14  1  0
 13 15  1  0
M  END
>  <PUBCHEM_COMPOUND_CID>  (1) 
28649

>  <PUBCHEM_CONFORMER_RMSD>  (1) 
0.6

>  <PUBCHEM_CONFORMER_DIVERSEORDER>  (1) 
1
3
6
7
2
4
5

>  <PUBCHEM_MMFF94_PARTIAL_CHARGES>  (1) 
27
1 -0.3
10 -0.15
11 -0.15
12 -0.15
13 -0.15
14 -0.15
15 -0.15
16 0.1
17 0.1
18 0.15
19 0.15
2 0.08
20 0.15
21 0.15
22 0.15
23 0.15
24 0.15
25 0.15
26 0.15
27 0.15
3 0.08
4 -0.03
5 -0.03
6 -0.15
7 -0.15
8 -0.15
9 -0.15

>  <PUBCHEM_EFFECTIVE_ROTOR_COUNT>  (1) 
2.6

>  <PUBCHEM_PHARMACOPHORE_FEATURES>  (1) 
3
1 1 acceptor
6 4 6 8 10 12 14 rings
6 5 7 9 11 13 15 rings

>  <PUBCHEM_HEAVY_ATOM_COUNT>  (1) 
15

>  <PUBCHEM_ATOM_DEF_STEREO_COUNT>  (1) 
0

>  <PUBCHEM_ATOM_UDEF_STEREO_COUNT>  (1) 
2

>  <PUBCHEM_BOND_DEF_STEREO_COUNT>  (1) 
0

>  <PUBCHEM_BOND_UDEF_STEREO_COUNT>  (1) 
0

>  <PUBCHEM_ISOTOPIC_ATOM_COUNT>  (1) 
0

>  <PUBCHEM_COMPONENT_COUNT>  (1) 
1

>  <PUBCHEM_CACTVS_TAUTO_COUNT>  (1) 
1

>  <PUBCHEM_CONFORMER_ID>  (1) 
00006FE900000001

>  <PUBCHEM_MMFF94_ENERGY>  (1) 
36.664

>  <PUBCHEM_FEATURE_SELFOVERLAP>  (1) 
15.223

>  <PUBCHEM_SHAPE_FINGERPRINT>  (1) 
10014705 185 18186514385384995597
10498660 4 18187636977624032685
10608611 8 18410852165888421152
10922049 32 18410858762963696431
11132069 177 18040714775180252245
11401426 45 10807934851417258263
11471102 20 18342738511996736438
11615757 297 17989490731633647939
12346645 44 18333729100570334419
12916748 109 18410578391904084408
13081056 2 18411419518204484853
13214271 11 18407759249034189687
13675066 3 18059850671212919858
13897977 58 18408326601012695109
14252887 29 13190335739024584048
14341114 176 18336274478657568305
14415576 193 18411984658907485078
14943859 89 18060136552530624975
15196674 1 18410573989446756225
15239154 128 18410576188469979300
15536298 74 18412544327437606164
17834072 33 18272646879093381263
18186145 218 18334851702000069086
200 152 17703790318704938027
20645477 56 18270112539077275296
20645477 70 17988931024676473590
21267235 1 18410582785539668002
212847 35 18409167701749013576
21652331 79 18408884044549277397
22854114 59 17676486146394308797
23402539 116 18130781269984855060
23402655 69 18272933830095300380
23559900 14 18197776600846245782
2916195 48 18200302338353938704
3545911 37 18410857659156789564
4028521 119 18260540096430456045
4047638 21 18410013247802493562
42 15 18333732407636961062
4214541 1 18411138021747422593
474 4 17314234543470470356
4990 188 18273220785408095950
5104073 3 18409166605978258242
522135 26 18341895182309749158
5281201 14 18341900675435732084
633830 44 18410007723820748278
6430166 295 18412258420033280672
69090 78 18342735255953012606
77779 3 18410575088958078694

>  <PUBCHEM_SHAPE_MULTIPOLES>  (1) 
302.82
10.05
1.59
0.7
0.02
0.21
0
1.82
0
0
0
0
0.01
0.3

>  <PUBCHEM_SHAPE_SELFOVERLAP>  (1) 
656.54

>  <PUBCHEM_SHAPE_VOLUME>  (1) 
165.9

>  <PUBCHEM_COORDINATE_TYPE>  (1) 
2
5
10

$$$$
