28643
     RDKit          3D

  7  6  0  0  0  0  0  0  0  0999 V2000
    0.3725    0.9849   -0.0098 S   0  0  0  0  0  0  0  0  0  0  0  0
    1.6112   -1.3507    0.0020 O   0  0  0  0  0  0  0  0  0  0  0  0
   -3.4408   -0.4108    0.0052 N   0  0  0  0  0  0  0  0  0  0  0  0
   -1.0085   -0.1948   -0.0178 C   0  0  0  0  0  0  0  0  0  0  0  0
   -2.3390    0.5470    0.0115 C   0  0  0  0  0  0  0  0  0  0  0  0
    1.7346   -0.1319    0.0004 C   0  0  0  0  0  0  0  0  0  0  0  0
    3.0700    0.5563    0.0086 C   0  0  0  0  0  0  0  0  0  0  0  0
  1  4  1  0
  1  6  1  0
  2  6  2  0
  3  5  1  0
  4  5  1  0
  6  7  1  0
M  END
>  <PUBCHEM_COMPOUND_CID>  (1) 
28643

>  <PUBCHEM_CONFORMER_RMSD>  (1) 
0.4

>  <PUBCHEM_CONFORMER_DIVERSEORDER>  (1) 
1
39
34
15
12
3
17
33
2
19
36
16
29
32
25
38
18
14
4
37
26
27
23
6
35
5
31
7
30
28
9
8
21
10
24
11
13
22
20

>  <PUBCHEM_MMFF94_PARTIAL_CHARGES>  (1) 
9
1 -0.37
12 0.36
13 0.36
2 -0.57
3 -0.99
4 0.23
5 0.27
6 0.65
7 0.06

>  <PUBCHEM_EFFECTIVE_ROTOR_COUNT>  (1) 
3

>  <PUBCHEM_PHARMACOPHORE_FEATURES>  (1) 
2
1 3 cation
1 3 donor

>  <PUBCHEM_HEAVY_ATOM_COUNT>  (1) 
7

>  <PUBCHEM_ATOM_DEF_STEREO_COUNT>  (1) 
0

>  <PUBCHEM_ATOM_UDEF_STEREO_COUNT>  (1) 
0

>  <PUBCHEM_BOND_DEF_STEREO_COUNT>  (1) 
0

>  <PUBCHEM_BOND_UDEF_STEREO_COUNT>  (1) 
0

>  <PUBCHEM_ISOTOPIC_ATOM_COUNT>  (1) 
0

>  <PUBCHEM_COMPONENT_COUNT>  (1) 
1

>  <PUBCHEM_CACTVS_TAUTO_COUNT>  (1) 
1

>  <PUBCHEM_CONFORMER_ID>  (1) 
00006FE300000001

>  <PUBCHEM_MMFF94_ENERGY>  (1) 
1.3349

>  <PUBCHEM_FEATURE_SELFOVERLAP>  (1) 
10.148

>  <PUBCHEM_SHAPE_FINGERPRINT>  (1) 
11062470 55 17240762895368168420
12932764 1 17203598277247243073
14325111 11 18410856542750109697
14390081 3 18343300370543453848
23552333 60 18341329994514758770
23552423 10 18117282458198236867
29004967 10 18261115162122557392
3248919 1 17095533876412324681
5460574 1 9223231849196223813

>  <PUBCHEM_SHAPE_MULTIPOLES>  (1) 
137.06
5.09
1.08
0.6
1.95
0.1
0
0.15
0.03
-0.34
0
-0.03
-0.04
0

>  <PUBCHEM_SHAPE_SELFOVERLAP>  (1) 
231.319

>  <PUBCHEM_SHAPE_VOLUME>  (1) 
93.1

>  <PUBCHEM_COORDINATE_TYPE>  (1) 
2
5
10

$$$$
