28647
     RDKit          3D

 23 25  0  0  0  0  0  0  0  0999 V2000
   -0.0726    4.6209    0.9305 Cl  0  0  0  0  0  0  0  0  0  0  0  0
   -3.2004   -1.7328    1.3117 F   0  0  0  0  0  0  0  0  0  0  0  0
    2.1423   -3.1617    0.7341 O   0  0  0  0  0  0  0  0  0  0  0  0
    2.1816   -0.8828    0.2488 N   0  0  0  0  0  0  0  0  0  0  0  0
   -0.6112   -1.6055    1.1975 N   0  0  0  0  0  0  0  0  0  0  0  0
    4.3389   -0.7497   -2.8045 N   0  0  0  0  0  0  0  0  0  0  0  0
    1.5944    0.4235    0.3749 C   0  0  0  0  0  0  0  0  0  0  0  0
    0.2168    0.6311    0.5948 C   0  0  0  0  0  0  0  0  0  0  0  0
    3.3878   -1.0186   -0.5677 C   0  0  0  0  0  0  0  0  0  0  0  0
   -0.7762   -0.4841    0.5811 C   0  0  0  0  0  0  0  0  0  0  0  0
    1.7041   -2.0215    0.9083 C   0  0  0  0  0  0  0  0  0  0  0  0
    0.6214   -1.7941    1.9330 C   0  0  0  0  0  0  0  0  0  0  0  0
    2.4153    1.5633    0.2632 C   0  0  0  0  0  0  0  0  0  0  0  0
    3.1191   -0.6350   -2.0154 C   0  0  0  0  0  0  0  0  0  0  0  0
   -0.2890    1.9317    0.7737 C   0  0  0  0  0  0  0  0  0  0  0  0
   -2.0356   -0.3187   -0.2008 C   0  0  0  0  0  0  0  0  0  0  0  0
    1.9021    2.8530    0.4222 C   0  0  0  0  0  0  0  0  0  0  0  0
    0.5526    3.0365    0.6896 C   0  0  0  0  0  0  0  0  0  0  0  0
   -3.1952   -0.9621    0.2147 C   0  0  0  0  0  0  0  0  0  0  0  0
   -2.0346    0.4796   -1.3384 C   0  0  0  0  0  0  0  0  0  0  0  0
   -4.3714   -0.8046   -0.5184 C   0  0  0  0  0  0  0  0  0  0  0  0
   -3.2109    0.6369   -2.0714 C   0  0  0  0  0  0  0  0  0  0  0  0
   -4.3792   -0.0052   -1.6615 C   0  0  0  0  0  0  0  0  0  0  0  0
  1 18  1  0
  2 19  1  0
  3 11  2  0
  4  7  1  0
  4  9  1  0
  4 11  1  0
  5 10  2  0
  5 12  1  0
  6 14  1  0
  7  8  2  0
  7 13  1  0
  8 10  1  0
  8 15  1  0
  9 14  1  0
 10 16  1  0
 11 12  1  0
 13 17  2  0
 15 18  2  0
 16 19  2  0
 16 20  1  0
 17 18  1  0
 19 21  1  0
 20 22  2  0
 21 23  2  0
 22 23  1  0
M  END
>  <PUBCHEM_COMPOUND_CID>  (1) 
28647

>  <PUBCHEM_CONFORMER_RMSD>  (1) 
0.6

>  <PUBCHEM_CONFORMER_DIVERSEORDER>  (1) 
1
13
20
12
17
4
22
21
14
11
2
3
18
6
9
5
16
19
10
7
15
8

>  <PUBCHEM_MMFF94_PARTIAL_CHARGES>  (1) 
32
1 -0.18
10 0.28
11 0.57
12 0.31
13 -0.15
14 0.27
15 -0.15
16 0.09
17 -0.15
18 0.18
19 0.19
2 -0.19
20 -0.15
21 -0.15
22 -0.15
23 -0.15
28 0.15
3 -0.57
31 0.15
32 0.15
33 0.15
34 0.36
35 0.36
36 0.15
37 0.15
38 0.15
4 -0.48
5 -0.7
6 -0.99
7 0.12
8 0.09
9 0.3

>  <PUBCHEM_EFFECTIVE_ROTOR_COUNT>  (1) 
3.4

>  <PUBCHEM_PHARMACOPHORE_FEATURES>  (1) 
7
1 3 acceptor
1 5 acceptor
1 6 cation
1 6 donor
6 16 19 20 21 22 23 rings
6 7 8 13 15 17 18 rings
7 4 5 7 8 10 11 12 rings

>  <PUBCHEM_HEAVY_ATOM_COUNT>  (1) 
23

>  <PUBCHEM_ATOM_DEF_STEREO_COUNT>  (1) 
0

>  <PUBCHEM_ATOM_UDEF_STEREO_COUNT>  (1) 
0

>  <PUBCHEM_BOND_DEF_STEREO_COUNT>  (1) 
0

>  <PUBCHEM_BOND_UDEF_STEREO_COUNT>  (1) 
0

>  <PUBCHEM_ISOTOPIC_ATOM_COUNT>  (1) 
0

>  <PUBCHEM_COMPONENT_COUNT>  (1) 
1

>  <PUBCHEM_CACTVS_TAUTO_COUNT>  (1) 
1

>  <PUBCHEM_CONFORMER_ID>  (1) 
00006FE700000001

>  <PUBCHEM_MMFF94_ENERGY>  (1) 
82.2595

>  <PUBCHEM_FEATURE_SELFOVERLAP>  (1) 
35.533

>  <PUBCHEM_SHAPE_FINGERPRINT>  (1) 
10165383 225 17542524068123656689
10906281 52 18268438013128778784
12160290 23 17625827058699183016
12293681 160 18261968396521016080
12553582 1 18340493248664573971
12623949 98 17621344732499049215
12707595 3 18412537708798057639
12730499 353 18191011516854726659
12788726 201 17981891839228704305
13149001 5 18266189515870084958
13681431 1 18130217254737496281
13911987 19 18264223555168010148
14866123 147 16393782361396772795
15475509 8 17844261627153400877
16945 1 18409445873405211642
1813 80 17846501404620141902
18186145 218 18335140925097749251
18981168 100 16590519359849351183
19049666 15 18188472641210874289
20645477 70 18201148962148635367
21524375 3 17684911880170867121
22112679 90 18053942844649182856
22182313 1 17973738157397119714
22620623 9 17557439690746910220
23419403 2 17762095363100049894
23526113 38 18267029542584660600
23536364 44 18264219023444658998
23557571 272 17626087656441104986
23559900 14 17241587473766414347
238 59 17834922606945774277
25 1 18193826270294795649
2748010 2 17683252725719944339
2803657 2 17613699436896758696
2838139 119 15864366786931009262
3323516 105 18334855060706861355
5262128 65 18202004347471497973
59444896 2 13931569466985709584
6438718 38 17628347178342276617
70251023 43 18060146396891105854
7364860 26 18264466508076536595
81228 2 17619600524545863761
9862522 239 16684280570316888776
9925002 15 17542779812130040728

>  <PUBCHEM_SHAPE_MULTIPOLES>  (1) 
447.11
6.71
3.84
1.96
4.44
4.78
1.21
-3.35
4.73
-2.38
-2
-0.73
-0.91
0.96

>  <PUBCHEM_SHAPE_SELFOVERLAP>  (1) 
965.253

>  <PUBCHEM_SHAPE_VOLUME>  (1) 
245.2

>  <PUBCHEM_COORDINATE_TYPE>  (1) 
2
5
10

$$$$
