28646
     RDKit          3D

 23 26  0  0  1  0  0  0  0  0999 V2000
    0.3315   -4.4900   -0.7010 O   0  0  0  0  0  0  0  0  0  0  0  0
   -4.2104    2.6207    0.4344 O   0  0  0  0  0  0  0  0  0  0  0  0
   -2.1574    3.2276    0.9390 O   0  0  0  0  0  0  0  0  0  0  0  0
    1.3613   -1.6896    0.7128 N   0  0  0  0  0  0  0  0  0  0  0  0
   -1.1944   -2.7755   -0.8147 N   0  0  0  0  0  0  0  0  0  0  0  0
   -2.9835    2.3786    0.5273 N   0  0  0  0  0  0  0  0  0  0  0  0
    0.8446   -0.7434   -0.3019 C   0  0  0  0  0  0  0  0  0  0  0  0
    1.7153   -0.9955    1.9591 C   0  0  0  0  0  0  0  0  0  0  0  0
    1.7393    0.4835   -0.4781 C   0  0  0  0  0  0  0  0  0  0  0  0
    2.8715   -0.0248    1.7226 C   0  0  0  0  0  0  0  0  0  0  0  0
   -0.6554   -0.4494   -0.1736 C   0  0  0  0  0  0  0  0  0  0  0  0
    2.6724    0.8418    0.5097 C   0  0  0  0  0  0  0  0  0  0  0  0
    0.4655   -2.8099    1.0057 C   0  0  0  0  0  0  0  0  0  0  0  0
   -1.5882   -1.4457   -0.5416 C   0  0  0  0  0  0  0  0  0  0  0  0
    1.6347    1.2704   -1.6386 C   0  0  0  0  0  0  0  0  0  0  0  0
   -0.1015   -3.4242   -0.2609 C   0  0  0  0  0  0  0  0  0  0  0  0
   -1.1456    0.8075    0.2165 C   0  0  0  0  0  0  0  0  0  0  0  0
    3.4778    1.9750    0.3272 C   0  0  0  0  0  0  0  0  0  0  0  0
   -2.9476   -1.1352   -0.6603 C   0  0  0  0  0  0  0  0  0  0  0  0
    2.4346    2.4003   -1.8062 C   0  0  0  0  0  0  0  0  0  0  0  0
    3.3539    2.7537   -0.8226 C   0  0  0  0  0  0  0  0  0  0  0  0
   -2.5111    1.0927    0.1524 C   0  0  0  0  0  0  0  0  0  0  0  0
   -3.4070    0.1315   -0.3073 C   0  0  0  0  0  0  0  0  0  0  0  0
  1 16  2  0
  2  6  1  0
  3  6  2  0
  4  7  1  0
  4  8  1  0
  4 13  1  0
  5 14  1  0
  5 16  1  0
  6 22  1  0
  7  9  1  0
  7 11  1  0
  8 10  1  0
  9 12  2  0
  9 15  1  0
 10 12  1  0
 11 14  2  0
 11 17  1  0
 12 18  1  0
 13 16  1  0
 14 19  1  0
 15 20  2  0
 17 22  2  0
 18 21  2  0
 19 23  2  0
 20 21  1  0
 22 23  1  0
M  CHG  2   2  -1   6   1
M  END
>  <PUBCHEM_COMPOUND_CID>  (1) 
28646

>  <PUBCHEM_CONFORMER_RMSD>  (1) 
0.6

>  <PUBCHEM_CONFORMER_DIVERSEORDER>  (1) 
2
4
3
1
5
6
7
8

>  <PUBCHEM_MMFF94_PARTIAL_CHARGES>  (1) 
31
1 -0.57
10 0.14
11 -0.14
12 -0.14
13 0.33
14 0.12
15 -0.15
16 0.57
17 -0.15
18 -0.15
19 -0.15
2 -0.52
20 -0.15
21 -0.15
22 0.13
23 -0.15
3 -0.52
31 0.15
32 0.15
33 0.15
34 0.37
35 0.15
36 0.15
37 0.15
38 0.15
4 -0.81
5 -0.55
6 0.91
7 0.56
8 0.27
9 -0.14

>  <PUBCHEM_EFFECTIVE_ROTOR_COUNT>  (1) 
1.8

>  <PUBCHEM_PHARMACOPHORE_FEATURES>  (1) 
10
1 1 acceptor
1 2 acceptor
1 2 anion
1 3 acceptor
1 4 cation
1 5 donor
6 11 14 17 19 22 23 rings
6 4 7 8 9 10 12 rings
6 9 12 15 18 20 21 rings
7 4 5 7 11 13 14 16 rings

>  <PUBCHEM_HEAVY_ATOM_COUNT>  (1) 
23

>  <PUBCHEM_ATOM_DEF_STEREO_COUNT>  (1) 
0

>  <PUBCHEM_ATOM_UDEF_STEREO_COUNT>  (1) 
1

>  <PUBCHEM_BOND_DEF_STEREO_COUNT>  (1) 
0

>  <PUBCHEM_BOND_UDEF_STEREO_COUNT>  (1) 
0

>  <PUBCHEM_ISOTOPIC_ATOM_COUNT>  (1) 
0

>  <PUBCHEM_COMPONENT_COUNT>  (1) 
1

>  <PUBCHEM_CACTVS_TAUTO_COUNT>  (1) 
2

>  <PUBCHEM_CONFORMER_ID>  (1) 
00006FE600000002

>  <PUBCHEM_MMFF94_ENERGY>  (1) 
87.0623

>  <PUBCHEM_FEATURE_SELFOVERLAP>  (1) 
50.869

>  <PUBCHEM_SHAPE_FINGERPRINT>  (1) 
10369192 42 12975031704852595164
11582403 64 12404962558984713758
11640471 11 18041840752275420764
11725454 13 16557030542080186298
12173636 292 18341047518736912565
12293681 160 17324631671092703842
12553582 1 17547568640029889999
12788726 201 17831024889437952390
13009979 54 17829577881197884386
13140716 1 18336547122922990641
13583140 156 17242450509048335441
13965767 371 18118672236754396144
14081887 123 17836632399045799288
14178342 30 18267008467328007627
14739800 52 17836912766491504624
14787075 74 17464822663672850187
14790565 3 18268440208130977017
14955137 171 18048332054298816714
15420108 30 18052513514130429410
1601671 61 17906173949675579794
16752209 62 18342450495652958797
16945 1 18053107503633007846
17818456 19 18266726060791513944
20510252 161 18271249442626877329
20715895 44 17973136476104207453
20739085 24 18046620114810271290
20775438 99 14665818140001467982
21524375 3 18187650262041995628
21756936 100 17317638665935701252
22149856 69 18058171632208441065
23419403 2 16112570193386253898
23557571 272 17697325375375976476
23558518 356 18409165536600615546
2748010 2 17039206733181908814
350125 39 18411429388118400495
352729 6 18337943597354230447
3797600 57 17607268702771164025
394222 165 17895738703912353355
4340502 62 16878496977508164931
474 4 18040714779211780641
539174 4 17824520058832147776
6992083 37 18117250654435025642
7364860 26 18053101722659820211
81228 2 17841165642468634235

>  <PUBCHEM_SHAPE_MULTIPOLES>  (1) 
440.78
5.82
4.5
1.44
1.95
1.25
-0.13
-4.74
0.51
-3.52
-0.32
1.06
0.05
-2.09

>  <PUBCHEM_SHAPE_SELFOVERLAP>  (1) 
976.996

>  <PUBCHEM_SHAPE_VOLUME>  (1) 
233.4

>  <PUBCHEM_COORDINATE_TYPE>  (1) 
2
5
10

$$$$
