28650
     RDKit          3D

 17 16  0  0  0  0  0  0  0  0999 V2000
    0.0003   -0.0010    0.0002 Si  0  0  0  0  0  4  0  0  0  0  0  0
    0.9642   -0.9646    0.9720 O   0  0  0  0  0  0  0  0  0  0  0  0
   -0.9634   -0.9640   -0.9722 O   0  0  0  0  0  0  0  0  0  0  0  0
   -0.9626    0.9619    0.9735 O   0  0  0  0  0  0  0  0  0  0  0  0
    0.9627    0.9626   -0.9727 O   0  0  0  0  0  0  0  0  0  0  0  0
    3.3457   -1.6837    2.2525 O   0  0  0  0  0  0  0  0  0  0  0  0
   -3.3446   -1.6821   -2.2539 O   0  0  0  0  0  0  0  0  0  0  0  0
   -3.3436    1.6817    2.2544 O   0  0  0  0  0  0  0  0  0  0  0  0
    3.3439    1.6850   -2.2518 O   0  0  0  0  0  0  0  0  0  0  0  0
    1.8770   -1.8727    0.3714 C   0  0  0  0  0  0  0  0  0  0  0  0
   -1.8763   -1.8727   -0.3728 C   0  0  0  0  0  0  0  0  0  0  0  0
   -1.8737    1.8727    0.3746 C   0  0  0  0  0  0  0  0  0  0  0  0
    1.8715    1.8757   -0.3739 C   0  0  0  0  0  0  0  0  0  0  0  0
    2.6222   -2.6187    1.4614 C   0  0  0  0  0  0  0  0  0  0  0  0
   -2.6212   -2.6177   -1.4636 C   0  0  0  0  0  0  0  0  0  0  0  0
   -2.6182    2.6174    1.4659 C   0  0  0  0  0  0  0  0  0  0  0  0
    2.6160    2.6203   -1.4652 C   0  0  0  0  0  0  0  0  0  0  0  0
  1  2  1  0
  1  3  1  0
  1  4  1  0
  1  5  1  0
  2 10  1  0
  3 11  1  0
  4 12  1  0
  5 13  1  0
  6 14  1  0
  7 15  1  0
  8 16  1  0
  9 17  1  0
 10 14  1  0
 11 15  1  0
 12 16  1  0
 13 17  1  0
M  END
>  <PUBCHEM_COMPOUND_CID>  (1) 
28650

>  <PUBCHEM_CONFORMER_RMSD>  (1) 
1

>  <PUBCHEM_CONFORMER_DIVERSEORDER>  (1) 
1
6
11
5
8
3
4
2
10
7
9

>  <PUBCHEM_MMFF94_PARTIAL_CHARGES>  (1) 
21
1 1.19
10 0.28
11 0.28
12 0.28
13 0.28
14 0.28
15 0.28
16 0.28
17 0.28
2 -0.58
3 -0.58
34 0.4
35 0.4
36 0.4
37 0.4
4 -0.58
5 -0.58
6 -0.68
7 -0.68
8 -0.68
9 -0.68

>  <PUBCHEM_EFFECTIVE_ROTOR_COUNT>  (1) 
12

>  <PUBCHEM_PHARMACOPHORE_FEATURES>  (1) 
8
1 6 acceptor
1 6 donor
1 7 acceptor
1 7 donor
1 8 acceptor
1 8 donor
1 9 acceptor
1 9 donor

>  <PUBCHEM_HEAVY_ATOM_COUNT>  (1) 
17

>  <PUBCHEM_ATOM_DEF_STEREO_COUNT>  (1) 
0

>  <PUBCHEM_ATOM_UDEF_STEREO_COUNT>  (1) 
0

>  <PUBCHEM_BOND_DEF_STEREO_COUNT>  (1) 
0

>  <PUBCHEM_BOND_UDEF_STEREO_COUNT>  (1) 
0

>  <PUBCHEM_ISOTOPIC_ATOM_COUNT>  (1) 
0

>  <PUBCHEM_COMPONENT_COUNT>  (1) 
1

>  <PUBCHEM_CACTVS_TAUTO_COUNT>  (1) 
1

>  <PUBCHEM_CONFORMER_ID>  (1) 
00006FEA00000001

>  <PUBCHEM_MMFF94_ENERGY>  (1) 
18.3691

>  <PUBCHEM_FEATURE_SELFOVERLAP>  (1) 
40.6

>  <PUBCHEM_SHAPE_FINGERPRINT>  (1) 
10756046 70 18264777553655244701
12035759 4 18410856598294495669
133893 2 17749101210550668280
14617773 55 18341043090678384011
14943834 7 18410575088958046212
15502722 9 17606378081157439630
18186145 218 17686057597004091989
18915476 22 17458902746934384403
20600515 1 17396922112524852691
20671657 53 17608330680638106958
20711985 344 17845383296211196527
21524375 3 18050608176164587596
22112679 90 18336541595648473974
22620623 9 16986343661902680869
23419403 2 17403111284967776778
23526113 38 17116635995503705950
23557571 272 17060337435286056104
23558518 356 17907041790767890508
23598291 2 18410301302194393846
266924 1 18410855503083109711
266924 78 17822016427579039911
2748010 2 17113819587784212726
3060560 45 17766589883478059765
394222 165 16809513677588840296
68419 9 18342740727682915977
6992083 37 18122329195100186594
81228 2 18122319325360942051
9925002 15 18340754945274753160

>  <PUBCHEM_SHAPE_MULTIPOLES>  (1) 
321.11
5.49
3.96
2.3
0
0
0
-0.01
0
0.01
0
0
0
-5.4

>  <PUBCHEM_SHAPE_SELFOVERLAP>  (1) 
588.679

>  <PUBCHEM_SHAPE_VOLUME>  (1) 
202.6

>  <PUBCHEM_COORDINATE_TYPE>  (1) 
2
5
10

$$$$
