28668
     RDKit          3D

 13 13  0  0  0  0  0  0  0  0999 V2000
   -4.5537   -1.3162    1.2036 I   0  0  0  0  0  0  0  0  0  0  0  0
    3.3277   -1.2776   -0.0955 O   0  0  0  0  0  0  0  0  0  0  0  0
   -2.7319    1.4413   -0.1240 O   0  0  0  0  0  0  0  0  0  0  0  0
   -1.4002   -0.4816   -0.3895 N   0  0  0  0  0  0  0  0  0  0  0  0
   -0.1045   -0.0123   -0.1711 C   0  0  0  0  0  0  0  0  0  0  0  0
    0.9770   -0.8904   -0.2427 C   0  0  0  0  0  0  0  0  0  0  0  0
    2.2722   -0.4208   -0.0254 C   0  0  0  0  0  0  0  0  0  0  0  0
    0.1093    1.3354    0.1181 C   0  0  0  0  0  0  0  0  0  0  0  0
    2.4861    0.9268    0.2640 C   0  0  0  0  0  0  0  0  0  0  0  0
    1.4046    1.8049    0.3357 C   0  0  0  0  0  0  0  0  0  0  0  0
   -2.6005    0.2431   -0.3608 C   0  0  0  0  0  0  0  0  0  0  0  0
   -3.8106   -0.6222   -0.6499 C   0  0  0  0  0  0  0  0  0  0  0  0
    4.6245   -0.7305    0.1375 C   0  0  0  0  0  0  0  0  0  0  0  0
  1 12  1  0
  2  7  1  0
  2 13  1  0
  3 11  2  0
  4  5  1  0
  4 11  1  0
  5  6  2  0
  5  8  1  0
  6  7  1  0
  7  9  2  0
  8 10  2  0
  9 10  1  0
 11 12  1  0
M  END
>  <PUBCHEM_COMPOUND_CID>  (1) 
28668

>  <PUBCHEM_CONFORMER_RMSD>  (1) 
0.6

>  <PUBCHEM_CONFORMER_DIVERSEORDER>  (1) 
1
24
11
18
16
6
22
8
10
20
13
3
5
15
17
4
23
14
12
21
7
19
2
9

>  <PUBCHEM_MMFF94_PARTIAL_CHARGES>  (1) 
18
1 -0.19
10 -0.15
11 0.57
12 0.25
13 0.28
14 0.15
15 0.15
16 0.37
17 0.15
18 0.15
2 -0.36
3 -0.57
4 -0.55
5 0.12
6 -0.15
7 0.08
8 -0.15
9 -0.15

>  <PUBCHEM_EFFECTIVE_ROTOR_COUNT>  (1) 
4

>  <PUBCHEM_PHARMACOPHORE_FEATURES>  (1) 
5
1 1 hydrophobe
1 2 acceptor
1 3 acceptor
1 4 donor
6 5 6 7 8 9 10 rings

>  <PUBCHEM_HEAVY_ATOM_COUNT>  (1) 
13

>  <PUBCHEM_ATOM_DEF_STEREO_COUNT>  (1) 
0

>  <PUBCHEM_ATOM_UDEF_STEREO_COUNT>  (1) 
0

>  <PUBCHEM_BOND_DEF_STEREO_COUNT>  (1) 
0

>  <PUBCHEM_BOND_UDEF_STEREO_COUNT>  (1) 
0

>  <PUBCHEM_ISOTOPIC_ATOM_COUNT>  (1) 
0

>  <PUBCHEM_COMPONENT_COUNT>  (1) 
1

>  <PUBCHEM_CACTVS_TAUTO_COUNT>  (1) 
2

>  <PUBCHEM_CONFORMER_ID>  (1) 
00006FFC00000001

>  <PUBCHEM_MMFF94_ENERGY>  (1) 
43.5649

>  <PUBCHEM_FEATURE_SELFOVERLAP>  (1) 
25.371

>  <PUBCHEM_SHAPE_FINGERPRINT>  (1) 
11543360 7 16370733646513257134
12032990 46 18409731754970797406
12932764 1 17703223026798257653
14123255 352 11743839149075570571
14252887 29 17988647363571854446
14325111 11 18412821399946257397
17041 49 16773802536514183801
17834074 16 18260548948147238363
17844478 74 18334858346594258693
18186145 218 17749382672405275661
200 152 17988633108838682055
20645477 70 18341884204315513727
20871998 22 18059301946317816174
21041028 32 18272098196937272185
21267235 1 18413114952724445294
21501925 9 18341601625331474624
221490 88 18335423525197713851
23402539 116 17489577949202915445
26918003 58 18409168827209683091
42 15 18410858767595949075
4990 188 12757433800428014898
5104073 3 18411697664681866264
7364860 26 18200587129019157648
8809292 202 18260832639395665091

>  <PUBCHEM_SHAPE_MULTIPOLES>  (1) 
262.75
8.8
1.65
0.86
3.05
0.37
-0.13
-4.36
-1.54
-0.27
-0.24
0.79
-0.13
0.72

>  <PUBCHEM_SHAPE_SELFOVERLAP>  (1) 
515.948

>  <PUBCHEM_SHAPE_VOLUME>  (1) 
160.6

>  <PUBCHEM_COORDINATE_TYPE>  (1) 
2
5
10

$$$$
