28672
     RDKit          3D

 14 14  0  0  0  0  0  0  0  0999 V2000
   -4.9023   -1.4539    1.1814 I   0  0  0  0  0  0  0  0  0  0  0  0
    3.0222   -0.8534    0.3771 O   0  0  0  0  0  0  0  0  0  0  0  0
   -3.2256    1.2625   -0.3981 O   0  0  0  0  0  0  0  0  0  0  0  0
   -1.7213   -0.5463   -0.3142 N   0  0  0  0  0  0  0  0  0  0  0  0
   -0.4891    0.0663   -0.0831 C   0  0  0  0  0  0  0  0  0  0  0  0
    1.8963   -0.0966    0.2635 C   0  0  0  0  0  0  0  0  0  0  0  0
    0.6645   -0.7092    0.0335 C   0  0  0  0  0  0  0  0  0  0  0  0
   -0.4109    1.4543    0.0306 C   0  0  0  0  0  0  0  0  0  0  0  0
    1.9745    1.2914    0.3771 C   0  0  0  0  0  0  0  0  0  0  0  0
    0.8209    2.0669    0.2608 C   0  0  0  0  0  0  0  0  0  0  0  0
    4.2498   -0.2571   -0.0388 C   0  0  0  0  0  0  0  0  0  0  0  0
   -2.9770    0.0611   -0.4594 C   0  0  0  0  0  0  0  0  0  0  0  0
    5.1837   -1.3425   -0.5300 C   0  0  0  0  0  0  0  0  0  0  0  0
   -4.0858   -0.9435   -0.7006 C   0  0  0  0  0  0  0  0  0  0  0  0
  1 14  1  0
  2  6  1  0
  2 11  1  0
  3 12  2  0
  4  5  1  0
  4 12  1  0
  5  7  2  0
  5  8  1  0
  6  7  1  0
  6  9  2  0
  8 10  2  0
  9 10  1  0
 11 13  1  0
 12 14  1  0
M  END
>  <PUBCHEM_COMPOUND_CID>  (1) 
28672

>  <PUBCHEM_CONFORMER_RMSD>  (1) 
0.6

>  <PUBCHEM_CONFORMER_DIVERSEORDER>  (1) 
2
63
34
39
26
55
31
15
41
66
22
46
16
59
17
43
58
56
8
28
50
35
30
19
62
3
40
61
18
6
32
24
48
25
68
27
64
1
54
4
51
65
38
45
53
42
20
11
52
10
37
57
36
47
44
49
12
60
9
21
67
5
33
13
29
23
14
7

>  <PUBCHEM_MMFF94_PARTIAL_CHARGES>  (1) 
18
1 -0.19
10 -0.15
11 0.28
12 0.57
14 0.25
15 0.15
16 0.15
17 0.15
18 0.15
19 0.37
2 -0.36
3 -0.57
4 -0.55
5 0.12
6 0.08
7 -0.15
8 -0.15
9 -0.15

>  <PUBCHEM_EFFECTIVE_ROTOR_COUNT>  (1) 
5

>  <PUBCHEM_PHARMACOPHORE_FEATURES>  (1) 
5
1 1 hydrophobe
1 2 acceptor
1 3 acceptor
1 4 donor
6 5 6 7 8 9 10 rings

>  <PUBCHEM_HEAVY_ATOM_COUNT>  (1) 
14

>  <PUBCHEM_ATOM_DEF_STEREO_COUNT>  (1) 
0

>  <PUBCHEM_ATOM_UDEF_STEREO_COUNT>  (1) 
0

>  <PUBCHEM_BOND_DEF_STEREO_COUNT>  (1) 
0

>  <PUBCHEM_BOND_UDEF_STEREO_COUNT>  (1) 
0

>  <PUBCHEM_ISOTOPIC_ATOM_COUNT>  (1) 
0

>  <PUBCHEM_COMPONENT_COUNT>  (1) 
1

>  <PUBCHEM_CACTVS_TAUTO_COUNT>  (1) 
2

>  <PUBCHEM_CONFORMER_ID>  (1) 
0000700000000002

>  <PUBCHEM_MMFF94_ENERGY>  (1) 
41.5524

>  <PUBCHEM_FEATURE_SELFOVERLAP>  (1) 
25.371

>  <PUBCHEM_SHAPE_FINGERPRINT>  (1) 
11543360 7 16153429462644740679
12032990 46 18411418418676798952
12119455 92 10375871857409416128
12916754 54 18200026386900180247
13675066 3 18202274827331872425
13690532 89 18343017791976270006
13740256 8 18408610287523231226
13760787 19 17458621160335613659
13862211 1 18412537700424771030
14251718 22 17023188261735853082
14251732 14 16081661079278774219
14252887 29 18060140929545632198
14350574 20 18187932810734091515
14455015 7 18335988635688821483
17834072 33 15936413372313615751
18186145 218 17822282496470993533
20281475 54 18041272167250800802
20645477 70 18339628049452391535
20871998 22 18131078082390013102
20871999 31 16081087099933524523
21029758 27 18408044017554685533
21041028 32 18343311379082937825
21267235 1 18411987961415868006
221490 88 18191588751262953451
23402539 116 18340480067932052062
23559900 14 17968372468013349905
4463277 17 18413672409330214440
5104073 3 18412258419959766344
7364860 26 18128248081421391776
8809292 202 18188209913650580819

>  <PUBCHEM_SHAPE_MULTIPOLES>  (1) 
283.33
10.33
1.8
0.88
0.56
0.55
-0.09
-6.84
-0.36
-0.26
-0.18
0.78
-0.17
0.93

>  <PUBCHEM_SHAPE_SELFOVERLAP>  (1) 
553.489

>  <PUBCHEM_SHAPE_VOLUME>  (1) 
173.5

>  <PUBCHEM_COORDINATE_TYPE>  (1) 
2
5
10

$$$$
