28675
     RDKit          3D

 44 47  0  0  1  0  0  0  0  0999 V2000
    7.3468    1.3674   -1.1523 O   0  0  0  0  0  0  0  0  0  0  0  0
    6.3504   -0.4552   -0.0110 O   0  0  0  0  0  0  0  0  0  0  0  0
    2.8564    0.0601    0.9941 O   0  0  0  0  0  0  0  0  0  0  0  0
   10.6753   -1.0429   -0.7196 O   0  0  0  0  0  0  0  0  0  0  0  0
    8.0701   -2.2181   -1.3180 O   0  0  0  0  0  0  0  0  0  0  0  0
    0.4930   -3.2366    0.9506 O   0  0  0  0  0  0  0  0  0  0  0  0
   -3.1462    1.1776   -1.1999 O   0  0  0  0  0  0  0  0  0  0  0  0
  -11.6550    2.3958    0.7275 O   0  0  0  0  0  0  0  0  0  0  0  0
  -10.0146   -1.5444    0.3198 O   0  0  0  0  0  0  0  0  0  0  0  0
   10.5023    1.3967    0.8483 N   0  0  0  0  0  0  0  0  0  0  0  0
    0.8652   -1.0060    0.4698 N   0  0  0  0  0  0  0  0  0  0  0  0
   -1.3519   -1.9411    0.6613 N   0  0  0  0  0  0  0  0  0  0  0  0
   -3.1700   -0.5525    0.3516 N   0  0  0  0  0  0  0  0  0  0  0  0
   -9.4146    0.6402   -0.2663 N   0  0  0  0  0  0  0  0  0  0  0  0
  -12.6189   -1.1307    0.2311 N   0  0  0  0  0  0  0  0  0  0  0  0
    9.6012    1.0635   -0.2576 C   0  0  0  0  0  0  0  0  0  0  0  0
    9.4286   -0.4626   -0.3302 C   0  0  0  0  0  0  0  0  0  0  0  0
    8.3670   -0.8271   -1.3711 C   0  0  0  0  0  0  0  0  0  0  0  0
    7.0762   -0.0346   -1.1649 C   0  0  0  0  0  0  0  0  0  0  0  0
    8.2395    1.7663   -0.1018 C   0  0  0  0  0  0  0  0  0  0  0  0
    4.9494   -0.2960   -0.1944 C   0  0  0  0  0  0  0  0  0  0  0  0
    4.3715   -1.5583   -0.8326 C   0  0  0  0  0  0  0  0  0  0  0  0
    4.2765   -0.0166    1.1546 C   0  0  0  0  0  0  0  0  0  0  0  0
    2.8505   -1.4933   -0.8728 C   0  0  0  0  0  0  0  0  0  0  0  0
    2.2954   -1.1586    0.5092 C   0  0  0  0  0  0  0  0  0  0  0  0
    8.3458    3.2879   -0.1817 C   0  0  0  0  0  0  0  0  0  0  0  0
    4.7437    1.3055    1.7549 C   0  0  0  0  0  0  0  0  0  0  0  0
   11.8941    1.2015    0.4471 C   0  0  0  0  0  0  0  0  0  0  0  0
   10.1881    0.5851    2.0227 C   0  0  0  0  0  0  0  0  0  0  0  0
    0.3037    0.2354    0.1989 C   0  0  0  0  0  0  0  0  0  0  0  0
    0.0217   -2.1243    0.7077 C   0  0  0  0  0  0  0  0  0  0  0  0
   -1.0130    0.4393    0.1489 C   0  0  0  0  0  0  0  0  0  0  0  0
   -1.8179   -0.7643    0.4048 C   0  0  0  0  0  0  0  0  0  0  0  0
   -3.7519    0.4126   -0.4537 C   0  0  0  0  0  0  0  0  0  0  0  0
   -5.2355    0.4718   -0.4048 C   0  0  0  0  0  0  0  0  0  0  0  0
  -11.8014    0.0680   -0.0195 C   0  0  0  0  0  0  0  0  0  0  0  0
   -5.8947    1.6702   -0.6786 C   0  0  0  0  0  0  0  0  0  0  0  0
   -5.9694   -0.6703   -0.0844 C   0  0  0  0  0  0  0  0  0  0  0  0
  -10.3224   -0.3890    0.0329 C   0  0  0  0  0  0  0  0  0  0  0  0
  -12.1152    1.0970    1.0829 C   0  0  0  0  0  0  0  0  0  0  0  0
   -8.0214    0.5843   -0.3117 C   0  0  0  0  0  0  0  0  0  0  0  0
  -12.1481    0.5836   -1.4220 C   0  0  0  0  0  0  0  0  0  0  0  0
   -7.2876    1.7265   -0.6321 C   0  0  0  0  0  0  0  0  0  0  0  0
   -7.3623   -0.6142   -0.0379 C   0  0  0  0  0  0  0  0  0  0  0  0
  1 19  1  0
  1 20  1  0
  2 19  1  0
  2 21  1  0
  3 23  1  0
  3 25  1  0
  4 17  1  0
  5 18  1  0
  6 31  2  0
  7 34  2  0
  8 40  1  0
  9 39  2  0
 10 16  1  0
 10 28  1  0
 10 29  1  0
 11 25  1  0
 11 30  1  0
 11 31  1  0
 12 31  1  0
 12 33  2  0
 13 33  1  0
 13 34  1  0
 14 39  1  0
 14 41  1  0
 15 36  1  0
 16 17  1  0
 16 20  1  0
 17 18  1  0
 18 19  1  0
 20 26  1  0
 21 22  1  0
 21 23  1  0
 22 24  1  0
 23 27  1  0
 24 25  1  0
 30 32  2  0
 32 33  1  0
 34 35  1  0
 35 37  2  0
 35 38  1  0
 36 39  1  0
 36 40  1  0
 36 42  1  0
 37 43  1  0
 38 44  2  0
 41 43  2  0
 41 44  1  0
M  END
>  <PUBCHEM_COMPOUND_CID>  (1) 
28675

>  <PUBCHEM_CONFORMER_RMSD>  (1) 
1.2

>  <PUBCHEM_CONFORMER_DIVERSEORDER>  (1) 
1
9
51
23
21
62
13
25
24
29
55
52
45
26
54
34
14
20
53
7
58
18
38
31
46
57
32
50
60
63
33
28
4
11
47
61
48
39
41
40
43
16
42
27
6
56
17
2
59
19
5
49
35
44
37
30
10
15
36
22
3
12
8

>  <PUBCHEM_MMFF94_PARTIAL_CHARGES>  (1) 
52
1 -0.56
10 -0.81
11 -0.47
12 -0.66
13 -0.49
14 -0.55
15 -0.99
16 0.27
17 0.28
18 0.28
19 0.56
2 -0.56
20 0.28
21 0.28
23 0.28
25 0.58
28 0.27
29 0.27
3 -0.56
30 -0.04
31 0.84
32 -0.14
33 0.5
34 0.54
35 0.09
36 0.33
37 -0.15
38 -0.15
39 0.57
4 -0.68
40 0.28
41 0.12
43 -0.15
44 -0.15
5 -0.68
6 -0.57
63 0.4
64 0.4
7 -0.57
71 0.15
72 0.15
73 0.37
74 0.15
75 0.15
8 -0.68
81 0.37
82 0.15
83 0.15
84 0.36
85 0.36
86 0.4
9 -0.57

>  <PUBCHEM_EFFECTIVE_ROTOR_COUNT>  (1) 
13.4

>  <PUBCHEM_PHARMACOPHORE_FEATURES>  (1) 
22
1 1 acceptor
1 10 cation
1 12 donor
1 13 donor
1 14 donor
1 15 cation
1 15 donor
1 2 acceptor
1 3 acceptor
1 4 acceptor
1 4 donor
1 5 acceptor
1 5 donor
1 6 acceptor
1 7 acceptor
1 8 acceptor
1 8 donor
1 9 acceptor
6 1 16 17 18 19 20 rings
6 11 12 30 31 32 33 rings
6 3 21 22 23 24 25 rings
6 35 37 38 41 43 44 rings

>  <PUBCHEM_HEAVY_ATOM_COUNT>  (1) 
44

>  <PUBCHEM_ATOM_DEF_STEREO_COUNT>  (1) 
9

>  <PUBCHEM_ATOM_UDEF_STEREO_COUNT>  (1) 
0

>  <PUBCHEM_BOND_DEF_STEREO_COUNT>  (1) 
0

>  <PUBCHEM_BOND_UDEF_STEREO_COUNT>  (1) 
0

>  <PUBCHEM_ISOTOPIC_ATOM_COUNT>  (1) 
0

>  <PUBCHEM_COMPONENT_COUNT>  (1) 
1

>  <PUBCHEM_CACTVS_TAUTO_COUNT>  (1) 
11

>  <PUBCHEM_CONFORMER_ID>  (1) 
0000700300000001

>  <PUBCHEM_MMFF94_ENERGY>  (1) 
147.3847

>  <PUBCHEM_FEATURE_SELFOVERLAP>  (1) 
111.756

>  <PUBCHEM_SHAPE_FINGERPRINT>  (1) 
11061554 47 18259982660809374404
11443803 9 17749108893741363506
12013929 2 9439404623342611047
12013929 94 18410295836009729419
12522641 33 18273217487021691967
12559415 43 18186792595944579196
12664476 115 18412542111556377825
12758862 56 12391500984812874775
131240 100 18411983593982553019
13740195 50 18040719194859784139
13947947 74 18410855447470483817
14251920 17 18411699902275320220
14344974 52 18410574006631568879
15061470 23 18273496758911807201
15219723 13 16588293962143633962
15347591 1 17752758036412570383
15530121 191 18411971456727929529
15890870 6 18334012804439659075
16728433 110 17775282777463688928
17686467 74 17167583783493164517
20105231 36 17775282768989798903
20501277 279 18259703402626066457
21026386 74 15410601641357188970
24893992 56 17095526218892064692
3092352 35 17240198832997294466
3991529 128 17603586335751861808
44426699 60 18040992934247259698
44575985 240 18186798097891792696
4874694 18 13623531247442645657
5028188 123 17989203768738824655
57303763 39 17561077060860947863
67123 10 18335140886791274783
9937071 3 11312056564945193509

>  <PUBCHEM_SHAPE_MULTIPOLES>  (1) 
822.79
57.32
2.25
1.23
70.08
0.08
-0.14
20.63
1.23
-2.28
-0.09
-1.7
0.06
1.76

>  <PUBCHEM_SHAPE_SELFOVERLAP>  (1) 
1733.856

>  <PUBCHEM_SHAPE_VOLUME>  (1) 
455.9

>  <PUBCHEM_COORDINATE_TYPE>  (1) 
2
5
10

$$$$
