28677
     RDKit          3D

 23 26  0  0  1  0  0  0  0  0999 V2000
   -2.4873    2.8883   -1.2767 O   0  0  0  0  0  0  0  0  0  0  0  0
    0.0483    1.5198    0.2035 N   0  0  0  0  0  0  0  0  0  0  0  0
   -2.9047    0.6806   -0.6415 N   0  0  0  0  0  0  0  0  0  0  0  0
    2.4172    1.2306    0.9300 C   0  0  0  0  0  0  0  0  0  0  0  0
   -0.0300    0.1859   -0.4267 C   0  0  0  0  0  0  0  0  0  0  0  0
    0.9511    1.4959    1.3613 C   0  0  0  0  0  0  0  0  0  0  0  0
    2.4996    0.0340   -0.0187 C   0  0  0  0  0  0  0  0  0  0  0  0
    1.3443   -0.4342   -0.6788 C   0  0  0  0  0  0  0  0  0  0  0  0
   -1.2548    2.0637    0.5901 C   0  0  0  0  0  0  0  0  0  0  0  0
   -1.0607   -0.7389    0.2361 C   0  0  0  0  0  0  0  0  0  0  0  0
    2.9741    2.4719    0.1980 C   0  0  0  0  0  0  0  0  0  0  0  0
    3.2357    1.0050    2.2196 C   0  0  0  0  0  0  0  0  0  0  0  0
    3.7331   -0.5790   -0.3082 C   0  0  0  0  0  0  0  0  0  0  0  0
   -2.4455   -0.5039    0.0325 C   0  0  0  0  0  0  0  0  0  0  0  0
    1.4516   -1.4947   -1.6004 C   0  0  0  0  0  0  0  0  0  0  0  0
   -2.2497    1.9211   -0.5492 C   0  0  0  0  0  0  0  0  0  0  0  0
   -0.6658   -1.8457    1.0099 C   0  0  0  0  0  0  0  0  0  0  0  0
    3.8212   -1.6367   -1.2144 C   0  0  0  0  0  0  0  0  0  0  0  0
    2.6806   -2.0945   -1.8613 C   0  0  0  0  0  0  0  0  0  0  0  0
   -3.3748   -1.4477    0.5030 C   0  0  0  0  0  0  0  0  0  0  0  0
   -4.1199    0.5851   -1.4466 C   0  0  0  0  0  0  0  0  0  0  0  0
   -1.6070   -2.7475    1.5038 C   0  0  0  0  0  0  0  0  0  0  0  0
   -2.9569   -2.5591    1.2346 C   0  0  0  0  0  0  0  0  0  0  0  0
  1 16  2  0
  2  5  1  0
  2  6  1  0
  2  9  1  0
  3 14  1  0
  3 16  1  0
  3 21  1  0
  4  6  1  0
  4  7  1  0
  4 11  1  0
  4 12  1  0
  5  8  1  0
  5 10  1  0
  7  8  2  0
  7 13  1  0
  8 15  1  0
  9 16  1  0
 10 14  2  0
 10 17  1  0
 13 18  2  0
 14 20  1  0
 15 19  2  0
 17 22  2  0
 18 19  1  0
 20 23  2  0
 22 23  1  0
M  END
>  <PUBCHEM_COMPOUND_CID>  (1) 
28677

>  <PUBCHEM_CONFORMER_RMSD>  (1) 
0.6

>  <PUBCHEM_CONFORMER_DIVERSEORDER>  (1) 
2
1
3
4

>  <PUBCHEM_MMFF94_PARTIAL_CHARGES>  (1) 
29
1 -0.57
10 -0.14
13 -0.15
14 0.12
15 -0.15
16 0.57
17 -0.15
18 -0.15
19 -0.15
2 -0.81
20 -0.15
21 0.3
22 -0.15
23 -0.15
3 -0.48
35 0.15
36 0.15
37 0.15
38 0.15
39 0.15
4 0.14
40 0.15
44 0.15
45 0.15
5 0.56
6 0.27
7 -0.14
8 -0.14
9 0.33

>  <PUBCHEM_EFFECTIVE_ROTOR_COUNT>  (1) 
0.8

>  <PUBCHEM_PHARMACOPHORE_FEATURES>  (1) 
7
1 1 acceptor
1 2 cation
3 4 11 12 hydrophobe
6 10 14 17 20 22 23 rings
6 2 4 5 6 7 8 rings
6 7 8 13 15 18 19 rings
7 2 3 5 9 10 14 16 rings

>  <PUBCHEM_HEAVY_ATOM_COUNT>  (1) 
23

>  <PUBCHEM_ATOM_DEF_STEREO_COUNT>  (1) 
0

>  <PUBCHEM_ATOM_UDEF_STEREO_COUNT>  (1) 
1

>  <PUBCHEM_BOND_DEF_STEREO_COUNT>  (1) 
0

>  <PUBCHEM_BOND_UDEF_STEREO_COUNT>  (1) 
0

>  <PUBCHEM_ISOTOPIC_ATOM_COUNT>  (1) 
0

>  <PUBCHEM_COMPONENT_COUNT>  (1) 
1

>  <PUBCHEM_CACTVS_TAUTO_COUNT>  (1) 
1

>  <PUBCHEM_CONFORMER_ID>  (1) 
0000700500000002

>  <PUBCHEM_MMFF94_ENERGY>  (1) 
95.7073

>  <PUBCHEM_FEATURE_SELFOVERLAP>  (1) 
35.563

>  <PUBCHEM_SHAPE_FINGERPRINT>  (1) 
10165383 225 17683258970945485581
10366900 7 18343586226581790614
108634 29 18335691776276296151
1100329 8 17184192738878358547
11582403 64 16973008677048050752
11640471 11 16443351965779917558
12236239 1 16225763012737063238
12293681 25 18340201994369616335
12714826 92 18047508618721015766
13140716 1 18340217339923099107
13294875 104 17758942736771660216
14022347 108 17823154473938284555
14223421 5 18338803428347188848
15309172 13 17629201790850178952
15415430 2 18336550426048175209
15420108 30 16828136260889391353
16752209 62 17676489479764191107
16945 1 18260264140080356881
17357779 13 18343310253231488622
18186145 218 18338513015564985117
19049666 15 18411985728090896402
20510252 161 18261955262294799201
20600515 1 17678164108997709453
20645477 70 18131064956759011910
20691752 17 18189610545261483741
21285901 2 18338513157625856319
22182313 1 18341050804075546790
22802520 49 18341619208669167081
23419403 2 18131075917647322586
23493267 7 18334289907540790512
23526113 38 18198909119397704094
23557571 272 18187930654554864493
23558518 356 18129101117460408688
23559900 14 18408603660894718902
238 59 17987783207192361988
2748010 2 18272650164653711156
3380486 145 18057039331792427003
495365 180 17846201272453157888
6049 1 18341906189936375974
633830 44 18339346471518103453
70251023 43 17774724151956993311
7226269 152 17907297646612443630
77492 1 16081082701338393643
81228 2 18261973923954035099
8809292 202 18410863122370975351
9709674 26 18412822490735815556
9981440 41 17486173912526989232

>  <PUBCHEM_SHAPE_MULTIPOLES>  (1) 
457.5
6.75
3.19
1.74
0.04
0.21
0.16
-0.75
-0.95
-0.71
0.13
0.42
-0.4
3.13

>  <PUBCHEM_SHAPE_SELFOVERLAP>  (1) 
1003.325

>  <PUBCHEM_SHAPE_VOLUME>  (1) 
245.6

>  <PUBCHEM_COORDINATE_TYPE>  (1) 
2
5
10

$$$$
