28679
     RDKit          3D

 14 13  0  0  0  0  0  0  0  0999 V2000
   -3.4373    0.5762    1.2651 O   0  0  0  0  0  0  0  0  0  0  0  0
    3.8097   -0.2625    0.5340 O   0  0  0  0  0  0  0  0  0  0  0  0
   -0.7825   -0.6374    0.0823 C   0  0  0  0  0  0  0  0  0  0  0  0
    0.7833   -0.5427   -0.3360 C   0  0  0  0  0  0  0  0  0  0  0  0
   -1.4969    0.7311   -0.1575 C   0  0  0  0  0  0  0  0  0  0  0  0
    1.5248    0.5070    0.5522 C   0  0  0  0  0  0  0  0  0  0  0  0
   -0.9464   -1.0347    1.5718 C   0  0  0  0  0  0  0  0  0  0  0  0
   -1.5111   -1.7270   -0.7476 C   0  0  0  0  0  0  0  0  0  0  0  0
    0.9474   -0.1454   -1.8254 C   0  0  0  0  0  0  0  0  0  0  0  0
    1.4841   -1.9164   -0.1662 C   0  0  0  0  0  0  0  0  0  0  0  0
   -2.9914    0.7708    0.1347 C   0  0  0  0  0  0  0  0  0  0  0  0
    3.0214    0.6559    0.3106 C   0  0  0  0  0  0  0  0  0  0  0  0
   -3.9129    1.0331   -1.0288 C   0  0  0  0  0  0  0  0  0  0  0  0
    3.5077    1.9920   -0.1892 C   0  0  0  0  0  0  0  0  0  0  0  0
  1 11  2  0
  2 12  2  0
  3  4  1  0
  3  5  1  0
  3  7  1  0
  3  8  1  0
  4  6  1  0
  4  9  1  0
  4 10  1  0
  5 11  1  0
  6 12  1  0
 11 13  1  0
 12 14  1  0
M  END
>  <PUBCHEM_COMPOUND_CID>  (1) 
28679

>  <PUBCHEM_CONFORMER_RMSD>  (1) 
0.6

>  <PUBCHEM_CONFORMER_DIVERSEORDER>  (1) 
1
23
20
9
24
8
13
17
22
3
21
5
19
2
10
14
7
12
11
18
16
15
4
6

>  <PUBCHEM_MMFF94_PARTIAL_CHARGES>  (1) 
8
1 -0.57
11 0.45
12 0.45
13 0.06
14 0.06
2 -0.57
5 0.06
6 0.06

>  <PUBCHEM_EFFECTIVE_ROTOR_COUNT>  (1) 
5

>  <PUBCHEM_PHARMACOPHORE_FEATURES>  (1) 
5
1 1 acceptor
1 2 acceptor
3 3 7 8 hydrophobe
3 4 9 10 hydrophobe
4 3 4 5 6 hydrophobe

>  <PUBCHEM_HEAVY_ATOM_COUNT>  (1) 
14

>  <PUBCHEM_ATOM_DEF_STEREO_COUNT>  (1) 
0

>  <PUBCHEM_ATOM_UDEF_STEREO_COUNT>  (1) 
0

>  <PUBCHEM_BOND_DEF_STEREO_COUNT>  (1) 
0

>  <PUBCHEM_BOND_UDEF_STEREO_COUNT>  (1) 
0

>  <PUBCHEM_ISOTOPIC_ATOM_COUNT>  (1) 
0

>  <PUBCHEM_COMPONENT_COUNT>  (1) 
1

>  <PUBCHEM_CACTVS_TAUTO_COUNT>  (1) 
6

>  <PUBCHEM_CONFORMER_ID>  (1) 
0000700700000001

>  <PUBCHEM_MMFF94_ENERGY>  (1) 
46.9172

>  <PUBCHEM_FEATURE_SELFOVERLAP>  (1) 
26.954

>  <PUBCHEM_SHAPE_FINGERPRINT>  (1) 
11031198 65 18273501164946482812
11132069 177 18336815472680409880
11543360 7 14764059116477571352
12119455 92 18337099082149988487
12138202 97 18131066073651014471
122479 349 18333168383841709865
12251169 10 17095809922534581468
12423570 1 14184280931297482806
124424 183 18411134727882111648
12491281 212 18342175578843356835
13380535 21 18272378580575382542
13380535 76 18273491264867887983
13571099 52 18408324401641234462
13581323 91 17822015327945761473
13705890 14 13039185926983321160
14897335 6 18343293760578157847
15775835 57 18272372018239705664
16945 1 18339075969670799462
18186145 218 18059020462650781525
18511873 20 18411412895908051730
18534176 82 17774718779015936319
20112054 13 17313375738504255101
20231682 184 18273491264894034580
20281407 28 11314026885233869109
20653085 51 18271530883127791986
20711983 171 18340205310278982436
20715346 28 17968104066706156695
20871999 31 14045733812534957121
21293036 1 14692562243183348317
21501502 16 18341606049069018998
21524375 3 18202275905342257398
22344851 262 18407757053556977599
22485316 2 8286199439807827585
23402539 116 17988913440790024533
305870 269 17968651627654886019
6333449 129 18272931661110455127
69090 78 18411974750486738783
7364860 26 18128257792126118318
83771 10 8070027774332624317

>  <PUBCHEM_SHAPE_MULTIPOLES>  (1) 
276.37
6.31
1.76
1.3
0.12
0.24
-0.11
-3.64
0.36
-0.5
-0.16
0.47
0.16
0.14

>  <PUBCHEM_SHAPE_SELFOVERLAP>  (1) 
525.137

>  <PUBCHEM_SHAPE_VOLUME>  (1) 
172.2

>  <PUBCHEM_COORDINATE_TYPE>  (1) 
2
5
10

$$$$
