28682
     RDKit          3D

 19 18  0  0  1  0  0  0  0  0999 V2000
    3.5291   -1.7679   -0.4323 O   0  0  0  0  0  0  0  0  0  0  0  0
    2.3619   -0.8117    1.3125 O   0  0  0  0  0  0  0  0  0  0  0  0
   -3.4395   -0.6459   -0.5739 C   0  0  0  0  0  0  0  0  0  0  0  0
   -3.9810    0.7893   -0.3797 C   0  0  0  0  0  0  0  0  0  0  0  0
   -3.0539   -1.2950    0.7721 C   0  0  0  0  0  0  0  0  0  0  0  0
   -3.0753    1.7525    0.3989 C   0  0  0  0  0  0  0  0  0  0  0  0
   -2.5233   -2.7330    0.6961 C   0  0  0  0  0  0  0  0  0  0  0  0
   -1.7348    2.0144   -0.2918 C   0  0  0  0  0  0  0  0  0  0  0  0
   -4.4951   -1.4734   -1.3183 C   0  0  0  0  0  0  0  0  0  0  0  0
   -1.2075   -2.9159   -0.0674 C   0  0  0  0  0  0  0  0  0  0  0  0
   -0.8690    3.0462    0.4392 C   0  0  0  0  0  0  0  0  0  0  0  0
   -0.0334   -2.1558    0.5589 C   0  0  0  0  0  0  0  0  0  0  0  0
    0.4365    3.3638   -0.2953 C   0  0  0  0  0  0  0  0  0  0  0  0
    1.2735    4.4398    0.4012 C   0  0  0  0  0  0  0  0  0  0  0  0
    1.2671   -2.3484   -0.2223 C   0  0  0  0  0  0  0  0  0  0  0  0
    2.5845    4.7415   -0.3080 C   0  0  0  0  0  0  0  0  0  0  0  0
    2.4231   -1.5508    0.3395 C   0  0  0  0  0  0  0  0  0  0  0  0
    4.7046   -1.0513   -0.0407 C   0  0  0  0  0  0  0  0  0  0  0  0
    5.8325   -1.3984   -0.9889 C   0  0  0  0  0  0  0  0  0  0  0  0
  1 17  1  0
  1 18  1  0
  2 17  2  0
  3  4  1  0
  3  5  1  0
  3  9  1  0
  4  6  1  0
  5  7  1  0
  6  8  1  0
  7 10  1  0
  8 11  1  0
 10 12  1  0
 11 13  1  0
 12 15  1  0
 13 14  1  0
 14 16  1  0
 15 17  1  0
 18 19  1  0
M  END
>  <PUBCHEM_COMPOUND_CID>  (1) 
28682

>  <PUBCHEM_CONFORMER_RMSD>  (1) 
1.2

>  <PUBCHEM_CONFORMER_DIVERSEORDER>  (1) 
1
33
21
157
9
8
81
73
46
54
86
28
20
67
27
91
106
59
103
22
105
37
62
115
124
113
89
36
50
25
60
152
160
120
130
75
7
4
68
23
79
95
43
82
38
153
80
136
141
3
56
137
24
97
99
96
47
132
45
151
92
30
74
29
125
11
109
26
142
2
116
150
111
76
155
32
19
110
108
88
61
14
71
102
5
69
159
144
122
104
63
140
49
42
126
112
78
87
31
145
107
121
66
52
83
17
70
135
156
146
131
118
6
98
127
10
34
90
128
64
72
16
154
143
134
161
117
44
48
138
77
158
114
39
55
84
101
13
57
148
94
123
58
35
18
51
129
162
139
147
41
40
15
53
12
119
149
85
133
93
100
65

>  <PUBCHEM_MMFF94_PARTIAL_CHARGES>  (1) 
5
1 -0.43
15 0.06
17 0.66
18 0.28
2 -0.57

>  <PUBCHEM_EFFECTIVE_ROTOR_COUNT>  (1) 
14

>  <PUBCHEM_PHARMACOPHORE_FEATURES>  (1) 
3
1 16 hydrophobe
1 2 acceptor
1 9 hydrophobe

>  <PUBCHEM_HEAVY_ATOM_COUNT>  (1) 
19

>  <PUBCHEM_ATOM_DEF_STEREO_COUNT>  (1) 
0

>  <PUBCHEM_ATOM_UDEF_STEREO_COUNT>  (1) 
1

>  <PUBCHEM_BOND_DEF_STEREO_COUNT>  (1) 
0

>  <PUBCHEM_BOND_UDEF_STEREO_COUNT>  (1) 
0

>  <PUBCHEM_ISOTOPIC_ATOM_COUNT>  (1) 
0

>  <PUBCHEM_COMPONENT_COUNT>  (1) 
1

>  <PUBCHEM_CACTVS_TAUTO_COUNT>  (1) 
1

>  <PUBCHEM_CONFORMER_ID>  (1) 
0000700A00000001

>  <PUBCHEM_MMFF94_ENERGY>  (1) 
7.2964

>  <PUBCHEM_FEATURE_SELFOVERLAP>  (1) 
15.223

>  <PUBCHEM_SHAPE_FINGERPRINT>  (1) 
10429389 16 17697621913225559982
10498660 4 18193548978811169615
10871710 139 18194964033381013309
11211813 163 17762079648828084238
12788726 201 18120369852484148953
14251764 75 17333658176215553937
14647877 51 18339926043063525120
15006816 218 17977943806532119761
15322535 138 17328012175933434160
20621476 13 18266733778151652524
20765182 5 18264496100654647684
20771845 165 18042387188697326901
21344244 246 17835505395807453319
373842 8 18266170807615224392
532947 4 18194113247150752333
6433294 58 18194123147303979948

>  <PUBCHEM_SHAPE_MULTIPOLES>  (1) 
379.27
9.46
6.52
0.98
7.22
9.06
-0.04
-5.57
-2.97
4.33
0.29
-0.22
-0.31
0.26

>  <PUBCHEM_SHAPE_SELFOVERLAP>  (1) 
693.048

>  <PUBCHEM_SHAPE_VOLUME>  (1) 
241.5

>  <PUBCHEM_COORDINATE_TYPE>  (1) 
2
5
10

$$$$
