28689
     RDKit          3D

 25 28  0  0  0  0  0  0  0  0999 V2000
    0.5215    0.9216   -0.8709 O   0  0  0  0  0  0  0  0  0  0  0  0
   -0.5541    0.7457    2.5882 O   0  0  0  0  0  0  0  0  0  0  0  0
   -5.7044    1.3641   -0.5522 O   0  0  0  0  0  0  0  0  0  0  0  0
    0.9975   -5.2662   -0.3519 O   0  0  0  0  0  0  0  0  0  0  0  0
    1.4809    1.3263    1.7371 N   0  0  0  0  0  0  0  0  0  0  0  0
   -0.1705    0.2759    0.2141 C   0  0  0  0  0  0  0  0  0  0  0  0
   -1.6744    0.5718    0.0061 C   0  0  0  0  0  0  0  0  0  0  0  0
    0.1471   -1.2295    0.0604 C   0  0  0  0  0  0  0  0  0  0  0  0
    0.2064    0.8200    1.6214 C   0  0  0  0  0  0  0  0  0  0  0  0
    1.8156    1.2865   -0.6437 C   0  0  0  0  0  0  0  0  0  0  0  0
    2.3155    1.4995    0.6338 C   0  0  0  0  0  0  0  0  0  0  0  0
   -2.6211   -0.3939    0.3350 C   0  0  0  0  0  0  0  0  0  0  0  0
   -0.1246   -1.8751   -1.1428 C   0  0  0  0  0  0  0  0  0  0  0  0
   -2.0722    1.8022   -0.5091 C   0  0  0  0  0  0  0  0  0  0  0  0
    0.7030   -1.9323    1.1262 C   0  0  0  0  0  0  0  0  0  0  0  0
    2.6259    1.5092   -1.7567 C   0  0  0  0  0  0  0  0  0  0  0  0
    3.6313    1.9294    0.8139 C   0  0  0  0  0  0  0  0  0  0  0  0
   -3.9773   -0.1272    0.1471 C   0  0  0  0  0  0  0  0  0  0  0  0
    0.1615   -3.2332   -1.2814 C   0  0  0  0  0  0  0  0  0  0  0  0
   -3.4284    2.0692   -0.6970 C   0  0  0  0  0  0  0  0  0  0  0  0
    0.9894   -3.2905    0.9876 C   0  0  0  0  0  0  0  0  0  0  0  0
   -4.3810    1.1044   -0.3688 C   0  0  0  0  0  0  0  0  0  0  0  0
    0.7186   -3.9410   -0.2163 C   0  0  0  0  0  0  0  0  0  0  0  0
    3.9455    1.9269   -1.5823 C   0  0  0  0  0  0  0  0  0  0  0  0
    4.4480    2.1363   -0.2979 C   0  0  0  0  0  0  0  0  0  0  0  0
  1  6  1  0
  1 10  1  0
  2  9  2  0
  3 22  1  0
  4 23  1  0
  5  9  1  0
  5 11  1  0
  6  7  1  0
  6  8  1  0
  6  9  1  0
  7 12  2  0
  7 14  1  0
  8 13  2  0
  8 15  1  0
 10 11  2  0
 10 16  1  0
 11 17  1  0
 12 18  1  0
 13 19  1  0
 14 20  2  0
 15 21  2  0
 16 24  2  0
 17 25  2  0
 18 22  2  0
 19 23  2  0
 20 22  1  0
 21 23  1  0
 24 25  1  0
M  END
>  <PUBCHEM_COMPOUND_CID>  (1) 
28689

>  <PUBCHEM_CONFORMER_RMSD>  (1) 
0.6

>  <PUBCHEM_CONFORMER_DIVERSEORDER>  (1) 
1
5
2
6
3
4

>  <PUBCHEM_MMFF94_PARTIAL_CHARGES>  (1) 
40
1 -0.36
10 0.08
11 0.12
12 -0.15
13 -0.15
14 -0.15
15 -0.15
16 -0.15
17 -0.15
18 -0.15
19 -0.15
2 -0.57
20 -0.15
21 -0.15
22 0.08
23 0.08
24 -0.15
25 -0.15
26 0.37
27 0.15
28 0.15
29 0.15
3 -0.53
30 0.15
31 0.15
32 0.15
33 0.15
34 0.15
35 0.15
36 0.15
37 0.15
38 0.15
39 0.45
4 -0.53
40 0.45
5 -0.55
6 0.63
7 -0.14
8 -0.14
9 0.57

>  <PUBCHEM_EFFECTIVE_ROTOR_COUNT>  (1) 
2.6

>  <PUBCHEM_PHARMACOPHORE_FEATURES>  (1) 
9
1 1 acceptor
1 2 acceptor
1 3 donor
1 4 donor
1 5 donor
6 1 5 6 9 10 11 rings
6 10 11 16 17 24 25 rings
6 7 12 14 18 20 22 rings
6 8 13 15 19 21 23 rings

>  <PUBCHEM_HEAVY_ATOM_COUNT>  (1) 
25

>  <PUBCHEM_ATOM_DEF_STEREO_COUNT>  (1) 
0

>  <PUBCHEM_ATOM_UDEF_STEREO_COUNT>  (1) 
0

>  <PUBCHEM_BOND_DEF_STEREO_COUNT>  (1) 
0

>  <PUBCHEM_BOND_UDEF_STEREO_COUNT>  (1) 
0

>  <PUBCHEM_ISOTOPIC_ATOM_COUNT>  (1) 
0

>  <PUBCHEM_COMPONENT_COUNT>  (1) 
1

>  <PUBCHEM_CACTVS_TAUTO_COUNT>  (1) 
6

>  <PUBCHEM_CONFORMER_ID>  (1) 
0000701100000001

>  <PUBCHEM_MMFF94_ENERGY>  (1) 
83.8199

>  <PUBCHEM_FEATURE_SELFOVERLAP>  (1) 
45.705

>  <PUBCHEM_SHAPE_FINGERPRINT>  (1) 
10721379 63 18124607374835216541
10815517 723 17623867021090181779
11045515 52 17326621297539048094
11488393 25 18264504909300600331
11578080 2 16814109399911668465
121448 382 18127681837069194951
12156800 1 16054022646985843790
12422481 6 17756109377454651304
12592029 89 18334016064488667936
12714826 92 17480044307216528684
12730499 353 18412271614805992137
12788726 201 17539699418308778374
13149001 5 17700414955499893344
13257819 37 18190198946926863934
133893 2 18121518859378217832
13681431 1 17978233751047084066
14004458 79 17616539896506728710
14955137 171 18197485243460945802
15163728 17 18115330919659472469
15463212 79 18045492265004230248
15502722 9 18336830771422217365
15906896 17 17826800531557403026
16752209 62 18120929778843955674
17539 30 17692530430757863710
17899979 19 18118130169897267094
1813 80 17622167858617099807
18915476 22 18264790791177039467
20197701 30 18410854382397345238
20567600 347 18410014346834294479
20602899 9 18269572661651199416
21033648 29 18270394026586226928
21285901 2 17410793752963090135
21756936 100 17024315339055014108
22956985 138 18189329087285820811
23366157 5 18044659702599274097
23419403 2 17320752258925116755
23559900 14 18121488056516173343
23598288 3 17535483843625507184
298252 57 18188209913339370448
3729539 64 18269011808032215702
3759504 43 18265052611956024876
4017518 198 18342178852732894478
404807 78 18046333409265598615
44802255 64 17972063537375151876
458136 41 18340215115562582289
5265222 85 18265063603790458492
59554788 281 18131064953028508440
6138700 20 18192438472652990454
6442390 28 18340204219193557371
6669772 16 18343306968262151974
7364860 26 18267580213310919951
81228 2 17477755149392531659

>  <PUBCHEM_SHAPE_MULTIPOLES>  (1) 
486.03
7.08
4.71
1.61
4.06
8.83
0.49
-8.73
-1.94
-1.56
-0.97
-0.87
-0.29
-0.02

>  <PUBCHEM_SHAPE_SELFOVERLAP>  (1) 
1091.688

>  <PUBCHEM_SHAPE_VOLUME>  (1) 
253.6

>  <PUBCHEM_COORDINATE_TYPE>  (1) 
2
5
10

$$$$
