28690
     RDKit          3D

 30 34  0  0  0  0  0  0  0  0999 V2000
   -1.7029    2.6829    1.4778 S   0  0  0  0  0  0  0  0  0  0  0  0
   -6.5586   -1.7915    0.2686 F   0  0  0  0  0  0  0  0  0  0  0  0
   -5.5877   -1.8247   -1.6705 F   0  0  0  0  0  0  0  0  0  0  0  0
   -4.8250   -3.0639   -0.0545 F   0  0  0  0  0  0  0  0  0  0  0  0
    4.9924   -1.1181    0.3980 N   0  0  0  0  0  0  0  0  0  0  0  0
    2.1035   -0.9731    0.4810 N   0  0  0  0  0  0  0  0  0  0  0  0
   -0.9373    0.4954   -0.5944 N   0  0  0  0  0  0  0  0  0  0  0  0
    6.3419   -0.7083   -0.0660 C   0  0  0  0  0  0  0  0  0  0  0  0
    7.5448   -1.1989    0.6645 C   0  0  0  0  0  0  0  0  0  0  0  0
    7.2304   -1.7181   -0.7078 C   0  0  0  0  0  0  0  0  0  0  0  0
    4.3013   -0.0244    1.0919 C   0  0  0  0  0  0  0  0  0  0  0  0
    4.1690   -1.6258   -0.7066 C   0  0  0  0  0  0  0  0  0  0  0  0
    2.9232   -0.4710    1.5903 C   0  0  0  0  0  0  0  0  0  0  0  0
    2.7915   -2.0724   -0.2066 C   0  0  0  0  0  0  0  0  0  0  0  0
    0.7902   -1.4011    0.9588 C   0  0  0  0  0  0  0  0  0  0  0  0
   -0.1358   -1.8020   -0.1937 C   0  0  0  0  0  0  0  0  0  0  0  0
   -0.3748   -0.7036   -1.2292 C   0  0  0  0  0  0  0  0  0  0  0  0
   -2.2401    0.3924   -0.0445 C   0  0  0  0  0  0  0  0  0  0  0  0
   -0.1619    1.6816   -0.6376 C   0  0  0  0  0  0  0  0  0  0  0  0
   -2.7116    1.3380    0.8876 C   0  0  0  0  0  0  0  0  0  0  0  0
   -0.4274    2.7548    0.2356 C   0  0  0  0  0  0  0  0  0  0  0  0
   -3.1343   -0.6315   -0.4266 C   0  0  0  0  0  0  0  0  0  0  0  0
    0.8815    1.8594   -1.5724 C   0  0  0  0  0  0  0  0  0  0  0  0
   -4.4228   -0.7261    0.1064 C   0  0  0  0  0  0  0  0  0  0  0  0
   -4.0073    1.2353    1.4244 C   0  0  0  0  0  0  0  0  0  0  0  0
    0.3401    3.9320    0.1837 C   0  0  0  0  0  0  0  0  0  0  0  0
   -4.8585    0.2064    1.0354 C   0  0  0  0  0  0  0  0  0  0  0  0
    1.6380    3.0333   -1.6230 C   0  0  0  0  0  0  0  0  0  0  0  0
    1.3693    4.0695   -0.7417 C   0  0  0  0  0  0  0  0  0  0  0  0
   -5.3311   -1.8266   -0.3290 C   0  0  0  0  0  0  0  0  0  0  0  0
  1 20  1  0
  1 21  1  0
  2 30  1  0
  3 30  1  0
  4 30  1  0
  5  8  1  0
  5 11  1  0
  5 12  1  0
  6 13  1  0
  6 14  1  0
  6 15  1  0
  7 17  1  0
  7 18  1  0
  7 19  1  0
  8  9  1  0
  8 10  1  0
  9 10  1  0
 11 13  1  0
 12 14  1  0
 15 16  1  0
 16 17  1  0
 18 20  2  0
 18 22  1  0
 19 21  2  0
 19 23  1  0
 20 25  1  0
 21 26  1  0
 22 24  2  0
 23 28  2  0
 24 27  1  0
 24 30  1  0
 25 27  2  0
 26 29  2  0
 28 29  1  0
M  END
>  <PUBCHEM_COMPOUND_CID>  (1) 
28690

>  <PUBCHEM_CONFORMER_RMSD>  (1) 
1

>  <PUBCHEM_CONFORMER_DIVERSEORDER>  (1) 
3
8
17
9
26
14
32
20
6
28
19
24
22
2
33
1
31
12
16
5
27
25
21
30
13
15
18
23
4
34
7
11
29
10

>  <PUBCHEM_MMFF94_PARTIAL_CHARGES>  (1) 
41
1 -0.2
10 -0.2
11 0.27
12 0.27
13 0.27
14 0.27
15 0.27
17 0.37
18 0.1
19 0.1
2 -0.34
20 0.1
21 0.1
22 -0.15
23 -0.15
24 -0.14
25 -0.15
26 -0.15
27 -0.15
28 -0.15
29 -0.15
3 -0.34
30 1.16
31 0.1
32 0.1
33 0.1
34 0.1
35 0.1
4 -0.34
5 -0.7
50 0.15
51 0.15
52 0.15
53 0.15
54 0.15
55 0.15
56 0.15
6 -0.81
7 -0.57
8 0.06
9 -0.2

>  <PUBCHEM_EFFECTIVE_ROTOR_COUNT>  (1) 
8.2

>  <PUBCHEM_PHARMACOPHORE_FEATURES>  (1) 
7
1 5 cation
1 6 cation
1 7 cation
6 1 7 18 19 20 21 rings
6 18 20 22 24 25 27 rings
6 19 21 23 26 28 29 rings
6 5 6 11 12 13 14 rings

>  <PUBCHEM_HEAVY_ATOM_COUNT>  (1) 
30

>  <PUBCHEM_ATOM_DEF_STEREO_COUNT>  (1) 
0

>  <PUBCHEM_ATOM_UDEF_STEREO_COUNT>  (1) 
0

>  <PUBCHEM_BOND_DEF_STEREO_COUNT>  (1) 
0

>  <PUBCHEM_BOND_UDEF_STEREO_COUNT>  (1) 
0

>  <PUBCHEM_ISOTOPIC_ATOM_COUNT>  (1) 
0

>  <PUBCHEM_COMPONENT_COUNT>  (1) 
1

>  <PUBCHEM_CACTVS_TAUTO_COUNT>  (1) 
1

>  <PUBCHEM_CONFORMER_ID>  (1) 
0000701200000003

>  <PUBCHEM_MMFF94_ENERGY>  (1) 
83.5694

>  <PUBCHEM_FEATURE_SELFOVERLAP>  (1) 
35.556

>  <PUBCHEM_SHAPE_FINGERPRINT>  (1) 
10369192 42 17274814732917377524
1100329 8 18264490748803961427
11621639 179 17388517339228157565
12166972 35 17821449071426704942
12623949 98 17703801271088477686
13004483 165 17756138995570372553
13009979 54 18272377485838828809
133893 2 17823719605714181349
13782708 43 17988641831923340622
14068700 675 18412545422422210249
14117953 113 18413105040345894199
14347332 77 18118115876040338658
14400156 266 18270972249817496525
144659 178 18128531763621156215
14787075 74 18113341911925243274
14955137 171 18341048622337681442
15927050 60 17691128558038367188
1813 80 18333446530287337792
18222031 100 18333723624354974946
18336668 15 18259990366033034997
18393751 57 18125698293087943650
18608769 82 18201997716733401306
18681886 176 18411411847720266939
20721686 56 18334298708419494440
20771845 171 17460885252615174197
21315759 40 18113617847075221890
21344244 246 18118967129097669220
21360443 120 17974578201878036292
23559900 14 18265889340858839003
249057 3 18408882915864162397
25019877 29 17632857534290912302
25147074 1 18272102634292298233
392239 28 18263089833909560472
469060 322 18189341178172016888
5265222 85 9943226178685981050
9996256 80 18341049606587403514

>  <PUBCHEM_SHAPE_MULTIPOLES>  (1) 
584.47
14.94
4.14
1.41
13.81
4.12
-0.02
-14.99
1.35
-1.56
-0.93
-0.13
0.49
-1.61

>  <PUBCHEM_SHAPE_SELFOVERLAP>  (1) 
1242.814

>  <PUBCHEM_SHAPE_VOLUME>  (1) 
330.2

>  <PUBCHEM_COORDINATE_TYPE>  (1) 
2
5
10

$$$$
