28692
     RDKit          3D

 21 23  0  0  0  0  0  0  0  0999 V2000
   -0.5625   -2.2366    0.4446 O   0  0  0  0  0  0  0  0  0  0  0  0
   -0.4093    0.0808    0.3499 N   0  0  0  0  0  0  0  0  0  0  0  0
   -4.7398   -0.5329    0.1475 N   0  0  0  0  0  0  0  0  0  0  0  0
   -1.8484    0.2433    0.5530 C   0  0  0  0  0  0  0  0  0  0  0  0
   -2.5851    0.2589   -0.7860 C   0  0  0  0  0  0  0  0  0  0  0  0
    0.4085    1.2480    0.1948 C   0  0  0  0  0  0  0  0  0  0  0  0
    1.7994    1.1064    0.0001 C   0  0  0  0  0  0  0  0  0  0  0  0
    2.3967   -0.2429   -0.0441 C   0  0  0  0  0  0  0  0  0  0  0  0
   -4.0969    0.4811   -0.6794 C   0  0  0  0  0  0  0  0  0  0  0  0
    1.5761   -1.3710    0.1090 C   0  0  0  0  0  0  0  0  0  0  0  0
    0.1157   -1.2174    0.3151 C   0  0  0  0  0  0  0  0  0  0  0  0
   -0.1597    2.5383    0.2347 C   0  0  0  0  0  0  0  0  0  0  0  0
    2.5678    2.2818   -0.1464 C   0  0  0  0  0  0  0  0  0  0  0  0
    3.7740   -0.4758   -0.2361 C   0  0  0  0  0  0  0  0  0  0  0  0
    2.1102   -2.6715    0.0715 C   0  0  0  0  0  0  0  0  0  0  0  0
    0.6248    3.6794    0.0866 C   0  0  0  0  0  0  0  0  0  0  0  0
    1.9899    3.5513   -0.1039 C   0  0  0  0  0  0  0  0  0  0  0  0
    4.3060   -1.7685   -0.2735 C   0  0  0  0  0  0  0  0  0  0  0  0
    3.4736   -2.8671   -0.1197 C   0  0  0  0  0  0  0  0  0  0  0  0
   -4.5816   -1.8607   -0.4485 C   0  0  0  0  0  0  0  0  0  0  0  0
   -6.1594   -0.2249    0.3309 C   0  0  0  0  0  0  0  0  0  0  0  0
  1 11  2  0
  2  4  1  0
  2  6  1  0
  2 11  1  0
  3  9  1  0
  3 20  1  0
  3 21  1  0
  4  5  1  0
  5  9  1  0
  6  7  2  0
  6 12  1  0
  7  8  1  0
  7 13  1  0
  8 10  2  0
  8 14  1  0
 10 11  1  0
 10 15  1  0
 12 16  2  0
 13 17  2  0
 14 18  2  0
 15 19  2  0
 16 17  1  0
 18 19  1  0
M  END
>  <PUBCHEM_COMPOUND_CID>  (1) 
28692

>  <PUBCHEM_CONFORMER_RMSD>  (1) 
0.6

>  <PUBCHEM_CONFORMER_DIVERSEORDER>  (1) 
3
13
7
2
20
18
15
1
16
4
8
9
11
19
10
14
17
6
5
12

>  <PUBCHEM_MMFF94_PARTIAL_CHARGES>  (1) 
26
1 -0.57
10 0.09
11 0.54
12 -0.15
13 -0.15
14 -0.15
15 -0.15
16 -0.15
17 -0.15
18 -0.15
19 -0.15
2 -0.48
20 0.27
21 0.27
28 0.15
29 0.15
3 -0.81
30 0.15
31 0.15
32 0.15
33 0.15
34 0.15
35 0.15
4 0.3
6 0.12
9 0.27

>  <PUBCHEM_EFFECTIVE_ROTOR_COUNT>  (1) 
4

>  <PUBCHEM_PHARMACOPHORE_FEATURES>  (1) 
5
1 1 acceptor
1 3 cation
6 2 6 7 8 10 11 rings
6 6 7 12 13 16 17 rings
6 8 10 14 15 18 19 rings

>  <PUBCHEM_HEAVY_ATOM_COUNT>  (1) 
21

>  <PUBCHEM_ATOM_DEF_STEREO_COUNT>  (1) 
0

>  <PUBCHEM_ATOM_UDEF_STEREO_COUNT>  (1) 
0

>  <PUBCHEM_BOND_DEF_STEREO_COUNT>  (1) 
0

>  <PUBCHEM_BOND_UDEF_STEREO_COUNT>  (1) 
0

>  <PUBCHEM_ISOTOPIC_ATOM_COUNT>  (1) 
0

>  <PUBCHEM_COMPONENT_COUNT>  (1) 
1

>  <PUBCHEM_CACTVS_TAUTO_COUNT>  (1) 
1

>  <PUBCHEM_CONFORMER_ID>  (1) 
0000701400000003

>  <PUBCHEM_MMFF94_ENERGY>  (1) 
63.6005

>  <PUBCHEM_FEATURE_SELFOVERLAP>  (1) 
25.415

>  <PUBCHEM_SHAPE_FINGERPRINT>  (1) 
10411042 1 18266459802446634882
10693767 8 18202572795537141822
10967382 1 18410577310089296936
1100329 8 18338515347716577978
11045515 52 18189335675775500653
11265709 11 18339924801374319194
12107183 9 18198634233665704025
12166972 35 17822017454572226118
12236239 1 17847063268616711203
12403259 226 18333444327111364661
12553582 1 18340756040523237878
12730499 353 18192440890281305761
13009979 54 17845385370458978265
13140716 1 18194393618716442112
13533116 47 18198617921448433151
138480 1 18410855464650346204
13955234 65 18268993253319965569
14790565 3 17187004189995251544
15042514 8 17835238944045607522
16087824 20 18050852113860445181
16945 1 18337964411192300272
1813 80 18129956558859718319
18785283 64 18189616218644094005
20645477 70 18335135444745963785
20832881 197 18262519191521875915
21029758 11 18337953390032009480
21041028 32 18341894044091058029
21267235 1 18340494352867216958
21478907 32 18050286972871790106
221357 26 18335414635232654829
221490 88 18336269049929994267
22182313 1 18193531442301847276
2334 1 18050293866842588584
23402539 116 18196649601659637174
23558518 356 17686068193268990826
23559900 14 18339920514786013483
2748010 2 18121510304394097072
314173 41 18411985736728479327
3323516 105 18334292085104871207
3421961 26 18412260640347022769
3886686 26 10941728825556008196
46194498 28 17749111118903298325
6287921 2 18042124422423609893
6443956 14 18409450258508902348
7164475 11 18049443635048438542
7364860 26 18339078301906645336
7471813 234 18201992214495108017
7495541 125 18261116283336108763
8272917 22 18340210794794093725
8863177 126 18042139790027812443
9709674 26 18263362650258887755
9981440 41 17691678313457149385

>  <PUBCHEM_SHAPE_MULTIPOLES>  (1) 
416.34
9.26
4.08
0.72
14.9
2.69
0.03
-5.62
0.83
-4.08
-0.02
0.24
-0.01
0.01

>  <PUBCHEM_SHAPE_SELFOVERLAP>  (1) 
895.685

>  <PUBCHEM_SHAPE_VOLUME>  (1) 
230.1

>  <PUBCHEM_COORDINATE_TYPE>  (1) 
2
5
10

$$$$
