28715
     RDKit          3D

 15 16  0  0  1  0  0  0  0  0999 V2000
   -1.1273   -2.6964   -1.2609 O   0  0  0  0  0  0  0  0  0  0  0  0
    0.1010   -2.9927    0.7511 N   0  0  0  0  0  0  0  0  0  0  0  0
    0.2030   -0.9670    0.1589 C   0  0  0  0  0  0  0  0  0  0  0  0
    0.4115   -1.7426    1.4773 C   0  0  0  0  0  0  0  0  0  0  0  0
    1.4824   -0.5755   -0.5593 C   0  0  0  0  0  0  0  0  0  0  0  0
   -0.4197   -2.3003   -0.3642 C   0  0  0  0  0  0  0  0  0  0  0  0
   -0.7995    0.1760    0.0981 C   0  0  0  0  0  0  0  0  0  0  0  0
    2.1486    0.6333    0.0973 C   0  0  0  0  0  0  0  0  0  0  0  0
    3.4528    1.0013   -0.6095 C   0  0  0  0  0  0  0  0  0  0  0  0
   -1.3709    0.5749   -1.1261 C   0  0  0  0  0  0  0  0  0  0  0  0
   -1.1809    0.8681    1.2644 C   0  0  0  0  0  0  0  0  0  0  0  0
    4.1360    2.1824    0.0613 C   0  0  0  0  0  0  0  0  0  0  0  0
   -2.2878    1.6246   -1.1821 C   0  0  0  0  0  0  0  0  0  0  0  0
   -2.0978    1.9178    1.2085 C   0  0  0  0  0  0  0  0  0  0  0  0
   -2.6513    2.2960   -0.0147 C   0  0  0  0  0  0  0  0  0  0  0  0
  1  6  2  0
  2  4  1  0
  2  6  1  0
  3  4  1  0
  3  5  1  0
  3  6  1  0
  3  7  1  0
  5  8  1  0
  7 10  2  0
  7 11  1  0
  8  9  1  0
  9 12  1  0
 10 13  1  0
 11 14  2  0
 13 15  2  0
 14 15  1  0
M  END
>  <PUBCHEM_COMPOUND_CID>  (1) 
28715

>  <PUBCHEM_CONFORMER_RMSD>  (1) 
0.6

>  <PUBCHEM_CONFORMER_DIVERSEORDER>  (1) 
1
6
16
20
23
8
4
17
21
13
18
19
12
3
5
2
11
22
15
10
14
9
7
24

>  <PUBCHEM_MMFF94_PARTIAL_CHARGES>  (1) 
17
1 -0.57
10 -0.15
11 -0.15
13 -0.15
14 -0.15
15 -0.15
2 -0.65
20 0.37
25 0.15
26 0.15
3 0.16
30 0.15
31 0.15
32 0.15
4 0.22
6 0.58
7 -0.11

>  <PUBCHEM_EFFECTIVE_ROTOR_COUNT>  (1) 
4.6

>  <PUBCHEM_PHARMACOPHORE_FEATURES>  (1) 
5
1 1 acceptor
1 12 hydrophobe
1 2 donor
4 2 3 4 6 rings
6 7 10 11 13 14 15 rings

>  <PUBCHEM_HEAVY_ATOM_COUNT>  (1) 
15

>  <PUBCHEM_ATOM_DEF_STEREO_COUNT>  (1) 
0

>  <PUBCHEM_ATOM_UDEF_STEREO_COUNT>  (1) 
1

>  <PUBCHEM_BOND_DEF_STEREO_COUNT>  (1) 
0

>  <PUBCHEM_BOND_UDEF_STEREO_COUNT>  (1) 
0

>  <PUBCHEM_ISOTOPIC_ATOM_COUNT>  (1) 
0

>  <PUBCHEM_COMPONENT_COUNT>  (1) 
1

>  <PUBCHEM_CACTVS_TAUTO_COUNT>  (1) 
2

>  <PUBCHEM_CONFORMER_ID>  (1) 
0000702B00000001

>  <PUBCHEM_MMFF94_ENERGY>  (1) 
32.5004

>  <PUBCHEM_FEATURE_SELFOVERLAP>  (1) 
25.372

>  <PUBCHEM_SHAPE_FINGERPRINT>  (1) 
1 1 18191027794200549366
12326174 3 17614288766581652731
12759256 9 17833263117197167219
13134695 92 17250318506170114606
14142880 1 18260824946845578389
14614273 12 18267029538484865462
14817 1 13391858365784449890
15490181 7 18335992973436933262
16945 1 18200017581467961751
19765921 60 18272081656590862784
20510252 161 18194118740561350634
20711985 344 18122052376168659866
21524375 3 18336833000436429760
22802520 49 12030633511791514539
23419403 2 15330471367737537115
23557571 272 17982180221008582564
25 1 18197232355728281484
2748010 2 18263667098566803940
305870 269 18263643961704840744
31174 14 17612892404368780017
4175511 71 16756366137233754361
430814 3 18270121201588357381
7364860 26 17906455420040727628
81228 2 18048047542711279114
9981440 41 17773012350360913000

>  <PUBCHEM_SHAPE_MULTIPOLES>  (1) 
297.84
4.6
3.39
1.32
4.5
2
-0.13
-5.66
0.5
-0.14
-0.09
-0.61
0.15
-0.4

>  <PUBCHEM_SHAPE_SELFOVERLAP>  (1) 
617.569

>  <PUBCHEM_SHAPE_VOLUME>  (1) 
168.8

>  <PUBCHEM_COORDINATE_TYPE>  (1) 
2
5
10

$$$$
