28723
     RDKit          3D

 40 45  0  0  1  0  0  0  0  0999 V2000
    4.4041   -2.4144    0.1571 N   0  0  0  0  0  0  0  0  0  0  0  0
   -4.3730   -2.4156   -0.1277 N   0  0  0  0  0  0  0  0  0  0  0  0
    5.6195    0.1434   -0.7047 N   0  0  0  0  0  0  0  0  0  0  0  0
   -5.6207    0.1496    0.7032 N   0  0  0  0  0  0  0  0  0  0  0  0
    4.5044   -1.2033    1.1091 C   0  0  0  0  0  0  0  0  0  0  0  0
    5.6449   -2.3749   -0.7603 C   0  0  0  0  0  0  0  0  0  0  0  0
   -5.6652   -2.3684    0.7576 C   0  0  0  0  0  0  0  0  0  0  0  0
   -4.5164   -1.2044   -1.1116 C   0  0  0  0  0  0  0  0  0  0  0  0
    5.7473   -1.3445    2.0108 C   0  0  0  0  0  0  0  0  0  0  0  0
    6.9259   -2.5546    0.0791 C   0  0  0  0  0  0  0  0  0  0  0  0
   -6.9477   -2.5380   -0.0816 C   0  0  0  0  0  0  0  0  0  0  0  0
   -5.7606   -1.3358   -2.0131 C   0  0  0  0  0  0  0  0  0  0  0  0
    3.0963   -2.3788   -0.6627 C   0  0  0  0  0  0  0  0  0  0  0  0
   -3.1166   -2.3914    0.6592 C   0  0  0  0  0  0  0  0  0  0  0  0
    4.5380    0.1038    0.2844 C   0  0  0  0  0  0  0  0  0  0  0  0
    5.6601   -1.0496   -1.5559 C   0  0  0  0  0  0  0  0  0  0  0  0
   -5.6702   -1.0434    1.5538 C   0  0  0  0  0  0  0  0  0  0  0  0
   -4.5399    0.1025   -0.2862 C   0  0  0  0  0  0  0  0  0  0  0  0
    7.0575   -1.5954    1.2630 C   0  0  0  0  0  0  0  0  0  0  0  0
   -7.0724   -1.5772   -1.2649 C   0  0  0  0  0  0  0  0  0  0  0  0
    4.3110   -3.7440    0.9336 C   0  0  0  0  0  0  0  0  0  0  0  0
   -4.3420   -3.7465   -0.9375 C   0  0  0  0  0  0  0  0  0  0  0  0
    1.9104   -2.3745    0.2905 C   0  0  0  0  0  0  0  0  0  0  0  0
   -1.9311   -2.3957   -0.2944 C   0  0  0  0  0  0  0  0  0  0  0  0
    0.5884   -2.3862   -0.4781 C   0  0  0  0  0  0  0  0  0  0  0  0
   -0.6088   -2.4179    0.4736 C   0  0  0  0  0  0  0  0  0  0  0  0
    5.5645    1.3643   -1.5035 C   0  0  0  0  0  0  0  0  0  0  0  0
   -5.5563    1.3697    1.5027 C   0  0  0  0  0  0  0  0  0  0  0  0
    6.1592    2.5393   -0.7738 C   0  0  0  0  0  0  0  0  0  0  0  0
   -6.1425    2.5495    0.7738 C   0  0  0  0  0  0  0  0  0  0  0  0
    5.3515    3.3409    0.0329 C   0  0  0  0  0  0  0  0  0  0  0  0
   -5.3289    3.3455   -0.0327 C   0  0  0  0  0  0  0  0  0  0  0  0
    7.5182    2.8262   -0.9039 C   0  0  0  0  0  0  0  0  0  0  0  0
   -7.4992    2.8466    0.9045 C   0  0  0  0  0  0  0  0  0  0  0  0
    5.9024    4.4294    0.7092 C   0  0  0  0  0  0  0  0  0  0  0  0
   -5.8719    4.4385   -0.7082 C   0  0  0  0  0  0  0  0  0  0  0  0
    8.0691    3.9146   -0.2275 C   0  0  0  0  0  0  0  0  0  0  0  0
   -8.0420    3.9395    0.2288 C   0  0  0  0  0  0  0  0  0  0  0  0
    7.2611    4.7162    0.5790 C   0  0  0  0  0  0  0  0  0  0  0  0
   -7.2283    4.7354   -0.5776 C   0  0  0  0  0  0  0  0  0  0  0  0
  1  5  1  0
  1  6  1  0
  1 13  1  0
  1 21  1  0
  2  7  1  0
  2  8  1  0
  2 14  1  0
  2 22  1  0
  3 15  1  0
  3 16  1  0
  3 27  1  0
  4 17  1  0
  4 18  1  0
  4 28  1  0
  5  9  1  0
  5 15  1  0
  6 10  1  0
  6 16  1  0
  7 11  1  0
  7 17  1  0
  8 12  1  0
  8 18  1  0
  9 19  1  0
 10 19  1  0
 11 20  1  0
 12 20  1  0
 13 23  1  0
 14 24  1  0
 23 25  1  0
 24 26  1  0
 25 26  1  0
 27 29  1  0
 28 30  1  0
 29 31  2  0
 29 33  1  0
 30 32  2  0
 30 34  1  0
 31 35  1  0
 32 36  1  0
 33 37  2  0
 34 38  2  0
 35 39  2  0
 36 40  2  0
 37 39  1  0
 38 40  1  0
M  CHG  2   1   1   2   1
M  END
>  <PUBCHEM_COMPOUND_CID>  (1) 
28723

>  <PUBCHEM_CONFORMER_RMSD>  (1) 
2

>  <PUBCHEM_CONFORMER_DIVERSEORDER>  (1) 
1
17
47
35
56
37
19
12
36
44
34
9
39
53
2
30
40
58
29
57
38
8
15
4
52
3
32
27
23
26
6
42
41
45
33
50
10
31
49
24
18
21
25
7
28
14
16
43
5
48
55
54
22
46
20
51
11
13

>  <PUBCHEM_MMFF94_PARTIAL_CHARGES>  (1) 
40
1 -1.01
13 0.5
14 0.5
15 0.27
16 0.27
17 0.27
18 0.27
2 -1.01
21 0.5
22 0.5
27 0.41
28 0.41
29 -0.14
3 -0.81
30 -0.14
31 -0.15
32 -0.15
33 -0.15
34 -0.15
35 -0.15
36 -0.15
37 -0.15
38 -0.15
39 -0.15
4 -0.81
40 -0.15
5 0.5
6 0.5
7 0.5
8 0.5
87 0.15
88 0.15
89 0.15
90 0.15
91 0.15
92 0.15
93 0.15
94 0.15
95 0.15
96 0.15

>  <PUBCHEM_EFFECTIVE_ROTOR_COUNT>  (1) 
13.8

>  <PUBCHEM_PHARMACOPHORE_FEATURES>  (1) 
11
1 1 cation
1 2 cation
1 3 cation
1 4 cation
4 23 24 25 26 hydrophobe
6 1 3 5 6 15 16 rings
6 1 5 6 9 10 19 rings
6 2 4 7 8 17 18 rings
6 2 7 8 11 12 20 rings
6 29 31 33 35 37 39 rings
6 30 32 34 36 38 40 rings

>  <PUBCHEM_HEAVY_ATOM_COUNT>  (1) 
40

>  <PUBCHEM_ATOM_DEF_STEREO_COUNT>  (1) 
0

>  <PUBCHEM_ATOM_UDEF_STEREO_COUNT>  (1) 
4

>  <PUBCHEM_BOND_DEF_STEREO_COUNT>  (1) 
0

>  <PUBCHEM_BOND_UDEF_STEREO_COUNT>  (1) 
0

>  <PUBCHEM_ISOTOPIC_ATOM_COUNT>  (1) 
0

>  <PUBCHEM_COMPONENT_COUNT>  (1) 
1

>  <PUBCHEM_CACTVS_TAUTO_COUNT>  (1) 
1

>  <PUBCHEM_CONFORMER_ID>  (1) 
0000703300000001

>  <PUBCHEM_MMFF94_ENERGY>  (1) 
137.9175

>  <PUBCHEM_FEATURE_SELFOVERLAP>  (1) 
59.097

>  <PUBCHEM_SHAPE_FINGERPRINT>  (1) 
11103572 155 18410573985231644405
11115154 58 18261962822408638770
12013929 29 18340771442323200092
14664723 55 18199755730845861745
14904525 67 18410856563935198596
15183329 4 18342740762132916346
15289351 153 18338513153842416144
16758388 162 17972314019214324187
19053607 189 18341603841777206216
21647283 7 18114471080328598441
21779490 81 17968086551913868401
21792965 106 18411694391969819928
23191077 185 18339634628847228411
2835820 40 18410296912590903412
3918712 181 18336258037422564935
4169191 19 18337388356861486550
44880568 143 18413389821603877655
99344 41 18410295843523835388

>  <PUBCHEM_SHAPE_MULTIPOLES>  (1) 
803.26
32.01
7.76
1.46
0.27
9.12
0
26.68
-0.01
-0.07
0.01
0
-0.39
-2.15

>  <PUBCHEM_SHAPE_SELFOVERLAP>  (1) 
1677.457

>  <PUBCHEM_SHAPE_VOLUME>  (1) 
446.1

>  <PUBCHEM_COORDINATE_TYPE>  (1) 
2
5
10

$$$$
