28720
     RDKit          3D

 25 28  0  0  0  0  0  0  0  0999 V2000
    4.6450   -1.0170    0.6805 S   0  0  0  0  0  0  0  0  0  0  0  0
   -5.0841    2.4178    0.3806 F   0  0  0  0  0  0  0  0  0  0  0  0
   -5.0627    0.7734    1.7946 F   0  0  0  0  0  0  0  0  0  0  0  0
   -3.4013    2.1752    1.7363 F   0  0  0  0  0  0  0  0  0  0  0  0
   -1.5998   -3.3426    0.0676 O   0  0  0  0  0  0  0  0  0  0  0  0
    2.2093   -0.4447    0.0624 C   0  0  0  0  0  0  0  0  0  0  0  0
    2.9714    0.7795   -0.1029 C   0  0  0  0  0  0  0  0  0  0  0  0
    3.0116   -1.5042    0.4890 C   0  0  0  0  0  0  0  0  0  0  0  0
    4.3208    0.5989    0.2050 C   0  0  0  0  0  0  0  0  0  0  0  0
    0.8279   -0.7022   -0.1389 C   0  0  0  0  0  0  0  0  0  0  0  0
    0.2980   -1.9757    0.0846 C   0  0  0  0  0  0  0  0  0  0  0  0
    2.4819   -2.7904    0.7161 C   0  0  0  0  0  0  0  0  0  0  0  0
    1.1194   -3.0087    0.5083 C   0  0  0  0  0  0  0  0  0  0  0  0
    2.5555    2.0731   -0.5137 C   0  0  0  0  0  0  0  0  0  0  0  0
   -1.1205   -2.2159   -0.1281 C   0  0  0  0  0  0  0  0  0  0  0  0
   -2.0550   -1.1429   -0.5839 C   0  0  0  0  0  0  0  0  0  0  0  0
    5.2495    1.6553    0.1151 C   0  0  0  0  0  0  0  0  0  0  0  0
    3.4725    3.1235   -0.6045 C   0  0  0  0  0  0  0  0  0  0  0  0
    4.8067    2.9142   -0.2924 C   0  0  0  0  0  0  0  0  0  0  0  0
   -2.6886   -0.3751    0.3652 C   0  0  0  0  0  0  0  0  0  0  0  0
   -3.5607    0.6269   -0.0610 C   0  0  0  0  0  0  0  0  0  0  0  0
   -2.2435   -0.9659   -1.9349 C   0  0  0  0  0  0  0  0  0  0  0  0
   -3.7739    0.8323   -1.4242 C   0  0  0  0  0  0  0  0  0  0  0  0
   -3.1153    0.0359   -2.3610 C   0  0  0  0  0  0  0  0  0  0  0  0
   -4.2643    1.4793    0.9402 C   0  0  0  0  0  0  0  0  0  0  0  0
  1  8  1  0
  1  9  1  0
  2 25  1  0
  3 25  1  0
  4 25  1  0
  5 15  2  0
  6  7  1  0
  6  8  2  0
  6 10  1  0
  7  9  2  0
  7 14  1  0
  8 12  1  0
  9 17  1  0
 10 11  2  0
 11 13  1  0
 11 15  1  0
 12 13  2  0
 14 18  2  0
 15 16  1  0
 16 20  2  0
 16 22  1  0
 17 19  2  0
 18 19  1  0
 20 21  1  0
 21 23  2  0
 21 25  1  0
 22 24  2  0
 23 24  1  0
M  END
>  <PUBCHEM_COMPOUND_CID>  (1) 
28720

>  <PUBCHEM_CONFORMER_RMSD>  (1) 
0.6

>  <PUBCHEM_CONFORMER_DIVERSEORDER>  (1) 
1
14
13
17
10
8
4
7
16
5
20
15
2
18
9
3
11
6
19
12

>  <PUBCHEM_MMFF94_PARTIAL_CHARGES>  (1) 
34
1 -0.08
10 -0.15
11 0.09
12 -0.15
13 -0.15
14 -0.15
15 0.4
16 0.09
17 -0.15
18 -0.15
19 -0.15
2 -0.34
20 -0.15
21 -0.14
22 -0.15
23 -0.15
24 -0.15
25 1.16
26 0.15
27 0.15
28 0.15
29 0.15
3 -0.34
30 0.15
31 0.15
32 0.15
33 0.15
34 0.15
35 0.15
36 0.15
4 -0.34
5 -0.57
8 0.04
9 0.04

>  <PUBCHEM_EFFECTIVE_ROTOR_COUNT>  (1) 
3

>  <PUBCHEM_PHARMACOPHORE_FEATURES>  (1) 
5
1 5 acceptor
5 1 6 7 8 9 rings
6 16 20 21 22 23 24 rings
6 6 8 10 11 12 13 rings
6 7 9 14 17 18 19 rings

>  <PUBCHEM_HEAVY_ATOM_COUNT>  (1) 
25

>  <PUBCHEM_ATOM_DEF_STEREO_COUNT>  (1) 
0

>  <PUBCHEM_ATOM_UDEF_STEREO_COUNT>  (1) 
0

>  <PUBCHEM_BOND_DEF_STEREO_COUNT>  (1) 
0

>  <PUBCHEM_BOND_UDEF_STEREO_COUNT>  (1) 
0

>  <PUBCHEM_ISOTOPIC_ATOM_COUNT>  (1) 
0

>  <PUBCHEM_COMPONENT_COUNT>  (1) 
1

>  <PUBCHEM_CACTVS_TAUTO_COUNT>  (1) 
1

>  <PUBCHEM_CONFORMER_ID>  (1) 
0000703000000001

>  <PUBCHEM_MMFF94_ENERGY>  (1) 
70.1763

>  <PUBCHEM_FEATURE_SELFOVERLAP>  (1) 
25.488

>  <PUBCHEM_SHAPE_FINGERPRINT>  (1) 
10411042 1 17759510076768227498
10615611 76 17986962851739245177
10906281 52 18335423517747093152
11049842 53 16844447116065925391
11059048 146 17974020736518490484
11135609 201 18197498634925868752
11408170 253 15810041334468855868
11640471 11 18131071485383640659
12107183 9 18336820902030801554
12390115 104 18190468345093789462
12422481 6 17752732906517198000
12549972 3 16155936198974814791
12633257 1 18188754107650423878
12788726 201 17489036958816444801
12978246 48 18337670815259445384
13140716 1 18260546753598369594
13398642 44 17679319695524129124
13583140 156 16806148995723905682
13590594 115 17832701280183900130
14251764 75 18337963388426432312
14790565 3 18189622820758408340
14848178 96 18337096973701127092
15081414 286 18265612079372003222
15119646 57 17058390286172161433
15163728 17 17632305566004006687
15342168 16 18410576158921841805
15475509 8 18199198291752478838
16760501 71 18408328787177357729
17980427 23 17986932129933037706
20511986 3 18130489864954624376
20739085 24 18050852113490829530
21033648 144 18261661662588469486
21033648 29 17023455365936283517
21033650 10 16487265373508744282
21315763 76 18264746844807987492
21756936 100 18201441418982376451
21864079 5 18413673495682484299
22122407 14 18122070810654325241
22182937 141 18263646327957546694
22849341 161 18118676618217013906
22907989 373 18056743550164122727
23559900 14 18341326774033416210
23845131 108 18187086152822412499
245318 6 18188508950379514333
24771293 8 18270662218484131346
283562 15 17974282432654084826
312425 83 17346046670484163956
3459 110 17895485824785786147
350125 39 18118682351280831310
38570 142 18269015166390737620
469060 322 17752773703883619107
474 4 18410567358091104251
5048184 11 18411139172835977464
5081480 168 17556589746620331750
5104073 3 18115578379185834370
5252454 2 18187090593580420748
543358 83 18409444800491425882
57724786 102 18338800017995540696
6034566 193 17898022471273585580
6328613 192 18190178087495248364
633830 44 18341895199442353950
7288768 16 18186806919348430387
7970288 3 9079114453492133192

>  <PUBCHEM_SHAPE_MULTIPOLES>  (1) 
490.65
11.45
3.82
1.39
0.68
0.4
-0.3
-9.35
1.78
-2.15
0.51
2.39
-0.43
-2.03

>  <PUBCHEM_SHAPE_SELFOVERLAP>  (1) 
1095.472

>  <PUBCHEM_SHAPE_VOLUME>  (1) 
265.8

>  <PUBCHEM_COORDINATE_TYPE>  (1) 
2
5
10

$$$$
