28725
     RDKit          3D

 19 21  0  0  1  0  0  0  0  0999 V2000
    0.0596    1.3832   -0.6485 N   0  0  0  0  0  0  0  0  0  0  0  0
   -2.2028   -2.4843   -0.5472 N   0  0  0  0  0  0  0  0  0  0  0  0
    0.3424   -0.0472   -0.3949 C   0  0  0  0  0  0  0  0  0  0  0  0
    1.8061   -0.3683   -0.1396 C   0  0  0  0  0  0  0  0  0  0  0  0
    0.7722    2.2565    0.2923 C   0  0  0  0  0  0  0  0  0  0  0  0
    2.2926    2.0848    0.2605 C   0  0  0  0  0  0  0  0  0  0  0  0
   -0.5260   -0.5361    0.7755 C   0  0  0  0  0  0  0  0  0  0  0  0
    2.7197    0.6416    0.2117 C   0  0  0  0  0  0  0  0  0  0  0  0
    0.3100    1.7538   -2.0418 C   0  0  0  0  0  0  0  0  0  0  0  0
   -1.9806   -0.2945    0.5070 C   0  0  0  0  0  0  0  0  0  0  0  0
    2.2549   -1.6958   -0.2294 C   0  0  0  0  0  0  0  0  0  0  0  0
    4.0607    0.3112    0.4551 C   0  0  0  0  0  0  0  0  0  0  0  0
    3.5889   -2.0146    0.0232 C   0  0  0  0  0  0  0  0  0  0  0  0
    4.4912   -1.0117    0.3657 C   0  0  0  0  0  0  0  0  0  0  0  0
   -2.7601   -1.2546   -0.1331 C   0  0  0  0  0  0  0  0  0  0  0  0
   -2.5435    0.9135    0.9108 C   0  0  0  0  0  0  0  0  0  0  0  0
   -4.1115   -1.0048   -0.3714 C   0  0  0  0  0  0  0  0  0  0  0  0
   -3.8949    1.1632    0.6726 C   0  0  0  0  0  0  0  0  0  0  0  0
   -4.6789    0.2042    0.0315 C   0  0  0  0  0  0  0  0  0  0  0  0
  1  3  1  0
  1  5  1  0
  1  9  1  0
  2 15  1  0
  3  4  1  0
  3  7  1  0
  4  8  2  0
  4 11  1  0
  5  6  1  0
  6  8  1  0
  7 10  1  0
  8 12  1  0
 10 15  2  0
 10 16  1  0
 11 13  2  0
 12 14  2  0
 13 14  1  0
 15 17  1  0
 16 18  2  0
 17 19  2  0
 18 19  1  0
M  END
>  <PUBCHEM_COMPOUND_CID>  (1) 
28725

>  <PUBCHEM_CONFORMER_RMSD>  (1) 
0.6

>  <PUBCHEM_CONFORMER_DIVERSEORDER>  (1) 
1
19
4
28
10
5
22
25
26
11
8
7
17
9
12
21
24
3
2
6
27
18
23
14
20
13
16
15

>  <PUBCHEM_MMFF94_PARTIAL_CHARGES>  (1) 
29
1 -0.81
10 -0.14
11 -0.15
12 -0.15
13 -0.15
14 -0.15
15 0.1
16 -0.15
17 -0.15
18 -0.15
19 -0.15
2 -0.9
3 0.41
30 0.15
31 0.15
32 0.15
33 0.15
34 0.15
35 0.15
36 0.15
37 0.15
38 0.4
39 0.4
4 -0.14
5 0.27
6 0.14
7 0.14
8 -0.14
9 0.27

>  <PUBCHEM_EFFECTIVE_ROTOR_COUNT>  (1) 
2.8

>  <PUBCHEM_PHARMACOPHORE_FEATURES>  (1) 
6
1 1 cation
1 2 cation
1 2 donor
6 1 3 4 5 6 8 rings
6 10 15 16 17 18 19 rings
6 4 8 11 12 13 14 rings

>  <PUBCHEM_HEAVY_ATOM_COUNT>  (1) 
19

>  <PUBCHEM_ATOM_DEF_STEREO_COUNT>  (1) 
0

>  <PUBCHEM_ATOM_UDEF_STEREO_COUNT>  (1) 
1

>  <PUBCHEM_BOND_DEF_STEREO_COUNT>  (1) 
0

>  <PUBCHEM_BOND_UDEF_STEREO_COUNT>  (1) 
0

>  <PUBCHEM_ISOTOPIC_ATOM_COUNT>  (1) 
0

>  <PUBCHEM_COMPONENT_COUNT>  (1) 
1

>  <PUBCHEM_CACTVS_TAUTO_COUNT>  (1) 
1

>  <PUBCHEM_CONFORMER_ID>  (1) 
0000703500000001

>  <PUBCHEM_MMFF94_ENERGY>  (1) 
68.1123

>  <PUBCHEM_FEATURE_SELFOVERLAP>  (1) 
30.468

>  <PUBCHEM_SHAPE_FINGERPRINT>  (1) 
10062212 137 18201998846093138859
10616163 171 18200314458277153911
10922049 32 9655569725553670392
11132069 177 18409724045852556968
11370993 70 18131066026280078607
116883 192 18336829680516536772
11806522 49 18411416258377100235
12011746 2 18342181046669060134
12107183 9 17766848225364859827
12251169 10 18343021081805096178
12553582 1 18264200323300126194
12633257 1 18059021587747993377
12670546 56 17988918985576804233
128620 24 12175621772086974129
13134695 92 18410572907199608285
13533116 47 18342173431818800519
13583140 156 16773219773649941346
13675066 3 18186526509734715769
14790565 3 17976544137321854492
15196674 1 18412263938839441819
15375462 478 17703790301520073496
15442244 35 18413392012063085201
15501101 241 18335420192567102652
15536298 74 18342739632550638744
15848700 24 18260546706205555484
15848702 151 18340768152346609191
16945 1 18412553102003024912
17349148 13 17846780706723085189
17357779 13 18040983034410822245
17492 89 18267585886884506163
1813 80 17676210152107234516
18186145 218 17748821943071220379
19141452 34 18411418393271199959
200 152 18131345332640682899
204376 136 13398621762465166364
20645477 70 18335136535382878778
21267235 1 18340778090938056851
221490 88 18265338489216633595
23175994 123 16805611343407315661
23184049 59 18409172077925010355
23402539 116 17989199322935943765
23419403 2 18126254546517911160
23557571 272 16056616321832582273
23558518 356 17753615946606809867
23559900 14 18202277017912795722
3286 77 18343295998451375864
335352 9 18340207375973531645
34934 24 18410007715404854378
4214541 1 18342175553332158843
5104073 3 18341897424150855331
6443956 14 18409167710064680628
69090 78 18341611499624980867
6992083 37 18410303488538501481
7364860 26 18341613784215253528
81228 2 17825119116422678216
83771 10 18261392213557058284
9709674 26 18272094919745551191
9971528 1 18260546731780433884
9981440 41 17472134458826213449

>  <PUBCHEM_SHAPE_MULTIPOLES>  (1) 
381.05
8.56
2.36
1.03
2.22
0.06
0.38
-2.47
-1.29
-0.75
0.35
0.14
0.43
-0.43

>  <PUBCHEM_SHAPE_SELFOVERLAP>  (1) 
822.681

>  <PUBCHEM_SHAPE_VOLUME>  (1) 
208.7

>  <PUBCHEM_COORDINATE_TYPE>  (1) 
2
5
10

$$$$
