28731
     RDKit          3D

 24 25  0  0  1  0  0  0  0  0999 V2000
   -6.6855    1.5295   -0.9003 Cl  0  0  0  0  0  0  0  0  0  0  0  0
    3.5207    0.2055   -0.1680 O   0  0  0  0  0  0  0  0  0  0  0  0
    1.2401   -2.3302   -0.4611 O   0  0  0  0  0  0  0  0  0  0  0  0
    4.8896   -2.2024   -0.4439 O   0  0  0  0  0  0  0  0  0  0  0  0
   -2.0542   -1.6802    0.7508 O   0  0  0  0  0  0  0  0  0  0  0  0
    0.4464   -1.9861    1.6792 O   0  0  0  0  0  0  0  0  0  0  0  0
    3.5777   -2.0474   -0.9900 C   0  0  0  0  0  0  0  0  0  0  0  0
    3.3883   -0.5793   -1.3485 C   0  0  0  0  0  0  0  0  0  0  0  0
    2.5586   -2.5036    0.0478 C   0  0  0  0  0  0  0  0  0  0  0  0
    2.8187    1.3807   -0.1280 C   0  0  0  0  0  0  0  0  0  0  0  0
    2.3659    1.8923    1.0842 C   0  0  0  0  0  0  0  0  0  0  0  0
    2.5652    2.0558   -1.3182 C   0  0  0  0  0  0  0  0  0  0  0  0
    1.6527    3.0909    1.1063 C   0  0  0  0  0  0  0  0  0  0  0  0
    2.6317    1.1772    2.3676 C   0  0  0  0  0  0  0  0  0  0  0  0
    1.8521    3.2544   -1.2958 C   0  0  0  0  0  0  0  0  0  0  0  0
    1.3958    3.7719   -0.0838 C   0  0  0  0  0  0  0  0  0  0  0  0
    0.2713   -2.0747    0.4714 C   0  0  0  0  0  0  0  0  0  0  0  0
   -1.0564   -1.9184   -0.2219 C   0  0  0  0  0  0  0  0  0  0  0  0
   -3.1381   -0.9292    0.3645 C   0  0  0  0  0  0  0  0  0  0  0  0
   -3.5579   -0.9635   -0.9584 C   0  0  0  0  0  0  0  0  0  0  0  0
   -3.7979   -0.1467    1.3025 C   0  0  0  0  0  0  0  0  0  0  0  0
   -4.6581   -0.2010   -1.3506 C   0  0  0  0  0  0  0  0  0  0  0  0
   -4.8982    0.6159    0.9104 C   0  0  0  0  0  0  0  0  0  0  0  0
   -5.3284    0.5886   -0.4162 C   0  0  0  0  0  0  0  0  0  0  0  0
  1 24  1  0
  2  8  1  0
  2 10  1  0
  3  9  1  0
  3 17  1  0
  4  7  1  0
  5 18  1  0
  5 19  1  0
  6 17  2  0
  7  8  1  0
  7  9  1  0
 10 11  2  0
 10 12  1  0
 11 13  1  0
 11 14  1  0
 12 15  2  0
 13 16  2  0
 15 16  1  0
 17 18  1  0
 19 20  2  0
 19 21  1  0
 20 22  1  0
 21 23  2  0
 22 24  2  0
 23 24  1  0
M  END
>  <PUBCHEM_COMPOUND_CID>  (1) 
28731

>  <PUBCHEM_CONFORMER_RMSD>  (1) 
1.2

>  <PUBCHEM_CONFORMER_DIVERSEORDER>  (1) 
6
89
20
121
73
87
102
169
15
1
79
56
85
119
71
91
98
21
178
54
146
158
28
160
11
117
139
60
133
8
176
25
97
2
175
94
9
157
152
48
61
70
80
145
180
63
16
155
168
106
137
14
42
82
163
52
131
172
38
72
86
75
77
185
164
104
12
74
83
142
150
124
53
78
92
144
44
34
125
179
19
101
18
182
26
183
40
3
35
65
32
186
126
23
43
118
107
7
90
161
88
29
49
151
10
55
57
123
93
46
174
69
154
66
17
181
115
84
58
127
108
136
36
162
5
112
129
184
140
173
165
31
120
170
67
147
177
45
110
128
62
114
81
143
149
100
153
130
95
76
135
64
24
132
41
109
22
159
13
27
68
96
37
39
51
30
111
105
167
166
171
59
134
141
156
50
4
138
99
47
113
148
33
116
122
103

>  <PUBCHEM_MMFF94_PARTIAL_CHARGES>  (1) 
33
1 -0.18
10 0.08
11 -0.14
12 -0.15
13 -0.15
14 0.14
15 -0.15
16 -0.15
17 0.66
18 0.34
19 0.08
2 -0.36
20 -0.15
21 -0.15
22 -0.15
23 -0.15
24 0.18
3 -0.43
30 0.15
31 0.15
32 0.4
36 0.15
37 0.15
4 -0.68
40 0.15
41 0.15
42 0.15
43 0.15
5 -0.36
6 -0.57
7 0.28
8 0.28
9 0.28

>  <PUBCHEM_EFFECTIVE_ROTOR_COUNT>  (1) 
9

>  <PUBCHEM_PHARMACOPHORE_FEATURES>  (1) 
7
1 2 acceptor
1 4 acceptor
1 4 donor
1 5 acceptor
1 6 acceptor
6 10 11 12 13 15 16 rings
6 19 20 21 22 23 24 rings

>  <PUBCHEM_HEAVY_ATOM_COUNT>  (1) 
24

>  <PUBCHEM_ATOM_DEF_STEREO_COUNT>  (1) 
0

>  <PUBCHEM_ATOM_UDEF_STEREO_COUNT>  (1) 
1

>  <PUBCHEM_BOND_DEF_STEREO_COUNT>  (1) 
0

>  <PUBCHEM_BOND_UDEF_STEREO_COUNT>  (1) 
0

>  <PUBCHEM_ISOTOPIC_ATOM_COUNT>  (1) 
0

>  <PUBCHEM_COMPONENT_COUNT>  (1) 
1

>  <PUBCHEM_CACTVS_TAUTO_COUNT>  (1) 
1

>  <PUBCHEM_CONFORMER_ID>  (1) 
0000703B00000006

>  <PUBCHEM_MMFF94_ENERGY>  (1) 
69.1236

>  <PUBCHEM_FEATURE_SELFOVERLAP>  (1) 
35.534

>  <PUBCHEM_SHAPE_FINGERPRINT>  (1) 
11595378 159 14635145682200169455
12156800 1 17684061614707477810
13150687 139 11526517502677469538
13402501 40 18261109626062687629
14251764 38 18192147320555415679
14848178 96 18336828688436964301
15003188 100 18408879651419784391
151778 21 18118417360467639693
15210252 30 18187377527719462636
16067690 210 15574716872490502125
17093844 170 18410853295913635304
17921350 177 17605252138269204156
18335252 114 18267576911082411207
20567600 299 18271809063748632948
20621476 13 18339079414271779861
21033648 29 17967253092151423359
21315763 76 18412258428887043769
21315764 21 18409455816434161921
21344244 78 17755559578259294867
21475661 188 18260546757734626543
21860390 5 18272661129536582566
22122407 14 18266756684167330129
22289505 5 18337675217727173574
22749437 52 18196086879212732601
23559900 14 18411699893959516703
238 59 17985843746196136818
3014063 31 18337954476448070277
338550 245 18267316352238586625
340366 18 18131354106805942271
354706 35 17616793862667211373
44317340 157 18343864438158900559
474 4 18337107968580021443
508706 21 18041835113437139509
54672768 99 18192155017031607404
550186 7 16252528763933081196
574716 61 18060127774266273543
58902169 19 18129367225866417919

>  <PUBCHEM_SHAPE_MULTIPOLES>  (1) 
466.43
11.93
4.19
1.64
19.26
2.01
-0.48
1.57
2.99
-5.04
0.27
-0.49
0.49
0.95

>  <PUBCHEM_SHAPE_SELFOVERLAP>  (1) 
967.308

>  <PUBCHEM_SHAPE_VOLUME>  (1) 
266.2

>  <PUBCHEM_COORDINATE_TYPE>  (1) 
2
5
10

$$$$
