28753
     RDKit          3D

 28 30  0  0  0  0  0  0  0  0999 V2000
    1.8467   -3.4303    0.0516 O   0  0  0  0  0  0  0  0  0  0  0  0
    4.4890    0.7255   -2.2751 O   0  0  0  0  0  0  0  0  0  0  0  0
    3.7707    1.0751    2.4474 O   0  0  0  0  0  0  0  0  0  0  0  0
    5.0362    1.9551    0.1457 O   0  0  0  0  0  0  0  0  0  0  0  0
   -2.7636   -1.5360    0.0810 N   0  0  0  0  0  0  0  0  0  0  0  0
    0.0339   -2.0021   -0.3205 N   0  0  0  0  0  0  0  0  0  0  0  0
   -1.7875   -0.4694    0.3468 C   0  0  0  0  0  0  0  0  0  0  0  0
   -2.1775   -2.8526    0.3717 C   0  0  0  0  0  0  0  0  0  0  0  0
   -0.5236   -0.6563   -0.4955 C   0  0  0  0  0  0  0  0  0  0  0  0
   -0.9313   -3.0874   -0.4804 C   0  0  0  0  0  0  0  0  0  0  0  0
   -3.9780   -1.3290    0.8690 C   0  0  0  0  0  0  0  0  0  0  0  0
    1.3794   -2.3018   -0.0952 C   0  0  0  0  0  0  0  0  0  0  0  0
   -4.6381   -0.0146    0.5474 C   0  0  0  0  0  0  0  0  0  0  0  0
    2.3369   -1.1895   -0.0322 C   0  0  0  0  0  0  0  0  0  0  0  0
   -4.7848    0.3703   -0.7777 C   0  0  0  0  0  0  0  0  0  0  0  0
   -5.0907    0.7930    1.5811 C   0  0  0  0  0  0  0  0  0  0  0  0
   -5.3967    1.5881   -1.0752 C   0  0  0  0  0  0  0  0  0  0  0  0
    2.6063   -0.5768    1.1888 C   0  0  0  0  0  0  0  0  0  0  0  0
    2.9682   -0.7525   -1.1935 C   0  0  0  0  0  0  0  0  0  0  0  0
   -5.7026    2.0108    1.2838 C   0  0  0  0  0  0  0  0  0  0  0  0
   -5.8555    2.4082   -0.0444 C   0  0  0  0  0  0  0  0  0  0  0  0
    3.8759    0.3051   -1.1335 C   0  0  0  0  0  0  0  0  0  0  0  0
    3.5139    0.4808    1.2487 C   0  0  0  0  0  0  0  0  0  0  0  0
    4.1486    0.9217    0.0876 C   0  0  0  0  0  0  0  0  0  0  0  0
   -5.5603    2.0135   -2.4950 C   0  0  0  0  0  0  0  0  0  0  0  0
    3.8352    1.7490   -3.0228 C   0  0  0  0  0  0  0  0  0  0  0  0
    2.9465    2.1803    2.8124 C   0  0  0  0  0  0  0  0  0  0  0  0
    6.4028    1.6217    0.3779 C   0  0  0  0  0  0  0  0  0  0  0  0
  1 12  2  0
  2 22  1  0
  2 26  1  0
  3 23  1  0
  3 27  1  0
  4 24  1  0
  4 28  1  0
  5  7  1  0
  5  8  1  0
  5 11  1  0
  6  9  1  0
  6 10  1  0
  6 12  1  0
  7  9  1  0
  8 10  1  0
 11 13  1  0
 12 14  1  0
 13 15  2  0
 13 16  1  0
 14 18  2  0
 14 19  1  0
 15 17  1  0
 16 20  2  0
 17 21  2  0
 17 25  1  0
 18 23  1  0
 19 22  2  0
 20 21  1  0
 22 24  1  0
 23 24  2  0
M  END
>  <PUBCHEM_COMPOUND_CID>  (1) 
28753

>  <PUBCHEM_CONFORMER_RMSD>  (1) 
1

>  <PUBCHEM_CONFORMER_DIVERSEORDER>  (1) 
2
24
36
13
56
59
20
51
74
47
38
19
7
25
55
42
70
4
11
63
6
33
9
73
69
31
32
79
65
12
45
46
78
76
15
71
10
67
40
49
82
68
28
17
16
54
52
48
58
53
26
77
39
62
21
34
35
14
22
37
50
1
44
29
43
75
8
80
18
66
60
23
27
72
81
30
5
57
3
64
61
41

>  <PUBCHEM_MMFF94_PARTIAL_CHARGES>  (1) 
34
1 -0.57
10 0.3
11 0.41
12 0.54
13 -0.14
14 0.09
15 -0.15
16 -0.15
17 -0.14
18 -0.15
19 -0.15
2 -0.36
20 -0.15
21 -0.15
22 0.08
23 0.08
24 0.08
25 0.14
26 0.28
27 0.28
28 0.28
3 -0.36
39 0.15
4 -0.36
40 0.15
41 0.15
42 0.15
43 0.15
44 0.15
5 -0.81
6 -0.66
7 0.27
8 0.27
9 0.3

>  <PUBCHEM_EFFECTIVE_ROTOR_COUNT>  (1) 
8.2

>  <PUBCHEM_PHARMACOPHORE_FEATURES>  (1) 
8
1 1 acceptor
1 2 acceptor
1 3 acceptor
1 4 acceptor
1 5 cation
6 13 15 16 17 20 21 rings
6 14 18 19 22 23 24 rings
6 5 6 7 8 9 10 rings

>  <PUBCHEM_HEAVY_ATOM_COUNT>  (1) 
28

>  <PUBCHEM_ATOM_DEF_STEREO_COUNT>  (1) 
0

>  <PUBCHEM_ATOM_UDEF_STEREO_COUNT>  (1) 
0

>  <PUBCHEM_BOND_DEF_STEREO_COUNT>  (1) 
0

>  <PUBCHEM_BOND_UDEF_STEREO_COUNT>  (1) 
0

>  <PUBCHEM_ISOTOPIC_ATOM_COUNT>  (1) 
0

>  <PUBCHEM_COMPONENT_COUNT>  (1) 
1

>  <PUBCHEM_CACTVS_TAUTO_COUNT>  (1) 
1

>  <PUBCHEM_CONFORMER_ID>  (1) 
0000705100000002

>  <PUBCHEM_MMFF94_ENERGY>  (1) 
110.3189

>  <PUBCHEM_FEATURE_SELFOVERLAP>  (1) 
40.607

>  <PUBCHEM_SHAPE_FINGERPRINT>  (1) 
10498660 4 18342746233947183642
105312 117 18342178886316678743
10730089 43 18113336384196909799
10763959 59 18114465544026277894
11089746 13 17846210029738662291
11331351 85 16906649620249864119
11595378 159 16298387912220935445
11720765 8 17843137904869227326
11796584 16 9943262418918300619
12403259 118 17895478136493678031
12422481 6 17458341918652233319
12596602 18 16371017308150768889
12633257 1 16226045656150756202
12769317 202 18202558479967720298
12969540 114 17917991685445422983
13878862 14 18120356688994767511
14341114 328 16950569942674687226
14347329 18 18335151907017934140
144659 39 17168407286740539125
14528608 73 17846772984593478473
14848178 5 7925626679417153155
14848178 96 18341891853657392995
14904385 31 18114176398275322413
14950920 106 15791728620356391145
15183329 4 14979959155483571629
15238133 3 18041283257410311780
15342816 4 10663831771345268474
15513586 35 17462587301063055685
15669420 48 15408893042757280675
1601671 61 18334019397230484140
16067690 210 16660921076718384581
16708801 149 17752472180179796421
1768 210 18058712702870183001
19246450 95 17098023119356413864
19301679 30 7853563652783601093
193927 3 9007056885603271475
20691028 202 18266470819602368569
21033648 29 18412546526592451561
21302155 148 18114185250191992853
21388113 180 18057591251990745217
21968339 14 17418092092658400126
23559900 14 18267868276726187115
2748736 6 18409162186995421829
2838139 119 17917422086971928043
312425 54 14273732911573363057
312425 83 16271929311454462861
3459 39 18335135410328177269
34797466 226 16917343754124965789
350125 39 18264492793503812942
376196 1 18338795607671627251
4371632 12 16986002843483693401
46194498 28 16771835600422411558
5104073 3 18187651288639816115
57724786 102 18191038798386835495
6086070 43 17918267675696227010
7808743 9 18336270162157452438
7918774 8 9439114403754534693

>  <PUBCHEM_SHAPE_MULTIPOLES>  (1) 
542.79
15.93
3.39
2.3
8.58
1.97
-0.4
-14.7
-0.89
0.88
-0.12
-1.69
-2.16
1.11

>  <PUBCHEM_SHAPE_SELFOVERLAP>  (1) 
1147.405

>  <PUBCHEM_SHAPE_VOLUME>  (1) 
306.2

>  <PUBCHEM_COORDINATE_TYPE>  (1) 
2
5
10

$$$$
