28755
     RDKit          3D

 26 28  0  0  0  0  0  0  0  0999 V2000
    0.8892   -2.4543   -2.0288 O   0  0  0  0  0  0  0  0  0  0  0  0
    4.0945    1.9328   -1.4867 O   0  0  0  0  0  0  0  0  0  0  0  0
    4.0908   -1.1382    2.1879 O   0  0  0  0  0  0  0  0  0  0  0  0
    5.2145    1.0279    0.8791 O   0  0  0  0  0  0  0  0  0  0  0  0
   -3.2483   -0.1789   -0.1732 N   0  0  0  0  0  0  0  0  0  0  0  0
   -0.5775   -1.0554   -0.8685 N   0  0  0  0  0  0  0  0  0  0  0  0
   -2.1336    0.7717   -0.2087 C   0  0  0  0  0  0  0  0  0  0  0  0
   -2.9787   -1.5747   -0.5298 C   0  0  0  0  0  0  0  0  0  0  0  0
   -0.8067    0.0599    0.0554 C   0  0  0  0  0  0  0  0  0  0  0  0
   -1.7662   -1.6696   -1.4527 C   0  0  0  0  0  0  0  0  0  0  0  0
   -4.5326    0.2341    0.1726 C   0  0  0  0  0  0  0  0  0  0  0  0
    0.6835   -1.5202   -1.2550 C   0  0  0  0  0  0  0  0  0  0  0  0
    1.8706   -0.8532   -0.6964 C   0  0  0  0  0  0  0  0  0  0  0  0
   -4.9821    1.5482   -0.0981 C   0  0  0  0  0  0  0  0  0  0  0  0
   -5.4417   -0.6430    0.8100 C   0  0  0  0  0  0  0  0  0  0  0  0
    2.4272   -1.3139    0.4933 C   0  0  0  0  0  0  0  0  0  0  0  0
    2.4296    0.2349   -1.3609 C   0  0  0  0  0  0  0  0  0  0  0  0
   -6.2681    1.9619    0.2489 C   0  0  0  0  0  0  0  0  0  0  0  0
   -6.7279   -0.2293    1.1569 C   0  0  0  0  0  0  0  0  0  0  0  0
    3.5544    0.8674   -0.8313 C   0  0  0  0  0  0  0  0  0  0  0  0
    3.5519   -0.6814    1.0230 C   0  0  0  0  0  0  0  0  0  0  0  0
   -7.1410    1.0732    0.8763 C   0  0  0  0  0  0  0  0  0  0  0  0
    4.1156    0.4092    0.3607 C   0  0  0  0  0  0  0  0  0  0  0  0
    3.5986    3.2248   -1.1421 C   0  0  0  0  0  0  0  0  0  0  0  0
    3.5958   -0.5685    3.3981 C   0  0  0  0  0  0  0  0  0  0  0  0
    6.4881    0.5347    0.4699 C   0  0  0  0  0  0  0  0  0  0  0  0
  1 12  2  0
  2 20  1  0
  2 24  1  0
  3 21  1  0
  3 25  1  0
  4 23  1  0
  4 26  1  0
  5  7  1  0
  5  8  1  0
  5 11  1  0
  6  9  1  0
  6 10  1  0
  6 12  1  0
  7  9  1  0
  8 10  1  0
 11 14  2  0
 11 15  1  0
 12 13  1  0
 13 16  2  0
 13 17  1  0
 14 18  1  0
 15 19  2  0
 16 21  1  0
 17 20  2  0
 18 22  2  0
 19 22  1  0
 20 23  1  0
 21 23  2  0
M  END
>  <PUBCHEM_COMPOUND_CID>  (1) 
28755

>  <PUBCHEM_CONFORMER_RMSD>  (1) 
0.8

>  <PUBCHEM_CONFORMER_DIVERSEORDER>  (1) 
1
21
12
22
9
19
14
10
17
11
7
16
18
13
6
20
8
24
15
5
3
4
23
2

>  <PUBCHEM_MMFF94_PARTIAL_CHARGES>  (1) 
33
1 -0.57
10 0.3
11 0.1
12 0.54
13 0.09
14 -0.15
15 -0.15
16 -0.15
17 -0.15
18 -0.15
19 -0.15
2 -0.36
20 0.08
21 0.08
22 -0.15
23 0.08
24 0.28
25 0.28
26 0.28
3 -0.36
35 0.15
36 0.15
37 0.15
38 0.15
39 0.15
4 -0.36
40 0.15
41 0.15
5 -0.84
6 -0.66
7 0.37
8 0.37
9 0.3

>  <PUBCHEM_EFFECTIVE_ROTOR_COUNT>  (1) 
7.2

>  <PUBCHEM_PHARMACOPHORE_FEATURES>  (1) 
8
1 1 acceptor
1 2 acceptor
1 3 acceptor
1 4 acceptor
1 5 cation
6 11 14 15 18 19 22 rings
6 13 16 17 20 21 23 rings
6 5 6 7 8 9 10 rings

>  <PUBCHEM_HEAVY_ATOM_COUNT>  (1) 
26

>  <PUBCHEM_ATOM_DEF_STEREO_COUNT>  (1) 
0

>  <PUBCHEM_ATOM_UDEF_STEREO_COUNT>  (1) 
0

>  <PUBCHEM_BOND_DEF_STEREO_COUNT>  (1) 
0

>  <PUBCHEM_BOND_UDEF_STEREO_COUNT>  (1) 
0

>  <PUBCHEM_ISOTOPIC_ATOM_COUNT>  (1) 
0

>  <PUBCHEM_COMPONENT_COUNT>  (1) 
1

>  <PUBCHEM_CACTVS_TAUTO_COUNT>  (1) 
1

>  <PUBCHEM_CONFORMER_ID>  (1) 
0000705300000001

>  <PUBCHEM_MMFF94_ENERGY>  (1) 
119.1599

>  <PUBCHEM_FEATURE_SELFOVERLAP>  (1) 
40.607

>  <PUBCHEM_SHAPE_FINGERPRINT>  (1) 
10 15 18411422809003833283
10498660 4 17560805454304805822
10670039 82 17773898435783245312
10674148 151 18264222447599789532
10693767 8 10663282033223485300
11069576 57 10159436309619326580
11724838 91 18409727387252808143
12236239 1 18409725192856861622
12403259 118 18339640156527277495
12596602 18 17894635855501215881
12616971 3 18334851740449189607
12730499 353 16630533933584405823
12760667 363 12396299258077776631
12778500 126 17677047945402503177
12969540 114 16630239239046056285
13533116 47 16950283983635874105
13583140 156 17458889492459327879
13668630 136 7781518122364893737
13673619 4 16081643358486446770
13685833 64 13190342365642156838
13726171 33 18055650656785336048
13782708 43 14852146400933006376
14251764 75 18120383313192035252
14341114 328 18114183076674647143
14347332 77 9727362294840895199
14461889 52 18343027705510453595
14528608 73 15626217997145474159
14681490 219 14549017671920780483
14849402 71 17750518554439217668
14950920 106 17676480640657692289
15238133 3 18341895238202443724
17134984 74 10807929362602632868
1813 80 13551194359791377431
18222031 100 13479137886876732271
19377110 9 18261108612777751619
193927 3 13118286941058936503
20028762 73 14057012641414707441
21033648 29 17560222735255361306
21150785 3 15195562403997107285
22122407 14 18261969525765839929
221357 26 14620801483247065546
22149856 69 17987821639636010035
23559900 14 18196387926661919015
268830 7 18187919625094582103
312425 54 16877947101440162241
3472631 163 17632293522947590580
3663271 9 17821733836485670209
3680242 22 18410016502871012289
38570 142 17824561883709292292
5104073 3 17968376878380319384
53794403 172 17130411587725940921
59682541 52 15195018093436873165
960060 61 11239994555670127239
9658208 31 17489590107628031638

>  <PUBCHEM_SHAPE_MULTIPOLES>  (1) 
501.63
17.23
2.26
1.97
18.55
1.15
-1.19
7.85
-8.03
-1.04
1.01
-2.63
-0.9
-1.79

>  <PUBCHEM_SHAPE_SELFOVERLAP>  (1) 
1064.032

>  <PUBCHEM_SHAPE_VOLUME>  (1) 
280.9

>  <PUBCHEM_COORDINATE_TYPE>  (1) 
2
5
10

$$$$
