28750
     RDKit          3D

  6  5  0  0  1  0  0  0  0  0999 V2000
   -2.0544   -0.8139    0.5187 Br  0  0  0  0  0  0  0  0  0  0  0  0
   -0.3877    1.7120    0.5166 Cl  0  0  0  0  0  0  0  0  0  0  0  0
    2.3937   -0.1645    0.0929 Cl  0  0  0  0  0  0  0  0  0  0  0  0
   -0.3672    0.0249   -0.0774 C   0  0  0  0  0  0  0  0  0  0  0  0
    0.7801   -0.7705    0.5523 C   0  0  0  0  0  0  0  0  0  0  0  0
   -0.3644    0.0121   -1.6031 C   0  0  0  0  0  0  0  0  0  0  0  0
  1  4  1  0
  2  4  1  0
  3  5  1  0
  4  5  1  0
  4  6  1  0
M  END
>  <PUBCHEM_COMPOUND_CID>  (1) 
28750

>  <PUBCHEM_CONFORMER_RMSD>  (1) 
0.4

>  <PUBCHEM_CONFORMER_DIVERSEORDER>  (1) 
2
3
6
1
5
4

>  <PUBCHEM_MMFF94_PARTIAL_CHARGES>  (1) 
5
1 -0.23
2 -0.29
3 -0.29
4 0.52
5 0.29

>  <PUBCHEM_EFFECTIVE_ROTOR_COUNT>  (1) 
1

>  <PUBCHEM_PHARMACOPHORE_FEATURES>  (1) 
2
1 1 hydrophobe
3 1 4 6 hydrophobe

>  <PUBCHEM_HEAVY_ATOM_COUNT>  (1) 
6

>  <PUBCHEM_ATOM_DEF_STEREO_COUNT>  (1) 
0

>  <PUBCHEM_ATOM_UDEF_STEREO_COUNT>  (1) 
1

>  <PUBCHEM_BOND_DEF_STEREO_COUNT>  (1) 
0

>  <PUBCHEM_BOND_UDEF_STEREO_COUNT>  (1) 
0

>  <PUBCHEM_ISOTOPIC_ATOM_COUNT>  (1) 
0

>  <PUBCHEM_COMPONENT_COUNT>  (1) 
1

>  <PUBCHEM_CACTVS_TAUTO_COUNT>  (1) 
1

>  <PUBCHEM_CONFORMER_ID>  (1) 
0000704E00000002

>  <PUBCHEM_MMFF94_ENERGY>  (1) 
7.7784

>  <PUBCHEM_FEATURE_SELFOVERLAP>  (1) 
11.073

>  <PUBCHEM_SHAPE_FINGERPRINT>  (1) 
137420 1 11307620065396520831
16714656 1 17561362876777644492
20096714 4 17765429851360230704
24536 1 18120353381632682834
29004967 10 18340767130128523234
5943 1 10787429436416695789

>  <PUBCHEM_SHAPE_MULTIPOLES>  (1) 
133.16
2.62
1.37
1.19
0.74
0.69
-0.59
-0.93
0.52
-0.26
0.37
-0.17
0.04
0.02

>  <PUBCHEM_SHAPE_SELFOVERLAP>  (1) 
207.757

>  <PUBCHEM_SHAPE_VOLUME>  (1) 
98

>  <PUBCHEM_COORDINATE_TYPE>  (1) 
2
5
10

$$$$
