28757
     RDKit          3D

 28 30  0  0  0  0  0  0  0  0999 V2000
    1.0939    2.1015   -2.3278 O   0  0  0  0  0  0  0  0  0  0  0  0
   -5.1863    1.5100    0.0960 O   0  0  0  0  0  0  0  0  0  0  0  0
    3.8825   -2.4042   -1.0781 O   0  0  0  0  0  0  0  0  0  0  0  0
    4.8833    1.4785    1.5417 O   0  0  0  0  0  0  0  0  0  0  0  0
    5.5167   -1.0946    0.7346 O   0  0  0  0  0  0  0  0  0  0  0  0
   -2.7478    0.0848   -0.0672 N   0  0  0  0  0  0  0  0  0  0  0  0
   -0.2597    1.2954   -0.6027 N   0  0  0  0  0  0  0  0  0  0  0  0
   -2.5811    0.8898   -1.2890 C   0  0  0  0  0  0  0  0  0  0  0  0
   -1.5233   -0.5076    0.4904 C   0  0  0  0  0  0  0  0  0  0  0  0
   -1.4774    1.9286   -1.0987 C   0  0  0  0  0  0  0  0  0  0  0  0
   -0.4433    0.5607    0.6511 C   0  0  0  0  0  0  0  0  0  0  0  0
   -3.9747   -0.5622    0.1215 C   0  0  0  0  0  0  0  0  0  0  0  0
    0.9418    1.4533   -1.2935 C   0  0  0  0  0  0  0  0  0  0  0  0
   -5.1951    0.1513    0.2029 C   0  0  0  0  0  0  0  0  0  0  0  0
    2.1373    0.7863   -0.7622 C   0  0  0  0  0  0  0  0  0  0  0  0
   -4.0415   -1.9711    0.2385 C   0  0  0  0  0  0  0  0  0  0  0  0
   -6.4109   -0.5065    0.3905 C   0  0  0  0  0  0  0  0  0  0  0  0
    2.9529    1.4521    0.1483 C   0  0  0  0  0  0  0  0  0  0  0  0
    2.4487   -0.5062   -1.1737 C   0  0  0  0  0  0  0  0  0  0  0  0
   -5.2572   -2.6288    0.4261 C   0  0  0  0  0  0  0  0  0  0  0  0
   -6.4419   -1.8965    0.5022 C   0  0  0  0  0  0  0  0  0  0  0  0
    3.5855   -1.1387   -0.6702 C   0  0  0  0  0  0  0  0  0  0  0  0
    4.0897    0.8197    0.6517 C   0  0  0  0  0  0  0  0  0  0  0  0
    4.4060   -0.4757    0.2425 C   0  0  0  0  0  0  0  0  0  0  0  0
   -5.0407    2.2536    1.3039 C   0  0  0  0  0  0  0  0  0  0  0  0
    3.3366   -3.4766   -0.3126 C   0  0  0  0  0  0  0  0  0  0  0  0
    4.5750    1.3211    2.9253 C   0  0  0  0  0  0  0  0  0  0  0  0
    6.7310   -0.9179    0.0086 C   0  0  0  0  0  0  0  0  0  0  0  0
  1 13  2  0
  2 14  1  0
  2 25  1  0
  3 22  1  0
  3 26  1  0
  4 23  1  0
  4 27  1  0
  5 24  1  0
  5 28  1  0
  6  8  1  0
  6  9  1  0
  6 12  1  0
  7 10  1  0
  7 11  1  0
  7 13  1  0
  8 10  1  0
  9 11  1  0
 12 14  2  0
 12 16  1  0
 13 15  1  0
 14 17  1  0
 15 18  2  0
 15 19  1  0
 16 20  2  0
 17 21  2  0
 18 23  1  0
 19 22  2  0
 20 21  1  0
 22 24  1  0
 23 24  2  0
M  END
>  <PUBCHEM_COMPOUND_CID>  (1) 
28757

>  <PUBCHEM_CONFORMER_RMSD>  (1) 
1

>  <PUBCHEM_CONFORMER_DIVERSEORDER>  (1) 
1
22
5
13
10
11
17
23
14
18
20
8
12
6
15
4
21
25
3
7
9
24
26
19
2
16

>  <PUBCHEM_MMFF94_PARTIAL_CHARGES>  (1) 
34
1 -0.57
10 0.3
11 0.3
12 0.1
13 0.54
14 0.08
15 0.09
16 -0.15
17 -0.15
18 -0.15
19 -0.15
2 -0.36
20 -0.15
21 -0.15
22 0.08
23 0.08
24 0.08
25 0.28
26 0.28
27 0.28
28 0.28
3 -0.36
37 0.15
38 0.15
39 0.15
4 -0.36
40 0.15
41 0.15
42 0.15
5 -0.36
6 -0.84
7 -0.66
8 0.37
9 0.37

>  <PUBCHEM_EFFECTIVE_ROTOR_COUNT>  (1) 
8.2

>  <PUBCHEM_PHARMACOPHORE_FEATURES>  (1) 
9
1 1 acceptor
1 2 acceptor
1 3 acceptor
1 4 acceptor
1 5 acceptor
1 6 cation
6 12 14 16 17 20 21 rings
6 15 18 19 22 23 24 rings
6 6 7 8 9 10 11 rings

>  <PUBCHEM_HEAVY_ATOM_COUNT>  (1) 
28

>  <PUBCHEM_ATOM_DEF_STEREO_COUNT>  (1) 
0

>  <PUBCHEM_ATOM_UDEF_STEREO_COUNT>  (1) 
0

>  <PUBCHEM_BOND_DEF_STEREO_COUNT>  (1) 
0

>  <PUBCHEM_BOND_UDEF_STEREO_COUNT>  (1) 
0

>  <PUBCHEM_ISOTOPIC_ATOM_COUNT>  (1) 
0

>  <PUBCHEM_COMPONENT_COUNT>  (1) 
1

>  <PUBCHEM_CACTVS_TAUTO_COUNT>  (1) 
1

>  <PUBCHEM_CONFORMER_ID>  (1) 
0000705500000001

>  <PUBCHEM_MMFF94_ENERGY>  (1) 
136.7121

>  <PUBCHEM_FEATURE_SELFOVERLAP>  (1) 
45.683

>  <PUBCHEM_SHAPE_FINGERPRINT>  (1) 
10165383 225 18270118067549953064
10378564 45 7925646504791025832
11069576 57 15574979625788730226
11443803 9 17823710857762651004
11963148 33 18260823783564211842
12107183 9 18265066730294846233
12128747 34 17987237724960974217
12422481 6 18412827975794460471
12596602 18 16845013527994880627
12616971 3 16630235974776296620
12892183 10 18202565085685794165
13073987 5 18202569471348264809
13533116 47 18130793343027362018
13583140 156 17632572773400221833
14211702 104 17896609573304734891
14294032 229 16300057997453941437
15183329 4 17312818295247598163
15250474 111 18194965377722231871
15348495 7 18130786789112698169
15484559 13 14508817709706249139
17349148 13 16732697233842709888
17844677 252 18271815631091330009
17857418 61 18261395572380005799
1813 80 17240486918297750501
1979834 28 18342462568642971886
20028762 73 18260265286789840859
21197605 99 18268713981493386862
21792934 111 18412549838967148913
22061861 79 13406785632238427881
22122407 14 16702019760127388849
23516275 100 9870879330990801603
23522609 53 17898039912861871140
23559900 14 18412266108088128596
2838139 119 10015572896366863086
3004659 81 17603870034935757958
312425 54 18270970033687743785
3178227 256 18059850663530398642
32027 91 18120365454532973063
3383291 50 18114187497151576859
338550 245 18335707203651585311
354706 109 18340750599295818931
397830 11 18130780217575585833
4073 2 18409735083781663179
4340502 62 17917991715462591066
463206 1 18264210381950152415
5104073 3 18131076991768877075
559249 180 18260267443759442439

>  <PUBCHEM_SHAPE_MULTIPOLES>  (1) 
536.92
17
2.88
1.6
6.89
1.6
0.44
6.42
6.23
0.29
-0.17
-1.91
-1.1
1.44

>  <PUBCHEM_SHAPE_SELFOVERLAP>  (1) 
1136.536

>  <PUBCHEM_SHAPE_VOLUME>  (1) 
301.6

>  <PUBCHEM_COORDINATE_TYPE>  (1) 
2
5
10

$$$$
