28759
     RDKit          3D

 27 29  0  0  0  0  0  0  0  0999 V2000
    1.1880    1.7382    2.6725 O   0  0  0  0  0  0  0  0  0  0  0  0
    4.2866    1.7798   -1.8167 O   0  0  0  0  0  0  0  0  0  0  0  0
    4.4633   -2.2158    0.8172 O   0  0  0  0  0  0  0  0  0  0  0  0
    5.4928   -0.6391   -1.2128 O   0  0  0  0  0  0  0  0  0  0  0  0
   -2.9585   -0.0222    0.3387 N   0  0  0  0  0  0  0  0  0  0  0  0
   -0.2856    0.6914    1.1937 N   0  0  0  0  0  0  0  0  0  0  0  0
   -1.8247   -0.9116    0.0727 C   0  0  0  0  0  0  0  0  0  0  0  0
   -2.7059    1.2192    1.0756 C   0  0  0  0  0  0  0  0  0  0  0  0
   -0.5208   -0.1175   -0.0065 C   0  0  0  0  0  0  0  0  0  0  0  0
   -1.4677    1.0787    1.9579 C   0  0  0  0  0  0  0  0  0  0  0  0
   -4.2444   -0.3540   -0.0810 C   0  0  0  0  0  0  0  0  0  0  0  0
    0.9772    1.0603    1.6677 C   0  0  0  0  0  0  0  0  0  0  0  0
   -5.1905    0.6432   -0.4170 C   0  0  0  0  0  0  0  0  0  0  0  0
    2.1596    0.6151    0.9129 C   0  0  0  0  0  0  0  0  0  0  0  0
   -4.6588   -1.7026   -0.1892 C   0  0  0  0  0  0  0  0  0  0  0  0
   -6.4781    0.3103   -0.8376 C   0  0  0  0  0  0  0  0  0  0  0  0
   -5.9464   -2.0354   -0.6098 C   0  0  0  0  0  0  0  0  0  0  0  0
    2.7601   -0.6017    1.2228 C   0  0  0  0  0  0  0  0  0  0  0  0
    2.6706    1.4136   -0.1065 C   0  0  0  0  0  0  0  0  0  0  0  0
   -6.8560   -1.0290   -0.9340 C   0  0  0  0  0  0  0  0  0  0  0  0
    3.7915    0.9917   -0.8218 C   0  0  0  0  0  0  0  0  0  0  0  0
    3.8810   -1.0236    0.5078 C   0  0  0  0  0  0  0  0  0  0  0  0
   -7.4512    1.3858   -1.1837 C   0  0  0  0  0  0  0  0  0  0  0  0
    4.3967   -0.2270   -0.5146 C   0  0  0  0  0  0  0  0  0  0  0  0
    3.7688    1.5690   -3.1287 C   0  0  0  0  0  0  0  0  0  0  0  0
    3.9854   -3.3688    0.1272 C   0  0  0  0  0  0  0  0  0  0  0  0
    6.7670   -0.2479   -0.7066 C   0  0  0  0  0  0  0  0  0  0  0  0
  1 12  2  0
  2 21  1  0
  2 25  1  0
  3 22  1  0
  3 26  1  0
  4 24  1  0
  4 27  1  0
  5  7  1  0
  5  8  1  0
  5 11  1  0
  6  9  1  0
  6 10  1  0
  6 12  1  0
  7  9  1  0
  8 10  1  0
 11 13  2  0
 11 15  1  0
 12 14  1  0
 13 16  1  0
 14 18  2  0
 14 19  1  0
 15 17  2  0
 16 20  2  0
 16 23  1  0
 17 20  1  0
 18 22  1  0
 19 21  2  0
 21 24  1  0
 22 24  2  0
M  END
>  <PUBCHEM_COMPOUND_CID>  (1) 
28759

>  <PUBCHEM_CONFORMER_RMSD>  (1) 
0.8

>  <PUBCHEM_CONFORMER_DIVERSEORDER>  (1) 
2
47
37
49
57
27
41
33
25
44
52
26
58
18
55
45
16
51
11
28
54
38
23
10
56
19
30
40
59
21
46
24
35
17
29
53
34
15
7
20
14
43
50
13
3
36
42
8
5
9
39
4
32
48
6
31
1
22
12

>  <PUBCHEM_MMFF94_PARTIAL_CHARGES>  (1) 
33
1 -0.57
10 0.3
11 0.1
12 0.54
13 -0.15
14 0.09
15 -0.15
16 -0.14
17 -0.15
18 -0.15
19 -0.15
2 -0.36
20 -0.15
21 0.08
22 0.08
23 0.14
24 0.08
25 0.28
26 0.28
27 0.28
3 -0.36
36 0.15
37 0.15
38 0.15
39 0.15
4 -0.36
40 0.15
41 0.15
5 -0.84
6 -0.66
7 0.37
8 0.37
9 0.3

>  <PUBCHEM_EFFECTIVE_ROTOR_COUNT>  (1) 
7.2

>  <PUBCHEM_PHARMACOPHORE_FEATURES>  (1) 
8
1 1 acceptor
1 2 acceptor
1 3 acceptor
1 4 acceptor
1 5 cation
6 11 13 15 16 17 20 rings
6 14 18 19 21 22 24 rings
6 5 6 7 8 9 10 rings

>  <PUBCHEM_HEAVY_ATOM_COUNT>  (1) 
27

>  <PUBCHEM_ATOM_DEF_STEREO_COUNT>  (1) 
0

>  <PUBCHEM_ATOM_UDEF_STEREO_COUNT>  (1) 
0

>  <PUBCHEM_BOND_DEF_STEREO_COUNT>  (1) 
0

>  <PUBCHEM_BOND_UDEF_STEREO_COUNT>  (1) 
0

>  <PUBCHEM_ISOTOPIC_ATOM_COUNT>  (1) 
0

>  <PUBCHEM_COMPONENT_COUNT>  (1) 
1

>  <PUBCHEM_CACTVS_TAUTO_COUNT>  (1) 
1

>  <PUBCHEM_CONFORMER_ID>  (1) 
0000705700000002

>  <PUBCHEM_MMFF94_ENERGY>  (1) 
121.7661

>  <PUBCHEM_FEATURE_SELFOVERLAP>  (1) 
40.607

>  <PUBCHEM_SHAPE_FINGERPRINT>  (1) 
10622 236 18123464982375906898
11069576 57 18340210674804567646
11135609 127 18189051052957456260
11135609 149 17315045811416815170
11796584 16 17918275385209697239
12107698 1 17385716985394308876
12730499 353 14634865319176980769
12760667 363 17132116844972541793
14528608 73 16805316726004739451
14681490 219 17385721409052920741
14849402 71 11023524906166658074
14931854 50 18341058441023882078
15183329 4 18408321064873690493
15188451 53 14692567715588907521
15510800 12 16630259072603805422
15575132 122 16443611417113783703
15799311 1 18342472451811177891
15803439 3 17902832805070997806
17134984 74 18410291436881972266
17349148 13 15913055369395421235
17857418 61 18202559566879607283
18222031 100 16702020893993206785
193927 3 16845301561444402009
20369508 70 17774996920939646664
20567600 234 7853569132819031547
21033648 29 14129632133239282156
21223535 225 16805597015201666829
21279426 13 18130494298257036177
21315764 119 18334572409214911087
221357 26 17386002849843628100
2303208 19 18129659837667069451
23516275 100 16082497867514663797
23522609 53 17986140537269637561
23559900 14 18130497652215343305
239999 70 17346316055143532920
2838139 119 16009018519258561749
29717793 49 18259982652197645203
3004659 81 18410007732690244666
312425 54 13038916542613673999
34797466 226 17313104189877427771
3663271 9 11167943576272212807
394071 54 16008752441623342661
4098825 35 18114176410874731109
44317340 157 17822300106169450393
46194498 28 17748827410633264334
465052 167 17274824704934789245
5104073 3 17203888557123196115
53794403 172 14707791630274215654
59682541 52 18113898255971063127
86090 222 14979414922971357812
960060 61 18408603686179303977

>  <PUBCHEM_SHAPE_MULTIPOLES>  (1) 
522.21
18.75
2.27
1.99
18.95
1.5
-0.14
3.47
-10.64
-1.54
-0.26
-1.89
-1.45
-1.49

>  <PUBCHEM_SHAPE_SELFOVERLAP>  (1) 
1106.056

>  <PUBCHEM_SHAPE_VOLUME>  (1) 
293.7

>  <PUBCHEM_COORDINATE_TYPE>  (1) 
2
5
10

$$$$
