2876
     RDKit          3D

 17 18  0  0  0  0  0  0  0  0999 V2000
    2.5657   -0.3302   -0.8530 S   0  0  0  0  0  0  0  0  0  0  0  0
   -1.3433    2.7869    0.2115 O   0  0  0  0  0  0  0  0  0  0  0  0
    0.3604   -2.2165   -0.5651 O   0  0  0  0  0  0  0  0  0  0  0  0
    5.4515   -0.0253    0.1653 O   0  0  0  0  0  0  0  0  0  0  0  0
   -1.8783    0.5130    0.0843 C   0  0  0  0  0  0  0  0  0  0  0  0
   -1.4331   -0.7891   -0.1191 C   0  0  0  0  0  0  0  0  0  0  0  0
    0.4985    1.3695   -0.2964 C   0  0  0  0  0  0  0  0  0  0  0  0
    0.9220    0.1047   -0.4757 C   0  0  0  0  0  0  0  0  0  0  0  0
   -0.9393    1.6444    0.0193 C   0  0  0  0  0  0  0  0  0  0  0  0
   -0.0131   -1.0593   -0.4011 C   0  0  0  0  0  0  0  0  0  0  0  0
   -3.2320    0.7540    0.3547 C   0  0  0  0  0  0  0  0  0  0  0  0
   -2.3407   -1.8549   -0.0532 C   0  0  0  0  0  0  0  0  0  0  0  0
    1.3537    2.6123   -0.3295 C   0  0  0  0  0  0  0  0  0  0  0  0
    3.1962   -0.5759    0.8188 C   0  0  0  0  0  0  0  0  0  0  0  0
   -4.1332   -0.3089    0.4194 C   0  0  0  0  0  0  0  0  0  0  0  0
   -3.6878   -1.6121    0.2156 C   0  0  0  0  0  0  0  0  0  0  0  0
    4.6528   -1.0125    0.8042 C   0  0  0  0  0  0  0  0  0  0  0  0
  1  8  1  0
  1 14  1  0
  2  9  2  0
  3 10  2  0
  4 17  1  0
  5  6  2  0
  5  9  1  0
  5 11  1  0
  6 10  1  0
  6 12  1  0
  7  8  2  0
  7  9  1  0
  7 13  1  0
  8 10  1  0
 11 15  2  0
 12 16  2  0
 14 17  1  0
 15 16  1  0
M  END
>  <PUBCHEM_COMPOUND_CID>  (1) 
2876

>  <PUBCHEM_CONFORMER_RMSD>  (1) 
0.6

>  <PUBCHEM_CONFORMER_DIVERSEORDER>  (1) 
1
3
9
8
5
2
4
6
7

>  <PUBCHEM_MMFF94_PARTIAL_CHARGES>  (1) 
22
1 -0.33
10 0.47
11 -0.15
12 -0.15
13 0.14
14 0.23
15 -0.15
16 -0.15
17 0.28
18 0.15
19 0.15
2 -0.57
25 0.15
26 0.15
29 0.4
3 -0.57
4 -0.68
5 0.09
6 0.09
7 -0.12
8 0.12
9 0.47

>  <PUBCHEM_EFFECTIVE_ROTOR_COUNT>  (1) 
3

>  <PUBCHEM_PHARMACOPHORE_FEATURES>  (1) 
6
1 2 acceptor
1 3 acceptor
1 4 acceptor
1 4 donor
6 5 6 11 12 15 16 rings
6 5 6 7 8 9 10 rings

>  <PUBCHEM_HEAVY_ATOM_COUNT>  (1) 
17

>  <PUBCHEM_ATOM_DEF_STEREO_COUNT>  (1) 
0

>  <PUBCHEM_ATOM_UDEF_STEREO_COUNT>  (1) 
0

>  <PUBCHEM_BOND_DEF_STEREO_COUNT>  (1) 
0

>  <PUBCHEM_BOND_UDEF_STEREO_COUNT>  (1) 
0

>  <PUBCHEM_ISOTOPIC_ATOM_COUNT>  (1) 
0

>  <PUBCHEM_COMPONENT_COUNT>  (1) 
1

>  <PUBCHEM_CACTVS_TAUTO_COUNT>  (1) 
3

>  <PUBCHEM_CONFORMER_ID>  (1) 
00000B3C00000001

>  <PUBCHEM_MMFF94_ENERGY>  (1) 
43.2008

>  <PUBCHEM_FEATURE_SELFOVERLAP>  (1) 
30.467

>  <PUBCHEM_SHAPE_FINGERPRINT>  (1) 
10062212 137 18409449215232782367
10967382 1 17980489172003379677
11132069 177 18341900653676123647
12236239 1 17894355458619240502
12251169 10 18411138043217120803
124424 183 18186517722368894935
12553582 1 18338535074490351311
13140716 1 18339930423618463201
13214271 11 18343861100304601967
14178342 30 18198072373710789953
14420673 8 17617651061115184314
14787075 74 18040717004579450402
15196674 1 18338800120985175933
15209294 21 17702955708070548521
15375462 189 18040711463865988226
15375462 478 18409165510862012270
15536298 74 18270121352239487696
16945 1 18339936917640721597
17804303 29 18342457049646555928
1813 80 17386295294346349134
200 152 15864068750444002250
20028762 73 17986114230542624079
20510252 161 18200595774524203832
21029758 27 18333453157527266812
21267235 1 18337118941984222299
21501502 16 18267873972152560133
22182313 1 18126575517839263615
2297311 6 18342469110484415966
2334 1 18124321755410126997
23366157 5 17898291851479978684
23402539 116 18342448244916334415
23419403 2 15907643624376002901
23463225 33 18337676424633894085
23557571 272 18200884963715657348
23559900 14 18411978087745107296
24859131 72 18339074891729096554
25147074 1 18269003157730587181
2748010 2 18268436913479292637
335352 9 18410013230649134957
34934 24 18338511924901631231
43471831 8 18262798441658781938
5104073 3 18196667391851852571
7364860 26 18197501942077475460
81228 2 18195831586282727353
84936 31 16199884855505067094
90316 7 18261673653858006648

>  <PUBCHEM_SHAPE_MULTIPOLES>  (1) 
336.09
7.85
2.48
0.81
6.58
1.29
0
-3.11
2.17
-0.64
-0.11
0.41
-0.11
-0.41

>  <PUBCHEM_SHAPE_SELFOVERLAP>  (1) 
706.48

>  <PUBCHEM_SHAPE_VOLUME>  (1) 
190.9

>  <PUBCHEM_COORDINATE_TYPE>  (1) 
2
5
10

$$$$
