28764
     RDKit          3D

 27 28  0  0  0  0  0  0  0  0999 V2000
   -6.9541   -0.6846    0.2470 O   0  0  0  0  0  0  0  0  0  0  0  0
    0.8489    0.0544   -2.3177 O   0  0  0  0  0  0  0  0  0  0  0  0
    4.6609   -2.6647   -0.4061 O   0  0  0  0  0  0  0  0  0  0  0  0
    5.2275    1.8203    1.1761 O   0  0  0  0  0  0  0  0  0  0  0  0
    6.1690   -0.7742    0.9449 O   0  0  0  0  0  0  0  0  0  0  0  0
   -9.5895   -0.8863    1.1653 O   0  0  0  0  0  0  0  0  0  0  0  0
   -3.7021    1.0335    0.0193 N   0  0  0  0  0  0  0  0  0  0  0  0
   -0.9934    1.5012   -0.8768 N   0  0  0  0  0  0  0  0  0  0  0  0
   -3.2992    2.3265   -0.5471 C   0  0  0  0  0  0  0  0  0  0  0  0
   -2.8893   -0.0496   -0.5478 C   0  0  0  0  0  0  0  0  0  0  0  0
   -1.8070    2.5841   -0.3104 C   0  0  0  0  0  0  0  0  0  0  0  0
   -1.3970    0.2074   -0.3124 C   0  0  0  0  0  0  0  0  0  0  0  0
   -5.1249    0.7882   -0.2075 C   0  0  0  0  0  0  0  0  0  0  0  0
    0.4291    1.7465   -0.6479 C   0  0  0  0  0  0  0  0  0  0  0  0
   -5.5645   -0.4952    0.4790 C   0  0  0  0  0  0  0  0  0  0  0  0
    1.2354    0.6447   -1.3111 C   0  0  0  0  0  0  0  0  0  0  0  0
    2.5500    0.2673   -0.7114 C   0  0  0  0  0  0  0  0  0  0  0  0
   -7.4288   -1.8726    0.8655 C   0  0  0  0  0  0  0  0  0  0  0  0
    3.2719    1.2316   -0.0468 C   0  0  0  0  0  0  0  0  0  0  0  0
    2.9862   -1.0305   -0.8459 C   0  0  0  0  0  0  0  0  0  0  0  0
    4.2130   -1.3838   -0.2841 C   0  0  0  0  0  0  0  0  0  0  0  0
    4.4988    0.8782    0.5147 C   0  0  0  0  0  0  0  0  0  0  0  0
    4.9694   -0.4296    0.3961 C   0  0  0  0  0  0  0  0  0  0  0  0
   -8.9165   -2.0064    0.6034 C   0  0  0  0  0  0  0  0  0  0  0  0
    5.4601   -2.9658   -1.5483 C   0  0  0  0  0  0  0  0  0  0  0  0
    4.9892    1.9595    2.5753 C   0  0  0  0  0  0  0  0  0  0  0  0
    6.1567   -1.8002    1.9348 C   0  0  0  0  0  0  0  0  0  0  0  0
  1 15  1  0
  1 18  1  0
  2 16  2  0
  3 21  1  0
  3 25  1  0
  4 22  1  0
  4 26  1  0
  5 23  1  0
  5 27  1  0
  6 24  1  0
  7  9  1  0
  7 10  1  0
  7 13  1  0
  8 11  1  0
  8 12  1  0
  8 14  1  0
  9 11  1  0
 10 12  1  0
 13 15  1  0
 14 16  1  0
 16 17  1  0
 17 19  2  0
 17 20  1  0
 18 24  1  0
 19 22  1  0
 20 21  2  0
 21 23  1  0
 22 23  2  0
M  END
>  <PUBCHEM_COMPOUND_CID>  (1) 
28764

>  <PUBCHEM_CONFORMER_RMSD>  (1) 
1.2

>  <PUBCHEM_CONFORMER_DIVERSEORDER>  (1) 
1
37
60
33
45
7
52
40
49
23
62
44
31
59
50
16
22
43
2
53
28
64
46
48
26
65
42
71
67
74
12
56
30
4
24
39
29
72
19
11
18
51
27
21
34
63
17
3
70
32
8
13
69
68
36
55
9
61
25
41
6
47
58
35
73
66
15
10
38
14
20
57
54
5

>  <PUBCHEM_MMFF94_PARTIAL_CHARGES>  (1) 
30
1 -0.56
10 0.27
11 0.27
12 0.27
13 0.27
14 0.33
15 0.28
16 0.42
17 0.09
18 0.28
19 -0.15
2 -0.57
20 -0.15
21 0.08
22 0.08
23 0.08
24 0.28
25 0.28
26 0.28
27 0.28
3 -0.36
4 -0.36
44 0.15
45 0.15
48 0.4
5 -0.36
6 -0.68
7 -0.81
8 -0.81
9 0.27

>  <PUBCHEM_EFFECTIVE_ROTOR_COUNT>  (1) 
12.2

>  <PUBCHEM_PHARMACOPHORE_FEATURES>  (1) 
11
1 1 acceptor
1 2 acceptor
1 3 acceptor
1 4 acceptor
1 5 acceptor
1 6 acceptor
1 6 donor
1 7 cation
1 8 cation
6 17 19 20 21 22 23 rings
6 7 8 9 10 11 12 rings

>  <PUBCHEM_HEAVY_ATOM_COUNT>  (1) 
27

>  <PUBCHEM_ATOM_DEF_STEREO_COUNT>  (1) 
0

>  <PUBCHEM_ATOM_UDEF_STEREO_COUNT>  (1) 
0

>  <PUBCHEM_BOND_DEF_STEREO_COUNT>  (1) 
0

>  <PUBCHEM_BOND_UDEF_STEREO_COUNT>  (1) 
0

>  <PUBCHEM_ISOTOPIC_ATOM_COUNT>  (1) 
0

>  <PUBCHEM_COMPONENT_COUNT>  (1) 
1

>  <PUBCHEM_CACTVS_TAUTO_COUNT>  (1) 
2

>  <PUBCHEM_CONFORMER_ID>  (1) 
0000705C00000001

>  <PUBCHEM_MMFF94_ENERGY>  (1) 
97.9537

>  <PUBCHEM_FEATURE_SELFOVERLAP>  (1) 
55.839

>  <PUBCHEM_SHAPE_FINGERPRINT>  (1) 
10 15 17561088042448302817
10066227 112 9367347037920945791
10753850 27 17749389300099060573
10981352 41 18413392042376334967
12596602 18 18131356289223594473
12616971 3 17059763438956643052
13073987 5 18202285784215892489
13533116 47 18202001010740708318
13668630 136 17095519617711635379
13782708 43 18337391530673428602
14211702 104 18260838094188636755
14216079 64 18260832605579109059
14251757 52 12103850059852132395
14341114 176 17988076682924876012
15183329 4 13695864814382092069
15188451 53 17967812752017432197
15419008 91 18115288056608882989
15475509 35 17896586307783111522
15510800 12 17895771676819656547
1768 124 18412828014586614831
1813 80 17240767238165908324
18222031 100 16732987496707766708
18335252 98 18410295834532428469
190975 80 18272369823875225837
20028762 73 18333453123004654267
2026 5 17967811674730539827
20397935 70 18412266129642209950
21130935 74 18343026575690974427
21197605 99 18410294722289457754
21792934 111 18412825790426395609
22224240 67 17131838694627618111
23559900 14 18337389315092984980
29717793 49 12324233958214625644
312425 54 18268435642031959625
3383291 50 18113622318083508187
3627633 1 10733860788406700277
5104073 3 18131072580616424513
54076057 127 17847065489362664758
5718773 13 18260831518952285615
6438161 24 17967813899401493227
9689198 14 11240002278617242701
9937071 3 18262524801783769891

>  <PUBCHEM_SHAPE_MULTIPOLES>  (1) 
510.47
23.72
2.87
1.64
50
0.52
0.44
17.98
12.64
-1.49
-0.01
-2.64
0.01
3.26

>  <PUBCHEM_SHAPE_SELFOVERLAP>  (1) 
1040.711

>  <PUBCHEM_SHAPE_VOLUME>  (1) 
297.8

>  <PUBCHEM_COORDINATE_TYPE>  (1) 
2
5
10

$$$$
