28770
     RDKit          3D

 16 16  0  0  0  0  0  0  0  0999 V2000
   -2.5835    0.1487    0.9078 O   0  0  0  0  0  0  0  0  0  0  0  0
    3.8887    0.7091   -0.4790 O   0  0  0  0  0  0  0  0  0  0  0  0
   -2.9480   -0.5508   -1.2794 O   0  0  0  0  0  0  0  0  0  0  0  0
    2.1156   -0.6333    0.2913 N   0  0  0  0  0  0  0  0  0  0  0  0
   -4.5653   -0.8652    0.3538 N   0  0  0  0  0  0  0  0  0  0  0  0
    1.0090    0.2133    0.2173 C   0  0  0  0  0  0  0  0  0  0  0  0
   -0.2495   -0.2479    0.6037 C   0  0  0  0  0  0  0  0  0  0  0  0
    4.3423   -1.5608    0.1846 C   0  0  0  0  0  0  0  0  0  0  0  0
   -1.3554    0.5989    0.5305 C   0  0  0  0  0  0  0  0  0  0  0  0
    1.1613    1.5215   -0.2424 C   0  0  0  0  0  0  0  0  0  0  0  0
    3.4487   -0.3517   -0.0484 C   0  0  0  0  0  0  0  0  0  0  0  0
   -1.2030    1.9070    0.0709 C   0  0  0  0  0  0  0  0  0  0  0  0
    0.0554    2.3683   -0.3157 C   0  0  0  0  0  0  0  0  0  0  0  0
    5.7876   -1.3060   -0.2041 C   0  0  0  0  0  0  0  0  0  0  0  0
   -3.3417   -0.4413   -0.1220 C   0  0  0  0  0  0  0  0  0  0  0  0
   -5.5623   -1.5097   -0.4690 C   0  0  0  0  0  0  0  0  0  0  0  0
  1  9  1  0
  1 15  1  0
  2 11  2  0
  3 15  2  0
  4  6  1  0
  4 11  1  0
  5 15  1  0
  5 16  1  0
  6  7  2  0
  6 10  1  0
  7  9  1  0
  8 11  1  0
  8 14  1  0
  9 12  2  0
 10 13  2  0
 12 13  1  0
M  END
>  <PUBCHEM_COMPOUND_CID>  (1) 
28770

>  <PUBCHEM_CONFORMER_RMSD>  (1) 
0.8

>  <PUBCHEM_CONFORMER_DIVERSEORDER>  (1) 
1
22
30
41
2
17
28
13
49
42
24
4
37
20
40
35
25
29
14
48
44
10
23
38
46
27
45
8
43
15
39
7
33
9
47
21
32
11
36
6
5
3
12
31
19
18
26
16
34

>  <PUBCHEM_MMFF94_PARTIAL_CHARGES>  (1) 
21
1 -0.23
10 -0.15
11 0.57
12 -0.15
13 -0.15
15 0.78
16 0.3
17 0.15
18 0.37
2 -0.57
21 0.15
22 0.15
23 0.15
27 0.37
3 -0.57
4 -0.55
5 -0.73
6 0.12
7 -0.15
8 0.06
9 0.08

>  <PUBCHEM_EFFECTIVE_ROTOR_COUNT>  (1) 
6

>  <PUBCHEM_PHARMACOPHORE_FEATURES>  (1) 
6
1 14 hydrophobe
1 2 acceptor
1 3 acceptor
1 4 donor
1 5 donor
6 6 7 9 10 12 13 rings

>  <PUBCHEM_HEAVY_ATOM_COUNT>  (1) 
16

>  <PUBCHEM_ATOM_DEF_STEREO_COUNT>  (1) 
0

>  <PUBCHEM_ATOM_UDEF_STEREO_COUNT>  (1) 
0

>  <PUBCHEM_BOND_DEF_STEREO_COUNT>  (1) 
0

>  <PUBCHEM_BOND_UDEF_STEREO_COUNT>  (1) 
0

>  <PUBCHEM_ISOTOPIC_ATOM_COUNT>  (1) 
0

>  <PUBCHEM_COMPONENT_COUNT>  (1) 
1

>  <PUBCHEM_CACTVS_TAUTO_COUNT>  (1) 
4

>  <PUBCHEM_CONFORMER_ID>  (1) 
0000706200000001

>  <PUBCHEM_MMFF94_ENERGY>  (1) 
39.6629

>  <PUBCHEM_FEATURE_SELFOVERLAP>  (1) 
30.446

>  <PUBCHEM_SHAPE_FINGERPRINT>  (1) 
100836 57 9007056880975923322
10493431 412 10087634905636419889
11046707 91 18343019952339441224
11806522 49 18410012164832710920
12032990 46 18408886239166542568
12633257 1 15626216957289005287
12916754 54 18341335488025953856
13288520 33 18342177739069553239
13583140 156 15553879971312094674
13690532 89 18410575097653683819
13740256 8 18409450318897004667
13760787 5 18041575692558090288
13862211 1 18409446985828537114
14123255 52 9367349232079482763
1420 369 18343022177106490630
14251752 14 17968370144409825197
14350574 20 18041001769306093203
14508225 48 18186518795678618644
14576447 43 18334856108752975138
14911166 2 17894349994687623491
15477762 27 18337391642284452069
1813 80 18271538545107043780
18186145 218 16515694333730625728
18222031 100 18411694404711802762
187816 3 17676490535850976587
193927 3 18271257078804760711
19784866 140 18113896044184322499
19784866 240 18412548730111335479
200 152 18261391122572100550
20112054 13 11167939164718203160
20281475 54 18412267224574092112
20374829 77 18336262362243518450
20388580 30 18335704982921020813
20645477 70 18261391203859948625
20671657 53 18408608075657408229
20724930 69 8646765599571966874
20871999 31 18041273275610955909
21267235 1 18410582781281747474
21426921 1 18266741277338968968
21637258 2 17917702522535196711
221490 88 17900830649740527763
23402539 116 18335983069416116646
23500284 214 9727626215800801620
23557571 272 18200317606867489620
23559900 14 18041285460812969728
25147074 1 18266199303773998592
2871803 45 18186800266618259226
2916195 48 10881694523883638110
293599 30 9079114462281819746
3286 77 17917709102361784480
351380 3 18342455941366093702
465052 167 18270969041302755311
76465 3 18337387150249827018
7970288 3 18411979174050703543
83771 10 18342175570295815057
9709674 26 18191035512816475762

>  <PUBCHEM_SHAPE_MULTIPOLES>  (1) 
301.7
11.02
1.97
0.81
1.73
0.89
-0.05
-9.28
-1.5
-0.03
-0.22
-0.38
-0.04
-0.45

>  <PUBCHEM_SHAPE_SELFOVERLAP>  (1) 
615.299

>  <PUBCHEM_SHAPE_VOLUME>  (1) 
172.8

>  <PUBCHEM_COORDINATE_TYPE>  (1) 
2
5
10

$$$$
