28777
     RDKit          3D

 18 20  0  0  0  0  0  0  0  0999 V2000
   -1.2738   -1.2225    1.3873 S   0  0  0  0  0  0  0  0  0  0  0  0
    0.1589    1.5591    1.5754 O   0  0  0  0  0  0  0  0  0  0  0  0
    1.0048   -2.6321   -0.2393 O   0  0  0  0  0  0  0  0  0  0  0  0
    0.2044   -0.6763    0.8148 N   0  0  0  0  0  0  0  0  0  0  0  0
   -2.3476   -0.0506    0.4912 C   0  0  0  0  0  0  0  0  0  0  0  0
   -2.1516   -0.2080   -1.0196 C   0  0  0  0  0  0  0  0  0  0  0  0
   -3.8101   -0.2664    0.8919 C   0  0  0  0  0  0  0  0  0  0  0  0
   -3.0839    0.7219   -1.7961 C   0  0  0  0  0  0  0  0  0  0  0  0
   -4.7383    0.6636    0.1109 C   0  0  0  0  0  0  0  0  0  0  0  0
   -4.5425    0.5203   -1.3958 C   0  0  0  0  0  0  0  0  0  0  0  0
    0.6628    0.6090    1.0056 C   0  0  0  0  0  0  0  0  0  0  0  0
    1.0821   -1.4679    0.1068 C   0  0  0  0  0  0  0  0  0  0  0  0
    1.9724    0.6502    0.3524 C   0  0  0  0  0  0  0  0  0  0  0  0
    2.2253   -0.6028   -0.1898 C   0  0  0  0  0  0  0  0  0  0  0  0
    2.8717    1.6903    0.2373 C   0  0  0  0  0  0  0  0  0  0  0  0
    3.3902   -0.8797   -0.8753 C   0  0  0  0  0  0  0  0  0  0  0  0
    4.0593    1.4320   -0.4533 C   0  0  0  0  0  0  0  0  0  0  0  0
    4.3159    0.1598   -1.0044 C   0  0  0  0  0  0  0  0  0  0  0  0
  1  4  1  0
  1  5  1  0
  2 11  2  0
  3 12  2  0
  4 11  1  0
  4 12  1  0
  5  6  1  0
  5  7  1  0
  6  8  1  0
  7  9  1  0
  8 10  1  0
  9 10  1  0
 11 13  1  0
 12 14  1  0
 13 14  2  0
 13 15  1  0
 14 16  1  0
 15 17  2  0
 16 18  2  0
 17 18  1  0
M  END
>  <PUBCHEM_COMPOUND_CID>  (1) 
28777

>  <PUBCHEM_CONFORMER_RMSD>  (1) 
0.6

>  <PUBCHEM_CONFORMER_DIVERSEORDER>  (1) 
1
3
5
4
2

>  <PUBCHEM_MMFF94_PARTIAL_CHARGES>  (1) 
17
1 -0.22
11 0.54
12 0.54
13 0.09
14 0.09
15 -0.15
16 -0.15
17 -0.15
18 -0.15
2 -0.57
3 -0.57
30 0.15
31 0.15
32 0.15
33 0.15
4 -0.13
5 0.23

>  <PUBCHEM_EFFECTIVE_ROTOR_COUNT>  (1) 
3.4

>  <PUBCHEM_PHARMACOPHORE_FEATURES>  (1) 
5
1 2 acceptor
1 3 acceptor
5 4 11 12 13 14 rings
6 13 14 15 16 17 18 rings
6 5 6 7 8 9 10 rings

>  <PUBCHEM_HEAVY_ATOM_COUNT>  (1) 
18

>  <PUBCHEM_ATOM_DEF_STEREO_COUNT>  (1) 
0

>  <PUBCHEM_ATOM_UDEF_STEREO_COUNT>  (1) 
0

>  <PUBCHEM_BOND_DEF_STEREO_COUNT>  (1) 
0

>  <PUBCHEM_BOND_UDEF_STEREO_COUNT>  (1) 
0

>  <PUBCHEM_ISOTOPIC_ATOM_COUNT>  (1) 
0

>  <PUBCHEM_COMPONENT_COUNT>  (1) 
1

>  <PUBCHEM_CACTVS_TAUTO_COUNT>  (1) 
1

>  <PUBCHEM_CONFORMER_ID>  (1) 
0000706900000001

>  <PUBCHEM_MMFF94_ENERGY>  (1) 
36.9233

>  <PUBCHEM_FEATURE_SELFOVERLAP>  (1) 
25.464

>  <PUBCHEM_SHAPE_FINGERPRINT>  (1) 
10498660 4 17385995140593564125
10646746 165 17095240315350138004
11471102 20 18341899584382078882
11796584 16 13901915487770780013
12236239 1 16988570091127802683
12251169 10 8142078762853314857
12363563 72 12103846795508123903
12730499 353 18333737897043268859
13544653 18 10159706793304383890
13583140 156 17531253919446282776
13965767 371 14709717743229320421
14739800 52 15865209077404949828
15209294 21 14417852561618598908
15210252 30 18333446525871869997
16752209 62 15769496409722976075
16945 1 18411981330302796338
17834072 14 11600006544198897479
18186145 218 18411702110141490460
19784866 34 18342736351248378618
19862831 5 17489868245688822543
200 152 17703800197593909984
20645477 56 17748832946402775738
20645477 70 18343030969020706926
221357 26 18343861096342417989
23114952 82 18116992187350258207
231179 274 18040714774969164632
23402539 116 17312820510960132031
23402655 69 18272937111075833089
23557571 272 17458643228046664979
23559900 14 17168145581461589018
25 1 18410856559671672155
2748010 2 17482846945407949656
2838139 119 17677331757437555100
3009799 131 18410291368668475350
3060560 45 18413105061309111934
3472631 163 16515400759957286231
4028521 119 18186800275218808189
4047638 21 18113621183441247840
633830 44 18273223001231444729
6442390 28 17822296794960779211

>  <PUBCHEM_SHAPE_MULTIPOLES>  (1) 
357.56
8.97
1.72
1.46
3.6
0.56
0
-3.65
-2.7
-0.74
-0.06
0.59
-0.22
1.16

>  <PUBCHEM_SHAPE_SELFOVERLAP>  (1) 
760.849

>  <PUBCHEM_SHAPE_VOLUME>  (1) 
201

>  <PUBCHEM_COORDINATE_TYPE>  (1) 
2
5
10

$$$$
