28782
     RDKit          3D

 12 11  0  0  1  0  0  0  0  0999 V2000
    3.1629    0.7549    1.2172 O   0  0  0  0  0  0  0  0  0  0  0  0
    3.7407    0.8145   -0.9916 O   0  0  0  0  0  0  0  0  0  0  0  0
   -2.2286   -0.1177   -0.3641 N   0  0  0  0  0  0  0  0  0  0  0  0
    2.6803   -1.9117    0.4623 N   0  0  0  0  0  0  0  0  0  0  0  0
   -4.4172   -1.1761   -0.2710 N   0  0  0  0  0  0  0  0  0  0  0  0
   -4.0771    0.9906    0.7012 N   0  0  0  0  0  0  0  0  0  0  0  0
    0.6864   -0.5449    0.1193 C   0  0  0  0  0  0  0  0  0  0  0  0
    0.0986    0.7110   -0.5379 C   0  0  0  0  0  0  0  0  0  0  0  0
    2.1422   -0.7798   -0.2955 C   0  0  0  0  0  0  0  0  0  0  0  0
   -1.3257    0.9929   -0.0704 C   0  0  0  0  0  0  0  0  0  0  0  0
    3.1091    0.3763    0.0136 C   0  0  0  0  0  0  0  0  0  0  0  0
   -3.5717   -0.1097    0.0170 C   0  0  0  0  0  0  0  0  0  0  0  0
  1 11  1  0
  2 11  2  0
  3 10  1  0
  3 12  2  3
  4  9  1  0
  5 12  1  0
  6 12  1  0
  7  8  1  0
  7  9  1  0
  8 10  1  0
  9 11  1  0
M  CHG  2   1  -1   3   1
M  END
>  <PUBCHEM_COMPOUND_CID>  (1) 
28782

>  <PUBCHEM_CONFORMER_RMSD>  (1) 
0.6

>  <PUBCHEM_CONFORMER_DIVERSEORDER>  (1) 
2
60
79
32
86
15
70
90
87
7
12
52
27
78
16
85
30
61
3
62
17
89
81
22
84
36
75
76
20
71
64
65
77
55
42
88
29
13
1
57
91
31
19
23
83
45
26
68
82
59
54
46
6
9
74
56
4
67
80
8
43
33
5
21
58
47
66
40
18
63
14
37
73
10
44
24
50
53
11
25
72
48
69
34
51
38
35
28
49
41
39

>  <PUBCHEM_MMFF94_PARTIAL_CHARGES>  (1) 
17
1 -0.9
10 0.33
11 0.91
12 1.2
2 -0.9
20 0.45
21 0.36
22 0.36
23 0.45
24 0.45
25 0.45
26 0.45
3 -0.84
4 -0.99
5 -0.97
6 -0.97
9 0.16

>  <PUBCHEM_EFFECTIVE_ROTOR_COUNT>  (1) 
5

>  <PUBCHEM_PHARMACOPHORE_FEATURES>  (1) 
9
1 1 acceptor
1 2 acceptor
1 3 donor
1 4 cation
1 4 donor
1 5 donor
1 6 donor
3 1 2 11 anion
4 3 5 6 12 cation

>  <PUBCHEM_HEAVY_ATOM_COUNT>  (1) 
12

>  <PUBCHEM_ATOM_DEF_STEREO_COUNT>  (1) 
1

>  <PUBCHEM_ATOM_UDEF_STEREO_COUNT>  (1) 
0

>  <PUBCHEM_BOND_DEF_STEREO_COUNT>  (1) 
0

>  <PUBCHEM_BOND_UDEF_STEREO_COUNT>  (1) 
0

>  <PUBCHEM_ISOTOPIC_ATOM_COUNT>  (1) 
0

>  <PUBCHEM_COMPONENT_COUNT>  (1) 
1

>  <PUBCHEM_CACTVS_TAUTO_COUNT>  (1) 
2

>  <PUBCHEM_CONFORMER_ID>  (1) 
0000706E00000002

>  <PUBCHEM_MMFF94_ENERGY>  (1) 
7.9317

>  <PUBCHEM_FEATURE_SELFOVERLAP>  (1) 
45.816

>  <PUBCHEM_SHAPE_FINGERPRINT>  (1) 
11062470 55 16732702765728893037
12932764 1 17988350512200559652
13296908 3 18114175277177340717
14251717 144 18259984902776306695
14325111 11 18410011005323162903
14445660 50 18342746187140380201
18186145 218 18336266738915510855
18511873 20 9799692592904373196
190213 19 18342455941629376549
19050596 39 18341327803759723211
19422 9 18340488876609392915
20279233 1 16442784626628382483
20281407 28 18408885127128695909
20281475 54 18408040706445922135
20645477 70 18261948536313203727
20828058 21 17132115749434173325
22485316 2 18408319978310170775
23402539 116 11602815839368191571
449060 62 18409453591820027996
522135 26 12535631578603604668
57812782 119 12973602244250257077
581208 293 18259702298307690530
6430166 295 9871480798299090359

>  <PUBCHEM_SHAPE_MULTIPOLES>  (1) 
215.29
8.5
1.33
0.84
5.5
0.42
0.07
0.32
0.48
-0.35
0.09
-0.43
-0.15
-0.44

>  <PUBCHEM_SHAPE_SELFOVERLAP>  (1) 
403.323

>  <PUBCHEM_SHAPE_VOLUME>  (1) 
130.1

>  <PUBCHEM_COORDINATE_TYPE>  (1) 
2
5
10

$$$$
