28783
     RDKit          3D

 17 17  0  0  0  0  0  0  0  0999 V2000
   -2.9830   -0.0336    0.9112 O   0  0  0  0  0  0  0  0  0  0  0  0
    3.3960   -1.1735   -0.4725 O   0  0  0  0  0  0  0  0  0  0  0  0
   -3.2934    0.6826   -1.2789 O   0  0  0  0  0  0  0  0  0  0  0  0
    1.7630    0.3390    0.2743 N   0  0  0  0  0  0  0  0  0  0  0  0
   -4.8737    1.1419    0.3563 N   0  0  0  0  0  0  0  0  0  0  0  0
    4.0462    1.0623    0.1538 C   0  0  0  0  0  0  0  0  0  0  0  0
    5.4862    0.6964   -0.1987 C   0  0  0  0  0  0  0  0  0  0  0  0
    3.0494   -0.0688   -0.0679 C   0  0  0  0  0  0  0  0  0  0  0  0
    0.5709   -0.4210    0.2085 C   0  0  0  0  0  0  0  0  0  0  0  0
    6.4548    1.8475    0.0335 C   0  0  0  0  0  0  0  0  0  0  0  0
   -0.6249    0.1601    0.5966 C   0  0  0  0  0  0  0  0  0  0  0  0
    0.6259   -1.7300   -0.2406 C   0  0  0  0  0  0  0  0  0  0  0  0
   -1.7996   -0.5895    0.5334 C   0  0  0  0  0  0  0  0  0  0  0  0
   -0.5487   -2.4794   -0.3037 C   0  0  0  0  0  0  0  0  0  0  0  0
   -1.7615   -1.9092    0.0832 C   0  0  0  0  0  0  0  0  0  0  0  0
   -3.6925    0.6118   -0.1203 C   0  0  0  0  0  0  0  0  0  0  0  0
   -5.8151    1.8633   -0.4682 C   0  0  0  0  0  0  0  0  0  0  0  0
  1 13  1  0
  1 16  1  0
  2  8  2  0
  3 16  2  0
  4  8  1  0
  4  9  1  0
  5 16  1  0
  5 17  1  0
  6  7  1  0
  6  8  1  0
  7 10  1  0
  9 11  2  0
  9 12  1  0
 11 13  1  0
 12 14  2  0
 13 15  2  0
 14 15  1  0
M  END
>  <PUBCHEM_COMPOUND_CID>  (1) 
28783

>  <PUBCHEM_CONFORMER_RMSD>  (1) 
0.8

>  <PUBCHEM_CONFORMER_DIVERSEORDER>  (1) 
1
96
103
62
28
118
82
78
114
125
87
132
126
36
98
90
35
48
38
64
123
70
75
73
109
63
104
94
127
133
46
102
53
43
122
130
74
112
39
71
27
85
12
128
34
124
16
83
93
69
95
72
11
119
25
44
111
92
47
120
52
15
50
116
134
9
106
67
129
7
107
33
60
84
101
79
131
45
10
54
49
110
30
57
66
18
58
40
37
59
115
100
32
105
77
24
22
19
80
86
88
29
8
17
89
108
42
117
41
61
76
113
31
81
20
2
51
4
26
14
68
3
55
99
121
23
21
65
13
56
97
5
91
6

>  <PUBCHEM_MMFF94_PARTIAL_CHARGES>  (1) 
21
1 -0.23
11 -0.15
12 -0.15
13 0.08
14 -0.15
15 -0.15
16 0.78
17 0.3
2 -0.57
22 0.37
26 0.15
27 0.15
28 0.15
29 0.15
3 -0.57
30 0.37
4 -0.55
5 -0.73
6 0.06
8 0.57
9 0.12

>  <PUBCHEM_EFFECTIVE_ROTOR_COUNT>  (1) 
7

>  <PUBCHEM_PHARMACOPHORE_FEATURES>  (1) 
6
1 10 hydrophobe
1 2 acceptor
1 3 acceptor
1 4 donor
1 5 donor
6 9 11 12 13 14 15 rings

>  <PUBCHEM_HEAVY_ATOM_COUNT>  (1) 
17

>  <PUBCHEM_ATOM_DEF_STEREO_COUNT>  (1) 
0

>  <PUBCHEM_ATOM_UDEF_STEREO_COUNT>  (1) 
0

>  <PUBCHEM_BOND_DEF_STEREO_COUNT>  (1) 
0

>  <PUBCHEM_BOND_UDEF_STEREO_COUNT>  (1) 
0

>  <PUBCHEM_ISOTOPIC_ATOM_COUNT>  (1) 
0

>  <PUBCHEM_COMPONENT_COUNT>  (1) 
1

>  <PUBCHEM_CACTVS_TAUTO_COUNT>  (1) 
4

>  <PUBCHEM_CONFORMER_ID>  (1) 
0000706F00000001

>  <PUBCHEM_MMFF94_ENERGY>  (1) 
39.877

>  <PUBCHEM_FEATURE_SELFOVERLAP>  (1) 
30.446

>  <PUBCHEM_SHAPE_FINGERPRINT>  (1) 
10014705 185 18340207487616222930
11543360 7 15123787405304935466
117890 112 18409448107458313080
12293681 160 17846498106301465489
12403259 118 17749400303256536373
12500047 106 18270679882866714290
12892183 10 15575268779850421577
12916754 54 10303818683262633690
13257819 101 18041267773863156965
13740256 8 9511453433618484945
14123256 34 9655573041089542669
14252887 29 11458430098311970401
15048467 5 18408323302594129032
15061688 2 18408324358918577163
15501527 16 18410295839022535736
167882 2 18270684151848461662
17539 30 17841703307839542359
17834072 32 18409731793694347764
1813 80 7853571369806390330
193927 3 10159702438540050032
200 152 15554456214548103370
20281389 69 18113615681667763020
20621476 66 18410295813031530076
20645477 56 18408040736152094488
20645477 70 18060147501051616134
20871999 31 18271800289093745039
21426921 1 18195808693901869958
21637258 2 11671780438356538932
23402539 116 18273491286432206796
23402655 69 17989486290690237029
23559900 14 18130795577475764846
25 1 18341608175341438147
270888 7 18337107857196150085
2838139 119 18334285466128199940
2916195 48 18407759248406727953
293599 30 18410857663631189408
300161 21 18342736351997412880
34934 24 18408601479046155298
351380 3 9727633895055055964
3545911 37 18341900727138824202
5104073 3 18187369804745740131
59682541 35 18260561035166196857
6327066 14 18409726266134839061
636775 8 9367070004257632280
77188 2 17039233679907931747

>  <PUBCHEM_SHAPE_MULTIPOLES>  (1) 
322.28
13.06
2.16
0.79
7.86
0.74
0.04
-12.33
1.27
-0.77
0.28
-0.44
-0.05
0.53

>  <PUBCHEM_SHAPE_SELFOVERLAP>  (1) 
653.688

>  <PUBCHEM_SHAPE_VOLUME>  (1) 
185.8

>  <PUBCHEM_COORDINATE_TYPE>  (1) 
2
5
10

$$$$
