28791
     RDKit          3D

 22 24  0  0  1  0  0  0  0  0999 V2000
    3.2741   -1.4240    0.1515 N   0  0  0  0  0  0  0  0  0  0  0  0
   -1.0771   -0.0864   -0.4531 N   0  0  0  0  0  0  0  0  0  0  0  0
   -1.2584   -2.2766   -0.1214 N   0  0  0  0  0  0  0  0  0  0  0  0
    0.1685    3.3854    0.2039 N   0  0  0  0  0  0  0  0  0  0  0  0
    4.1370   -1.2612    1.3211 C   0  0  0  0  0  0  0  0  0  0  0  0
    3.7127   -0.3942   -0.7901 C   0  0  0  0  0  0  0  0  0  0  0  0
    5.5080   -1.0306    0.7031 C   0  0  0  0  0  0  0  0  0  0  0  0
    5.2292   -0.4575   -0.6830 C   0  0  0  0  0  0  0  0  0  0  0  0
    1.8616   -1.3087    0.4827 C   0  0  0  0  0  0  0  0  0  0  0  0
    0.9915   -1.4361   -0.7693 C   0  0  0  0  0  0  0  0  0  0  0  0
   -0.4766    1.1914   -0.7642 C   0  0  0  0  0  0  0  0  0  0  0  0
   -0.4735   -1.2947   -0.4375 C   0  0  0  0  0  0  0  0  0  0  0  0
   -2.3886   -0.2977   -0.1129 C   0  0  0  0  0  0  0  0  0  0  0  0
   -0.5313    2.1297    0.4561 C   0  0  0  0  0  0  0  0  0  0  0  0
   -2.4765   -1.6723    0.0890 C   0  0  0  0  0  0  0  0  0  0  0  0
   -1.0911    1.8059   -2.0274 C   0  0  0  0  0  0  0  0  0  0  0  0
   -3.4725    0.5692    0.0312 C   0  0  0  0  0  0  0  0  0  0  0  0
   -3.7114   -2.2328    0.4569 C   0  0  0  0  0  0  0  0  0  0  0  0
   -4.6938   -0.0058    0.3979 C   0  0  0  0  0  0  0  0  0  0  0  0
    1.6150    3.1612   -0.0564 C   0  0  0  0  0  0  0  0  0  0  0  0
   -0.0336    4.3173    1.3144 C   0  0  0  0  0  0  0  0  0  0  0  0
   -4.8133   -1.3816    0.6073 C   0  0  0  0  0  0  0  0  0  0  0  0
  1  5  1  0
  1  6  1  0
  1  9  1  0
  2 11  1  0
  2 12  1  0
  2 13  1  0
  3 12  2  0
  3 15  1  0
  4 14  1  0
  4 20  1  0
  4 21  1  0
  5  7  1  0
  6  8  1  0
  7  8  1  0
  9 10  1  0
 10 12  1  0
 11 14  1  0
 11 16  1  0
 13 15  2  0
 13 17  1  0
 15 18  1  0
 17 19  2  0
 18 22  2  0
 19 22  1  0
M  END
>  <PUBCHEM_COMPOUND_CID>  (1) 
28791

>  <PUBCHEM_CONFORMER_RMSD>  (1) 
0.8

>  <PUBCHEM_CONFORMER_DIVERSEORDER>  (1) 
1
18
81
53
73
27
40
35
79
76
64
66
51
72
65
56
78
38
22
16
67
45
70
75
10
58
82
6
74
46
33
24
44
69
21
59
15
29
9
30
71
7
36
77
19
43
28
14
63
80
8
26
5
12
55
42
20
41
47
52
61
68
57
13
32
39
2
11
49
17
37
50
34
54
25
23
48
3
60
4
62
31

>  <PUBCHEM_MMFF94_PARTIAL_CHARGES>  (1) 
23
1 -0.81
10 0.18
11 0.26
12 0.01
13 -0.15
14 0.27
15 0.23
17 -0.15
18 -0.15
19 -0.15
2 0.05
20 0.27
21 0.27
22 -0.15
3 -0.57
4 -0.81
41 0.15
42 0.15
43 0.15
5 0.27
50 0.15
6 0.27
9 0.27

>  <PUBCHEM_EFFECTIVE_ROTOR_COUNT>  (1) 
7

>  <PUBCHEM_PHARMACOPHORE_FEATURES>  (1) 
6
1 1 cation
1 4 cation
3 2 3 12 cation
5 1 5 6 7 8 rings
5 2 3 12 13 15 rings
6 13 15 17 18 19 22 rings

>  <PUBCHEM_HEAVY_ATOM_COUNT>  (1) 
22

>  <PUBCHEM_ATOM_DEF_STEREO_COUNT>  (1) 
0

>  <PUBCHEM_ATOM_UDEF_STEREO_COUNT>  (1) 
1

>  <PUBCHEM_BOND_DEF_STEREO_COUNT>  (1) 
0

>  <PUBCHEM_BOND_UDEF_STEREO_COUNT>  (1) 
0

>  <PUBCHEM_ISOTOPIC_ATOM_COUNT>  (1) 
0

>  <PUBCHEM_COMPONENT_COUNT>  (1) 
1

>  <PUBCHEM_CACTVS_TAUTO_COUNT>  (1) 
2

>  <PUBCHEM_CONFORMER_ID>  (1) 
0000707700000001

>  <PUBCHEM_MMFF94_ENERGY>  (1) 
40.7545

>  <PUBCHEM_FEATURE_SELFOVERLAP>  (1) 
30.558

>  <PUBCHEM_SHAPE_FINGERPRINT>  (1) 
10006869 2 17907854008038228937
10670039 82 18266756697078151158
1100329 8 18339083795338765075
11680986 33 17973448999082768219
11963148 33 17183347755888282699
12156800 1 16054390923209603560
12166972 35 17676209066160815326
12236239 1 17676209061201806982
12553582 1 18411691093640397918
12596602 18 17677593317109194042
12788726 201 18335990766176905042
13009979 54 17970616399837729370
13140716 1 18410855503077919323
13257819 101 14189022107541693491
13533116 47 18051413169785542811
138480 1 14808261197901672536
13899415 154 18338251443176333287
14022349 108 18194971961584530785
14142880 1 18058169419276377441
14787075 74 18040720289776179826
14955137 171 18269853024168375479
15163728 17 13973142925076360299
15927050 60 17620480542101923524
17804303 29 18336550503558215535
17980427 23 17917718989819448673
17980427 26 17625254595699494069
18222031 100 18343013423820820599
200 152 16298386846710765138
20510252 161 18264204703844553446
20600515 1 18262533532301944839
20715895 44 17608077672788901165
21033648 29 17417802925121346083
21041028 32 18413672426151621417
21304253 13 18272091595377216521
2297311 6 18339653256752881102
23366157 5 17900260007146971957
23402539 116 18341888589013314783
23419403 2 18189313810376461597
23557571 272 18269001899220949262
23559900 14 18268702978308374691
23845131 108 17258788014338275817
350125 39 18335991939204116917
43471831 8 17329707033972676279
4409770 3 17970614208908217901
469060 322 18338245860262356640
5104073 3 18050311420944381107
69474 34 18412260657727079187
7364860 26 18196660815861094221
81228 2 17902255337499951519

>  <PUBCHEM_SHAPE_MULTIPOLES>  (1) 
432.83
9.67
3.96
1.17
6.43
5.59
-0.22
-7.1
1.99
-0.25
1.18
0.36
0.51
0.09

>  <PUBCHEM_SHAPE_SELFOVERLAP>  (1) 
905.532

>  <PUBCHEM_SHAPE_VOLUME>  (1) 
246.5

>  <PUBCHEM_COORDINATE_TYPE>  (1) 
2
5
10

$$$$
