28797
     RDKit          3D

 18 18  0  0  0  0  0  0  0  0999 V2000
   -3.8655    1.3109    1.2381 Cl  0  0  0  0  0  0  0  0  0  0  0  0
   -5.3537   -1.1802   -0.1943 Cl  0  0  0  0  0  0  0  0  0  0  0  0
    2.7523   -0.0886    0.1156 N   0  0  0  0  0  0  0  0  0  0  0  0
    0.5645   -0.8781   -0.0464 N   0  0  0  0  0  0  0  0  0  0  0  0
    0.9330    1.4520    0.0165 N   0  0  0  0  0  0  0  0  0  0  0  0
    3.3460   -1.4069    0.0995 C   0  0  0  0  0  0  0  0  0  0  0  0
    4.8662   -1.3045    0.1937 C   0  0  0  0  0  0  0  0  0  0  0  0
    1.3984    0.2345    0.0205 C   0  0  0  0  0  0  0  0  0  0  0  0
    1.8728    2.5602    0.0990 C   0  0  0  0  0  0  0  0  0  0  0  0
    1.1160    3.8824    0.0812 C   0  0  0  0  0  0  0  0  0  0  0  0
    5.5171   -2.6787    0.1571 C   0  0  0  0  0  0  0  0  0  0  0  0
   -0.8469   -0.9365   -0.0732 C   0  0  0  0  0  0  0  0  0  0  0  0
    0.2823    4.0630   -1.1795 C   0  0  0  0  0  0  0  0  0  0  0  0
   -1.5963    0.0797    0.5169 C   0  0  0  0  0  0  0  0  0  0  0  0
   -1.4861   -2.0104   -0.6902 C   0  0  0  0  0  0  0  0  0  0  0  0
   -2.9897    0.0216    0.4900 C   0  0  0  0  0  0  0  0  0  0  0  0
   -2.8794   -2.0683   -0.7172 C   0  0  0  0  0  0  0  0  0  0  0  0
   -3.6312   -1.0522   -0.1273 C   0  0  0  0  0  0  0  0  0  0  0  0
  1 16  1  0
  2 18  1  0
  3  6  1  0
  3  8  1  0
  4  8  1  0
  4 12  1  0
  5  8  2  0
  5  9  1  0
  6  7  1  0
  7 11  1  0
  9 10  1  0
 10 13  1  0
 12 14  2  0
 12 15  1  0
 14 16  1  0
 15 17  2  0
 16 18  2  0
 17 18  1  0
M  END
>  <PUBCHEM_COMPOUND_CID>  (1) 
28797

>  <PUBCHEM_CONFORMER_RMSD>  (1) 
0.8

>  <PUBCHEM_CONFORMER_DIVERSEORDER>  (1) 
2
204
161
42
76
115
105
196
58
182
200
180
87
143
61
188
89
59
117
156
108
205
39
140
142
153
151
52
116
55
138
139
183
47
25
166
199
186
45
102
118
72
136
195
75
201
48
197
167
179
131
160
35
127
73
103
90
114
146
181
17
144
71
125
135
159
191
31
176
110
66
194
65
97
141
187
163
26
46
157
123
169
22
120
68
84
148
168
193
16
189
98
86
202
203
126
112
19
111
174
164
150
93
69
62
104
70
113
7
130
109
154
149
79
28
27
177
185
107
124
91
192
82
94
11
83
54
119
43
36
121
50
92
99
12
1
175
67
13
88
173
34
132
134
100
41
171
178
37
24
190
60
63
158
64
128
51
23
96
78
152
38
8
49
18
44
77
162
155
74
106
170
15
145
101
133
40
33
10
129
122
95
172
184
198
85
4
81
57
3
165
30
9
14
147
6
53
29
80
5
137
56
32
21
20

>  <PUBCHEM_MMFF94_PARTIAL_CHARGES>  (1) 
19
1 -0.18
12 0.1
14 -0.15
15 -0.15
16 0.18
17 -0.15
18 0.18
2 -0.18
23 0.4
28 0.4
3 -0.82
35 0.15
36 0.15
37 0.15
4 -0.55
5 -0.7
6 0.37
8 0.55
9 0.25

>  <PUBCHEM_EFFECTIVE_ROTOR_COUNT>  (1) 
7

>  <PUBCHEM_PHARMACOPHORE_FEATURES>  (1) 
6
1 11 hydrophobe
1 13 hydrophobe
1 3 donor
1 4 donor
4 3 4 5 8 cation
6 12 14 15 16 17 18 rings

>  <PUBCHEM_HEAVY_ATOM_COUNT>  (1) 
18

>  <PUBCHEM_ATOM_DEF_STEREO_COUNT>  (1) 
0

>  <PUBCHEM_ATOM_UDEF_STEREO_COUNT>  (1) 
0

>  <PUBCHEM_BOND_DEF_STEREO_COUNT>  (1) 
0

>  <PUBCHEM_BOND_UDEF_STEREO_COUNT>  (1) 
0

>  <PUBCHEM_ISOTOPIC_ATOM_COUNT>  (1) 
0

>  <PUBCHEM_COMPONENT_COUNT>  (1) 
1

>  <PUBCHEM_CACTVS_TAUTO_COUNT>  (1) 
2

>  <PUBCHEM_CONFORMER_ID>  (1) 
0000707D00000002

>  <PUBCHEM_MMFF94_ENERGY>  (1) 
41.8817

>  <PUBCHEM_FEATURE_SELFOVERLAP>  (1) 
30.49

>  <PUBCHEM_SHAPE_FINGERPRINT>  (1) 
12403260 363 18272651277356104975
12553582 1 18335408029283322898
12788726 201 18044373821382023658
12916754 54 18337670927534911891
13009979 54 18130519581774868857
13052359 8 17759229705549930956
15042514 8 18194964041754494626
15442244 35 18341614840708565064
15885798 251 18410575038046426594
17041 49 18412550911448131222
17492 89 18194963165502870003
17980427 23 17775566433714170793
1813 80 18340779165122797974
18335252 114 18336813235751295309
20286276 3 18120376724738433451
20600515 1 18059584537922804472
20671657 1 18266746963638090740
20671657 53 18411701006298076134
21267235 1 18342182158665461923
21339142 126 18266177223852895418
21478907 32 18265329504793695146
2255824 54 18266178525064390886
23366157 5 18117555356520863836
23402539 116 18200589190165278463
23419403 2 17701791372686406152
23557571 272 16128114298679640097
23558518 356 18267871764460723075
23559900 14 18339916142841979267
23598291 2 18341051903624097853
3091708 16 9498901400702824840
312423 11 18268723868865921387
4409770 3 17902504896390322796
474 4 17901382625883806273
5104073 3 18201442501441080811
53777708 50 18126288777369940499
5486654 2 9006471923551736898
559249 180 18269834229265134563
68521 5 18264490581742828812
6992083 37 18270976647494300481
7364860 26 18196090160631069648
77188 2 18410291402770023652
9709674 26 18192428803922107603
9971528 1 18412255168901247840
9981440 41 17401761320859718664

>  <PUBCHEM_SHAPE_MULTIPOLES>  (1) 
359.23
9.89
4.33
0.88
3.49
5.88
0
-9.37
1.26
3.3
-1.16
-0.53
0.33
-1.16

>  <PUBCHEM_SHAPE_SELFOVERLAP>  (1) 
697.139

>  <PUBCHEM_SHAPE_VOLUME>  (1) 
217.8

>  <PUBCHEM_COORDINATE_TYPE>  (1) 
2
5
10

$$$$
