28810
     RDKit          3D

  9  9  0  0  0  0  0  0  0  0999 V2000
    1.0016    2.3141    0.1049 Cl  0  0  0  0  0  0  0  0  0  0  0  0
    2.5657   -0.8055   -0.7297 O   0  0  0  0  0  0  0  0  0  0  0  0
    0.4491   -0.3503    0.2547 C   0  0  0  0  0  0  0  0  0  0  0  0
    1.8992   -0.6071    0.5098 C   0  0  0  0  0  0  0  0  0  0  0  0
   -0.0426    0.9405    0.0608 C   0  0  0  0  0  0  0  0  0  0  0  0
   -0.4193   -1.4411    0.2130 C   0  0  0  0  0  0  0  0  0  0  0  0
   -1.4028    1.1406   -0.1747 C   0  0  0  0  0  0  0  0  0  0  0  0
   -1.7796   -1.2409   -0.0225 C   0  0  0  0  0  0  0  0  0  0  0  0
   -2.2713    0.0499   -0.2163 C   0  0  0  0  0  0  0  0  0  0  0  0
  1  5  1  0
  2  4  1  0
  3  4  1  0
  3  5  2  0
  3  6  1  0
  5  7  1  0
  6  8  2  0
  7  9  2  0
  8  9  1  0
M  END
>  <PUBCHEM_COMPOUND_CID>  (1) 
28810

>  <PUBCHEM_CONFORMER_RMSD>  (1) 
0.4

>  <PUBCHEM_CONFORMER_DIVERSEORDER>  (1) 
1
4
2
3

>  <PUBCHEM_MMFF94_PARTIAL_CHARGES>  (1) 
14
1 -0.18
12 0.15
13 0.15
14 0.15
15 0.15
16 0.4
2 -0.68
3 -0.14
4 0.42
5 0.18
6 -0.15
7 -0.15
8 -0.15
9 -0.15

>  <PUBCHEM_EFFECTIVE_ROTOR_COUNT>  (1) 
1

>  <PUBCHEM_PHARMACOPHORE_FEATURES>  (1) 
3
1 2 acceptor
1 2 donor
6 3 5 6 7 8 9 rings

>  <PUBCHEM_HEAVY_ATOM_COUNT>  (1) 
9

>  <PUBCHEM_ATOM_DEF_STEREO_COUNT>  (1) 
0

>  <PUBCHEM_ATOM_UDEF_STEREO_COUNT>  (1) 
0

>  <PUBCHEM_BOND_DEF_STEREO_COUNT>  (1) 
0

>  <PUBCHEM_BOND_UDEF_STEREO_COUNT>  (1) 
0

>  <PUBCHEM_ISOTOPIC_ATOM_COUNT>  (1) 
0

>  <PUBCHEM_COMPONENT_COUNT>  (1) 
1

>  <PUBCHEM_CACTVS_TAUTO_COUNT>  (1) 
1

>  <PUBCHEM_CONFORMER_ID>  (1) 
0000708A00000001

>  <PUBCHEM_MMFF94_ENERGY>  (1) 
20.1173

>  <PUBCHEM_FEATURE_SELFOVERLAP>  (1) 
15.223

>  <PUBCHEM_SHAPE_FINGERPRINT>  (1) 
12423570 1 11965595320154845345
14128692 85 18341334486675984230
161256 15 18192157220264920875
16714656 1 18338518508548315343
16945 1 18409441462700547699
18185500 45 18263074423049853003
21040471 1 17977656511763647889
23552423 10 18189051073956778343
241688 4 18335979843806201753
2748010 2 18263637545134165069
29004967 10 16558740183624207722
5084963 1 18202278117540584699

>  <PUBCHEM_SHAPE_MULTIPOLES>  (1) 
181.22
2.9
2.03
0.7
0.18
0.86
-0.01
-0.59
-0.35
0.57
0.03
0.16
-0.06
0.18

>  <PUBCHEM_SHAPE_SELFOVERLAP>  (1) 
364.367

>  <PUBCHEM_SHAPE_VOLUME>  (1) 
107.5

>  <PUBCHEM_COORDINATE_TYPE>  (1) 
2
5
10

$$$$
