28823
     RDKit          3D

 21 23  0  0  1  0  0  0  0  0999 V2000
    0.7065    1.0118    0.1239 O   0  0  0  0  0  0  0  0  0  0  0  0
   -3.6890    1.1732    0.7956 N   0  0  0  0  0  0  0  0  0  0  0  0
    4.3762    1.1312    0.3069 N   0  0  0  0  0  0  0  0  0  0  0  0
   -0.2458    0.3039   -0.6739 C   0  0  0  0  0  0  0  0  0  0  0  0
   -0.1064   -1.1948   -0.5115 C   0  0  0  0  0  0  0  0  0  0  0  0
   -0.8284   -1.0257    1.9023 C   0  0  0  0  0  0  0  0  0  0  0  0
   -1.6172    0.8901   -0.4205 C   0  0  0  0  0  0  0  0  0  0  0  0
   -0.3467   -1.8244    0.7215 C   0  0  0  0  0  0  0  0  0  0  0  0
   -2.2434   -0.5056    1.6740 C   0  0  0  0  0  0  0  0  0  0  0  0
   -2.4787    0.5625    0.6352 C   0  0  0  0  0  0  0  0  0  0  0  0
    0.3040   -1.9750   -1.6059 C   0  0  0  0  0  0  0  0  0  0  0  0
   -0.1710   -3.2122    0.8391 C   0  0  0  0  0  0  0  0  0  0  0  0
    2.0346    0.6672   -0.2349 C   0  0  0  0  0  0  0  0  0  0  0  0
   -2.0449    1.9066   -1.2975 C   0  0  0  0  0  0  0  0  0  0  0  0
    2.9971    1.4661    0.6293 C   0  0  0  0  0  0  0  0  0  0  0  0
    0.4737   -3.3535   -1.4786 C   0  0  0  0  0  0  0  0  0  0  0  0
    0.2380   -3.9719   -0.2556 C   0  0  0  0  0  0  0  0  0  0  0  0
   -3.2712    2.5357   -1.1361 C   0  0  0  0  0  0  0  0  0  0  0  0
   -4.0530    2.1330   -0.0790 C   0  0  0  0  0  0  0  0  0  0  0  0
    5.3036    1.8694    1.1678 C   0  0  0  0  0  0  0  0  0  0  0  0
    4.6622    1.4125   -1.1021 C   0  0  0  0  0  0  0  0  0  0  0  0
  1  4  1  0
  1 13  1  0
  2 10  2  0
  2 19  1  0
  3 15  1  0
  3 20  1  0
  3 21  1  0
  4  5  1  0
  4  7  1  0
  5  8  2  0
  5 11  1  0
  6  8  1  0
  6  9  1  0
  7 10  1  0
  7 14  2  0
  8 12  1  0
  9 10  1  0
 11 16  2  0
 12 17  2  0
 13 15  1  0
 14 18  1  0
 16 17  1  0
 18 19  2  0
M  END
>  <PUBCHEM_COMPOUND_CID>  (1) 
28823

>  <PUBCHEM_CONFORMER_RMSD>  (1) 
0.8

>  <PUBCHEM_CONFORMER_DIVERSEORDER>  (1) 
1
7
13
5
4
9
10
12
6
3
14
2
11
8

>  <PUBCHEM_MMFF94_PARTIAL_CHARGES>  (1) 
28
1 -0.56
10 0.17
11 -0.15
12 -0.15
13 0.28
14 -0.15
15 0.27
16 -0.15
17 -0.15
18 -0.15
19 0.16
2 -0.62
20 0.27
21 0.27
27 0.15
28 0.15
3 -0.81
31 0.15
34 0.15
35 0.15
36 0.15
37 0.15
4 0.57
5 -0.14
6 0.14
7 -0.14
8 -0.14
9 0.14

>  <PUBCHEM_EFFECTIVE_ROTOR_COUNT>  (1) 
4.6

>  <PUBCHEM_PHARMACOPHORE_FEATURES>  (1) 
6
1 1 acceptor
1 2 acceptor
1 3 cation
6 2 7 10 14 18 19 rings
6 5 8 11 12 16 17 rings
7 4 5 6 7 8 9 10 rings

>  <PUBCHEM_HEAVY_ATOM_COUNT>  (1) 
21

>  <PUBCHEM_ATOM_DEF_STEREO_COUNT>  (1) 
0

>  <PUBCHEM_ATOM_UDEF_STEREO_COUNT>  (1) 
1

>  <PUBCHEM_BOND_DEF_STEREO_COUNT>  (1) 
0

>  <PUBCHEM_BOND_UDEF_STEREO_COUNT>  (1) 
0

>  <PUBCHEM_ISOTOPIC_ATOM_COUNT>  (1) 
0

>  <PUBCHEM_COMPONENT_COUNT>  (1) 
1

>  <PUBCHEM_CACTVS_TAUTO_COUNT>  (1) 
1

>  <PUBCHEM_CONFORMER_ID>  (1) 
0000709700000001

>  <PUBCHEM_MMFF94_ENERGY>  (1) 
65.8748

>  <PUBCHEM_FEATURE_SELFOVERLAP>  (1) 
30.462

>  <PUBCHEM_SHAPE_FINGERPRINT>  (1) 
10764073 3 16520442948135609906
107951 10 17967829236376604314
11578080 2 18123496915847642953
12707595 3 17545321878771408167
12788726 201 18051105271674401882
13004483 165 17619905501568098586
13134695 92 17473258778226944527
133893 2 17982179911153362650
13681431 1 17551224073799433870
15230672 131 18334867096250081006
15664445 248 17192639208846601591
17093844 174 18129090303819239376
17980427 23 17240489130417040989
18915476 22 18198353857593647243
21033648 29 18343291596347995840
21120745 212 17472153137670268180
21524375 3 18410288133703500549
21731228 192 18409166618979327152
22182313 1 17751379291670476441
23419403 2 17907337322961239411
23559900 14 17680164983794804759
23598288 3 17971200454885714764
23728640 28 18264760129389714778
2748010 2 17826265971844184555
3027735 51 17915454102771570934
3298306 158 18338241453731463990
3729539 64 18053968172889401566
532947 4 18197501727687826542
6138700 20 18051413968776314102
633830 44 17631465491928888624
7364860 26 18050846620184875143
81228 2 17835505394973249256
81539 233 18265329521403793957
84936 31 17770478860136576779
9862522 239 18336263530638133818
9981440 41 18338229375814202313

>  <PUBCHEM_SHAPE_MULTIPOLES>  (1) 
416.34
7.26
4.26
1.61
8.58
4.53
-0.13
-10.17
-1.08
-0.16
1.07
-0.18
0.43
1.38

>  <PUBCHEM_SHAPE_SELFOVERLAP>  (1) 
885.883

>  <PUBCHEM_SHAPE_VOLUME>  (1) 
230.8

>  <PUBCHEM_COORDINATE_TYPE>  (1) 
2
5
10

$$$$
