28831
     RDKit          3D

 18 20  0  0  0  0  0  0  0  0999 V2000
    0.5800   -0.1564   -0.5974 N   0  0  0  0  0  0  0  0  0  0  0  0
    5.0968    0.7936    1.1086 N   0  0  0  0  0  0  0  0  0  0  0  0
   -0.3690    0.8315   -0.5667 C   0  0  0  0  0  0  0  0  0  0  0  0
   -1.5751    0.2559   -0.2114 C   0  0  0  0  0  0  0  0  0  0  0  0
   -0.0441    2.2501   -0.8801 C   0  0  0  0  0  0  0  0  0  0  0  0
   -2.8689    0.9855   -0.0665 C   0  0  0  0  0  0  0  0  0  0  0  0
   -0.5003    3.2054    0.2232 C   0  0  0  0  0  0  0  0  0  0  0  0
   -2.7848    2.1840    0.8809 C   0  0  0  0  0  0  0  0  0  0  0  0
   -2.0195    3.3860    0.3162 C   0  0  0  0  0  0  0  0  0  0  0  0
   -1.3341   -1.1430   -0.0207 C   0  0  0  0  0  0  0  0  0  0  0  0
    0.0212   -1.3682   -0.2683 C   0  0  0  0  0  0  0  0  0  0  0  0
    1.9795    0.0228   -0.9312 C   0  0  0  0  0  0  0  0  0  0  0  0
    2.8304    0.3283    0.3012 C   0  0  0  0  0  0  0  0  0  0  0  0
   -2.1411   -2.2432    0.3400 C   0  0  0  0  0  0  0  0  0  0  0  0
    0.6102   -2.6345   -0.1734 C   0  0  0  0  0  0  0  0  0  0  0  0
   -1.5666   -3.5156    0.4392 C   0  0  0  0  0  0  0  0  0  0  0  0
   -0.2108   -3.7060    0.1859 C   0  0  0  0  0  0  0  0  0  0  0  0
    4.2964    0.5240   -0.0797 C   0  0  0  0  0  0  0  0  0  0  0  0
  1  3  1  0
  1 11  1  0
  1 12  1  0
  2 18  1  0
  3  4  2  0
  3  5  1  0
  4  6  1  0
  4 10  1  0
  5  7  1  0
  6  8  1  0
  7  9  1  0
  8  9  1  0
 10 11  2  0
 10 14  1  0
 11 15  1  0
 12 13  1  0
 13 18  1  0
 14 16  2  0
 15 17  2  0
 16 17  1  0
M  END
>  <PUBCHEM_COMPOUND_CID>  (1) 
28831

>  <PUBCHEM_CONFORMER_RMSD>  (1) 
0.6

>  <PUBCHEM_CONFORMER_DIVERSEORDER>  (1) 
1
12
13
11
3
15
14
7
8
6
4
2
9
5
10

>  <PUBCHEM_MMFF94_PARTIAL_CHARGES>  (1) 
19
1 0.05
11 -0.15
12 0.26
14 -0.15
15 -0.15
16 -0.15
17 -0.15
18 0.27
2 -0.99
3 -0.33
33 0.15
34 0.15
35 0.15
36 0.15
39 0.36
4 -0.18
40 0.36
5 0.18
6 0.18

>  <PUBCHEM_EFFECTIVE_ROTOR_COUNT>  (1) 
4

>  <PUBCHEM_PHARMACOPHORE_FEATURES>  (1) 
6
1 1 cation
1 2 cation
1 2 donor
5 1 3 4 10 11 rings
6 10 11 14 15 16 17 rings
7 3 4 5 6 7 8 9 rings

>  <PUBCHEM_HEAVY_ATOM_COUNT>  (1) 
18

>  <PUBCHEM_ATOM_DEF_STEREO_COUNT>  (1) 
0

>  <PUBCHEM_ATOM_UDEF_STEREO_COUNT>  (1) 
0

>  <PUBCHEM_BOND_DEF_STEREO_COUNT>  (1) 
0

>  <PUBCHEM_BOND_UDEF_STEREO_COUNT>  (1) 
0

>  <PUBCHEM_ISOTOPIC_ATOM_COUNT>  (1) 
0

>  <PUBCHEM_COMPONENT_COUNT>  (1) 
1

>  <PUBCHEM_CACTVS_TAUTO_COUNT>  (1) 
1

>  <PUBCHEM_CONFORMER_ID>  (1) 
0000709F00000001

>  <PUBCHEM_MMFF94_ENERGY>  (1) 
20.7344

>  <PUBCHEM_FEATURE_SELFOVERLAP>  (1) 
30.57

>  <PUBCHEM_SHAPE_FINGERPRINT>  (1) 
10319926 262 18270098220532011048
10411042 1 17906456880588740238
10967382 1 16895402689933226159
1100329 8 18266180715645437377
12507560 14 17908429404380249247
12553582 1 17905907107615815942
12788726 201 18045234983688989674
13140716 1 17977396254326754539
14420673 8 18192986016812253554
14787075 74 18060131020956301905
14790565 3 17617115615909708582
15042514 8 18335986466651235114
16110190 28 17829301629397758938
16945 1 18337690645360295085
17780758 139 18118373299399898874
19591789 44 17977398139553510414
20510252 161 18342178868714504600
20671657 1 17476081228627643988
21029758 11 18124024891328354511
21524375 3 18128813036781161724
21650355 55 18265889349221738074
21731228 192 18339081458797226872
2297311 6 18194977455491196414
23184049 29 17905332075697325158
2334 1 17545898482309968119
23402539 116 18270952557228615023
23419403 2 17414982845410068419
23557571 272 18198922464362058212
23559900 14 18341627988647879302
23598294 1 18335414712246667098
257057 1 17689997160046202479
2748010 2 18191890941157245503
3071541 12 17691127037066212030
3091708 16 9055041737370402986
350125 39 17832997052642339988
352729 6 18337121149633913805
43471831 8 18192435169020831453
58807428 26 18265618684408803304
7364860 26 17473829420302781663
81228 2 18339652242470283271
84936 182 17838897036289891856
90316 7 18194687192320678250
9981440 41 18264765454832982513

>  <PUBCHEM_SHAPE_MULTIPOLES>  (1) 
360.47
5.32
4.91
0.87
7.27
3.03
-0.02
-4.61
-1.76
-2.47
-0.77
0.23
-0.25
0.2

>  <PUBCHEM_SHAPE_SELFOVERLAP>  (1) 
766.362

>  <PUBCHEM_SHAPE_VOLUME>  (1) 
199.7

>  <PUBCHEM_COORDINATE_TYPE>  (1) 
2
5
10

$$$$
