2883
     RDKit          3D

 15 15  0  0  0  0  0  0  0  0999 V2000
   -2.6024   -1.3080   -0.4353 O   0  0  0  0  0  0  0  0  0  0  0  0
   -0.2919   -1.1041   -0.0554 N   0  0  0  0  0  0  0  0  0  0  0  0
    0.8354   -0.2010    0.1004 C   0  0  0  0  0  0  0  0  0  0  0  0
    0.0080   -2.5446   -0.1137 C   0  0  0  0  0  0  0  0  0  0  0  0
    1.5057    0.2166   -1.0157 C   0  0  0  0  0  0  0  0  0  0  0  0
    1.1585    0.1791    1.3751 C   0  0  0  0  0  0  0  0  0  0  0  0
   -1.6037   -0.6186   -0.2271 C   0  0  0  0  0  0  0  0  0  0  0  0
    2.5851    1.0835   -0.8452 C   0  0  0  0  0  0  0  0  0  0  0  0
   -0.0982   -3.1892    1.2529 C   0  0  0  0  0  0  0  0  0  0  0  0
    1.1361   -0.2108   -2.3991 C   0  0  0  0  0  0  0  0  0  0  0  0
    2.2379    1.0460    1.5454 C   0  0  0  0  0  0  0  0  0  0  0  0
    2.9512    1.4982    0.4354 C   0  0  0  0  0  0  0  0  0  0  0  0
   -1.7544    0.8655   -0.1581 C   0  0  0  0  0  0  0  0  0  0  0  0
   -2.9145    1.4072    0.2369 C   0  0  0  0  0  0  0  0  0  0  0  0
   -3.1529    2.8802    0.3035 C   0  0  0  0  0  0  0  0  0  0  0  0
  1  7  2  0
  2  3  1  0
  2  4  1  0
  2  7  1  0
  3  5  2  0
  3  6  1  0
  4  9  1  0
  5  8  1  0
  5 10  1  0
  6 11  2  0
  7 13  1  0
  8 12  2  0
 11 12  1  0
 13 14  2  0
 14 15  1  0
M  END
>  <PUBCHEM_COMPOUND_CID>  (1) 
2883

>  <PUBCHEM_CONFORMER_RMSD>  (1) 
0.6

>  <PUBCHEM_CONFORMER_DIVERSEORDER>  (1) 
1
10
12
6
2
3
7
11
8
9
4
5

>  <PUBCHEM_MMFF94_PARTIAL_CHARGES>  (1) 
20
1 -0.57
10 0.14
11 -0.15
12 -0.15
13 -0.14
14 -0.29
15 0.14
18 0.15
19 0.15
2 -0.48
26 0.15
27 0.15
28 0.15
29 0.15
3 0.12
4 0.3
5 -0.14
6 -0.15
7 0.62
8 -0.15

>  <PUBCHEM_EFFECTIVE_ROTOR_COUNT>  (1) 
4

>  <PUBCHEM_PHARMACOPHORE_FEATURES>  (1) 
3
1 1 acceptor
1 15 hydrophobe
6 3 5 6 8 11 12 rings

>  <PUBCHEM_HEAVY_ATOM_COUNT>  (1) 
15

>  <PUBCHEM_ATOM_DEF_STEREO_COUNT>  (1) 
0

>  <PUBCHEM_ATOM_UDEF_STEREO_COUNT>  (1) 
0

>  <PUBCHEM_BOND_DEF_STEREO_COUNT>  (1) 
0

>  <PUBCHEM_BOND_UDEF_STEREO_COUNT>  (1) 
1

>  <PUBCHEM_ISOTOPIC_ATOM_COUNT>  (1) 
0

>  <PUBCHEM_COMPONENT_COUNT>  (1) 
1

>  <PUBCHEM_CACTVS_TAUTO_COUNT>  (1) 
1

>  <PUBCHEM_CONFORMER_ID>  (1) 
00000B4300000001

>  <PUBCHEM_MMFF94_ENERGY>  (1) 
57.5959

>  <PUBCHEM_FEATURE_SELFOVERLAP>  (1) 
15.223

>  <PUBCHEM_SHAPE_FINGERPRINT>  (1) 
11471102 22 15068608418597147092
12423570 1 16410948439018077266
12491281 212 18115034124898147076
13132413 78 17549537414609666432
13134695 92 17326884081029083157
13294875 104 18125718985248559216
13380537 58 18337396049110645964
13464514 151 17844256120467315460
13538477 17 17607799805505311170
13764800 53 18410864256812391841
13839132 238 18343301487282378188
13898156 1 17388257011767915422
14787075 74 15734873217792267172
14817 1 14459333759579983230
15775835 57 18260266347593820321
16945 1 17984687068305666274
17357990 137 17895205410476242668
19837323 101 18190766269278363239
20233049 118 17549832083583680581
20344682 1 17343504710821209935
20510252 161 18268147737473226489
20671657 1 18123190100199628353
21524375 3 18341609287516278861
22802520 49 17703243835598432013
23211744 41 17988074603395858991
23402539 116 18126552659938976559
23419403 2 16249774010563442983
23526113 38 17772784656426813942
23557571 272 17688604074914299996
25 1 17702960148771586264
25610 171 17907293608731158490
305870 269 18335978666763389088
3797600 57 16664628779881334849
430814 3 16662648507720365108
549884 4 17487621818885006097
6442390 28 18268735907754249955
6992083 37 17749656493866147010
7364860 26 18053379903481010879
77492 1 17315058098832451870
81228 2 18051702327999647907

>  <PUBCHEM_SHAPE_MULTIPOLES>  (1) 
297.84
4.41
3.01
1.57
2.43
1.86
-0.49
-4.14
0.27
1.38
1.04
-1.15
0.08
-0.08

>  <PUBCHEM_SHAPE_SELFOVERLAP>  (1) 
605.675

>  <PUBCHEM_SHAPE_VOLUME>  (1) 
173.8

>  <PUBCHEM_COORDINATE_TYPE>  (1) 
2
5
10

$$$$
