28840
     RDKit          3D

 13 14  0  0  0  0  0  0  0  0999 V2000
   -3.8260   -1.4006    0.0998 Cl  0  0  0  0  0  0  0  0  0  0  0  0
    1.0534    1.8263   -0.0996 O   0  0  0  0  0  0  0  0  0  0  0  0
    2.1659   -2.3216   -0.8034 O   0  0  0  0  0  0  0  0  0  0  0  0
    3.1762    0.9538    0.1363 O   0  0  0  0  0  0  0  0  0  0  0  0
    1.2943   -0.4318    0.2341 N   0  0  0  0  0  0  0  0  0  0  0  0
   -0.0560   -0.1791    0.1264 C   0  0  0  0  0  0  0  0  0  0  0  0
   -0.1741    1.1813   -0.0730 C   0  0  0  0  0  0  0  0  0  0  0  0
   -1.1527   -1.0132    0.1864 C   0  0  0  0  0  0  0  0  0  0  0  0
    1.9651    0.7729    0.0984 C   0  0  0  0  0  0  0  0  0  0  0  0
    1.9014   -1.7209    0.4497 C   0  0  0  0  0  0  0  0  0  0  0  0
   -1.4036    1.7872   -0.2237 C   0  0  0  0  0  0  0  0  0  0  0  0
   -2.4096   -0.4214    0.0359 C   0  0  0  0  0  0  0  0  0  0  0  0
   -2.5342    0.9672   -0.1675 C   0  0  0  0  0  0  0  0  0  0  0  0
  1 12  1  0
  2  7  1  0
  2  9  1  0
  3 10  1  0
  4  9  2  0
  5  6  1  0
  5  9  1  0
  5 10  1  0
  6  7  2  0
  6  8  1  0
  7 11  1  0
  8 12  2  0
 11 13  2  0
 12 13  1  0
M  END
>  <PUBCHEM_COMPOUND_CID>  (1) 
28840

>  <PUBCHEM_CONFORMER_RMSD>  (1) 
0.4

>  <PUBCHEM_CONFORMER_DIVERSEORDER>  (1) 
1
2
3
4

>  <PUBCHEM_MMFF94_PARTIAL_CHARGES>  (1) 
17
1 -0.18
10 0.58
11 -0.15
12 0.18
13 -0.15
14 0.15
17 0.15
18 0.15
19 0.4
2 -0.23
3 -0.68
4 -0.57
5 -0.48
6 0.12
7 0.08
8 -0.15
9 0.78

>  <PUBCHEM_EFFECTIVE_ROTOR_COUNT>  (1) 
1

>  <PUBCHEM_PHARMACOPHORE_FEATURES>  (1) 
5
1 3 acceptor
1 3 donor
1 4 acceptor
5 2 5 6 7 9 rings
6 6 7 8 11 12 13 rings

>  <PUBCHEM_HEAVY_ATOM_COUNT>  (1) 
13

>  <PUBCHEM_ATOM_DEF_STEREO_COUNT>  (1) 
0

>  <PUBCHEM_ATOM_UDEF_STEREO_COUNT>  (1) 
0

>  <PUBCHEM_BOND_DEF_STEREO_COUNT>  (1) 
0

>  <PUBCHEM_BOND_UDEF_STEREO_COUNT>  (1) 
0

>  <PUBCHEM_ISOTOPIC_ATOM_COUNT>  (1) 
0

>  <PUBCHEM_COMPONENT_COUNT>  (1) 
1

>  <PUBCHEM_CACTVS_TAUTO_COUNT>  (1) 
1

>  <PUBCHEM_CONFORMER_ID>  (1) 
000070A800000001

>  <PUBCHEM_MMFF94_ENERGY>  (1) 
33.5463

>  <PUBCHEM_FEATURE_SELFOVERLAP>  (1) 
25.484

>  <PUBCHEM_SHAPE_FINGERPRINT>  (1) 
10967382 1 18265332991726637467
12524768 44 18337670810853019383
12932764 1 17532373058821204777
13380535 21 18338527347591192417
13380535 76 18263360446460428634
14252887 29 18337403746035347947
14576447 43 17983842656899305423
15219456 202 18411980226168926063
161256 15 18410579469914443462
16945 1 18338234976409006881
17990270 104 18410292484447316674
193761 8 18337670793805239873
19973954 147 18338233765238720449
20201158 50 18261671588221122699
20588541 1 18263647431990761395
20645477 70 18411130343074463063
20871998 22 18411141307529636667
21501502 16 18409730616809712801
21501925 9 18336250280542927410
2334 1 18409164385648911907
23463225 33 18333442145484269008
23552423 10 18188212009182800507
23559900 14 17691964861566124638
2748010 2 18336823083214453637
528886 8 18193833966712211577
7364860 26 18343018874466147696

>  <PUBCHEM_SHAPE_MULTIPOLES>  (1) 
246.81
4.85
2.22
0.66
1.7
0.34
-0.02
1.51
0.02
-0.55
-0.23
-0.06
0.13
0.3

>  <PUBCHEM_SHAPE_SELFOVERLAP>  (1) 
527.923

>  <PUBCHEM_SHAPE_VOLUME>  (1) 
139.9

>  <PUBCHEM_COORDINATE_TYPE>  (1) 
2
5
10

$$$$
