28852
     RDKit          3D

 18 19  0  0  0  0  0  0  0  0999 V2000
    1.3663    0.0479   -0.0150 O   0  0  0  0  0  0  0  0  0  0  0  0
   -2.7880   -2.0652    0.0094 O   0  0  0  0  0  0  0  0  0  0  0  0
   -2.4491    2.0341    0.4078 O   0  0  0  0  0  0  0  0  0  0  0  0
   -0.4309    1.8077   -0.6759 O   0  0  0  0  0  0  0  0  0  0  0  0
    4.8226    0.5617    0.0397 O   0  0  0  0  0  0  0  0  0  0  0  0
    3.1353    1.9670   -0.0870 O   0  0  0  0  0  0  0  0  0  0  0  0
   -1.4355   -2.3796    0.0615 N   0  0  0  0  0  0  0  0  0  0  0  0
    3.5773    0.7838   -0.0045 N   0  0  0  0  0  0  0  0  0  0  0  0
   -0.8050   -1.2031    0.0060 C   0  0  0  0  0  0  0  0  0  0  0  0
   -1.6988   -0.1219   -0.0810 C   0  0  0  0  0  0  0  0  0  0  0  0
    0.6666   -1.1158    0.0373 C   0  0  0  0  0  0  0  0  0  0  0  0
   -2.9321   -0.7180   -0.0753 C   0  0  0  0  0  0  0  0  0  0  0  0
    1.5213   -2.1901    0.1230 C   0  0  0  0  0  0  0  0  0  0  0  0
   -4.3106   -0.2135   -0.1393 C   0  0  0  0  0  0  0  0  0  0  0  0
    2.6821   -0.2869    0.0375 C   0  0  0  0  0  0  0  0  0  0  0  0
    2.8302   -1.6518    0.1230 C   0  0  0  0  0  0  0  0  0  0  0  0
   -1.4427    1.2849   -0.1585 C   0  0  0  0  0  0  0  0  0  0  0  0
   -2.3090    3.4588    0.3913 C   0  0  0  0  0  0  0  0  0  0  0  0
  1 11  1  0
  1 15  1  0
  2  7  1  0
  2 12  1  0
  3 17  1  0
  3 18  1  0
  4 17  2  0
  5  8  1  0
  6  8  2  0
  7  9  2  0
  8 15  1  0
  9 10  1  0
  9 11  1  0
 10 12  2  0
 10 17  1  0
 11 13  2  0
 12 14  1  0
 13 16  1  0
 15 16  2  0
M  CHG  2   5  -1   8   1
M  END
>  <PUBCHEM_COMPOUND_CID>  (1) 
28852

>  <PUBCHEM_CONFORMER_RMSD>  (1) 
0.6

>  <PUBCHEM_CONFORMER_DIVERSEORDER>  (1) 
3
15
12
2
8
6
11
1
7
16
13
9
4
14
5
10

>  <PUBCHEM_MMFF94_PARTIAL_CHARGES>  (1) 
20
1 -0.28
10 -0.09
11 0.14
12 -0.04
13 -0.15
14 0.18
15 0.22
16 -0.15
17 0.81
18 0.28
19 0.15
2 -0.02
23 0.15
3 -0.43
4 -0.57
5 -0.52
6 -0.52
7 -0.41
8 0.96
9 0.29

>  <PUBCHEM_EFFECTIVE_ROTOR_COUNT>  (1) 
4

>  <PUBCHEM_PHARMACOPHORE_FEATURES>  (1) 
8
1 1 acceptor
1 4 acceptor
1 5 acceptor
1 5 anion
1 6 acceptor
1 7 acceptor
5 1 11 13 15 16 rings
5 2 7 9 10 12 rings

>  <PUBCHEM_HEAVY_ATOM_COUNT>  (1) 
18

>  <PUBCHEM_ATOM_DEF_STEREO_COUNT>  (1) 
0

>  <PUBCHEM_ATOM_UDEF_STEREO_COUNT>  (1) 
0

>  <PUBCHEM_BOND_DEF_STEREO_COUNT>  (1) 
0

>  <PUBCHEM_BOND_UDEF_STEREO_COUNT>  (1) 
0

>  <PUBCHEM_ISOTOPIC_ATOM_COUNT>  (1) 
0

>  <PUBCHEM_COMPONENT_COUNT>  (1) 
1

>  <PUBCHEM_CACTVS_TAUTO_COUNT>  (1) 
1

>  <PUBCHEM_CONFORMER_ID>  (1) 
000070B400000003

>  <PUBCHEM_MMFF94_ENERGY>  (1) 
25.6566

>  <PUBCHEM_FEATURE_SELFOVERLAP>  (1) 
40.701

>  <PUBCHEM_SHAPE_FINGERPRINT>  (1) 
10498660 4 18337953497084354252
10608611 8 18339922619430835950
10616163 171 18411420630743393926
10967382 1 18410011069626443951
11132069 177 18337948012616845458
12173636 292 18268426845865123165
12390115 104 18128273215132151656
13027679 85 18267583701235976957
13140716 1 18120662593355015465
14787075 74 17824833483981130363
15196674 1 18337953393984052927
15442244 35 18193271897649507754
15536298 74 18413109429275092406
16945 1 18411420613590060819
17802600 8 18412257363729912200
19591789 44 16323164010635509262
20510252 161 18343022142931128393
21029758 11 18267296707337223183
21267235 1 18336836393250038735
21501502 16 18337951173670772130
21524375 3 17829613855627183347
21652331 79 18410856572535247536
22182937 141 18270688541109554081
2334 1 18337670802389724365
23388829 49 18335986483772744477
23402539 116 18339633563984866022
23557571 272 18339933734727531766
23558518 356 18262246512427340171
23559900 14 18411975837303654474
2748010 2 18264774246757312655
34934 24 18337665408169685719
350125 39 18266180534744984562
474 4 17676493886384234350
5104073 3 18337390431203954314
532947 4 17695614543900004641
537710 114 18335706099839085181
58051976 378 18413386549170769798
7097593 13 17754160995289652322
7364860 26 18340206293863916574
7832392 63 18050848819129100274
81228 2 18260554398528873361
9709674 26 18340771446534226150

>  <PUBCHEM_SHAPE_MULTIPOLES>  (1) 
325.25
7.05
3.12
0.62
3.45
1.61
0
1.59
0.1
-1.54
0.26
-0.09
0.06
-0.34

>  <PUBCHEM_SHAPE_SELFOVERLAP>  (1) 
701.348

>  <PUBCHEM_SHAPE_VOLUME>  (1) 
180

>  <PUBCHEM_COORDINATE_TYPE>  (1) 
2
5
10

$$$$
