28870
     RDKit          3D

 14 15  0  0  1  0  0  0  0  0999 V2000
   -1.6333    1.1657   -0.5852 N   0  0  0  0  0  0  0  0  0  0  0  0
   -0.9666    0.6174    0.5986 C   0  0  0  0  0  0  0  0  0  0  0  0
    0.4899    0.2848    0.3166 C   0  0  0  0  0  0  0  0  0  0  0  0
    1.4319    1.4321    0.6598 C   0  0  0  0  0  0  0  0  0  0  0  0
    0.9569   -0.8878   -0.1738 C   0  0  0  0  0  0  0  0  0  0  0  0
   -1.7551   -0.5076    1.2809 C   0  0  0  0  0  0  0  0  0  0  0  0
    2.9097    1.0607    0.7185 C   0  0  0  0  0  0  0  0  0  0  0  0
    2.4429   -1.1007   -0.4345 C   0  0  0  0  0  0  0  0  0  0  0  0
    3.2775    0.1765   -0.4550 C   0  0  0  0  0  0  0  0  0  0  0  0
   -2.1847   -1.6620    0.3886 C   0  0  0  0  0  0  0  0  0  0  0  0
    0.1628   -2.0335   -0.6017 C   0  0  0  0  0  0  0  0  0  0  0  0
   -1.1181   -2.3583   -0.3870 C   0  0  0  0  0  0  0  0  0  0  0  0
   -0.9687    2.3923   -1.0226 C   0  0  0  0  0  0  0  0  0  0  0  0
   -3.0450    1.4206   -0.3032 C   0  0  0  0  0  0  0  0  0  0  0  0
  1  2  1  0
  1 13  1  0
  1 14  1  0
  2  3  1  0
  2  6  1  0
  3  4  1  0
  3  5  2  0
  4  7  1  0
  5  8  1  0
  5 11  1  0
  6 10  1  0
  7  9  1  0
  8  9  1  0
 10 12  1  0
 11 12  2  0
M  END
>  <PUBCHEM_COMPOUND_CID>  (1) 
28870

>  <PUBCHEM_CONFORMER_RMSD>  (1) 
0.6

>  <PUBCHEM_CONFORMER_DIVERSEORDER>  (1) 
2
3
1
4
5

>  <PUBCHEM_MMFF94_PARTIAL_CHARGES>  (1) 
13
1 -0.81
10 0.14
11 -0.15
12 -0.29
13 0.27
14 0.27
2 0.41
28 0.15
29 0.15
3 -0.28
4 0.14
5 -0.14
8 0.14

>  <PUBCHEM_EFFECTIVE_ROTOR_COUNT>  (1) 
2.4

>  <PUBCHEM_PHARMACOPHORE_FEATURES>  (1) 
3
1 1 cation
6 3 4 5 7 8 9 rings
7 2 3 5 6 10 11 12 rings

>  <PUBCHEM_HEAVY_ATOM_COUNT>  (1) 
14

>  <PUBCHEM_ATOM_DEF_STEREO_COUNT>  (1) 
0

>  <PUBCHEM_ATOM_UDEF_STEREO_COUNT>  (1) 
1

>  <PUBCHEM_BOND_DEF_STEREO_COUNT>  (1) 
0

>  <PUBCHEM_BOND_UDEF_STEREO_COUNT>  (1) 
0

>  <PUBCHEM_ISOTOPIC_ATOM_COUNT>  (1) 
0

>  <PUBCHEM_COMPONENT_COUNT>  (1) 
1

>  <PUBCHEM_CACTVS_TAUTO_COUNT>  (1) 
1

>  <PUBCHEM_CONFORMER_ID>  (1) 
000070C600000002

>  <PUBCHEM_MMFF94_ENERGY>  (1) 
34.675

>  <PUBCHEM_FEATURE_SELFOVERLAP>  (1) 
15.227

>  <PUBCHEM_SHAPE_FINGERPRINT>  (1) 
1 1 18122902032094703622
11132069 177 18057042634579904418
11206711 2 18341615974738271478
12138202 97 18260539000839073725
13380535 76 18338510829320876403
13897977 150 18339924809932637729
14614273 12 18270391832052233438
14817 1 15673696133050686053
15219456 202 18412266124956735497
15775835 57 18409173186105551090
16945 1 18056481891960091746
17357779 13 18125703832999857711
17844478 74 18264219169225899746
19868273 325 18189054355348917220
20588541 1 18337959961100032661
20871998 184 18335989743811242353
21501502 16 18409441462442188786
21524375 3 18045494218981877413
2334 1 18341053007552239610
23388829 49 17616814769939694973
23402539 116 18188758466778466013
23419403 2 15403524225741099155
23559900 14 18201728298288884526
238 59 17614250313966409725
241688 4 18051128395503633906
25 1 17979355261597745893
2748010 2 18413396435900635390
2897 32 16251096121312819063
5084963 1 18270126845454939874
5255222 1 18342741857623318346
6333449 129 18409445895006576813
81228 2 18192422181145230147

>  <PUBCHEM_SHAPE_MULTIPOLES>  (1) 
283.13
4.29
2.58
1.01
1.78
0.29
-0.09
-0.87
-0.06
-1.21
0.67
-0.16
-0.17
0.77

>  <PUBCHEM_SHAPE_SELFOVERLAP>  (1) 
576.578

>  <PUBCHEM_SHAPE_VOLUME>  (1) 
162.4

>  <PUBCHEM_COORDINATE_TYPE>  (1) 
2
5
10

$$$$
