28880
     RDKit          3D

 18 17  0  0  0  0  0  0  0  0999 V2000
   -0.2435   -1.0969    0.4895 Si  0  0  0  0  0  4  0  0  0  0  0  0
    0.7417    3.3901   -0.0383 Si  0  0  0  0  0  4  0  0  0  0  0  0
    2.6591   -2.0587   -0.3280 Si  0  0  0  0  0  4  0  0  0  0  0  0
   -3.2926   -0.8620   -0.3271 Si  0  0  0  0  0  4  0  0  0  0  0  0
    1.0096   -1.7772   -0.3889 O   0  0  0  0  0  0  0  0  0  0  0  0
   -1.6618   -1.2361   -0.3901 O   0  0  0  0  0  0  0  0  0  0  0  0
    0.1072    0.7179    0.8448 C   0  0  0  0  0  0  0  0  0  0  0  0
    0.3393    1.5955   -0.3942 C   0  0  0  0  0  0  0  0  0  0  0  0
   -0.4050   -1.9728    2.1473 C   0  0  0  0  0  0  0  0  0  0  0  0
   -0.7089    4.1958    0.8369 C   0  0  0  0  0  0  0  0  0  0  0  0
    2.2620    3.4866    1.0565 C   0  0  0  0  0  0  0  0  0  0  0  0
    1.0757    4.2899   -1.6500 C   0  0  0  0  0  0  0  0  0  0  0  0
    3.2181   -2.9512   -1.8870 C   0  0  0  0  0  0  0  0  0  0  0  0
    3.0926   -3.1313    1.1554 C   0  0  0  0  0  0  0  0  0  0  0  0
    3.6217   -0.4480   -0.1950 C   0  0  0  0  0  0  0  0  0  0  0  0
   -4.1511   -1.4591   -1.8911 C   0  0  0  0  0  0  0  0  0  0  0  0
   -4.1239   -1.6802    1.1488 C   0  0  0  0  0  0  0  0  0  0  0  0
   -3.5400    0.9976   -0.1896 C   0  0  0  0  0  0  0  0  0  0  0  0
  1  5  1  0
  1  6  1  0
  1  7  1  0
  1  9  1  0
  2  8  1  0
  2 10  1  0
  2 11  1  0
  2 12  1  0
  3  5  1  0
  3 13  1  0
  3 14  1  0
  3 15  1  0
  4  6  1  0
  4 16  1  0
  4 17  1  0
  4 18  1  0
  7  8  1  0
M  END
>  <PUBCHEM_COMPOUND_CID>  (1) 
28880

>  <PUBCHEM_CONFORMER_RMSD>  (1) 
0.8

>  <PUBCHEM_CONFORMER_DIVERSEORDER>  (1) 
21
55
50
51
52
44
49
57
47
56
13
53
45
48
1
54
12
46
26
15
20
39
5
27
11
22
42
7
14
28
16
23
9
33
37
17
29
31
10
40
18
30
24
4
32
35
41
6
19
34
38
2
36
8
25
3
43

>  <PUBCHEM_MMFF94_PARTIAL_CHARGES>  (1) 
18
1 0.76
10 -0.08
11 -0.08
12 -0.08
13 -0.08
14 -0.08
15 -0.08
16 -0.08
17 -0.08
18 -0.08
2 0.32
3 0.54
4 0.54
5 -0.59
6 -0.59
7 -0.08
8 -0.08
9 -0.08

>  <PUBCHEM_EFFECTIVE_ROTOR_COUNT>  (1) 
7

>  <PUBCHEM_PHARMACOPHORE_FEATURES>  (1) 
0

>  <PUBCHEM_HEAVY_ATOM_COUNT>  (1) 
18

>  <PUBCHEM_ATOM_DEF_STEREO_COUNT>  (1) 
0

>  <PUBCHEM_ATOM_UDEF_STEREO_COUNT>  (1) 
0

>  <PUBCHEM_BOND_DEF_STEREO_COUNT>  (1) 
0

>  <PUBCHEM_BOND_UDEF_STEREO_COUNT>  (1) 
0

>  <PUBCHEM_ISOTOPIC_ATOM_COUNT>  (1) 
0

>  <PUBCHEM_COMPONENT_COUNT>  (1) 
1

>  <PUBCHEM_CACTVS_TAUTO_COUNT>  (1) 
1

>  <PUBCHEM_CONFORMER_ID>  (1) 
000070D000000015

>  <PUBCHEM_MMFF94_ENERGY>  (1) 
-0.6046

>  <PUBCHEM_FEATURE_SELFOVERLAP>  (1) 
0

>  <PUBCHEM_SHAPE_FINGERPRINT>  (1) 
11045515 52 18340212886211045462
11833330 49 18122059806266896450
12160290 23 17690847756912657242
12788726 201 17976268936880217970
13134695 92 18337098021256598135
13681431 1 18411423933515131382
14250199 8 18338508763969238439
14955137 171 18196395644828308619
15775530 1 17826809327677280059
1813 80 18272093760056784967
18785283 64 18045795742797328299
20600515 1 17822015294092737246
21041028 32 18338531737670112041
21285901 2 17555450627062569159
21304303 282 17107595299820317582
21524375 3 17542206300641100425
22620623 9 17627226754270641511
23419403 2 17899939895061133268
23526113 38 18259974977218038619
23557571 272 17768797681536355298
23558518 356 17974022652099887874
3057174 1 17834674181404751255
3091708 16 9357310708124001064
352729 6 16536785938721064737
532947 4 18197211662633851956
7164475 11 17976816485149734446
7364860 26 18268424818608748229
81228 2 18122071896710552578
9981440 41 17690831685435446305

>  <PUBCHEM_SHAPE_MULTIPOLES>  (1) 
431.54
6.66
6.28
1.72
4.8
8.06
0.15
-6.11
1.65
-4.97
0.26
0.09
-0.66
0.28

>  <PUBCHEM_SHAPE_SELFOVERLAP>  (1) 
733.282

>  <PUBCHEM_SHAPE_VOLUME>  (1) 
290.3

>  <PUBCHEM_COORDINATE_TYPE>  (1) 
2
5
10

$$$$
