28890
     RDKit          3D

 24 25  0  0  1  0  0  0  0  0999 V2000
    1.0161    1.4810   -1.0120 O   0  0  0  0  0  0  0  0  0  0  0  0
   -0.6402    0.1977    0.0881 N   0  0  0  0  0  0  0  0  0  0  0  0
   -3.4521    2.6542   -0.1017 N   0  0  0  0  0  0  0  0  0  0  0  0
   -1.5156    1.2444    0.5685 C   0  0  0  0  0  0  0  0  0  0  0  0
   -2.5012    1.6383   -0.5391 C   0  0  0  0  0  0  0  0  0  0  0  0
   -1.1781   -1.1594    0.0447 C   0  0  0  0  0  0  0  0  0  0  0  0
   -0.6826    2.4186    1.0773 C   0  0  0  0  0  0  0  0  0  0  0  0
    0.6646    0.4512   -0.4299 C   0  0  0  0  0  0  0  0  0  0  0  0
   -1.3153   -1.7507   -1.1784 C   0  0  0  0  0  0  0  0  0  0  0  0
   -1.5104   -1.7504    1.2298 C   0  0  0  0  0  0  0  0  0  0  0  0
    1.6838   -0.6555   -0.1794 C   0  0  0  0  0  0  0  0  0  0  0  0
   -4.2822    2.1726    1.0343 C   0  0  0  0  0  0  0  0  0  0  0  0
   -4.2875    3.0919   -1.2215 C   0  0  0  0  0  0  0  0  0  0  0  0
   -1.8300   -3.0465   -1.2200 C   0  0  0  0  0  0  0  0  0  0  0  0
   -2.0250   -3.0462    1.1881 C   0  0  0  0  0  0  0  0  0  0  0  0
   -0.9449   -1.0829   -2.4631 C   0  0  0  0  0  0  0  0  0  0  0  0
   -1.3511   -1.0825    2.5573 C   0  0  0  0  0  0  0  0  0  0  0  0
    3.0976   -0.1461   -0.0338 C   0  0  0  0  0  0  0  0  0  0  0  0
   -2.1847   -3.6942   -0.0368 C   0  0  0  0  0  0  0  0  0  0  0  0
    3.8983   -0.0341   -1.1594 C   0  0  0  0  0  0  0  0  0  0  0  0
    3.5687    0.2006    1.2225 C   0  0  0  0  0  0  0  0  0  0  0  0
    5.2044    0.4367   -1.0251 C   0  0  0  0  0  0  0  0  0  0  0  0
    4.8748    0.6715    1.3568 C   0  0  0  0  0  0  0  0  0  0  0  0
    5.6926    0.7896    0.2328 C   0  0  0  0  0  0  0  0  0  0  0  0
  1  8  2  0
  2  4  1  0
  2  6  1  0
  2  8  1  0
  3  5  1  0
  3 12  1  0
  3 13  1  0
  4  5  1  0
  4  7  1  0
  6  9  2  0
  6 10  1  0
  8 11  1  0
  9 14  1  0
  9 16  1  0
 10 15  2  0
 10 17  1  0
 11 18  1  0
 14 19  2  0
 15 19  1  0
 18 20  2  0
 18 21  1  0
 20 22  1  0
 21 23  2  0
 22 24  2  0
 23 24  1  0
M  END
>  <PUBCHEM_COMPOUND_CID>  (1) 
28890

>  <PUBCHEM_CONFORMER_RMSD>  (1) 
0.8

>  <PUBCHEM_CONFORMER_DIVERSEORDER>  (1) 
4
24
48
75
43
59
79
16
81
46
7
39
52
78
11
68
21
73
44
58
26
62
5
14
10
22
8
20
32
56
71
3
41
29
31
13
76
64
36
28
54
50
37
77
17
51
61
47
57
40
82
65
2
66
72
19
80
25
38
9
45
30
55
35
42
67
1
15
63
74
53
12
18
23
60
34
70
49
6
69
27
33

>  <PUBCHEM_MMFF94_PARTIAL_CHARGES>  (1) 
31
1 -0.57
10 -0.14
11 0.2
12 0.27
13 0.27
14 -0.15
15 -0.15
16 0.14
17 0.14
18 -0.14
19 -0.15
2 -0.48
20 -0.15
21 -0.15
22 -0.15
23 -0.15
24 -0.15
3 -0.81
39 0.15
4 0.3
40 0.15
47 0.15
48 0.15
49 0.15
5 0.27
50 0.15
51 0.15
52 0.15
6 0.12
8 0.57
9 -0.14

>  <PUBCHEM_EFFECTIVE_ROTOR_COUNT>  (1) 
7

>  <PUBCHEM_PHARMACOPHORE_FEATURES>  (1) 
4
1 1 acceptor
1 3 cation
6 18 20 21 22 23 24 rings
6 6 9 10 14 15 19 rings

>  <PUBCHEM_HEAVY_ATOM_COUNT>  (1) 
24

>  <PUBCHEM_ATOM_DEF_STEREO_COUNT>  (1) 
0

>  <PUBCHEM_ATOM_UDEF_STEREO_COUNT>  (1) 
1

>  <PUBCHEM_BOND_DEF_STEREO_COUNT>  (1) 
0

>  <PUBCHEM_BOND_UDEF_STEREO_COUNT>  (1) 
0

>  <PUBCHEM_ISOTOPIC_ATOM_COUNT>  (1) 
0

>  <PUBCHEM_COMPONENT_COUNT>  (1) 
1

>  <PUBCHEM_CACTVS_TAUTO_COUNT>  (1) 
1

>  <PUBCHEM_CONFORMER_ID>  (1) 
000070DA00000004

>  <PUBCHEM_MMFF94_ENERGY>  (1) 
100.489

>  <PUBCHEM_FEATURE_SELFOVERLAP>  (1) 
20.297

>  <PUBCHEM_SHAPE_FINGERPRINT>  (1) 
11315181 36 18041830836023752032
11370993 144 16916250830887740698
11578080 2 16986298641986392969
12035758 1 18270980028245356171
12553582 1 18051706726167855062
12616971 3 17095240324826438748
12788726 201 18337095865436417835
12969540 114 18271240509037249517
13004483 165 18051417567468109067
13052359 8 18409445882385302149
13583140 156 17918273178034434790
14142880 1 18040711480602888534
14178342 30 18334571365474898794
14468879 13 18131631162529797638
173720 79 18188476983100946897
17980427 23 16588885481644916821
1813 80 17840315737155308838
20197701 30 18263638460004650397
20602899 9 15913321364655837518
21033648 29 18268984306798294536
21521721 280 18201436935780786113
22182313 1 18127436508389892247
22224240 67 18341905044019300777
229495 10 13753802643204872005
23227448 37 18335424594755912252
23419403 2 15552166022006155707
23557571 272 18202004365184110540
23558518 356 18042969976624288856
23559900 14 18202005392061083060
23598288 3 18338811129213066420
23728640 28 18409449197725859323
3027735 51 18412539946328949286
3759504 43 18336263453413326461
394222 165 17831005837443049753
4015057 19 17346587587055078472
5104073 3 18335125528442087440
53917941 68 18337092506560625669
59755656 520 18263073336591848022
6669772 16 18196375823016609383

>  <PUBCHEM_SHAPE_MULTIPOLES>  (1) 
478.08
9.22
3.84
1.88
14.06
1.18
-0.13
-5.85
-0.09
-7.23
0.18
-0.52
0.54
0.57

>  <PUBCHEM_SHAPE_SELFOVERLAP>  (1) 
998.895

>  <PUBCHEM_SHAPE_VOLUME>  (1) 
272.6

>  <PUBCHEM_COORDINATE_TYPE>  (1) 
2
5
10

$$$$
