28894
     RDKit          3D

 16 16  0  0  1  0  0  0  0  0999 V2000
   -2.9495   -0.2726   -1.5884 O   0  0  0  0  0  0  0  0  0  0  0  0
    1.9855   -2.2547    0.5263 O   0  0  0  0  0  0  0  0  0  0  0  0
    1.1483    2.4406    0.0912 O   0  0  0  0  0  0  0  0  0  0  0  0
    2.9212    0.3521    0.4989 O   0  0  0  0  0  0  0  0  0  0  0  0
   -4.8713   -0.2678    0.5585 N   0  0  0  0  0  0  0  0  0  0  0  0
   -2.5708   -0.6986   -0.2726 C   0  0  0  0  0  0  0  0  0  0  0  0
   -1.1197   -0.4211   -0.0694 C   0  0  0  0  0  0  0  0  0  0  0  0
   -3.4537    0.0169    0.7692 C   0  0  0  0  0  0  0  0  0  0  0  0
   -0.6523    0.8931   -0.0835 C   0  0  0  0  0  0  0  0  0  0  0  0
   -0.2299   -1.4756    0.1356 C   0  0  0  0  0  0  0  0  0  0  0  0
    1.1272   -1.2159    0.3264 C   0  0  0  0  0  0  0  0  0  0  0  0
    0.7049    1.1527    0.1073 C   0  0  0  0  0  0  0  0  0  0  0  0
    1.5946    0.0982    0.3123 C   0  0  0  0  0  0  0  0  0  0  0  0
    2.5864   -2.8309   -0.6318 C   0  0  0  0  0  0  0  0  0  0  0  0
    0.1734    3.4591   -0.1244 C   0  0  0  0  0  0  0  0  0  0  0  0
    3.6057    1.0247   -0.5555 C   0  0  0  0  0  0  0  0  0  0  0  0
  1  6  1  0
  2 11  1  0
  2 14  1  0
  3 12  1  0
  3 15  1  0
  4 13  1  0
  4 16  1  0
  5  8  1  0
  6  7  1  0
  6  8  1  0
  7  9  2  0
  7 10  1  0
  9 12  1  0
 10 11  2  0
 11 13  1  0
 12 13  2  0
M  END
>  <PUBCHEM_COMPOUND_CID>  (1) 
28894

>  <PUBCHEM_CONFORMER_RMSD>  (1) 
0.6

>  <PUBCHEM_CONFORMER_DIVERSEORDER>  (1) 
6
29
8
34
41
23
28
35
21
43
10
12
39
40
22
5
38
26
7
27
36
20
30
2
42
15
18
17
25
11
14
32
33
31
1
44
3
19
4
37
9
24
16
13

>  <PUBCHEM_MMFF94_PARTIAL_CHARGES>  (1) 
21
1 -0.68
10 -0.15
11 0.08
12 0.08
13 0.08
14 0.28
15 0.28
16 0.28
2 -0.36
20 0.15
21 0.15
22 0.4
23 0.36
24 0.36
3 -0.36
4 -0.36
5 -0.99
6 0.42
7 -0.14
8 0.27
9 -0.15

>  <PUBCHEM_EFFECTIVE_ROTOR_COUNT>  (1) 
5

>  <PUBCHEM_PHARMACOPHORE_FEATURES>  (1) 
8
1 1 acceptor
1 1 donor
1 2 acceptor
1 3 acceptor
1 4 acceptor
1 5 cation
1 5 donor
6 7 9 10 11 12 13 rings

>  <PUBCHEM_HEAVY_ATOM_COUNT>  (1) 
16

>  <PUBCHEM_ATOM_DEF_STEREO_COUNT>  (1) 
0

>  <PUBCHEM_ATOM_UDEF_STEREO_COUNT>  (1) 
1

>  <PUBCHEM_BOND_DEF_STEREO_COUNT>  (1) 
0

>  <PUBCHEM_BOND_UDEF_STEREO_COUNT>  (1) 
0

>  <PUBCHEM_ISOTOPIC_ATOM_COUNT>  (1) 
0

>  <PUBCHEM_COMPONENT_COUNT>  (1) 
1

>  <PUBCHEM_CACTVS_TAUTO_COUNT>  (1) 
1

>  <PUBCHEM_CONFORMER_ID>  (1) 
000070DE00000006

>  <PUBCHEM_MMFF94_ENERGY>  (1) 
67.3066

>  <PUBCHEM_FEATURE_SELFOVERLAP>  (1) 
40.608

>  <PUBCHEM_SHAPE_FINGERPRINT>  (1) 
10967382 1 18410293635487827152
10980938 120 18410853274021671099
11471102 20 18409164433067677399
116883 192 17981315699261483492
13132413 78 18341899571508408529
13140716 1 18121493828340562680
13380536 305 18193560188570434008
14178342 30 18127392652473733387
14790565 3 18265629829886840300
15042514 8 17040354614869165714
161256 15 18268431244080270162
16945 1 18338789117241871408
18186145 218 18268143343458139757
193761 8 18050002195418500776
20339313 130 18340489963125524531
20511035 2 17609500784532339680
20588541 1 18261677059835306434
20645477 70 18338504254122046759
20739085 24 18196395648716990225
20871998 22 18268993077084011058
21041028 32 18266180530634718137
21501502 16 18196093240233150376
21524375 3 17540524047507958593
21639500 275 18265597961513340429
2255824 54 18267020755018561549
2334 1 18338229354228140728
23402539 116 18272087253703122900
23419403 2 16314067995915539112
23526113 38 18113058242151796627
23559900 14 16902704555903773438
23598291 2 18060131012476871079
25 1 18262799686955911988
2748010 2 18194104236251161116
3060560 45 18268137837483795694
3071541 250 18339368439959096630
54173680 148 17689435979598013266
7364860 26 18413110588557397218
81228 2 17616235997278957720

>  <PUBCHEM_SHAPE_MULTIPOLES>  (1) 
300.81
5.95
3.02
0.86
5.15
1.35
0.19
-1.4
-0.05
-2.58
0.24
0.36
-0.13
-0.02

>  <PUBCHEM_SHAPE_SELFOVERLAP>  (1) 
614.165

>  <PUBCHEM_SHAPE_VOLUME>  (1) 
176.2

>  <PUBCHEM_COORDINATE_TYPE>  (1) 
2
5
10

$$$$
