28914
     RDKit          3D

 19 21  0  0  0  0  0  0  0  0999 V2000
   -4.3683   -1.5476    0.8754 O   0  0  0  0  0  0  0  0  0  0  0  0
    1.9216    1.4681    0.8568 O   0  0  0  0  0  0  0  0  0  0  0  0
   -1.6225    1.4675   -1.9135 O   0  0  0  0  0  0  0  0  0  0  0  0
   -0.0223    2.6677    0.9138 O   0  0  0  0  0  0  0  0  0  0  0  0
   -2.4141    0.2325   -0.1119 N   0  0  0  0  0  0  0  0  0  0  0  0
   -3.8106    0.3407   -0.5384 C   0  0  0  0  0  0  0  0  0  0  0  0
   -2.2499   -0.4125    1.1978 C   0  0  0  0  0  0  0  0  0  0  0  0
   -4.4960   -1.0160   -0.4461 C   0  0  0  0  0  0  0  0  0  0  0  0
   -2.9943   -1.7416    1.2228 C   0  0  0  0  0  0  0  0  0  0  0  0
   -1.4194    0.8331   -0.8764 C   0  0  0  0  0  0  0  0  0  0  0  0
   -0.0221    0.7076   -0.4175 C   0  0  0  0  0  0  0  0  0  0  0  0
    0.6567   -0.3523   -0.8720 C   0  0  0  0  0  0  0  0  0  0  0  0
    2.0403   -0.5623   -0.4750 C   0  0  0  0  0  0  0  0  0  0  0  0
    2.6412    0.3544    0.3817 C   0  0  0  0  0  0  0  0  0  0  0  0
    0.5968    1.6957    0.4944 C   0  0  0  0  0  0  0  0  0  0  0  0
    2.7869   -1.6540   -0.9252 C   0  0  0  0  0  0  0  0  0  0  0  0
    3.9625    0.2109    0.8002 C   0  0  0  0  0  0  0  0  0  0  0  0
    4.1137   -1.8112   -0.5140 C   0  0  0  0  0  0  0  0  0  0  0  0
    4.6998   -0.8807    0.3468 C   0  0  0  0  0  0  0  0  0  0  0  0
  1  8  1  0
  1  9  1  0
  2 14  1  0
  2 15  1  0
  3 10  2  0
  4 15  2  0
  5  6  1  0
  5  7  1  0
  5 10  1  0
  6  8  1  0
  7  9  1  0
 10 11  1  0
 11 12  2  0
 11 15  1  0
 12 13  1  0
 13 14  2  0
 13 16  1  0
 14 17  1  0
 16 18  2  0
 17 19  2  0
 18 19  1  0
M  END
>  <PUBCHEM_COMPOUND_CID>  (1) 
28914

>  <PUBCHEM_CONFORMER_RMSD>  (1) 
0.6

>  <PUBCHEM_CONFORMER_DIVERSEORDER>  (1) 
1
5
8
3
7
4
2
6

>  <PUBCHEM_MMFF94_PARTIAL_CHARGES>  (1) 
24
1 -0.56
10 0.62
11 0.03
12 -0.18
13 0.03
14 0.08
15 0.71
16 -0.15
17 -0.15
18 -0.15
19 -0.15
2 -0.23
28 0.15
29 0.15
3 -0.57
30 0.15
31 0.15
32 0.15
4 -0.57
5 -0.66
6 0.3
7 0.3
8 0.28
9 0.28

>  <PUBCHEM_EFFECTIVE_ROTOR_COUNT>  (1) 
3.2

>  <PUBCHEM_PHARMACOPHORE_FEATURES>  (1) 
7
1 1 acceptor
1 11 anion
1 3 acceptor
1 4 acceptor
6 1 5 6 7 8 9 rings
6 13 14 16 17 18 19 rings
6 2 11 12 13 14 15 rings

>  <PUBCHEM_HEAVY_ATOM_COUNT>  (1) 
19

>  <PUBCHEM_ATOM_DEF_STEREO_COUNT>  (1) 
0

>  <PUBCHEM_ATOM_UDEF_STEREO_COUNT>  (1) 
0

>  <PUBCHEM_BOND_DEF_STEREO_COUNT>  (1) 
0

>  <PUBCHEM_BOND_UDEF_STEREO_COUNT>  (1) 
0

>  <PUBCHEM_ISOTOPIC_ATOM_COUNT>  (1) 
0

>  <PUBCHEM_COMPONENT_COUNT>  (1) 
1

>  <PUBCHEM_CACTVS_TAUTO_COUNT>  (1) 
1

>  <PUBCHEM_CONFORMER_ID>  (1) 
000070F200000001

>  <PUBCHEM_MMFF94_ENERGY>  (1) 
58.3772

>  <PUBCHEM_FEATURE_SELFOVERLAP>  (1) 
35.55

>  <PUBCHEM_SHAPE_FINGERPRINT>  (1) 
11046707 91 18113621183425624883
11471102 22 18131070450043236672
11543360 7 17240774960511428494
11796584 16 17894624833824181235
12251169 10 17703790340174577806
12363563 72 18410866455276276579
12506688 2 18410018753375742634
12596602 18 16200144438923102178
12633257 1 18201170948081422923
12670546 56 13182735897225639900
12714826 92 18186801353039146317
12892183 10 16988850457713047586
13140716 1 17843662590937168400
13544653 18 18412266133546624423
13965767 371 14833916484911834563
14251764 30 17344933853174448750
14252887 29 17775007864848807870
14386348 63 18409166606031232194
14787075 74 18336264652051956786
14790565 3 17548131590331613824
15375462 478 17131837560038976249
15422964 175 18343025454245281918
16752209 62 16443889623235350741
17804303 29 18259988193185420475
18186145 218 11530484436769871506
18785283 64 18195238047963198880
19141452 34 18410859897647562819
19862831 5 14634869755782946039
200 152 17846208965151041583
20261772 1 17774999102957359542
20281475 54 18334869332835570397
20374829 77 18040432205113630891
20645477 70 18339634641683618166
20871999 31 17458344113232847541
21079973 296 18260829297789516390
231179 274 9295288344091633326
23175994 123 18342175548916144973
23402539 116 16950557757636022143
23557571 272 17967522472221121868
23559900 14 18040431113938645956
26918003 58 18338229371719129298
2748010 2 17629473087271479636
3286 77 18341896337534567529
4028521 119 9511467710285286983
474 4 16413483831638755624
5104073 3 17915171322630769274
602551 16 17894345575314066306
77492 1 16343696668655808973
9709674 26 18189898810897818779

>  <PUBCHEM_SHAPE_MULTIPOLES>  (1) 
362.55
8.97
2.05
1.27
0.51
0.45
0.11
-5.35
-0.85
-0.02
-0.3
0.53
0.07
1.43

>  <PUBCHEM_SHAPE_SELFOVERLAP>  (1) 
785.6

>  <PUBCHEM_SHAPE_VOLUME>  (1) 
196.4

>  <PUBCHEM_COORDINATE_TYPE>  (1) 
2
5
10

$$$$
