28923
     RDKit          3D

 20 23  0  0  0  0  0  0  0  0999 V2000
   -0.0196    0.0001   -1.1353 C   0  0  0  0  0  0  0  0  0  0  0  0
    0.7810    1.1817   -0.5941 C   0  0  0  0  0  0  0  0  0  0  0  0
    0.7810   -1.1817   -0.5943 C   0  0  0  0  0  0  0  0  0  0  0  0
    1.8914    0.7238    0.1516 C   0  0  0  0  0  0  0  0  0  0  0  0
    1.8912   -0.7239    0.1516 C   0  0  0  0  0  0  0  0  0  0  0  0
   -1.4321    0.0000   -0.6578 C   0  0  0  0  0  0  0  0  0  0  0  0
    0.5427    2.5347   -0.7754 C   0  0  0  0  0  0  0  0  0  0  0  0
    0.5427   -2.5347   -0.7759 C   0  0  0  0  0  0  0  0  0  0  0  0
    2.7669    1.6251    0.7349 C   0  0  0  0  0  0  0  0  0  0  0  0
    2.7663   -1.6252    0.7355 C   0  0  0  0  0  0  0  0  0  0  0  0
   -1.7065   -0.0001    0.7099 C   0  0  0  0  0  0  0  0  0  0  0  0
   -2.4796    0.0001   -1.5791 C   0  0  0  0  0  0  0  0  0  0  0  0
    1.4252    3.4415   -0.1863 C   0  0  0  0  0  0  0  0  0  0  0  0
    1.4250   -3.4416   -0.1867 C   0  0  0  0  0  0  0  0  0  0  0  0
    2.5255    2.9913    0.5623 C   0  0  0  0  0  0  0  0  0  0  0  0
    2.5249   -2.9915    0.5627 C   0  0  0  0  0  0  0  0  0  0  0  0
   -3.0280    0.0001    1.1562 C   0  0  0  0  0  0  0  0  0  0  0  0
   -3.8011    0.0003   -1.1328 C   0  0  0  0  0  0  0  0  0  0  0  0
   -4.0752    0.0003    0.2349 C   0  0  0  0  0  0  0  0  0  0  0  0
   -3.3216   -0.0001    2.6183 C   0  0  0  0  0  0  0  0  0  0  0  0
  1  2  1  0
  1  3  1  0
  1  6  1  0
  2  4  1  0
  2  7  2  0
  3  5  2  0
  3  8  1  0
  4  5  1  0
  4  9  2  0
  5 10  1  0
  6 11  2  0
  6 12  1  0
  7 13  1  0
  8 14  2  0
  9 15  1  0
 10 16  2  0
 11 17  1  0
 12 18  2  0
 13 15  2  0
 14 16  1  0
 17 19  2  0
 17 20  1  0
 18 19  1  0
M  END
>  <PUBCHEM_COMPOUND_CID>  (1) 
28923

>  <PUBCHEM_CONFORMER_RMSD>  (1) 
0.6

>  <PUBCHEM_CONFORMER_DIVERSEORDER>  (1) 
1
3
4
2
5
6

>  <PUBCHEM_MMFF94_PARTIAL_CHARGES>  (1) 
30
1 0.43
10 -0.15
11 -0.15
12 -0.15
13 -0.15
14 -0.15
15 -0.15
16 -0.15
17 -0.14
18 -0.15
19 -0.15
2 -0.14
20 0.14
22 0.15
23 0.15
24 0.15
25 0.15
26 0.15
27 0.15
28 0.15
29 0.15
3 -0.14
30 0.15
31 0.15
32 0.15
33 0.15
6 -0.14
7 -0.15
8 -0.15
9 -0.15

>  <PUBCHEM_EFFECTIVE_ROTOR_COUNT>  (1) 
1.2

>  <PUBCHEM_PHARMACOPHORE_FEATURES>  (1) 
4
5 1 2 3 4 5 rings
6 2 4 7 9 13 15 rings
6 3 5 8 10 14 16 rings
6 6 11 12 17 18 19 rings

>  <PUBCHEM_HEAVY_ATOM_COUNT>  (1) 
20

>  <PUBCHEM_ATOM_DEF_STEREO_COUNT>  (1) 
0

>  <PUBCHEM_ATOM_UDEF_STEREO_COUNT>  (1) 
0

>  <PUBCHEM_BOND_DEF_STEREO_COUNT>  (1) 
0

>  <PUBCHEM_BOND_UDEF_STEREO_COUNT>  (1) 
0

>  <PUBCHEM_ISOTOPIC_ATOM_COUNT>  (1) 
0

>  <PUBCHEM_COMPONENT_COUNT>  (1) 
1

>  <PUBCHEM_CACTVS_TAUTO_COUNT>  (1) 
1

>  <PUBCHEM_CONFORMER_ID>  (1) 
000070FB00000001

>  <PUBCHEM_MMFF94_ENERGY>  (1) 
67.2318

>  <PUBCHEM_FEATURE_SELFOVERLAP>  (1) 
20.46

>  <PUBCHEM_SHAPE_FINGERPRINT>  (1) 
10382601 240 18270697414670035152
11471102 22 18335413552130639198
11582403 64 16236108403721775309
11640471 11 17775011223391920433
11725454 13 16810897859796182141
12202030 40 17459489804787034699
12363563 72 18046060463054499651
12403259 327 16444441633575337681
12553582 1 18195532497566430358
12592029 89 18265038314305308589
12788726 201 17326326628248633418
12954195 1 16750451375052890556
13009979 54 17703780406100221751
13134695 92 18335416807826729934
13140716 1 18193822959370324008
13149001 5 17836968768273489380
13681431 1 18263093127748393916
13965767 371 17344090505901241241
14790565 3 18410014364568863548
14844126 61 17184442349234770186
15309172 13 18193273220130150341
16945 1 18410851066497937518
1813 80 17914628159106578622
19049666 15 17895745202219165901
19591789 44 18264203793870506662
19765921 60 17915456323211074701
20739085 24 18409452462291556584
21524375 3 17985830573173003940
21731228 192 18049446138513023824
21756936 100 17484266379848319288
2255824 54 18413672430530601654
23419403 2 17680393733742297492
23558518 356 17762613293654544326
2748010 2 17908392807469633668
3091708 16 9832200762523726036
31174 14 18262534636245494787
350125 39 17976825611938881454
3729539 64 18045252468885753844
3797600 57 17558570233598016667
4340502 62 18125453140475769779
4409770 3 15538437064497527711
474 4 18270399507195857721
539174 4 18202566172191175089
57527295 17 17464787131645735607
6992083 37 17771063796291051087
7364860 26 18410568491919934740
7615 1 17775284937584084865
77492 1 17703783734852285341
81228 2 17398391927579144636
8272917 22 18412262839829039005
8988823 20 18265917868464266083
9981440 41 16193660816997824288

>  <PUBCHEM_SHAPE_MULTIPOLES>  (1) 
411.59
5.79
3.79
1.52
5.75
0
0.63
0
1.78
-5.24
-0.1
1.68
0
0

>  <PUBCHEM_SHAPE_SELFOVERLAP>  (1) 
930.247

>  <PUBCHEM_SHAPE_VOLUME>  (1) 
202.9

>  <PUBCHEM_COORDINATE_TYPE>  (1) 
2
5
10

$$$$
