28920
     RDKit          3D

 20 22  0  0  0  0  0  0  0  0999 V2000
    1.6244    0.2578    1.3528 O   0  0  0  0  0  0  0  0  0  0  0  0
   -1.7278   -1.9189    0.1736 O   0  0  0  0  0  0  0  0  0  0  0  0
    0.3944   -2.7068   -0.1192 O   0  0  0  0  0  0  0  0  0  0  0  0
    3.5852    0.3542    0.1347 N   0  0  0  0  0  0  0  0  0  0  0  0
   -5.4252    2.2642   -0.0105 N   0  0  0  0  0  0  0  0  0  0  0  0
    5.8547    0.5429    0.7289 C   0  0  0  0  0  0  0  0  0  0  0  0
    5.7118    0.8376   -0.7590 C   0  0  0  0  0  0  0  0  0  0  0  0
    4.4391    0.7377    1.2494 C   0  0  0  0  0  0  0  0  0  0  0  0
    4.3569    0.2323   -1.0981 C   0  0  0  0  0  0  0  0  0  0  0  0
    2.2266    0.1432    0.2841 C   0  0  0  0  0  0  0  0  0  0  0  0
    1.4866   -0.2419   -0.9719 C   0  0  0  0  0  0  0  0  0  0  0  0
    0.0440   -0.4083   -0.6020 C   0  0  0  0  0  0  0  0  0  0  0  0
   -0.8300    0.6059   -0.6519 C   0  0  0  0  0  0  0  0  0  0  0  0
   -2.2230    0.4132   -0.2869 C   0  0  0  0  0  0  0  0  0  0  0  0
   -0.3878   -1.7632   -0.1710 C   0  0  0  0  0  0  0  0  0  0  0  0
   -2.6408   -0.8488    0.1191 C   0  0  0  0  0  0  0  0  0  0  0  0
   -3.1563    1.4515   -0.3291 C   0  0  0  0  0  0  0  0  0  0  0  0
   -3.9615   -1.1029    0.4837 C   0  0  0  0  0  0  0  0  0  0  0  0
   -4.4850    1.2126    0.0338 C   0  0  0  0  0  0  0  0  0  0  0  0
   -4.8864   -0.0622    0.4394 C   0  0  0  0  0  0  0  0  0  0  0  0
  1 10  2  0
  2 15  1  0
  2 16  1  0
  3 15  2  0
  4  8  1  0
  4  9  1  0
  4 10  1  0
  5 19  1  0
  6  7  1  0
  6  8  1  0
  7  9  1  0
 10 11  1  0
 11 12  1  0
 12 13  2  0
 12 15  1  0
 13 14  1  0
 14 16  2  0
 14 17  1  0
 16 18  1  0
 17 19  2  0
 18 20  2  0
 19 20  1  0
M  END
>  <PUBCHEM_COMPOUND_CID>  (1) 
28920

>  <PUBCHEM_CONFORMER_RMSD>  (1) 
0.6

>  <PUBCHEM_CONFORMER_DIVERSEORDER>  (1) 
2
16
14
12
13
22
25
4
20
24
23
21
3
11
8
1
5
7
10
6
15
9
17
19
18

>  <PUBCHEM_MMFF94_PARTIAL_CHARGES>  (1) 
24
1 -0.57
10 0.57
11 0.2
12 -0.12
13 -0.18
14 0.03
15 0.71
16 0.08
17 -0.15
18 -0.15
19 0.1
2 -0.23
20 -0.15
3 -0.57
31 0.15
32 0.15
33 0.15
34 0.15
35 0.4
36 0.4
4 -0.66
5 -0.9
8 0.3
9 0.3

>  <PUBCHEM_EFFECTIVE_ROTOR_COUNT>  (1) 
4

>  <PUBCHEM_PHARMACOPHORE_FEATURES>  (1) 
7
1 1 acceptor
1 3 acceptor
1 5 cation
1 5 donor
5 4 6 7 8 9 rings
6 14 16 17 18 19 20 rings
6 2 12 13 14 15 16 rings

>  <PUBCHEM_HEAVY_ATOM_COUNT>  (1) 
20

>  <PUBCHEM_ATOM_DEF_STEREO_COUNT>  (1) 
0

>  <PUBCHEM_ATOM_UDEF_STEREO_COUNT>  (1) 
0

>  <PUBCHEM_BOND_DEF_STEREO_COUNT>  (1) 
0

>  <PUBCHEM_BOND_UDEF_STEREO_COUNT>  (1) 
0

>  <PUBCHEM_ISOTOPIC_ATOM_COUNT>  (1) 
0

>  <PUBCHEM_COMPONENT_COUNT>  (1) 
1

>  <PUBCHEM_CACTVS_TAUTO_COUNT>  (1) 
1

>  <PUBCHEM_CONFORMER_ID>  (1) 
000070F800000002

>  <PUBCHEM_MMFF94_ENERGY>  (1) 
63.1965

>  <PUBCHEM_FEATURE_SELFOVERLAP>  (1) 
35.547

>  <PUBCHEM_SHAPE_FINGERPRINT>  (1) 
10411042 1 17761496189936656435
10912923 1 17458343082809974248
11315181 36 17894911875078182340
12107183 9 17174033337405678312
12166972 35 12751233722841248522
12236239 1 17530965808665789516
12390115 104 18270975557042235449
12403259 415 18131632321901805768
12596602 18 17095244747640687464
12916748 109 18341899588809181240
12969540 114 17346309393042549813
13140716 1 17975144437670745251
13288520 33 9295289439292514889
13533116 47 17917715648409141886
13540713 4 18191602852437372503
13544653 18 13117996695320936582
13740256 8 9079105666246709357
14251764 75 17267520387605950417
14341114 328 17313103059683811848
14573314 32 18201727240819249996
15042514 8 18120660390254031627
15183329 4 15267347301586466076
15196674 1 18409450250124812799
15209294 21 18409446977433248463
17980427 23 17894918446979344349
1813 80 15719394997529342718
19784866 170 18335143059796826085
20645477 56 18341893021703699116
20645477 70 16558481820536164230
21033648 29 18131059467928126888
21279426 13 18200319797142431878
212916 134 18341038684084247074
22224240 67 18410577301652375899
23175994 123 17274549822843804008
23402539 116 18343295993992683572
23559900 14 18342189834483657470
2838139 119 17703502208183616457
2916195 48 18131344245882361360
293599 30 18413389825908965580
3004659 81 18409735024575351790
314173 85 11097851874058439206
495365 180 17418086612443901070
5104073 3 18262527966498875259
5385378 56 18268436745617040907
542803 24 17749108902752874820
59682541 35 18335713750162433017
59682541 52 16629965395646384972
59755656 215 18341619162047188342
633830 44 18059282236486145324
9981440 41 18334299756011934251

>  <PUBCHEM_SHAPE_MULTIPOLES>  (1) 
384.02
12.99
1.82
1.01
7.74
0.66
-0.08
-6.53
-1.5
-2.11
0.04
1.06
-0.11
0.4

>  <PUBCHEM_SHAPE_SELFOVERLAP>  (1) 
831.9

>  <PUBCHEM_SHAPE_VOLUME>  (1) 
210.4

>  <PUBCHEM_COORDINATE_TYPE>  (1) 
2
5
10

$$$$
