28925
     RDKit          3D

  9  9  0  0  0  0  0  0  0  0999 V2000
   -1.4001   -0.0109   -0.0003 Si  0  0  0  0  0  4  0  0  0  0  0  0
    0.3939    0.0207    0.0007 N   0  0  0  0  0  0  0  0  0  0  0  0
    2.4279   -0.7186   -0.0002 N   0  0  0  0  0  0  0  0  0  0  0  0
   -2.0212    0.8656   -1.5389 C   0  0  0  0  0  0  0  0  0  0  0  0
   -2.0232    0.8832    1.5276 C   0  0  0  0  0  0  0  0  0  0  0  0
   -2.0727   -1.7597    0.0102 C   0  0  0  0  0  0  0  0  0  0  0  0
    1.1232    1.1347    0.0006 C   0  0  0  0  0  0  0  0  0  0  0  0
    1.1608   -1.0688    0.0001 C   0  0  0  0  0  0  0  0  0  0  0  0
    2.4114    0.6538    0.0002 C   0  0  0  0  0  0  0  0  0  0  0  0
  1  2  1  0
  1  4  1  0
  1  5  1  0
  1  6  1  0
  2  7  1  0
  2  8  1  0
  3  8  2  0
  3  9  1  0
  7  9  2  0
M  END
>  <PUBCHEM_COMPOUND_CID>  (1) 
28925

>  <PUBCHEM_CONFORMER_RMSD>  (1) 
0.4

>  <PUBCHEM_CONFORMER_DIVERSEORDER>  (1) 
1
2

>  <PUBCHEM_MMFF94_PARTIAL_CHARGES>  (1) 
12
1 0.44
19 0.15
2 0.11
20 0.15
21 0.15
3 -0.57
4 -0.08
5 -0.08
6 -0.08
7 -0.3
8 0.04
9 0.08

>  <PUBCHEM_EFFECTIVE_ROTOR_COUNT>  (1) 
1

>  <PUBCHEM_PHARMACOPHORE_FEATURES>  (1) 
2
3 2 3 8 cation
5 2 3 7 8 9 rings

>  <PUBCHEM_HEAVY_ATOM_COUNT>  (1) 
9

>  <PUBCHEM_ATOM_DEF_STEREO_COUNT>  (1) 
0

>  <PUBCHEM_ATOM_UDEF_STEREO_COUNT>  (1) 
0

>  <PUBCHEM_BOND_DEF_STEREO_COUNT>  (1) 
0

>  <PUBCHEM_BOND_UDEF_STEREO_COUNT>  (1) 
0

>  <PUBCHEM_ISOTOPIC_ATOM_COUNT>  (1) 
0

>  <PUBCHEM_COMPONENT_COUNT>  (1) 
1

>  <PUBCHEM_CACTVS_TAUTO_COUNT>  (1) 
1

>  <PUBCHEM_CONFORMER_ID>  (1) 
000070FD00000001

>  <PUBCHEM_MMFF94_ENERGY>  (1) 
5.2877

>  <PUBCHEM_FEATURE_SELFOVERLAP>  (1) 
10.148

>  <PUBCHEM_SHAPE_FINGERPRINT>  (1) 
12423570 1 17181068442291338093
12897270 3 18116422820689186511
12932764 1 18040720251242358042
15310529 11 17023199175300265898
16945 1 18338516314094275204
20082192 1 18335415776955379657
20653085 51 18041551434878240829
23552423 10 18260831522508794158
24536 1 18131066021958289283
29004967 10 17895485747397155592
3248919 1 18131628967827733406
369184 2 18259981578592873827
5084963 1 18262798595981399810
8030462 33 17847057783347459540

>  <PUBCHEM_SHAPE_MULTIPOLES>  (1) 
193.47
3.73
1.5
1.16
1.28
0.41
0.01
0.06
0
-0.45
-0.01
-1
-0.46
0

>  <PUBCHEM_SHAPE_SELFOVERLAP>  (1) 
367.689

>  <PUBCHEM_SHAPE_VOLUME>  (1) 
121.8

>  <PUBCHEM_COORDINATE_TYPE>  (1) 
2
5
10

$$$$
