28938
     RDKit          3D

 19 21  0  0  0  0  0  0  0  0999 V2000
    1.3606    0.2887    1.3517 O   0  0  0  0  0  0  0  0  0  0  0  0
   -2.1298   -1.6593    0.1760 O   0  0  0  0  0  0  0  0  0  0  0  0
   -0.0654   -2.5888   -0.1138 O   0  0  0  0  0  0  0  0  0  0  0  0
    3.3239    0.2499    0.1347 N   0  0  0  0  0  0  0  0  0  0  0  0
    5.6007    0.2861    0.7298 C   0  0  0  0  0  0  0  0  0  0  0  0
    5.4787    0.5867   -0.7589 C   0  0  0  0  0  0  0  0  0  0  0  0
    4.2012    0.5771    1.2490 C   0  0  0  0  0  0  0  0  0  0  0  0
    4.0861    0.0737   -1.0976 C   0  0  0  0  0  0  0  0  0  0  0  0
    1.9540    0.1315    0.2836 C   0  0  0  0  0  0  0  0  0  0  0  0
    1.1904   -0.2052   -0.9721 C   0  0  0  0  0  0  0  0  0  0  0  0
   -0.2604   -0.2732   -0.6028 C   0  0  0  0  0  0  0  0  0  0  0  0
   -1.0640    0.7974   -0.6551 C   0  0  0  0  0  0  0  0  0  0  0  0
   -2.4669    0.6998   -0.2899 C   0  0  0  0  0  0  0  0  0  0  0  0
   -0.7825   -1.5950   -0.1687 C   0  0  0  0  0  0  0  0  0  0  0  0
   -2.9687   -0.5304    0.1189 C   0  0  0  0  0  0  0  0  0  0  0  0
   -3.3283    1.7985   -0.3345 C   0  0  0  0  0  0  0  0  0  0  0  0
   -4.3035   -0.6942    0.4838 C   0  0  0  0  0  0  0  0  0  0  0  0
   -4.6700    1.6503    0.0288 C   0  0  0  0  0  0  0  0  0  0  0  0
   -5.1562    0.4064    0.4371 C   0  0  0  0  0  0  0  0  0  0  0  0
  1  9  2  0
  2 14  1  0
  2 15  1  0
  3 14  2  0
  4  7  1  0
  4  8  1  0
  4  9  1  0
  5  6  1  0
  5  7  1  0
  6  8  1  0
  9 10  1  0
 10 11  1  0
 11 12  2  0
 11 14  1  0
 12 13  1  0
 13 15  2  0
 13 16  1  0
 15 17  1  0
 16 18  2  0
 17 19  2  0
 18 19  1  0
M  END
>  <PUBCHEM_COMPOUND_CID>  (1) 
28938

>  <PUBCHEM_CONFORMER_RMSD>  (1) 
0.6

>  <PUBCHEM_CONFORMER_DIVERSEORDER>  (1) 
2
11
10
16
12
21
20
22
19
23
4
9
8
7
6
17
13
24
1
15
5
14
3
18

>  <PUBCHEM_MMFF94_PARTIAL_CHARGES>  (1) 
22
1 -0.57
10 0.2
11 -0.12
12 -0.18
13 0.03
14 0.71
15 0.08
16 -0.15
17 -0.15
18 -0.15
19 -0.15
2 -0.23
3 -0.57
30 0.15
31 0.15
32 0.15
33 0.15
34 0.15
4 -0.66
7 0.3
8 0.3
9 0.57

>  <PUBCHEM_EFFECTIVE_ROTOR_COUNT>  (1) 
4

>  <PUBCHEM_PHARMACOPHORE_FEATURES>  (1) 
5
1 1 acceptor
1 3 acceptor
5 4 5 6 7 8 rings
6 13 15 16 17 18 19 rings
6 2 11 12 13 14 15 rings

>  <PUBCHEM_HEAVY_ATOM_COUNT>  (1) 
19

>  <PUBCHEM_ATOM_DEF_STEREO_COUNT>  (1) 
0

>  <PUBCHEM_ATOM_UDEF_STEREO_COUNT>  (1) 
0

>  <PUBCHEM_BOND_DEF_STEREO_COUNT>  (1) 
0

>  <PUBCHEM_BOND_UDEF_STEREO_COUNT>  (1) 
0

>  <PUBCHEM_ISOTOPIC_ATOM_COUNT>  (1) 
0

>  <PUBCHEM_COMPONENT_COUNT>  (1) 
1

>  <PUBCHEM_CACTVS_TAUTO_COUNT>  (1) 
1

>  <PUBCHEM_CONFORMER_ID>  (1) 
0000710A00000002

>  <PUBCHEM_MMFF94_ENERGY>  (1) 
50.2705

>  <PUBCHEM_FEATURE_SELFOVERLAP>  (1) 
25.399

>  <PUBCHEM_SHAPE_FINGERPRINT>  (1) 
11089746 13 14333406766503565042
12107183 9 16664844017862065008
12119455 92 17275103933474818783
12236239 1 17458346355400980628
12251169 10 18113337518184268509
12390115 104 18199480878656285553
12403259 415 17988643029427262704
12596602 18 17095245842836248889
12916748 109 18341898476275559992
12969540 114 17418084404012819260
13140716 1 18119541070716205651
13288520 33 9367344838581133521
13533116 47 17846220995634486926
13540713 4 18045512907186474703
13544592 145 18201449056099042870
13544653 18 13118001084735198159
13740256 8 9078819797613530365
14251764 75 16981263630541646513
14341114 328 17240484701751759904
14573314 32 18201727223555043244
14848160 23 11386365950296607224
15042514 8 18192436488003838827
15209294 21 18410009918812481491
15375358 24 17775002406076944462
17980427 23 17822017501895708677
1813 80 16008752360198740294
18186145 218 17417805153897596522
19784866 170 18335143055570437045
200 152 14273731863099760781
20645477 56 18342174483658435788
20645477 70 16558478509042500006
21033648 29 18060126648399662928
212916 134 18341600521561997970
22224240 67 18411140243115940027
23175994 123 17346606300058457104
23402539 116 18343577456084524837
23559900 14 18271254841870384262
2916195 48 18060129960009273928
293599 30 18413672396139195040
3004659 81 18337677417610349974
314173 85 10953458505293170559
347723 3 13542466457948557799
3545911 37 18272374161111686980
495365 180 17346309385207268374
5104073 3 18191314780205811923
5385378 56 18270127790332304107
542803 24 17822012016927045708
633830 44 17989196053801173972

>  <PUBCHEM_SHAPE_MULTIPOLES>  (1) 
368.42
12.25
1.62
1.03
7.45
0.64
-0.08
-4.33
-1.6
-1.67
0.08
0.99
-0.11
0.33

>  <PUBCHEM_SHAPE_SELFOVERLAP>  (1) 
797.806

>  <PUBCHEM_SHAPE_VOLUME>  (1) 
201.9

>  <PUBCHEM_COORDINATE_TYPE>  (1) 
2
5
10

$$$$
