28949
     RDKit          3D

 16 16  0  0  0  0  0  0  0  0999 V2000
    2.2771   -2.1005   -1.1230 O   0  0  0  0  0  0  0  0  0  0  0  0
   -3.4003    0.1274    0.2189 N   0  0  0  0  0  0  0  0  0  0  0  0
    0.2094   -0.6103   -0.1474 N   0  0  0  0  0  0  0  0  0  0  0  0
   -2.2074   -0.6642   -0.0544 C   0  0  0  0  0  0  0  0  0  0  0  0
   -0.9565    0.1915    0.0984 C   0  0  0  0  0  0  0  0  0  0  0  0
   -4.6040   -0.6992    0.1114 C   0  0  0  0  0  0  0  0  0  0  0  0
   -3.4843    1.2670   -0.6966 C   0  0  0  0  0  0  0  0  0  0  0  0
   -4.5387   -1.8892    1.0536 C   0  0  0  0  0  0  0  0  0  0  0  0
   -4.6879    2.1383   -0.3797 C   0  0  0  0  0  0  0  0  0  0  0  0
    1.4856   -0.1097   -0.1091 C   0  0  0  0  0  0  0  0  0  0  0  0
    2.5409   -1.1259   -0.4178 C   0  0  0  0  0  0  0  0  0  0  0  0
    1.7348    1.1817    0.1646 C   0  0  0  0  0  0  0  0  0  0  0  0
    3.8776   -1.0546    0.2211 C   0  0  0  0  0  0  0  0  0  0  0  0
    2.9810    1.9016    0.1536 C   0  0  0  0  0  0  0  0  0  0  0  0
    4.5636    0.0372    0.5699 C   0  0  0  0  0  0  0  0  0  0  0  0
    4.2089    1.4090    0.3366 C   0  0  0  0  0  0  0  0  0  0  0  0
  1 11  2  0
  2  4  1  0
  2  6  1  0
  2  7  1  0
  3  5  1  0
  3 10  1  0
  4  5  1  0
  6  8  1  0
  7  9  1  0
 10 11  1  0
 10 12  2  0
 11 13  1  0
 12 14  1  0
 13 15  2  0
 14 16  2  0
 15 16  1  0
M  END
>  <PUBCHEM_COMPOUND_CID>  (1) 
28949

>  <PUBCHEM_CONFORMER_RMSD>  (1) 
0.8

>  <PUBCHEM_CONFORMER_DIVERSEORDER>  (1) 
1
37
59
3
20
42
46
39
49
27
14
61
41
9
60
28
40
48
2
56
47
36
52
53
51
23
15
34
26
35
4
12
43
17
38
58
10
25
8
45
29
18
16
50
31
33
44
21
24
57
54
5
11
6
22
55
19
7
13
32
30

>  <PUBCHEM_MMFF94_PARTIAL_CHARGES>  (1) 
20
1 -0.57
10 0.11
11 0.54
12 -0.15
13 -0.14
14 -0.15
15 -0.15
16 -0.15
2 -0.81
25 0.4
3 -0.87
32 0.15
33 0.15
34 0.15
35 0.15
36 0.15
4 0.27
5 0.37
6 0.27
7 0.27

>  <PUBCHEM_EFFECTIVE_ROTOR_COUNT>  (1) 
6

>  <PUBCHEM_PHARMACOPHORE_FEATURES>  (1) 
5
1 1 acceptor
1 2 cation
1 3 cation
1 3 donor
7 10 11 12 13 14 15 16 rings

>  <PUBCHEM_HEAVY_ATOM_COUNT>  (1) 
16

>  <PUBCHEM_ATOM_DEF_STEREO_COUNT>  (1) 
0

>  <PUBCHEM_ATOM_UDEF_STEREO_COUNT>  (1) 
0

>  <PUBCHEM_BOND_DEF_STEREO_COUNT>  (1) 
0

>  <PUBCHEM_BOND_UDEF_STEREO_COUNT>  (1) 
0

>  <PUBCHEM_ISOTOPIC_ATOM_COUNT>  (1) 
0

>  <PUBCHEM_COMPONENT_COUNT>  (1) 
1

>  <PUBCHEM_CACTVS_TAUTO_COUNT>  (1) 
1

>  <PUBCHEM_CONFORMER_ID>  (1) 
0000711500000001

>  <PUBCHEM_MMFF94_ENERGY>  (1) 
43.5971

>  <PUBCHEM_FEATURE_SELFOVERLAP>  (1) 
25.371

>  <PUBCHEM_SHAPE_FINGERPRINT>  (1) 
10608611 8 18410291406679602733
10912923 1 17022904562066024056
11405975 8 18336265644004747193
11471102 20 18343861100552508620
12507560 40 18410576193144449581
13167823 11 18261106400357807155
13675066 3 18412542123929258393
15196674 1 18409728460715381897
15219456 202 18411135831430289277
15375358 24 18411135822745545390
17844677 252 18335426785162579865
18186145 218 18270974461450872491
19433438 28 18334574667930001785
1986462 14 18040998427921588231
20645477 56 18260831437258275365
20645477 70 18060137583396876479
21065198 57 18408322164126731979
21065199 12 18408886252251761603
21065201 7 17894628132564383435
21637258 2 15864615199586753754
22943178 12 18409731742513215495
23402539 116 18186793682101000516
23402655 69 18273492360284904516
23557571 272 18333168375763484741
23559900 14 18268708312278344202
3545911 37 18411702067334619069
42 15 18260547835449612451
4214541 1 18408039602702786465
5104073 3 18409446972969600433
5281201 14 18412549794688153725
77779 3 18408322194149357041
9709674 26 18410860962213902783

>  <PUBCHEM_SHAPE_MULTIPOLES>  (1) 
313.44
11.65
2.15
0.82
6.12
0.28
0.02
0.93
-1.52
0.81
0.12
0.1
-0.22
1.5

>  <PUBCHEM_SHAPE_SELFOVERLAP>  (1) 
621.891

>  <PUBCHEM_SHAPE_VOLUME>  (1) 
184.6

>  <PUBCHEM_COORDINATE_TYPE>  (1) 
2
5
10

$$$$
