28964
     RDKit          3D

 16 17  0  0  0  0  0  0  0  0999 V2000
    2.6473    2.3096   -0.1340 O   0  0  0  0  0  0  0  0  0  0  0  0
    2.6483   -2.3088    0.1335 O   0  0  0  0  0  0  0  0  0  0  0  0
    0.6199   -1.1978    0.0697 N   0  0  0  0  0  0  0  0  0  0  0  0
    0.6194    1.1977   -0.0691 N   0  0  0  0  0  0  0  0  0  0  0  0
    2.6977    0.0004    0.0002 N   0  0  0  0  0  0  0  0  0  0  0  0
   -1.4229   -0.0005    0.0002 C   0  0  0  0  0  0  0  0  0  0  0  0
    0.0240   -0.0002    0.0003 C   0  0  0  0  0  0  0  0  0  0  0  0
   -2.1205    1.0788    0.5428 C   0  0  0  0  0  0  0  0  0  0  0  0
   -2.1204   -1.0796   -0.5427 C   0  0  0  0  0  0  0  0  0  0  0  0
   -3.5154    1.0790    0.5427 C   0  0  0  0  0  0  0  0  0  0  0  0
   -3.5153   -1.0794   -0.5429 C   0  0  0  0  0  0  0  0  0  0  0  0
   -4.2127    0.0000   -0.0002 C   0  0  0  0  0  0  0  0  0  0  0  0
    1.9600    1.1205   -0.0648 C   0  0  0  0  0  0  0  0  0  0  0  0
    1.9604   -1.1200    0.0650 C   0  0  0  0  0  0  0  0  0  0  0  0
    1.8644    3.4927   -0.2027 C   0  0  0  0  0  0  0  0  0  0  0  0
    1.8659   -3.4924    0.2020 C   0  0  0  0  0  0  0  0  0  0  0  0
  1 13  1  0
  1 15  1  0
  2 14  1  0
  2 16  1  0
  3  7  2  0
  3 14  1  0
  4  7  1  0
  4 13  2  0
  5 13  1  0
  5 14  2  0
  6  7  1  0
  6  8  2  0
  6  9  1  0
  8 10  1  0
  9 11  2  0
 10 12  2  0
 11 12  1  0
M  END
>  <PUBCHEM_COMPOUND_CID>  (1) 
28964

>  <PUBCHEM_CONFORMER_RMSD>  (1) 
0.6

>  <PUBCHEM_CONFORMER_DIVERSEORDER>  (1) 
1
2
3

>  <PUBCHEM_MMFF94_PARTIAL_CHARGES>  (1) 
20
1 -0.36
10 -0.15
11 -0.15
12 -0.15
13 0.7
14 0.7
15 0.28
16 0.28
17 0.15
18 0.15
19 0.15
2 -0.36
20 0.15
21 0.15
3 -0.62
4 -0.62
5 -0.62
7 0.62
8 -0.15
9 -0.15

>  <PUBCHEM_EFFECTIVE_ROTOR_COUNT>  (1) 
3

>  <PUBCHEM_PHARMACOPHORE_FEATURES>  (1) 
5
3 3 4 7 cation
3 3 5 14 cation
3 4 5 13 cation
6 3 4 5 7 13 14 rings
6 6 8 9 10 11 12 rings

>  <PUBCHEM_HEAVY_ATOM_COUNT>  (1) 
16

>  <PUBCHEM_ATOM_DEF_STEREO_COUNT>  (1) 
0

>  <PUBCHEM_ATOM_UDEF_STEREO_COUNT>  (1) 
0

>  <PUBCHEM_BOND_DEF_STEREO_COUNT>  (1) 
0

>  <PUBCHEM_BOND_UDEF_STEREO_COUNT>  (1) 
0

>  <PUBCHEM_ISOTOPIC_ATOM_COUNT>  (1) 
0

>  <PUBCHEM_COMPONENT_COUNT>  (1) 
1

>  <PUBCHEM_CACTVS_TAUTO_COUNT>  (1) 
1

>  <PUBCHEM_CONFORMER_ID>  (1) 
0000712400000001

>  <PUBCHEM_MMFF94_ENERGY>  (1) 
51.8615

>  <PUBCHEM_FEATURE_SELFOVERLAP>  (1) 
28.155

>  <PUBCHEM_SHAPE_FINGERPRINT>  (1) 
10608611 8 18335135401965414173
10967382 1 18410856568229724171
10980938 120 18409730676950018744
12553582 1 18121779422244196422
13380535 76 18190738824468938522
14144814 61 18341332206449387091
14178342 30 18269537446871669234
15279307 12 18272087266028966071
15442244 35 18196655099053998937
15536298 74 18272652350633562370
15669948 3 17631729491115779767
16945 1 18409449184756236294
18186145 218 18339927116282973461
201361 129 18340493356086267809
20510252 161 17548425155223686929
20559304 39 18412825763580029280
20645477 70 18335129891612057215
20671657 1 18411986874973498724
20871998 22 18051973624009660646
21499 59 18120088643879936573
21501502 16 18343584045060040293
21524375 3 18055636363413587012
221490 88 18336274508532857603
22445834 79 18412827958582779931
2255824 54 18410295826190329342
22854114 111 18411140272489958609
23419403 2 13847785417980938610
23463225 33 18270117903396566831
23552423 10 18412543232215469519
23558518 356 17251737362266348888
23559900 14 18411973655190911611
23598291 2 18200888270233943477
2748010 2 17977933593257885636
3071541 12 18410859888566582596
3091708 16 9504788181467395274
352729 6 17761775470004567972
4175511 71 18123197809365114387
474 4 18264207087551727473
54173680 148 17400641524285538456
57096353 35 18127969922190647293
603831 33 17915447501490544183
6138700 20 18411709773228238828
6992083 37 17838911334288514561
7097593 13 18269557152445055291
7364860 26 18411419514067519744
74978 22 18411700950627103055
7832392 63 18268431235205583481
81228 2 17469883282040423474
84936 182 18200593734188398296
9709674 26 18410014351367151627
9981440 41 18049716613994347416

>  <PUBCHEM_SHAPE_MULTIPOLES>  (1) 
302.59
6.29
3.4
0.68
5.04
0
0
0
0
-4.41
0
0.24
0
-0.76

>  <PUBCHEM_SHAPE_SELFOVERLAP>  (1) 
647.054

>  <PUBCHEM_SHAPE_VOLUME>  (1) 
164.7

>  <PUBCHEM_COORDINATE_TYPE>  (1) 
2
5
10

$$$$
