28971
     RDKit          3D

  8  8  0  0  1  0  0  0  0  0999 V2000
    2.7166    0.9840    0.1164 N   0  0  0  0  0  0  0  0  0  0  0  0
   -2.2206    1.5655   -0.0571 N   0  0  0  0  0  0  0  0  0  0  0  0
    0.5256   -0.0530    0.3543 C   0  0  0  0  0  0  0  0  0  0  0  0
   -0.7967   -0.3820   -0.3697 C   0  0  0  0  0  0  0  0  0  0  0  0
    0.9833   -1.4849    0.0058 C   0  0  0  0  0  0  0  0  0  0  0  0
   -0.5108   -1.8652   -0.0554 C   0  0  0  0  0  0  0  0  0  0  0  0
    1.3387    1.0519   -0.2803 C   0  0  0  0  0  0  0  0  0  0  0  0
   -2.0360    0.1837    0.2860 C   0  0  0  0  0  0  0  0  0  0  0  0
  1  7  1  0
  2  8  1  0
  3  4  1  0
  3  5  1  0
  3  7  1  0
  4  6  1  0
  4  8  1  0
  5  6  1  0
M  END
>  <PUBCHEM_COMPOUND_CID>  (1) 
28971

>  <PUBCHEM_CONFORMER_RMSD>  (1) 
0.6

>  <PUBCHEM_CONFORMER_DIVERSEORDER>  (1) 
1
8
7
2
3
4
6
5

>  <PUBCHEM_MMFF94_PARTIAL_CHARGES>  (1) 
8
1 -0.99
19 0.36
2 -0.99
20 0.36
21 0.36
22 0.36
7 0.27
8 0.27

>  <PUBCHEM_EFFECTIVE_ROTOR_COUNT>  (1) 
2.8

>  <PUBCHEM_PHARMACOPHORE_FEATURES>  (1) 
5
1 1 cation
1 1 donor
1 2 cation
1 2 donor
4 3 4 5 6 rings

>  <PUBCHEM_HEAVY_ATOM_COUNT>  (1) 
8

>  <PUBCHEM_ATOM_DEF_STEREO_COUNT>  (1) 
0

>  <PUBCHEM_ATOM_UDEF_STEREO_COUNT>  (1) 
2

>  <PUBCHEM_BOND_DEF_STEREO_COUNT>  (1) 
0

>  <PUBCHEM_BOND_UDEF_STEREO_COUNT>  (1) 
0

>  <PUBCHEM_ISOTOPIC_ATOM_COUNT>  (1) 
0

>  <PUBCHEM_COMPONENT_COUNT>  (1) 
1

>  <PUBCHEM_CACTVS_TAUTO_COUNT>  (1) 
1

>  <PUBCHEM_CONFORMER_ID>  (1) 
0000712B00000001

>  <PUBCHEM_MMFF94_ENERGY>  (1) 
13.8122

>  <PUBCHEM_FEATURE_SELFOVERLAP>  (1) 
25.371

>  <PUBCHEM_SHAPE_FINGERPRINT>  (1) 
16714656 1 18051416463260301455
20096714 4 18411419492508397679
21040471 1 18411138056202132498
23552449 1 17763743591138269348
29004967 10 17760373193020718715
5084963 1 18201443639480312665

>  <PUBCHEM_SHAPE_MULTIPOLES>  (1) 
154.67
2.91
1.86
0.65
0.39
0.43
0
-1.72
-0.13
-0.13
0.07
-0.01
0.02
-0.03

>  <PUBCHEM_SHAPE_SELFOVERLAP>  (1) 
296.036

>  <PUBCHEM_SHAPE_VOLUME>  (1) 
96.6

>  <PUBCHEM_COORDINATE_TYPE>  (1) 
2
5
10

$$$$
