28996
     RDKit          3D

 18 20  0  0  0  0  0  0  0  0999 V2000
    4.5582    1.5948   -0.2082 O   0  0  0  0  0  0  0  0  0  0  0  0
    3.6052   -0.5431    0.0745 N   0  0  0  0  0  0  0  0  0  0  0  0
   -1.0077   -2.2632    0.3553 C   0  0  0  0  0  0  0  0  0  0  0  0
   -2.2951   -2.0515   -0.4415 C   0  0  0  0  0  0  0  0  0  0  0  0
   -0.0479   -1.1128    0.1675 C   0  0  0  0  0  0  0  0  0  0  0  0
   -0.5519    0.2016    0.0226 C   0  0  0  0  0  0  0  0  0  0  0  0
   -2.8817   -0.6835   -0.1877 C   0  0  0  0  0  0  0  0  0  0  0  0
   -2.0196    0.4190    0.0224 C   0  0  0  0  0  0  0  0  0  0  0  0
    1.3339   -1.3522    0.1959 C   0  0  0  0  0  0  0  0  0  0  0  0
    0.3796    1.2439   -0.1303 C   0  0  0  0  0  0  0  0  0  0  0  0
   -4.2734   -0.5099   -0.2199 C   0  0  0  0  0  0  0  0  0  0  0  0
   -2.6103    1.6770    0.2365 C   0  0  0  0  0  0  0  0  0  0  0  0
    2.2319   -0.2994    0.0506 C   0  0  0  0  0  0  0  0  0  0  0  0
    1.7554    0.9958   -0.1164 C   0  0  0  0  0  0  0  0  0  0  0  0
   -4.8290    0.7488   -0.0139 C   0  0  0  0  0  0  0  0  0  0  0  0
   -3.9988    1.8395    0.2187 C   0  0  0  0  0  0  0  0  0  0  0  0
    4.6507    0.3814   -0.0529 C   0  0  0  0  0  0  0  0  0  0  0  0
    6.0006   -0.2862    0.0267 C   0  0  0  0  0  0  0  0  0  0  0  0
  1 17  2  0
  2 13  1  0
  2 17  1  0
  3  4  1  0
  3  5  1  0
  4  7  1  0
  5  6  2  0
  5  9  1  0
  6  8  1  0
  6 10  1  0
  7  8  2  0
  7 11  1  0
  8 12  1  0
  9 13  2  0
 10 14  2  0
 11 15  2  0
 12 16  2  0
 13 14  1  0
 15 16  1  0
 17 18  1  0
M  END
>  <PUBCHEM_COMPOUND_CID>  (1) 
28996

>  <PUBCHEM_CONFORMER_RMSD>  (1) 
0.6

>  <PUBCHEM_CONFORMER_DIVERSEORDER>  (1) 
1
3
2
4

>  <PUBCHEM_MMFF94_PARTIAL_CHARGES>  (1) 
24
1 -0.57
10 -0.15
11 -0.15
12 -0.15
13 0.12
14 -0.15
15 -0.15
16 -0.15
17 0.57
18 0.06
2 -0.55
23 0.15
24 0.15
25 0.15
26 0.15
27 0.15
28 0.15
29 0.15
3 0.14
30 0.37
4 0.14
5 -0.14
7 -0.14
9 -0.15

>  <PUBCHEM_EFFECTIVE_ROTOR_COUNT>  (1) 
2.4

>  <PUBCHEM_PHARMACOPHORE_FEATURES>  (1) 
5
1 1 acceptor
1 2 donor
6 3 4 5 6 7 8 rings
6 5 6 9 10 13 14 rings
6 7 8 11 12 15 16 rings

>  <PUBCHEM_HEAVY_ATOM_COUNT>  (1) 
18

>  <PUBCHEM_ATOM_DEF_STEREO_COUNT>  (1) 
0

>  <PUBCHEM_ATOM_UDEF_STEREO_COUNT>  (1) 
0

>  <PUBCHEM_BOND_DEF_STEREO_COUNT>  (1) 
0

>  <PUBCHEM_BOND_UDEF_STEREO_COUNT>  (1) 
0

>  <PUBCHEM_ISOTOPIC_ATOM_COUNT>  (1) 
0

>  <PUBCHEM_COMPONENT_COUNT>  (1) 
1

>  <PUBCHEM_CACTVS_TAUTO_COUNT>  (1) 
2

>  <PUBCHEM_CONFORMER_ID>  (1) 
0000714400000001

>  <PUBCHEM_MMFF94_ENERGY>  (1) 
55.0574

>  <PUBCHEM_FEATURE_SELFOVERLAP>  (1) 
25.416

>  <PUBCHEM_SHAPE_FINGERPRINT>  (1) 
10411042 1 17906733962072681687
10967382 1 18338797810814906171
11401426 45 18411417315070644468
11578080 2 13541094228598239872
12107183 9 17689151210745286584
12236239 1 17967532376636667330
12390115 104 18057902263910905921
12403814 3 17603863390716433029
13140716 1 18194691590657216427
14790565 3 18408891706628787996
15042514 8 18194124238447401027
15196674 1 18410573955139648459
15375358 24 18273500069867148102
15536298 74 18270681952561000542
16945 1 18412541037819691971
17804303 29 18341331188130674793
200 152 17346878957293007907
20300324 65 18202280329686034471
20510252 161 18201159849885819713
20645477 56 18411140225049821205
20645477 70 16845302579662810094
21267235 1 18410299146416482799
23402539 116 18343014501814959245
23402655 69 18270956852448994909
23559900 14 18272368690146414608
2748010 2 17835796774783016883
293599 30 18410856517033176869
3004659 81 18335424539859820846
335352 9 18410011018603678044
34797466 226 17417540227931479092
34934 24 18336261262784813515
350125 39 18410295843771294041
3545911 37 18412827971124602061
4214541 1 18411699893943815868
4340502 62 16805329864330791083
474 4 17531533208290102436
4990 188 18059862744619092732
5104073 3 18408885144039410794
559249 180 18410007707273978970
69090 78 18412824689869983655
9709674 26 18342745130114572214

>  <PUBCHEM_SHAPE_MULTIPOLES>  (1) 
359.58
10.65
2.04
0.64
10.45
0.4
0
-3.02
0.32
-1.29
-0.06
-0.09
0.04
-0.38

>  <PUBCHEM_SHAPE_SELFOVERLAP>  (1) 
787.215

>  <PUBCHEM_SHAPE_VOLUME>  (1) 
194

>  <PUBCHEM_COORDINATE_TYPE>  (1) 
2
5
10

$$$$
