29006
     RDKit          3D

 19 20  0  0  0  0  0  0  0  0999 V2000
   -2.6067   -1.6728    0.1691 O   0  0  0  0  0  0  0  0  0  0  0  0
   -0.7743   -1.4021   -1.1976 O   0  0  0  0  0  0  0  0  0  0  0  0
    0.5253    0.9223   -0.4929 N   0  0  0  0  0  0  0  0  0  0  0  0
    1.0708    0.6079    0.5901 N   0  0  0  0  0  0  0  0  0  0  0  0
   -1.8572    0.4984   -0.2489 C   0  0  0  0  0  0  0  0  0  0  0  0
   -0.7768    1.3807   -0.2551 C   0  0  0  0  0  0  0  0  0  0  0  0
   -3.1459    0.9757   -0.0096 C   0  0  0  0  0  0  0  0  0  0  0  0
   -0.9852    2.7402   -0.0222 C   0  0  0  0  0  0  0  0  0  0  0  0
   -1.6691   -0.9263   -0.4891 C   0  0  0  0  0  0  0  0  0  0  0  0
   -3.3541    2.3352    0.2233 C   0  0  0  0  0  0  0  0  0  0  0  0
   -2.2738    3.2174    0.2170 C   0  0  0  0  0  0  0  0  0  0  0  0
   -2.5259   -3.0935    0.0120 C   0  0  0  0  0  0  0  0  0  0  0  0
    2.3772    0.1476    0.3519 C   0  0  0  0  0  0  0  0  0  0  0  0
    3.4373    1.0489    0.3514 C   0  0  0  0  0  0  0  0  0  0  0  0
    2.6009   -1.2057    0.1178 C   0  0  0  0  0  0  0  0  0  0  0  0
   -3.6380   -3.7417    0.8088 C   0  0  0  0  0  0  0  0  0  0  0  0
    4.7338    0.5926    0.1143 C   0  0  0  0  0  0  0  0  0  0  0  0
    3.8976   -1.6619   -0.1193 C   0  0  0  0  0  0  0  0  0  0  0  0
    4.9641   -0.7627   -0.1210 C   0  0  0  0  0  0  0  0  0  0  0  0
  1  9  1  0
  1 12  1  0
  2  9  2  0
  3  4  2  0
  3  6  1  0
  4 13  1  0
  5  6  2  0
  5  7  1  0
  5  9  1  0
  6  8  1  0
  7 10  2  0
  8 11  2  0
 10 11  1  0
 12 16  1  0
 13 14  2  0
 13 15  1  0
 14 17  1  0
 15 18  2  0
 17 19  2  0
 18 19  1  0
M  END
>  <PUBCHEM_COMPOUND_CID>  (1) 
29006

>  <PUBCHEM_CONFORMER_RMSD>  (1) 
0.8

>  <PUBCHEM_CONFORMER_DIVERSEORDER>  (1) 
1
6
13
12
8
15
7
11
2
3
9
10
5
4
14

>  <PUBCHEM_MMFF94_PARTIAL_CHARGES>  (1) 
27
1 -0.43
10 -0.15
11 -0.15
12 0.28
13 0.18
14 -0.15
15 -0.15
17 -0.15
18 -0.15
19 -0.15
2 -0.57
20 0.15
21 0.15
22 0.15
23 0.15
26 0.15
27 0.15
3 -0.18
31 0.15
32 0.15
33 0.15
4 -0.18
5 0.09
6 0.18
7 -0.15
8 -0.15
9 0.63

>  <PUBCHEM_EFFECTIVE_ROTOR_COUNT>  (1) 
5

>  <PUBCHEM_PHARMACOPHORE_FEATURES>  (1) 
3
1 2 acceptor
6 13 14 15 17 18 19 rings
6 5 6 7 8 10 11 rings

>  <PUBCHEM_HEAVY_ATOM_COUNT>  (1) 
19

>  <PUBCHEM_ATOM_DEF_STEREO_COUNT>  (1) 
0

>  <PUBCHEM_ATOM_UDEF_STEREO_COUNT>  (1) 
0

>  <PUBCHEM_BOND_DEF_STEREO_COUNT>  (1) 
0

>  <PUBCHEM_BOND_UDEF_STEREO_COUNT>  (1) 
0

>  <PUBCHEM_ISOTOPIC_ATOM_COUNT>  (1) 
0

>  <PUBCHEM_COMPONENT_COUNT>  (1) 
1

>  <PUBCHEM_CACTVS_TAUTO_COUNT>  (1) 
1

>  <PUBCHEM_CONFORMER_ID>  (1) 
0000714E00000001

>  <PUBCHEM_MMFF94_ENERGY>  (1) 
51.3453

>  <PUBCHEM_FEATURE_SELFOVERLAP>  (1) 
15.223

>  <PUBCHEM_SHAPE_FINGERPRINT>  (1) 
10616163 171 18411982459969021798
11265709 11 18193841663847799067
11680986 33 18053086600634196745
12173636 292 18194957440105625972
12500047 106 18339918195767748708
12553582 1 17980195614804046374
12788726 201 18334847351346340059
13140716 1 18341056336463318897
138480 1 16609133812329112659
14178342 30 18336531773258403650
15042514 8 18410017650107094249
15422964 175 18049996989712435747
17492 89 18409730699137167586
17859628 97 17615687336745650938
19591789 44 17977666407463457715
20510252 161 18128534869061722625
20602899 9 15625642960821974877
21033648 29 18194104227683443000
21041028 32 18193841676537424743
21065198 57 18339922624211106480
21665056 4 18193833739284634039
221490 88 18341614832978415018
22224240 67 18199474264813065961
23402539 116 18271515426047273045
23557571 272 18343308071714941980
23559900 14 18199744757515448562
3091708 16 9130471551177714161
3421961 26 17761777664780849035
4214541 1 18340484457336127568
43471831 8 17833548995005992705
5104073 3 18341606023921331490
5309563 4 18122345954184810779
53777708 50 18334862719002854316
54173680 148 18410574006953497645
58051976 100 18411982434352081980
58807428 26 17979925904233207529
69090 78 18268705017837942092
77779 3 18340205172850838112
81228 2 18196063690774199609
9709674 26 18271526395013795918

>  <PUBCHEM_SHAPE_MULTIPOLES>  (1) 
369.31
8.77
4.02
0.76
9.99
1.95
0.03
2.39
-0.83
-6.5
-0.65
-0.13
0.17
0.51

>  <PUBCHEM_SHAPE_SELFOVERLAP>  (1) 
787.228

>  <PUBCHEM_SHAPE_VOLUME>  (1) 
205.7

>  <PUBCHEM_COORDINATE_TYPE>  (1) 
2
5
10

$$$$
