2900
     RDKit          3D

 20 21  0  0  1  0  0  0  0  0999 V2000
   -0.6396    2.4644    0.4336 O   0  0  0  0  0  0  0  0  0  0  0  0
   -3.5877    1.9160   -0.4427 O   0  0  0  0  0  0  0  0  0  0  0  0
    4.6568   -0.3668   -1.5810 O   0  0  0  0  0  0  0  0  0  0  0  0
    2.2096   -1.7550    2.0655 O   0  0  0  0  0  0  0  0  0  0  0  0
    3.4160   -1.0328    0.2414 N   0  0  0  0  0  0  0  0  0  0  0  0
   -1.5674    0.7284   -0.9362 C   0  0  0  0  0  0  0  0  0  0  0  0
   -1.7582   -1.7792   -0.4484 C   0  0  0  0  0  0  0  0  0  0  0  0
   -1.4248   -0.6948   -1.4830 C   0  0  0  0  0  0  0  0  0  0  0  0
   -0.4425    1.1168    0.0177 C   0  0  0  0  0  0  0  0  0  0  0  0
   -3.3284   -0.1780    0.7449 C   0  0  0  0  0  0  0  0  0  0  0  0
   -3.1724   -1.5615    0.1075 C   0  0  0  0  0  0  0  0  0  0  0  0
   -2.9154    0.9019   -0.2518 C   0  0  0  0  0  0  0  0  0  0  0  0
    0.9226    0.9935   -0.6604 C   0  0  0  0  0  0  0  0  0  0  0  0
    2.0680    1.4095    0.2665 C   0  0  0  0  0  0  0  0  0  0  0  0
   -1.6362   -3.1691   -1.0728 C   0  0  0  0  0  0  0  0  0  0  0  0
   -4.7606    0.0276    1.2320 C   0  0  0  0  0  0  0  0  0  0  0  0
    3.4248    1.3308   -0.4261 C   0  0  0  0  0  0  0  0  0  0  0  0
    2.1015    0.5801    1.5462 C   0  0  0  0  0  0  0  0  0  0  0  0
    3.8813   -0.0891   -0.6665 C   0  0  0  0  0  0  0  0  0  0  0  0
    2.5526   -0.8428    1.3137 C   0  0  0  0  0  0  0  0  0  0  0  0
  1  9  1  0
  2 12  2  0
  3 19  2  0
  4 20  2  0
  5 19  1  0
  5 20  1  0
  6  8  1  0
  6  9  1  0
  6 12  1  0
  7  8  1  0
  7 11  1  0
  7 15  1  0
  9 13  1  0
 10 11  1  0
 10 12  1  0
 10 16  1  0
 13 14  1  0
 14 17  1  0
 14 18  1  0
 17 19  1  0
 18 20  1  0
M  END
>  <PUBCHEM_COMPOUND_CID>  (1) 
2900

>  <PUBCHEM_CONFORMER_RMSD>  (1) 
0.6

>  <PUBCHEM_CONFORMER_DIVERSEORDER>  (1) 
2
39
55
128
51
142
143
73
5
112
44
30
63
121
116
209
65
129
95
20
18
153
180
22
205
135
109
50
103
185
8
4
144
11
32
150
203
133
64
54
175
186
23
58
200
198
41
17
222
156
149
167
211
99
216
214
191
53
102
16
190
194
107
96
19
131
66
115
21
174
45
75
223
14
83
28
47
187
31
29
219
87
94
62
123
208
74
12
207
140
122
217
91
67
40
197
24
117
183
36
151
220
179
81
145
106
1
139
15
161
130
134
89
43
60
210
105
48
152
111
114
52
119
104
113
6
163
34
49
146
61
35
77
162
101
76
3
212
68
215
57
9
27
37
177
171
13
201
42
169
82
173
100
199
85
46
10
178
218
172
118
90
124
157
86
25
170
92
26
137
71
93
164
181
147
126
72
79
88
155
56
108
70
202
69
166
189
78
192
127
204
84
136
98
160
221
80
132
193
33
196
7
38
97
213
138
182
188
148
158
168
59
206
176
165
120
184
195
141
154
159
110
125

>  <PUBCHEM_MMFF94_PARTIAL_CHARGES>  (1) 
15
1 -0.68
10 0.06
12 0.45
17 0.06
18 0.06
19 0.57
2 -0.57
20 0.57
3 -0.57
4 -0.57
42 0.4
43 0.37
5 -0.49
6 0.06
9 0.28

>  <PUBCHEM_EFFECTIVE_ROTOR_COUNT>  (1) 
4.8

>  <PUBCHEM_PHARMACOPHORE_FEATURES>  (1) 
8
1 1 acceptor
1 1 donor
1 2 acceptor
1 3 acceptor
1 4 acceptor
1 5 donor
6 5 14 17 18 19 20 rings
6 6 7 8 10 11 12 rings

>  <PUBCHEM_HEAVY_ATOM_COUNT>  (1) 
20

>  <PUBCHEM_ATOM_DEF_STEREO_COUNT>  (1) 
0

>  <PUBCHEM_ATOM_UDEF_STEREO_COUNT>  (1) 
4

>  <PUBCHEM_BOND_DEF_STEREO_COUNT>  (1) 
0

>  <PUBCHEM_BOND_UDEF_STEREO_COUNT>  (1) 
0

>  <PUBCHEM_ISOTOPIC_ATOM_COUNT>  (1) 
0

>  <PUBCHEM_COMPONENT_COUNT>  (1) 
1

>  <PUBCHEM_CACTVS_TAUTO_COUNT>  (1) 
6

>  <PUBCHEM_CONFORMER_ID>  (1) 
00000B5400000002

>  <PUBCHEM_MMFF94_ENERGY>  (1) 
39.4774

>  <PUBCHEM_FEATURE_SELFOVERLAP>  (1) 
40.598

>  <PUBCHEM_SHAPE_FINGERPRINT>  (1) 
10759866 29 18041564633328506902
11552529 35 17201921655148601023
11759241 127 14273745070166601734
12166972 35 11312056530358503954
12553582 1 18409158926671768512
12596599 1 18270396229888183458
12633257 1 18202843240478640290
12670546 177 14346086376764009273
12714826 92 18187638111642935901
12760667 363 15553063017841997830
128620 24 14490472001771704498
13224815 77 17749094617422447696
13296908 3 18411410743702467124
13760787 19 18041283183768276221
14178342 30 18053079998630692112
15295992 7 16056885757831378203
15375462 189 18260263061996034448
15537594 2 18187934996693207739
16752209 62 18127962023376894561
17349148 13 17846213423574930567
17804303 29 18272940457039914693
18522851 12 18334286595778126722
20291156 8 18335417993211362152
20442098 301 18338507650918496314
20600515 1 17917448534853853881
20681677 155 18412829096706837408
21618674 57 16558761078539746018
21634736 98 18335424620883983212
21731516 1 18263910206474195255
23493267 7 18341056224456519965
23559900 14 18202845465989280284
2838139 119 14692018973619501961
3323516 105 17822015310966488936
351380 180 13398634913818394929
465052 167 18189631582622943779
58051976 100 18186518821917556757
7097593 13 18197214965405888281
74978 22 18342164609360090061
9971528 1 11599738255146637200

>  <PUBCHEM_SHAPE_MULTIPOLES>  (1) 
383.13
8.28
2.44
1.5
1.46
0.99
-0.39
0.34
-0.44
-1.27
0.33
0.67
0.48
-0.54

>  <PUBCHEM_SHAPE_SELFOVERLAP>  (1) 
785.956

>  <PUBCHEM_SHAPE_VOLUME>  (1) 
218.4

>  <PUBCHEM_COORDINATE_TYPE>  (1) 
2
5
10

$$$$
