29012
     RDKit          3D

  9  9  0  0  0  0  0  0  0  0999 V2000
   -3.7729    0.0001    0.2839 I   0  0  0  0  0  0  0  0  0  0  0  0
    3.1674    0.0003    0.8351 O   0  0  0  0  0  0  0  0  0  0  0  0
    1.0626   -0.0004   -0.2723 C   0  0  0  0  0  0  0  0  0  0  0  0
    2.5441   -0.0001   -0.4434 C   0  0  0  0  0  0  0  0  0  0  0  0
    0.3696   -1.2082   -0.1923 C   0  0  0  0  0  0  0  0  0  0  0  0
    0.3700    1.2078   -0.1926 C   0  0  0  0  0  0  0  0  0  0  0  0
   -1.0162   -1.2078   -0.0327 C   0  0  0  0  0  0  0  0  0  0  0  0
   -1.0157    1.2080   -0.0328 C   0  0  0  0  0  0  0  0  0  0  0  0
   -1.7088    0.0003    0.0471 C   0  0  0  0  0  0  0  0  0  0  0  0
  1  9  1  0
  2  4  1  0
  3  4  1  0
  3  5  2  0
  3  6  1  0
  5  7  1  0
  6  8  2  0
  7  9  2  0
  8  9  1  0
M  END
>  <PUBCHEM_COMPOUND_CID>  (1) 
29012

>  <PUBCHEM_CONFORMER_RMSD>  (1) 
0.4

>  <PUBCHEM_CONFORMER_DIVERSEORDER>  (1) 
1

>  <PUBCHEM_MMFF94_PARTIAL_CHARGES>  (1) 
14
1 -0.08
12 0.15
13 0.15
14 0.15
15 0.15
16 0.4
2 -0.68
3 -0.14
4 0.42
5 -0.15
6 -0.15
7 -0.15
8 -0.15
9 0.08

>  <PUBCHEM_EFFECTIVE_ROTOR_COUNT>  (1) 
1

>  <PUBCHEM_PHARMACOPHORE_FEATURES>  (1) 
4
1 1 hydrophobe
1 2 acceptor
1 2 donor
6 3 5 6 7 8 9 rings

>  <PUBCHEM_HEAVY_ATOM_COUNT>  (1) 
9

>  <PUBCHEM_ATOM_DEF_STEREO_COUNT>  (1) 
0

>  <PUBCHEM_ATOM_UDEF_STEREO_COUNT>  (1) 
0

>  <PUBCHEM_BOND_DEF_STEREO_COUNT>  (1) 
0

>  <PUBCHEM_BOND_UDEF_STEREO_COUNT>  (1) 
0

>  <PUBCHEM_ISOTOPIC_ATOM_COUNT>  (1) 
0

>  <PUBCHEM_COMPONENT_COUNT>  (1) 
1

>  <PUBCHEM_CACTVS_TAUTO_COUNT>  (1) 
1

>  <PUBCHEM_CONFORMER_ID>  (1) 
0000715400000001

>  <PUBCHEM_MMFF94_ENERGY>  (1) 
20.2824

>  <PUBCHEM_FEATURE_SELFOVERLAP>  (1) 
20.297

>  <PUBCHEM_SHAPE_FINGERPRINT>  (1) 
10219947 1 18410016533072666825
10857977 72 18411134749035149225
11062470 55 15913331290757761409
12032990 46 18410304592187048887
14325111 11 18411422795580893429
15310529 11 16660362601455292092
16945 1 18410579491499965357
193761 8 17689438178900681175
21040471 1 18338804390298589428
23235685 24 18411981360272394301
23380061 330 18342457067079600191
23402655 69 18267571413804405845
23552423 10 17827082015002540564
2748010 2 18122067494421789351
29004967 10 18334587827830985953
369184 2 18341322345109380474
5084963 1 18271253728687688524

>  <PUBCHEM_SHAPE_MULTIPOLES>  (1) 
191.28
5.11
1.27
0.74
1.62
0
0.06
0
0.87
0.15
-0.07
-0.11
0
0

>  <PUBCHEM_SHAPE_SELFOVERLAP>  (1) 
370.862

>  <PUBCHEM_SHAPE_VOLUME>  (1) 
119.5

>  <PUBCHEM_COORDINATE_TYPE>  (1) 
2
5
10

$$$$
