29024
     RDKit          3D

 16 16  0  0  0  0  0  0  0  0999 V2000
    2.9783   -0.3270    0.1550 O   0  0  0  0  0  0  0  0  0  0  0  0
    2.3972    1.7876   -0.5581 O   0  0  0  0  0  0  0  0  0  0  0  0
    0.4442   -2.4462   -0.6794 N   0  0  0  0  0  0  0  0  0  0  0  0
   -0.3459    0.8805    0.0459 C   0  0  0  0  0  0  0  0  0  0  0  0
   -1.7359    0.3710    0.0895 C   0  0  0  0  0  0  0  0  0  0  0  0
    0.7196    0.0878   -0.2170 C   0  0  0  0  0  0  0  0  0  0  0  0
   -2.2447   -0.0886    1.2893 C   0  0  0  0  0  0  0  0  0  0  0  0
   -2.4865    0.3689   -1.0707 C   0  0  0  0  0  0  0  0  0  0  0  0
   -0.2615    2.3590    0.3520 C   0  0  0  0  0  0  0  0  0  0  0  0
   -3.5536   -0.5688    1.3304 C   0  0  0  0  0  0  0  0  0  0  0  0
   -3.7956   -0.1112   -1.0294 C   0  0  0  0  0  0  0  0  0  0  0  0
   -4.3291   -0.5800    0.1712 C   0  0  0  0  0  0  0  0  0  0  0  0
    2.1080    0.6439   -0.2389 C   0  0  0  0  0  0  0  0  0  0  0  0
    4.3567    0.0575    0.1890 C   0  0  0  0  0  0  0  0  0  0  0  0
    5.1872   -1.1239    0.6432 C   0  0  0  0  0  0  0  0  0  0  0  0
    0.5618   -1.3104   -0.4719 C   0  0  0  0  0  0  0  0  0  0  0  0
  1 13  1  0
  1 14  1  0
  2 13  2  0
  3 16  3  0
  4  5  1  0
  4  6  2  0
  4  9  1  0
  5  7  2  0
  5  8  1  0
  6 13  1  0
  6 16  1  0
  7 10  1  0
  8 11  2  0
 10 12  2  0
 11 12  1  0
 14 15  1  0
M  END
>  <PUBCHEM_COMPOUND_CID>  (1) 
29024

>  <PUBCHEM_CONFORMER_RMSD>  (1) 
0.6

>  <PUBCHEM_CONFORMER_DIVERSEORDER>  (1) 
3
17
19
15
5
21
16
11
4
10
20
14
12
13
9
7
18
8
6
1
2

>  <PUBCHEM_MMFF94_PARTIAL_CHARGES>  (1) 
20
1 -0.43
10 -0.15
11 -0.15
12 -0.15
13 0.71
14 0.28
16 0.49
17 0.15
18 0.15
2 -0.57
22 0.15
23 0.15
24 0.15
3 -0.56
4 -0.17
5 0.03
6 0.08
7 -0.15
8 -0.15
9 0.14

>  <PUBCHEM_EFFECTIVE_ROTOR_COUNT>  (1) 
4

>  <PUBCHEM_PHARMACOPHORE_FEATURES>  (1) 
4
1 2 acceptor
1 3 acceptor
1 9 hydrophobe
6 5 7 8 10 11 12 rings

>  <PUBCHEM_HEAVY_ATOM_COUNT>  (1) 
16

>  <PUBCHEM_ATOM_DEF_STEREO_COUNT>  (1) 
0

>  <PUBCHEM_ATOM_UDEF_STEREO_COUNT>  (1) 
0

>  <PUBCHEM_BOND_DEF_STEREO_COUNT>  (1) 
0

>  <PUBCHEM_BOND_UDEF_STEREO_COUNT>  (1) 
1

>  <PUBCHEM_ISOTOPIC_ATOM_COUNT>  (1) 
0

>  <PUBCHEM_COMPONENT_COUNT>  (1) 
1

>  <PUBCHEM_CACTVS_TAUTO_COUNT>  (1) 
1

>  <PUBCHEM_CONFORMER_ID>  (1) 
0000716000000003

>  <PUBCHEM_MMFF94_ENERGY>  (1) 
43.2979

>  <PUBCHEM_FEATURE_SELFOVERLAP>  (1) 
20.297

>  <PUBCHEM_SHAPE_FINGERPRINT>  (1) 
10219947 1 18411986896464308717
11132069 177 17846500330936301022
11543360 7 15864083091170914238
12236239 1 17489587870498020375
124424 183 17894347782821540491
13140716 1 18269835483664142738
13690532 89 18408881824425315982
13760787 5 18411139168514565165
13862211 1 18412819175485689422
13965767 371 16123079519098486345
14943859 89 12823294589448868796
15048467 5 12319739171728382003
15207287 21 18259989296876335107
15309172 13 18342460352260265014
16945 1 18341343231239993941
17862501 102 18202559575311110770
18175812 5 17821729472250147613
19026448 4 17095522945515003525
19433438 48 17917711301279258639
200 152 18410288107959986065
20201158 50 18333453136295016859
20645477 70 18333730238562471062
21061003 4 18341613732976540649
21682296 61 18055355739320968718
23175994 123 18260831501118509733
23402539 116 18202275896768147133
23493267 7 17822281345520147409
23557571 272 17167859738792749949
23559900 14 17167860898202135524
26918003 58 18260547814027523649
465052 167 18260556640391467554
57812782 119 17821446871812702492
77492 1 17417820577605360133

>  <PUBCHEM_SHAPE_MULTIPOLES>  (1) 
312.55
8.62
1.76
1.07
5.74
0.2
0.13
-2.6
1.36
0.79
-0.15
-0.9
-0.13
-0.05

>  <PUBCHEM_SHAPE_SELFOVERLAP>  (1) 
646.62

>  <PUBCHEM_SHAPE_VOLUME>  (1) 
177.1

>  <PUBCHEM_COORDINATE_TYPE>  (1) 
2
5
10

$$$$
