29033
     RDKit          3D

  8  7  0  0  0  0  0  0  0  0999 V2000
    2.3819    0.0671    0.6613 O   0  0  0  0  0  0  0  0  0  0  0  0
    0.3483   -0.5861   -0.2556 N   0  0  0  0  0  0  0  0  0  0  0  0
   -0.8770   -0.2127   -0.9575 C   0  0  0  0  0  0  0  0  0  0  0  0
    1.3353    0.3450    0.0698 C   0  0  0  0  0  0  0  0  0  0  0  0
    0.4682   -1.9990    0.0811 C   0  0  0  0  0  0  0  0  0  0  0  0
    1.0790    1.7736   -0.3401 C   0  0  0  0  0  0  0  0  0  0  0  0
   -1.9331    0.1550   -0.0148 C   0  0  0  0  0  0  0  0  0  0  0  0
   -2.8027    0.4572    0.7559 C   0  0  0  0  0  0  0  0  0  0  0  0
  1  4  2  0
  2  3  1  0
  2  4  1  0
  2  5  1  0
  3  7  1  0
  4  6  1  0
  7  8  3  0
M  END
>  <PUBCHEM_COMPOUND_CID>  (1) 
29033

>  <PUBCHEM_CONFORMER_RMSD>  (1) 
0.4

>  <PUBCHEM_CONFORMER_DIVERSEORDER>  (1) 
4
8
6
5
11
10
12
1
2
3
7
9

>  <PUBCHEM_MMFF94_PARTIAL_CHARGES>  (1) 
9
1 -0.57
17 0.18
2 -0.66
3 0.5
4 0.57
5 0.3
6 0.06
7 -0.2
8 -0.18

>  <PUBCHEM_EFFECTIVE_ROTOR_COUNT>  (1) 
2

>  <PUBCHEM_PHARMACOPHORE_FEATURES>  (1) 
2
1 1 acceptor
1 8 hydrophobe

>  <PUBCHEM_HEAVY_ATOM_COUNT>  (1) 
8

>  <PUBCHEM_ATOM_DEF_STEREO_COUNT>  (1) 
0

>  <PUBCHEM_ATOM_UDEF_STEREO_COUNT>  (1) 
0

>  <PUBCHEM_BOND_DEF_STEREO_COUNT>  (1) 
0

>  <PUBCHEM_BOND_UDEF_STEREO_COUNT>  (1) 
0

>  <PUBCHEM_ISOTOPIC_ATOM_COUNT>  (1) 
0

>  <PUBCHEM_COMPONENT_COUNT>  (1) 
1

>  <PUBCHEM_CACTVS_TAUTO_COUNT>  (1) 
1

>  <PUBCHEM_CONFORMER_ID>  (1) 
0000716900000004

>  <PUBCHEM_MMFF94_ENERGY>  (1) 
13.0253

>  <PUBCHEM_FEATURE_SELFOVERLAP>  (1) 
10.148

>  <PUBCHEM_SHAPE_FINGERPRINT>  (1) 
14390081 3 17203328892819755289
20096714 4 18342738567388310189
20653085 51 16916237700602771024
21040471 1 18268994361236592796
29004967 10 18187927218459617465
5084963 1 18270384113842930941

>  <PUBCHEM_SHAPE_MULTIPOLES>  (1) 
153.79
3.22
1.64
0.86
1.58
0.36
-0.06
-0.84
1.01
-0.72
-0.06
0.16
-0.02
-0.2

>  <PUBCHEM_SHAPE_SELFOVERLAP>  (1) 
283.564

>  <PUBCHEM_SHAPE_VOLUME>  (1) 
97.6

>  <PUBCHEM_COORDINATE_TYPE>  (1) 
2
5
10

$$$$
