29038
     RDKit          3D

 13 13  0  0  0  0  0  0  0  0999 V2000
    0.8751    2.6826   -0.0281 Cl  0  0  0  0  0  0  0  0  0  0  0  0
    2.6268   -0.1119    1.2056 O   0  0  0  0  0  0  0  0  0  0  0  0
    2.7936   -0.1208   -1.0613 O   0  0  0  0  0  0  0  0  0  0  0  0
   -0.0928   -1.2142   -0.0188 C   0  0  0  0  0  0  0  0  0  0  0  0
   -1.4871   -1.1750   -0.0013 C   0  0  0  0  0  0  0  0  0  0  0  0
    0.6381   -0.0261   -0.0273 C   0  0  0  0  0  0  0  0  0  0  0  0
   -1.4192    1.2399   -0.0010 C   0  0  0  0  0  0  0  0  0  0  0  0
   -2.1503    0.0520    0.0077 C   0  0  0  0  0  0  0  0  0  0  0  0
   -0.0251    1.2009   -0.0185 C   0  0  0  0  0  0  0  0  0  0  0  0
    0.6100   -2.5359   -0.0275 C   0  0  0  0  0  0  0  0  0  0  0  0
   -2.2939   -2.4323    0.0072 C   0  0  0  0  0  0  0  0  0  0  0  0
   -2.1733    2.5311    0.0092 C   0  0  0  0  0  0  0  0  0  0  0  0
    2.0980   -0.0902   -0.0458 C   0  0  0  0  0  0  0  0  0  0  0  0
  1  9  1  0
  2 13  1  0
  3 13  2  0
  4  5  2  0
  4  6  1  0
  4 10  1  0
  5  8  1  0
  5 11  1  0
  6  9  2  0
  6 13  1  0
  7  8  2  0
  7  9  1  0
  7 12  1  0
M  END
>  <PUBCHEM_COMPOUND_CID>  (1) 
29038

>  <PUBCHEM_CONFORMER_RMSD>  (1) 
0.4

>  <PUBCHEM_CONFORMER_DIVERSEORDER>  (1) 
1

>  <PUBCHEM_MMFF94_PARTIAL_CHARGES>  (1) 
15
1 -0.18
10 0.14
11 0.14
12 0.14
13 0.63
14 0.15
2 -0.65
24 0.5
3 -0.57
4 -0.14
5 -0.14
6 0.09
7 -0.14
8 -0.15
9 0.18

>  <PUBCHEM_EFFECTIVE_ROTOR_COUNT>  (1) 
1

>  <PUBCHEM_PHARMACOPHORE_FEATURES>  (1) 
4
1 2 acceptor
1 3 acceptor
3 2 3 13 anion
6 4 5 6 7 8 9 rings

>  <PUBCHEM_HEAVY_ATOM_COUNT>  (1) 
13

>  <PUBCHEM_ATOM_DEF_STEREO_COUNT>  (1) 
0

>  <PUBCHEM_ATOM_UDEF_STEREO_COUNT>  (1) 
0

>  <PUBCHEM_BOND_DEF_STEREO_COUNT>  (1) 
0

>  <PUBCHEM_BOND_UDEF_STEREO_COUNT>  (1) 
0

>  <PUBCHEM_ISOTOPIC_ATOM_COUNT>  (1) 
0

>  <PUBCHEM_COMPONENT_COUNT>  (1) 
1

>  <PUBCHEM_CACTVS_TAUTO_COUNT>  (1) 
1

>  <PUBCHEM_CONFORMER_ID>  (1) 
0000716E00000001

>  <PUBCHEM_MMFF94_ENERGY>  (1) 
42.837

>  <PUBCHEM_FEATURE_SELFOVERLAP>  (1) 
20.355

>  <PUBCHEM_SHAPE_FINGERPRINT>  (1) 
10967382 1 17834114143623823965
11206711 2 18409449210784555415
12423570 1 15464971700179883638
12524768 44 17836933669199586294
13140716 1 18266458887755212113
13380535 76 18123459493201350191
161256 15 18051419770369399164
16945 1 18410855456144424359
193761 8 18266741466349081053
20511035 2 17979071587603015479
21040471 1 18266740168973097317
22802520 49 18057903363195459518
2334 1 17978228584575745925
23552423 10 17972600162730346509
23559900 14 18127979608033197566
2748010 2 18122340444020299005
5084963 1 17987810729242768978
53812653 166 18199181789533209033
7364860 26 17261039238546442079
81228 2 18411416228618031067

>  <PUBCHEM_SHAPE_MULTIPOLES>  (1) 
257.67
3.42
3.19
0.75
0.74
0.99
0.03
-0.67
0
-1.19
-0.02
0.37
-0.07
-0.01

>  <PUBCHEM_SHAPE_SELFOVERLAP>  (1) 
532.56

>  <PUBCHEM_SHAPE_VOLUME>  (1) 
151.2

>  <PUBCHEM_COORDINATE_TYPE>  (1) 
2
5
10

$$$$
