29050
     RDKit          3D

 14 15  0  0  0  0  0  0  0  0999 V2000
    3.0618    1.8739    0.0005 Cl  0  0  0  0  0  0  0  0  0  0  0  0
    1.1152   -2.2200    0.0002 O   0  0  0  0  0  0  0  0  0  0  0  0
    3.1450   -1.2195    0.0009 O   0  0  0  0  0  0  0  0  0  0  0  0
   -3.6432    0.7226    0.0021 O   0  0  0  0  0  0  0  0  0  0  0  0
   -2.9089   -1.3462   -0.0005 O   0  0  0  0  0  0  0  0  0  0  0  0
    1.9070   -1.0364    0.0001 N   0  0  0  0  0  0  0  0  0  0  0  0
   -0.2175   -1.8417   -0.0005 N   0  0  0  0  0  0  0  0  0  0  0  0
   -2.6952   -0.1056    0.0003 N   0  0  0  0  0  0  0  0  0  0  0  0
    1.0913    0.0145   -0.0002 C   0  0  0  0  0  0  0  0  0  0  0  0
   -0.2578   -0.5016   -0.0007 C   0  0  0  0  0  0  0  0  0  0  0  0
   -1.3649    0.3666   -0.0012 C   0  0  0  0  0  0  0  0  0  0  0  0
    1.4538    1.3560    0.0000 C   0  0  0  0  0  0  0  0  0  0  0  0
   -1.0168    1.7334   -0.0008 C   0  0  0  0  0  0  0  0  0  0  0  0
    0.3301    2.2042   -0.0003 C   0  0  0  0  0  0  0  0  0  0  0  0
  1 12  1  0
  2  6  1  0
  2  7  1  0
  3  6  1  0
  4  8  1  0
  5  8  2  0
  6  9  2  0
  7 10  2  0
  8 11  1  0
  9 10  1  0
  9 12  1  0
 10 11  1  0
 11 13  2  0
 12 14  2  0
 13 14  1  0
M  CHG  4   3  -1   4  -1   6   1   8   1
M  END
>  <PUBCHEM_COMPOUND_CID>  (1) 
29050

>  <PUBCHEM_CONFORMER_RMSD>  (1) 
0.4

>  <PUBCHEM_CONFORMER_DIVERSEORDER>  (1) 
1

>  <PUBCHEM_MMFF94_PARTIAL_CHARGES>  (1) 
16
1 -0.18
10 0.29
11 0.13
12 0.18
13 -0.15
14 -0.15
15 0.15
16 0.15
2 -0.12
3 -0.63
4 -0.52
5 -0.52
6 0.95
7 -0.41
8 0.91
9 -0.08

>  <PUBCHEM_EFFECTIVE_ROTOR_COUNT>  (1) 
1

>  <PUBCHEM_PHARMACOPHORE_FEATURES>  (1) 
7
1 3 anion
1 4 acceptor
1 4 anion
1 5 acceptor
1 7 acceptor
5 2 6 7 9 10 rings
6 9 10 11 12 13 14 rings

>  <PUBCHEM_HEAVY_ATOM_COUNT>  (1) 
14

>  <PUBCHEM_ATOM_DEF_STEREO_COUNT>  (1) 
0

>  <PUBCHEM_ATOM_UDEF_STEREO_COUNT>  (1) 
0

>  <PUBCHEM_BOND_DEF_STEREO_COUNT>  (1) 
0

>  <PUBCHEM_BOND_UDEF_STEREO_COUNT>  (1) 
0

>  <PUBCHEM_ISOTOPIC_ATOM_COUNT>  (1) 
0

>  <PUBCHEM_COMPONENT_COUNT>  (1) 
1

>  <PUBCHEM_CACTVS_TAUTO_COUNT>  (1) 
1

>  <PUBCHEM_CONFORMER_ID>  (1) 
0000717A00000001

>  <PUBCHEM_MMFF94_ENERGY>  (1) 
43.8899

>  <PUBCHEM_FEATURE_SELFOVERLAP>  (1) 
35.733

>  <PUBCHEM_SHAPE_FINGERPRINT>  (1) 
10967382 1 18338516442653234692
11206711 2 18192154797813832052
11471102 20 18410288108350493285
12423570 1 17678166299093874956
13140716 1 18410576175627022539
13380535 76 18193553587305615082
14251717 144 18411410743934225087
14325111 11 18338799017289422081
14617773 55 17846228704356900449
15219456 202 18334295383602870233
15536298 74 18272089409465455868
161256 15 18410010996765227660
16945 1 18194682562076745188
193761 8 18194683653130742404
20201158 50 18336544902694001667
20588541 1 18265053724468884792
20645476 183 17462578517754455220
20645477 70 18413102854028309159
21501502 16 18410855481887873881
2334 1 18338797930530574051
23402655 69 18341317952049200021
23463225 33 18335415798773341264
23526114 1 18410853291312154261
23552423 10 18335703806094498781
23559900 14 17334494905450716078
241688 4 17833551193591314208
2748010 2 18410013272881285396
5084963 1 18130223761733814250
528862 383 18334286604499845664
528886 8 18339356491022417104
53812653 166 18198623426631285536
63268167 104 18341335573545608681
7364860 26 18343022177253878244
8809292 202 18259992548003028355

>  <PUBCHEM_SHAPE_MULTIPOLES>  (1) 
251.56
4.54
2.46
0.57
1.48
0.27
0
-0.43
0
-1.03
0
-0.04
-0.06
0

>  <PUBCHEM_SHAPE_SELFOVERLAP>  (1) 
539.213

>  <PUBCHEM_SHAPE_VOLUME>  (1) 
141.1

>  <PUBCHEM_COORDINATE_TYPE>  (1) 
2
5
10

$$$$
