29068
     RDKit          3D

 16 17  0  0  0  0  0  0  0  0999 V2000
   -5.3751   -1.8084    0.1096 Cl  0  0  0  0  0  0  0  0  0  0  0  0
    0.7670    0.5839   -0.0086 O   0  0  0  0  0  0  0  0  0  0  0  0
   -0.2975    2.6218   -0.1213 O   0  0  0  0  0  0  0  0  0  0  0  0
    3.2396   -0.7590   -0.9254 N   0  0  0  0  0  0  0  0  0  0  0  0
    4.8740   -1.0919    0.5408 N   0  0  0  0  0  0  0  0  0  0  0  0
    3.1240    0.2001    0.0181 C   0  0  0  0  0  0  0  0  0  0  0  0
    2.0408    1.2367   -0.0406 C   0  0  0  0  0  0  0  0  0  0  0  0
   -1.5675    0.6067   -0.0144 C   0  0  0  0  0  0  0  0  0  0  0  0
    4.1218   -0.0055    0.9114 C   0  0  0  0  0  0  0  0  0  0  0  0
   -0.3404    1.3861   -0.0547 C   0  0  0  0  0  0  0  0  0  0  0  0
   -2.8040    1.2514   -0.0509 C   0  0  0  0  0  0  0  0  0  0  0  0
   -1.5086   -0.7849    0.0597 C   0  0  0  0  0  0  0  0  0  0  0  0
    4.3160   -1.5226   -0.5687 C   0  0  0  0  0  0  0  0  0  0  0  0
   -3.9814    0.5045   -0.0133 C   0  0  0  0  0  0  0  0  0  0  0  0
   -2.6861   -1.5319    0.0974 C   0  0  0  0  0  0  0  0  0  0  0  0
   -3.9225   -0.8871    0.0610 C   0  0  0  0  0  0  0  0  0  0  0  0
  1 16  1  0
  2  7  1  0
  2 10  1  0
  3 10  2  0
  4  6  1  0
  4 13  1  0
  5  9  1  0
  5 13  2  0
  6  7  1  0
  6  9  2  0
  8 10  1  0
  8 11  2  0
  8 12  1  0
 11 14  1  0
 12 15  2  0
 14 16  2  0
 15 16  1  0
M  END
>  <PUBCHEM_COMPOUND_CID>  (1) 
29068

>  <PUBCHEM_CONFORMER_RMSD>  (1) 
0.6

>  <PUBCHEM_CONFORMER_DIVERSEORDER>  (1) 
1
21
23
27
18
36
6
34
11
29
25
26
9
22
7
17
15
30
4
35
16
37
5
31
20
2
33
13
12
3
32
28
10
14
8
19
24

>  <PUBCHEM_MMFF94_PARTIAL_CHARGES>  (1) 
23
1 -0.18
10 0.63
11 -0.15
12 -0.15
13 0.04
14 -0.15
15 -0.15
16 0.18
19 0.27
2 -0.43
20 0.15
21 0.15
22 0.15
23 0.15
24 0.15
25 0.15
3 -0.57
4 0.03
5 -0.57
6 -0.33
7 0.46
8 0.09
9 0.08

>  <PUBCHEM_EFFECTIVE_ROTOR_COUNT>  (1) 
4

>  <PUBCHEM_PHARMACOPHORE_FEATURES>  (1) 
5
1 3 acceptor
1 4 donor
3 4 5 13 cation
5 4 5 6 9 13 rings
6 8 11 12 14 15 16 rings

>  <PUBCHEM_HEAVY_ATOM_COUNT>  (1) 
16

>  <PUBCHEM_ATOM_DEF_STEREO_COUNT>  (1) 
0

>  <PUBCHEM_ATOM_UDEF_STEREO_COUNT>  (1) 
0

>  <PUBCHEM_BOND_DEF_STEREO_COUNT>  (1) 
0

>  <PUBCHEM_BOND_UDEF_STEREO_COUNT>  (1) 
0

>  <PUBCHEM_ISOTOPIC_ATOM_COUNT>  (1) 
0

>  <PUBCHEM_COMPONENT_COUNT>  (1) 
1

>  <PUBCHEM_CACTVS_TAUTO_COUNT>  (1) 
2

>  <PUBCHEM_CONFORMER_ID>  (1) 
0000718C00000001

>  <PUBCHEM_MMFF94_ENERGY>  (1) 
30.7403

>  <PUBCHEM_FEATURE_SELFOVERLAP>  (1) 
25.372

>  <PUBCHEM_SHAPE_FINGERPRINT>  (1) 
11046707 91 18335701624193096641
11458722 379 18260831470869122499
11543360 7 14996290257293044211
12032990 46 18410576201639620357
12555020 224 18337099160156297479
12596602 18 15123504843438235447
13533116 47 18128818723787197801
13551218 46 18343024402253211663
13675066 3 18060133236826499944
13690532 89 18409729603788157619
13862211 1 18410853304841121415
1420 369 18412266146442368107
14252887 29 17489593333817798798
14528608 73 7997973444949967419
15196674 1 18410575093253013519
15342168 16 10879993575000002019
15352361 1 18410856568298575286
15885798 251 18410013247243603705
17804303 29 18412266146837942057
1813 80 17821730545897253676
18186145 218 16443346506839846620
19141452 34 18202282533046786743
193927 3 18261966218561393715
1986462 14 18333731299656724613
20261772 1 17917709123789304134
20281475 54 18411426106811157844
20374829 77 18335698325652802187
20403669 9 18411140246667569759
20645477 70 18335700597764322324
21267235 1 18409455795033048067
22646028 28 18335139791263377730
22959321 94 18335133168502876810
23402539 116 18272081678756574837
23403322 49 18409166597609972727
23559900 14 18411976971059021576
26918003 58 18131346371922658904
2871803 45 18333447625683385410
3004659 81 18114183042789480686
42 15 18342740714803295361
4214541 1 18410855430137607561
4921388 177 15719688635557575627
5104073 3 18342458140315191688
559249 180 18188201001350646931
7364860 26 18124033695916865697
9709674 26 18263646327941579746

>  <PUBCHEM_SHAPE_MULTIPOLES>  (1) 
309.44
11.12
2.04
0.73
2.28
0.44
0.01
-6.95
0.73
-0.73
-0.12
0.48
-0.1
0.34

>  <PUBCHEM_SHAPE_SELFOVERLAP>  (1) 
655.062

>  <PUBCHEM_SHAPE_VOLUME>  (1) 
174.5

>  <PUBCHEM_COORDINATE_TYPE>  (1) 
2
5
10

$$$$
