2906
     RDKit          3D

  6  6  0  0  0  0  0  0  0  0999 V2000
    2.1638    0.0000    0.0905 N   0  0  0  0  0  0  0  0  0  0  0  0
    0.7844   -0.0001   -0.3627 C   0  0  0  0  0  0  0  0  0  0  0  0
   -0.0104   -1.1872    0.1678 C   0  0  0  0  0  0  0  0  0  0  0  0
   -0.0103    1.1873    0.1674 C   0  0  0  0  0  0  0  0  0  0  0  0
   -1.4638   -0.7656   -0.0318 C   0  0  0  0  0  0  0  0  0  0  0  0
   -1.4638    0.7656   -0.0312 C   0  0  0  0  0  0  0  0  0  0  0  0
  1  2  1  0
  2  3  1  0
  2  4  1  0
  3  5  1  0
  4  6  1  0
  5  6  1  0
M  END
>  <PUBCHEM_COMPOUND_CID>  (1) 
2906

>  <PUBCHEM_CONFORMER_RMSD>  (1) 
0.4

>  <PUBCHEM_CONFORMER_DIVERSEORDER>  (1) 
2
1

>  <PUBCHEM_MMFF94_PARTIAL_CHARGES>  (1) 
4
1 -0.99
16 0.36
17 0.36
2 0.27

>  <PUBCHEM_EFFECTIVE_ROTOR_COUNT>  (1) 
1

>  <PUBCHEM_PHARMACOPHORE_FEATURES>  (1) 
3
1 1 cation
1 1 donor
5 2 3 4 5 6 rings

>  <PUBCHEM_HEAVY_ATOM_COUNT>  (1) 
6

>  <PUBCHEM_ATOM_DEF_STEREO_COUNT>  (1) 
0

>  <PUBCHEM_ATOM_UDEF_STEREO_COUNT>  (1) 
0

>  <PUBCHEM_BOND_DEF_STEREO_COUNT>  (1) 
0

>  <PUBCHEM_BOND_UDEF_STEREO_COUNT>  (1) 
0

>  <PUBCHEM_ISOTOPIC_ATOM_COUNT>  (1) 
0

>  <PUBCHEM_COMPONENT_COUNT>  (1) 
1

>  <PUBCHEM_CACTVS_TAUTO_COUNT>  (1) 
1

>  <PUBCHEM_CONFORMER_ID>  (1) 
00000B5A00000002

>  <PUBCHEM_MMFF94_ENERGY>  (1) 
1.0451

>  <PUBCHEM_FEATURE_SELFOVERLAP>  (1) 
15.223

>  <PUBCHEM_SHAPE_FINGERPRINT>  (1) 
139733 1 9150910359424569087
16714656 1 18410863161146941940
20096714 4 18194968443732034597
21015797 1 9294126147152414997
21040471 1 18194124018833694093
23552423 10 18260556584725639118
29004967 10 16415484860764398726
5943 1 12675264920950616253

>  <PUBCHEM_SHAPE_MULTIPOLES>  (1) 
118.5
2.06
1.3
0.64
0.63
0
-0.01
0
0
-0.27
0.08
-0.01
0
0

>  <PUBCHEM_SHAPE_SELFOVERLAP>  (1) 
226.119

>  <PUBCHEM_SHAPE_VOLUME>  (1) 
75

>  <PUBCHEM_COORDINATE_TYPE>  (1) 
2
5
10

$$$$
