29088
     RDKit          3D

 24 26  0  0  0  0  0  0  0  0999 V2000
    0.9695   -0.9024    0.1250 O   0  0  0  0  0  0  0  0  0  0  0  0
    4.5285    1.2746    2.1192 O   0  0  0  0  0  0  0  0  0  0  0  0
    4.4767   -1.0084   -2.0813 O   0  0  0  0  0  0  0  0  0  0  0  0
    2.9702    0.2188   -0.0088 N   0  0  0  0  0  0  0  0  0  0  0  0
    0.8457    1.3360   -0.1731 N   0  0  0  0  0  0  0  0  0  0  0  0
    3.8226    1.4183   -0.1618 C   0  0  0  0  0  0  0  0  0  0  0  0
    3.6988   -1.0549    0.1801 C   0  0  0  0  0  0  0  0  0  0  0  0
    1.6191    0.2839   -0.0276 C   0  0  0  0  0  0  0  0  0  0  0  0
   -0.3462   -0.5548    0.0689 C   0  0  0  0  0  0  0  0  0  0  0  0
   -0.4120    0.8009   -0.1115 C   0  0  0  0  0  0  0  0  0  0  0  0
    3.9551    2.1550    1.1614 C   0  0  0  0  0  0  0  0  0  0  0  0
    3.7955   -1.8175   -1.1315 C   0  0  0  0  0  0  0  0  0  0  0  0
   -1.2838   -1.6318    0.2046 C   0  0  0  0  0  0  0  0  0  0  0  0
   -1.6165    1.5743   -0.2231 C   0  0  0  0  0  0  0  0  0  0  0  0
   -2.5411   -1.4043    0.7745 C   0  0  0  0  0  0  0  0  0  0  0  0
   -0.9495   -2.9186   -0.2307 C   0  0  0  0  0  0  0  0  0  0  0  0
   -2.2107    2.1089    0.9200 C   0  0  0  0  0  0  0  0  0  0  0  0
   -2.1926    1.7912   -1.4749 C   0  0  0  0  0  0  0  0  0  0  0  0
   -3.4532   -2.4512    0.9078 C   0  0  0  0  0  0  0  0  0  0  0  0
   -1.8616   -3.9655   -0.0975 C   0  0  0  0  0  0  0  0  0  0  0  0
   -3.3810    2.8600    0.8117 C   0  0  0  0  0  0  0  0  0  0  0  0
   -3.3629    2.5424   -1.5833 C   0  0  0  0  0  0  0  0  0  0  0  0
   -3.1135   -3.7317    0.4718 C   0  0  0  0  0  0  0  0  0  0  0  0
   -3.9571    3.0768   -0.4399 C   0  0  0  0  0  0  0  0  0  0  0  0
  1  8  1  0
  1  9  1  0
  2 11  1  0
  3 12  1  0
  4  6  1  0
  4  7  1  0
  4  8  1  0
  5  8  2  0
  5 10  1  0
  6 11  1  0
  7 12  1  0
  9 10  2  0
  9 13  1  0
 10 14  1  0
 13 15  2  0
 13 16  1  0
 14 17  2  0
 14 18  1  0
 15 19  1  0
 16 20  2  0
 17 21  1  0
 18 22  2  0
 19 23  2  0
 20 23  1  0
 21 24  2  0
 22 24  1  0
M  END
>  <PUBCHEM_COMPOUND_CID>  (1) 
29088

>  <PUBCHEM_CONFORMER_RMSD>  (1) 
0.8

>  <PUBCHEM_CONFORMER_DIVERSEORDER>  (1) 
1
2
17
13
19
16
6
11
20
15
12
8
14
9
5
4
3
7
10
18

>  <PUBCHEM_MMFF94_PARTIAL_CHARGES>  (1) 
36
1 -0.28
10 0.17
11 0.28
12 0.28
13 0.05
14 0.05
15 -0.15
16 -0.15
17 -0.15
18 -0.15
19 -0.15
2 -0.68
20 -0.15
21 -0.15
22 -0.15
23 -0.15
24 -0.15
3 -0.68
33 0.15
34 0.15
35 0.15
36 0.15
37 0.15
38 0.15
39 0.15
4 -0.82
40 0.15
41 0.15
42 0.15
43 0.4
44 0.4
5 -0.57
6 0.37
7 0.37
8 0.56
9 0.09

>  <PUBCHEM_EFFECTIVE_ROTOR_COUNT>  (1) 
7

>  <PUBCHEM_PHARMACOPHORE_FEATURES>  (1) 
8
1 2 acceptor
1 2 donor
1 3 acceptor
1 3 donor
3 4 5 8 cation
5 1 5 8 9 10 rings
6 13 15 16 19 20 23 rings
6 14 17 18 21 22 24 rings

>  <PUBCHEM_HEAVY_ATOM_COUNT>  (1) 
24

>  <PUBCHEM_ATOM_DEF_STEREO_COUNT>  (1) 
0

>  <PUBCHEM_ATOM_UDEF_STEREO_COUNT>  (1) 
0

>  <PUBCHEM_BOND_DEF_STEREO_COUNT>  (1) 
0

>  <PUBCHEM_BOND_UDEF_STEREO_COUNT>  (1) 
0

>  <PUBCHEM_ISOTOPIC_ATOM_COUNT>  (1) 
0

>  <PUBCHEM_COMPONENT_COUNT>  (1) 
1

>  <PUBCHEM_CACTVS_TAUTO_COUNT>  (1) 
1

>  <PUBCHEM_CONFORMER_ID>  (1) 
000071A000000001

>  <PUBCHEM_MMFF94_ENERGY>  (1) 
57.4046

>  <PUBCHEM_FEATURE_SELFOVERLAP>  (1) 
40.596

>  <PUBCHEM_SHAPE_FINGERPRINT>  (1) 
10319926 262 18339905101076797176
1100329 8 17976254630181066634
11578080 2 18200883962587805856
121448 382 18267844152237270413
12160290 23 18187087269122804339
12422481 6 18118716308120072801
12553582 1 17977110385239842726
12643181 29 18121789335989084774
12788726 201 18116431646857412602
13004483 165 18119804965964635819
13140716 1 18338511950697568752
13540713 4 18272373088076686142
13692114 37 18339631236624112331
138480 1 16752122014213947083
14081887 123 18268702994939663360
14178342 30 18335410305778993808
14223421 5 18270402823110842882
14790565 3 17761791571700551404
16752209 62 18335699429628708971
17138139 8 17838572840132954997
1813 80 17678741373681950559
18186145 218 18268144258507966852
19591789 44 18192719951402214203
20693207 138 18129403603843996542
20739085 24 17473269154667062169
21033648 29 18190734228981584740
21049683 118 18190998159264305225
21049683 271 16961545469801542607
22182313 1 18272653476305377870
22907989 373 18334587866438226143
23419403 2 17558254699630694017
23557571 272 18265900340011608094
23558518 356 18260551160076189450
23559900 14 18341613656194182334
283562 15 18117550949699893178
3091708 16 9344396910060030403
3380486 145 17548957306441304223
340366 18 17898311419630405326
350125 39 18337406949885368795
352729 6 18340772515990943635
3729539 64 17400664631020636078
4409770 3 18190723401763741439
458136 41 17832715573718672109
5104073 3 18337654396522308296
59025328 239 17340379907787668127
6049 1 18271817838846678286
621550 34 17913774087816516658
633830 44 17986380097196158797
7164475 11 18190184666303159196
7399639 24 17984419908987742192
81228 2 18188216527546372939
9709674 26 18342452656032038854
9981440 41 16910824822118682280

>  <PUBCHEM_SHAPE_MULTIPOLES>  (1) 
466.34
8.64
4.97
1.36
8.97
2.91
0.16
-2.83
-0.21
-6.63
-0.14
0.83
-0.56
2.5

>  <PUBCHEM_SHAPE_SELFOVERLAP>  (1) 
1005.224

>  <PUBCHEM_SHAPE_VOLUME>  (1) 
256.3

>  <PUBCHEM_COORDINATE_TYPE>  (1) 
2
5
10

$$$$
