29086
     RDKit          3D

 22 23  0  0  1  0  0  0  0  0999 V2000
   -1.3034   -1.8483   -1.5625 O   0  0  0  0  0  0  0  0  0  0  0  0
   -2.4214   -1.5715    0.4531 N   0  0  0  0  0  0  0  0  0  0  0  0
    4.5849    0.5779   -0.0678 N   0  0  0  0  0  0  0  0  0  0  0  0
   -3.6442   -1.0347   -0.0997 C   0  0  0  0  0  0  0  0  0  0  0  0
   -3.9310    0.3748    0.4410 C   0  0  0  0  0  0  0  0  0  0  0  0
   -2.8120    1.3511    0.1658 C   0  0  0  0  0  0  0  0  0  0  0  0
   -4.8035   -1.9770    0.2087 C   0  0  0  0  0  0  0  0  0  0  0  0
   -0.1926   -2.4627    0.5002 C   0  0  0  0  0  0  0  0  0  0  0  0
   -1.3421   -1.9368   -0.3378 C   0  0  0  0  0  0  0  0  0  0  0  0
    1.0717   -1.6588    0.3503 C   0  0  0  0  0  0  0  0  0  0  0  0
   -1.7911    1.4918    1.0920 C   0  0  0  0  0  0  0  0  0  0  0  0
   -2.8269    2.0873   -1.0079 C   0  0  0  0  0  0  0  0  0  0  0  0
    3.4010   -0.1756    0.0731 C   0  0  0  0  0  0  0  0  0  0  0  0
    1.9874   -2.0031   -0.6336 C   0  0  0  0  0  0  0  0  0  0  0  0
    1.3023   -0.5844    1.1980 C   0  0  0  0  0  0  0  0  0  0  0  0
    3.1582   -1.2578   -0.7730 C   0  0  0  0  0  0  0  0  0  0  0  0
    2.4731    0.1610    1.0586 C   0  0  0  0  0  0  0  0  0  0  0  0
   -0.7575    2.3932    0.8378 C   0  0  0  0  0  0  0  0  0  0  0  0
   -1.7931    2.9887   -1.2620 C   0  0  0  0  0  0  0  0  0  0  0  0
   -0.7583    3.1416   -0.3390 C   0  0  0  0  0  0  0  0  0  0  0  0
    5.7978   -0.0455   -0.5588 C   0  0  0  0  0  0  0  0  0  0  0  0
    4.6006    1.9889    0.2634 C   0  0  0  0  0  0  0  0  0  0  0  0
  1  9  2  0
  2  4  1  0
  2  9  1  0
  3 13  1  0
  3 21  1  0
  3 22  1  0
  4  5  1  0
  4  7  1  0
  5  6  1  0
  6 11  2  0
  6 12  1  0
  8  9  1  0
  8 10  1  0
 10 14  2  0
 10 15  1  0
 11 18  1  0
 12 19  2  0
 13 16  2  0
 13 17  1  0
 14 16  1  0
 15 17  2  0
 18 20  2  0
 19 20  1  0
M  END
>  <PUBCHEM_COMPOUND_CID>  (1) 
29086

>  <PUBCHEM_CONFORMER_RMSD>  (1) 
0.8

>  <PUBCHEM_CONFORMER_DIVERSEORDER>  (1) 
1
64
66
25
105
54
12
82
62
39
56
65
44
7
108
101
107
24
90
110
106
86
102
47
98
21
31
5
121
58
45
53
9
118
4
67
63
122
22
97
26
27
112
59
89
116
113
50
79
109
49
18
55
120
93
6
35
88
20
42
123
71
73
68
32
91
16
57
96
94
74
52
75
14
83
70
81
36
60
85
2
3
114
77
11
28
10
37
72
8
30
95
119
84
115
103
17
23
40
61
104
117
15
69
87
46
13
38
19
100
29
92
41
80
99
34
76
111
33
43
48
51
78

>  <PUBCHEM_MMFF94_PARTIAL_CHARGES>  (1) 
31
1 -0.57
10 -0.14
11 -0.15
12 -0.15
13 0.1
14 -0.15
15 -0.15
16 -0.15
17 -0.15
18 -0.15
19 -0.15
2 -0.73
20 -0.15
21 0.37
22 0.37
26 0.37
3 -0.84
32 0.15
33 0.15
34 0.15
35 0.15
36 0.15
37 0.15
38 0.15
39 0.15
4 0.3
40 0.15
5 0.14
6 -0.14
8 0.2
9 0.57

>  <PUBCHEM_EFFECTIVE_ROTOR_COUNT>  (1) 
7

>  <PUBCHEM_PHARMACOPHORE_FEATURES>  (1) 
5
1 1 acceptor
1 2 donor
1 3 cation
6 10 13 14 15 16 17 rings
6 6 11 12 18 19 20 rings

>  <PUBCHEM_HEAVY_ATOM_COUNT>  (1) 
22

>  <PUBCHEM_ATOM_DEF_STEREO_COUNT>  (1) 
0

>  <PUBCHEM_ATOM_UDEF_STEREO_COUNT>  (1) 
1

>  <PUBCHEM_BOND_DEF_STEREO_COUNT>  (1) 
0

>  <PUBCHEM_BOND_UDEF_STEREO_COUNT>  (1) 
0

>  <PUBCHEM_ISOTOPIC_ATOM_COUNT>  (1) 
0

>  <PUBCHEM_COMPONENT_COUNT>  (1) 
1

>  <PUBCHEM_CACTVS_TAUTO_COUNT>  (1) 
2

>  <PUBCHEM_CONFORMER_ID>  (1) 
0000719E00000001

>  <PUBCHEM_MMFF94_ENERGY>  (1) 
65.7221

>  <PUBCHEM_FEATURE_SELFOVERLAP>  (1) 
25.371

>  <PUBCHEM_SHAPE_FINGERPRINT>  (1) 
10498660 4 18336262345274639341
10670039 82 18262252083627547796
10730089 173 18410578405337489004
10759866 29 18115866313408359402
10871710 139 18409164420319893285
11578080 2 13181366984639256257
11595378 159 18115006585667851664
12011746 2 18341887515930211031
128993 33 17983010046727514617
13402501 40 18341612663344892424
13994607 96 17460058329481197704
14251751 93 18337389340730568632
14251757 17 17772205123947482774
14363568 33 17760663846374293681
14787075 74 18335702801256826435
14840074 17 18187661226993665365
15575132 122 18114183038009665285
17357779 13 18270381885303582559
17492 54 18043259148050252421
20510252 161 18410012113541133627
21141583 151 18344146986260380368
21315764 268 18338791312809319672
21623110 236 18341059604622344385
21857420 4 15401562765933136502
23227448 37 18409448106819977356
23557571 272 18343029908068644486
23559900 14 18054221034430073154
23566358 2 18129670682106180926
238 59 17546706180674020061
350125 39 18339081480509628554
3524813 1 18130783490377497779
4028521 119 18411418388733470626
469060 322 17603307067960716447
5282940 2 17537733470033403572
58260988 393 17168148889018949473

>  <PUBCHEM_SHAPE_MULTIPOLES>  (1) 
436.92
9.46
3.67
1.13
8.22
1.53
-0.08
0.12
-0.72
-2.4
-0.63
-0.12
0.17
0.64

>  <PUBCHEM_SHAPE_SELFOVERLAP>  (1) 
909.608

>  <PUBCHEM_SHAPE_VOLUME>  (1) 
248.8

>  <PUBCHEM_COORDINATE_TYPE>  (1) 
2
5
10

$$$$
