29080
     RDKit          3D

 20 22  0  0  0  0  0  0  0  0999 V2000
   -5.1063   -1.9651   -0.0028 S   0  0  0  0  0  0  0  0  0  0  0  0
    5.7322   -0.1880   -0.1446 N   0  0  0  0  0  0  0  0  0  0  0  0
    0.1915    0.1739    0.5735 N   0  0  0  0  0  0  0  0  0  0  0  0
   -0.3812    0.2376   -0.5393 N   0  0  0  0  0  0  0  0  0  0  0  0
   -5.9163    0.4770    0.1767 N   0  0  0  0  0  0  0  0  0  0  0  0
    4.3363   -0.0965    0.0362 C   0  0  0  0  0  0  0  0  0  0  0  0
    3.7283    1.1535    0.1522 C   0  0  0  0  0  0  0  0  0  0  0  0
    3.5638   -1.2563    0.0989 C   0  0  0  0  0  0  0  0  0  0  0  0
    1.5824    0.0837    0.3930 C   0  0  0  0  0  0  0  0  0  0  0  0
   -3.9156   -0.7233   -0.1166 C   0  0  0  0  0  0  0  0  0  0  0  0
   -4.5408    0.5217    0.0021 C   0  0  0  0  0  0  0  0  0  0  0  0
    2.3479    1.2439    0.3312 C   0  0  0  0  0  0  0  0  0  0  0  0
    2.1834   -1.1660    0.2778 C   0  0  0  0  0  0  0  0  0  0  0  0
   -1.7660    0.3270   -0.3592 C   0  0  0  0  0  0  0  0  0  0  0  0
   -2.5284   -0.8422   -0.2980 C   0  0  0  0  0  0  0  0  0  0  0  0
    6.5437    1.0110   -0.2112 C   0  0  0  0  0  0  0  0  0  0  0  0
    6.3749   -1.4826   -0.2523 C   0  0  0  0  0  0  0  0  0  0  0  0
   -3.7470    1.6874   -0.0632 C   0  0  0  0  0  0  0  0  0  0  0  0
   -2.3653    1.5763   -0.2436 C   0  0  0  0  0  0  0  0  0  0  0  0
   -6.3175   -0.7728    0.1892 C   0  0  0  0  0  0  0  0  0  0  0  0
  1 10  1  0
  1 20  1  0
  2  6  1  0
  2 16  1  0
  2 17  1  0
  3  4  2  0
  3  9  1  0
  4 14  1  0
  5 11  1  0
  5 20  2  0
  6  7  2  0
  6  8  1  0
  7 12  1  0
  8 13  2  0
  9 12  2  0
  9 13  1  0
 10 11  2  0
 10 15  1  0
 11 18  1  0
 14 15  2  0
 14 19  1  0
 18 19  2  0
M  END
>  <PUBCHEM_COMPOUND_CID>  (1) 
29080

>  <PUBCHEM_CONFORMER_RMSD>  (1) 
0.6

>  <PUBCHEM_CONFORMER_DIVERSEORDER>  (1) 
1
2
3
4
5

>  <PUBCHEM_MMFF94_PARTIAL_CHARGES>  (1) 
28
1 -0.08
10 0.04
11 0.23
12 -0.15
13 -0.15
14 0.18
15 -0.15
16 0.37
17 0.37
18 -0.15
19 -0.15
2 -0.84
20 0.23
21 0.15
22 0.15
23 0.15
24 0.15
25 0.15
3 -0.18
32 0.15
33 0.15
34 0.15
4 -0.18
5 -0.57
6 0.1
7 -0.15
8 -0.15
9 0.18

>  <PUBCHEM_EFFECTIVE_ROTOR_COUNT>  (1) 
3

>  <PUBCHEM_PHARMACOPHORE_FEATURES>  (1) 
5
1 2 cation
1 5 acceptor
5 1 5 10 11 20 rings
6 10 11 14 15 18 19 rings
6 6 7 8 9 12 13 rings

>  <PUBCHEM_HEAVY_ATOM_COUNT>  (1) 
20

>  <PUBCHEM_ATOM_DEF_STEREO_COUNT>  (1) 
0

>  <PUBCHEM_ATOM_UDEF_STEREO_COUNT>  (1) 
0

>  <PUBCHEM_BOND_DEF_STEREO_COUNT>  (1) 
0

>  <PUBCHEM_BOND_UDEF_STEREO_COUNT>  (1) 
0

>  <PUBCHEM_ISOTOPIC_ATOM_COUNT>  (1) 
0

>  <PUBCHEM_COMPONENT_COUNT>  (1) 
1

>  <PUBCHEM_CACTVS_TAUTO_COUNT>  (1) 
1

>  <PUBCHEM_CONFORMER_ID>  (1) 
0000719800000001

>  <PUBCHEM_MMFF94_ENERGY>  (1) 
63.4191

>  <PUBCHEM_FEATURE_SELFOVERLAP>  (1) 
25.443

>  <PUBCHEM_SHAPE_FINGERPRINT>  (1) 
10 15 18340758347717020856
10299344 5 18411704287458008814
10366900 7 16443063893728736976
10595046 47 18334858307781160992
10968037 39 18261111889816290255
11089746 13 8646769975853595187
11315181 36 18342178882311725409
11524674 6 16630526254420283823
12091667 2 17167863054412712245
12107183 9 17689715260173334457
12166972 35 18334298682122604988
12236239 1 18343303656509796952
12516196 113 18273494585278449976
12616971 3 14979950402097532288
13073987 5 18341047424516683272
13167823 11 18410570682564466499
13288520 33 18410292523929989517
13533116 47 16081355329183732784
1420 363 18187367635755417906
14251718 22 18334295370353893456
14251732 16 18409729594945151912
14251764 18 18202566189977393547
14341114 176 18411984675808058577
14350574 20 18408040714940904620
14933364 13 18412265038435679848
15183329 4 18409168779796439082
15716309 27 18342457045277845959
17834072 33 18408322198238615540
17844677 252 18413113861365194537
18681886 176 18412259567264426080
18927931 339 18411703205954516623
19489759 90 8502655904975515023
200 152 18273214196590556296
20645477 70 18341896230450964350
21267235 1 18410860957686300673
21623969 137 17489874825579097430
221357 26 18410853257047692632
2297311 6 18342462530040870669
23035841 295 18334294262384381955
23402539 116 18333446543061177781
23522609 53 18194994939391532856
23536379 177 18412545396973932384
23559900 14 18338228375382039209
3004659 81 18336266752723806006
335352 9 18410288117736889717
34797466 226 17775011215276934540
350125 39 18412262847923296040
3545911 37 18411136930841735569
4073 2 18114187462005380194
4214541 1 18411417289538496865
4325135 7 18261111889283443094
4463277 17 18411699889495893736
465052 167 18202567268088174662
5104073 3 18341888550405406904
59755656 215 18410857637724606078
59755656 520 17095520716727995803
67856867 119 18187932849325864469
7062679 117 18334013912958167075
7495541 125 18060135483147215072
77779 3 18411135822903671049
9996256 80 18410292514675637506

>  <PUBCHEM_SHAPE_MULTIPOLES>  (1) 
395.52
17.73
1.72
0.67
6.29
0.13
0
3.39
0.49
-0.53
0.03
0.01
0
0.15

>  <PUBCHEM_SHAPE_SELFOVERLAP>  (1) 
848.724

>  <PUBCHEM_SHAPE_VOLUME>  (1) 
222.5

>  <PUBCHEM_COORDINATE_TYPE>  (1) 
2
5
10

$$$$
