29095
     RDKit          3D

 31 36  0  0  0  0  0  0  0  0999 V2000
   -1.9540   -0.4772   -2.4729 S   0  0  0  0  0  0  0  0  0  0  0  0
    0.8882   -1.2638   -0.0306 S   0  0  0  0  0  0  0  0  0  0  0  0
   -2.2275    0.5844   -0.2206 N   0  0  0  0  0  0  0  0  0  0  0  0
    2.4499    0.8089   -0.6956 N   0  0  0  0  0  0  0  0  0  0  0  0
   -3.4447   -0.0228   -0.4559 C   0  0  0  0  0  0  0  0  0  0  0  0
    3.3388   -0.1428   -0.1252 C   0  0  0  0  0  0  0  0  0  0  0  0
   -1.3355    0.4437   -1.1762 C   0  0  0  0  0  0  0  0  0  0  0  0
    1.1223    0.3534   -0.7166 C   0  0  0  0  0  0  0  0  0  0  0  0
   -3.4776   -0.6744   -1.6835 C   0  0  0  0  0  0  0  0  0  0  0  0
    2.6476   -1.3186    0.2866 C   0  0  0  0  0  0  0  0  0  0  0  0
   -4.5797   -0.0310    0.3970 C   0  0  0  0  0  0  0  0  0  0  0  0
    4.7545   -0.0804    0.0783 C   0  0  0  0  0  0  0  0  0  0  0  0
    0.0311    0.9821   -1.1858 C   0  0  0  0  0  0  0  0  0  0  0  0
   -1.8467    1.3438    0.9504 C   0  0  0  0  0  0  0  0  0  0  0  0
    2.8832    2.1020   -1.1908 C   0  0  0  0  0  0  0  0  0  0  0  0
   -5.7399   -0.7194   -0.0383 C   0  0  0  0  0  0  0  0  0  0  0  0
    5.3846   -1.2099    0.6893 C   0  0  0  0  0  0  0  0  0  0  0  0
   -4.6208   -1.3564   -2.1185 C   0  0  0  0  0  0  0  0  0  0  0  0
    3.2736   -2.4020    0.8759 C   0  0  0  0  0  0  0  0  0  0  0  0
   -5.7422   -1.3672   -1.2817 C   0  0  0  0  0  0  0  0  0  0  0  0
    4.6429   -2.3383    1.0738 C   0  0  0  0  0  0  0  0  0  0  0  0
   -4.5761    0.6215    1.6471 C   0  0  0  0  0  0  0  0  0  0  0  0
    5.6240    0.9913   -0.2627 C   0  0  0  0  0  0  0  0  0  0  0  0
   -2.4443    2.7425    0.9372 C   0  0  0  0  0  0  0  0  0  0  0  0
    3.0344    3.0780   -0.0399 C   0  0  0  0  0  0  0  0  0  0  0  0
   -6.8690   -0.7342    0.7955 C   0  0  0  0  0  0  0  0  0  0  0  0
    6.7699   -1.2268    0.9242 C   0  0  0  0  0  0  0  0  0  0  0  0
   -5.7115    0.5912    2.4556 C   0  0  0  0  0  0  0  0  0  0  0  0
    7.0022    0.9580   -0.0208 C   0  0  0  0  0  0  0  0  0  0  0  0
   -6.8535   -0.0842    2.0316 C   0  0  0  0  0  0  0  0  0  0  0  0
    7.5758   -0.1513    0.5730 C   0  0  0  0  0  0  0  0  0  0  0  0
  1  7  1  0
  1  9  1  0
  2  8  1  0
  2 10  1  0
  3  5  1  0
  3  7  2  0
  3 14  1  0
  4  6  1  0
  4  8  1  0
  4 15  1  0
  5  9  2  0
  5 11  1  0
  6 10  2  0
  6 12  1  0
  7 13  1  0
  8 13  2  0
  9 18  1  0
 10 19  1  0
 11 16  2  0
 11 22  1  0
 12 17  2  0
 12 23  1  0
 14 24  1  0
 15 25  1  0
 16 20  1  0
 16 26  1  0
 17 21  1  0
 17 27  1  0
 18 20  2  0
 19 21  2  0
 22 28  2  0
 23 29  2  0
 26 30  2  0
 27 31  2  0
 28 30  1  0
 29 31  1  0
M  CHG  1   3   1
M  END
>  <PUBCHEM_COMPOUND_CID>  (1) 
29095

>  <PUBCHEM_CONFORMER_RMSD>  (1) 
0.8

>  <PUBCHEM_CONFORMER_DIVERSEORDER>  (1) 
1
4
2
3

>  <PUBCHEM_MMFF94_PARTIAL_CHARGES>  (1) 
38
1 -0.08
10 0.1
13 -0.11
14 0.51
15 0.37
18 -0.15
19 -0.15
2 -0.2
20 -0.15
21 -0.15
22 -0.15
23 -0.15
26 -0.15
27 -0.15
28 -0.15
29 -0.15
3 -0.18
30 -0.15
31 -0.15
32 0.15
37 0.15
38 0.15
39 0.15
4 -0.57
40 0.15
41 0.15
42 0.15
49 0.15
5 0.33
50 0.15
51 0.15
52 0.15
53 0.15
54 0.15
6 0.1
7 0.33
8 0.2
9 0.04

>  <PUBCHEM_EFFECTIVE_ROTOR_COUNT>  (1) 
3.4

>  <PUBCHEM_PHARMACOPHORE_FEATURES>  (1) 
7
1 4 cation
5 1 3 5 7 9 rings
5 2 4 6 8 10 rings
6 11 16 22 26 28 30 rings
6 12 17 23 27 29 31 rings
6 5 9 11 16 18 20 rings
6 6 10 12 17 19 21 rings

>  <PUBCHEM_HEAVY_ATOM_COUNT>  (1) 
31

>  <PUBCHEM_ATOM_DEF_STEREO_COUNT>  (1) 
0

>  <PUBCHEM_ATOM_UDEF_STEREO_COUNT>  (1) 
0

>  <PUBCHEM_BOND_DEF_STEREO_COUNT>  (1) 
0

>  <PUBCHEM_BOND_UDEF_STEREO_COUNT>  (1) 
1

>  <PUBCHEM_ISOTOPIC_ATOM_COUNT>  (1) 
0

>  <PUBCHEM_COMPONENT_COUNT>  (1) 
1

>  <PUBCHEM_CACTVS_TAUTO_COUNT>  (1) 
1

>  <PUBCHEM_CONFORMER_ID>  (1) 
000071A700000001

>  <PUBCHEM_MMFF94_ENERGY>  (1) 
127.857

>  <PUBCHEM_FEATURE_SELFOVERLAP>  (1) 
35.704

>  <PUBCHEM_SHAPE_FINGERPRINT>  (1) 
10 15 17346605162467090931
10290309 65 17059503902857132927
10299344 5 18202844361781628498
10319926 262 16415472779216866415
10674148 151 15791730794490681269
11135609 12 16878234159304658026
12166972 35 18334571369675213092
12236239 1 18273212006120260142
12616971 3 18342178886242643949
13402501 40 17313107449209181162
13533116 47 18335142015982908864
13627175 23 18339369672926142076
13685833 64 17748828514181175036
13782708 43 16805601430702190778
14294032 229 17131830937421361133
14341114 328 18131635577888072447
14394314 77 18343586231267641993
14849402 71 18271242854554110920
14856354 85 17988919011389124887
14904385 31 18201443592463461175
14904525 67 15913031145516128936
14950920 106 18409738387085942707
15021287 119 18410857668184983557
15238133 3 17203613708843165512
15328829 1 18202005438509287592
15352257 5 17385729114134279635
15419008 47 16805318907352702797
15461852 350 15051724305725888013
15510800 12 16298961973676862115
16112460 7 18408605850912068938
18603816 31 17895481444842940699
18608769 82 16443068322119321699
19377110 9 18342739598254216890
2026 5 16660645159413109179
21267235 1 18261391110468193390
21521721 280 18336263552930816648
21623969 137 17894349964844716650
21792961 116 17458624472684255418
21792965 68 16486410950274809408
22149856 69 18187932725256771376
23522609 53 18129679602410818016
23559900 14 15430034370151439829
24771293 8 18199739393291810768
3178227 256 18186522124931666064
3633792 109 18335403674407505119
4073 2 17095798824360058109
44880568 143 15285636560786263038
46194498 28 16660642977595531068
5104073 3 18115020776118608064
5265222 85 16127522860836009412
5758199 1 18343020021560181842
58083652 198 18340762745800779341
6009941 240 17603582981714888933
6086070 43 10447632596377662086
86090 222 17386300799977757251
999808 66 17531247249066899563

>  <PUBCHEM_SHAPE_MULTIPOLES>  (1) 
635.7
20.35
2.28
1.94
5.75
0.9
-0.16
-4.25
8.14
2.03
0.24
-3.56
-0.2
-3.07

>  <PUBCHEM_SHAPE_SELFOVERLAP>  (1) 
1406.206

>  <PUBCHEM_SHAPE_VOLUME>  (1) 
343

>  <PUBCHEM_COORDINATE_TYPE>  (1) 
2
5
10

$$$$
