29093
     RDKit          3D

 23 26  0  0  0  0  0  0  0  0999 V2000
   -0.4162   -1.6386   -0.0010 O   0  0  0  0  0  0  0  0  0  0  0  0
    0.2995    1.1319    0.0003 N   0  0  0  0  0  0  0  0  0  0  0  0
   -5.0694   -0.5276    0.0005 N   0  0  0  0  0  0  0  0  0  0  0  0
    4.1838   -2.7368   -0.0006 N   0  0  0  0  0  0  0  0  0  0  0  0
    1.2245    0.2210   -0.0004 C   0  0  0  0  0  0  0  0  0  0  0  0
    2.6555    0.6150    0.0000 C   0  0  0  0  0  0  0  0  0  0  0  0
   -1.0356    0.7014    0.0001 C   0  0  0  0  0  0  0  0  0  0  0  0
   -1.3736   -0.6549   -0.0005 C   0  0  0  0  0  0  0  0  0  0  0  0
    0.9109   -1.2330   -0.0010 C   0  0  0  0  0  0  0  0  0  0  0  0
   -3.7218   -0.1055   -0.0004 C   0  0  0  0  0  0  0  0  0  0  0  0
    3.6720   -0.3506   -0.0001 C   0  0  0  0  0  0  0  0  0  0  0  0
   -3.3989    1.2505    0.0007 C   0  0  0  0  0  0  0  0  0  0  0  0
   -2.7086   -1.0621   -0.0010 C   0  0  0  0  0  0  0  0  0  0  0  0
   -2.0615    1.6521    0.0007 C   0  0  0  0  0  0  0  0  0  0  0  0
    3.3135   -1.7883   -0.0011 C   0  0  0  0  0  0  0  0  0  0  0  0
    1.8798   -2.1512   -0.0014 C   0  0  0  0  0  0  0  0  0  0  0  0
    2.9865    1.9796    0.0006 C   0  0  0  0  0  0  0  0  0  0  0  0
    5.0125    0.0692    0.0006 C   0  0  0  0  0  0  0  0  0  0  0  0
   -4.4654    2.2972   -0.0001 C   0  0  0  0  0  0  0  0  0  0  0  0
    4.3208    2.3819    0.0010 C   0  0  0  0  0  0  0  0  0  0  0  0
    5.3319    1.4282    0.0012 C   0  0  0  0  0  0  0  0  0  0  0  0
   -5.7673   -0.7465    1.2508 C   0  0  0  0  0  0  0  0  0  0  0  0
   -5.7730   -0.7331   -1.2489 C   0  0  0  0  0  0  0  0  0  0  0  0
  1  8  1  0
  1  9  1  0
  2  5  2  0
  2  7  1  0
  3 10  1  0
  3 22  1  0
  3 23  1  0
  4 15  2  0
  5  6  1  0
  5  9  1  0
  6 11  2  0
  6 17  1  0
  7  8  2  0
  7 14  1  0
  8 13  1  0
  9 16  2  0
 10 12  1  0
 10 13  2  0
 11 15  1  0
 11 18  1  0
 12 14  2  0
 12 19  1  0
 15 16  1  0
 17 20  2  0
 18 21  2  0
 20 21  1  0
M  CHG  1   4   1
M  END
>  <PUBCHEM_COMPOUND_CID>  (1) 
29093

>  <PUBCHEM_CONFORMER_RMSD>  (1) 
0.6

>  <PUBCHEM_CONFORMER_DIVERSEORDER>  (1) 
1

>  <PUBCHEM_MMFF94_PARTIAL_CHARGES>  (1) 
32
1 -0.16
10 0.1
11 0.09
12 -0.14
13 -0.15
14 -0.15
15 0.3
16 -0.14
17 -0.15
18 -0.15
19 0.14
2 -0.63
20 -0.15
21 -0.15
22 0.37
23 0.37
24 0.15
25 0.15
26 0.15
27 0.15
28 0.15
3 -0.84
32 0.15
33 0.15
4 -0.2
40 0.4
41 0.4
5 0.35
6 0.09
7 0.18
8 0.08
9 0.09

>  <PUBCHEM_EFFECTIVE_ROTOR_COUNT>  (1) 
1

>  <PUBCHEM_PHARMACOPHORE_FEATURES>  (1) 
9
1 1 acceptor
1 2 acceptor
1 3 cation
1 4 acceptor
1 4 donor
6 1 2 5 7 8 9 rings
6 5 6 9 11 15 16 rings
6 6 11 17 18 20 21 rings
6 7 8 10 12 13 14 rings

>  <PUBCHEM_HEAVY_ATOM_COUNT>  (1) 
23

>  <PUBCHEM_ATOM_DEF_STEREO_COUNT>  (1) 
0

>  <PUBCHEM_ATOM_UDEF_STEREO_COUNT>  (1) 
0

>  <PUBCHEM_BOND_DEF_STEREO_COUNT>  (1) 
0

>  <PUBCHEM_BOND_UDEF_STEREO_COUNT>  (1) 
0

>  <PUBCHEM_ISOTOPIC_ATOM_COUNT>  (1) 
0

>  <PUBCHEM_COMPONENT_COUNT>  (1) 
1

>  <PUBCHEM_CACTVS_TAUTO_COUNT>  (1) 
1

>  <PUBCHEM_CONFORMER_ID>  (1) 
000071A500000001

>  <PUBCHEM_MMFF94_ENERGY>  (1) 
97.3723

>  <PUBCHEM_FEATURE_SELFOVERLAP>  (1) 
45.761

>  <PUBCHEM_SHAPE_FINGERPRINT>  (1) 
10 15 18189330333585511240
10411042 1 17474107592698639750
10595046 47 18342173388615959045
10835480 77 18334568032738747301
10967382 1 18410856573257992416
11578080 2 13335605517167534172
12107183 9 17836933295590101705
12236239 1 17775569749212301179
12403259 118 18268981008077742161
12403259 226 18191300486190997668
12403259 415 18114180792094904853
12507560 40 18408326562257593637
12730499 353 18337680801464135658
12788726 201 17274833406464912617
12838862 33 18267285690841346656
13009979 54 17558275319858508666
13073987 5 18410576158637187161
13140716 1 18265056821235205521
13167823 11 18412823551888234071
13533116 47 18413951684930189850
14251764 18 18333726928060551304
14341114 176 18409455777821348467
14528608 73 18412825797955637556
14787075 74 18341611551122189123
14790565 3 18412549790599122409
15196674 1 18410856521037850917
15536298 74 18413108329842462390
15961568 22 17386009507127807764
17492 89 18268431243737833518
17834072 33 18342454846243846103
17844677 252 18340494361287709811
1813 80 16950005819978793588
18681886 176 18272644615967668426
19489759 90 15647046076049195645
200 152 18201716245855959149
20028762 73 18272362028014822798
20645477 70 18342740685266285630
21236236 1 18412545393233249129
21267235 1 18411427185174840838
21279426 13 18266178340016852541
221490 88 18337115561955541826
22149856 69 18265354922705455427
23522609 53 17844834614324437969
23559900 14 18269270158499016978
239999 70 18273221881009826526
245318 6 17027421519417194140
3004659 81 18335139748751593650
335352 9 18410575111572463414
33824 294 18408603669563898186
34797466 226 17703799157937784348
350125 39 18410294666691688116
3545911 37 18409450314744195740
4073 2 18113344119549041843
4214541 1 18410573942534412353
42630746 31 18412825802762333566
4325135 7 18343579659782386967
4340502 62 17385439951229367298
474 4 17967536817590828916
474229 33 18410575127887207887
5104073 3 18336548214008292729
542803 24 17275390914778963689
543358 83 18340209588076848216
59755656 215 18408888443117625446
7364860 26 18412545384584947998
77779 3 18410856525454247961
8272917 22 18413674604269564438
9709674 26 18409736135827234139

>  <PUBCHEM_SHAPE_MULTIPOLES>  (1) 
452.52
13.24
2.56
0.74
6.82
0
0
-1.25
0
-2.07
0
0.82
0.09
0.01

>  <PUBCHEM_SHAPE_SELFOVERLAP>  (1) 
1009.321

>  <PUBCHEM_SHAPE_VOLUME>  (1) 
238.9

>  <PUBCHEM_COORDINATE_TYPE>  (1) 
2
5
10

$$$$
