29100
     RDKit          3D

 21 22  0  0  0  0  0  0  0  0999 V2000
   -0.4494   -1.4155   -0.7078 O   0  0  0  0  0  0  0  0  0  0  0  0
   -2.5593   -2.8744    0.4918 N   0  0  0  0  0  0  0  0  0  0  0  0
    0.2516   -0.2149   -1.0023 C   0  0  0  0  0  0  0  0  0  0  0  0
   -0.5237    0.9802   -0.4879 C   0  0  0  0  0  0  0  0  0  0  0  0
    1.6787   -0.2569   -0.4910 C   0  0  0  0  0  0  0  0  0  0  0  0
   -1.7359   -1.4300   -1.3126 C   0  0  0  0  0  0  0  0  0  0  0  0
   -2.4276   -2.7367   -0.9582 C   0  0  0  0  0  0  0  0  0  0  0  0
   -1.0535    1.8816   -1.3939 C   0  0  0  0  0  0  0  0  0  0  0  0
    2.6748    0.3603   -1.2249 C   0  0  0  0  0  0  0  0  0  0  0  0
   -0.6844    1.1426    0.8765 C   0  0  0  0  0  0  0  0  0  0  0  0
    1.9481   -0.9114    0.6967 C   0  0  0  0  0  0  0  0  0  0  0  0
   -1.9399    3.1629    0.4523 C   0  0  0  0  0  0  0  0  0  0  0  0
    4.2801   -0.3339    0.4416 C   0  0  0  0  0  0  0  0  0  0  0  0
   -1.7674    2.9821   -0.9198 C   0  0  0  0  0  0  0  0  0  0  0  0
    3.9873    0.3212   -0.7543 C   0  0  0  0  0  0  0  0  0  0  0  0
   -1.3985    2.2432    1.3507 C   0  0  0  0  0  0  0  0  0  0  0  0
    3.2606   -0.9503    1.1672 C   0  0  0  0  0  0  0  0  0  0  0  0
   -3.1872   -4.1514    0.8289 C   0  0  0  0  0  0  0  0  0  0  0  0
   -3.3336   -1.7628    1.0427 C   0  0  0  0  0  0  0  0  0  0  0  0
   -2.7041    4.3389    0.9591 C   0  0  0  0  0  0  0  0  0  0  0  0
    5.6833   -0.3745    0.9452 C   0  0  0  0  0  0  0  0  0  0  0  0
  1  3  1  0
  1  6  1  0
  2  7  1  0
  2 18  1  0
  2 19  1  0
  3  4  1  0
  3  5  1  0
  4  8  2  0
  4 10  1  0
  5  9  2  0
  5 11  1  0
  6  7  1  0
  8 14  1  0
  9 15  1  0
 10 16  2  0
 11 17  2  0
 12 14  2  0
 12 16  1  0
 12 20  1  0
 13 15  2  0
 13 17  1  0
 13 21  1  0
M  END
>  <PUBCHEM_COMPOUND_CID>  (1) 
29100

>  <PUBCHEM_CONFORMER_RMSD>  (1) 
0.8

>  <PUBCHEM_CONFORMER_DIVERSEORDER>  (1) 
5
10
11
2
9
8
6
1
4
3
7

>  <PUBCHEM_MMFF94_PARTIAL_CHARGES>  (1) 
29
1 -0.56
10 -0.15
11 -0.15
12 -0.14
13 -0.14
14 -0.15
15 -0.15
16 -0.15
17 -0.15
18 0.27
19 0.27
2 -0.81
20 0.14
21 0.14
27 0.15
28 0.15
29 0.15
3 0.57
30 0.15
31 0.15
32 0.15
33 0.15
34 0.15
4 -0.14
5 -0.14
6 0.28
7 0.27
8 -0.15
9 -0.15

>  <PUBCHEM_EFFECTIVE_ROTOR_COUNT>  (1) 
6

>  <PUBCHEM_PHARMACOPHORE_FEATURES>  (1) 
4
1 1 acceptor
1 2 cation
6 4 8 10 12 14 16 rings
6 5 9 11 13 15 17 rings

>  <PUBCHEM_HEAVY_ATOM_COUNT>  (1) 
21

>  <PUBCHEM_ATOM_DEF_STEREO_COUNT>  (1) 
0

>  <PUBCHEM_ATOM_UDEF_STEREO_COUNT>  (1) 
0

>  <PUBCHEM_BOND_DEF_STEREO_COUNT>  (1) 
0

>  <PUBCHEM_BOND_UDEF_STEREO_COUNT>  (1) 
0

>  <PUBCHEM_ISOTOPIC_ATOM_COUNT>  (1) 
0

>  <PUBCHEM_COMPONENT_COUNT>  (1) 
1

>  <PUBCHEM_CACTVS_TAUTO_COUNT>  (1) 
1

>  <PUBCHEM_CONFORMER_ID>  (1) 
000071AC00000005

>  <PUBCHEM_MMFF94_ENERGY>  (1) 
61.7911

>  <PUBCHEM_FEATURE_SELFOVERLAP>  (1) 
20.297

>  <PUBCHEM_SHAPE_FINGERPRINT>  (1) 
10090160 65 17837203780136631925
10764073 3 14759902863734977374
11357001 24 18411418410129159823
11582403 64 15434505890926845021
121448 382 18196073466135642021
12160290 23 18340768143909513253
12549972 3 17537140821114450411
12553582 1 18196655322382366350
12788726 201 18335998548193531858
13004483 165 18336551620022710115
13134695 92 17981036737304988271
13140716 1 18339642368614626789
133893 2 17191768893753246231
13955234 65 17115521640997099737
14178342 30 18336541621755946326
14787075 74 17845641535542137817
14955137 171 17550130472152406102
15842332 3 17967546661929996532
17868525 174 18048602805375309067
1813 80 18055644064031531710
19734167 9 17339893696082853163
19765921 60 17483943892255123145
20600515 1 17914348028132851822
21033648 29 16915687910799111531
21041028 32 18195536019797854439
21049683 118 17767090169684351777
21120745 212 18265630933777266580
21731228 192 17977666411600260469
23419403 2 17984402290821202641
23557571 272 18201995509077629652
23558518 356 18268144249733344799
23598288 3 18413387635908226790
283562 15 18336815477149723514
3091708 16 9131595264608709949
312423 11 18187091676408031868
3759504 43 18198339546541441264
4058900 60 17549838685059808240
4340502 62 17837781032621202041
4409770 3 18335410258550294895
474 4 17552351073197214640
5104073 3 18264752313298368522
59755656 520 18124030135646901212
81228 2 18412543193560738207
9981440 41 17272257216772848190

>  <PUBCHEM_SHAPE_MULTIPOLES>  (1) 
421.32
7.66
4.92
1.49
11.92
0.17
-0.09
-2.22
2.5
-9.89
1.34
-0.18
0.14
-0.46

>  <PUBCHEM_SHAPE_SELFOVERLAP>  (1) 
879.691

>  <PUBCHEM_SHAPE_VOLUME>  (1) 
242

>  <PUBCHEM_COORDINATE_TYPE>  (1) 
2
5
10

$$$$
