29103
     RDKit          3D

 20 21  0  0  1  0  0  0  0  0999 V2000
    0.3108   -1.9368    2.5031 Cl  0  0  0  0  0  0  0  0  0  0  0  0
    0.5751    1.1590   -0.0257 O   0  0  0  0  0  0  0  0  0  0  0  0
    4.2565    1.1242   -0.2041 N   0  0  0  0  0  0  0  0  0  0  0  0
   -0.4198    0.2933    0.5039 C   0  0  0  0  0  0  0  0  0  0  0  0
   -0.2784   -1.1192   -0.0295 C   0  0  0  0  0  0  0  0  0  0  0  0
   -1.7970    0.8773    0.2676 C   0  0  0  0  0  0  0  0  0  0  0  0
    1.8821    0.6391    0.1799 C   0  0  0  0  0  0  0  0  0  0  0  0
    2.8925    1.6109   -0.4083 C   0  0  0  0  0  0  0  0  0  0  0  0
    0.0474   -2.1672    0.8129 C   0  0  0  0  0  0  0  0  0  0  0  0
   -0.4875   -1.3162   -1.3840 C   0  0  0  0  0  0  0  0  0  0  0  0
   -2.8107    0.5998    1.1675 C   0  0  0  0  0  0  0  0  0  0  0  0
   -2.0099    1.6755   -0.8423 C   0  0  0  0  0  0  0  0  0  0  0  0
    4.5236    0.9355    1.2213 C   0  0  0  0  0  0  0  0  0  0  0  0
    5.2234    2.0537   -0.7867 C   0  0  0  0  0  0  0  0  0  0  0  0
    0.1681   -3.4529    0.2854 C   0  0  0  0  0  0  0  0  0  0  0  0
   -0.3667   -2.6020   -1.9114 C   0  0  0  0  0  0  0  0  0  0  0  0
   -4.0791    1.1379    0.9501 C   0  0  0  0  0  0  0  0  0  0  0  0
   -3.2784    2.2136   -1.0595 C   0  0  0  0  0  0  0  0  0  0  0  0
   -0.0390   -3.6702   -1.0768 C   0  0  0  0  0  0  0  0  0  0  0  0
   -4.3129    1.9447   -0.1633 C   0  0  0  0  0  0  0  0  0  0  0  0
  1  9  1  0
  2  4  1  0
  2  7  1  0
  3  8  1  0
  3 13  1  0
  3 14  1  0
  4  5  1  0
  4  6  1  0
  5  9  2  0
  5 10  1  0
  6 11  2  0
  6 12  1  0
  7  8  1  0
  9 15  1  0
 10 16  2  0
 11 17  1  0
 12 18  2  0
 15 19  2  0
 16 19  1  0
 17 20  2  0
 18 20  1  0
M  END
>  <PUBCHEM_COMPOUND_CID>  (1) 
29103

>  <PUBCHEM_CONFORMER_RMSD>  (1) 
0.8

>  <PUBCHEM_CONFORMER_DIVERSEORDER>  (1) 
1
28
35
37
12
25
30
24
31
39
8
7
26
38
21
11
17
29
36
32
10
22
15
16
33
3
18
2
20
27
34
19
5
9
23
4
14
13
6

>  <PUBCHEM_MMFF94_PARTIAL_CHARGES>  (1) 
29
1 -0.18
10 -0.15
11 -0.15
12 -0.15
13 0.27
14 0.27
15 -0.15
16 -0.15
17 -0.15
18 -0.15
19 -0.15
2 -0.56
20 -0.15
26 0.15
27 0.15
28 0.15
3 -0.81
35 0.15
36 0.15
37 0.15
38 0.15
39 0.15
4 0.57
40 0.15
5 -0.14
6 -0.14
7 0.28
8 0.27
9 0.18

>  <PUBCHEM_EFFECTIVE_ROTOR_COUNT>  (1) 
6

>  <PUBCHEM_PHARMACOPHORE_FEATURES>  (1) 
4
1 2 acceptor
1 3 cation
6 5 9 10 15 16 19 rings
6 6 11 12 17 18 20 rings

>  <PUBCHEM_HEAVY_ATOM_COUNT>  (1) 
20

>  <PUBCHEM_ATOM_DEF_STEREO_COUNT>  (1) 
0

>  <PUBCHEM_ATOM_UDEF_STEREO_COUNT>  (1) 
1

>  <PUBCHEM_BOND_DEF_STEREO_COUNT>  (1) 
0

>  <PUBCHEM_BOND_UDEF_STEREO_COUNT>  (1) 
0

>  <PUBCHEM_ISOTOPIC_ATOM_COUNT>  (1) 
0

>  <PUBCHEM_COMPONENT_COUNT>  (1) 
1

>  <PUBCHEM_CACTVS_TAUTO_COUNT>  (1) 
1

>  <PUBCHEM_CONFORMER_ID>  (1) 
000071AF00000001

>  <PUBCHEM_MMFF94_ENERGY>  (1) 
60.5207

>  <PUBCHEM_FEATURE_SELFOVERLAP>  (1) 
20.297

>  <PUBCHEM_SHAPE_FINGERPRINT>  (1) 
107951 10 18041577900804575474
11578080 2 16012402587972452431
12592029 89 18335703780324598032
12707595 3 17615979807497619283
12788726 201 18051120686364677298
13004483 165 17550382281906027982
13149001 5 17702375341814187144
133893 2 17979089188257500320
13681431 1 17621878691031805803
14251751 93 18410851088004428867
15502722 9 18196093240180571893
15906896 17 18191309483836252898
16752209 62 18197760292696887942
17539 30 17911792788853109886
1813 80 11386372495526008376
18222031 100 11242260653261629864
20101258 96 17688323699475967520
20197701 30 18411976949156436396
204376 136 18411702075581655777
21524375 3 18409167731375967393
21756936 100 17968379069615883224
22224240 67 18342469174893270345
23419403 2 17621374182693691163
23558518 356 17902503028459370160
23559900 14 17758674452088122955
23598288 3 17755604950514504092
23728640 28 18268431411647421810
298252 57 18413669114810496594
3027735 51 17987799768945659846
3411729 13 18192152599123333825
3729539 64 17982476827255284870
3759504 43 18336831982418423852
394222 165 18263075513971657336
559249 180 18411134754242655014
6138700 20 18050857620129584982
633830 44 17845107180905797989
6669772 16 18270970055247346934
7364860 26 18123751950541065129
81228 2 17762603384795818145
81539 233 18335983047798985381
9841814 1 17540535717408615561
9862522 239 18408881866926583219

>  <PUBCHEM_SHAPE_MULTIPOLES>  (1) 
402.61
7.54
4.08
1.69
5.87
4.12
-0.4
-10.54
-0.28
0.34
1.2
-0.06
1.14
-0.28

>  <PUBCHEM_SHAPE_SELFOVERLAP>  (1) 
834.973

>  <PUBCHEM_SHAPE_VOLUME>  (1) 
231.7

>  <PUBCHEM_COORDINATE_TYPE>  (1) 
2
5
10

$$$$
