29118
     RDKit          3D

 18 19  0  0  0  0  0  0  0  0999 V2000
    1.5129   -2.5640    0.0681 S   0  0  0  0  0  0  0  0  0  0  0  0
   -2.6557   -0.4708   -0.0414 O   0  0  0  0  0  0  0  0  0  0  0  0
   -5.8012    1.0495   -0.1275 O   0  0  0  0  0  0  0  0  0  0  0  0
   -5.1927   -1.0623   -0.2176 O   0  0  0  0  0  0  0  0  0  0  0  0
    1.0612   -0.0218    0.1929 N   0  0  0  0  0  0  0  0  0  0  0  0
    3.3402   -0.6437    0.2869 N   0  0  0  0  0  0  0  0  0  0  0  0
    3.8383    0.6125    0.3904 N   0  0  0  0  0  0  0  0  0  0  0  0
   -4.8958    0.1650   -0.1288 N   0  0  0  0  0  0  0  0  0  0  0  0
   -1.4256    0.0978    0.0600 C   0  0  0  0  0  0  0  0  0  0  0  0
   -0.1598   -0.6583    0.0862 C   0  0  0  0  0  0  0  0  0  0  0  0
   -1.5308    1.4672    0.1342 C   0  0  0  0  0  0  0  0  0  0  0  0
    2.0087   -0.9286    0.1932 C   0  0  0  0  0  0  0  0  0  0  0  0
   -3.5562    0.5467   -0.0322 C   0  0  0  0  0  0  0  0  0  0  0  0
   -0.1173   -2.0346    0.0081 C   0  0  0  0  0  0  0  0  0  0  0  0
   -2.9145    1.7587    0.0742 C   0  0  0  0  0  0  0  0  0  0  0  0
    5.0172    0.8387   -0.1047 C   0  0  0  0  0  0  0  0  0  0  0  0
    5.7361    2.1659   -0.0863 C   0  0  0  0  0  0  0  0  0  0  0  0
    5.7348   -0.3180   -0.7559 C   0  0  0  0  0  0  0  0  0  0  0  0
  1 12  1  0
  1 14  1  0
  2  9  1  0
  2 13  1  0
  3  8  1  0
  4  8  2  0
  5 10  1  0
  5 12  2  0
  6  7  1  0
  6 12  1  0
  7 16  2  3
  8 13  1  0
  9 10  1  0
  9 11  2  0
 10 14  2  0
 11 15  1  0
 13 15  2  0
 16 17  1  0
 16 18  1  0
M  CHG  2   3  -1   8   1
M  END
>  <PUBCHEM_COMPOUND_CID>  (1) 
29118

>  <PUBCHEM_CONFORMER_RMSD>  (1) 
0.6

>  <PUBCHEM_CONFORMER_DIVERSEORDER>  (1) 
1
5
24
6
14
21
10
16
22
2
12
23
3
4
9
13
8
7
19
15
18
11
17
20

>  <PUBCHEM_MMFF94_PARTIAL_CHARGES>  (1) 
22
1 -0.08
10 0.23
11 -0.15
12 0.46
13 0.22
14 -0.11
15 -0.15
16 0.33
17 0.06
18 0.06
19 0.15
2 -0.28
20 0.15
21 0.15
22 0.4
3 -0.52
4 -0.52
5 -0.57
6 -0.44
7 -0.49
8 0.96
9 0.14

>  <PUBCHEM_EFFECTIVE_ROTOR_COUNT>  (1) 
4

>  <PUBCHEM_PHARMACOPHORE_FEATURES>  (1) 
9
1 2 acceptor
1 3 acceptor
1 3 anion
1 4 acceptor
1 6 donor
1 7 acceptor
3 5 6 12 cation
5 1 5 10 12 14 rings
5 2 9 11 13 15 rings

>  <PUBCHEM_HEAVY_ATOM_COUNT>  (1) 
18

>  <PUBCHEM_ATOM_DEF_STEREO_COUNT>  (1) 
0

>  <PUBCHEM_ATOM_UDEF_STEREO_COUNT>  (1) 
0

>  <PUBCHEM_BOND_DEF_STEREO_COUNT>  (1) 
0

>  <PUBCHEM_BOND_UDEF_STEREO_COUNT>  (1) 
0

>  <PUBCHEM_ISOTOPIC_ATOM_COUNT>  (1) 
0

>  <PUBCHEM_COMPONENT_COUNT>  (1) 
1

>  <PUBCHEM_CACTVS_TAUTO_COUNT>  (1) 
2

>  <PUBCHEM_CONFORMER_ID>  (1) 
000071BE00000001

>  <PUBCHEM_MMFF94_ENERGY>  (1) 
33.4013

>  <PUBCHEM_FEATURE_SELFOVERLAP>  (1) 
45.762

>  <PUBCHEM_SHAPE_FINGERPRINT>  (1) 
10090160 65 18187079559561835135
10670039 82 18262249820222454964
12730499 353 18343027692118922138
12760667 363 9078848363499161824
12916748 109 18412829092691451528
13081056 2 18411700976618498348
13533116 47 17023174977892325570
13685833 64 10015577320331065893
14251752 14 12966863298728835139
14251764 18 18259981570905214290
14528608 73 18411699889627658764
14787075 74 18412541033223875635
15196674 1 18338516335294896097
17834072 33 18412543189165771246
19784866 140 16558754477343901746
204376 136 18408886239346059530
20645477 56 18339080505873610824
20645477 70 17203342083286768462
21652331 79 18408321081937768484
221357 26 18060702771629801232
22620623 9 16701163360744163014
23016692 55 8718552761579678184
23253445 4 12901553472687228062
23272321 79 18409166636116998317
23402539 116 18341326772962362551
23559900 14 17979343162775307843
245318 6 17533236381919521044
3472631 163 18190470535844050676
351380 3 10952056641354123212
3545911 37 18334860502398718454
4325135 7 18410571799567096271
4340502 62 16877663448260846499
474 4 17967538982301682372
474229 33 18410292531781887571
4990 188 17846785074910716174
5104073 3 18189057486807208281
54446538 1 18411136918621673296
5486654 2 18413107277565003319
59682541 35 18261402204083603691
59755656 520 17967530190425233874
67856867 119 18262228898819473386
8863177 126 11886802122196356557

>  <PUBCHEM_SHAPE_MULTIPOLES>  (1) 
336.75
13.4
2.22
0.64
2.63
0.54
0.02
-6.62
1.82
1.22
-0.05
0.27
0.02
-0.05

>  <PUBCHEM_SHAPE_SELFOVERLAP>  (1) 
699.538

>  <PUBCHEM_SHAPE_VOLUME>  (1) 
195.5

>  <PUBCHEM_COORDINATE_TYPE>  (1) 
2
5
10

$$$$
