29113
     RDKit          3D

 20 23  0  0  0  0  0  0  0  0999 V2000
    0.6770   -3.1918   -0.0002 O   0  0  0  0  0  0  0  0  0  0  0  0
    3.1817   -2.3790   -0.0031 O   0  0  0  0  0  0  0  0  0  0  0  0
    0.1176    0.3840    0.0007 C   0  0  0  0  0  0  0  0  0  0  0  0
   -0.1966   -0.9861    0.0015 C   0  0  0  0  0  0  0  0  0  0  0  0
    1.5316    0.8437    0.0004 C   0  0  0  0  0  0  0  0  0  0  0  0
    2.5931   -0.0822   -0.0002 C   0  0  0  0  0  0  0  0  0  0  0  0
   -2.3174    0.8359   -0.0004 C   0  0  0  0  0  0  0  0  0  0  0  0
   -2.5922   -0.5454    0.0009 C   0  0  0  0  0  0  0  0  0  0  0  0
   -0.9767    1.2743   -0.0004 C   0  0  0  0  0  0  0  0  0  0  0  0
   -1.5228   -1.4476    0.0019 C   0  0  0  0  0  0  0  0  0  0  0  0
    0.8837   -1.9878    0.0007 C   0  0  0  0  0  0  0  0  0  0  0  0
    2.3069   -1.5265   -0.0007 C   0  0  0  0  0  0  0  0  0  0  0  0
    1.8947    2.2061    0.0011 C   0  0  0  0  0  0  0  0  0  0  0  0
    3.9368    0.3238   -0.0003 C   0  0  0  0  0  0  0  0  0  0  0  0
   -3.3893    1.7453   -0.0019 C   0  0  0  0  0  0  0  0  0  0  0  0
   -3.9268   -0.9859    0.0013 C   0  0  0  0  0  0  0  0  0  0  0  0
    3.2331    2.6174    0.0007 C   0  0  0  0  0  0  0  0  0  0  0  0
    4.2537    1.6766    0.0001 C   0  0  0  0  0  0  0  0  0  0  0  0
   -4.7098    1.2949   -0.0019 C   0  0  0  0  0  0  0  0  0  0  0  0
   -4.9784   -0.0698   -0.0003 C   0  0  0  0  0  0  0  0  0  0  0  0
  1 11  2  0
  2 12  2  0
  3  4  1  0
  3  5  1  0
  3  9  2  0
  4 10  2  0
  4 11  1  0
  5  6  2  0
  5 13  1  0
  6 12  1  0
  6 14  1  0
  7  8  2  0
  7  9  1  0
  7 15  1  0
  8 10  1  0
  8 16  1  0
 11 12  1  0
 13 17  2  0
 14 18  2  0
 15 19  2  0
 16 20  2  0
 17 18  1  0
 19 20  1  0
M  END
>  <PUBCHEM_COMPOUND_CID>  (1) 
29113

>  <PUBCHEM_CONFORMER_RMSD>  (1) 
0.6

>  <PUBCHEM_CONFORMER_DIVERSEORDER>  (1) 
1

>  <PUBCHEM_MMFF94_PARTIAL_CHARGES>  (1) 
26
1 -0.57
10 -0.15
11 0.48
12 0.48
13 -0.15
14 -0.15
15 -0.15
16 -0.15
17 -0.15
18 -0.15
19 -0.15
2 -0.57
20 -0.15
21 0.15
22 0.15
23 0.15
24 0.15
25 0.15
26 0.15
27 0.15
28 0.15
29 0.15
30 0.15
4 0.09
6 0.09
9 -0.15

>  <PUBCHEM_EFFECTIVE_ROTOR_COUNT>  (1) 
0

>  <PUBCHEM_PHARMACOPHORE_FEATURES>  (1) 
6
1 1 acceptor
1 2 acceptor
6 3 4 5 6 11 12 rings
6 3 4 7 8 9 10 rings
6 5 6 13 14 17 18 rings
6 7 8 15 16 19 20 rings

>  <PUBCHEM_HEAVY_ATOM_COUNT>  (1) 
20

>  <PUBCHEM_ATOM_DEF_STEREO_COUNT>  (1) 
0

>  <PUBCHEM_ATOM_UDEF_STEREO_COUNT>  (1) 
0

>  <PUBCHEM_BOND_DEF_STEREO_COUNT>  (1) 
0

>  <PUBCHEM_BOND_UDEF_STEREO_COUNT>  (1) 
0

>  <PUBCHEM_ISOTOPIC_ATOM_COUNT>  (1) 
0

>  <PUBCHEM_COMPONENT_COUNT>  (1) 
1

>  <PUBCHEM_CACTVS_TAUTO_COUNT>  (1) 
1

>  <PUBCHEM_CONFORMER_ID>  (1) 
000071B900000001

>  <PUBCHEM_MMFF94_ENERGY>  (1) 
62.6277

>  <PUBCHEM_FEATURE_SELFOVERLAP>  (1) 
30.521

>  <PUBCHEM_SHAPE_FINGERPRINT>  (1) 
10411042 1 17618222802154380067
10608611 8 18336263457813801629
10616163 171 18339363088445734967
10967382 1 18410574002579337600
1100329 8 18408599237005447690
11370993 70 18410007783923792993
11471102 20 18410571747652909559
12107183 9 17837215870521694737
12173636 292 18050846920764397644
12403259 226 18189893106653579628
12403259 415 18113899304544736581
12592029 89 18409450301632441034
12644460 14 18334580105147452866
12788726 201 17130999663950128745
13009979 54 17485936241821308394
13140716 1 18408602547949686690
138480 1 18050568443717258562
14787075 74 18057322997165359833
14790565 3 18264497358943662188
15196674 1 18410855439070095683
15442244 35 18267868267919214776
15536298 74 18341613689646715199
16945 1 18266740168999562018
17492 89 18411699881196804631
18186145 218 18272381857661666600
19591789 44 18195528309877857931
200 152 18131066048292588949
20157964 124 18338229372257537637
20645477 70 18342739576848134255
21267235 1 18339651048501276663
21421861 104 17970342620508424912
21452121 103 18411973655375417666
221490 88 18409175385044761547
22854114 111 18409730651148300117
23227448 37 18341894155490916407
23366157 5 18113902615526606530
23402539 116 18271519917870849556
23558518 356 17900540382923583434
23559900 14 18340763724224745138
25 1 18410008870919667052
2748010 2 18336838575209066974
3091708 16 9261089117004568850
335352 9 18266458694059807551
33824 294 18409166619137439896
350125 39 18409167684563889204
3545911 37 18409451401323669717
42630746 31 18413107259989332919
474 4 18408040731983747281
5104073 3 18408325454361773521
543358 83 18340773628392916977
58051976 378 18341331175251041309
59755656 215 18410015429477166172
6138700 20 18339084779440209302
633830 44 18343866623411089781
69090 78 18339921631419494381
7364860 26 18411981321390848270
77779 3 18410857646736150289
7808743 9 17977944923646181624
8272917 22 18341336604226749511
84936 182 18273212014826733264
9709674 26 18409735066696908011
9981440 41 18121212345148217322

>  <PUBCHEM_SHAPE_MULTIPOLES>  (1) 
399.85
8.83
2.89
0.61
4.89
0.91
0
-3.44
0
-2.07
0
0.02
-0.03
0

>  <PUBCHEM_SHAPE_SELFOVERLAP>  (1) 
918.437

>  <PUBCHEM_SHAPE_VOLUME>  (1) 
204.4

>  <PUBCHEM_COORDINATE_TYPE>  (1) 
2
5
10

$$$$
