29126
     RDKit          3D

 19 21  0  0  0  0  0  0  0  0999 V2000
    2.9936   -1.2520   -1.4318 N   0  0  0  0  0  0  0  0  0  0  0  0
   -1.1279   -0.6404    0.8941 N   0  0  0  0  0  0  0  0  0  0  0  0
   -3.0952   -1.1564   -0.3229 N   0  0  0  0  0  0  0  0  0  0  0  0
   -1.7503    2.0990    0.8205 N   0  0  0  0  0  0  0  0  0  0  0  0
    1.6746   -1.5134    0.3342 C   0  0  0  0  0  0  0  0  0  0  0  0
    0.7766   -2.1245    1.3352 C   0  0  0  0  0  0  0  0  0  0  0  0
    2.1285   -0.1649    0.3138 C   0  0  0  0  0  0  0  0  0  0  0  0
   -0.7208   -2.0236    0.9859 C   0  0  0  0  0  0  0  0  0  0  0  0
    2.9540   -0.0273   -0.8041 C   0  0  0  0  0  0  0  0  0  0  0  0
    2.2234   -2.1564   -0.7512 C   0  0  0  0  0  0  0  0  0  0  0  0
    1.9155    0.9553    1.1415 C   0  0  0  0  0  0  0  0  0  0  0  0
    3.5795    1.1795   -1.1371 C   0  0  0  0  0  0  0  0  0  0  0  0
    2.5348    2.1688    0.8208 C   0  0  0  0  0  0  0  0  0  0  0  0
    3.3535    2.2769   -0.3014 C   0  0  0  0  0  0  0  0  0  0  0  0
   -2.2838   -0.2207    0.2565 C   0  0  0  0  0  0  0  0  0  0  0  0
   -2.5940    1.1455    0.2201 C   0  0  0  0  0  0  0  0  0  0  0  0
   -3.7565    1.5578   -0.4217 C   0  0  0  0  0  0  0  0  0  0  0  0
   -4.5888    0.6146   -1.0144 C   0  0  0  0  0  0  0  0  0  0  0  0
   -4.2165   -0.7179   -0.9379 C   0  0  0  0  0  0  0  0  0  0  0  0
  1  9  1  0
  1 10  1  0
  2  8  1  0
  2 15  1  0
  3 15  2  0
  3 19  1  0
  4 16  1  0
  5  6  1  0
  5  7  1  0
  5 10  2  0
  6  8  1  0
  7  9  2  0
  7 11  1  0
  9 12  1  0
 11 13  2  0
 12 14  2  0
 13 14  1  0
 15 16  1  0
 16 17  2  0
 17 18  1  0
 18 19  2  0
M  END
>  <PUBCHEM_COMPOUND_CID>  (1) 
29126

>  <PUBCHEM_CONFORMER_RMSD>  (1) 
0.6

>  <PUBCHEM_CONFORMER_DIVERSEORDER>  (1) 
8
24
47
44
50
33
25
23
37
5
71
29
27
41
69
74
53
28
62
15
2
79
10
63
48
31
60
38
56
22
64
52
3
61
45
26
51
78
13
49
66
18
1
12
7
32
59
76
21
9
67
35
30
58
34
19
16
77
55
75
20
57
65
39
73
72
40
17
11
42
54
4
68
6
14
36
43
46
70

>  <PUBCHEM_MMFF94_PARTIAL_CHARGES>  (1) 
30
1 0.03
10 -0.3
11 -0.15
12 -0.15
13 -0.15
14 -0.15
15 0.41
16 0.1
17 -0.15
18 -0.15
19 0.16
2 -0.87
24 0.15
25 0.27
26 0.15
27 0.4
28 0.15
29 0.15
3 -0.62
30 0.15
31 0.15
32 0.15
33 0.15
34 0.4
35 0.4
4 -0.9
5 -0.18
6 0.18
8 0.37
9 -0.15

>  <PUBCHEM_EFFECTIVE_ROTOR_COUNT>  (1) 
4

>  <PUBCHEM_PHARMACOPHORE_FEATURES>  (1) 
10
1 1 cation
1 1 donor
1 2 cation
1 2 donor
1 3 acceptor
1 4 cation
1 4 donor
5 1 5 7 9 10 rings
6 3 15 16 17 18 19 rings
6 7 9 11 12 13 14 rings

>  <PUBCHEM_HEAVY_ATOM_COUNT>  (1) 
19

>  <PUBCHEM_ATOM_DEF_STEREO_COUNT>  (1) 
0

>  <PUBCHEM_ATOM_UDEF_STEREO_COUNT>  (1) 
0

>  <PUBCHEM_BOND_DEF_STEREO_COUNT>  (1) 
0

>  <PUBCHEM_BOND_UDEF_STEREO_COUNT>  (1) 
0

>  <PUBCHEM_ISOTOPIC_ATOM_COUNT>  (1) 
0

>  <PUBCHEM_COMPONENT_COUNT>  (1) 
1

>  <PUBCHEM_CACTVS_TAUTO_COUNT>  (1) 
4

>  <PUBCHEM_CONFORMER_ID>  (1) 
000071C600000008

>  <PUBCHEM_MMFF94_ENERGY>  (1) 
56.3552

>  <PUBCHEM_FEATURE_SELFOVERLAP>  (1) 
50.845

>  <PUBCHEM_SHAPE_FINGERPRINT>  (1) 
10498660 4 18259703419452527429
10764073 3 17478568393345295010
10871710 139 15528262926696895176
11370993 70 18262796405548579228
11640471 11 16733819938446702770
12363563 72 13254795711529849927
12714826 92 13470422049513106523
12892183 10 11025801989819331479
13224815 77 18334014995284410723
13294875 104 18186515480522820866
13464514 151 18336840727478182210
14250199 8 18340209596286922659
14251745 187 18410862079058198680
14252887 29 11023819582907050198
14957384 54 16951121914839263556
15210252 30 17895200973801926268
18186145 218 18334574603716365303
18981168 100 17677636252763283674
19752476 56 18412542076621639488
20775530 9 14331475920273214348
21524375 3 18333728044087682834
21634736 98 18270405975405783044
22749437 52 18260550060279835525
23557571 272 17971484132759012227
23559900 14 18200582588969531423
238 59 18200879577373013154
3323516 105 18272085050068330361
4028521 119 18409449232211879741
4280585 95 17483133548428731582
474 4 17967814959493439989
5262128 65 17988373558931571452
526903 126 18335983159689590345
5281201 14 18343306933448576719
5895379 119 17986107414175239272
6328613 192 17895481436120708124
633830 44 18337108973897521053
7808743 9 17678187198605048124
7832392 63 17981890735416386505
84936 182 18334852784036591202
9709674 26 18412545439797063151
9981440 41 18189328151230136522

>  <PUBCHEM_SHAPE_MULTIPOLES>  (1) 
371.09
8.28
2.72
1.29
6.65
0.01
-0.04
-3.2
-3.49
-1.45
0.46
-0.46
0.19
0.29

>  <PUBCHEM_SHAPE_SELFOVERLAP>  (1) 
809.382

>  <PUBCHEM_SHAPE_VOLUME>  (1) 
198.9

>  <PUBCHEM_COORDINATE_TYPE>  (1) 
2
5
10

$$$$
