29124
     RDKit          3D

 17 18  0  0  1  0  0  0  0  0999 V2000
   -1.2475   -2.0044   -0.7817 O   0  0  0  0  0  0  0  0  0  0  0  0
    1.1274   -0.6919    0.1855 N   0  0  0  0  0  0  0  0  0  0  0  0
    3.6116   -2.0998    0.3829 N   0  0  0  0  0  0  0  0  0  0  0  0
    4.7899    1.3433   -0.1940 N   0  0  0  0  0  0  0  0  0  0  0  0
   -1.3362   -1.0006    0.2382 C   0  0  0  0  0  0  0  0  0  0  0  0
   -0.1624   -0.0122    0.0896 C   0  0  0  0  0  0  0  0  0  0  0  0
   -2.6608   -0.3223    0.1390 C   0  0  0  0  0  0  0  0  0  0  0  0
    2.3324   -0.0384    0.0644 C   0  0  0  0  0  0  0  0  0  0  0  0
   -3.2784    0.1731    1.2874 C   0  0  0  0  0  0  0  0  0  0  0  0
   -3.2819   -0.1829   -1.1022 C   0  0  0  0  0  0  0  0  0  0  0  0
    3.5668   -0.7120    0.1583 C   0  0  0  0  0  0  0  0  0  0  0  0
    2.3725    1.3508   -0.1634 C   0  0  0  0  0  0  0  0  0  0  0  0
   -4.5171    0.8076    1.1948 C   0  0  0  0  0  0  0  0  0  0  0  0
   -4.5206    0.4518   -1.1948 C   0  0  0  0  0  0  0  0  0  0  0  0
   -5.1382    0.9470   -0.0462 C   0  0  0  0  0  0  0  0  0  0  0  0
    4.7417    0.0102    0.0246 C   0  0  0  0  0  0  0  0  0  0  0  0
    3.6009    1.9806   -0.2826 C   0  0  0  0  0  0  0  0  0  0  0  0
  1  5  1  0
  2  6  1  0
  2  8  1  0
  3 11  1  0
  4 16  2  0
  4 17  1  0
  5  6  1  0
  5  7  1  0
  7  9  2  0
  7 10  1  0
  8 11  2  0
  8 12  1  0
  9 13  1  0
 10 14  2  0
 11 16  1  0
 12 17  2  0
 13 15  2  0
 14 15  1  0
M  END
>  <PUBCHEM_COMPOUND_CID>  (1) 
29124

>  <PUBCHEM_CONFORMER_RMSD>  (1) 
0.6

>  <PUBCHEM_CONFORMER_DIVERSEORDER>  (1) 
1
19
11
31
23
17
28
35
38
10
5
13
32
9
29
20
30
3
7
8
15
26
40
39
22
12
21
24
37
16
18
36
33
6
34
4
25
27
14
2

>  <PUBCHEM_MMFF94_PARTIAL_CHARGES>  (1) 
29
1 -0.68
10 -0.15
11 0.1
12 -0.15
13 -0.15
14 -0.15
15 -0.15
16 0.16
17 0.16
2 -0.87
21 0.4
22 0.15
23 0.15
24 0.4
25 0.15
26 0.15
27 0.15
28 0.15
29 0.15
3 -0.9
30 0.15
31 0.4
32 0.4
4 -0.62
5 0.42
6 0.37
7 -0.14
8 0.1
9 -0.15

>  <PUBCHEM_EFFECTIVE_ROTOR_COUNT>  (1) 
4

>  <PUBCHEM_PHARMACOPHORE_FEATURES>  (1) 
9
1 1 acceptor
1 1 donor
1 2 cation
1 2 donor
1 3 cation
1 3 donor
1 4 acceptor
6 4 8 11 12 16 17 rings
6 7 9 10 13 14 15 rings

>  <PUBCHEM_HEAVY_ATOM_COUNT>  (1) 
17

>  <PUBCHEM_ATOM_DEF_STEREO_COUNT>  (1) 
0

>  <PUBCHEM_ATOM_UDEF_STEREO_COUNT>  (1) 
1

>  <PUBCHEM_BOND_DEF_STEREO_COUNT>  (1) 
0

>  <PUBCHEM_BOND_UDEF_STEREO_COUNT>  (1) 
0

>  <PUBCHEM_ISOTOPIC_ATOM_COUNT>  (1) 
0

>  <PUBCHEM_COMPONENT_COUNT>  (1) 
1

>  <PUBCHEM_CACTVS_TAUTO_COUNT>  (1) 
4

>  <PUBCHEM_CONFORMER_ID>  (1) 
000071C400000001

>  <PUBCHEM_MMFF94_ENERGY>  (1) 
66.4067

>  <PUBCHEM_FEATURE_SELFOVERLAP>  (1) 
45.678

>  <PUBCHEM_SHAPE_FINGERPRINT>  (1) 
10014705 185 18334572486149762887
10912923 1 18202280299368224723
11089746 13 17846775235230454760
11471102 20 18408884045049982524
12236239 1 18060699481014387111
12596602 18 13912327892913815980
128620 24 11095883769708838081
13167372 99 18269277863897375065
13583140 156 18187088390241455899
13675066 3 17603308158718937479
17834072 33 18341609356251696879
17870717 6 14764635226674939749
18186145 218 18333453148847661410
19489759 90 16128656336289558457
20300324 65 17060618906584977881
20645477 56 17822007627148618519
20645477 70 18409446951785238238
21033648 29 17895179009454932853
21033650 10 16629431106225942528
21065201 7 15195570078328010223
212847 35 18272369758828451944
23402539 116 17632294558013531801
23402655 69 18340769338353513084
23559900 14 18202284697852780534
300161 21 18131346419156665096
3268164 11 16128373744969900585
34797466 226 15051727637860763537
3545911 37 18334580169635291288
474 4 18343023255312086847
5104073 3 18262514909513348442
542803 24 17989489623368671857
543358 83 18412545414438677014
5924683 9 17386294319488902595
633830 44 18201166455482191335
8272917 22 18341052926264632158
90127 26 17676769794835630213
9971528 1 18130505245875543690

>  <PUBCHEM_SHAPE_MULTIPOLES>  (1) 
329.04
12.23
1.66
1.01
0.17
0.17
0.02
-3.76
-0.02
-1.7
-0.12
1.39
-0.04
-0.58

>  <PUBCHEM_SHAPE_SELFOVERLAP>  (1) 
696.124

>  <PUBCHEM_SHAPE_VOLUME>  (1) 
182.4

>  <PUBCHEM_COORDINATE_TYPE>  (1) 
2
5
10

$$$$
