29130
     RDKit          3D

 23 24  0  0  0  0  0  0  0  0999 V2000
    1.2829   -0.0197   -0.1106 O   0  0  0  0  0  0  0  0  0  0  0  0
    4.1083   -0.2077   -0.0888 N   0  0  0  0  0  0  0  0  0  0  0  0
    0.0128    0.0287    0.5249 C   0  0  0  0  0  0  0  0  0  0  0  0
   -0.6241    1.3864    0.3128 C   0  0  0  0  0  0  0  0  0  0  0  0
   -0.8795   -1.1166    0.0868 C   0  0  0  0  0  0  0  0  0  0  0  0
    0.1828    2.4796    0.0413 C   0  0  0  0  0  0  0  0  0  0  0  0
   -1.2571   -2.0733    1.0138 C   0  0  0  0  0  0  0  0  0  0  0  0
   -2.0017    1.5099    0.3943 C   0  0  0  0  0  0  0  0  0  0  0  0
   -1.2984   -1.1821   -1.2314 C   0  0  0  0  0  0  0  0  0  0  0  0
    1.9087   -1.2833    0.0697 C   0  0  0  0  0  0  0  0  0  0  0  0
    3.2570   -1.2653   -0.6325 C   0  0  0  0  0  0  0  0  0  0  0  0
   -0.4037    3.7300   -0.1537 C   0  0  0  0  0  0  0  0  0  0  0  0
   -2.0776   -3.1269    0.6107 C   0  0  0  0  0  0  0  0  0  0  0  0
   -2.5882    2.7603    0.1991 C   0  0  0  0  0  0  0  0  0  0  0  0
   -2.1190   -2.2355   -1.6344 C   0  0  0  0  0  0  0  0  0  0  0  0
    1.6689    2.3561   -0.0485 C   0  0  0  0  0  0  0  0  0  0  0  0
   -0.8094   -2.0095    2.4375 C   0  0  0  0  0  0  0  0  0  0  0  0
   -2.8798    0.3372    0.6865 C   0  0  0  0  0  0  0  0  0  0  0  0
   -0.8954   -0.1538   -2.2375 C   0  0  0  0  0  0  0  0  0  0  0  0
   -1.7891    3.8704   -0.0749 C   0  0  0  0  0  0  0  0  0  0  0  0
   -2.5086   -3.2079   -0.7133 C   0  0  0  0  0  0  0  0  0  0  0  0
    5.3879   -0.1676   -0.7959 C   0  0  0  0  0  0  0  0  0  0  0  0
    4.3221   -0.4093    1.3437 C   0  0  0  0  0  0  0  0  0  0  0  0
  1  3  1  0
  1 10  1  0
  2 11  1  0
  2 22  1  0
  2 23  1  0
  3  4  1  0
  3  5  1  0
  4  6  2  0
  4  8  1  0
  5  7  2  0
  5  9  1  0
  6 12  1  0
  6 16  1  0
  7 13  1  0
  7 17  1  0
  8 14  2  0
  8 18  1  0
  9 15  2  0
  9 19  1  0
 10 11  1  0
 12 20  2  0
 13 21  2  0
 14 20  1  0
 15 21  1  0
M  END
>  <PUBCHEM_COMPOUND_CID>  (1) 
29130

>  <PUBCHEM_CONFORMER_RMSD>  (1) 
0.8

>  <PUBCHEM_CONFORMER_DIVERSEORDER>  (1) 
3
1
2

>  <PUBCHEM_MMFF94_PARTIAL_CHARGES>  (1) 
29
1 -0.56
10 0.28
11 0.27
12 -0.15
13 -0.15
14 -0.15
15 -0.15
16 0.14
17 0.14
18 0.14
19 0.14
2 -0.81
20 -0.15
21 -0.15
22 0.27
23 0.27
29 0.15
3 0.57
30 0.15
31 0.15
32 0.15
4 -0.14
45 0.15
46 0.15
5 -0.14
6 -0.14
7 -0.14
8 -0.14
9 -0.14

>  <PUBCHEM_EFFECTIVE_ROTOR_COUNT>  (1) 
6

>  <PUBCHEM_PHARMACOPHORE_FEATURES>  (1) 
4
1 1 acceptor
1 2 cation
6 4 6 8 12 14 20 rings
6 5 7 9 13 15 21 rings

>  <PUBCHEM_HEAVY_ATOM_COUNT>  (1) 
23

>  <PUBCHEM_ATOM_DEF_STEREO_COUNT>  (1) 
0

>  <PUBCHEM_ATOM_UDEF_STEREO_COUNT>  (1) 
0

>  <PUBCHEM_BOND_DEF_STEREO_COUNT>  (1) 
0

>  <PUBCHEM_BOND_UDEF_STEREO_COUNT>  (1) 
0

>  <PUBCHEM_ISOTOPIC_ATOM_COUNT>  (1) 
0

>  <PUBCHEM_COMPONENT_COUNT>  (1) 
1

>  <PUBCHEM_CACTVS_TAUTO_COUNT>  (1) 
1

>  <PUBCHEM_CONFORMER_ID>  (1) 
000071CA00000003

>  <PUBCHEM_MMFF94_ENERGY>  (1) 
111.3724

>  <PUBCHEM_FEATURE_SELFOVERLAP>  (1) 
20.297

>  <PUBCHEM_SHAPE_FINGERPRINT>  (1) 
10411042 1 18194688291748377546
10948715 1 17906736899507564925
1100329 8 18409448115884600553
11101153 10 18194120940402972316
11578080 2 17532923012061430829
12035759 4 17620438378381943165
12173636 292 18193554459083814548
12553582 1 18194413401162052074
12788726 201 18408038498616623330
13140716 1 18340208608423657728
13681431 1 17908128129403311283
14790565 3 18195818362058265993
14840074 17 17553754458820976056
15042514 8 18410580560857378691
15131766 46 15938981858036897540
16945 1 18411705357221246699
17492 54 18267289946736998285
1813 80 17913791654032771958
19591789 44 17979635632630367065
19930381 70 17185877735957506179
20101258 96 18267316485328980544
20602899 9 15697422322583357604
21041028 32 18265903642677941123
21304303 282 17687982541506663204
21524375 3 17762619495333981960
23227448 37 18412548695757151428
23419403 2 17756121729184761734
23526113 38 17685471531927404451
23557571 272 18201727228287724012
23558518 356 18335411405217366296
23728640 28 18337953372746665066
394222 165 16883540179261204287
6138700 20 16611114037256349574
81228 2 18339912770917787232
8272917 22 17259634063113938447

>  <PUBCHEM_SHAPE_MULTIPOLES>  (1) 
462.48
6.04
4.71
1.54
11.64
3.02
0.01
-1.81
-0.35
-4.48
0.1
-0.4
-1.15
-0.31

>  <PUBCHEM_SHAPE_SELFOVERLAP>  (1) 
981.153

>  <PUBCHEM_SHAPE_VOLUME>  (1) 
261.8

>  <PUBCHEM_COORDINATE_TYPE>  (1) 
2
5
10

$$$$
