29136
     RDKit          3D

 12 12  0  0  0  0  0  0  0  0999 V2000
   -2.6125    1.3745    0.1686 O   0  0  0  0  0  0  0  0  0  0  0  0
    3.6935    1.3526   -0.2192 O   0  0  0  0  0  0  0  0  0  0  0  0
    1.9950   -0.0263    0.0815 N   0  0  0  0  0  0  0  0  0  0  0  0
    2.4735    1.1940   -0.3299 N   0  0  0  0  0  0  0  0  0  0  0  0
    0.6202   -0.3313    0.0062 C   0  0  0  0  0  0  0  0  0  0  0  0
   -0.3276    0.6852    0.1260 C   0  0  0  0  0  0  0  0  0  0  0  0
   -1.6874    0.3831    0.0516 C   0  0  0  0  0  0  0  0  0  0  0  0
    0.2081   -1.6498   -0.1879 C   0  0  0  0  0  0  0  0  0  0  0  0
   -2.0993   -0.9354   -0.1426 C   0  0  0  0  0  0  0  0  0  0  0  0
   -1.1516   -1.9518   -0.2623 C   0  0  0  0  0  0  0  0  0  0  0  0
    2.8733   -1.0899    0.6251 C   0  0  0  0  0  0  0  0  0  0  0  0
   -3.9853    0.9951    0.0830 C   0  0  0  0  0  0  0  0  0  0  0  0
  1  7  1  0
  1 12  1  0
  2  4  2  0
  3  4  1  0
  3  5  1  0
  3 11  1  0
  5  6  2  0
  5  8  1  0
  6  7  1  0
  7  9  2  0
  8 10  2  0
  9 10  1  0
M  END
>  <PUBCHEM_COMPOUND_CID>  (1) 
29136

>  <PUBCHEM_CONFORMER_RMSD>  (1) 
0.6

>  <PUBCHEM_CONFORMER_DIVERSEORDER>  (1) 
1
9
5
10
2
8
11
4
6
3
12
7

>  <PUBCHEM_MMFF94_PARTIAL_CHARGES>  (1) 
15
1 -0.36
10 -0.15
11 0.37
12 0.28
13 0.15
14 0.15
15 0.15
16 0.15
2 -0.16
3 -0.3
5 0.1
6 -0.15
7 0.08
8 -0.15
9 -0.15

>  <PUBCHEM_EFFECTIVE_ROTOR_COUNT>  (1) 
3

>  <PUBCHEM_PHARMACOPHORE_FEATURES>  (1) 
2
1 1 acceptor
6 5 6 7 8 9 10 rings

>  <PUBCHEM_HEAVY_ATOM_COUNT>  (1) 
12

>  <PUBCHEM_ATOM_DEF_STEREO_COUNT>  (1) 
0

>  <PUBCHEM_ATOM_UDEF_STEREO_COUNT>  (1) 
0

>  <PUBCHEM_BOND_DEF_STEREO_COUNT>  (1) 
0

>  <PUBCHEM_BOND_UDEF_STEREO_COUNT>  (1) 
0

>  <PUBCHEM_ISOTOPIC_ATOM_COUNT>  (1) 
0

>  <PUBCHEM_COMPONENT_COUNT>  (1) 
1

>  <PUBCHEM_CACTVS_TAUTO_COUNT>  (1) 
1

>  <PUBCHEM_CONFORMER_ID>  (1) 
000071D000000001

>  <PUBCHEM_MMFF94_ENERGY>  (1) 
49.5606

>  <PUBCHEM_FEATURE_SELFOVERLAP>  (1) 
10.148

>  <PUBCHEM_SHAPE_FINGERPRINT>  (1) 
12251169 10 18262512598552008146
12932764 1 17632010978597824106
13380535 21 18409175432436854338
13380535 76 18341328895050999671
14325111 11 18410575084684197433
14897335 6 18411133645202141276
15669948 3 18271238442962684582
15775835 57 18408045121482612676
16945 1 18192711146434323375
18186145 218 18342460287893784493
20653085 51 18411428288569940426
20871998 184 18129106808397362807
21040471 1 18342173341218415827
21501502 16 18411130363937135702
21524375 3 18341889645907026523
23235685 24 18341607079987406753
23402655 69 18199735957249123037
23463225 33 18336541612474850402
23552423 10 18334851727823153010
23559900 14 18131915979835135056
2748010 2 18412271626963101775
369184 2 17313375751320585051
6333449 129 18341894155448562069
7364860 26 18341895148087394694

>  <PUBCHEM_SHAPE_MULTIPOLES>  (1) 
225.25
5.65
1.86
0.65
0.25
0.45
-0.02
-2.85
-0.26
0.04
0.13
0.08
0.05
-0.48

>  <PUBCHEM_SHAPE_SELFOVERLAP>  (1) 
459.958

>  <PUBCHEM_SHAPE_VOLUME>  (1) 
131.6

>  <PUBCHEM_COORDINATE_TYPE>  (1) 
2
5
10

$$$$
