29132
     RDKit          3D

 14 15  0  0  0  0  0  0  0  0999 V2000
    1.6917   -0.2617   -0.6216 O   0  0  0  0  0  0  0  0  0  0  0  0
   -0.6414    0.1712   -0.1698 C   0  0  0  0  0  0  0  0  0  0  0  0
   -1.9243   -0.3463    0.1288 C   0  0  0  0  0  0  0  0  0  0  0  0
    0.4359   -0.7148   -0.3328 C   0  0  0  0  0  0  0  0  0  0  0  0
   -2.0919   -1.7349    0.2559 C   0  0  0  0  0  0  0  0  0  0  0  0
   -0.4737    1.5598   -0.2974 C   0  0  0  0  0  0  0  0  0  0  0  0
   -3.0016    0.5398    0.2917 C   0  0  0  0  0  0  0  0  0  0  0  0
    0.2514   -2.0916   -0.2027 C   0  0  0  0  0  0  0  0  0  0  0  0
   -1.0101   -2.6005    0.0911 C   0  0  0  0  0  0  0  0  0  0  0  0
   -1.5552    2.4256   -0.1321 C   0  0  0  0  0  0  0  0  0  0  0  0
   -2.8165    1.9166    0.1620 C   0  0  0  0  0  0  0  0  0  0  0  0
    2.7203   -0.5737    0.3133 C   0  0  0  0  0  0  0  0  0  0  0  0
    3.7747    0.4399    0.2726 C   0  0  0  0  0  0  0  0  0  0  0  0
    4.6407    1.2707    0.2409 C   0  0  0  0  0  0  0  0  0  0  0  0
  1  4  1  0
  1 12  1  0
  2  3  1  0
  2  4  2  0
  2  6  1  0
  3  5  2  0
  3  7  1  0
  4  8  1  0
  5  9  1  0
  6 10  2  0
  7 11  2  0
  8  9  2  0
 10 11  1  0
 12 13  1  0
 13 14  3  0
M  END
>  <PUBCHEM_COMPOUND_CID>  (1) 
29132

>  <PUBCHEM_CONFORMER_RMSD>  (1) 
0.6

>  <PUBCHEM_CONFORMER_DIVERSEORDER>  (1) 
1
8
9
4
6
7
5
3
2

>  <PUBCHEM_MMFF94_PARTIAL_CHARGES>  (1) 
20
1 -0.36
10 -0.15
11 -0.15
12 0.48
13 -0.2
14 -0.18
15 0.15
16 0.15
17 0.15
18 0.15
19 0.15
20 0.15
21 0.15
24 0.18
4 0.08
5 -0.15
6 -0.15
7 -0.15
8 -0.15
9 -0.15

>  <PUBCHEM_EFFECTIVE_ROTOR_COUNT>  (1) 
2

>  <PUBCHEM_PHARMACOPHORE_FEATURES>  (1) 
4
1 1 acceptor
1 14 hydrophobe
6 2 3 4 5 8 9 rings
6 2 3 6 7 10 11 rings

>  <PUBCHEM_HEAVY_ATOM_COUNT>  (1) 
14

>  <PUBCHEM_ATOM_DEF_STEREO_COUNT>  (1) 
0

>  <PUBCHEM_ATOM_UDEF_STEREO_COUNT>  (1) 
0

>  <PUBCHEM_BOND_DEF_STEREO_COUNT>  (1) 
0

>  <PUBCHEM_BOND_UDEF_STEREO_COUNT>  (1) 
0

>  <PUBCHEM_ISOTOPIC_ATOM_COUNT>  (1) 
0

>  <PUBCHEM_COMPONENT_COUNT>  (1) 
1

>  <PUBCHEM_CACTVS_TAUTO_COUNT>  (1) 
1

>  <PUBCHEM_CONFORMER_ID>  (1) 
000071CC00000001

>  <PUBCHEM_MMFF94_ENERGY>  (1) 
45.0261

>  <PUBCHEM_FEATURE_SELFOVERLAP>  (1) 
20.324

>  <PUBCHEM_SHAPE_FINGERPRINT>  (1) 
10493431 412 18341903952533208937
10608611 8 18342458132305219070
11132069 177 18410014342518234484
12173636 292 18411132524495447028
12390115 104 18200333029689335648
13140716 1 18122074366628114235
13380535 76 18339077064924448135
14420673 8 18119802509871869946
14648413 74 17400924094378858329
15669948 3 18338509837442101778
16945 1 18336279959125508767
17846911 113 18411696560759115360
18186145 218 18058457504197089732
193761 8 17834118924217726119
20510252 161 18342179972463136003
20871998 184 18342744065020614031
21029758 11 18196363952043273639
21524375 3 18198895929421067750
21650355 55 18120930874329791010
2334 1 17977955901354892279
23402539 116 18270673294329100655
23557571 272 18199763590551357414
23559900 14 18272374114848579486
2748010 2 17975712601413445703
3071541 12 17764593114173736015
6333449 129 18411979178196912309
7097593 13 18043228181916394898
7364860 26 17692250733808014007
81228 2 18337118967738136835
90316 7 17895180104845647044

>  <PUBCHEM_SHAPE_MULTIPOLES>  (1) 
282.24
6.05
2.74
0.68
8.35
0.39
0
-3.1
-1.01
-1.73
0.02
0.04
0
0.16

>  <PUBCHEM_SHAPE_SELFOVERLAP>  (1) 
608.127

>  <PUBCHEM_SHAPE_VOLUME>  (1) 
155.2

>  <PUBCHEM_COORDINATE_TYPE>  (1) 
2
5
10

$$$$
