2916
     RDKit          3D

  8  7  0  0  0  0  0  0  0  0999 V2000
   -0.0946    1.0585   -0.0787 S   0  0  0  0  0  0  0  0  0  0  0  0
    1.6745   -0.0611   -0.0667 P   0  0  0  0  0  0  0  0  0  0  0  0
    1.8106   -0.8337    1.3536 O   0  0  0  0  0  0  0  0  0  0  0  0
    2.9355    0.9580   -0.0022 O   0  0  0  0  0  0  0  0  0  0  0  0
    1.7420   -0.9942   -1.2451 O   0  0  0  0  0  0  0  0  0  0  0  0
   -3.8515   -0.4771    0.0520 N   0  0  0  0  0  0  0  0  0  0  0  0
   -1.4294   -0.1710   -0.0052 C   0  0  0  0  0  0  0  0  0  0  0  0
   -2.7871    0.5204   -0.0077 C   0  0  0  0  0  0  0  0  0  0  0  0
  1  2  1  0
  1  7  1  0
  2  3  1  0
  2  4  1  0
  2  5  2  0
  6  8  1  0
  7  8  1  0
M  END
>  <PUBCHEM_COMPOUND_CID>  (1) 
2916

>  <PUBCHEM_CONFORMER_RMSD>  (1) 
0.6

>  <PUBCHEM_CONFORMER_DIVERSEORDER>  (1) 
1
7
6
4
2
5
3

>  <PUBCHEM_MMFF94_PARTIAL_CHARGES>  (1) 
12
1 -0.48
13 0.36
14 0.36
15 0.5
16 0.5
2 1.49
3 -0.77
4 -0.77
5 -0.7
6 -0.99
7 0.23
8 0.27

>  <PUBCHEM_EFFECTIVE_ROTOR_COUNT>  (1) 
3

>  <PUBCHEM_PHARMACOPHORE_FEATURES>  (1) 
6
1 3 acceptor
1 4 acceptor
1 5 acceptor
1 6 cation
1 6 donor
4 2 3 4 5 anion

>  <PUBCHEM_HEAVY_ATOM_COUNT>  (1) 
8

>  <PUBCHEM_ATOM_DEF_STEREO_COUNT>  (1) 
0

>  <PUBCHEM_ATOM_UDEF_STEREO_COUNT>  (1) 
0

>  <PUBCHEM_BOND_DEF_STEREO_COUNT>  (1) 
0

>  <PUBCHEM_BOND_UDEF_STEREO_COUNT>  (1) 
0

>  <PUBCHEM_ISOTOPIC_ATOM_COUNT>  (1) 
0

>  <PUBCHEM_COMPONENT_COUNT>  (1) 
1

>  <PUBCHEM_CACTVS_TAUTO_COUNT>  (1) 
1

>  <PUBCHEM_CONFORMER_ID>  (1) 
00000B6400000001

>  <PUBCHEM_MMFF94_ENERGY>  (1) 
-32.7811

>  <PUBCHEM_FEATURE_SELFOVERLAP>  (1) 
30.487

>  <PUBCHEM_SHAPE_FINGERPRINT>  (1) 
11062470 55 18260265269820435301
12932764 1 17968383342670304277
170605 34 18410013281835418156
20711978 78 16271078190548887204
23235685 24 17988921197363557772
23552333 60 18335419041378626528
23552449 11 18410285934796406545
3248919 1 18130781218693245001
5460574 1 9223232944666124389

>  <PUBCHEM_SHAPE_MULTIPOLES>  (1) 
149.75
5.41
1.09
0.93
3.79
0.12
-0.03
-0.4
-0.12
-0.36
0.02
-0.6
-0.29
0.02

>  <PUBCHEM_SHAPE_SELFOVERLAP>  (1) 
241.397

>  <PUBCHEM_SHAPE_VOLUME>  (1) 
105.7

>  <PUBCHEM_COORDINATE_TYPE>  (1) 
2
5
10

$$$$
