29167
     RDKit          3D

 22 24  0  0  0  0  0  0  0  0999 V2000
   -5.0529    2.9132    0.1115 Cl  0  0  0  0  0  0  0  0  0  0  0  0
    1.5296   -2.5753   -0.4122 O   0  0  0  0  0  0  0  0  0  0  0  0
   -0.0687   -0.0847   -0.4725 N   0  0  0  0  0  0  0  0  0  0  0  0
    3.4621    1.0416   -0.0020 N   0  0  0  0  0  0  0  0  0  0  0  0
   -1.8307   -1.3089    0.1103 C   0  0  0  0  0  0  0  0  0  0  0  0
   -0.4809   -1.3563   -0.1810 C   0  0  0  0  0  0  0  0  0  0  0  0
   -2.6066   -2.5265    0.4794 C   0  0  0  0  0  0  0  0  0  0  0  0
   -2.2558    0.0433   -0.0207 C   0  0  0  0  0  0  0  0  0  0  0  0
   -1.1311    0.7887   -0.3860 C   0  0  0  0  0  0  0  0  0  0  0  0
    1.2805    0.3044   -0.8286 C   0  0  0  0  0  0  0  0  0  0  0  0
   -1.6641   -3.6093    1.0299 C   0  0  0  0  0  0  0  0  0  0  0  0
   -0.4477   -3.8396    0.1202 C   0  0  0  0  0  0  0  0  0  0  0  0
    0.3269   -2.5534   -0.1638 C   0  0  0  0  0  0  0  0  0  0  0  0
    2.1072    0.6820    0.3971 C   0  0  0  0  0  0  0  0  0  0  0  0
   -3.4879    0.7102    0.1356 C   0  0  0  0  0  0  0  0  0  0  0  0
   -1.1795    2.1707   -0.6020 C   0  0  0  0  0  0  0  0  0  0  0  0
    4.1164   -0.0813   -0.6766 C   0  0  0  0  0  0  0  0  0  0  0  0
    4.2477    1.4628    1.1595 C   0  0  0  0  0  0  0  0  0  0  0  0
   -3.5500    2.0919   -0.0778 C   0  0  0  0  0  0  0  0  0  0  0  0
   -2.4123    2.8090   -0.4408 C   0  0  0  0  0  0  0  0  0  0  0  0
    5.5028    0.2926   -1.1588 C   0  0  0  0  0  0  0  0  0  0  0  0
    3.5949    2.6249    1.8791 C   0  0  0  0  0  0  0  0  0  0  0  0
  1 19  1  0
  2 13  2  0
  3  6  1  0
  3  9  1  0
  3 10  1  0
  4 14  1  0
  4 17  1  0
  4 18  1  0
  5  6  2  0
  5  7  1  0
  5  8  1  0
  6 13  1  0
  7 11  1  0
  8  9  2  0
  8 15  1  0
  9 16  1  0
 10 14  1  0
 11 12  1  0
 12 13  1  0
 15 19  2  0
 16 20  2  0
 17 21  1  0
 18 22  1  0
 19 20  1  0
M  END
>  <PUBCHEM_COMPOUND_CID>  (1) 
29167

>  <PUBCHEM_CONFORMER_RMSD>  (1) 
0.8

>  <PUBCHEM_CONFORMER_DIVERSEORDER>  (1) 
3
6
8
7
9
1
5
4
2

>  <PUBCHEM_MMFF94_PARTIAL_CHARGES>  (1) 
21
1 -0.18
10 0.26
12 0.06
13 0.59
14 0.27
15 -0.15
16 -0.15
17 0.27
18 0.27
19 0.18
2 -0.57
20 -0.15
3 0.05
33 0.15
34 0.15
39 0.15
4 -0.81
5 -0.18
6 -0.24
7 0.18
9 -0.15

>  <PUBCHEM_EFFECTIVE_ROTOR_COUNT>  (1) 
5.6

>  <PUBCHEM_PHARMACOPHORE_FEATURES>  (1) 
6
1 2 acceptor
1 3 cation
1 4 cation
5 3 5 6 8 9 rings
6 5 6 7 11 12 13 rings
6 8 9 15 16 19 20 rings

>  <PUBCHEM_HEAVY_ATOM_COUNT>  (1) 
22

>  <PUBCHEM_ATOM_DEF_STEREO_COUNT>  (1) 
0

>  <PUBCHEM_ATOM_UDEF_STEREO_COUNT>  (1) 
0

>  <PUBCHEM_BOND_DEF_STEREO_COUNT>  (1) 
0

>  <PUBCHEM_BOND_UDEF_STEREO_COUNT>  (1) 
0

>  <PUBCHEM_ISOTOPIC_ATOM_COUNT>  (1) 
0

>  <PUBCHEM_COMPONENT_COUNT>  (1) 
1

>  <PUBCHEM_CACTVS_TAUTO_COUNT>  (1) 
2

>  <PUBCHEM_CONFORMER_ID>  (1) 
000071EF00000003

>  <PUBCHEM_MMFF94_ENERGY>  (1) 
34.3574

>  <PUBCHEM_FEATURE_SELFOVERLAP>  (1) 
30.621

>  <PUBCHEM_SHAPE_FINGERPRINT>  (1) 
10165383 225 18265343819487527100
10319926 262 18196070335821817456
10411042 1 17760659456638733006
10967382 1 17758965822827706607
1100329 8 16756914785289055712
12173636 292 18410283739973010540
12403259 415 18272092716347901640
12553582 1 17472987675680571646
12788726 201 17754744054379627762
13140716 1 17831588939515126227
138480 1 17183624295609030887
14178342 30 18189882288316490440
14420673 8 18264194835017731218
14787075 74 18059564828698028993
14790565 3 18193005811192660564
15042514 8 18190752027404641323
15230672 131 18335144134436098750
15295992 7 18131064948601853752
15806764 133 17844548762902425284
16945 1 18263660613641187623
19591789 44 18192154793413557791
19784866 170 18261965029103710269
20510252 161 18270400627876139689
21033648 29 18413103966019280616
21049683 118 18265026125198984785
21524375 3 18270679749379720069
21650355 55 17904472248956661779
22182313 1 18265073404463001655
23557571 272 18269005326435929316
23558518 356 18116434945635037960
23559900 14 18413394246306175764
2748010 2 18190762872502934383
3091708 16 9340741016496532659
3298306 158 18271814471724752838
350125 39 17975701580174241653
5104073 3 17974863770385607929
5265222 85 18194985139467433278
57124632 79 17973999553501993429
58807428 26 18262795168771668689
59124914 9 18127978503013630320
633830 44 18059279994497814868
7097593 13 18042382730388611880
7364860 26 17906452130433324151
7808743 9 18334583481699207244
81228 2 18120080938755716358
84936 182 17981043020451979177
90316 7 17977103788101381003
9709674 26 18199744924649992428
9777508 108 18410856589926223899
9981440 41 18409439272457144459

>  <PUBCHEM_SHAPE_MULTIPOLES>  (1) 
438.79
8.79
4.68
1.07
7.22
3.43
-0.3
-8.35
-0.11
-3.73
-1.15
1.21
-0.41
1.74

>  <PUBCHEM_SHAPE_SELFOVERLAP>  (1) 
925.251

>  <PUBCHEM_SHAPE_VOLUME>  (1) 
252

>  <PUBCHEM_COORDINATE_TYPE>  (1) 
2
5
10

$$$$
