29180
     RDKit          3D

 11 12  0  0  0  0  0  0  0  0999 V2000
    2.4536   -0.4081   -0.0039 P   0  0  0  0  0  0  0  0  0  0  0  0
    2.0921    1.1754    0.0310 O   0  0  0  0  0  0  0  0  0  0  0  0
    1.5269   -0.8647   -1.2578 O   0  0  0  0  0  0  0  0  0  0  0  0
    1.5169   -0.9220    1.2199 O   0  0  0  0  0  0  0  0  0  0  0  0
   -0.2212    0.3290    0.0022 C   0  0  0  0  0  0  0  0  0  0  0  0
   -1.6903    0.7338    0.0056 C   0  0  0  0  0  0  0  0  0  0  0  0
    0.7111    1.5524    0.0345 C   0  0  0  0  0  0  0  0  0  0  0  0
    0.1472   -0.4828   -1.2518 C   0  0  0  0  0  0  0  0  0  0  0  0
    0.1372   -0.5400    1.2202 C   0  0  0  0  0  0  0  0  0  0  0  0
   -2.6040   -0.4885    0.0122 C   0  0  0  0  0  0  0  0  0  0  0  0
   -4.0695   -0.0845   -0.0120 C   0  0  0  0  0  0  0  0  0  0  0  0
  1  2  1  0
  1  3  1  0
  1  4  1  0
  2  7  1  0
  3  8  1  0
  4  9  1  0
  5  6  1  0
  5  7  1  0
  5  8  1  0
  5  9  1  0
  6 10  1  0
 10 11  1  0
M  END
>  <PUBCHEM_COMPOUND_CID>  (1) 
29180

>  <PUBCHEM_CONFORMER_RMSD>  (1) 
0.6

>  <PUBCHEM_CONFORMER_DIVERSEORDER>  (1) 
1

>  <PUBCHEM_MMFF94_PARTIAL_CHARGES>  (1) 
7
1 0.3
2 -0.38
3 -0.38
4 -0.38
7 0.28
8 0.28
9 0.28

>  <PUBCHEM_EFFECTIVE_ROTOR_COUNT>  (1) 
3.2

>  <PUBCHEM_PHARMACOPHORE_FEATURES>  (1) 
2
1 11 hydrophobe
8 1 2 3 4 5 7 8 9 rings

>  <PUBCHEM_HEAVY_ATOM_COUNT>  (1) 
11

>  <PUBCHEM_ATOM_DEF_STEREO_COUNT>  (1) 
0

>  <PUBCHEM_ATOM_UDEF_STEREO_COUNT>  (1) 
0

>  <PUBCHEM_BOND_DEF_STEREO_COUNT>  (1) 
0

>  <PUBCHEM_BOND_UDEF_STEREO_COUNT>  (1) 
0

>  <PUBCHEM_ISOTOPIC_ATOM_COUNT>  (1) 
0

>  <PUBCHEM_COMPONENT_COUNT>  (1) 
1

>  <PUBCHEM_CACTVS_TAUTO_COUNT>  (1) 
1

>  <PUBCHEM_CONFORMER_ID>  (1) 
000071FC00000001

>  <PUBCHEM_MMFF94_ENERGY>  (1) 
35.6687

>  <PUBCHEM_FEATURE_SELFOVERLAP>  (1) 
10.148

>  <PUBCHEM_SHAPE_FINGERPRINT>  (1) 
10219947 1 18060700593595552645
12932764 1 18113334207086132703
14128692 85 17314788490766101226
14344429 50 18260269659250462653
15775835 57 17967533484617014387
16945 1 18410855494630454888
20653091 64 18408606941669854704
21040471 1 17023194863131969434
23235685 24 17703785942122694373
29004967 10 18131636651292065346
3248919 1 17988925570215148043
5084963 1 17704076157363107583
528886 8 17989207087598323260
68250623 7 18050845821226207390

>  <PUBCHEM_SHAPE_MULTIPOLES>  (1) 
212.62
4.5
1.19
1.11
4.78
0.36
0.03
-0.44
0.01
-0.46
-0.02
-0.39
-0.34
0.01

>  <PUBCHEM_SHAPE_SELFOVERLAP>  (1) 
421.629

>  <PUBCHEM_SHAPE_VOLUME>  (1) 
129.3

>  <PUBCHEM_COORDINATE_TYPE>  (1) 
2
5
10

$$$$
