29198
     RDKit          3D

  8  7  0  0  1  0  0  0  0  0999 V2000
   -0.3377    0.5358    0.4494 C   0  0  0  0  0  0  0  0  0  0  0  0
   -1.4637   -0.3640   -0.0508 C   0  0  0  0  0  0  0  0  0  0  0  0
   -0.6183    2.0430    0.3664 C   0  0  0  0  0  0  0  0  0  0  0  0
    0.9506    0.2406   -0.2861 C   0  0  0  0  0  0  0  0  0  0  0  0
   -1.6239   -1.6732    0.6803 C   0  0  0  0  0  0  0  0  0  0  0  0
    2.0614   -0.2188    0.3098 C   0  0  0  0  0  0  0  0  0  0  0  0
   -2.3013   -0.0522   -1.0540 C   0  0  0  0  0  0  0  0  0  0  0  0
    3.3330   -0.5112   -0.4151 C   0  0  0  0  0  0  0  0  0  0  0  0
  1  2  1  0
  1  3  1  0
  1  4  1  0
  2  5  1  0
  2  7  2  0
  4  6  2  0
  6  8  1  0
M  END
>  <PUBCHEM_COMPOUND_CID>  (1) 
29198

>  <PUBCHEM_CONFORMER_RMSD>  (1) 
0.4

>  <PUBCHEM_CONFORMER_DIVERSEORDER>  (1) 
1
4
3
2

>  <PUBCHEM_MMFF94_PARTIAL_CHARGES>  (1) 
11
1 0.28
13 0.15
17 0.15
18 0.15
19 0.15
2 -0.28
4 -0.29
5 0.14
6 -0.29
7 -0.3
8 0.14

>  <PUBCHEM_EFFECTIVE_ROTOR_COUNT>  (1) 
2

>  <PUBCHEM_PHARMACOPHORE_FEATURES>  (1) 
2
1 3 hydrophobe
1 8 hydrophobe

>  <PUBCHEM_HEAVY_ATOM_COUNT>  (1) 
8

>  <PUBCHEM_ATOM_DEF_STEREO_COUNT>  (1) 
0

>  <PUBCHEM_ATOM_UDEF_STEREO_COUNT>  (1) 
0

>  <PUBCHEM_BOND_DEF_STEREO_COUNT>  (1) 
0

>  <PUBCHEM_BOND_UDEF_STEREO_COUNT>  (1) 
1

>  <PUBCHEM_ISOTOPIC_ATOM_COUNT>  (1) 
0

>  <PUBCHEM_COMPONENT_COUNT>  (1) 
1

>  <PUBCHEM_CACTVS_TAUTO_COUNT>  (1) 
1

>  <PUBCHEM_CONFORMER_ID>  (1) 
0000720E00000001

>  <PUBCHEM_MMFF94_ENERGY>  (1) 
5.8998

>  <PUBCHEM_FEATURE_SELFOVERLAP>  (1) 
10.149

>  <PUBCHEM_SHAPE_FINGERPRINT>  (1) 
12716758 59 18260535727984258401
12897270 3 18408604768869765110
12932764 1 17240482515945617840
14128692 85 17896892147222931894
14390081 3 13262402171957611574
15310529 11 16153422831252068075
20653085 51 16443346416645312940
20711978 78 17764869491314286711
20711985 344 18269829826812503344
21040471 1 17836932200479117632
23552423 10 18114184193587475714
29004967 10 18270681007646719744
3248919 1 18408888400131100454
369184 2 15482666857970379322

>  <PUBCHEM_SHAPE_MULTIPOLES>  (1) 
164.64
3.97
1.59
0.9
3.35
0.48
-0.1
-1.38
-0.91
-0.8
0.43
-0.33
-0.07
0.21

>  <PUBCHEM_SHAPE_SELFOVERLAP>  (1) 
298.933

>  <PUBCHEM_SHAPE_VOLUME>  (1) 
107.3

>  <PUBCHEM_COORDINATE_TYPE>  (1) 
2
5
10

$$$$
