29205
     RDKit          3D

 19 21  0  0  0  0  0  0  0  0999 V2000
    1.2048   -2.0297   -0.4391 O   0  0  0  0  0  0  0  0  0  0  0  0
    0.1850    1.8584    0.1764 O   0  0  0  0  0  0  0  0  0  0  0  0
   -0.4879   -0.3965    0.0729 N   0  0  0  0  0  0  0  0  0  0  0  0
    5.2496    1.7132    0.3020 N   0  0  0  0  0  0  0  0  0  0  0  0
   -6.0473    0.5125   -0.0823 N   0  0  0  0  0  0  0  0  0  0  0  0
    1.8552    0.2421    0.0519 C   0  0  0  0  0  0  0  0  0  0  0  0
    0.0075   -1.7542    0.2980 C   0  0  0  0  0  0  0  0  0  0  0  0
    0.4361    0.6595    0.1011 C   0  0  0  0  0  0  0  0  0  0  0  0
    2.1680   -1.0845   -0.2353 C   0  0  0  0  0  0  0  0  0  0  0  0
   -1.9083   -0.1643    0.0332 C   0  0  0  0  0  0  0  0  0  0  0  0
    2.8808    1.1761    0.2318 C   0  0  0  0  0  0  0  0  0  0  0  0
    3.4986   -1.4807   -0.3728 C   0  0  0  0  0  0  0  0  0  0  0  0
   -2.4061    0.9810   -0.5829 C   0  0  0  0  0  0  0  0  0  0  0  0
   -2.7776   -1.0862    0.6110 C   0  0  0  0  0  0  0  0  0  0  0  0
    4.2127    0.7745    0.1165 C   0  0  0  0  0  0  0  0  0  0  0  0
    4.5211   -0.5508   -0.1894 C   0  0  0  0  0  0  0  0  0  0  0  0
   -3.7822    1.2060   -0.6214 C   0  0  0  0  0  0  0  0  0  0  0  0
   -4.1537   -0.8614    0.5724 C   0  0  0  0  0  0  0  0  0  0  0  0
   -4.6561    0.2848   -0.0439 C   0  0  0  0  0  0  0  0  0  0  0  0
  1  7  1  0
  1  9  1  0
  2  8  2  0
  3  7  1  0
  3  8  1  0
  3 10  1  0
  4 15  1  0
  5 19  1  0
  6  8  1  0
  6  9  2  0
  6 11  1  0
  9 12  1  0
 10 13  2  0
 10 14  1  0
 11 15  2  0
 12 16  2  0
 13 17  1  0
 14 18  2  0
 15 16  1  0
 17 19  2  0
 18 19  1  0
M  END
>  <PUBCHEM_COMPOUND_CID>  (1) 
29205

>  <PUBCHEM_CONFORMER_RMSD>  (1) 
0.6

>  <PUBCHEM_CONFORMER_DIVERSEORDER>  (1) 
1
2

>  <PUBCHEM_MMFF94_PARTIAL_CHARGES>  (1) 
30
1 -0.36
10 0.12
11 -0.15
12 -0.15
13 -0.15
14 -0.15
15 0.1
16 -0.15
17 -0.15
18 -0.15
19 0.1
2 -0.57
22 0.15
23 0.15
24 0.15
25 0.15
26 0.15
27 0.15
28 0.15
29 0.4
3 -0.48
30 0.4
31 0.4
32 0.4
4 -0.9
5 -0.9
6 0.09
7 0.58
8 0.54
9 0.08

>  <PUBCHEM_EFFECTIVE_ROTOR_COUNT>  (1) 
1.6

>  <PUBCHEM_PHARMACOPHORE_FEATURES>  (1) 
9
1 1 acceptor
1 2 acceptor
1 4 cation
1 4 donor
1 5 cation
1 5 donor
6 1 3 6 7 8 9 rings
6 10 13 14 17 18 19 rings
6 6 9 11 12 15 16 rings

>  <PUBCHEM_HEAVY_ATOM_COUNT>  (1) 
19

>  <PUBCHEM_ATOM_DEF_STEREO_COUNT>  (1) 
0

>  <PUBCHEM_ATOM_UDEF_STEREO_COUNT>  (1) 
0

>  <PUBCHEM_BOND_DEF_STEREO_COUNT>  (1) 
0

>  <PUBCHEM_BOND_UDEF_STEREO_COUNT>  (1) 
0

>  <PUBCHEM_ISOTOPIC_ATOM_COUNT>  (1) 
0

>  <PUBCHEM_COMPONENT_COUNT>  (1) 
1

>  <PUBCHEM_CACTVS_TAUTO_COUNT>  (1) 
1

>  <PUBCHEM_CONFORMER_ID>  (1) 
0000721500000001

>  <PUBCHEM_MMFF94_ENERGY>  (1) 
90.8055

>  <PUBCHEM_FEATURE_SELFOVERLAP>  (1) 
45.703

>  <PUBCHEM_SHAPE_FINGERPRINT>  (1) 
10411042 1 17908425749927875174
10608611 8 18335699408295920613
11471102 20 18341894082507925558
12236239 1 17274823541309810297
12403259 415 18260827064227200788
13081056 2 18408886213333324884
13675066 3 18335143123883751386
14386348 63 18334580135597351731
15196674 1 18410575097548227667
15219456 202 18409167701221376015
15375358 24 18408324380166508411
15536298 74 18342459222921093606
15961568 22 17458350788156105388
17834072 33 17989201568971529855
18186145 218 18187364290213219238
200 152 17988922271727776427
20279233 1 18334583429826861203
20645477 70 18201439125559758478
21267235 1 18340495469146932446
21279426 13 18193838137125553580
21452121 103 18342166774788160792
22854114 59 18410857672147173563
23402539 116 18334850658022472279
23402655 69 18202001031719731182
23557571 272 17458627752967995253
23559900 14 18336828598511929610
2871803 45 18337674118088743526
29717793 49 17274829008375949500
335352 9 18412263939794373574
33824 294 18410855439139031298
34934 24 18411695508513356706
3545911 37 18408605859348320661
4072396 5 18337659850661132218
4214541 1 18408886205191964941
42630746 31 18344144778694532854
4340502 62 16877661257811688290
495365 180 17560508604020233746
5104073 3 18261958444886600123
542803 24 16917071053428817785
69090 78 18342455962756423703
7495541 125 14418432013184817005
77779 3 18410013221526326567
9709674 26 18336271209992699379

>  <PUBCHEM_SHAPE_MULTIPOLES>  (1) 
364.33
11.17
1.81
0.71
4.14
0.17
-0.01
-2.63
0.03
-1.02
-0.01
0.14
0.02
0.9

>  <PUBCHEM_SHAPE_SELFOVERLAP>  (1) 
805.621

>  <PUBCHEM_SHAPE_VOLUME>  (1) 
194.2

>  <PUBCHEM_COORDINATE_TYPE>  (1) 
2
5
10

$$$$
