29206
     RDKit          3D

 19 21  0  0  1  0  0  0  0  0999 V2000
   -5.2097    1.8303   -0.4032 Cl  0  0  0  0  0  0  0  0  0  0  0  0
   -0.7913   -1.8630    0.7399 O   0  0  0  0  0  0  0  0  0  0  0  0
    0.0726    1.9000   -0.5841 O   0  0  0  0  0  0  0  0  0  0  0  0
    0.8406   -0.2575   -0.0331 N   0  0  0  0  0  0  0  0  0  0  0  0
    0.4115   -1.6650   -0.0265 C   0  0  0  0  0  0  0  0  0  0  0  0
   -1.5270    0.2969   -0.0572 C   0  0  0  0  0  0  0  0  0  0  0  0
   -0.1282    0.7351   -0.2537 C   0  0  0  0  0  0  0  0  0  0  0  0
   -1.7836   -0.9694    0.4600 C   0  0  0  0  0  0  0  0  0  0  0  0
    2.2491    0.0585    0.0502 C   0  0  0  0  0  0  0  0  0  0  0  0
    0.2335   -2.2430   -1.4338 C   0  0  0  0  0  0  0  0  0  0  0  0
   -2.5894    1.1665   -0.3275 C   0  0  0  0  0  0  0  0  0  0  0  0
   -3.0933   -1.3646    0.7364 C   0  0  0  0  0  0  0  0  0  0  0  0
    2.6517    1.3011    0.5304 C   0  0  0  0  0  0  0  0  0  0  0  0
    3.1932   -0.8827   -0.3494 C   0  0  0  0  0  0  0  0  0  0  0  0
   -3.9008    0.7631   -0.0703 C   0  0  0  0  0  0  0  0  0  0  0  0
   -4.1522   -0.4990    0.4657 C   0  0  0  0  0  0  0  0  0  0  0  0
    4.0106    1.6055    0.6116 C   0  0  0  0  0  0  0  0  0  0  0  0
    4.5521   -0.5785   -0.2680 C   0  0  0  0  0  0  0  0  0  0  0  0
    4.9607    0.6657    0.2125 C   0  0  0  0  0  0  0  0  0  0  0  0
  1 15  1  0
  2  5  1  0
  2  8  1  0
  3  7  2  0
  4  5  1  0
  4  7  1  0
  4  9  1  0
  5 10  1  0
  6  7  1  0
  6  8  2  0
  6 11  1  0
  8 12  1  0
  9 13  2  0
  9 14  1  0
 11 15  2  0
 12 16  2  0
 13 17  1  0
 14 18  2  0
 15 16  1  0
 17 19  2  0
 18 19  1  0
M  END
>  <PUBCHEM_COMPOUND_CID>  (1) 
29206

>  <PUBCHEM_CONFORMER_RMSD>  (1) 
0.6

>  <PUBCHEM_CONFORMER_DIVERSEORDER>  (1) 
1
2
3

>  <PUBCHEM_MMFF94_PARTIAL_CHARGES>  (1) 
26
1 -0.18
11 -0.15
12 -0.15
13 -0.15
14 -0.15
15 0.18
16 -0.15
17 -0.15
18 -0.15
19 -0.15
2 -0.36
24 0.15
25 0.15
26 0.15
27 0.15
28 0.15
29 0.15
3 -0.57
30 0.15
31 0.15
4 -0.48
5 0.58
6 0.09
7 0.54
8 0.08
9 0.12

>  <PUBCHEM_EFFECTIVE_ROTOR_COUNT>  (1) 
1.6

>  <PUBCHEM_PHARMACOPHORE_FEATURES>  (1) 
5
1 2 acceptor
1 3 acceptor
6 2 4 5 6 7 8 rings
6 6 8 11 12 15 16 rings
6 9 13 14 17 18 19 rings

>  <PUBCHEM_HEAVY_ATOM_COUNT>  (1) 
19

>  <PUBCHEM_ATOM_DEF_STEREO_COUNT>  (1) 
0

>  <PUBCHEM_ATOM_UDEF_STEREO_COUNT>  (1) 
1

>  <PUBCHEM_BOND_DEF_STEREO_COUNT>  (1) 
0

>  <PUBCHEM_BOND_UDEF_STEREO_COUNT>  (1) 
0

>  <PUBCHEM_ISOTOPIC_ATOM_COUNT>  (1) 
0

>  <PUBCHEM_COMPONENT_COUNT>  (1) 
1

>  <PUBCHEM_CACTVS_TAUTO_COUNT>  (1) 
1

>  <PUBCHEM_CONFORMER_ID>  (1) 
0000721600000001

>  <PUBCHEM_MMFF94_ENERGY>  (1) 
68.5355

>  <PUBCHEM_FEATURE_SELFOVERLAP>  (1) 
25.403

>  <PUBCHEM_SHAPE_FINGERPRINT>  (1) 
10608611 8 18410855460149429792
11132069 177 18334014999305194677
12011746 2 18341055138203977012
12119455 92 18059856168660353910
12236239 1 16805606975668233556
12403259 415 18413393158782598945
12507560 40 18337955687723448928
12969540 114 18338497691042272893
13214271 11 18409448098657148231
13544592 145 18340779160812038718
13675066 3 18336550507367756322
15196674 1 18409167722685539600
15219456 202 18412548699503251902
15309172 13 18131074856890854390
15375358 24 18410857629519195549
16945 1 16443059517167196011
17804303 29 18335707177570070577
17980427 23 18041002881771091469
18175812 5 18409450288673646854
18186145 218 17846227669406535474
19784866 170 18260832566396674745
200 152 17704068491305420117
20510252 161 18412546504748752729
20645477 70 17989206993367648934
21033648 29 18200865270679111128
21267235 1 18262247701959298835
21279426 13 18265896856534440828
22182313 1 18266762232843102423
22854114 59 18343866636411756474
23184049 59 18342460365440332174
23402539 116 18410287017191170007
23419403 2 16519317065462007375
23557571 272 18335151894755790763
23559900 14 18408887309209374774
2748010 2 18263941959674044231
335352 9 18410010992855116142
34934 24 18334288764652091762
351380 180 18413386531769211440
4214541 1 18408323293455412489
495365 180 17846484938169118728
5104073 3 18335421253028133363
59755656 215 18265336105583195708
633830 44 18410285908857622550
69090 78 18272930570009595798
9709674 26 18338523031476367402

>  <PUBCHEM_SHAPE_MULTIPOLES>  (1) 
376.16
9.84
2.14
0.87
0.69
0.31
0.09
-4.24
-0.52
-0.48
0.25
-0.11
0.24
1.1

>  <PUBCHEM_SHAPE_SELFOVERLAP>  (1) 
816.999

>  <PUBCHEM_SHAPE_VOLUME>  (1) 
205.5

>  <PUBCHEM_COORDINATE_TYPE>  (1) 
2
5
10

$$$$
