29215
     RDKit          3D

 21 23  0  0  0  0  0  0  0  0999 V2000
    3.7613    2.5332    0.7168 O   0  0  0  0  0  0  0  0  0  0  0  0
   -0.5888   -0.1898   -1.2116 N   0  0  0  0  0  0  0  0  0  0  0  0
    2.7382   -4.4251    1.0902 N   0  0  0  0  0  0  0  0  0  0  0  0
    1.1488   -1.4694   -0.6919 C   0  0  0  0  0  0  0  0  0  0  0  0
    1.4950   -0.1165   -0.4183 C   0  0  0  0  0  0  0  0  0  0  0  0
    0.3877    0.6657   -0.7531 C   0  0  0  0  0  0  0  0  0  0  0  0
   -0.1380   -1.4821   -1.1787 C   0  0  0  0  0  0  0  0  0  0  0  0
   -1.9056    0.2031   -1.6653 C   0  0  0  0  0  0  0  0  0  0  0  0
    2.0079   -2.6542   -0.4927 C   0  0  0  0  0  0  0  0  0  0  0  0
    2.6478    0.5196    0.0835 C   0  0  0  0  0  0  0  0  0  0  0  0
    0.3754    2.0577   -0.6107 C   0  0  0  0  0  0  0  0  0  0  0  0
   -2.8961    0.2143   -0.5325 C   0  0  0  0  0  0  0  0  0  0  0  0
    1.8592   -3.2751    0.9084 C   0  0  0  0  0  0  0  0  0  0  0  0
    2.6500    1.9115    0.2312 C   0  0  0  0  0  0  0  0  0  0  0  0
    1.5302    2.6667   -0.1113 C   0  0  0  0  0  0  0  0  0  0  0  0
   -3.0780    1.3759    0.2057 C   0  0  0  0  0  0  0  0  0  0  0  0
   -3.6151   -0.9370   -0.2407 C   0  0  0  0  0  0  0  0  0  0  0  0
   -3.9963    1.3866    1.2557 C   0  0  0  0  0  0  0  0  0  0  0  0
   -4.5334   -0.9263    0.8092 C   0  0  0  0  0  0  0  0  0  0  0  0
   -4.7240    0.2356    1.5573 C   0  0  0  0  0  0  0  0  0  0  0  0
    4.8737    1.7053    1.0488 C   0  0  0  0  0  0  0  0  0  0  0  0
  1 14  1  0
  1 21  1  0
  2  6  1  0
  2  7  1  0
  2  8  1  0
  3 13  1  0
  4  5  1  0
  4  7  2  0
  4  9  1  0
  5  6  2  0
  5 10  1  0
  6 11  1  0
  8 12  1  0
  9 13  1  0
 10 14  2  0
 11 15  2  0
 12 16  2  0
 12 17  1  0
 14 15  1  0
 16 18  1  0
 17 19  2  0
 18 20  2  0
 19 20  1  0
M  END
>  <PUBCHEM_COMPOUND_CID>  (1) 
29215

>  <PUBCHEM_CONFORMER_RMSD>  (1) 
0.8

>  <PUBCHEM_CONFORMER_DIVERSEORDER>  (1) 
2
13
28
23
20
7
18
12
15
11
27
14
8
19
16
10
22
17
29
24
6
4
21
5
25
9
1
26
3

>  <PUBCHEM_MMFF94_PARTIAL_CHARGES>  (1) 
31
1 -0.36
10 -0.15
11 -0.15
12 -0.14
13 0.27
14 0.08
15 -0.15
16 -0.15
17 -0.15
18 -0.15
19 -0.15
2 0.05
20 -0.15
21 0.28
22 0.15
27 0.15
28 0.15
3 -0.99
31 0.15
32 0.15
33 0.15
34 0.36
35 0.36
36 0.15
37 0.15
38 0.15
4 -0.18
6 -0.15
7 -0.3
8 0.4
9 0.18

>  <PUBCHEM_EFFECTIVE_ROTOR_COUNT>  (1) 
5

>  <PUBCHEM_PHARMACOPHORE_FEATURES>  (1) 
7
1 1 acceptor
1 2 cation
1 3 cation
1 3 donor
5 2 4 5 6 7 rings
6 12 16 17 18 19 20 rings
6 5 6 10 11 14 15 rings

>  <PUBCHEM_HEAVY_ATOM_COUNT>  (1) 
21

>  <PUBCHEM_ATOM_DEF_STEREO_COUNT>  (1) 
0

>  <PUBCHEM_ATOM_UDEF_STEREO_COUNT>  (1) 
0

>  <PUBCHEM_BOND_DEF_STEREO_COUNT>  (1) 
0

>  <PUBCHEM_BOND_UDEF_STEREO_COUNT>  (1) 
0

>  <PUBCHEM_ISOTOPIC_ATOM_COUNT>  (1) 
0

>  <PUBCHEM_COMPONENT_COUNT>  (1) 
1

>  <PUBCHEM_CACTVS_TAUTO_COUNT>  (1) 
1

>  <PUBCHEM_CONFORMER_ID>  (1) 
0000721F00000002

>  <PUBCHEM_MMFF94_ENERGY>  (1) 
48.0827

>  <PUBCHEM_FEATURE_SELFOVERLAP>  (1) 
35.613

>  <PUBCHEM_SHAPE_FINGERPRINT>  (1) 
10382601 240 18342460322448571636
11036077 3 18339361967828191524
11578080 2 17605554336336375116
12160290 23 17545875392444212886
12422481 6 18197757944082682490
12549972 3 17679573450929194613
12553582 1 17980199686496593607
12633257 1 17895479253507168945
12644460 14 18411135801639922154
12788726 201 17471591931537274862
12839892 36 18191582158430203539
12892183 10 18410304601230508353
13140716 1 18122623022513772709
13533116 47 18334586707520118987
13965767 371 17699321826721182865
14022349 108 18340194224825934062
14178342 30 18263935504280033087
14223421 5 18409731729644306853
14444916 359 18410005564770737186
14790565 3 18337394963022867476
14844126 61 17181356015795211699
14955137 171 18057051198972007334
15209294 21 17917710261560121517
15309172 13 18265323091859065308
15420108 30 18060129938291565102
15475509 84 17910683068120181217
18785283 64 18334013900352729514
19591789 44 18411415107932240836
19784866 9 18272936037397507832
20028762 73 17981042234436586726
20603629 256 18337675217663935115
20681677 274 18336834074473731019
20715895 44 17482570590217879817
20739085 24 18334577953949761452
21065199 12 18410304592688143985
21524375 3 18057603372303512429
21731228 192 18194960979289864308
21756936 100 17631731711149985636
23419403 2 17826495692048033054
23558518 356 17549533463229536092
23559900 14 17749956523033232487
392239 28 17910968160065685043
394222 165 18130792269412112890
458136 41 18261966218650817854
474 4 18269838769140258597
5104073 3 18269010717384588937
58807428 26 18267571572190193944
633830 44 18059017297191878172
7097593 13 18411424973372048631
7164475 11 9869546770521397696
7615 1 17560500838561178615
79837 15 18122620832402569210

>  <PUBCHEM_SHAPE_MULTIPOLES>  (1) 
416.34
8.55
3.86
1.36
5.3
3.65
0.02
-2.53
4.86
-5.64
1.37
0.61
0.21
-0.26

>  <PUBCHEM_SHAPE_SELFOVERLAP>  (1) 
901.493

>  <PUBCHEM_SHAPE_VOLUME>  (1) 
230.6

>  <PUBCHEM_COORDINATE_TYPE>  (1) 
2
5
10

$$$$
