29228
     RDKit          3D

 12 12  0  0  0  0  0  0  0  0999 V2000
    0.7131   -2.7347   -0.0001 Cl  0  0  0  0  0  0  0  0  0  0  0  0
    0.7112    2.7357    0.0007 Cl  0  0  0  0  0  0  0  0  0  0  0  0
   -3.9134   -0.0009    0.0007 Cl  0  0  0  0  0  0  0  0  0  0  0  0
    2.6249   -1.0977    0.0010 O   0  0  0  0  0  0  0  0  0  0  0  0
    2.6256    1.0976   -0.0004 O   0  0  0  0  0  0  0  0  0  0  0  0
    2.0245    0.0001    0.0002 N   0  0  0  0  0  0  0  0  0  0  0  0
    0.5972    0.0005   -0.0007 C   0  0  0  0  0  0  0  0  0  0  0  0
   -0.0998   -1.2078   -0.0004 C   0  0  0  0  0  0  0  0  0  0  0  0
   -0.1006    1.2082   -0.0006 C   0  0  0  0  0  0  0  0  0  0  0  0
   -1.4947   -1.2082   -0.0001 C   0  0  0  0  0  0  0  0  0  0  0  0
   -1.4954    1.2077   -0.0003 C   0  0  0  0  0  0  0  0  0  0  0  0
   -2.1925   -0.0005    0.0000 C   0  0  0  0  0  0  0  0  0  0  0  0
  1  8  1  0
  2  9  1  0
  3 12  1  0
  4  6  1  0
  5  6  2  0
  6  7  1  0
  7  8  2  0
  7  9  1  0
  8 10  1  0
  9 11  2  0
 10 12  2  0
 11 12  1  0
M  CHG  2   4  -1   6   1
M  END
>  <PUBCHEM_COMPOUND_CID>  (1) 
29228

>  <PUBCHEM_CONFORMER_RMSD>  (1) 
0.4

>  <PUBCHEM_CONFORMER_DIVERSEORDER>  (1) 
1

>  <PUBCHEM_MMFF94_PARTIAL_CHARGES>  (1) 
14
1 -0.18
10 -0.15
11 -0.15
12 0.18
13 0.15
14 0.15
2 -0.18
3 -0.18
4 -0.52
5 -0.52
6 0.91
7 0.13
8 0.18
9 0.18

>  <PUBCHEM_EFFECTIVE_ROTOR_COUNT>  (1) 
1

>  <PUBCHEM_PHARMACOPHORE_FEATURES>  (1) 
4
1 4 acceptor
1 4 anion
1 5 acceptor
6 7 8 9 10 11 12 rings

>  <PUBCHEM_HEAVY_ATOM_COUNT>  (1) 
12

>  <PUBCHEM_ATOM_DEF_STEREO_COUNT>  (1) 
0

>  <PUBCHEM_ATOM_UDEF_STEREO_COUNT>  (1) 
0

>  <PUBCHEM_BOND_DEF_STEREO_COUNT>  (1) 
0

>  <PUBCHEM_BOND_UDEF_STEREO_COUNT>  (1) 
0

>  <PUBCHEM_ISOTOPIC_ATOM_COUNT>  (1) 
0

>  <PUBCHEM_COMPONENT_COUNT>  (1) 
1

>  <PUBCHEM_CACTVS_TAUTO_COUNT>  (1) 
1

>  <PUBCHEM_CONFORMER_ID>  (1) 
0000722C00000001

>  <PUBCHEM_MMFF94_ENERGY>  (1) 
49.1711

>  <PUBCHEM_FEATURE_SELFOVERLAP>  (1) 
20.379

>  <PUBCHEM_SHAPE_FINGERPRINT>  (1) 
10219947 1 18410577284060841915
10967382 1 18410855468760326887
11471102 20 18410288108466362437
12032990 46 18338524049314843375
12423570 1 17703517695792987727
13380535 76 17979628258166433472
13380536 305 18338804527774641453
14251717 144 18411694413850350495
14325111 11 18410855473377196961
161256 15 18196659488252255559
16945 1 18410573989784002567
193761 8 17690279313664383205
20201158 50 18335702706915303843
20511035 2 17972890429652655671
20588541 1 18334862701480061211
20645476 183 17823716341391070702
20645477 70 18340762642710800791
21040471 1 17906452478215061061
21501502 16 17978513027069065467
2334 1 17978228593144562031
23402655 69 18267849611742058269
23463225 33 18336262340832128354
23552423 10 18191312563222192039
23559900 14 17981906430151091916
241688 4 17905893578357505123
2748010 2 18410293639856653974
5084963 1 18202563964493244379
528886 8 18411132580066082747
53812653 166 18270114750658482680
66348 1 18410856525406671266

>  <PUBCHEM_SHAPE_MULTIPOLES>  (1) 
235.84
4.09
2.69
0.6
2.48
0
0
0
0
-1.34
0
0.07
0
0

>  <PUBCHEM_SHAPE_SELFOVERLAP>  (1) 
473.383

>  <PUBCHEM_SHAPE_VOLUME>  (1) 
141.4

>  <PUBCHEM_COORDINATE_TYPE>  (1) 
2
5
10

$$$$
