29233
     RDKit          3D

 26 29  0  0  1  0  0  0  0  0999 V2000
    1.9752    1.2946    0.0803 O   0  0  0  0  0  0  0  0  0  0  0  0
    3.8162   -0.6398    0.4018 O   0  0  0  0  0  0  0  0  0  0  0  0
    1.6610    1.2182    2.3988 O   0  0  0  0  0  0  0  0  0  0  0  0
    4.1429   -0.8156   -1.9096 O   0  0  0  0  0  0  0  0  0  0  0  0
   -3.9949   -1.4565    0.1265 N   0  0  0  0  0  0  0  0  0  0  0  0
   -2.5740   -1.0770    0.3407 C   0  0  0  0  0  0  0  0  0  0  0  0
   -2.2358    0.3104   -0.2153 C   0  0  0  0  0  0  0  0  0  0  0  0
   -1.6109   -2.1116   -0.2847 C   0  0  0  0  0  0  0  0  0  0  0  0
   -3.2625    1.2448   -0.4545 C   0  0  0  0  0  0  0  0  0  0  0  0
   -4.8774   -0.3779    0.5992 C   0  0  0  0  0  0  0  0  0  0  0  0
   -4.7049    0.8624   -0.2726 C   0  0  0  0  0  0  0  0  0  0  0  0
   -0.8786    0.6648   -0.4250 C   0  0  0  0  0  0  0  0  0  0  0  0
   -0.1665   -1.7020   -0.1024 C   0  0  0  0  0  0  0  0  0  0  0  0
    0.1833   -0.3361   -0.1728 C   0  0  0  0  0  0  0  0  0  0  0  0
   -4.3480   -2.7005    0.8185 C   0  0  0  0  0  0  0  0  0  0  0  0
   -2.9466    2.5209   -0.9304 C   0  0  0  0  0  0  0  0  0  0  0  0
   -0.6000    1.9585   -0.9018 C   0  0  0  0  0  0  0  0  0  0  0  0
    1.5367    0.0021    0.0056 C   0  0  0  0  0  0  0  0  0  0  0  0
    0.8164   -2.6845    0.0934 C   0  0  0  0  0  0  0  0  0  0  0  0
   -1.6214    2.8761   -1.1496 C   0  0  0  0  0  0  0  0  0  0  0  0
    2.5087   -0.9800    0.2175 C   0  0  0  0  0  0  0  0  0  0  0  0
    2.1499   -2.3223    0.2555 C   0  0  0  0  0  0  0  0  0  0  0  0
    1.9944    1.8135    1.3828 C   0  0  0  0  0  0  0  0  0  0  0  0
    4.5653   -0.5866   -0.7840 C   0  0  0  0  0  0  0  0  0  0  0  0
    2.4880    3.2298    1.3586 C   0  0  0  0  0  0  0  0  0  0  0  0
    5.9832   -0.2058   -0.4765 C   0  0  0  0  0  0  0  0  0  0  0  0
  1 18  1  0
  1 23  1  0
  2 21  1  0
  2 24  1  0
  3 23  2  0
  4 24  2  0
  5  6  1  0
  5 10  1  0
  5 15  1  0
  6  7  1  0
  6  8  1  0
  7  9  2  0
  7 12  1  0
  8 13  1  0
  9 11  1  0
  9 16  1  0
 10 11  1  0
 12 14  1  0
 12 17  2  0
 13 14  2  0
 13 19  1  0
 14 18  1  0
 16 20  2  0
 17 20  1  0
 18 21  2  0
 19 22  2  0
 21 22  1  0
 23 25  1  0
 24 26  1  0
M  END
>  <PUBCHEM_COMPOUND_CID>  (1) 
29233

>  <PUBCHEM_CONFORMER_RMSD>  (1) 
0.8

>  <PUBCHEM_CONFORMER_DIVERSEORDER>  (1) 
1
4
10
11
2
9
7
12
8
5
6
3

>  <PUBCHEM_MMFF94_PARTIAL_CHARGES>  (1) 
29
1 -0.23
10 0.27
11 0.14
13 -0.14
15 0.27
16 -0.15
17 -0.15
18 0.08
19 -0.15
2 -0.23
20 -0.15
21 0.08
22 -0.15
23 0.66
24 0.66
25 0.06
26 0.06
3 -0.57
37 0.15
38 0.15
39 0.15
4 -0.57
40 0.15
41 0.15
5 -0.81
6 0.41
7 -0.14
8 0.14
9 -0.14

>  <PUBCHEM_EFFECTIVE_ROTOR_COUNT>  (1) 
4.8

>  <PUBCHEM_PHARMACOPHORE_FEATURES>  (1) 
7
1 3 acceptor
1 4 acceptor
1 5 cation
6 13 14 18 19 21 22 rings
6 5 6 7 9 10 11 rings
6 6 7 8 12 13 14 rings
6 7 9 12 16 17 20 rings

>  <PUBCHEM_HEAVY_ATOM_COUNT>  (1) 
26

>  <PUBCHEM_ATOM_DEF_STEREO_COUNT>  (1) 
1

>  <PUBCHEM_ATOM_UDEF_STEREO_COUNT>  (1) 
0

>  <PUBCHEM_BOND_DEF_STEREO_COUNT>  (1) 
0

>  <PUBCHEM_BOND_UDEF_STEREO_COUNT>  (1) 
0

>  <PUBCHEM_ISOTOPIC_ATOM_COUNT>  (1) 
0

>  <PUBCHEM_COMPONENT_COUNT>  (1) 
1

>  <PUBCHEM_CACTVS_TAUTO_COUNT>  (1) 
1

>  <PUBCHEM_CONFORMER_ID>  (1) 
0000723100000001

>  <PUBCHEM_MMFF94_ENERGY>  (1) 
85.743

>  <PUBCHEM_FEATURE_SELFOVERLAP>  (1) 
35.61

>  <PUBCHEM_SHAPE_FINGERPRINT>  (1) 
10165383 225 18264775346206228077
10366900 7 18410566258974771119
10411042 1 18118129289091393499
10616163 171 18334580109732868959
10675989 125 16823888245733896604
10759866 29 17896884261953321538
10906281 52 18192724358602857453
10967382 1 18264202513769824767
11112241 14 16412916492577047512
11595378 159 17095792244386088933
12011746 2 18410008806505616517
12035758 1 18272076237175085304
12236239 1 17168147823650412198
12403259 226 18411696608056340763
12403259 415 18410848859301952745
12553582 1 18187364385214358411
12623949 98 17700431431089594447
12788726 201 17895191065665106881
13134695 92 16702013176232466208
13140716 1 18409721889763234603
13402501 40 18411138034627069230
13726171 33 18262803947965286520
13757389 114 16467558054222807764
14223421 5 18410284822673891193
14251757 17 18272652308069128312
14790565 3 18335712675439563060
1601671 61 18412266103782890978
16945 1 18338499859810930703
17804303 29 18411702092782253829
19591789 44 18409731802268191838
20691752 17 18116135839385223010
21033650 10 17899161355108695982
21267235 1 18335431196558391795
22182313 1 18265033885999153021
23175994 123 17632300047113552976
23536364 44 17984717618924929990
23559900 14 18335696157064089701
2748010 2 18337661022870478373
335352 9 18333452054685841263
350125 39 18410295834669623992
3524813 1 18413102853368828401
5104073 3 18410290345585174699
59554788 170 18339361988759722116
59755656 215 18336262362781712263
6287921 2 18051691337030943121
6823239 73 18409442617909977464
9709674 26 18265893549795231999

>  <PUBCHEM_SHAPE_MULTIPOLES>  (1) 
506.61
9.63
3.43
1.26
3.06
0.81
0.34
-1.89
-0.86
-1.17
0.36
0.91
0.7
2.07

>  <PUBCHEM_SHAPE_SELFOVERLAP>  (1) 
1112.659

>  <PUBCHEM_SHAPE_VOLUME>  (1) 
269.2

>  <PUBCHEM_COORDINATE_TYPE>  (1) 
2
5
10

$$$$
