29245
     RDKit          3D

 17 18  0  0  0  0  0  0  0  0999 V2000
    1.1585   -2.5578   -1.5788 O   0  0  0  0  0  0  0  0  0  0  0  0
   -2.0706    2.7672   -0.5278 O   0  0  0  0  0  0  0  0  0  0  0  0
   -0.0260    2.0230   -1.1853 O   0  0  0  0  0  0  0  0  0  0  0  0
    0.7893   -0.0866    0.4763 C   0  0  0  0  0  0  0  0  0  0  0  0
   -0.6306   -0.3793    0.4428 C   0  0  0  0  0  0  0  0  0  0  0  0
    1.6237   -0.4499   -0.5803 C   0  0  0  0  0  0  0  0  0  0  0  0
   -1.5433    0.5269   -0.0974 C   0  0  0  0  0  0  0  0  0  0  0  0
    1.3161    0.5694    1.5884 C   0  0  0  0  0  0  0  0  0  0  0  0
   -1.0785   -1.5931    0.9641 C   0  0  0  0  0  0  0  0  0  0  0  0
    2.9863   -0.1567   -0.5247 C   0  0  0  0  0  0  0  0  0  0  0  0
    1.0939   -1.1538   -1.7885 C   0  0  0  0  0  0  0  0  0  0  0  0
    2.6788    0.8624    1.6439 C   0  0  0  0  0  0  0  0  0  0  0  0
   -2.9037    0.2189   -0.1163 C   0  0  0  0  0  0  0  0  0  0  0  0
    3.5138    0.4993    0.5875 C   0  0  0  0  0  0  0  0  0  0  0  0
   -2.4389   -1.9008    0.9452 C   0  0  0  0  0  0  0  0  0  0  0  0
   -3.3514   -0.9948    0.4051 C   0  0  0  0  0  0  0  0  0  0  0  0
   -1.1173    1.8058   -0.6539 C   0  0  0  0  0  0  0  0  0  0  0  0
  1 11  1  0
  2 17  1  0
  3 17  2  0
  4  5  1  0
  4  6  2  0
  4  8  1  0
  5  7  2  0
  5  9  1  0
  6 10  1  0
  6 11  1  0
  7 13  1  0
  7 17  1  0
  8 12  2  0
  9 15  2  0
 10 14  2  0
 12 14  1  0
 13 16  2  0
 15 16  1  0
M  END
>  <PUBCHEM_COMPOUND_CID>  (1) 
29245

>  <PUBCHEM_CONFORMER_RMSD>  (1) 
0.6

>  <PUBCHEM_CONFORMER_DIVERSEORDER>  (1) 
3
4
1
2

>  <PUBCHEM_MMFF94_PARTIAL_CHARGES>  (1) 
25
1 -0.68
10 -0.15
11 0.42
12 -0.15
13 -0.15
14 -0.15
15 -0.15
16 -0.15
17 0.63
18 0.15
19 0.15
2 -0.65
20 0.15
23 0.15
24 0.15
25 0.15
26 0.15
27 0.15
28 0.4
29 0.5
3 -0.57
6 -0.14
7 0.09
8 -0.15
9 -0.15

>  <PUBCHEM_EFFECTIVE_ROTOR_COUNT>  (1) 
3

>  <PUBCHEM_PHARMACOPHORE_FEATURES>  (1) 
7
1 1 acceptor
1 1 donor
1 2 acceptor
1 3 acceptor
3 2 3 17 anion
6 4 6 8 10 12 14 rings
6 5 7 9 13 15 16 rings

>  <PUBCHEM_HEAVY_ATOM_COUNT>  (1) 
17

>  <PUBCHEM_ATOM_DEF_STEREO_COUNT>  (1) 
0

>  <PUBCHEM_ATOM_UDEF_STEREO_COUNT>  (1) 
0

>  <PUBCHEM_BOND_DEF_STEREO_COUNT>  (1) 
0

>  <PUBCHEM_BOND_UDEF_STEREO_COUNT>  (1) 
0

>  <PUBCHEM_ISOTOPIC_ATOM_COUNT>  (1) 
0

>  <PUBCHEM_COMPONENT_COUNT>  (1) 
1

>  <PUBCHEM_CACTVS_TAUTO_COUNT>  (1) 
1

>  <PUBCHEM_CONFORMER_ID>  (1) 
0000723D00000003

>  <PUBCHEM_MMFF94_ENERGY>  (1) 
58.5984

>  <PUBCHEM_FEATURE_SELFOVERLAP>  (1) 
35.578

>  <PUBCHEM_SHAPE_FINGERPRINT>  (1) 
11640471 11 16515981288663334092
12236239 1 16588019130173093162
12403814 3 18125424552777672280
12423570 1 12358876868092361634
13294875 104 17326880782119646745
13538477 17 17530678818513240513
13583140 156 17977060761820552536
13839132 238 18264481785064439036
13898156 1 17022911111812003218
14115302 16 16298670611200262323
14817 1 10491959660874913692
15219456 202 18272932678738025466
15309172 13 17631730594584829506
16945 1 18261662753135706840
17844478 74 18343302595362750640
18175812 5 18271806881868213018
18380122 1 18343023302171351902
19049666 15 18127697023751760963
20344682 1 18270964651608385990
20510252 161 18335697234942541177
22112679 90 17240772743812619940
22802520 49 18195819461526760343
232386 152 17604430828858106379
23388829 49 16540718440551604240
23402539 116 18334844048278891191
23526113 38 17624134901766751206
23557571 272 18335712640826259559
23559900 14 18334010563121026962
2748010 2 18044941160601915453
3286 77 17632301202327873810
430814 3 15578981774418856046
44249140 249 18201729418030182002
474 4 15050300519492501738
568465 68 17917154995561376634
5902787 121 17752210745266592331
6442390 28 18049735027183971521
7364860 26 17687193401495999857
77492 1 16588021320643285354
81228 2 18261971651995709953
8272917 22 16343162237665008539

>  <PUBCHEM_SHAPE_MULTIPOLES>  (1) 
332.24
4.91
2.25
1.54
0.35
0.54
-0.11
-0.24
1.18
-1.21
-0.87
0.84
-0.32
1.33

>  <PUBCHEM_SHAPE_SELFOVERLAP>  (1) 
726.346

>  <PUBCHEM_SHAPE_VOLUME>  (1) 
180.3

>  <PUBCHEM_COORDINATE_TYPE>  (1) 
2
5
10

$$$$
