29242
     RDKit          3D

 32 36  0  0  1  0  0  0  0  0999 V2000
    1.3906    0.0793    1.2980 F   0  0  0  0  0  0  0  0  0  0  0  0
   -3.0531   -0.2026    1.1935 O   0  0  0  0  0  0  0  0  0  0  0  0
   -3.6186   -2.2343    0.1564 O   0  0  0  0  0  0  0  0  0  0  0  0
    1.0255    2.7830    0.9389 O   0  0  0  0  0  0  0  0  0  0  0  0
   -4.9632    0.5209   -1.3575 O   0  0  0  0  0  0  0  0  0  0  0  0
   -5.3539    2.7963    0.1493 O   0  0  0  0  0  0  0  0  0  0  0  0
    6.6403   -0.0546    1.5301 O   0  0  0  0  0  0  0  0  0  0  0  0
   -1.5426    0.5295   -0.6223 C   0  0  0  0  0  0  0  0  0  0  0  0
   -0.7060   -0.7559   -0.4339 C   0  0  0  0  0  0  0  0  0  0  0  0
    0.7576   -0.5871   -0.8650 C   0  0  0  0  0  0  0  0  0  0  0  0
    1.4298    0.5342   -0.0062 C   0  0  0  0  0  0  0  0  0  0  0  0
   -2.9381    0.0008   -0.2127 C   0  0  0  0  0  0  0  0  0  0  0  0
   -1.5587   -1.8384   -1.1015 C   0  0  0  0  0  0  0  0  0  0  0  0
   -3.0125   -1.3987   -0.8256 C   0  0  0  0  0  0  0  0  0  0  0  0
   -0.9296    1.5982    0.2876 C   0  0  0  0  0  0  0  0  0  0  0  0
    0.5641    1.8356   -0.0215 C   0  0  0  0  0  0  0  0  0  0  0  0
    2.9660    0.7204   -0.3648 C   0  0  0  0  0  0  0  0  0  0  0  0
    1.5208   -1.9086   -0.7190 C   0  0  0  0  0  0  0  0  0  0  0  0
   -1.5739    1.0396   -2.0888 C   0  0  0  0  0  0  0  0  0  0  0  0
    2.9774   -1.7614   -1.1680 C   0  0  0  0  0  0  0  0  0  0  0  0
    3.6750   -0.6589   -0.3686 C   0  0  0  0  0  0  0  0  0  0  0  0
    3.6365    1.6615    0.6822 C   0  0  0  0  0  0  0  0  0  0  0  0
   -4.0694    0.9052   -0.6049 C   0  0  0  0  0  0  0  0  0  0  0  0
   -3.6490   -1.4904    1.3763 C   0  0  0  0  0  0  0  0  0  0  0  0
    3.1426    1.3571   -1.7642 C   0  0  0  0  0  0  0  0  0  0  0  0
    5.1543    1.6145    0.6824 C   0  0  0  0  0  0  0  0  0  0  0  0
    4.8455   -0.8819    0.2584 C   0  0  0  0  0  0  0  0  0  0  0  0
    3.6417   -3.1469   -1.1532 C   0  0  0  0  0  0  0  0  0  0  0  0
   -4.0423    2.3031   -0.0243 C   0  0  0  0  0  0  0  0  0  0  0  0
   -2.8683   -2.2488    2.4425 C   0  0  0  0  0  0  0  0  0  0  0  0
   -5.1038   -1.3159    1.8028 C   0  0  0  0  0  0  0  0  0  0  0  0
    5.6153    0.2049    0.9037 C   0  0  0  0  0  0  0  0  0  0  0  0
  1 11  1  0
  2 12  1  0
  2 24  1  0
  3 14  1  0
  3 24  1  0
  4 16  1  0
  5 23  2  0
  6 29  1  0
  7 32  2  0
  8  9  1  0
  8 12  1  0
  8 15  1  0
  8 19  1  0
  9 10  1  0
  9 13  1  0
 10 11  1  0
 10 18  1  0
 11 16  1  0
 11 17  1  0
 12 14  1  0
 12 23  1  0
 13 14  1  0
 15 16  1  0
 17 21  1  0
 17 22  1  0
 17 25  1  0
 18 20  1  0
 20 21  1  0
 20 28  1  0
 21 27  2  0
 22 26  1  0
 23 29  1  0
 24 30  1  0
 24 31  1  0
 26 32  1  0
 27 32  1  0
M  END
>  <PUBCHEM_COMPOUND_CID>  (1) 
29242

>  <PUBCHEM_CONFORMER_RMSD>  (1) 
0.8

>  <PUBCHEM_CONFORMER_DIVERSEORDER>  (1) 
2
81
15
29
40
75
59
44
67
72
47
1
27
74
60
78
42
33
63
5
65
45
6
83
25
14
34
30
20
49
19
64
51
7
23
37
66
38
71
24
32
4
77
70
26
69
56
46
18
68
35
22
36
73
61
16
58
52
17
31
48
57
28
55
85
79
12
41
54
50
80
11
9
13
82
84
39
21
43
62
53
10
8
76
3

>  <PUBCHEM_MMFF94_PARTIAL_CHARGES>  (1) 
23
1 -0.34
11 0.34
12 0.34
14 0.28
16 0.28
17 0.14
2 -0.56
20 0.14
21 -0.28
23 0.45
24 0.56
26 0.06
27 -0.14
29 0.34
3 -0.56
32 0.49
4 -0.68
5 -0.57
52 0.4
55 0.15
6 -0.68
67 0.4
7 -0.57

>  <PUBCHEM_EFFECTIVE_ROTOR_COUNT>  (1) 
4

>  <PUBCHEM_PHARMACOPHORE_FEATURES>  (1) 
14
1 2 acceptor
1 3 acceptor
1 4 acceptor
1 4 donor
1 5 acceptor
1 6 acceptor
1 6 donor
1 7 acceptor
3 24 30 31 hydrophobe
5 2 3 12 14 24 rings
5 8 9 12 13 14 rings
6 10 11 17 18 20 21 rings
6 17 21 22 26 27 32 rings
6 8 9 10 11 15 16 rings

>  <PUBCHEM_HEAVY_ATOM_COUNT>  (1) 
32

>  <PUBCHEM_ATOM_DEF_STEREO_COUNT>  (1) 
4

>  <PUBCHEM_ATOM_UDEF_STEREO_COUNT>  (1) 
5

>  <PUBCHEM_BOND_DEF_STEREO_COUNT>  (1) 
0

>  <PUBCHEM_BOND_UDEF_STEREO_COUNT>  (1) 
0

>  <PUBCHEM_ISOTOPIC_ATOM_COUNT>  (1) 
0

>  <PUBCHEM_COMPONENT_COUNT>  (1) 
1

>  <PUBCHEM_CACTVS_TAUTO_COUNT>  (1) 
15

>  <PUBCHEM_CONFORMER_ID>  (1) 
0000723A00000002

>  <PUBCHEM_MMFF94_ENERGY>  (1) 
108.9641

>  <PUBCHEM_FEATURE_SELFOVERLAP>  (1) 
71.809

>  <PUBCHEM_SHAPE_FINGERPRINT>  (1) 
10 15 18411412951969558008
10675989 125 17185866199697416221
1100329 8 16754942260974618724
11370993 144 18339645529615643823
11405975 8 18113903753487127172
11796584 16 17603578617468765154
12035758 1 18262814977815231969
12236239 1 18186797003055193180
12422481 6 18341322332683628826
12553582 1 18201733880696453124
12633257 1 18199196259183089971
13140716 1 18055085271679844330
13224815 77 18341055198001339542
13583140 156 17703501194449397991
13675066 3 18409450297448236710
14790565 3 17912649008027635025
15081414 286 17988654008091710164
15361156 5 18335708221663634734
15788980 27 18334852853114659792
16112460 7 17771636646081690097
17349148 13 18260832631174534088
1813 80 17822303417224920895
20511986 3 17345452852331318678
20715895 44 18267299820508401261
20721686 56 18271239410047965238
21033648 29 18341901762099302935
21421861 104 18191012414471600714
21859007 373 17608359151860437357
22182313 1 18271824388054802039
23559900 14 18189346684130348710
3380486 145 18343023324236986767
34934 24 18201992201541283958
350125 39 18057882635714950367
392239 28 17917140702426868546
4015057 19 18270949194480413461
4073 2 18260830401928330266
460360 51 18199485310518891096
5081480 168 16771861799680615988
5104073 3 18339083687579448210
59755656 215 18343021052536988574
6009941 240 18187079525117675000
9709674 26 18341051809103175694
9981440 41 18412543181092911779

>  <PUBCHEM_SHAPE_MULTIPOLES>  (1) 
616.06
12.25
2.92
1.71
4.78
0.16
-0.28
-0.68
-4.06
-0.9
-0.03
-0.59
0.54
2.07

>  <PUBCHEM_SHAPE_SELFOVERLAP>  (1) 
1341.785

>  <PUBCHEM_SHAPE_VOLUME>  (1) 
338.3

>  <PUBCHEM_COORDINATE_TYPE>  (1) 
2
5
10

$$$$
