29240
     RDKit          3D

 20 19  0  0  0  0  0  0  0  0999 V2000
   -4.3548    1.1306   -0.1795 N   0  0  0  0  0  0  0  0  0  0  0  0
    4.3667    1.1200    0.1793 N   0  0  0  0  0  0  0  0  0  0  0  0
   -3.0469    1.0944   -0.8770 C   0  0  0  0  0  0  0  0  0  0  0  0
    3.0582    1.0980    0.8764 C   0  0  0  0  0  0  0  0  0  0  0  0
   -1.9308    1.0886    0.1569 C   0  0  0  0  0  0  0  0  0  0  0  0
    1.9424    1.1038   -0.1578 C   0  0  0  0  0  0  0  0  0  0  0  0
   -4.5099   -0.0781    0.7545 C   0  0  0  0  0  0  0  0  0  0  0  0
    4.5091   -0.0905   -0.7543 C   0  0  0  0  0  0  0  0  0  0  0  0
   -0.5580    1.0981   -0.5173 C   0  0  0  0  0  0  0  0  0  0  0  0
    0.5696    1.1282    0.5158 C   0  0  0  0  0  0  0  0  0  0  0  0
   -4.4883    2.4055    0.6658 C   0  0  0  0  0  0  0  0  0  0  0  0
   -5.5125    1.1047   -1.1878 C   0  0  0  0  0  0  0  0  0  0  0  0
    4.5139    2.3931   -0.6664 C   0  0  0  0  0  0  0  0  0  0  0  0
    5.5238    1.0822    1.1879 C   0  0  0  0  0  0  0  0  0  0  0  0
   -4.3488   -1.3568   -0.0540 C   0  0  0  0  0  0  0  0  0  0  0  0
    4.3345   -1.3672    0.0547 C   0  0  0  0  0  0  0  0  0  0  0  0
   -4.5412   -2.5906    0.8269 C   0  0  0  0  0  0  0  0  0  0  0  0
    4.5139   -2.6033   -0.8257 C   0  0  0  0  0  0  0  0  0  0  0  0
   -4.4184   -3.8748    0.0223 C   0  0  0  0  0  0  0  0  0  0  0  0
    4.3773   -3.8858   -0.0207 C   0  0  0  0  0  0  0  0  0  0  0  0
  1  3  1  0
  1  7  1  0
  1 11  1  0
  1 12  1  0
  2  4  1  0
  2  8  1  0
  2 13  1  0
  2 14  1  0
  3  5  1  0
  4  6  1  0
  5  9  1  0
  6 10  1  0
  7 15  1  0
  8 16  1  0
  9 10  1  0
 15 17  1  0
 16 18  1  0
 17 19  1  0
 18 20  1  0
M  CHG  2   1   1   2   1
M  END
>  <PUBCHEM_COMPOUND_CID>  (1) 
29240

>  <PUBCHEM_CONFORMER_RMSD>  (1) 
1.2

>  <PUBCHEM_CONFORMER_DIVERSEORDER>  (1) 
2
57
38
31
28
16
13
1
51
59
56
58
10
6
29
42
33
12
50
22
27
24
52
55
47
39
21
36
9
44
5
37
26
3
34
30
40
53
35
8
43
19
7
18
48
41
45
11
23
60
4
49
46
32
15
20
54
61
14
25
17

>  <PUBCHEM_MMFF94_PARTIAL_CHARGES>  (1) 
10
1 -1.01
11 0.5
12 0.5
13 0.5
14 0.5
2 -1.01
3 0.5
4 0.5
7 0.5
8 0.5

>  <PUBCHEM_EFFECTIVE_ROTOR_COUNT>  (1) 
13

>  <PUBCHEM_PHARMACOPHORE_FEATURES>  (1) 
5
1 1 cation
1 19 hydrophobe
1 2 cation
1 20 hydrophobe
4 5 6 9 10 hydrophobe

>  <PUBCHEM_HEAVY_ATOM_COUNT>  (1) 
20

>  <PUBCHEM_ATOM_DEF_STEREO_COUNT>  (1) 
0

>  <PUBCHEM_ATOM_UDEF_STEREO_COUNT>  (1) 
0

>  <PUBCHEM_BOND_DEF_STEREO_COUNT>  (1) 
0

>  <PUBCHEM_BOND_UDEF_STEREO_COUNT>  (1) 
0

>  <PUBCHEM_ISOTOPIC_ATOM_COUNT>  (1) 
0

>  <PUBCHEM_COMPONENT_COUNT>  (1) 
1

>  <PUBCHEM_CACTVS_TAUTO_COUNT>  (1) 
1

>  <PUBCHEM_CONFORMER_ID>  (1) 
0000723800000002

>  <PUBCHEM_MMFF94_ENERGY>  (1) 
53.4272

>  <PUBCHEM_FEATURE_SELFOVERLAP>  (1) 
25.373

>  <PUBCHEM_SHAPE_FINGERPRINT>  (1) 
11186622 123 18333726914179364707
11796584 16 18335695014328047280
12107183 9 17767130804233146096
13073987 5 18201999897917463193
13167823 11 18410855460128324205
13255334 9 18410578379109217022
13533116 47 18201434727935064816
13583140 156 17845927541239483617
13941219 33 18340221751772449243
13955234 65 18343297077211042376
14461889 52 18270107045967098056
14910302 57 18187642453532735724
15019793 15 18411136973924446614
15799311 1 18266762262284867942
17844677 252 18411708681162761977
20645477 70 18336264549152122240
21054139 6 17823126973278116386
21315759 148 18411984692977326705
220451 1 18341344330736180512
23402539 116 16660354896674885733
23424784 1240 18409739477423002282
23559900 14 18410289177454484560
239999 70 18259703381330474352
25222932 49 18129662040500061070
312425 54 18273221884945967881
338550 245 18335703875246823854
4073 2 18411699902454674880
444735 86 18263914587331112931
5104073 3 18059297569324200649
59755656 520 18338796720542546669
6431902 208 18266455597742425343
8863177 126 18412549790936960014
9841814 1 16558742413276756968

>  <PUBCHEM_SHAPE_MULTIPOLES>  (1) 
401.63
16.75
4.22
1.04
0.06
5.7
0
3.96
0.02
0.01
0
0
-0.21
1.39

>  <PUBCHEM_SHAPE_SELFOVERLAP>  (1) 
732.764

>  <PUBCHEM_SHAPE_VOLUME>  (1) 
258.8

>  <PUBCHEM_COORDINATE_TYPE>  (1) 
2
5
10

$$$$
