29260
     RDKit          3D

 23 26  0  0  1  0  0  0  0  0999 V2000
    3.4821    3.7585    1.4531 Cl  0  0  0  0  0  0  0  0  0  0  0  0
   -1.0357    1.1296   -0.0323 O   0  0  0  0  0  0  0  0  0  0  0  0
   -4.6999    1.2469   -0.3323 N   0  0  0  0  0  0  0  0  0  0  0  0
   -0.0185    0.2259   -0.4179 C   0  0  0  0  0  0  0  0  0  0  0  0
    1.8952   -1.4335   -1.1426 C   0  0  0  0  0  0  0  0  0  0  0  0
   -0.0527   -0.0058   -1.9577 C   0  0  0  0  0  0  0  0  0  0  0  0
    1.0787   -0.9892   -2.3852 C   0  0  0  0  0  0  0  0  0  0  0  0
    1.3871    0.7499   -0.1103 C   0  0  0  0  0  0  0  0  0  0  0  0
   -0.1470   -1.1626    0.2174 C   0  0  0  0  0  0  0  0  0  0  0  0
    2.4148   -0.1496   -0.5043 C   0  0  0  0  0  0  0  0  0  0  0  0
    0.8876   -2.0529   -0.1800 C   0  0  0  0  0  0  0  0  0  0  0  0
    1.7107    1.9573    0.4957 C   0  0  0  0  0  0  0  0  0  0  0  0
   -1.1269   -1.5843    1.1069 C   0  0  0  0  0  0  0  0  0  0  0  0
    3.7516    0.1597   -0.2940 C   0  0  0  0  0  0  0  0  0  0  0  0
    0.9348   -3.3524    0.3059 C   0  0  0  0  0  0  0  0  0  0  0  0
   -2.3289    0.6546   -0.3919 C   0  0  0  0  0  0  0  0  0  0  0  0
    3.0572    2.2660    0.7041 C   0  0  0  0  0  0  0  0  0  0  0  0
   -1.0771   -2.8934    1.5922 C   0  0  0  0  0  0  0  0  0  0  0  0
    4.0680    1.3758    0.3130 C   0  0  0  0  0  0  0  0  0  0  0  0
   -0.0564   -3.7694    1.1950 C   0  0  0  0  0  0  0  0  0  0  0  0
   -3.3754    1.6653    0.0406 C   0  0  0  0  0  0  0  0  0  0  0  0
   -5.7055    2.2510    0.0482 C   0  0  0  0  0  0  0  0  0  0  0  0
   -5.0438   -0.0474    0.2762 C   0  0  0  0  0  0  0  0  0  0  0  0
  1 17  1  0
  2  4  1  0
  2 16  1  0
  3 21  1  0
  3 22  1  0
  3 23  1  0
  4  6  1  0
  4  8  1  0
  4  9  1  0
  5  7  1  0
  5 10  1  0
  5 11  1  0
  6  7  1  0
  8 10  2  0
  8 12  1  0
  9 11  2  0
  9 13  1  0
 10 14  1  0
 11 15  1  0
 12 17  2  0
 13 18  2  0
 14 19  2  0
 15 20  2  0
 16 21  1  0
 17 19  1  0
 18 20  1  0
M  END
>  <PUBCHEM_COMPOUND_CID>  (1) 
29260

>  <PUBCHEM_CONFORMER_RMSD>  (1) 
0.8

>  <PUBCHEM_CONFORMER_DIVERSEORDER>  (1) 
1
7
5
4
2
6
8
3

>  <PUBCHEM_MMFF94_PARTIAL_CHARGES>  (1) 
28
1 -0.18
10 -0.14
11 -0.14
12 -0.15
13 -0.15
14 -0.15
15 -0.15
16 0.28
17 0.18
18 -0.15
19 -0.15
2 -0.56
20 -0.15
21 0.27
22 0.27
23 0.27
29 0.15
3 -0.81
30 0.15
31 0.15
32 0.15
35 0.15
36 0.15
37 0.15
4 0.57
5 0.29
8 -0.14
9 -0.14

>  <PUBCHEM_EFFECTIVE_ROTOR_COUNT>  (1) 
4.4

>  <PUBCHEM_PHARMACOPHORE_FEATURES>  (1) 
5
1 2 acceptor
1 3 cation
6 8 10 12 14 17 19 rings
6 9 11 13 15 18 20 rings
8 4 5 6 7 8 9 10 11 rings

>  <PUBCHEM_HEAVY_ATOM_COUNT>  (1) 
23

>  <PUBCHEM_ATOM_DEF_STEREO_COUNT>  (1) 
0

>  <PUBCHEM_ATOM_UDEF_STEREO_COUNT>  (1) 
2

>  <PUBCHEM_BOND_DEF_STEREO_COUNT>  (1) 
0

>  <PUBCHEM_BOND_UDEF_STEREO_COUNT>  (1) 
0

>  <PUBCHEM_ISOTOPIC_ATOM_COUNT>  (1) 
0

>  <PUBCHEM_COMPONENT_COUNT>  (1) 
1

>  <PUBCHEM_CACTVS_TAUTO_COUNT>  (1) 
1

>  <PUBCHEM_CONFORMER_ID>  (1) 
0000724C00000001

>  <PUBCHEM_MMFF94_ENERGY>  (1) 
96.5744

>  <PUBCHEM_FEATURE_SELFOVERLAP>  (1) 
25.393

>  <PUBCHEM_SHAPE_FINGERPRINT>  (1) 
10074138 170 17760059093256053201
10165383 225 18187092719795187916
10764073 3 15509637727876194217
10948715 1 18270958054591282478
1100329 8 18264482902009709066
11370993 70 18335702762712669873
11725454 13 18059293291621149835
12596602 18 17987816124940148417
12716301 132 18044114533852955110
12730499 353 18335994069233647905
12769317 202 18341319003609857497
12788726 201 17320991170839207834
13140716 1 18410283740136514792
13533116 47 18118685406110205161
14178342 30 17901369415023359536
14787075 74 18200027481979690545
15295992 7 18270112534940641592
15475509 84 17255965568042470113
16945 1 18199170820444840766
17980427 26 18339624673069825519
20567600 347 18040436564637299195
21049683 118 18120907711391758057
21197605 99 18126569144588097135
21421861 104 17901950742709129081
21524375 3 18272366481816156964
22149856 69 17898039883994124649
22956985 138 16807281407239559131
23419403 2 17554657011337014302
23558518 356 18122896787929040405
23559900 14 18188219705801053613
239999 70 18130229246802651445
2748010 2 18194425456966297606
298252 57 17346310527198687724
3380486 145 17329992911122755443
376196 1 18201428224901248825
394222 165 18202273689249870225
427121 178 18114184107561542347
4340502 62 18408325467325834769
474 4 18343018895714767561
5104073 3 18117004287133026665
5895379 119 16911441347789481153
633830 44 18343291583193490301
6442390 28 18334858341877109847
7364860 26 18119809106239457307
81228 2 17680980005278724406
84936 182 18265617567817662977
90316 7 17400369339075598386
9777508 108 18264773336250756251
9981440 41 17269443802851458208
9999458 23 18410572855891849692

>  <PUBCHEM_SHAPE_MULTIPOLES>  (1) 
464.35
7.93
4.25
1.5
10.43
1.48
-0.53
-9.54
1
-1.07
2.47
-0.54
0.6
1.92

>  <PUBCHEM_SHAPE_SELFOVERLAP>  (1) 
1011.373

>  <PUBCHEM_SHAPE_VOLUME>  (1) 
257.9

>  <PUBCHEM_COORDINATE_TYPE>  (1) 
2
5
10

$$$$
