29262
     RDKit          3D

 23 26  0  0  1  0  0  0  0  0999 V2000
    0.4143   -3.1773   -1.2710 Cl  0  0  0  0  0  0  0  0  0  0  0  0
   -1.0481   -1.0619   -0.0497 O   0  0  0  0  0  0  0  0  0  0  0  0
   -4.6787   -0.7270    0.4358 N   0  0  0  0  0  0  0  0  0  0  0  0
    0.0959   -0.3277    0.3409 C   0  0  0  0  0  0  0  0  0  0  0  0
    2.1489    1.1131    1.1471 C   0  0  0  0  0  0  0  0  0  0  0  0
    0.0853   -0.1846    1.8918 C   0  0  0  0  0  0  0  0  0  0  0  0
    1.2992    0.6696    2.3676 C   0  0  0  0  0  0  0  0  0  0  0  0
    1.4496   -0.9534   -0.0069 C   0  0  0  0  0  0  0  0  0  0  0  0
    0.0880    1.1015   -0.2115 C   0  0  0  0  0  0  0  0  0  0  0  0
    2.5529   -0.1716    0.4314 C   0  0  0  0  0  0  0  0  0  0  0  0
    1.1973    1.8734    0.2295 C   0  0  0  0  0  0  0  0  0  0  0  0
    1.6650   -2.1468   -0.6845 C   0  0  0  0  0  0  0  0  0  0  0  0
   -0.8532    1.6585   -1.0679 C   0  0  0  0  0  0  0  0  0  0  0  0
    3.8570   -0.5834    0.1938 C   0  0  0  0  0  0  0  0  0  0  0  0
    1.3570    3.1900   -0.1802 C   0  0  0  0  0  0  0  0  0  0  0  0
   -2.2499   -0.4516    0.4089 C   0  0  0  0  0  0  0  0  0  0  0  0
    2.9789   -2.5590   -0.9202 C   0  0  0  0  0  0  0  0  0  0  0  0
   -0.6901    2.9845   -1.4764 C   0  0  0  0  0  0  0  0  0  0  0  0
    4.0645   -1.7848   -0.4852 C   0  0  0  0  0  0  0  0  0  0  0  0
    0.4041    3.7433   -1.0363 C   0  0  0  0  0  0  0  0  0  0  0  0
   -3.4390   -1.2844   -0.0340 C   0  0  0  0  0  0  0  0  0  0  0  0
   -5.8242   -1.5622    0.0428 C   0  0  0  0  0  0  0  0  0  0  0  0
   -4.8745    0.6420   -0.0660 C   0  0  0  0  0  0  0  0  0  0  0  0
  1 12  1  0
  2  4  1  0
  2 16  1  0
  3 21  1  0
  3 22  1  0
  3 23  1  0
  4  6  1  0
  4  8  1  0
  4  9  1  0
  5  7  1  0
  5 10  1  0
  5 11  1  0
  6  7  1  0
  8 10  2  0
  8 12  1  0
  9 11  2  0
  9 13  1  0
 10 14  1  0
 11 15  1  0
 12 17  2  0
 13 18  2  0
 14 19  2  0
 15 20  2  0
 16 21  1  0
 17 19  1  0
 18 20  1  0
M  END
>  <PUBCHEM_COMPOUND_CID>  (1) 
29262

>  <PUBCHEM_CONFORMER_RMSD>  (1) 
0.8

>  <PUBCHEM_CONFORMER_DIVERSEORDER>  (1) 
1
6
2
5
3
4

>  <PUBCHEM_MMFF94_PARTIAL_CHARGES>  (1) 
28
1 -0.18
10 -0.14
11 -0.14
12 0.18
13 -0.15
14 -0.15
15 -0.15
16 0.28
17 -0.15
18 -0.15
19 -0.15
2 -0.56
20 -0.15
21 0.27
22 0.27
23 0.27
29 0.15
3 -0.81
30 0.15
31 0.15
34 0.15
35 0.15
36 0.15
37 0.15
4 0.57
5 0.29
8 -0.14
9 -0.14

>  <PUBCHEM_EFFECTIVE_ROTOR_COUNT>  (1) 
4.4

>  <PUBCHEM_PHARMACOPHORE_FEATURES>  (1) 
5
1 2 acceptor
1 3 cation
6 8 10 12 14 17 19 rings
6 9 11 13 15 18 20 rings
8 4 5 6 7 8 9 10 11 rings

>  <PUBCHEM_HEAVY_ATOM_COUNT>  (1) 
23

>  <PUBCHEM_ATOM_DEF_STEREO_COUNT>  (1) 
0

>  <PUBCHEM_ATOM_UDEF_STEREO_COUNT>  (1) 
2

>  <PUBCHEM_BOND_DEF_STEREO_COUNT>  (1) 
0

>  <PUBCHEM_BOND_UDEF_STEREO_COUNT>  (1) 
0

>  <PUBCHEM_ISOTOPIC_ATOM_COUNT>  (1) 
0

>  <PUBCHEM_COMPONENT_COUNT>  (1) 
1

>  <PUBCHEM_CACTVS_TAUTO_COUNT>  (1) 
1

>  <PUBCHEM_CONFORMER_ID>  (1) 
0000724E00000001

>  <PUBCHEM_MMFF94_ENERGY>  (1) 
101.5382

>  <PUBCHEM_FEATURE_SELFOVERLAP>  (1) 
25.393

>  <PUBCHEM_SHAPE_FINGERPRINT>  (1) 
10064457 181 17773587407109943759
10165383 225 17986384706260401464
10366900 7 16877657985885209611
10906281 52 17969515964380813480
11421498 54 15574997213521752125
11578080 2 17916568840079276536
116883 192 18336829688842759725
12035758 1 18271226301527937242
12293681 25 17766540375094626558
12422481 6 18194938942124334424
12617007 42 18259990396087041941
12788726 201 18042129747945621218
13009979 54 18129400266638446913
13140716 1 18051681441795064786
13583140 156 16915923240862607545
13965767 371 17908394172594637744
14713325 29 18050849910398849196
14790565 3 17975983385974957564
15420108 30 17546711012449521952
1601671 61 18410015454740703917
16945 1 17988912414645944114
17357779 13 18338504240999397797
17492 54 18117865363186751646
17492 89 18192715764226247883
1813 80 18335706026634723963
19765921 60 14510127237050357648
20645477 70 18117270561924706615
20691752 17 18266718324981128246
20739085 24 18337106868820655700
21033648 29 18058996334030902347
21285901 2 18339083670410212911
21452121 99 17539385657989167468
21503847 285 18260266378391541865
22182313 1 18268407084936754864
23352939 185 18341626910099676568
23419403 2 17772728529851919776
23557571 272 18190462666962479078
23559900 14 18412541042410156019
2748010 2 18195783246684481548
3060560 45 18194971957147301308
338550 245 18056474183058954327
38695281 34 17976548534956421884
4340502 62 17631726213786844138
46194498 28 18261955258316317007
54040823 5 18259987089010009026
57262259 84 18052831242978644790
57527585 103 16260693118372703158
6287921 2 18268989959285446239
6443956 14 18272375252123063953
7364860 26 18265055919350264357
81228 2 17972898967884330800
9709674 26 18190463951506386539

>  <PUBCHEM_SHAPE_MULTIPOLES>  (1) 
464.35
7.47
3.93
1.45
12.23
2.17
-0.57
-5.63
-0.28
-1.42
2.34
-0.52
0.38
1.1

>  <PUBCHEM_SHAPE_SELFOVERLAP>  (1) 
1013.327

>  <PUBCHEM_SHAPE_VOLUME>  (1) 
257.1

>  <PUBCHEM_COORDINATE_TYPE>  (1) 
2
5
10

$$$$
