29264
     RDKit          3D

 23 26  0  0  0  0  0  0  0  0999 V2000
    1.6364    0.1593   -0.2891 O   0  0  0  0  0  0  0  0  0  0  0  0
    4.4268    0.4598    0.0658 N   0  0  0  0  0  0  0  0  0  0  0  0
   -2.2088   -0.0493    1.0117 C   0  0  0  0  0  0  0  0  0  0  0  0
    0.2971    0.0977    0.1650 C   0  0  0  0  0  0  0  0  0  0  0  0
   -1.2114    0.0184    2.2165 C   0  0  0  0  0  0  0  0  0  0  0  0
    0.2563    0.1023    1.7153 C   0  0  0  0  0  0  0  0  0  0  0  0
   -1.7604   -1.2693    0.1824 C   0  0  0  0  0  0  0  0  0  0  0  0
   -1.9109    1.2053    0.1665 C   0  0  0  0  0  0  0  0  0  0  0  0
   -0.4128   -1.1854   -0.2689 C   0  0  0  0  0  0  0  0  0  0  0  0
   -0.5632    1.2795   -0.2866 C   0  0  0  0  0  0  0  0  0  0  0  0
   -3.6451   -0.1333    1.5389 C   0  0  0  0  0  0  0  0  0  0  0  0
   -2.5336   -2.3778   -0.1514 C   0  0  0  0  0  0  0  0  0  0  0  0
   -2.8136    2.2063   -0.1820 C   0  0  0  0  0  0  0  0  0  0  0  0
    0.1410   -2.2031   -1.0398 C   0  0  0  0  0  0  0  0  0  0  0  0
   -0.1393    2.3433   -1.0773 C   0  0  0  0  0  0  0  0  0  0  0  0
    2.4129   -0.9241    0.2099 C   0  0  0  0  0  0  0  0  0  0  0  0
   -1.9695   -3.3966   -0.9230 C   0  0  0  0  0  0  0  0  0  0  0  0
   -2.3789    3.2736   -0.9711 C   0  0  0  0  0  0  0  0  0  0  0  0
   -0.6438   -3.3102   -1.3633 C   0  0  0  0  0  0  0  0  0  0  0  0
   -1.0533    3.3416   -1.4153 C   0  0  0  0  0  0  0  0  0  0  0  0
    3.8269   -0.8039   -0.3357 C   0  0  0  0  0  0  0  0  0  0  0  0
    5.7737    0.5950   -0.4942 C   0  0  0  0  0  0  0  0  0  0  0  0
    4.4733    0.5709    1.5258 C   0  0  0  0  0  0  0  0  0  0  0  0
  1  4  1  0
  1 16  1  0
  2 21  1  0
  2 22  1  0
  2 23  1  0
  3  5  1  0
  3  7  1  0
  3  8  1  0
  3 11  1  0
  4  6  1  0
  4  9  1  0
  4 10  1  0
  5  6  1  0
  7  9  2  0
  7 12  1  0
  8 10  2  0
  8 13  1  0
  9 14  1  0
 10 15  1  0
 12 17  2  0
 13 18  2  0
 14 19  2  0
 15 20  2  0
 16 21  1  0
 17 19  1  0
 18 20  1  0
M  END
>  <PUBCHEM_COMPOUND_CID>  (1) 
29264

>  <PUBCHEM_CONFORMER_RMSD>  (1) 
0.8

>  <PUBCHEM_CONFORMER_DIVERSEORDER>  (1) 
2
5
1
3
4

>  <PUBCHEM_MMFF94_PARTIAL_CHARGES>  (1) 
28
1 -0.56
10 -0.14
12 -0.15
13 -0.15
14 -0.15
15 -0.15
16 0.28
17 -0.15
18 -0.15
19 -0.15
2 -0.81
20 -0.15
21 0.27
22 0.27
23 0.27
3 0.29
31 0.15
32 0.15
33 0.15
34 0.15
37 0.15
38 0.15
39 0.15
4 0.57
40 0.15
7 -0.14
8 -0.14
9 -0.14

>  <PUBCHEM_EFFECTIVE_ROTOR_COUNT>  (1) 
4.4

>  <PUBCHEM_PHARMACOPHORE_FEATURES>  (1) 
5
1 1 acceptor
1 2 cation
6 7 9 12 14 17 19 rings
6 8 10 13 15 18 20 rings
8 3 4 5 6 7 8 9 10 rings

>  <PUBCHEM_HEAVY_ATOM_COUNT>  (1) 
23

>  <PUBCHEM_ATOM_DEF_STEREO_COUNT>  (1) 
0

>  <PUBCHEM_ATOM_UDEF_STEREO_COUNT>  (1) 
0

>  <PUBCHEM_BOND_DEF_STEREO_COUNT>  (1) 
0

>  <PUBCHEM_BOND_UDEF_STEREO_COUNT>  (1) 
0

>  <PUBCHEM_ISOTOPIC_ATOM_COUNT>  (1) 
0

>  <PUBCHEM_COMPONENT_COUNT>  (1) 
1

>  <PUBCHEM_CACTVS_TAUTO_COUNT>  (1) 
1

>  <PUBCHEM_CONFORMER_ID>  (1) 
0000725000000002

>  <PUBCHEM_MMFF94_ENERGY>  (1) 
106.92

>  <PUBCHEM_FEATURE_SELFOVERLAP>  (1) 
25.392

>  <PUBCHEM_SHAPE_FINGERPRINT>  (1) 
10165383 225 18129956589035265728
10871710 139 18262806292974283772
10906281 52 18116170882793855661
10948715 1 17974002851989254505
11101153 10 18045779259636863372
11578080 2 17768833986831715465
11582403 64 17389643216699638133
11833330 49 18264473156427506301
12173636 292 18268982099247745012
12403814 3 18409735070806856523
12422481 6 18119274812460842385
12788726 201 18260535753865131058
13004483 165 18194662977189776126
13009979 54 17840601614684578923
13140716 1 18195260029515460563
14787075 74 17131835361189813899
14840074 17 18192168172500383436
14910302 57 18129961026448606878
16945 1 17969245394240917907
17357779 13 17700105954082921007
17492 54 18044347523307761525
1813 80 17905026394359144618
21033648 29 18271799069893031336
21524375 3 17754445755858055104
22112679 90 18193849364217388540
22182313 1 18048054986285196501
22907989 373 18339909485346933868
23227448 37 18340766035465958628
23419403 2 17057493076367741385
23559900 14 17632304463094437058
23598288 3 18187354399114572114
238 59 17620740696597278559
2748010 2 17905068975091944503
34934 24 18113897139321705729
376196 1 17465646906219608781
4340502 62 17702686371051244011
469060 322 18264771141554486794
531348 171 18335987463901260366
633830 44 17201649839632193768
6992083 37 18267879447998635099
81228 2 18268698592498399546
90316 7 18336263526369514174
9862522 239 18335975359701997964
9925002 15 18195254548773161709
9981440 41 18051117099892769408

>  <PUBCHEM_SHAPE_MULTIPOLES>  (1) 
462.48
6.97
3.89
1.6
13.94
0.23
-0.64
-1.55
-1.17
-3.94
2.87
-0.45
-0.11
0.4

>  <PUBCHEM_SHAPE_SELFOVERLAP>  (1) 
1016.811

>  <PUBCHEM_SHAPE_VOLUME>  (1) 
250.5

>  <PUBCHEM_COORDINATE_TYPE>  (1) 
2
5
10

$$$$
