29270
     RDKit          3D

 20 22  0  0  0  0  0  0  0  0999 V2000
   -5.1733    0.4396   -0.2993 F   0  0  0  0  0  0  0  0  0  0  0  0
   -4.4203   -1.4077   -1.1504 F   0  0  0  0  0  0  0  0  0  0  0  0
   -4.5862   -1.1963    1.0075 F   0  0  0  0  0  0  0  0  0  0  0  0
    1.3704    2.7219    0.0432 O   0  0  0  0  0  0  0  0  0  0  0  0
    0.6357   -1.2352    0.3647 N   0  0  0  0  0  0  0  0  0  0  0  0
    5.0537   -0.8850   -0.5587 C   0  0  0  0  0  0  0  0  0  0  0  0
    3.9636   -1.9556   -0.5540 C   0  0  0  0  0  0  0  0  0  0  0  0
    4.5548    0.5478   -0.7402 C   0  0  0  0  0  0  0  0  0  0  0  0
    2.9929   -1.8482    0.6236 C   0  0  0  0  0  0  0  0  0  0  0  0
    3.6751    1.0487    0.4065 C   0  0  0  0  0  0  0  0  0  0  0  0
    1.9358   -0.7815    0.4363 C   0  0  0  0  0  0  0  0  0  0  0  0
    2.2645    0.5253    0.3414 C   0  0  0  0  0  0  0  0  0  0  0  0
    1.1538    1.5200    0.1456 C   0  0  0  0  0  0  0  0  0  0  0  0
   -0.4508   -0.3750    0.1875 C   0  0  0  0  0  0  0  0  0  0  0  0
   -0.2361    1.0050    0.0751 C   0  0  0  0  0  0  0  0  0  0  0  0
   -1.7589   -0.8666    0.1208 C   0  0  0  0  0  0  0  0  0  0  0  0
   -1.3098    1.8831   -0.1018 C   0  0  0  0  0  0  0  0  0  0  0  0
   -2.8329    0.0075   -0.0558 C   0  0  0  0  0  0  0  0  0  0  0  0
   -2.6083    1.3791   -0.1668 C   0  0  0  0  0  0  0  0  0  0  0  0
   -4.2236   -0.5267   -0.1253 C   0  0  0  0  0  0  0  0  0  0  0  0
  1 20  1  0
  2 20  1  0
  3 20  1  0
  4 13  2  0
  5 11  1  0
  5 14  1  0
  6  7  1  0
  6  8  1  0
  7  9  1  0
  8 10  1  0
  9 11  1  0
 10 12  1  0
 11 12  2  0
 12 13  1  0
 13 15  1  0
 14 15  2  0
 14 16  1  0
 15 17  1  0
 16 18  2  0
 17 19  2  0
 18 19  1  0
 18 20  1  0
M  END
>  <PUBCHEM_COMPOUND_CID>  (1) 
29270

>  <PUBCHEM_CONFORMER_RMSD>  (1) 
0.6

>  <PUBCHEM_CONFORMER_DIVERSEORDER>  (1) 
1
2

>  <PUBCHEM_MMFF94_PARTIAL_CHARGES>  (1) 
21
1 -0.34
10 0.14
11 -0.04
12 -0.12
13 0.47
14 0.1
15 0.09
16 -0.15
17 -0.15
18 -0.14
19 -0.15
2 -0.34
20 1.16
3 -0.34
31 0.4
32 0.15
33 0.15
34 0.15
4 -0.57
5 -0.6
9 0.14

>  <PUBCHEM_EFFECTIVE_ROTOR_COUNT>  (1) 
2

>  <PUBCHEM_PHARMACOPHORE_FEATURES>  (1) 
6
1 4 acceptor
1 5 cation
1 5 donor
6 14 15 16 17 18 19 rings
6 5 11 12 13 14 15 rings
7 6 7 8 9 10 11 12 rings

>  <PUBCHEM_HEAVY_ATOM_COUNT>  (1) 
20

>  <PUBCHEM_ATOM_DEF_STEREO_COUNT>  (1) 
0

>  <PUBCHEM_ATOM_UDEF_STEREO_COUNT>  (1) 
0

>  <PUBCHEM_BOND_DEF_STEREO_COUNT>  (1) 
0

>  <PUBCHEM_BOND_UDEF_STEREO_COUNT>  (1) 
0

>  <PUBCHEM_ISOTOPIC_ATOM_COUNT>  (1) 
0

>  <PUBCHEM_COMPONENT_COUNT>  (1) 
1

>  <PUBCHEM_CACTVS_TAUTO_COUNT>  (1) 
12

>  <PUBCHEM_CONFORMER_ID>  (1) 
0000725600000001

>  <PUBCHEM_MMFF94_ENERGY>  (1) 
43.5591

>  <PUBCHEM_FEATURE_SELFOVERLAP>  (1) 
30.477

>  <PUBCHEM_SHAPE_FINGERPRINT>  (1) 
10967382 1 18409727404459083528
11471102 20 18409164441652343768
11543360 7 15719400537683446963
11806522 49 18408885144034226068
12032990 46 18411983525004541744
12236239 1 17846219994811680515
12553582 1 18411971468773151838
13140716 1 17977094988066657256
13862211 1 18410287021507586938
14115302 16 17894640287306032822
14576447 43 18411696591219512358
15196674 1 18410292476052593352
15536298 74 18342172271871656160
15848702 151 18060146405206805190
16945 1 18337382850702753112
17357779 13 18114448020612418917
17834072 33 18413389839004805742
18186145 218 17603296068876570715
18222031 100 18272922826157063855
19141452 34 18131350830278235711
19591789 44 18339080389377068570
200 152 18201998841782269353
20281475 54 18268147548610580034
20645477 70 18337103578964962053
20871999 31 18188210896854998684
21029758 11 18411699880774213944
21267235 1 18411145705934791906
221357 26 18410571760421948917
221490 88 18335707207840453251
2215653 11 18410566276334040685
22182313 1 18265311998164456124
23402539 116 18342452629893099927
23402655 69 18336820910304010213
23557571 272 18200882764650275142
23559900 14 18410568504831327384
2748010 2 18338222774728743832
2871803 45 18333729100607056186
296302 2 10881406434625311560
3004659 81 18187647951887621518
314194 84 18413390938263739003
3323516 105 18409729560696157344
335352 9 18339359670020909381
350125 39 18337957796948673185
465052 167 18201443605289788983
474 4 17168720733954785540
4990 188 18272375235322990022
5104073 3 18411417267678545992
7364860 26 18341891961031945552
9709674 26 18336264647424738755

>  <PUBCHEM_SHAPE_MULTIPOLES>  (1) 
378.92
10.18
2.16
0.8
3.53
0.54
0.03
-3.73
1.84
-0.79
-0.01
-0.04
-0.17
0.1

>  <PUBCHEM_SHAPE_SELFOVERLAP>  (1) 
826.422

>  <PUBCHEM_SHAPE_VOLUME>  (1) 
205.3

>  <PUBCHEM_COORDINATE_TYPE>  (1) 
2
5
10

$$$$
