29278
     RDKit          3D

 25 27  0  0  0  0  0  0  0  0999 V2000
   -0.8727   -0.2271   -1.0996 O   0  0  0  0  0  0  0  0  0  0  0  0
    4.5753   -2.9752    0.6669 O   0  0  0  0  0  0  0  0  0  0  0  0
    2.7545    1.3822    0.0694 N   0  0  0  0  0  0  0  0  0  0  0  0
   -4.0839   -1.3552    0.3019 N   0  0  0  0  0  0  0  0  0  0  0  0
   -1.1531    3.4682    0.1388 C   0  0  0  0  0  0  0  0  0  0  0  0
   -0.6775    2.5986   -1.0253 C   0  0  0  0  0  0  0  0  0  0  0  0
   -0.2782    4.6945    0.3957 C   0  0  0  0  0  0  0  0  0  0  0  0
    0.4724    1.7013   -0.6588 C   0  0  0  0  0  0  0  0  0  0  0  0
    1.1437    4.3836    0.8615 C   0  0  0  0  0  0  0  0  0  0  0  0
    1.9926    3.6692   -0.1885 C   0  0  0  0  0  0  0  0  0  0  0  0
    1.7148    2.1917   -0.2667 C   0  0  0  0  0  0  0  0  0  0  0  0
    0.3223    0.3127   -0.7070 C   0  0  0  0  0  0  0  0  0  0  0  0
    1.3805   -0.5387   -0.3662 C   0  0  0  0  0  0  0  0  0  0  0  0
    2.5965    0.0477    0.0230 C   0  0  0  0  0  0  0  0  0  0  0  0
   -1.8269   -0.4863   -0.0757 C   0  0  0  0  0  0  0  0  0  0  0  0
   -3.0837   -1.0577   -0.7125 C   0  0  0  0  0  0  0  0  0  0  0  0
    1.2467   -1.9376   -0.4054 C   0  0  0  0  0  0  0  0  0  0  0  0
    3.6520   -0.7937    0.3648 C   0  0  0  0  0  0  0  0  0  0  0  0
   -4.4407   -0.1463    1.0483 C   0  0  0  0  0  0  0  0  0  0  0  0
   -5.2792   -1.9447   -0.3063 C   0  0  0  0  0  0  0  0  0  0  0  0
    3.5217   -2.1840    0.3267 C   0  0  0  0  0  0  0  0  0  0  0  0
    2.3167   -2.7575   -0.0591 C   0  0  0  0  0  0  0  0  0  0  0  0
   -5.4333   -0.4576    2.1556 C   0  0  0  0  0  0  0  0  0  0  0  0
   -4.9349   -3.2017   -1.0871 C   0  0  0  0  0  0  0  0  0  0  0  0
    4.3743   -4.3865    0.6055 C   0  0  0  0  0  0  0  0  0  0  0  0
  1 12  1  0
  1 15  1  0
  2 21  1  0
  2 25  1  0
  3 11  2  0
  3 14  1  0
  4 16  1  0
  4 19  1  0
  4 20  1  0
  5  6  1  0
  5  7  1  0
  6  8  1  0
  7  9  1  0
  8 11  1  0
  8 12  2  0
  9 10  1  0
 10 11  1  0
 12 13  1  0
 13 14  2  0
 13 17  1  0
 14 18  1  0
 15 16  1  0
 17 22  2  0
 18 21  2  0
 19 23  1  0
 20 24  1  0
 21 22  1  0
M  END
>  <PUBCHEM_COMPOUND_CID>  (1) 
29278

>  <PUBCHEM_CONFORMER_RMSD>  (1) 
0.8

>  <PUBCHEM_CONFORMER_DIVERSEORDER>  (1) 
1
53
37
52
70
68
60
46
58
28
44
64
63
62
49
74
18
51
22
34
27
43
69
73
59
33
72
41
42
38
26
61
35
36
12
50
30
11
54
4
29
39
31
48
8
40
47
66
20
32
13
14
57
21
25
23
45
2
19
9
24
67
17
55
10
3
16
7
65
71
15
56
6
5

>  <PUBCHEM_MMFF94_PARTIAL_CHARGES>  (1) 
22
1 -0.36
10 0.14
11 0.17
12 0.08
14 0.31
15 0.28
16 0.27
17 -0.15
18 -0.15
19 0.27
2 -0.36
20 0.27
21 0.08
22 -0.15
25 0.28
3 -0.62
4 -0.81
40 0.15
41 0.15
46 0.15
6 0.14
8 -0.14

>  <PUBCHEM_EFFECTIVE_ROTOR_COUNT>  (1) 
8

>  <PUBCHEM_PHARMACOPHORE_FEATURES>  (1) 
7
1 1 acceptor
1 2 acceptor
1 3 acceptor
1 4 cation
6 13 14 17 18 21 22 rings
6 3 8 11 12 13 14 rings
7 5 6 7 8 9 10 11 rings

>  <PUBCHEM_HEAVY_ATOM_COUNT>  (1) 
25

>  <PUBCHEM_ATOM_DEF_STEREO_COUNT>  (1) 
0

>  <PUBCHEM_ATOM_UDEF_STEREO_COUNT>  (1) 
0

>  <PUBCHEM_BOND_DEF_STEREO_COUNT>  (1) 
0

>  <PUBCHEM_BOND_UDEF_STEREO_COUNT>  (1) 
0

>  <PUBCHEM_ISOTOPIC_ATOM_COUNT>  (1) 
0

>  <PUBCHEM_COMPONENT_COUNT>  (1) 
1

>  <PUBCHEM_CACTVS_TAUTO_COUNT>  (1) 
1

>  <PUBCHEM_CONFORMER_ID>  (1) 
0000725E00000001

>  <PUBCHEM_MMFF94_ENERGY>  (1) 
76.9183

>  <PUBCHEM_FEATURE_SELFOVERLAP>  (1) 
35.562

>  <PUBCHEM_SHAPE_FINGERPRINT>  (1) 
10074138 170 17543891426727763570
10411042 1 18410849924163958382
1100329 8 18121777236200807941
11049842 53 14493799030154331231
12107183 9 18341621352712423019
12553582 1 18411420592088863974
12788726 201 18120112601318361278
13140716 1 17978501267970952336
13533116 47 18264491870518438859
138480 1 18410852204648544044
13911852 28 18336823104811291439
13955234 65 18194963178403089739
14790565 3 17976828906084891612
14844126 61 17975411317689155987
14866123 147 17617371784248482251
15042514 8 17977386027766548668
15420108 30 17917148441272419460
15475509 84 18269285581832481753
20642791 268 18130510820263085113
21041028 32 18338237055093875100
21344244 78 18272076249622169777
21796203 349 18120125885457380331
23559900 14 18338786923305328655
23845131 108 17400912497829982963
3091708 16 9427686045066220164
314194 84 18334019397173013834
3421961 26 18336823186267502839
4409770 3 17902507091572135885
474 4 17836365222205146605
5104073 3 17977931394926402858
7097593 13 18339650048348753951
79837 15 17115224226826774944

>  <PUBCHEM_SHAPE_MULTIPOLES>  (1) 
492.79
9.75
6.55
1.13
12.39
4.39
-0.31
-13.24
-3.04
-5.46
-0.79
1.38
-0.1
-1.52

>  <PUBCHEM_SHAPE_SELFOVERLAP>  (1) 
1034.422

>  <PUBCHEM_SHAPE_VOLUME>  (1) 
278.3

>  <PUBCHEM_COORDINATE_TYPE>  (1) 
2
5
10

$$$$
