29284
     RDKit          3D

 28 30  0  0  0  0  0  0  0  0999 V2000
   -1.5825    0.0950   -0.9727 O   0  0  0  0  0  0  0  0  0  0  0  0
    4.2548   -0.4243    0.3709 O   0  0  0  0  0  0  0  0  0  0  0  0
    1.9000    3.6700   -0.3198 O   0  0  0  0  0  0  0  0  0  0  0  0
    4.2416    2.3154    0.2667 O   0  0  0  0  0  0  0  0  0  0  0  0
    1.9617   -1.8514   -0.0983 N   0  0  0  0  0  0  0  0  0  0  0  0
   -5.7613    2.2366    0.2229 N   0  0  0  0  0  0  0  0  0  0  0  0
   -2.1097   -3.5425    0.3360 C   0  0  0  0  0  0  0  0  0  0  0  0
   -1.6526   -2.7360   -0.8797 C   0  0  0  0  0  0  0  0  0  0  0  0
   -1.3393   -4.8461    0.5415 C   0  0  0  0  0  0  0  0  0  0  0  0
   -0.3943   -1.9520   -0.6267 C   0  0  0  0  0  0  0  0  0  0  0  0
    0.1406   -4.6718    0.8808 C   0  0  0  0  0  0  0  0  0  0  0  0
    0.9625   -4.0550   -0.2495 C   0  0  0  0  0  0  0  0  0  0  0  0
    0.8237   -2.5581   -0.3313 C   0  0  0  0  0  0  0  0  0  0  0  0
   -0.4128   -0.5560   -0.6863 C   0  0  0  0  0  0  0  0  0  0  0  0
    0.7480    0.1909   -0.4508 C   0  0  0  0  0  0  0  0  0  0  0  0
    1.9304   -0.5082   -0.1550 C   0  0  0  0  0  0  0  0  0  0  0  0
    0.7476    1.5957   -0.5036 C   0  0  0  0  0  0  0  0  0  0  0  0
    3.0876    0.2289    0.0812 C   0  0  0  0  0  0  0  0  0  0  0  0
   -2.4098    0.4433    0.1318 C   0  0  0  0  0  0  0  0  0  0  0  0
   -3.6424    1.1716   -0.3867 C   0  0  0  0  0  0  0  0  0  0  0  0
    1.9177    2.3100   -0.2637 C   0  0  0  0  0  0  0  0  0  0  0  0
    3.0899    1.6248    0.0294 C   0  0  0  0  0  0  0  0  0  0  0  0
   -4.5821    1.5607    0.7501 C   0  0  0  0  0  0  0  0  0  0  0  0
   -6.4357    1.3982   -0.7700 C   0  0  0  0  0  0  0  0  0  0  0  0
   -6.6843    2.5828    1.3054 C   0  0  0  0  0  0  0  0  0  0  0  0
    4.5205   -0.6852    1.7447 C   0  0  0  0  0  0  0  0  0  0  0  0
    1.6098    4.3660    0.8913 C   0  0  0  0  0  0  0  0  0  0  0  0
    5.0705    2.5969   -0.8585 C   0  0  0  0  0  0  0  0  0  0  0  0
  1 14  1  0
  1 19  1  0
  2 18  1  0
  2 26  1  0
  3 21  1  0
  3 27  1  0
  4 22  1  0
  4 28  1  0
  5 13  2  0
  5 16  1  0
  6 23  1  0
  6 24  1  0
  6 25  1  0
  7  8  1  0
  7  9  1  0
  8 10  1  0
  9 11  1  0
 10 13  1  0
 10 14  2  0
 11 12  1  0
 12 13  1  0
 14 15  1  0
 15 16  2  0
 15 17  1  0
 16 18  1  0
 17 21  2  0
 18 22  2  0
 19 20  1  0
 20 23  1  0
 21 22  1  0
M  END
>  <PUBCHEM_COMPOUND_CID>  (1) 
29284

>  <PUBCHEM_CONFORMER_RMSD>  (1) 
1

>  <PUBCHEM_CONFORMER_DIVERSEORDER>  (1) 
1
11
16
2
20
4
3
14
15
18
12
13
10
19
9
7
21
5
17
6
8

>  <PUBCHEM_MMFF94_PARTIAL_CHARGES>  (1) 
24
1 -0.36
10 -0.14
12 0.14
13 0.17
14 0.08
16 0.31
17 -0.15
18 0.08
19 0.28
2 -0.36
21 0.08
22 0.08
23 0.27
24 0.27
25 0.27
26 0.28
27 0.28
28 0.28
3 -0.36
39 0.15
4 -0.36
5 -0.62
6 -0.81
8 0.14

>  <PUBCHEM_EFFECTIVE_ROTOR_COUNT>  (1) 
9

>  <PUBCHEM_PHARMACOPHORE_FEATURES>  (1) 
9
1 1 acceptor
1 2 acceptor
1 3 acceptor
1 4 acceptor
1 5 acceptor
1 6 cation
6 15 16 17 18 21 22 rings
6 5 10 13 14 15 16 rings
7 7 8 9 10 11 12 13 rings

>  <PUBCHEM_HEAVY_ATOM_COUNT>  (1) 
28

>  <PUBCHEM_ATOM_DEF_STEREO_COUNT>  (1) 
0

>  <PUBCHEM_ATOM_UDEF_STEREO_COUNT>  (1) 
0

>  <PUBCHEM_BOND_DEF_STEREO_COUNT>  (1) 
0

>  <PUBCHEM_BOND_UDEF_STEREO_COUNT>  (1) 
0

>  <PUBCHEM_ISOTOPIC_ATOM_COUNT>  (1) 
0

>  <PUBCHEM_COMPONENT_COUNT>  (1) 
1

>  <PUBCHEM_CACTVS_TAUTO_COUNT>  (1) 
1

>  <PUBCHEM_CONFORMER_ID>  (1) 
0000726400000001

>  <PUBCHEM_MMFF94_ENERGY>  (1) 
113.8277

>  <PUBCHEM_FEATURE_SELFOVERLAP>  (1) 
45.728

>  <PUBCHEM_SHAPE_FINGERPRINT>  (1) 
10006869 2 17908138033957189575
10090160 65 18341327787308068401
10411042 1 17474390175750402863
1100329 8 18410569587595641498
12107183 9 18335408063706176690
12788726 201 18052808432471256143
13140716 1 18410001157427610714
13540713 5 18189885595488943262
1361 2 18410293593303467513
138480 1 17833832664489452063
13955234 65 18193281789264950923
14790565 3 18410015441882708732
15927050 60 18411985771020029367
16728300 4 17100561788800099858
19427546 62 18409452488134914549
20511986 3 17701803398990505649
21197605 99 18410020961917893395
23558518 356 18196639916260361103
23845131 108 18408320021354906131
3178227 256 18192439575594259714
335352 9 18412262809990926700
350125 39 18122064461900623596
4058900 60 18338816519450309281
474 4 18341329998989151677
5104073 3 18191568947912628696
653340 110 18051692440984815715
9777508 108 18194965364525287761

>  <PUBCHEM_SHAPE_MULTIPOLES>  (1) 
542.79
10.89
6.74
1.06
15.98
5.6
0.23
-14.27
2.29
0.12
1.37
0.04
-0.06
-1.13

>  <PUBCHEM_SHAPE_SELFOVERLAP>  (1) 
1139.419

>  <PUBCHEM_SHAPE_VOLUME>  (1) 
307.5

>  <PUBCHEM_COORDINATE_TYPE>  (1) 
2
5
10

$$$$
