29292
     RDKit          3D

 23 25  0  0  0  0  0  0  0  0999 V2000
   -0.3624    5.1259   -0.0765 Cl  0  0  0  0  0  0  0  0  0  0  0  0
    0.8994    0.0716   -1.5850 S   0  0  0  0  0  0  0  0  0  0  0  0
   -3.2152    0.0060    0.4548 N   0  0  0  0  0  0  0  0  0  0  0  0
    5.7304   -0.4800    0.2551 N   0  0  0  0  0  0  0  0  0  0  0  0
   -0.5300   -3.4742   -0.0971 C   0  0  0  0  0  0  0  0  0  0  0  0
   -0.8221   -2.4475   -1.1916 C   0  0  0  0  0  0  0  0  0  0  0  0
   -1.7595   -4.2544    0.3661 C   0  0  0  0  0  0  0  0  0  0  0  0
   -1.4273   -1.1772   -0.6606 C   0  0  0  0  0  0  0  0  0  0  0  0
   -2.8263   -3.4154    1.0685 C   0  0  0  0  0  0  0  0  0  0  0  0
   -3.4946   -2.3842    0.1608 C   0  0  0  0  0  0  0  0  0  0  0  0
   -2.6675   -1.1407   -0.0291 C   0  0  0  0  0  0  0  0  0  0  0  0
   -0.7445    0.0348   -0.7932 C   0  0  0  0  0  0  0  0  0  0  0  0
   -1.2908    1.2271   -0.3025 C   0  0  0  0  0  0  0  0  0  0  0  0
   -2.5468    1.1655    0.3243 C   0  0  0  0  0  0  0  0  0  0  0  0
    1.9590   -0.2194   -0.1506 C   0  0  0  0  0  0  0  0  0  0  0  0
    3.4300   -0.2350   -0.5598 C   0  0  0  0  0  0  0  0  0  0  0  0
   -0.6172    2.4550   -0.4244 C   0  0  0  0  0  0  0  0  0  0  0  0
    4.3275   -0.4877    0.6522 C   0  0  0  0  0  0  0  0  0  0  0  0
   -3.0950    2.3477    0.8146 C   0  0  0  0  0  0  0  0  0  0  0  0
   -1.1861    3.6231    0.0744 C   0  0  0  0  0  0  0  0  0  0  0  0
   -2.4276    3.5690    0.6950 C   0  0  0  0  0  0  0  0  0  0  0  0
    6.5962   -0.6880    1.4172 C   0  0  0  0  0  0  0  0  0  0  0  0
    6.0704    0.7778   -0.4124 C   0  0  0  0  0  0  0  0  0  0  0  0
  1 20  1  0
  2 12  1  0
  2 15  1  0
  3 11  2  0
  3 14  1  0
  4 18  1  0
  4 22  1  0
  4 23  1  0
  5  6  1  0
  5  7  1  0
  6  8  1  0
  7  9  1  0
  8 11  1  0
  8 12  2  0
  9 10  1  0
 10 11  1  0
 12 13  1  0
 13 14  2  0
 13 17  1  0
 14 19  1  0
 15 16  1  0
 16 18  1  0
 17 20  2  0
 19 21  2  0
 20 21  1  0
M  END
>  <PUBCHEM_COMPOUND_CID>  (1) 
29292

>  <PUBCHEM_CONFORMER_RMSD>  (1) 
0.8

>  <PUBCHEM_CONFORMER_DIVERSEORDER>  (1) 
2
23
13
37
33
32
25
48
38
18
34
20
50
36
11
39
16
7
26
12
45
40
17
42
21
27
43
14
35
8
28
3
47
31
4
6
10
1
44
15
22
49
30
19
9
46
24
5
29
41

>  <PUBCHEM_MMFF94_PARTIAL_CHARGES>  (1) 
21
1 -0.18
10 0.14
11 0.17
12 0.1
14 0.31
15 0.23
17 -0.15
18 0.27
19 -0.15
2 -0.33
20 0.18
21 -0.15
22 0.27
23 0.27
3 -0.62
38 0.15
4 -0.81
41 0.15
42 0.15
6 0.14
8 -0.14

>  <PUBCHEM_EFFECTIVE_ROTOR_COUNT>  (1) 
6

>  <PUBCHEM_PHARMACOPHORE_FEATURES>  (1) 
5
1 3 acceptor
1 4 cation
6 13 14 17 19 20 21 rings
6 3 8 11 12 13 14 rings
7 5 6 7 8 9 10 11 rings

>  <PUBCHEM_HEAVY_ATOM_COUNT>  (1) 
23

>  <PUBCHEM_ATOM_DEF_STEREO_COUNT>  (1) 
0

>  <PUBCHEM_ATOM_UDEF_STEREO_COUNT>  (1) 
0

>  <PUBCHEM_BOND_DEF_STEREO_COUNT>  (1) 
0

>  <PUBCHEM_BOND_UDEF_STEREO_COUNT>  (1) 
0

>  <PUBCHEM_ISOTOPIC_ATOM_COUNT>  (1) 
0

>  <PUBCHEM_COMPONENT_COUNT>  (1) 
1

>  <PUBCHEM_CACTVS_TAUTO_COUNT>  (1) 
1

>  <PUBCHEM_CONFORMER_ID>  (1) 
0000726C00000002

>  <PUBCHEM_MMFF94_ENERGY>  (1) 
64.8724

>  <PUBCHEM_FEATURE_SELFOVERLAP>  (1) 
25.412

>  <PUBCHEM_SHAPE_FINGERPRINT>  (1) 
10074138 170 18410567366659771528
10319926 262 18342451492834892898
10411042 1 18195810906126610087
1100329 8 18338242682128767241
11036077 51 18265889164527906634
11049842 53 18049189703871168838
11056379 131 18410302380684878796
12107183 9 17903347114535427034
12788726 201 18334296508731776122
13140716 1 18267308809837365727
14178342 30 18336551530082078726
14565420 104 17552656759300491929
14844126 61 18335701667164122603
15042514 8 18409454703805373783
15326921 28 17759780578440957768
17780758 139 18334846239250431794
17980427 26 17186708425535273253
20101258 96 18267031733165811096
20600515 1 18271824431447904629
21650355 55 18410294743731814397
21796203 349 17613195109137064474
22956985 138 17471006351363507266
23366157 5 17470175120731222997
23559900 14 18049715519062288851
283562 15 18268986484773532789
5104073 3 18338503202482280874
5364581 5 18056175086226703832
58807428 26 18122639257748458585
7288768 16 17558285223314745232
79837 15 18193848045768047202
9981440 41 17975980864797077665

>  <PUBCHEM_SHAPE_MULTIPOLES>  (1) 
469.09
9.74
6.17
1.12
26.79
3.3
-0.09
-2.63
3.81
-7.53
1.02
0.46
-0.26
-0.51

>  <PUBCHEM_SHAPE_SELFOVERLAP>  (1) 
963.249

>  <PUBCHEM_SHAPE_VOLUME>  (1) 
272.8

>  <PUBCHEM_COORDINATE_TYPE>  (1) 
2
5
10

$$$$
