29302
     RDKit          3D

 23 25  0  0  0  0  0  0  0  0999 V2000
   -5.2963    1.7683    0.9260 Cl  0  0  0  0  0  0  0  0  0  0  0  0
    0.9062    0.7196   -1.4955 N   0  0  0  0  0  0  0  0  0  0  0  0
   -1.8284   -1.8848    0.3172 N   0  0  0  0  0  0  0  0  0  0  0  0
    2.6098    2.4050    1.0806 N   0  0  0  0  0  0  0  0  0  0  0  0
    0.3302   -1.5127   -0.7036 C   0  0  0  0  0  0  0  0  0  0  0  0
    1.6735   -2.0135   -1.1582 C   0  0  0  0  0  0  0  0  0  0  0  0
    2.5439   -2.5198   -0.0078 C   0  0  0  0  0  0  0  0  0  0  0  0
    2.1830   -3.9250    0.4717 C   0  0  0  0  0  0  0  0  0  0  0  0
    0.8006   -4.0509    1.1109 C   0  0  0  0  0  0  0  0  0  0  0  0
   -0.3517   -3.7993    0.1399 C   0  0  0  0  0  0  0  0  0  0  0  0
   -0.6147   -2.3361   -0.0977 C   0  0  0  0  0  0  0  0  0  0  0  0
   -0.0170   -0.1712   -0.8850 C   0  0  0  0  0  0  0  0  0  0  0  0
   -1.2618    0.3139   -0.4656 C   0  0  0  0  0  0  0  0  0  0  0  0
   -2.1496   -0.5911    0.1404 C   0  0  0  0  0  0  0  0  0  0  0  0
    0.8236    2.1333   -1.3409 C   0  0  0  0  0  0  0  0  0  0  0  0
    2.2177    2.7595   -1.3406 C   0  0  0  0  0  0  0  0  0  0  0  0
   -1.6273    1.6604   -0.6373 C   0  0  0  0  0  0  0  0  0  0  0  0
    3.1582    2.2216   -0.2577 C   0  0  0  0  0  0  0  0  0  0  0  0
   -3.3887   -0.1145    0.5599 C   0  0  0  0  0  0  0  0  0  0  0  0
   -2.8719    2.1126   -0.2090 C   0  0  0  0  0  0  0  0  0  0  0  0
   -3.7542    1.2230    0.3907 C   0  0  0  0  0  0  0  0  0  0  0  0
    2.4443    3.8287    1.3794 C   0  0  0  0  0  0  0  0  0  0  0  0
    3.4708    1.7730    2.0819 C   0  0  0  0  0  0  0  0  0  0  0  0
  1 21  1  0
  2 12  1  0
  2 15  1  0
  3 11  2  0
  3 14  1  0
  4 18  1  0
  4 22  1  0
  4 23  1  0
  5  6  1  0
  5 11  1  0
  5 12  2  0
  6  7  1  0
  7  8  1  0
  8  9  1  0
  9 10  1  0
 10 11  1  0
 12 13  1  0
 13 14  2  0
 13 17  1  0
 14 19  1  0
 15 16  1  0
 16 18  1  0
 17 20  2  0
 19 21  2  0
 20 21  1  0
M  END
>  <PUBCHEM_COMPOUND_CID>  (1) 
29302

>  <PUBCHEM_CONFORMER_RMSD>  (1) 
0.8

>  <PUBCHEM_CONFORMER_DIVERSEORDER>  (1) 
5
22
1
13
14
11
19
7
10
21
20
4
8
3
15
9
17
2
12
16
18
6

>  <PUBCHEM_MMFF94_PARTIAL_CHARGES>  (1) 
22
1 -0.18
10 0.14
11 0.17
12 0.1
14 0.31
15 0.37
17 -0.15
18 0.27
19 -0.15
2 -0.87
20 -0.15
21 0.18
22 0.27
23 0.27
3 -0.62
34 0.4
4 -0.81
41 0.15
42 0.15
43 0.15
5 -0.14
6 0.14

>  <PUBCHEM_EFFECTIVE_ROTOR_COUNT>  (1) 
6

>  <PUBCHEM_PHARMACOPHORE_FEATURES>  (1) 
7
1 2 cation
1 2 donor
1 3 acceptor
1 4 cation
6 13 14 17 19 20 21 rings
6 3 5 11 12 13 14 rings
7 5 6 7 8 9 10 11 rings

>  <PUBCHEM_HEAVY_ATOM_COUNT>  (1) 
23

>  <PUBCHEM_ATOM_DEF_STEREO_COUNT>  (1) 
0

>  <PUBCHEM_ATOM_UDEF_STEREO_COUNT>  (1) 
0

>  <PUBCHEM_BOND_DEF_STEREO_COUNT>  (1) 
0

>  <PUBCHEM_BOND_UDEF_STEREO_COUNT>  (1) 
0

>  <PUBCHEM_ISOTOPIC_ATOM_COUNT>  (1) 
0

>  <PUBCHEM_COMPONENT_COUNT>  (1) 
1

>  <PUBCHEM_CACTVS_TAUTO_COUNT>  (1) 
5

>  <PUBCHEM_CONFORMER_ID>  (1) 
0000727600000005

>  <PUBCHEM_MMFF94_ENERGY>  (1) 
96.7967

>  <PUBCHEM_FEATURE_SELFOVERLAP>  (1) 
35.56

>  <PUBCHEM_SHAPE_FINGERPRINT>  (1) 
10967382 1 18045235846782387127
1100329 8 18336560334406410758
11070050 100 18126597662959901425
11582403 64 17703783781786235181
12156800 1 14782126309157391288
12160290 23 17763176238785549620
12539773 59 17251131440558191194
12788726 201 17180817775077910546
12839892 36 18190744322522891251
13140716 1 18335718134601432843
14081887 123 17116344621012987288
14178342 30 18193278713355969967
14955137 171 17983029855475672479
15230672 131 18335709390860493004
17980427 23 17843946075594895215
21650355 55 17186434088835756012
23419403 2 17902774289507979053
23558518 356 18268143339121150126
23559900 14 18188219684922491205
2748010 2 18118150119513571639
3091708 16 8539667635019056119
35225 105 17555729164075641402
352729 6 17688041120623720255
5104073 3 18266763302864868993
57124632 79 18408608033029547029
57672749 33 18193559956604893527
58807428 26 18409729607714191273
5895379 119 15909973214711882369
7364860 26 18338808797088146005
81228 2 17404890500908423767
84936 182 18271539606354531033
90316 7 17114954842135386411

>  <PUBCHEM_SHAPE_MULTIPOLES>  (1) 
460.26
6.48
5.9
1.45
8.95
1.41
-0.24
0.24
-2.55
-7.3
-1.89
-0.89
1.2
0.64

>  <PUBCHEM_SHAPE_SELFOVERLAP>  (1) 
964.198

>  <PUBCHEM_SHAPE_VOLUME>  (1) 
259.8

>  <PUBCHEM_COORDINATE_TYPE>  (1) 
2
5
10

$$$$
