29319
     RDKit          3D

 20 21  0  0  1  0  0  0  0  0999 V2000
    3.3745   -2.6381   -0.0221 O   0  0  0  0  0  0  0  0  0  0  0  0
    0.3350   -0.5802   -0.6144 N   0  0  0  0  0  0  0  0  0  0  0  0
    1.1483   -1.6428   -0.0101 C   0  0  0  0  0  0  0  0  0  0  0  0
   -1.9287    0.4374   -0.7599 C   0  0  0  0  0  0  0  0  0  0  0  0
   -1.0368   -0.6589   -0.1432 C   0  0  0  0  0  0  0  0  0  0  0  0
    2.5860   -1.5798   -0.5733 C   0  0  0  0  0  0  0  0  0  0  0  0
    1.1042   -1.4650    1.5089 C   0  0  0  0  0  0  0  0  0  0  0  0
   -3.3652    0.2902   -0.2803 C   0  0  0  0  0  0  0  0  0  0  0  0
    3.3071   -0.2871   -0.2566 C   0  0  0  0  0  0  0  0  0  0  0  0
   -1.4075    1.8537   -0.4837 C   0  0  0  0  0  0  0  0  0  0  0  0
   -4.2011   -0.5901   -0.9371 C   0  0  0  0  0  0  0  0  0  0  0  0
   -3.7894    1.0408    0.7974 C   0  0  0  0  0  0  0  0  0  0  0  0
    3.2065    0.7755   -1.1375 C   0  0  0  0  0  0  0  0  0  0  0  0
    4.0508   -0.1963    0.9070 C   0  0  0  0  0  0  0  0  0  0  0  0
   -5.5179   -0.7254   -0.4973 C   0  0  0  0  0  0  0  0  0  0  0  0
   -5.1063    0.9054    1.2371 C   0  0  0  0  0  0  0  0  0  0  0  0
    3.8708    1.9668   -0.8456 C   0  0  0  0  0  0  0  0  0  0  0  0
    4.7150    0.9951    1.1988 C   0  0  0  0  0  0  0  0  0  0  0  0
   -5.9705    0.0222    0.5897 C   0  0  0  0  0  0  0  0  0  0  0  0
    4.6249    2.0766    0.3224 C   0  0  0  0  0  0  0  0  0  0  0  0
  1  6  1  0
  2  3  1  0
  2  5  1  0
  3  6  1  0
  3  7  1  0
  4  5  1  0
  4  8  1  0
  4 10  1  0
  6  9  1  0
  8 11  2  0
  8 12  1  0
  9 13  2  0
  9 14  1  0
 11 15  1  0
 12 16  2  0
 13 17  1  0
 14 18  2  0
 15 19  2  0
 16 19  1  0
 17 20  2  0
 18 20  1  0
M  END
>  <PUBCHEM_COMPOUND_CID>  (1) 
29319

>  <PUBCHEM_CONFORMER_RMSD>  (1) 
0.8

>  <PUBCHEM_CONFORMER_DIVERSEORDER>  (1) 
21
33
12
16
68
66
52
9
61
72
46
13
41
1
4
60
78
81
77
14
26
50
11
10
59
17
76
79
37
39
27
30
5
42
71
48
70
49
23
32
6
28
64
56
75
51
69
7
58
40
20
15
62
55
74
53
45
65
18
19
73
24
3
8
67
35
63
44
25
31
22
43
54
38
57
80
36
34
29
47
2

>  <PUBCHEM_MMFF94_PARTIAL_CHARGES>  (1) 
30
1 -0.68
11 -0.15
12 -0.15
13 -0.15
14 -0.15
15 -0.15
16 -0.15
17 -0.15
18 -0.15
19 -0.15
2 -0.9
20 -0.15
26 0.36
3 0.27
33 0.15
34 0.15
35 0.15
36 0.15
37 0.4
38 0.15
39 0.15
4 0.14
40 0.15
41 0.15
42 0.15
43 0.15
5 0.27
6 0.42
8 -0.14
9 -0.14

>  <PUBCHEM_EFFECTIVE_ROTOR_COUNT>  (1) 
6

>  <PUBCHEM_PHARMACOPHORE_FEATURES>  (1) 
7
1 1 acceptor
1 1 donor
1 10 hydrophobe
1 2 cation
1 2 donor
6 8 11 12 15 16 19 rings
6 9 13 14 17 18 20 rings

>  <PUBCHEM_HEAVY_ATOM_COUNT>  (1) 
20

>  <PUBCHEM_ATOM_DEF_STEREO_COUNT>  (1) 
0

>  <PUBCHEM_ATOM_UDEF_STEREO_COUNT>  (1) 
3

>  <PUBCHEM_BOND_DEF_STEREO_COUNT>  (1) 
0

>  <PUBCHEM_BOND_UDEF_STEREO_COUNT>  (1) 
0

>  <PUBCHEM_ISOTOPIC_ATOM_COUNT>  (1) 
0

>  <PUBCHEM_COMPONENT_COUNT>  (1) 
1

>  <PUBCHEM_CACTVS_TAUTO_COUNT>  (1) 
1

>  <PUBCHEM_CONFORMER_ID>  (1) 
0000728700000015

>  <PUBCHEM_MMFF94_ENERGY>  (1) 
52.6294

>  <PUBCHEM_FEATURE_SELFOVERLAP>  (1) 
35.521

>  <PUBCHEM_SHAPE_FINGERPRINT>  (1) 
10090160 65 18187639223849366335
10366900 7 17096098982476148114
10912923 1 18060136523072703775
11724838 91 18261389017879954502
11796584 16 11963395132841986273
12107183 9 17624144797750774281
12166972 35 18341892962059668424
12236239 1 18343303652868768999
12555020 224 9295289435145753945
12596602 18 17703794742837952641
12616971 3 18342734083643140711
12617007 42 14045741551807282946
128620 24 18407757028124640935
12895836 83 16343134857095665356
12895837 130 17200504419579733936
13533116 47 17095515154560282930
13583140 156 16153690047011241519
13914758 101 7997699667224778763
13955234 65 18339361864406877850
14251764 18 18408036304895806122
14251764 75 17901114336668315044
14341114 328 18411982485401007645
14366163 111 16630808833076468448
14528608 73 18202284727416099533
14573314 32 12751244687966504123
146900 427 18410575110644126489
14787075 74 18335983155368353145
14848160 23 16081083792703107697
14849402 71 18410855469747056576
15183329 4 9079124345365330979
15188451 53 14273733010104130937
15210252 30 15339116866637977042
15239154 128 17989209213844615601
15788980 27 11818996271055969861
15880784 105 18411705353216722467
17349148 13 12252184043841778633
17834072 33 18273495680653001999
17844677 252 18268153067643561701
18785283 64 17606132911803123813
190975 80 17968388961067724803
19377110 9 18342168994943744371
20369508 70 9007057950855127902
21728266 224 13768218245941643553
2215653 11 10952053346966267137
23402539 116 12251897106041577783
23559900 14 18194114110418378647
2838139 119 16270494543960703712
3004659 81 10519994772690885924
34797466 226 16558475283184852645
42630746 31 18334575750129852510
4325135 7 18342173380031136895
4340502 62 17821447976009889427
465052 167 10953455211280283360
474 4 18334013938675086964
5104073 3 18336267825937811177
5207 123 8141819291184147680
5283173 99 17241592941528840909
5374978 207 18113337509341158732
543368 44 17989203793833401273
559249 180 11746924396436613585
59682541 52 11095608823758092673
6913067 236 17022894675410232455
8988823 20 14057006069650267014
960060 61 10952050078432702160

>  <PUBCHEM_SHAPE_MULTIPOLES>  (1) 
400.74
13.75
2.11
1.22
10.49
0.22
0.23
-3.52
2.22
-2.66
-0.02
-0.11
-0.08
-0.63

>  <PUBCHEM_SHAPE_SELFOVERLAP>  (1) 
836.9

>  <PUBCHEM_SHAPE_VOLUME>  (1) 
227.9

>  <PUBCHEM_COORDINATE_TYPE>  (1) 
2
5
10

$$$$
