29321
     RDKit          3D

 33 36  0  0  0  0  0  0  0  0999 V2000
   -0.1704    1.4883    2.4619 O   0  0  0  0  0  0  0  0  0  0  0  0
    0.7958    5.3169    0.8189 O   0  0  0  0  0  0  0  0  0  0  0  0
    4.0538   -3.2834    0.8387 O   0  0  0  0  0  0  0  0  0  0  0  0
   -5.2966   -1.4266    0.2115 O   0  0  0  0  0  0  0  0  0  0  0  0
    4.9266   -2.6970   -1.2526 O   0  0  0  0  0  0  0  0  0  0  0  0
   -4.4739   -3.4330   -0.6698 O   0  0  0  0  0  0  0  0  0  0  0  0
    0.3795    3.0022    0.7003 N   0  0  0  0  0  0  0  0  0  0  0  0
    0.0031    0.6595    0.1457 C   0  0  0  0  0  0  0  0  0  0  0  0
    0.3469    1.5100   -1.0664 C   0  0  0  0  0  0  0  0  0  0  0  0
    0.0497    1.7374    1.2822 C   0  0  0  0  0  0  0  0  0  0  0  0
    0.5543    2.8417   -0.6991 C   0  0  0  0  0  0  0  0  0  0  0  0
    1.1030   -0.4109    0.3337 C   0  0  0  0  0  0  0  0  0  0  0  0
   -1.4364    0.0932    0.1636 C   0  0  0  0  0  0  0  0  0  0  0  0
    0.4742    1.1030   -2.3926 C   0  0  0  0  0  0  0  0  0  0  0  0
    0.8913    3.7879   -1.6598 C   0  0  0  0  0  0  0  0  0  0  0  0
    0.8879   -1.7145   -0.1099 C   0  0  0  0  0  0  0  0  0  0  0  0
   -1.9054   -0.5787    1.2910 C   0  0  0  0  0  0  0  0  0  0  0  0
    2.3077   -0.0700    0.9468 C   0  0  0  0  0  0  0  0  0  0  0  0
   -2.2615    0.2558   -0.9481 C   0  0  0  0  0  0  0  0  0  0  0  0
    0.5096    4.2444    1.3531 C   0  0  0  0  0  0  0  0  0  0  0  0
    0.8096    2.0501   -3.3579 C   0  0  0  0  0  0  0  0  0  0  0  0
    1.0168    3.3840   -2.9928 C   0  0  0  0  0  0  0  0  0  0  0  0
    1.8800   -2.6802    0.0600 C   0  0  0  0  0  0  0  0  0  0  0  0
   -3.2033   -1.0896    1.3069 C   0  0  0  0  0  0  0  0  0  0  0  0
    3.3000   -1.0356    1.1165 C   0  0  0  0  0  0  0  0  0  0  0  0
   -3.5595   -0.2550   -0.9322 C   0  0  0  0  0  0  0  0  0  0  0  0
    3.0862   -2.3408    0.6730 C   0  0  0  0  0  0  0  0  0  0  0  0
   -4.0304   -0.9277    0.1955 C   0  0  0  0  0  0  0  0  0  0  0  0
    0.2553    4.2239    2.8408 C   0  0  0  0  0  0  0  0  0  0  0  0
    4.9562   -3.3743   -0.2337 C   0  0  0  0  0  0  0  0  0  0  0  0
   -5.4003   -2.7444   -0.2633 C   0  0  0  0  0  0  0  0  0  0  0  0
    5.9786   -4.4361    0.0436 C   0  0  0  0  0  0  0  0  0  0  0  0
   -6.8281   -3.2004   -0.2055 C   0  0  0  0  0  0  0  0  0  0  0  0
  1 10  2  0
  2 20  2  0
  3 27  1  0
  3 30  1  0
  4 28  1  0
  4 31  1  0
  5 30  2  0
  6 31  2  0
  7 10  1  0
  7 11  1  0
  7 20  1  0
  8  9  1  0
  8 10  1  0
  8 12  1  0
  8 13  1  0
  9 11  2  0
  9 14  1  0
 11 15  1  0
 12 16  2  0
 12 18  1  0
 13 17  2  0
 13 19  1  0
 14 21  2  0
 15 22  2  0
 16 23  1  0
 17 24  1  0
 18 25  2  0
 19 26  2  0
 20 29  1  0
 21 22  1  0
 23 27  2  0
 24 28  2  0
 25 27  1  0
 26 28  1  0
 30 32  1  0
 31 33  1  0
M  END
>  <PUBCHEM_COMPOUND_CID>  (1) 
29321

>  <PUBCHEM_CONFORMER_RMSD>  (1) 
1

>  <PUBCHEM_CONFORMER_DIVERSEORDER>  (1) 
1
6
2
5
9
4
8
3
7

>  <PUBCHEM_MMFF94_PARTIAL_CHARGES>  (1) 
45
1 -0.57
10 0.57
11 0.12
12 -0.14
13 -0.14
14 -0.15
15 -0.15
16 -0.15
17 -0.15
18 -0.15
19 -0.15
2 -0.57
20 0.57
21 -0.15
22 -0.15
23 -0.15
24 -0.15
25 -0.15
26 -0.15
27 0.08
28 0.08
29 0.06
3 -0.23
30 0.66
31 0.66
32 0.06
33 0.06
34 0.15
35 0.15
36 0.15
37 0.15
38 0.15
39 0.15
4 -0.23
40 0.15
41 0.15
42 0.15
43 0.15
44 0.15
45 0.15
5 -0.57
6 -0.57
7 -0.24
8 0.49
9 -0.14

>  <PUBCHEM_EFFECTIVE_ROTOR_COUNT>  (1) 
7.4

>  <PUBCHEM_PHARMACOPHORE_FEATURES>  (1) 
8
1 1 acceptor
1 2 acceptor
1 5 acceptor
1 6 acceptor
5 7 8 9 10 11 rings
6 12 16 18 23 25 27 rings
6 13 17 19 24 26 28 rings
6 9 11 14 15 21 22 rings

>  <PUBCHEM_HEAVY_ATOM_COUNT>  (1) 
33

>  <PUBCHEM_ATOM_DEF_STEREO_COUNT>  (1) 
0

>  <PUBCHEM_ATOM_UDEF_STEREO_COUNT>  (1) 
0

>  <PUBCHEM_BOND_DEF_STEREO_COUNT>  (1) 
0

>  <PUBCHEM_BOND_UDEF_STEREO_COUNT>  (1) 
0

>  <PUBCHEM_ISOTOPIC_ATOM_COUNT>  (1) 
0

>  <PUBCHEM_COMPONENT_COUNT>  (1) 
1

>  <PUBCHEM_CACTVS_TAUTO_COUNT>  (1) 
1

>  <PUBCHEM_CONFORMER_ID>  (1) 
0000728900000001

>  <PUBCHEM_MMFF94_ENERGY>  (1) 
117.6025

>  <PUBCHEM_FEATURE_SELFOVERLAP>  (1) 
40.68

>  <PUBCHEM_SHAPE_FINGERPRINT>  (1) 
10721379 63 18197231445231923633
11045515 52 18114464439987405110
11101153 10 17969240945330559174
11331351 85 18269283365576199971
11445158 3 17761171752285676160
11582403 64 16481617401399942689
11763715 3 18198084537422052120
12160290 23 17610897885511347136
12166972 35 18408327704883249683
12342043 65 17702098076575910578
12788726 201 17390219334880279570
131258 43 18268736994560564430
13135754 10 17771350764515083262
13681431 1 18259710011931934016
14068700 675 18337397028411175534
14415360 78 16539334610980221518
14674994 50 18119812400627085901
14863182 85 17756695696151302909
14955137 171 18270965755520657918
15131766 46 15693724764085564514
15878777 1 14182765057087670380
16114785 44 17552073992293535193
1813 80 18187359926326350110
20600515 1 18335428906718233487
20775438 99 17756697895386503507
21120745 212 18195828283801263820
21344244 246 18116443716085123942
21716022 299 18264226818736455022
21796203 349 18049761569786858467
21927370 108 17752792163579457906
23419403 2 17974250417946462405
23523766 6 18410293622825121095
23523787 8 17468786407264339422
283562 15 18118966888949279522
3388396 114 17606715520354194022
376196 1 15578949128921332381
4017518 198 17757006854401540092
44802255 64 16162756839380567788
46194498 28 17677605535785346151
497634 4 18050571742863695062
57527585 103 17763991737638899000
6669772 16 17552084313095101108
6700243 42 17909855149366709294
70251023 43 18259983812614691187
77188 2 18341610408286719072

>  <PUBCHEM_SHAPE_MULTIPOLES>  (1) 
638.93
9.77
7.06
2.43
7.82
3.86
0.94
-22.6
0.82
-5.29
-0.61
-0.79
3.79
-0.73

>  <PUBCHEM_SHAPE_SELFOVERLAP>  (1) 
1406.725

>  <PUBCHEM_SHAPE_VOLUME>  (1) 
339.9

>  <PUBCHEM_COORDINATE_TYPE>  (1) 
2
5
10

$$$$
