29335
     RDKit          3D

 32 34  0  0  1  0  0  0  0  0999 V2000
   -4.9144   -0.9524    2.0994 O   0  0  0  0  0  0  0  0  0  0  0  0
   -6.4288   -2.3730   -0.7201 O   0  0  0  0  0  0  0  0  0  0  0  0
   -8.5258   -1.6445   -0.2653 O   0  0  0  0  0  0  0  0  0  0  0  0
   -7.1204    3.3084   -1.4687 O   0  0  0  0  0  0  0  0  0  0  0  0
   -5.8544    2.6202    0.2855 O   0  0  0  0  0  0  0  0  0  0  0  0
    1.1543   -0.6074    0.1709 N   0  0  0  0  0  0  0  0  0  0  0  0
   -5.2387   -0.1736   -0.0605 N   0  0  0  0  0  0  0  0  0  0  0  0
    7.3674   -0.8689   -0.9729 N   0  0  0  0  0  0  0  0  0  0  0  0
    7.8128    0.7110    0.7914 N   0  0  0  0  0  0  0  0  0  0  0  0
    6.1104    1.9369    1.7890 N   0  0  0  0  0  0  0  0  0  0  0  0
    9.5518   -0.5101   -0.1953 N   0  0  0  0  0  0  0  0  0  0  0  0
    3.2941   -0.0026   -0.7872 C   0  0  0  0  0  0  0  0  0  0  0  0
    4.1801    0.6477    0.0660 C   0  0  0  0  0  0  0  0  0  0  0  0
    1.8263    0.2745   -0.7571 C   0  0  0  0  0  0  0  0  0  0  0  0
    5.5543    0.3579    0.0061 C   0  0  0  0  0  0  0  0  0  0  0  0
    6.0550   -0.5841   -0.9072 C   0  0  0  0  0  0  0  0  0  0  0  0
    3.7779   -0.9374   -1.6958 C   0  0  0  0  0  0  0  0  0  0  0  0
    5.1460   -1.2199   -1.7492 C   0  0  0  0  0  0  0  0  0  0  0  0
    3.5781    1.6404    1.0149 C   0  0  0  0  0  0  0  0  0  0  0  0
   -0.2149   -0.6056    0.3762 C   0  0  0  0  0  0  0  0  0  0  0  0
    6.4927    0.9723    0.8305 C   0  0  0  0  0  0  0  0  0  0  0  0
   -6.6804   -0.0945    0.0045 C   0  0  0  0  0  0  0  0  0  0  0  0
   -2.9999   -0.6033    0.7912 C   0  0  0  0  0  0  0  0  0  0  0  0
   -0.8101   -1.4906    1.2955 C   0  0  0  0  0  0  0  0  0  0  0  0
   -1.0507    0.2807   -0.3297 C   0  0  0  0  0  0  0  0  0  0  0  0
   -7.2145    0.9985   -0.9253 C   0  0  0  0  0  0  0  0  0  0  0  0
   -2.1898   -1.4895    1.5011 C   0  0  0  0  0  0  0  0  0  0  0  0
   -2.4303    0.2819   -0.1241 C   0  0  0  0  0  0  0  0  0  0  0  0
   -4.4385   -0.6029    1.0047 C   0  0  0  0  0  0  0  0  0  0  0  0
    8.1750   -0.2059   -0.1203 C   0  0  0  0  0  0  0  0  0  0  0  0
   -7.3215   -1.4300   -0.3345 C   0  0  0  0  0  0  0  0  0  0  0  0
   -6.6431    2.3659   -0.6139 C   0  0  0  0  0  0  0  0  0  0  0  0
  1 29  2  0
  2 31  1  0
  3 31  2  0
  4 32  1  0
  5 32  2  0
  6 14  1  0
  6 20  1  0
  7 22  1  0
  7 29  1  0
  8 16  2  0
  8 30  1  0
  9 21  1  0
  9 30  2  0
 10 21  1  0
 11 30  1  0
 12 13  2  0
 12 14  1  0
 12 17  1  0
 13 15  1  0
 13 19  1  0
 15 16  1  0
 15 21  2  0
 16 18  1  0
 17 18  2  0
 20 24  2  0
 20 25  1  0
 22 26  1  0
 22 31  1  0
 23 27  2  0
 23 28  1  0
 23 29  1  0
 24 27  1  0
 25 28  2  0
 26 32  1  0
M  END
>  <PUBCHEM_COMPOUND_CID>  (1) 
29335

>  <PUBCHEM_CONFORMER_RMSD>  (1) 
1

>  <PUBCHEM_CONFORMER_DIVERSEORDER>  (1) 
13
22
48
55
58
38
12
17
53
18
23
24
60
61
28
6
33
37
43
44
47
30
36
21
50
7
57
11
52
41
8
45
62
59
25
4
15
29
49
51
46
54
20
3
27
56
40
19
32
39
35
9
31
34
42
10
14
26
16
2
5
1

>  <PUBCHEM_MMFF94_PARTIAL_CHARGES>  (1) 
45
1 -0.57
10 -0.9
11 -0.9
12 -0.14
13 -0.14
14 0.51
16 0.31
17 -0.15
18 -0.15
19 0.14
2 -0.65
20 0.1
21 0.41
22 0.36
23 0.09
24 -0.15
25 -0.15
26 0.06
27 -0.15
28 -0.15
29 0.54
3 -0.57
30 0.72
31 0.66
32 0.66
35 0.15
36 0.4
37 0.15
4 -0.65
42 0.15
43 0.15
46 0.37
47 0.15
48 0.15
49 0.4
5 -0.57
50 0.4
51 0.4
52 0.4
53 0.5
54 0.5
6 -0.87
7 -0.73
8 -0.62
9 -0.62

>  <PUBCHEM_EFFECTIVE_ROTOR_COUNT>  (1) 
9

>  <PUBCHEM_PHARMACOPHORE_FEATURES>  (1) 
16
1 1 acceptor
1 10 donor
1 11 donor
1 2 acceptor
1 3 acceptor
1 4 acceptor
1 5 acceptor
1 6 cation
1 6 donor
1 7 donor
3 2 3 31 anion
3 4 5 32 anion
4 8 9 11 30 cation
6 12 13 15 16 17 18 rings
6 20 23 24 25 27 28 rings
6 8 9 15 16 21 30 rings

>  <PUBCHEM_HEAVY_ATOM_COUNT>  (1) 
32

>  <PUBCHEM_ATOM_DEF_STEREO_COUNT>  (1) 
0

>  <PUBCHEM_ATOM_UDEF_STEREO_COUNT>  (1) 
1

>  <PUBCHEM_BOND_DEF_STEREO_COUNT>  (1) 
0

>  <PUBCHEM_BOND_UDEF_STEREO_COUNT>  (1) 
0

>  <PUBCHEM_ISOTOPIC_ATOM_COUNT>  (1) 
0

>  <PUBCHEM_COMPONENT_COUNT>  (1) 
1

>  <PUBCHEM_CACTVS_TAUTO_COUNT>  (1) 
27

>  <PUBCHEM_CONFORMER_ID>  (1) 
000072970000000D

>  <PUBCHEM_MMFF94_ENERGY>  (1) 
128.3852

>  <PUBCHEM_FEATURE_SELFOVERLAP>  (1) 
81.347

>  <PUBCHEM_SHAPE_FINGERPRINT>  (1) 
10162869 55 16917342641770640700
10299344 5 14779266436289740610
10533779 1 17387683905151562861
10670039 82 17967530169408878613
10674148 151 17313104164397924280
10951579 204 18043263335675236412
11135926 11 16487258760044975583
11724838 91 15985108509763246686
12082328 90 17346885529494973145
12089408 11 17313105250929353446
13811026 1 18343863311886016884
13885169 127 18409729556321990925
13914758 101 18334294262183850539
14040221 8 17967542247257816332
14251764 18 16950279607053552145
14294032 229 17241039890752454349
14429380 56 17203322317641751368
14856354 85 16588309410618938979
150020 25 18201435853016198957
15065858 18 18342172255520020374
15183329 4 16732703865572836823
15419008 47 18410851066382951604
15419008 91 18270948111779714361
15461852 350 18411421738971576535
1577012 14 18040711425337714265
15840311 113 15698281132508788248
20157964 124 17561088020973356022
21033648 29 18339067268805776464
21150785 3 16128377086069152875
21859007 373 18335697217688883804
23522609 53 15720263641299794983
44880568 143 18413113840370672429
4918590 53 18131356306266475865
5385378 56 17458623354763683291
6691757 9 16877950447282892235

>  <PUBCHEM_SHAPE_MULTIPOLES>  (1) 
599.31
30.23
2.13
1.47
2.83
1.33
0.16
3.16
-4.59
-4.97
-0.22
0.44
-0.1
3.36

>  <PUBCHEM_SHAPE_SELFOVERLAP>  (1) 
1296.936

>  <PUBCHEM_SHAPE_VOLUME>  (1) 
324

>  <PUBCHEM_COORDINATE_TYPE>  (1) 
2
5
10

$$$$
