29338
     RDKit          3D

 13 12  0  0  0  0  0  0  0  0999 V2000
    0.0000   -0.0002    0.0002 Si  0  0  0  0  0  4  0  0  0  0  0  0
    2.8173    2.7501   -1.2920 O   0  0  0  0  0  0  0  0  0  0  0  0
   -2.8212    2.7462    1.2918 O   0  0  0  0  0  0  0  0  0  0  0  0
    2.8214   -2.7462    1.2916 O   0  0  0  0  0  0  0  0  0  0  0  0
   -2.8176   -2.7498   -1.2919 O   0  0  0  0  0  0  0  0  0  0  0  0
    1.0818    1.0833   -1.0828 C   0  0  0  0  0  0  0  0  0  0  0  0
   -1.0833    1.0819    1.0829 C   0  0  0  0  0  0  0  0  0  0  0  0
    1.0835   -1.0819    1.0828 C   0  0  0  0  0  0  0  0  0  0  0  0
   -1.0819   -1.0833   -1.0828 C   0  0  0  0  0  0  0  0  0  0  0  0
    2.0285    2.0313   -0.3514 C   0  0  0  0  0  0  0  0  0  0  0  0
   -2.0313    2.0285    0.3514 C   0  0  0  0  0  0  0  0  0  0  0  0
    2.0313   -2.0285    0.3513 C   0  0  0  0  0  0  0  0  0  0  0  0
   -2.0286   -2.0313   -0.3514 C   0  0  0  0  0  0  0  0  0  0  0  0
  1  6  1  0
  1  7  1  0
  1  8  1  0
  1  9  1  0
  2 10  1  0
  3 11  1  0
  4 12  1  0
  5 13  1  0
  6 10  1  0
  7 11  1  0
  8 12  1  0
  9 13  1  0
M  END
>  <PUBCHEM_COMPOUND_CID>  (1) 
29338

>  <PUBCHEM_CONFORMER_RMSD>  (1) 
0.8

>  <PUBCHEM_CONFORMER_DIVERSEORDER>  (1) 
1
8
26
18
20
9
6
25
4
7
3
14
24
5
17
23
12
22
19
21
10
13
27
11
16
2
15

>  <PUBCHEM_MMFF94_PARTIAL_CHARGES>  (1) 
17
1 0.32
10 0.28
11 0.28
12 0.28
13 0.28
2 -0.68
3 -0.68
30 0.4
31 0.4
32 0.4
33 0.4
4 -0.68
5 -0.68
6 -0.08
7 -0.08
8 -0.08
9 -0.08

>  <PUBCHEM_EFFECTIVE_ROTOR_COUNT>  (1) 
8

>  <PUBCHEM_PHARMACOPHORE_FEATURES>  (1) 
8
1 2 acceptor
1 2 donor
1 3 acceptor
1 3 donor
1 4 acceptor
1 4 donor
1 5 acceptor
1 5 donor

>  <PUBCHEM_HEAVY_ATOM_COUNT>  (1) 
13

>  <PUBCHEM_ATOM_DEF_STEREO_COUNT>  (1) 
0

>  <PUBCHEM_ATOM_UDEF_STEREO_COUNT>  (1) 
0

>  <PUBCHEM_BOND_DEF_STEREO_COUNT>  (1) 
0

>  <PUBCHEM_BOND_UDEF_STEREO_COUNT>  (1) 
0

>  <PUBCHEM_ISOTOPIC_ATOM_COUNT>  (1) 
0

>  <PUBCHEM_COMPONENT_COUNT>  (1) 
1

>  <PUBCHEM_CACTVS_TAUTO_COUNT>  (1) 
1

>  <PUBCHEM_CONFORMER_ID>  (1) 
0000729A00000001

>  <PUBCHEM_MMFF94_ENERGY>  (1) 
6.5769

>  <PUBCHEM_FEATURE_SELFOVERLAP>  (1) 
40.6

>  <PUBCHEM_SHAPE_FINGERPRINT>  (1) 
10219947 1 17690003336367286921
10756046 70 18192718847226100941
12423570 1 14091399446196866957
13380536 167 18411700984696515585
13380536 261 18268145546739114443
13380536 55 18337122240445181088
14943834 7 18410575088958046208
14993402 34 18050568434836608661
16945 1 15216921670626376391
187816 3 17690002653541411460
20511035 2 17972629643470548177
20711985 344 17917157211980525629
20871998 184 17110435300005891188
21524375 3 18122661372156023912
228727 97 18051699033437887509
23402539 116 17837784674251906532
23419403 2 16318284781673806827
23526113 38 17260188216419917182
23558518 356 18194421076247452908
3060560 45 17837514967659777261
353137 74 18195532716614640997
4369600 1 17693090077733559091
589210 1 18410575084663078912
68419 9 18413111670878567292
6992083 37 18122333588846540082
81228 2 17978475708056604259

>  <PUBCHEM_SHAPE_MULTIPOLES>  (1) 
262.27
4.08
3.99
1.42
0
0
0
0
0
0
0.01
0
0
-3.1

>  <PUBCHEM_SHAPE_SELFOVERLAP>  (1) 
463.274

>  <PUBCHEM_SHAPE_VOLUME>  (1) 
169.7

>  <PUBCHEM_COORDINATE_TYPE>  (1) 
2
5
10

$$$$
