29334
     RDKit          3D

 31 33  0  0  1  0  0  0  0  0999 V2000
   -4.8731    1.4674   -1.5668 O   0  0  0  0  0  0  0  0  0  0  0  0
   -6.3478    1.8063    1.5908 O   0  0  0  0  0  0  0  0  0  0  0  0
   -8.4307    1.1777    0.9574 O   0  0  0  0  0  0  0  0  0  0  0  0
   -6.2393   -3.7215    0.7219 O   0  0  0  0  0  0  0  0  0  0  0  0
   -6.0782   -2.6258   -1.2599 O   0  0  0  0  0  0  0  0  0  0  0  0
    1.2621    0.7746    0.0257 N   0  0  0  0  0  0  0  0  0  0  0  0
   -5.1014    0.0040    0.2173 N   0  0  0  0  0  0  0  0  0  0  0  0
    7.5372    0.5811    0.7827 N   0  0  0  0  0  0  0  0  0  0  0  0
    7.5670   -1.7601    0.2128 N   0  0  0  0  0  0  0  0  0  0  0  0
    5.6750   -2.7903   -0.7323 N   0  0  0  0  0  0  0  0  0  0  0  0
    9.4493   -0.7281    1.1507 N   0  0  0  0  0  0  0  0  0  0  0  0
    3.6063    0.9096   -0.5650 C   0  0  0  0  0  0  0  0  0  0  0  0
    2.2005    1.0372   -1.0441 C   0  0  0  0  0  0  0  0  0  0  0  0
   -6.5406   -0.1126    0.1553 C   0  0  0  0  0  0  0  0  0  0  0  0
    5.5866   -0.4306   -0.1776 C   0  0  0  0  0  0  0  0  0  0  0  0
    4.2610   -0.3163   -0.6312 C   0  0  0  0  0  0  0  0  0  0  0  0
   -0.1116    0.7787   -0.1424 C   0  0  0  0  0  0  0  0  0  0  0  0
    6.2694    0.6792    0.3460 C   0  0  0  0  0  0  0  0  0  0  0  0
    4.2718    2.0157   -0.0486 C   0  0  0  0  0  0  0  0  0  0  0  0
   -2.9071    0.7896   -0.4832 C   0  0  0  0  0  0  0  0  0  0  0  0
   -7.0060   -1.4742    0.6789 C   0  0  0  0  0  0  0  0  0  0  0  0
    5.5902    1.8939    0.4005 C   0  0  0  0  0  0  0  0  0  0  0  0
   -4.3509    0.7965   -0.6590 C   0  0  0  0  0  0  0  0  0  0  0  0
   -0.9739    0.5167    0.9398 C   0  0  0  0  0  0  0  0  0  0  0  0
   -0.6866    1.0462   -1.3998 C   0  0  0  0  0  0  0  0  0  0  0  0
   -2.3585    0.5221    0.7710 C   0  0  0  0  0  0  0  0  0  0  0  0
   -2.0713    1.0517   -1.5686 C   0  0  0  0  0  0  0  0  0  0  0  0
    6.2978   -1.6267   -0.2157 C   0  0  0  0  0  0  0  0  0  0  0  0
   -7.2181    1.0058    0.9300 C   0  0  0  0  0  0  0  0  0  0  0  0
   -6.3963   -2.6348   -0.0790 C   0  0  0  0  0  0  0  0  0  0  0  0
    8.1172   -0.6330    0.6923 C   0  0  0  0  0  0  0  0  0  0  0  0
  1 23  2  0
  2 29  1  0
  3 29  2  0
  4 30  1  0
  5 30  2  0
  6 13  1  0
  6 17  1  0
  7 14  1  0
  7 23  1  0
  8 18  2  0
  8 31  1  0
  9 28  1  0
  9 31  2  0
 10 28  1  0
 11 31  1  0
 12 13  1  0
 12 16  2  0
 12 19  1  0
 14 21  1  0
 14 29  1  0
 15 16  1  0
 15 18  1  0
 15 28  2  0
 17 24  2  0
 17 25  1  0
 18 22  1  0
 19 22  2  0
 20 23  1  0
 20 26  2  0
 20 27  1  0
 21 30  1  0
 24 26  1  0
 25 27  2  0
M  END
>  <PUBCHEM_COMPOUND_CID>  (1) 
29334

>  <PUBCHEM_CONFORMER_RMSD>  (1) 
1

>  <PUBCHEM_CONFORMER_DIVERSEORDER>  (1) 
1
10
29
42
6
43
3
13
12
36
16
20
14
28
19
39
30
17
34
41
40
35
26
38
21
22
9
33
11
5
32
31
24
23
18
4
44
37
15
2
8
7
27
25

>  <PUBCHEM_MMFF94_PARTIAL_CHARGES>  (1) 
45
1 -0.57
10 -0.9
11 -0.9
12 -0.14
13 0.51
14 0.36
16 -0.15
17 0.1
18 0.31
19 -0.15
2 -0.65
20 0.09
21 0.06
22 -0.15
23 0.54
24 -0.15
25 -0.15
26 -0.15
27 -0.15
28 0.41
29 0.66
3 -0.57
30 0.66
31 0.72
35 0.15
36 0.4
37 0.15
4 -0.65
40 0.37
41 0.15
42 0.15
43 0.15
44 0.15
45 0.15
46 0.4
47 0.4
48 0.5
49 0.4
5 -0.57
50 0.4
51 0.5
6 -0.87
7 -0.73
8 -0.62
9 -0.62

>  <PUBCHEM_EFFECTIVE_ROTOR_COUNT>  (1) 
9

>  <PUBCHEM_PHARMACOPHORE_FEATURES>  (1) 
16
1 1 acceptor
1 10 donor
1 11 donor
1 2 acceptor
1 3 acceptor
1 4 acceptor
1 5 acceptor
1 6 cation
1 6 donor
1 7 donor
3 2 3 29 anion
3 4 5 30 anion
4 8 9 11 31 cation
6 12 15 16 18 19 22 rings
6 17 20 24 25 26 27 rings
6 8 9 15 18 28 31 rings

>  <PUBCHEM_HEAVY_ATOM_COUNT>  (1) 
31

>  <PUBCHEM_ATOM_DEF_STEREO_COUNT>  (1) 
1

>  <PUBCHEM_ATOM_UDEF_STEREO_COUNT>  (1) 
0

>  <PUBCHEM_BOND_DEF_STEREO_COUNT>  (1) 
0

>  <PUBCHEM_BOND_UDEF_STEREO_COUNT>  (1) 
0

>  <PUBCHEM_ISOTOPIC_ATOM_COUNT>  (1) 
0

>  <PUBCHEM_COMPONENT_COUNT>  (1) 
1

>  <PUBCHEM_CACTVS_TAUTO_COUNT>  (1) 
27

>  <PUBCHEM_CONFORMER_ID>  (1) 
0000729600000001

>  <PUBCHEM_MMFF94_ENERGY>  (1) 
109.8292

>  <PUBCHEM_FEATURE_SELFOVERLAP>  (1) 
81.347

>  <PUBCHEM_SHAPE_FINGERPRINT>  (1) 
10 15 16559031571184970905
10066227 112 9151179748458553327
10677351 14 18187364363048543244
11135926 11 18187078443619723287
11456790 92 17561358479506542328
11991303 11 14129347337941246097
12498461 61 18114172030947515170
13673619 4 17385444314768888876
13685833 64 18335138666409422084
13782708 43 18260546748981278597
14344974 204 18266744773870298255
15183329 4 16225763029874669552
15352257 5 18408886252009551686
15510794 2 18261106370625280541
16994733 274 11527958837144550103
17093844 174 17275105033967686485
17324776 126 17124215965086559623
1754908 1 18271800250908109586
18603816 31 17988634260381230191
19301679 30 17844534310558682468
19841028 212 18268994198872660162
2026 5 17459741524853279474
20554085 129 14405178435709664780
21130935 74 18411703222316500227
21150785 3 11891338650984368313
21267235 1 16660366969553687412
21424621 283 11743851265425823453
21781051 124 15792313547478287752
23522609 53 17972633032691037901
23576562 1 8501786165349976195
24204213 200 15698003994647772526
3383291 50 17385729101301930745
3504750 166 18335138696627323789
3663271 9 18272654571000130065
3711267 37 14405185110152393450
44389302 135 18337382748631802386
444735 82 10807924990848190946
444769 64 17822297898930547371
44802255 64 11602815822895425937
4516262 110 11815359061612689611
4874694 18 18202565047737769207
504579 68 13479135692174746232
5758199 1 12751243601387413397
636775 72 11095888172346501843
6691757 9 14836400363657684741
68570916 9 18339646766751361205
9831232 110 18334580101385664422
99344 41 18342177752023695987
9953998 17 18413392030145001785
9962374 69 18040434430323428396

>  <PUBCHEM_SHAPE_MULTIPOLES>  (1) 
578.73
30.28
2.61
1.23
9.17
2.58
0.14
12.29
-9.56
-2.66
0.12
-1.05
-0.27
-0.26

>  <PUBCHEM_SHAPE_SELFOVERLAP>  (1) 
1250.578

>  <PUBCHEM_SHAPE_VOLUME>  (1) 
313.2

>  <PUBCHEM_COORDINATE_TYPE>  (1) 
2
5
10

$$$$
