29330
     RDKit          3D

 25 25  0  0  0  0  0  0  0  0999 V2000
    0.2115    4.3442   -0.2083 Cl  0  0  0  0  0  0  0  0  0  0  0  0
   -3.4708    0.7589   -1.3514 S   0  0  0  0  0  0  0  0  0  0  0  0
    1.6912   -0.5608   -1.4227 S   0  0  0  0  0  0  0  0  0  0  0  0
   -5.3258   -1.5312    0.5683 S   0  0  0  0  0  0  0  0  0  0  0  0
    1.3522   -0.7374    2.0729 S   0  0  0  0  0  0  0  0  0  0  0  0
   -3.5681   -0.7674    0.1383 P   0  0  0  0  0  0  0  0  0  0  0  0
    2.5481   -0.5078    0.5318 P   0  0  0  0  0  0  0  0  0  0  0  0
   -2.8039   -0.1973    1.4671 O   0  0  0  0  0  0  0  0  0  0  0  0
   -2.4824   -1.9181   -0.2756 O   0  0  0  0  0  0  0  0  0  0  0  0
    3.4307    0.8650    0.6380 O   0  0  0  0  0  0  0  0  0  0  0  0
    3.7846   -1.5781    0.5485 O   0  0  0  0  0  0  0  0  0  0  0  0
   -0.8528    0.2426   -1.3507 N   0  0  0  0  0  0  0  0  0  0  0  0
    0.8137    1.8879   -0.8275 N   0  0  0  0  0  0  0  0  0  0  0  0
   -1.5109    2.4824   -0.7963 N   0  0  0  0  0  0  0  0  0  0  0  0
   -3.3704    0.8617    2.2212 C   0  0  0  0  0  0  0  0  0  0  0  0
   -2.6997   -2.7309   -1.4174 C   0  0  0  0  0  0  0  0  0  0  0  0
    4.3863    1.1822   -0.3607 C   0  0  0  0  0  0  0  0  0  0  0  0
    3.5278   -2.9708    0.4739 C   0  0  0  0  0  0  0  0  0  0  0  0
   -1.7608    1.2101   -1.1450 C   0  0  0  0  0  0  0  0  0  0  0  0
    0.4123    0.6549   -1.1739 C   0  0  0  0  0  0  0  0  0  0  0  0
   -2.4571    1.1816    3.3853 C   0  0  0  0  0  0  0  0  0  0  0  0
   -1.5458   -3.7004   -1.5595 C   0  0  0  0  0  0  0  0  0  0  0  0
    5.0485    2.4974   -0.0096 C   0  0  0  0  0  0  0  0  0  0  0  0
    4.8441   -3.7175    0.5090 C   0  0  0  0  0  0  0  0  0  0  0  0
   -0.2024    2.7490   -0.6556 C   0  0  0  0  0  0  0  0  0  0  0  0
  1 25  1  0
  2  6  1  0
  2 19  1  0
  3  7  1  0
  3 20  1  0
  4  6  2  0
  5  7  2  0
  6  8  1  0
  6  9  1  0
  7 10  1  0
  7 11  1  0
  8 15  1  0
  9 16  1  0
 10 17  1  0
 11 18  1  0
 12 19  2  0
 12 20  1  0
 13 20  2  0
 13 25  1  0
 14 19  1  0
 14 25  2  0
 15 21  1  0
 16 22  1  0
 17 23  1  0
 18 24  1  0
M  END
>  <PUBCHEM_COMPOUND_CID>  (1) 
29330

>  <PUBCHEM_CONFORMER_RMSD>  (1) 
1

>  <PUBCHEM_CONFORMER_DIVERSEORDER>  (1) 
1
96
20
257
224
277
208
201
38
200
176
111
254
36
210
273
31
196
82
217
10
165
110
172
125
55
167
168
30
234
45
107
206
191
43
175
187
4
148
5
144
77
106
262
159
279
22
3
203
23
134
139
246
149
158
81
204
239
215
272
66
255
270
184
179
264
227
58
53
133
154
94
98
118
258
40
6
153
252
24
89
100
115
261
228
33
222
61
44
221
71
241
135
274
230
85
256
13
47
76
211
243
59
147
137
193
54
65
103
146
212
242
163
189
150
123
62
15
169
266
14
93
178
79
145
113
260
267
112
83
209
229
219
207
160
119
92
60
101
34
129
236
105
46
253
88
41
198
185
108
116
126
190
164
90
233
197
232
121
70
128
131
35
72
138
17
132
27
29
156
244
249
265
127
218
39
180
213
223
102
18
276
11
51
238
74
7
182
8
52
240
75
192
226
205
19
95
194
251
28
87
247
202
86
69
57
48
42
269
199
114
181
91
25
183
104
136
166
117
21
225
78
278
63
259
214
142
109
16
130
275
2
73
174
50
177
188
12
157
235
161
171
271
268
64
120
97
186
84
143
263
151
26
220
162
140
67
152
122
170
99
173
37
9
231
195
68
237
56
49
124
32
155
248
80
216
245
250
141

>  <PUBCHEM_MMFF94_PARTIAL_CHARGES>  (1) 
21
1 -0.18
10 -0.55
11 -0.55
12 -0.62
13 -0.62
14 -0.62
15 0.28
16 0.28
17 0.28
18 0.28
19 0.72
2 -0.35
20 0.72
25 0.8
3 -0.35
4 -0.68
5 -0.68
6 1.47
7 1.47
8 -0.55
9 -0.55

>  <PUBCHEM_EFFECTIVE_ROTOR_COUNT>  (1) 
12

>  <PUBCHEM_PHARMACOPHORE_FEATURES>  (1) 
4
3 12 13 20 cation
3 12 14 19 cation
3 13 14 25 cation
6 12 13 14 19 20 25 rings

>  <PUBCHEM_HEAVY_ATOM_COUNT>  (1) 
25

>  <PUBCHEM_ATOM_DEF_STEREO_COUNT>  (1) 
0

>  <PUBCHEM_ATOM_UDEF_STEREO_COUNT>  (1) 
0

>  <PUBCHEM_BOND_DEF_STEREO_COUNT>  (1) 
0

>  <PUBCHEM_BOND_UDEF_STEREO_COUNT>  (1) 
0

>  <PUBCHEM_ISOTOPIC_ATOM_COUNT>  (1) 
0

>  <PUBCHEM_COMPONENT_COUNT>  (1) 
1

>  <PUBCHEM_CACTVS_TAUTO_COUNT>  (1) 
1

>  <PUBCHEM_CONFORMER_ID>  (1) 
0000729200000001

>  <PUBCHEM_MMFF94_ENERGY>  (1) 
13.3706

>  <PUBCHEM_FEATURE_SELFOVERLAP>  (1) 
23.074

>  <PUBCHEM_SHAPE_FINGERPRINT>  (1) 
10366900 7 16988841726366210071
11552529 35 17988073529712570662
12553582 1 18263632030021929222
12596602 18 18130517438765633377
12633257 1 17986960652304506666
13004483 165 18409720738622282811
13140716 1 18265053535542883373
14787075 74 17897157134210823740
23419403 2 16908289404751145231
23559900 14 18118386372695031700
3737641 26 18409452492461419878
392239 28 18265326382479584896
5486654 36 17755587040806802458

>  <PUBCHEM_SHAPE_MULTIPOLES>  (1) 
501.03
9.6
4.78
2.24
4.36
0.36
-1.8
4.63
-2.41
3.09
1.22
-2.17
-0.21
-1.73

>  <PUBCHEM_SHAPE_SELFOVERLAP>  (1) 
889.376

>  <PUBCHEM_SHAPE_VOLUME>  (1) 
330.8

>  <PUBCHEM_COORDINATE_TYPE>  (1) 
2
5
10

$$$$
