29348
     RDKit          3D

 16 17  0  0  1  0  0  0  0  0999 V2000
    1.9061   -0.7469    1.3280 O   0  0  0  0  0  0  0  0  0  0  0  0
    1.0070    1.0561    0.1792 N   0  0  0  0  0  0  0  0  0  0  0  0
   -1.3063   -0.5842   -0.9419 C   0  0  0  0  0  0  0  0  0  0  0  0
   -3.3585   -0.7047   -0.0800 C   0  0  0  0  0  0  0  0  0  0  0  0
   -1.4084    0.7217   -0.1164 C   0  0  0  0  0  0  0  0  0  0  0  0
   -2.7947    0.5862    0.5663 C   0  0  0  0  0  0  0  0  0  0  0  0
   -2.7364   -0.6930   -1.4786 C   0  0  0  0  0  0  0  0  0  0  0  0
   -1.2318   -1.8311   -0.0441 C   0  0  0  0  0  0  0  0  0  0  0  0
   -2.6429   -1.9119    0.5555 C   0  0  0  0  0  0  0  0  0  0  0  0
   -0.2730    0.9601    0.8680 C   0  0  0  0  0  0  0  0  0  0  0  0
   -3.6813    1.8012    0.3086 C   0  0  0  0  0  0  0  0  0  0  0  0
    1.1032    2.1293   -0.8084 C   0  0  0  0  0  0  0  0  0  0  0  0
    2.0259    0.1471    0.4861 C   0  0  0  0  0  0  0  0  0  0  0  0
    3.3285    0.3105   -0.2864 C   0  0  0  0  0  0  0  0  0  0  0  0
    4.3817   -0.7227    0.1131 C   0  0  0  0  0  0  0  0  0  0  0  0
    5.6810   -0.5176   -0.6489 C   0  0  0  0  0  0  0  0  0  0  0  0
  1 13  2  0
  2 10  1  0
  2 12  1  0
  2 13  1  0
  3  5  1  0
  3  7  1  0
  3  8  1  0
  4  6  1  0
  4  7  1  0
  4  9  1  0
  5  6  1  0
  5 10  1  0
  6 11  1  0
  8  9  1  0
 13 14  1  0
 14 15  1  0
 15 16  1  0
M  END
>  <PUBCHEM_COMPOUND_CID>  (1) 
29348

>  <PUBCHEM_CONFORMER_RMSD>  (1) 
0.8

>  <PUBCHEM_CONFORMER_DIVERSEORDER>  (1) 
7
45
41
79
55
66
47
52
57
76
74
24
93
62
4
68
59
12
38
22
67
81
27
80
86
72
43
92
8
63
77
88
50
58
10
94
19
6
21
37
84
71
91
31
70
25
33
46
89
39
2
83
42
36
78
56
20
17
16
5
51
75
28
54
29
85
44
40
3
69
34
14
18
60
90
53
15
26
49
87
1
48
82
61
64
32
65
35
13
30
23
73
11
9
95

>  <PUBCHEM_MMFF94_PARTIAL_CHARGES>  (1) 
6
1 -0.57
10 0.3
12 0.3
13 0.57
14 0.06
2 -0.66

>  <PUBCHEM_EFFECTIVE_ROTOR_COUNT>  (1) 
6

>  <PUBCHEM_PHARMACOPHORE_FEATURES>  (1) 
3
1 1 acceptor
1 16 hydrophobe
7 3 4 5 6 7 8 9 rings

>  <PUBCHEM_HEAVY_ATOM_COUNT>  (1) 
16

>  <PUBCHEM_ATOM_DEF_STEREO_COUNT>  (1) 
0

>  <PUBCHEM_ATOM_UDEF_STEREO_COUNT>  (1) 
4

>  <PUBCHEM_BOND_DEF_STEREO_COUNT>  (1) 
0

>  <PUBCHEM_BOND_UDEF_STEREO_COUNT>  (1) 
0

>  <PUBCHEM_ISOTOPIC_ATOM_COUNT>  (1) 
0

>  <PUBCHEM_COMPONENT_COUNT>  (1) 
1

>  <PUBCHEM_CACTVS_TAUTO_COUNT>  (1) 
1

>  <PUBCHEM_CONFORMER_ID>  (1) 
000072A400000007

>  <PUBCHEM_MMFF94_ENERGY>  (1) 
44.4002

>  <PUBCHEM_FEATURE_SELFOVERLAP>  (1) 
15.223

>  <PUBCHEM_SHAPE_FINGERPRINT>  (1) 
11315181 36 17417813924985602200
124424 183 16415477134197432640
12500047 106 17774717571876866357
12553582 1 18260820480263829944
12932764 1 17095508630478592305
13024252 1 13407066003846425431
13288520 33 18344149193709741102
13296908 3 18059568135300178904
14577589 140 18060699489752021413
15375358 24 17632295644893205596
15375462 189 17967529047826094760
15536298 74 18340767156452403216
16752209 62 18270949215986573471
16945 1 18115009875428125009
17804303 29 18273496779711144080
18186145 218 17749386001226508580
19422 9 18335145340144911412
200 152 11383823849380027689
20279233 1 16487259858971196156
20281475 54 18260259738145027946
20325693 3 18408606946133321711
20645476 183 18334575720429058819
20681677 155 18410293575558927272
20871999 31 18261386732952065508
21267235 1 18410302431581161155
21524375 3 18200314317397638897
21634736 98 18189617318682839692
22485316 2 17988921154967707654
23175994 123 16989131950133144312
232386 152 18201721790273967324
23402539 116 18335421240944947372
23559900 14 17989199344437174032
23566358 27 17607548004505108317
23598291 2 18261117421143733477
351380 180 8790880770800483958
369184 2 11527406947116420253
465052 167 18053956314421665791
4921388 177 17458356272433429930
559249 180 18341047402825692174
58051976 100 18260828207031379589
7364860 26 18126000709502697832
74978 22 18335133254254724381

>  <PUBCHEM_SHAPE_MULTIPOLES>  (1) 
318.42
8.59
1.9
1.07
11.8
0.21
-0.12
-1.62
-0.89
-1.27
-0.01
-0.19
-0.09
-0.36

>  <PUBCHEM_SHAPE_SELFOVERLAP>  (1) 
645.76

>  <PUBCHEM_SHAPE_VOLUME>  (1) 
192.3

>  <PUBCHEM_COORDINATE_TYPE>  (1) 
2
5
10

$$$$
