29341
     RDKit          3D

 22 24  0  0  0  0  0  0  0  0999 V2000
    0.8881    0.2819   -1.5896 S   0  0  0  0  0  0  0  0  0  0  0  0
   -3.2271    0.2961    0.4495 N   0  0  0  0  0  0  0  0  0  0  0  0
    5.7094   -0.3405    0.2537 N   0  0  0  0  0  0  0  0  0  0  0  0
   -0.6033   -3.2332   -0.0849 C   0  0  0  0  0  0  0  0  0  0  0  0
   -0.8772   -2.2069   -1.1844 C   0  0  0  0  0  0  0  0  0  0  0  0
   -1.8464   -3.9896    0.3818 C   0  0  0  0  0  0  0  0  0  0  0  0
   -1.4602   -0.9237   -0.6597 C   0  0  0  0  0  0  0  0  0  0  0  0
   -2.8984   -3.1285    1.0799 C   0  0  0  0  0  0  0  0  0  0  0  0
   -3.5484   -2.0902    0.1671 C   0  0  0  0  0  0  0  0  0  0  0  0
   -2.6996   -0.8623   -0.0287 C   0  0  0  0  0  0  0  0  0  0  0  0
   -0.7561    0.2756   -0.7981 C   0  0  0  0  0  0  0  0  0  0  0  0
   -1.2815    1.4796   -0.3133 C   0  0  0  0  0  0  0  0  0  0  0  0
   -2.5385    1.4430    0.3136 C   0  0  0  0  0  0  0  0  0  0  0  0
    1.9427   -0.0201   -0.1538 C   0  0  0  0  0  0  0  0  0  0  0  0
    3.4133   -0.0615   -0.5626 C   0  0  0  0  0  0  0  0  0  0  0  0
   -0.5865    2.6949   -0.4410 C   0  0  0  0  0  0  0  0  0  0  0  0
    4.3064   -0.3235    0.6506 C   0  0  0  0  0  0  0  0  0  0  0  0
   -3.0660    2.6370    0.7980 C   0  0  0  0  0  0  0  0  0  0  0  0
   -1.1349    3.8752    0.0520 C   0  0  0  0  0  0  0  0  0  0  0  0
   -2.3773    3.8459    0.6726 C   0  0  0  0  0  0  0  0  0  0  0  0
    6.5715   -0.5576    1.4168 C   0  0  0  0  0  0  0  0  0  0  0  0
    6.0699    0.9086   -0.4193 C   0  0  0  0  0  0  0  0  0  0  0  0
  1 11  1  0
  1 14  1  0
  2 10  2  0
  2 13  1  0
  3 17  1  0
  3 21  1  0
  3 22  1  0
  4  5  1  0
  4  6  1  0
  5  7  1  0
  6  8  1  0
  7 10  1  0
  7 11  2  0
  8  9  1  0
  9 10  1  0
 11 12  1  0
 12 13  2  0
 12 16  1  0
 13 18  1  0
 14 15  1  0
 15 17  1  0
 16 19  2  0
 18 20  2  0
 19 20  1  0
M  END
>  <PUBCHEM_COMPOUND_CID>  (1) 
29341

>  <PUBCHEM_CONFORMER_RMSD>  (1) 
0.8

>  <PUBCHEM_CONFORMER_DIVERSEORDER>  (1) 
1
34
9
36
39
31
37
43
28
16
26
40
7
41
33
20
23
47
21
32
35
48
46
18
29
19
15
24
14
38
30
11
27
45
12
3
5
13
8
22
10
17
2
6
25
44
4
42

>  <PUBCHEM_MMFF94_PARTIAL_CHARGES>  (1) 
21
1 -0.33
10 0.17
11 0.1
13 0.31
14 0.23
16 -0.15
17 0.27
18 -0.15
19 -0.15
2 -0.62
20 -0.15
21 0.27
22 0.27
3 -0.81
37 0.15
40 0.15
41 0.15
42 0.15
5 0.14
7 -0.14
9 0.14

>  <PUBCHEM_EFFECTIVE_ROTOR_COUNT>  (1) 
6

>  <PUBCHEM_PHARMACOPHORE_FEATURES>  (1) 
5
1 2 acceptor
1 3 cation
6 12 13 16 18 19 20 rings
6 2 7 10 11 12 13 rings
7 4 5 6 7 8 9 10 rings

>  <PUBCHEM_HEAVY_ATOM_COUNT>  (1) 
22

>  <PUBCHEM_ATOM_DEF_STEREO_COUNT>  (1) 
0

>  <PUBCHEM_ATOM_UDEF_STEREO_COUNT>  (1) 
0

>  <PUBCHEM_BOND_DEF_STEREO_COUNT>  (1) 
0

>  <PUBCHEM_BOND_UDEF_STEREO_COUNT>  (1) 
0

>  <PUBCHEM_ISOTOPIC_ATOM_COUNT>  (1) 
0

>  <PUBCHEM_COMPONENT_COUNT>  (1) 
1

>  <PUBCHEM_CACTVS_TAUTO_COUNT>  (1) 
1

>  <PUBCHEM_CONFORMER_ID>  (1) 
0000729D00000001

>  <PUBCHEM_MMFF94_ENERGY>  (1) 
64.0621

>  <PUBCHEM_FEATURE_SELFOVERLAP>  (1) 
25.412

>  <PUBCHEM_SHAPE_FINGERPRINT>  (1) 
10319926 262 18342172212570568286
10411042 1 18123753320710239279
1100329 8 18337960107629944257
11036077 51 18337667495386401154
11049842 53 18049190811930468254
11056379 131 18410584972289821884
11552529 35 18336255838863734226
12107183 9 17975687291609326018
12523318 42 18411410718396588680
12553582 1 18051999166174713807
12788726 201 18118425031563982558
13004483 165 18267303320806033155
13140716 1 18267027347772008671
14178342 30 18336271158853849934
14420673 8 18050851023213058838
14565420 104 17552656759332224897
14844126 61 18335983150746579091
15042514 8 18409454712506026183
15230672 131 18049169861550152374
15326921 28 17758653583280602720
15475509 35 16742295141857926675
17780758 139 18334846239234471122
17980427 26 17331107300743981957
19377110 9 18041552655398032576
20554085 129 17911493438328391673
20600515 1 18128274443919494391
21650355 55 18410576227377652365
21796203 349 17468797363710619258
22956985 138 17399793195035196130
23522609 53 17823439128087645196
23557571 272 18129959922494467916
23559900 14 18192985148035992240
283562 15 18341045204182374669
5104073 3 18338221727510838440
5364581 5 18056176185722630768
58807428 26 18122357782777178577
7288768 16 17558286331495467881
9981440 41 18120660128234270073

>  <PUBCHEM_SHAPE_MULTIPOLES>  (1) 
446.64
10.19
5.08
1.14
27.66
0.6
-0.09
-1.06
3.97
-7.51
1.15
0.48
-0.17
-0.56

>  <PUBCHEM_SHAPE_SELFOVERLAP>  (1) 
924.271

>  <PUBCHEM_SHAPE_VOLUME>  (1) 
256.9

>  <PUBCHEM_COORDINATE_TYPE>  (1) 
2
5
10

$$$$
