29358
     RDKit          3D

 12 12  0  0  0  0  0  0  0  0999 V2000
   -2.8552   -2.2326    0.1041 Cl  0  0  0  0  0  0  0  0  0  0  0  0
   -3.7417    0.5900    0.6369 O   0  0  0  0  0  0  0  0  0  0  0  0
    2.5829   -0.0685    0.2474 C   0  0  0  0  0  0  0  0  0  0  0  0
    1.6522    0.1106   -0.9540 C   0  0  0  0  0  0  0  0  0  0  0  0
    4.0445   -0.1525   -0.1921 C   0  0  0  0  0  0  0  0  0  0  0  0
    0.2109    0.2302   -0.5295 C   0  0  0  0  0  0  0  0  0  0  0  0
    4.9781   -0.2897    1.0001 C   0  0  0  0  0  0  0  0  0  0  0  0
   -0.5651   -0.9142   -0.4203 C   0  0  0  0  0  0  0  0  0  0  0  0
   -0.3164    1.4834   -0.2550 C   0  0  0  0  0  0  0  0  0  0  0  0
   -1.8989   -0.8029   -0.0274 C   0  0  0  0  0  0  0  0  0  0  0  0
   -1.6500    1.5947    0.1379 C   0  0  0  0  0  0  0  0  0  0  0  0
   -2.4413    0.4516    0.2518 C   0  0  0  0  0  0  0  0  0  0  0  0
  1 10  1  0
  2 12  1  0
  3  4  1  0
  3  5  1  0
  4  6  1  0
  5  7  1  0
  6  8  2  0
  6  9  1  0
  8 10  1  0
  9 11  2  0
 10 12  2  0
 11 12  1  0
M  END
>  <PUBCHEM_COMPOUND_CID>  (1) 
29358

>  <PUBCHEM_CONFORMER_RMSD>  (1) 
0.6

>  <PUBCHEM_CONFORMER_DIVERSEORDER>  (1) 
2
4
8
6
7
1
5
3

>  <PUBCHEM_MMFF94_PARTIAL_CHARGES>  (1) 
13
1 -0.18
10 0.18
11 -0.15
12 0.08
2 -0.53
22 0.15
23 0.15
24 0.15
25 0.45
4 0.14
6 -0.14
8 -0.15
9 -0.15

>  <PUBCHEM_EFFECTIVE_ROTOR_COUNT>  (1) 
3

>  <PUBCHEM_PHARMACOPHORE_FEATURES>  (1) 
3
1 2 donor
1 7 hydrophobe
6 6 8 9 10 11 12 rings

>  <PUBCHEM_HEAVY_ATOM_COUNT>  (1) 
12

>  <PUBCHEM_ATOM_DEF_STEREO_COUNT>  (1) 
0

>  <PUBCHEM_ATOM_UDEF_STEREO_COUNT>  (1) 
0

>  <PUBCHEM_BOND_DEF_STEREO_COUNT>  (1) 
0

>  <PUBCHEM_BOND_UDEF_STEREO_COUNT>  (1) 
0

>  <PUBCHEM_ISOTOPIC_ATOM_COUNT>  (1) 
0

>  <PUBCHEM_COMPONENT_COUNT>  (1) 
1

>  <PUBCHEM_CACTVS_TAUTO_COUNT>  (1) 
3

>  <PUBCHEM_CONFORMER_ID>  (1) 
000072AE00000002

>  <PUBCHEM_MMFF94_ENERGY>  (1) 
18.7982

>  <PUBCHEM_FEATURE_SELFOVERLAP>  (1) 
15.223

>  <PUBCHEM_SHAPE_FINGERPRINT>  (1) 
11132069 177 18342182150043118886
12119455 92 17060334076674430244
12251169 10 18410857646588496220
13024252 1 15140963933115239837
13214271 11 18131910472674036572
15219456 202 17703517597219808054
15375462 189 17894908529720457384
16945 1 18339942436705423485
17846911 113 18201721712853734177
18186145 218 12251897109924854950
19050596 39 18408321103670723576
19422 9 18187930616295804214
200 152 16081081572315733312
20510252 161 18129103312130427633
20645464 45 17846781793022854500
20645477 70 14273732924790087712
20828058 44 18410853261753908762
20871998 184 18202286926328799959
21339142 126 17967808314920693821
21501502 16 18267593596344982181
21650355 55 18411133658050288849
22445834 79 18040995081915276498
23402539 116 18342730802704741189
23552423 10 17901118726023794141
23559900 14 18200328619437865982
3086196 2 18341046410371677138
75552 356 18411421721522525879

>  <PUBCHEM_SHAPE_MULTIPOLES>  (1) 
242.95
7.57
1.65
0.86
8.97
0.33
0.01
1.75
-2.49
-1.93
-0.05
0.41
0.01
-0.29

>  <PUBCHEM_SHAPE_SELFOVERLAP>  (1) 
482.175

>  <PUBCHEM_SHAPE_VOLUME>  (1) 
146.1

>  <PUBCHEM_COORDINATE_TYPE>  (1) 
2
5
10

$$$$
