29352
     RDKit          3D

 11 11  0  0  0  0  0  0  0  0999 V2000
    1.3304    0.6901    0.5126 O   0  0  0  0  0  0  0  0  0  0  0  0
   -3.9696   -0.5320   -0.3802 O   0  0  0  0  0  0  0  0  0  0  0  0
    3.5987    0.3512   -0.1889 C   0  0  0  0  0  0  0  0  0  0  0  0
    2.2907   -0.3188    0.2030 C   0  0  0  0  0  0  0  0  0  0  0  0
    0.0217    0.3881    0.2924 C   0  0  0  0  0  0  0  0  0  0  0  0
    4.6682   -0.6648   -0.5480 C   0  0  0  0  0  0  0  0  0  0  0  0
   -0.8803    1.3984   -0.0414 C   0  0  0  0  0  0  0  0  0  0  0  0
   -0.4178   -0.9314    0.4007 C   0  0  0  0  0  0  0  0  0  0  0  0
   -2.2217    1.0895   -0.2668 C   0  0  0  0  0  0  0  0  0  0  0  0
   -1.7593   -1.2403    0.1752 C   0  0  0  0  0  0  0  0  0  0  0  0
   -2.6611   -0.2299   -0.1585 C   0  0  0  0  0  0  0  0  0  0  0  0
  1  4  1  0
  1  5  1  0
  2 11  1  0
  3  4  1  0
  3  6  1  0
  5  7  2  0
  5  8  1  0
  7  9  1  0
  8 10  2  0
  9 11  2  0
 10 11  1  0
M  END
>  <PUBCHEM_COMPOUND_CID>  (1) 
29352

>  <PUBCHEM_CONFORMER_RMSD>  (1) 
0.6

>  <PUBCHEM_CONFORMER_DIVERSEORDER>  (1) 
1
5
3
2
7
4
6

>  <PUBCHEM_MMFF94_PARTIAL_CHARGES>  (1) 
14
1 -0.36
10 -0.15
11 0.08
19 0.15
2 -0.53
20 0.15
21 0.15
22 0.15
23 0.45
4 0.28
5 0.08
7 -0.15
8 -0.15
9 -0.15

>  <PUBCHEM_EFFECTIVE_ROTOR_COUNT>  (1) 
3

>  <PUBCHEM_PHARMACOPHORE_FEATURES>  (1) 
4
1 1 acceptor
1 2 donor
1 6 hydrophobe
6 5 7 8 9 10 11 rings

>  <PUBCHEM_HEAVY_ATOM_COUNT>  (1) 
11

>  <PUBCHEM_ATOM_DEF_STEREO_COUNT>  (1) 
0

>  <PUBCHEM_ATOM_UDEF_STEREO_COUNT>  (1) 
0

>  <PUBCHEM_BOND_DEF_STEREO_COUNT>  (1) 
0

>  <PUBCHEM_BOND_UDEF_STEREO_COUNT>  (1) 
0

>  <PUBCHEM_ISOTOPIC_ATOM_COUNT>  (1) 
0

>  <PUBCHEM_COMPONENT_COUNT>  (1) 
1

>  <PUBCHEM_CACTVS_TAUTO_COUNT>  (1) 
2

>  <PUBCHEM_CONFORMER_ID>  (1) 
000072A800000001

>  <PUBCHEM_MMFF94_ENERGY>  (1) 
27.3078

>  <PUBCHEM_FEATURE_SELFOVERLAP>  (1) 
20.297

>  <PUBCHEM_SHAPE_FINGERPRINT>  (1) 
12032990 46 18338237180012085947
12251169 10 10663817477524932058
13024252 1 17385446522724177177
14325111 11 18336262358164906864
14911166 2 18334849541847816647
14993402 34 17603302661034152823
1986462 14 18411984624595316916
20201158 50 18272937111360773742
20279233 1 18202283615510212570
20645476 183 17240481437640236771
21119208 17 17822012012621425142
21293036 1 18186517717556735573
22485316 2 17703788128730591966
23402539 116 18411974741516918373
23403322 49 18058456413576473566
23552423 10 18042401507294533041
23559900 14 18413102849970588536
2748010 2 17974559509989459275
369184 2 12031788063029581929
7364860 26 18197216064891389104

>  <PUBCHEM_SHAPE_MULTIPOLES>  (1) 
214.64
7.17
1.27
0.7
6.55
0.1
0
-1.33
-1.76
-0.57
0.02
0.1
-0.01
0.16

>  <PUBCHEM_SHAPE_SELFOVERLAP>  (1) 
433.549

>  <PUBCHEM_SHAPE_VOLUME>  (1) 
127

>  <PUBCHEM_COORDINATE_TYPE>  (1) 
2
5
10

$$$$
