29377
     RDKit          3D

 22 25  0  0  1  0  0  0  0  0999 V2000
   -0.3726    4.5276   -1.1395 Br  0  0  0  0  0  0  0  0  0  0  0  0
   -2.4727   -3.2240    0.5314 O   0  0  0  0  0  0  0  0  0  0  0  0
    0.0961   -1.7476   -0.7792 N   0  0  0  0  0  0  0  0  0  0  0  0
   -2.6324   -0.8966    0.6277 N   0  0  0  0  0  0  0  0  0  0  0  0
    0.2561   -0.6707    0.2254 C   0  0  0  0  0  0  0  0  0  0  0  0
    0.8922   -1.4812   -1.9846 C   0  0  0  0  0  0  0  0  0  0  0  0
    1.7185   -0.3091    0.4805 C   0  0  0  0  0  0  0  0  0  0  0  0
    2.3837   -1.4910   -1.6517 C   0  0  0  0  0  0  0  0  0  0  0  0
   -0.6871    0.5176   -0.0062 C   0  0  0  0  0  0  0  0  0  0  0  0
    2.7200   -0.6688   -0.4378 C   0  0  0  0  0  0  0  0  0  0  0  0
   -1.2981   -2.0034   -1.1462 C   0  0  0  0  0  0  0  0  0  0  0  0
   -2.0699    0.3811    0.2826 C   0  0  0  0  0  0  0  0  0  0  0  0
   -2.1651   -2.1115    0.0968 C   0  0  0  0  0  0  0  0  0  0  0  0
    2.0763    0.3954    1.6432 C   0  0  0  0  0  0  0  0  0  0  0  0
   -0.2073    1.7602   -0.4593 C   0  0  0  0  0  0  0  0  0  0  0  0
    4.0539   -0.3206   -0.1833 C   0  0  0  0  0  0  0  0  0  0  0  0
   -2.8952    1.5176    0.2253 C   0  0  0  0  0  0  0  0  0  0  0  0
    3.4050    0.7450    1.8819 C   0  0  0  0  0  0  0  0  0  0  0  0
    4.3927    0.3887    0.9682 C   0  0  0  0  0  0  0  0  0  0  0  0
   -3.7536   -0.9234    1.5637 C   0  0  0  0  0  0  0  0  0  0  0  0
   -1.0519    2.8656   -0.5491 C   0  0  0  0  0  0  0  0  0  0  0  0
   -2.3887    2.7489   -0.1897 C   0  0  0  0  0  0  0  0  0  0  0  0
  1 21  1  0
  2 13  2  0
  3  5  1  0
  3  6  1  0
  3 11  1  0
  4 12  1  0
  4 13  1  0
  4 20  1  0
  5  7  1  0
  5  9  1  0
  6  8  1  0
  7 10  2  0
  7 14  1  0
  8 10  1  0
  9 12  2  0
  9 15  1  0
 10 16  1  0
 11 13  1  0
 12 17  1  0
 14 18  2  0
 15 21  2  0
 16 19  2  0
 17 22  2  0
 18 19  1  0
 21 22  1  0
M  END
>  <PUBCHEM_COMPOUND_CID>  (1) 
29377

>  <PUBCHEM_CONFORMER_RMSD>  (1) 
0.6

>  <PUBCHEM_CONFORMER_DIVERSEORDER>  (1) 
1
3
2
4

>  <PUBCHEM_MMFF94_PARTIAL_CHARGES>  (1) 
29
1 -0.11
10 -0.14
11 0.33
12 0.12
13 0.57
14 -0.15
15 -0.15
16 -0.15
17 -0.15
18 -0.15
19 -0.15
2 -0.57
20 0.3
21 0.11
22 -0.15
3 -0.81
30 0.15
31 0.15
32 0.15
33 0.15
34 0.15
35 0.15
39 0.15
4 -0.48
5 0.56
6 0.27
7 -0.14
8 0.14
9 -0.14

>  <PUBCHEM_EFFECTIVE_ROTOR_COUNT>  (1) 
0.8

>  <PUBCHEM_PHARMACOPHORE_FEATURES>  (1) 
7
1 1 hydrophobe
1 2 acceptor
1 3 cation
6 3 5 6 7 8 10 rings
6 7 10 14 16 18 19 rings
6 9 12 15 17 21 22 rings
7 3 4 5 9 11 12 13 rings

>  <PUBCHEM_HEAVY_ATOM_COUNT>  (1) 
22

>  <PUBCHEM_ATOM_DEF_STEREO_COUNT>  (1) 
0

>  <PUBCHEM_ATOM_UDEF_STEREO_COUNT>  (1) 
1

>  <PUBCHEM_BOND_DEF_STEREO_COUNT>  (1) 
0

>  <PUBCHEM_BOND_UDEF_STEREO_COUNT>  (1) 
0

>  <PUBCHEM_ISOTOPIC_ATOM_COUNT>  (1) 
0

>  <PUBCHEM_COMPONENT_COUNT>  (1) 
1

>  <PUBCHEM_CACTVS_TAUTO_COUNT>  (1) 
1

>  <PUBCHEM_CONFORMER_ID>  (1) 
000072C100000001

>  <PUBCHEM_MMFF94_ENERGY>  (1) 
81.7437

>  <PUBCHEM_FEATURE_SELFOVERLAP>  (1) 
35.564

>  <PUBCHEM_SHAPE_FINGERPRINT>  (1) 
10165383 225 17258249292105265540
10369192 42 16626297713653395312
10382601 240 17397856921147324361
10906281 52 18410580582939168949
11582403 64 16904054918736344304
11640471 11 16662075529071327980
12173636 292 17974848371988770125
12403814 3 18200021971204249578
12553582 1 18264221368565659663
12633257 1 17989490697295567506
12716301 132 18265615377231302827
12730499 353 17618785752482282885
13083527 12 17905319981386099395
13140716 1 18196095671258597235
13294875 104 17040621795977742172
133893 2 17538849483178055797
13583140 156 18124561307617140218
14022347 108 18117020882174605283
14787075 74 17389110250160797320
14955137 171 17187001437147061584
16945 1 18408880732976193091
17357779 13 17986085600067932935
1813 80 18264490770077954627
18219364 16 17703784812878598690
19049666 15 17985554351183739778
20600515 1 18337682991881534953
21421861 104 17473005255335694579
21524375 3 17909534074126013101
22182313 1 18269003007501573455
23419403 2 17272883967964071558
23526113 38 17410782358340649542
23557571 272 18339935848082991212
23559900 14 18193286186915855694
238 59 17411873121267996628
25 1 17630317537591522568
2748010 2 18269004089669788759
3187 122 18337942514795033913
350125 39 17687750441278905689
3524813 1 18131356280148492634
5845 1 10507423041962956064
6287921 2 17769373056719439544
633830 44 15985111833761985464
6442390 28 17979082591641810209
77492 1 16805617931755272218
7808743 9 18190189983974357740
81228 2 18411139134544911467
84936 182 16897081639588353045
90316 7 18335977644555943401
9862522 239 17987209228248273002
9925002 15 16835421581895743572

>  <PUBCHEM_SHAPE_MULTIPOLES>  (1) 
442.86
6.14
4.02
1.61
4.1
3.62
-0.02
-0.47
2.59
-3.91
-1.61
0.89
-0.29
1.57

>  <PUBCHEM_SHAPE_SELFOVERLAP>  (1) 
959.494

>  <PUBCHEM_SHAPE_VOLUME>  (1) 
247.5

>  <PUBCHEM_COORDINATE_TYPE>  (1) 
2
5
10

$$$$
