29379
     RDKit          3D

 20 23  0  0  1  0  0  0  0  0999 V2000
    1.7487   -3.7638    1.2794 Cl  0  0  0  0  0  0  0  0  0  0  0  0
   -0.2405    2.0161    0.3876 N   0  0  0  0  0  0  0  0  0  0  0  0
    2.6276    1.6272   -1.0111 N   0  0  0  0  0  0  0  0  0  0  0  0
   -0.1900    0.8068   -0.4619 C   0  0  0  0  0  0  0  0  0  0  0  0
   -0.7661    1.7287    1.7248 C   0  0  0  0  0  0  0  0  0  0  0  0
   -1.5378    0.0834   -0.4895 C   0  0  0  0  0  0  0  0  0  0  0  0
    1.0019    2.7948    0.4532 C   0  0  0  0  0  0  0  0  0  0  0  0
   -2.2247    1.2768    1.6349 C   0  0  0  0  0  0  0  0  0  0  0  0
    1.0294   -0.0878   -0.1976 C   0  0  0  0  0  0  0  0  0  0  0  0
   -2.4790    0.2785    0.5370 C   0  0  0  0  0  0  0  0  0  0  0  0
    1.7926    2.8064   -0.8573 C   0  0  0  0  0  0  0  0  0  0  0  0
    2.3259    0.3458   -0.5690 C   0  0  0  0  0  0  0  0  0  0  0  0
   -1.8412   -0.7997   -1.5407 C   0  0  0  0  0  0  0  0  0  0  0  0
   -3.7001   -0.4094    0.4978 C   0  0  0  0  0  0  0  0  0  0  0  0
    0.8825   -1.3597    0.3959 C   0  0  0  0  0  0  0  0  0  0  0  0
    3.4062   -0.5453   -0.3972 C   0  0  0  0  0  0  0  0  0  0  0  0
   -3.0560   -1.4836   -1.5650 C   0  0  0  0  0  0  0  0  0  0  0  0
   -3.9837   -1.2901   -0.5453 C   0  0  0  0  0  0  0  0  0  0  0  0
    1.9713   -2.2133    0.5669 C   0  0  0  0  0  0  0  0  0  0  0  0
    3.2328   -1.8118    0.1569 C   0  0  0  0  0  0  0  0  0  0  0  0
  1 19  1  0
  2  4  1  0
  2  5  1  0
  2  7  1  0
  3 11  1  0
  3 12  1  0
  4  6  1  0
  4  9  1  0
  5  8  1  0
  6 10  2  0
  6 13  1  0
  7 11  1  0
  8 10  1  0
  9 12  2  0
  9 15  1  0
 10 14  1  0
 12 16  1  0
 13 17  2  0
 14 18  2  0
 15 19  2  0
 16 20  2  0
 17 18  1  0
 19 20  1  0
M  END
>  <PUBCHEM_COMPOUND_CID>  (1) 
29379

>  <PUBCHEM_CONFORMER_RMSD>  (1) 
0.6

>  <PUBCHEM_CONFORMER_DIVERSEORDER>  (1) 
2
4
1
3

>  <PUBCHEM_MMFF94_PARTIAL_CHARGES>  (1) 
28
1 -0.18
10 -0.14
11 0.37
12 0.1
13 -0.15
14 -0.15
15 -0.15
16 -0.15
17 -0.15
18 -0.15
19 0.18
2 -0.81
20 -0.15
3 -0.87
30 0.4
31 0.15
32 0.15
33 0.15
34 0.15
35 0.15
36 0.15
37 0.15
4 0.56
5 0.27
6 -0.14
7 0.27
8 0.14
9 -0.14

>  <PUBCHEM_EFFECTIVE_ROTOR_COUNT>  (1) 
1

>  <PUBCHEM_PHARMACOPHORE_FEATURES>  (1) 
7
1 2 cation
1 3 cation
1 3 donor
6 2 4 5 6 8 10 rings
6 6 10 13 14 17 18 rings
6 9 12 15 16 19 20 rings
7 2 3 4 7 9 11 12 rings

>  <PUBCHEM_HEAVY_ATOM_COUNT>  (1) 
20

>  <PUBCHEM_ATOM_DEF_STEREO_COUNT>  (1) 
0

>  <PUBCHEM_ATOM_UDEF_STEREO_COUNT>  (1) 
1

>  <PUBCHEM_BOND_DEF_STEREO_COUNT>  (1) 
0

>  <PUBCHEM_BOND_UDEF_STEREO_COUNT>  (1) 
0

>  <PUBCHEM_ISOTOPIC_ATOM_COUNT>  (1) 
0

>  <PUBCHEM_COMPONENT_COUNT>  (1) 
1

>  <PUBCHEM_CACTVS_TAUTO_COUNT>  (1) 
1

>  <PUBCHEM_CONFORMER_ID>  (1) 
000072C300000002

>  <PUBCHEM_MMFF94_ENERGY>  (1) 
72.4595

>  <PUBCHEM_FEATURE_SELFOVERLAP>  (1) 
35.563

>  <PUBCHEM_SHAPE_FINGERPRINT>  (1) 
1100329 8 18265610060484212066
11321824 6 17762897667285864416
11578080 2 18127383740311534361
12553582 1 18263926527482263146
13004483 165 17903903470885496779
13140716 1 18192708071343267234
13538477 17 18131074788002559601
13583140 156 18116739368981032745
13911987 19 17822591472824960158
13965767 371 17482016444087136880
14787075 74 17986662886817626776
14817 1 15446554369192428969
15375462 189 18342462568880069243
16752209 62 17704073967594554917
16945 1 18334570286836415485
19777482 4 17762026892678689223
20291156 8 18340485552130788478
21330990 113 14592102486127267209
21452121 99 17110701922653512904
21634736 98 18342746259901525918
21731516 1 18342168930118100415
22112679 90 18130797728178382673
22445834 79 18339932514961529091
2255824 54 18336548330019745532
23388829 49 18339644447426407248
23419403 2 16162642219514264144
23598291 2 18269855145586567380
23728640 28 16532269166139100834
238 59 18115310114784655546
2748010 2 16251110814390573093
34934 24 18192717730635045048
352729 6 17546454835162136532
6992083 37 17982177716461971200
7097593 13 18196097642205675587
77492 1 18272662263386595565
81228 2 17617636783761871522
90525 40 18059584537922661703
9981440 41 16118794022032222704

>  <PUBCHEM_SHAPE_MULTIPOLES>  (1) 
403.5
5.84
3.5
1.45
2.35
0.4
0.15
3
-0.83
-2.72
0.92
0.73
-0.02
-1.94

>  <PUBCHEM_SHAPE_SELFOVERLAP>  (1) 
878.049

>  <PUBCHEM_SHAPE_VOLUME>  (1) 
217.7

>  <PUBCHEM_COORDINATE_TYPE>  (1) 
2
5
10

$$$$
