29382
     RDKit          3D

 12 12  0  0  0  0  0  0  0  0999 V2000
   -3.2632    2.2984    0.1103 Cl  0  0  0  0  0  0  0  0  0  0  0  0
    0.1435   -2.4828   -0.0600 O   0  0  0  0  0  0  0  0  0  0  0  0
    2.2419    0.3041    0.2246 C   0  0  0  0  0  0  0  0  0  0  0  0
    1.2747   -0.0048   -0.9203 C   0  0  0  0  0  0  0  0  0  0  0  0
    3.6727    0.4670   -0.2878 C   0  0  0  0  0  0  0  0  0  0  0  0
   -0.1454   -0.1324   -0.4313 C   0  0  0  0  0  0  0  0  0  0  0  0
   -0.6364   -1.3661   -0.0276 C   0  0  0  0  0  0  0  0  0  0  0  0
    4.6324    0.8142    0.8392 C   0  0  0  0  0  0  0  0  0  0  0  0
   -0.9438    1.0024   -0.3933 C   0  0  0  0  0  0  0  0  0  0  0  0
   -1.9523   -1.4673    0.4232 C   0  0  0  0  0  0  0  0  0  0  0  0
   -2.2599    0.9010    0.0575 C   0  0  0  0  0  0  0  0  0  0  0  0
   -2.7642   -0.3338    0.4656 C   0  0  0  0  0  0  0  0  0  0  0  0
  1 11  1  0
  2  7  1  0
  3  4  1  0
  3  5  1  0
  4  6  1  0
  5  8  1  0
  6  7  2  0
  6  9  1  0
  7 10  1  0
  9 11  2  0
 10 12  2  0
 11 12  1  0
M  END
>  <PUBCHEM_COMPOUND_CID>  (1) 
29382

>  <PUBCHEM_CONFORMER_RMSD>  (1) 
0.6

>  <PUBCHEM_CONFORMER_DIVERSEORDER>  (1) 
2
3
8
6
7
4
5
1

>  <PUBCHEM_MMFF94_PARTIAL_CHARGES>  (1) 
13
1 -0.18
10 -0.15
11 0.18
12 -0.15
2 -0.53
22 0.15
23 0.15
24 0.15
25 0.45
4 0.14
6 -0.14
7 0.08
9 -0.15

>  <PUBCHEM_EFFECTIVE_ROTOR_COUNT>  (1) 
3

>  <PUBCHEM_PHARMACOPHORE_FEATURES>  (1) 
3
1 2 donor
1 8 hydrophobe
6 6 7 9 10 11 12 rings

>  <PUBCHEM_HEAVY_ATOM_COUNT>  (1) 
12

>  <PUBCHEM_ATOM_DEF_STEREO_COUNT>  (1) 
0

>  <PUBCHEM_ATOM_UDEF_STEREO_COUNT>  (1) 
0

>  <PUBCHEM_BOND_DEF_STEREO_COUNT>  (1) 
0

>  <PUBCHEM_BOND_UDEF_STEREO_COUNT>  (1) 
0

>  <PUBCHEM_ISOTOPIC_ATOM_COUNT>  (1) 
0

>  <PUBCHEM_COMPONENT_COUNT>  (1) 
1

>  <PUBCHEM_CACTVS_TAUTO_COUNT>  (1) 
3

>  <PUBCHEM_CONFORMER_ID>  (1) 
000072C600000002

>  <PUBCHEM_MMFF94_ENERGY>  (1) 
20.4982

>  <PUBCHEM_FEATURE_SELFOVERLAP>  (1) 
15.223

>  <PUBCHEM_SHAPE_FINGERPRINT>  (1) 
10608611 8 18343584062124261216
11132069 177 18334298647356191013
122479 349 18343863316518555260
12251169 10 18259706717776407500
13024252 1 13335005119399357695
13380535 76 18335140839398915303
14325111 11 18410577262433089660
14897335 6 18337390418693448597
15219456 202 18201447943370021782
15775835 57 18334013861117846904
16945 1 18263382394165180815
18186145 218 17988096499503085404
19422 9 17676772062931569504
20510252 161 18343027708902808441
20645464 45 18202007659081063766
20645477 56 18413392050971264672
20645477 70 16630259039156638004
20871998 184 18198070372129643886
23402539 116 18341042034343432343
23403322 49 10737551809821506480
23500284 214 18271531905224903401
23559900 14 18270412598915260638
257057 1 17404577170006752535
2748010 2 18046367253116605023
305870 269 18336829671562559763
43471831 8 18260547818444557394
53812653 166 18341335492057358977
5706482 22 18408035208661072867
6333449 129 18411980286367079045
7364860 26 17981328889196057935
77492 1 17386015017480397380
90316 7 17676480631941768012

>  <PUBCHEM_SHAPE_MULTIPOLES>  (1) 
242.95
6.64
2.05
0.82
7.41
0.4
0.01
-3.8
-1.69
-1.8
-0.13
0.3
-0.05
0.34

>  <PUBCHEM_SHAPE_SELFOVERLAP>  (1) 
482.487

>  <PUBCHEM_SHAPE_VOLUME>  (1) 
145.9

>  <PUBCHEM_COORDINATE_TYPE>  (1) 
2
5
10

$$$$
