29388
     RDKit          3D

 20 20  0  0  0  0  0  0  0  0999 V2000
    1.5908   -2.3108    2.2887 I   0  0  0  0  0  0  0  0  0  0  0  0
   -0.4626    1.0479   -2.3868 I   0  0  0  0  0  0  0  0  0  0  0  0
    5.3215    1.2720   -0.9845 I   0  0  0  0  0  0  0  0  0  0  0  0
   -2.9866    2.2470    2.2043 O   0  0  0  0  0  0  0  0  0  0  0  0
   -3.4139   -2.7786   -0.3610 O   0  0  0  0  0  0  0  0  0  0  0  0
   -2.5044    2.7713    0.0468 O   0  0  0  0  0  0  0  0  0  0  0  0
   -3.1256   -1.2414   -2.0092 O   0  0  0  0  0  0  0  0  0  0  0  0
   -1.5246    0.0095    0.1032 N   0  0  0  0  0  0  0  0  0  0  0  0
    4.2952   -0.8429    1.2884 N   0  0  0  0  0  0  0  0  0  0  0  0
   -0.5193   -1.0517    0.1483 C   0  0  0  0  0  0  0  0  0  0  0  0
    0.8683   -0.5206   -0.0952 C   0  0  0  0  0  0  0  0  0  0  0  0
   -1.2483    1.0191    1.1247 C   0  0  0  0  0  0  0  0  0  0  0  0
   -2.8645   -0.5478    0.2844 C   0  0  0  0  0  0  0  0  0  0  0  0
    1.9271   -0.9311    0.7099 C   0  0  0  0  0  0  0  0  0  0  0  0
    1.0807    0.3833   -1.1324 C   0  0  0  0  0  0  0  0  0  0  0  0
    3.2090   -0.4332    0.4760 C   0  0  0  0  0  0  0  0  0  0  0  0
    2.3624    0.8810   -1.3662 C   0  0  0  0  0  0  0  0  0  0  0  0
    3.4266    0.4728   -0.5620 C   0  0  0  0  0  0  0  0  0  0  0  0
   -2.3030    2.0877    1.0425 C   0  0  0  0  0  0  0  0  0  0  0  0
   -3.1291   -1.5334   -0.8200 C   0  0  0  0  0  0  0  0  0  0  0  0
  1 14  1  0
  2 15  1  0
  3 18  1  0
  4 19  1  0
  5 20  1  0
  6 19  2  0
  7 20  2  0
  8 10  1  0
  8 12  1  0
  8 13  1  0
  9 16  1  0
 10 11  1  0
 11 14  2  0
 11 15  1  0
 12 19  1  0
 13 20  1  0
 14 16  1  0
 15 17  2  0
 16 18  2  0
 17 18  1  0
M  END
>  <PUBCHEM_COMPOUND_CID>  (1) 
29388

>  <PUBCHEM_CONFORMER_RMSD>  (1) 
0.8

>  <PUBCHEM_CONFORMER_DIVERSEORDER>  (1) 
1
12
14
4
18
6
7
10
15
13
11
17
3
8
5
16
9
2

>  <PUBCHEM_MMFF94_PARTIAL_CHARGES>  (1) 
25
1 -0.08
10 0.41
11 -0.14
12 0.33
13 0.33
14 0.08
15 0.08
16 0.1
17 -0.15
18 0.08
19 0.66
2 -0.08
20 0.66
27 0.15
28 0.4
29 0.4
3 -0.08
30 0.5
31 0.5
4 -0.65
5 -0.65
6 -0.57
7 -0.57
8 -0.81
9 -0.9

>  <PUBCHEM_EFFECTIVE_ROTOR_COUNT>  (1) 
6

>  <PUBCHEM_PHARMACOPHORE_FEATURES>  (1) 
13
1 1 hydrophobe
1 2 hydrophobe
1 3 hydrophobe
1 4 acceptor
1 5 acceptor
1 6 acceptor
1 7 acceptor
1 8 cation
1 9 cation
1 9 donor
3 4 6 19 anion
3 5 7 20 anion
6 11 14 15 16 17 18 rings

>  <PUBCHEM_HEAVY_ATOM_COUNT>  (1) 
20

>  <PUBCHEM_ATOM_DEF_STEREO_COUNT>  (1) 
0

>  <PUBCHEM_ATOM_UDEF_STEREO_COUNT>  (1) 
0

>  <PUBCHEM_BOND_DEF_STEREO_COUNT>  (1) 
0

>  <PUBCHEM_BOND_UDEF_STEREO_COUNT>  (1) 
0

>  <PUBCHEM_ISOTOPIC_ATOM_COUNT>  (1) 
0

>  <PUBCHEM_COMPONENT_COUNT>  (1) 
1

>  <PUBCHEM_CACTVS_TAUTO_COUNT>  (1) 
1

>  <PUBCHEM_CONFORMER_ID>  (1) 
000072CC00000001

>  <PUBCHEM_MMFF94_ENERGY>  (1) 
85.1815

>  <PUBCHEM_FEATURE_SELFOVERLAP>  (1) 
66.086

>  <PUBCHEM_SHAPE_FINGERPRINT>  (1) 
11578080 2 18047153519277968469
11640471 11 18266186028008494352
12186901 62 17346608469080134508
12236239 1 18335144214726394719
12553582 1 18057879333033254047
12596599 1 18334577906414873462
12788726 201 18343861117848318387
13032168 30 18115871969621864138
13140716 1 16953954347588250732
13296909 8 18341887450830650169
13583140 156 17059762335477016978
14289901 80 18131638889334159998
14787075 74 17690560110036378236
15209294 21 18334304162817106428
15309172 13 17458636639735332368
16945 1 18340498875277479294
19433438 48 18115015304261571154
200 152 18188482587869926423
20645477 70 16805593764349136642
20739085 24 17168722817040395076
21756936 100 17827114889289132628
23402539 116 18271813483222443262
23419403 2 17980161444144583165
23493267 7 17488753267809967248
23557571 272 17489322879078621745
23559900 14 17630621016181608878
23598288 3 18337681828151054731
23598291 2 18261955150615437426
2748010 2 17027390376650858538
3268164 11 18131633408681707332
3286 77 18339909498827830600
603831 33 18409442617867610054
6049 1 16200147707640686338
621550 5 16342866601616893819
633830 44 18187944837075043486
7615 1 18335137579297191648
77492 1 18334863813712956674
81228 2 18060142029368152163

>  <PUBCHEM_SHAPE_MULTIPOLES>  (1) 
413.96
7.97
2.89
2.09
5.77
1.48
-0.75
-1.48
0.25
0.91
-0.23
-3.34
-0.7
-2.09

>  <PUBCHEM_SHAPE_SELFOVERLAP>  (1) 
796.37

>  <PUBCHEM_SHAPE_VOLUME>  (1) 
260.4

>  <PUBCHEM_COORDINATE_TYPE>  (1) 
2
5
10

$$$$
