29398
     RDKit          3D

  8  7  0  0  0  0  0  0  0  0999 V2000
    1.1523    0.9846   -0.1846 O   0  0  0  0  0  0  0  0  0  0  0  0
    0.3641   -1.1393    0.5211 O   0  0  0  0  0  0  0  0  0  0  0  0
   -1.5146    1.0417    1.0413 O   0  0  0  0  0  0  0  0  0  0  0  0
    0.4937   -0.2290   -0.5744 C   0  0  0  0  0  0  0  0  0  0  0  0
   -0.8815    0.1466   -1.1333 C   0  0  0  0  0  0  0  0  0  0  0  0
   -1.8060    0.7937   -0.1235 C   0  0  0  0  0  0  0  0  0  0  0  0
    2.4739    0.7560    0.2864 C   0  0  0  0  0  0  0  0  0  0  0  0
   -0.2819   -2.3543    0.1670 C   0  0  0  0  0  0  0  0  0  0  0  0
  1  4  1  0
  1  7  1  0
  2  4  1  0
  2  8  1  0
  3  6  2  0
  4  5  1  0
  5  6  1  0
M  END
>  <PUBCHEM_COMPOUND_CID>  (1) 
29398

>  <PUBCHEM_CONFORMER_RMSD>  (1) 
0.6

>  <PUBCHEM_CONFORMER_DIVERSEORDER>  (1) 
1
11
12
7
5
4
10
8
14
13
9
3
2
6

>  <PUBCHEM_MMFF94_PARTIAL_CHARGES>  (1) 
9
1 -0.56
12 0.06
2 -0.56
3 -0.57
4 0.56
5 0.06
6 0.45
7 0.28
8 0.28

>  <PUBCHEM_EFFECTIVE_ROTOR_COUNT>  (1) 
4

>  <PUBCHEM_PHARMACOPHORE_FEATURES>  (1) 
3
1 1 acceptor
1 2 acceptor
1 3 acceptor

>  <PUBCHEM_HEAVY_ATOM_COUNT>  (1) 
8

>  <PUBCHEM_ATOM_DEF_STEREO_COUNT>  (1) 
0

>  <PUBCHEM_ATOM_UDEF_STEREO_COUNT>  (1) 
0

>  <PUBCHEM_BOND_DEF_STEREO_COUNT>  (1) 
0

>  <PUBCHEM_BOND_UDEF_STEREO_COUNT>  (1) 
0

>  <PUBCHEM_ISOTOPIC_ATOM_COUNT>  (1) 
0

>  <PUBCHEM_COMPONENT_COUNT>  (1) 
1

>  <PUBCHEM_CACTVS_TAUTO_COUNT>  (1) 
2

>  <PUBCHEM_CONFORMER_ID>  (1) 
000072D600000001

>  <PUBCHEM_MMFF94_ENERGY>  (1) 
15.4806

>  <PUBCHEM_FEATURE_SELFOVERLAP>  (1) 
15.263

>  <PUBCHEM_SHAPE_FINGERPRINT>  (1) 
20096714 4 18059296461259619429
20653085 51 16844746299408697752
21040471 1 18408608075778337796
23552449 1 17909827974548638400
23552449 11 17755014199216618275
24536 1 17057797404865661365
29004967 10 17541664906886048515
5084963 1 18342166782719010988
5943 1 14827411039397218799

>  <PUBCHEM_SHAPE_MULTIPOLES>  (1) 
147.03
2.43
1.87
0.96
1.31
1.5
0.05
-1.28
-0.29
-0.42
-0.34
-0.28
-0.14
-0.11

>  <PUBCHEM_SHAPE_SELFOVERLAP>  (1) 
265.29

>  <PUBCHEM_SHAPE_VOLUME>  (1) 
94.2

>  <PUBCHEM_COORDINATE_TYPE>  (1) 
2
5
10

$$$$
