29392
     RDKit          3D

 19 22  0  0  0  0  0  0  0  0999 V2000
    0.9169   -1.6741   -0.4830 O   0  0  0  0  0  0  0  0  0  0  0  0
    0.3300    0.4887    0.1121 N   0  0  0  0  0  0  0  0  0  0  0  0
   -1.1022    0.2897    0.0735 C   0  0  0  0  0  0  0  0  0  0  0  0
   -3.3575    1.3920    0.4011 C   0  0  0  0  0  0  0  0  0  0  0  0
   -3.0656   -0.3612   -1.3862 C   0  0  0  0  0  0  0  0  0  0  0  0
   -3.0342   -1.0237    1.0462 C   0  0  0  0  0  0  0  0  0  0  0  0
   -1.8337    1.6006    0.4383 C   0  0  0  0  0  0  0  0  0  0  0  0
   -1.5430   -0.1456   -1.3417 C   0  0  0  0  0  0  0  0  0  0  0  0
   -1.5117   -0.8060    1.0814 C   0  0  0  0  0  0  0  0  0  0  0  0
   -3.7732    0.9523   -1.0129 C   0  0  0  0  0  0  0  0  0  0  0  0
   -3.7420    0.2935    1.4067 C   0  0  0  0  0  0  0  0  0  0  0  0
   -3.4514   -1.4508   -0.3713 C   0  0  0  0  0  0  0  0  0  0  0  0
    1.2276   -0.5267   -0.1741 C   0  0  0  0  0  0  0  0  0  0  0  0
    2.6653   -0.1688   -0.0643 C   0  0  0  0  0  0  0  0  0  0  0  0
    3.5797   -1.1603    0.2251 C   0  0  0  0  0  0  0  0  0  0  0  0
    3.0404    1.1447   -0.2571 C   0  0  0  0  0  0  0  0  0  0  0  0
    4.9294   -0.8234    0.3262 C   0  0  0  0  0  0  0  0  0  0  0  0
    4.3902    1.4815   -0.1559 C   0  0  0  0  0  0  0  0  0  0  0  0
    5.3348    0.4975    0.1357 C   0  0  0  0  0  0  0  0  0  0  0  0
  1 13  2  0
  2  3  1  0
  2 13  1  0
  3  7  1  0
  3  8  1  0
  3  9  1  0
  4  7  1  0
  4 10  1  0
  4 11  1  0
  5  8  1  0
  5 10  1  0
  5 12  1  0
  6  9  1  0
  6 11  1  0
  6 12  1  0
 13 14  1  0
 14 15  2  0
 14 16  1  0
 15 17  1  0
 16 18  2  0
 17 19  2  0
 18 19  1  0
M  END
>  <PUBCHEM_COMPOUND_CID>  (1) 
29392

>  <PUBCHEM_CONFORMER_RMSD>  (1) 
0.6

>  <PUBCHEM_CONFORMER_DIVERSEORDER>  (1) 
1

>  <PUBCHEM_MMFF94_PARTIAL_CHARGES>  (1) 
16
1 -0.57
13 0.54
14 0.09
15 -0.15
16 -0.15
17 -0.15
18 -0.15
19 -0.15
2 -0.73
3 0.3
35 0.37
36 0.15
37 0.15
38 0.15
39 0.15
40 0.15

>  <PUBCHEM_EFFECTIVE_ROTOR_COUNT>  (1) 
4.2

>  <PUBCHEM_PHARMACOPHORE_FEATURES>  (1) 
7
1 1 acceptor
1 2 donor
6 14 15 16 17 18 19 rings
6 3 4 5 7 8 10 rings
6 3 4 6 7 9 11 rings
6 3 5 6 8 9 12 rings
6 4 5 6 10 11 12 rings

>  <PUBCHEM_HEAVY_ATOM_COUNT>  (1) 
19

>  <PUBCHEM_ATOM_DEF_STEREO_COUNT>  (1) 
0

>  <PUBCHEM_ATOM_UDEF_STEREO_COUNT>  (1) 
0

>  <PUBCHEM_BOND_DEF_STEREO_COUNT>  (1) 
0

>  <PUBCHEM_BOND_UDEF_STEREO_COUNT>  (1) 
0

>  <PUBCHEM_ISOTOPIC_ATOM_COUNT>  (1) 
0

>  <PUBCHEM_COMPONENT_COUNT>  (1) 
1

>  <PUBCHEM_CACTVS_TAUTO_COUNT>  (1) 
2

>  <PUBCHEM_CONFORMER_ID>  (1) 
000072D000000001

>  <PUBCHEM_MMFF94_ENERGY>  (1) 
54.4808

>  <PUBCHEM_FEATURE_SELFOVERLAP>  (1) 
48.054

>  <PUBCHEM_SHAPE_FINGERPRINT>  (1) 
10014705 185 18186796963788525565
11315181 36 18261108591239241328
11370993 144 18041278742814023774
11615757 297 17704075122576715376
12107183 9 17689997839099039016
12236239 1 17846778507309478551
12403814 3 18343866597984228865
12507557 5 18187081775997191964
128620 24 17346599690235384172
13024252 1 10881403136865797273
13167823 11 18412542111466635430
13214271 11 18411141333568186453
13224815 77 18272091603998402948
13288520 33 7997967977298311449
13583140 156 17313094285218658722
13675066 3 16805327677960354258
14004511 7 17095241406155689038
14289901 80 18413387631360090570
15196674 1 18410575093764826880
15375358 24 18334857186430842846
15788980 27 18411418401982258938
16945 1 15554153772015703365
17349148 13 18334011701018133762
17844677 252 18187369826727075596
18186145 218 17894631435589341306
19050596 39 18341897381079758288
19489759 90 15647044980278608092
200 152 18341324561259861791
20325693 3 15267068055523435761
20645477 56 17385719150205590317
20645477 70 18410569544772978502
21033648 29 17385991880370806852
22094290 60 13686300179373893507
22646028 1 18201998828876170928
22854114 59 18186519912849383332
2306618 200 17313383414085670733
23402539 116 18333445439265164612
23557571 272 16877948204766553151
23559900 14 17968090894431902186
26918003 58 18259702289944550944
296302 2 18335421261596974574
3268164 11 15123506982442413561
3545911 37 18334017181301561784
4214541 1 18334295357637894112
474 4 18407760343955580796
4921388 177 16950568808897968387
5104073 3 18408040715157267824
542803 24 17418377999967318752
633830 44 18342464712095149974
77779 3 18408606959324152608
9709674 26 18408892823647274186

>  <PUBCHEM_SHAPE_MULTIPOLES>  (1) 
380.16
10.5
1.57
1.15
11.1
0.09
-0.06
0.97
0.57
-0.06
0.05
-1.37
-0.07
-0.14

>  <PUBCHEM_SHAPE_SELFOVERLAP>  (1) 
839.079

>  <PUBCHEM_SHAPE_VOLUME>  (1) 
197.4

>  <PUBCHEM_COORDINATE_TYPE>  (1) 
2
5
10

$$$$
