29397
     RDKit          3D

  7  6  0  0  0  0  0  0  0  0999 V2000
    1.2275   -0.4005   -0.2068 O   0  0  0  0  0  0  0  0  0  0  0  0
   -3.4945   -0.1203    0.1973 O   0  0  0  0  0  0  0  0  0  0  0  0
    2.2470    0.5315    0.1141 C   0  0  0  0  0  0  0  0  0  0  0  0
    3.5764   -0.1908    0.1667 C   0  0  0  0  0  0  0  0  0  0  0  0
    0.0003    0.2051   -0.2531 C   0  0  0  0  0  0  0  0  0  0  0  0
   -1.1533   -0.4006    0.0376 C   0  0  0  0  0  0  0  0  0  0  0  0
   -2.4033    0.3756   -0.0558 C   0  0  0  0  0  0  0  0  0  0  0  0
  1  3  1  0
  1  5  1  0
  2  7  2  0
  3  4  1  0
  5  6  2  0
  6  7  1  0
M  END
>  <PUBCHEM_COMPOUND_CID>  (1) 
29397

>  <PUBCHEM_CONFORMER_RMSD>  (1) 
0.4

>  <PUBCHEM_CONFORMER_DIVERSEORDER>  (1) 
1
6
7
5
4
3
2

>  <PUBCHEM_MMFF94_PARTIAL_CHARGES>  (1) 
9
1 -0.36
13 0.15
14 0.15
15 0.06
2 -0.57
3 0.28
5 -0.07
6 -0.14
7 0.5

>  <PUBCHEM_EFFECTIVE_ROTOR_COUNT>  (1) 
3

>  <PUBCHEM_PHARMACOPHORE_FEATURES>  (1) 
2
1 1 acceptor
1 2 acceptor

>  <PUBCHEM_HEAVY_ATOM_COUNT>  (1) 
7

>  <PUBCHEM_ATOM_DEF_STEREO_COUNT>  (1) 
0

>  <PUBCHEM_ATOM_UDEF_STEREO_COUNT>  (1) 
0

>  <PUBCHEM_BOND_DEF_STEREO_COUNT>  (1) 
0

>  <PUBCHEM_BOND_UDEF_STEREO_COUNT>  (1) 
1

>  <PUBCHEM_ISOTOPIC_ATOM_COUNT>  (1) 
0

>  <PUBCHEM_COMPONENT_COUNT>  (1) 
1

>  <PUBCHEM_CACTVS_TAUTO_COUNT>  (1) 
1

>  <PUBCHEM_CONFORMER_ID>  (1) 
000072D500000001

>  <PUBCHEM_MMFF94_ENERGY>  (1) 
9.1863

>  <PUBCHEM_FEATURE_SELFOVERLAP>  (1) 
10.149

>  <PUBCHEM_SHAPE_FINGERPRINT>  (1) 
11062470 55 18410855464423200568
12932764 1 16370994248159658758
14325111 11 18410855468723397134
14390081 3 17418092117868963265
5460574 1 9079116656909679797

>  <PUBCHEM_SHAPE_MULTIPOLES>  (1) 
132.32
5.98
0.71
0.61
0.43
0.03
0
-0.07
0.6
0.07
0
0.03
0.01
0.04

>  <PUBCHEM_SHAPE_SELFOVERLAP>  (1) 
237.878

>  <PUBCHEM_SHAPE_VOLUME>  (1) 
85.4

>  <PUBCHEM_COORDINATE_TYPE>  (1) 
2
5
10

$$$$
