2940
     RDKit          3D

 14 16  0  0  1  0  0  0  0  0999 V2000
   -2.9168    2.0658   -0.0238 S   0  0  0  0  0  0  0  0  0  0  0  0
   -3.9999   -0.7011   -0.6791 S   0  0  0  0  0  0  0  0  0  0  0  0
   -1.9261   -0.1804    0.7615 O   0  0  0  0  0  0  0  0  0  0  0  0
    1.8751   -0.1768    0.9723 C   0  0  0  0  0  0  0  0  0  0  0  0
    2.1483   -0.6979   -0.4552 C   0  0  0  0  0  0  0  0  0  0  0  0
    0.4182   -0.6267    1.2277 C   0  0  0  0  0  0  0  0  0  0  0  0
    0.8142   -1.3847   -0.8325 C   0  0  0  0  0  0  0  0  0  0  0  0
    0.4189   -1.9919    0.5192 C   0  0  0  0  0  0  0  0  0  0  0  0
   -0.5977    0.1502    0.3696 C   0  0  0  0  0  0  0  0  0  0  0  0
   -0.3370   -0.3849   -1.0478 C   0  0  0  0  0  0  0  0  0  0  0  0
    2.1937    1.3138    0.9610 C   0  0  0  0  0  0  0  0  0  0  0  0
    2.6203    0.4969   -1.2752 C   0  0  0  0  0  0  0  0  0  0  0  0
    2.1899    1.7380   -0.5029 C   0  0  0  0  0  0  0  0  0  0  0  0
   -2.9012    0.3797    0.0052 C   0  0  0  0  0  0  0  0  0  0  0  0
  1 14  1  0
  2 14  2  0
  3  9  1  0
  3 14  1  0
  4  5  1  0
  4  6  1  0
  4 11  1  0
  5  7  1  0
  5 12  1  0
  6  8  1  0
  6  9  1  0
  7  8  1  0
  7 10  1  0
  9 10  1  0
 11 13  1  0
 12 13  1  0
M  CHG  1   1  -1
M  END
>  <PUBCHEM_COMPOUND_CID>  (1) 
2940

>  <PUBCHEM_CONFORMER_RMSD>  (1) 
0.6

>  <PUBCHEM_CONFORMER_DIVERSEORDER>  (1) 
1
2
12
5
3
7
8
11
10
9
4
6

>  <PUBCHEM_MMFF94_PARTIAL_CHARGES>  (1) 
5
1 -0.75
14 0.79
2 -0.75
3 -0.57
9 0.28

>  <PUBCHEM_EFFECTIVE_ROTOR_COUNT>  (1) 
3.2

>  <PUBCHEM_PHARMACOPHORE_FEATURES>  (1) 
4
1 2 acceptor
3 1 2 14 anion
5 4 5 11 12 13 rings
7 4 5 6 7 8 9 10 rings

>  <PUBCHEM_HEAVY_ATOM_COUNT>  (1) 
14

>  <PUBCHEM_ATOM_DEF_STEREO_COUNT>  (1) 
0

>  <PUBCHEM_ATOM_UDEF_STEREO_COUNT>  (1) 
5

>  <PUBCHEM_BOND_DEF_STEREO_COUNT>  (1) 
0

>  <PUBCHEM_BOND_UDEF_STEREO_COUNT>  (1) 
0

>  <PUBCHEM_ISOTOPIC_ATOM_COUNT>  (1) 
0

>  <PUBCHEM_COMPONENT_COUNT>  (1) 
1

>  <PUBCHEM_CACTVS_TAUTO_COUNT>  (1) 
1

>  <PUBCHEM_CONFORMER_ID>  (1) 
00000B7C00000001

>  <PUBCHEM_MMFF94_ENERGY>  (1) 
62.301

>  <PUBCHEM_FEATURE_SELFOVERLAP>  (1) 
20.49

>  <PUBCHEM_SHAPE_FINGERPRINT>  (1) 
11769659 78 10159692465499485661
12162725 195 18333728001148318825
12382932 28 10809344468252868565
12423570 1 8862374237847680106
12491281 212 18113913666329447737
12932764 1 18270966743774274419
13705890 14 16558753416407682932
13839132 238 18114759177891619395
14144814 61 8646766712205847421
15375462 6 18342174471031944911
15775835 57 18272088326701291037
15852999 172 16660358195341326571
16945 1 18337117859662740498
18186145 218 17703799114861270201
20361792 2 13614522939595218009
21028194 46 18343020020900649464
21501502 16 18336544894140951377
21524375 3 18340482395530136640
21947302 44 18410860988020233628
230 275 17967817136804546969
23419403 2 10712921525340708114
23557571 272 17917137334845805017
25 1 18340786857124232144
2748010 2 17477766148671765185
305870 269 18336818724023062922
3286 77 18409439280746326662
5084963 1 18202008715484750002
6333272 397 18187928455695119657
7364860 26 18266736870523019379
7832392 63 18194966236457013309
81228 2 17621043496029208394

>  <PUBCHEM_SHAPE_MULTIPOLES>  (1) 
289.94
5.32
1.88
1.23
5.06
0.41
0.02
1.45
0.98
0.08
0
-0.54
-0.07
-0.2

>  <PUBCHEM_SHAPE_SELFOVERLAP>  (1) 
603.653

>  <PUBCHEM_SHAPE_VOLUME>  (1) 
170

>  <PUBCHEM_COORDINATE_TYPE>  (1) 
2
5
10

$$$$
