29408
     RDKit          3D

 15 17  0  0  1  0  0  0  0  0999 V2000
    0.0158   -0.2017   -0.5540 C   0  0  0  0  0  0  0  0  0  0  0  0
    1.0140    1.0218   -0.5251 C   0  0  0  0  0  0  0  0  0  0  0  0
   -0.8369   -0.0195    0.7445 C   0  0  0  0  0  0  0  0  0  0  0  0
    1.3773    0.9799    0.9798 C   0  0  0  0  0  0  0  0  0  0  0  0
    0.8233   -1.5464   -0.4301 C   0  0  0  0  0  0  0  0  0  0  0  0
   -0.0070    0.8822    1.6655 C   0  0  0  0  0  0  0  0  0  0  0  0
   -1.0030   -0.1838   -1.7114 C   0  0  0  0  0  0  0  0  0  0  0  0
   -2.2022    0.4888    0.2764 C   0  0  0  0  0  0  0  0  0  0  0  0
    2.2506   -0.2441    1.3158 C   0  0  0  0  0  0  0  0  0  0  0  0
   -2.3804   -0.2559   -1.0480 C   0  0  0  0  0  0  0  0  0  0  0  0
    1.6508   -1.5872    0.8803 C   0  0  0  0  0  0  0  0  0  0  0  0
    2.2233    0.8829   -1.4740 C   0  0  0  0  0  0  0  0  0  0  0  0
    0.4113    2.4112   -0.8665 C   0  0  0  0  0  0  0  0  0  0  0  0
   -0.0181   -2.8311   -0.5223 C   0  0  0  0  0  0  0  0  0  0  0  0
   -3.3188    0.2028    1.2693 C   0  0  0  0  0  0  0  0  0  0  0  0
  1  2  1  0
  1  3  1  0
  1  5  1  0
  1  7  1  0
  2  4  1  0
  2 12  1  0
  2 13  1  0
  3  6  1  0
  3  8  1  0
  4  6  1  0
  4  9  1  0
  5 11  1  0
  5 14  1  0
  7 10  1  0
  8 10  1  0
  8 15  1  0
  9 11  1  0
M  END
>  <PUBCHEM_COMPOUND_CID>  (1) 
29408

>  <PUBCHEM_CONFORMER_RMSD>  (1) 
0.6

>  <PUBCHEM_CONFORMER_DIVERSEORDER>  (1) 
1
4
3
5
2

>  <PUBCHEM_MMFF94_PARTIAL_CHARGES>  (1) 
0

>  <PUBCHEM_EFFECTIVE_ROTOR_COUNT>  (1) 
1.6

>  <PUBCHEM_PHARMACOPHORE_FEATURES>  (1) 
3
3 2 12 13 hydrophobe
5 1 3 7 8 10 rings
8 1 2 3 4 5 6 9 11 rings

>  <PUBCHEM_HEAVY_ATOM_COUNT>  (1) 
15

>  <PUBCHEM_ATOM_DEF_STEREO_COUNT>  (1) 
0

>  <PUBCHEM_ATOM_UDEF_STEREO_COUNT>  (1) 
5

>  <PUBCHEM_BOND_DEF_STEREO_COUNT>  (1) 
0

>  <PUBCHEM_BOND_UDEF_STEREO_COUNT>  (1) 
0

>  <PUBCHEM_ISOTOPIC_ATOM_COUNT>  (1) 
0

>  <PUBCHEM_COMPONENT_COUNT>  (1) 
1

>  <PUBCHEM_CACTVS_TAUTO_COUNT>  (1) 
1

>  <PUBCHEM_CONFORMER_ID>  (1) 
000072E000000001

>  <PUBCHEM_MMFF94_ENERGY>  (1) 
70.4643

>  <PUBCHEM_FEATURE_SELFOVERLAP>  (1) 
15.278

>  <PUBCHEM_SHAPE_FINGERPRINT>  (1) 
10702982 57 18047211909531716300
10863032 1 18046093650271485934
10948715 1 17679609953481677516
12326174 3 18041577861474155890
12423570 1 13567233382465708670
13024252 1 13491986646404063744
13839132 238 15554439700098027073
13898156 1 17684350029850216988
141345 1 17320749175170194164
144361 1 17626700148219650145
14817 1 9217372328367334007
15557651 10 17461176596951873116
15775835 57 17846775221986700841
16945 1 17987791895884749793
20511035 2 17242700239119888829
23419403 2 15895524472133476963
2748010 2 17621291573682824082
276578 36 18130804355623949147
430814 3 18194137432048286013
5084963 1 18119219956774319439
528886 8 18338255832749077980
54276843 12 17773062828288557581
68419 9 17684637015269974918
81228 2 16748481045292407973

>  <PUBCHEM_SHAPE_MULTIPOLES>  (1) 
308.69
3.27
2.14
1.71
2.08
0.86
0.03
-0.27
0.72
-0.78
-0.5
-0.03
-0.28
-0.51

>  <PUBCHEM_SHAPE_SELFOVERLAP>  (1) 
651.666

>  <PUBCHEM_SHAPE_VOLUME>  (1) 
172.8

>  <PUBCHEM_COORDINATE_TYPE>  (1) 
2
5
10

$$$$
