29419
     RDKit          3D

 26 26  0  0  1  0  0  0  0  0999 V2000
    1.4187    3.0684   -0.5672 I   0  0  0  0  0  0  0  0  0  0  0  0
   -3.0355   -1.0359   -0.6922 I   0  0  0  0  0  0  0  0  0  0  0  0
    2.7654   -2.8772   -0.1442 I   0  0  0  0  0  0  0  0  0  0  0  0
   -1.4704    1.7374   -0.7194 O   0  0  0  0  0  0  0  0  0  0  0  0
   -3.9157    1.8390    1.8013 O   0  0  0  0  0  0  0  0  0  0  0  0
   -0.5749   -3.6664   -1.4360 O   0  0  0  0  0  0  0  0  0  0  0  0
    3.8619    0.4218   -1.3123 O   0  0  0  0  0  0  0  0  0  0  0  0
   -4.2316    1.9758   -0.4471 O   0  0  0  0  0  0  0  0  0  0  0  0
   -0.7322   -3.5534    0.8747 N   0  0  0  0  0  0  0  0  0  0  0  0
    3.6822    0.5697    0.9948 N   0  0  0  0  0  0  0  0  0  0  0  0
   -2.0003    2.2760    0.4815 C   0  0  0  0  0  0  0  0  0  0  0  0
   -1.6639    3.7663    0.5582 C   0  0  0  0  0  0  0  0  0  0  0  0
   -0.5467    0.7312   -0.5937 C   0  0  0  0  0  0  0  0  0  0  0  0
   -0.0260   -1.6221   -0.4269 C   0  0  0  0  0  0  0  0  0  0  0  0
    1.7504    0.0146   -0.3774 C   0  0  0  0  0  0  0  0  0  0  0  0
    0.8111    1.0379   -0.5050 C   0  0  0  0  0  0  0  0  0  0  0  0
   -0.9652   -0.5989   -0.5547 C   0  0  0  0  0  0  0  0  0  0  0  0
    1.3318   -1.3154   -0.3383 C   0  0  0  0  0  0  0  0  0  0  0  0
   -2.2563    4.5894   -0.5803 C   0  0  0  0  0  0  0  0  0  0  0  0
   -0.4692   -3.0166   -0.3863 C   0  0  0  0  0  0  0  0  0  0  0  0
    3.1742    0.3406   -0.2847 C   0  0  0  0  0  0  0  0  0  0  0  0
   -3.4898    2.0089    0.5242 C   0  0  0  0  0  0  0  0  0  0  0  0
   -1.1540   -4.9203    1.0809 C   0  0  0  0  0  0  0  0  0  0  0  0
    5.0602    0.9242    1.2478 C   0  0  0  0  0  0  0  0  0  0  0  0
   -2.6343   -5.0912    0.8090 C   0  0  0  0  0  0  0  0  0  0  0  0
    5.3101    2.3964    0.9933 C   0  0  0  0  0  0  0  0  0  0  0  0
  1 16  1  0
  2 17  1  0
  3 18  1  0
  4 11  1  0
  4 13  1  0
  5 22  1  0
  6 20  2  0
  7 21  2  0
  8 22  2  0
  9 20  1  0
  9 23  1  0
 10 21  1  0
 10 24  1  0
 11 12  1  0
 11 22  1  0
 12 19  1  0
 13 16  2  0
 13 17  1  0
 14 17  2  0
 14 18  1  0
 14 20  1  0
 15 16  1  0
 15 18  2  0
 15 21  1  0
 23 25  1  0
 24 26  1  0
M  END
>  <PUBCHEM_COMPOUND_CID>  (1) 
29419

>  <PUBCHEM_CONFORMER_RMSD>  (1) 
1

>  <PUBCHEM_CONFORMER_DIVERSEORDER>  (1) 
1
2
10
17
14
11
15
19
8
20
12
9
5
4
7
18
16
6
13
3

>  <PUBCHEM_MMFF94_PARTIAL_CHARGES>  (1) 
25
1 -0.08
10 -0.73
11 0.34
13 0.08
14 0.09
15 0.09
16 0.08
17 0.08
18 0.08
2 -0.08
20 0.54
21 0.54
22 0.66
23 0.3
24 0.3
3 -0.08
33 0.37
34 0.37
4 -0.36
45 0.5
5 -0.65
6 -0.57
7 -0.57
8 -0.57
9 -0.73

>  <PUBCHEM_EFFECTIVE_ROTOR_COUNT>  (1) 
10

>  <PUBCHEM_PHARMACOPHORE_FEATURES>  (1) 
13
1 1 hydrophobe
1 10 donor
1 19 hydrophobe
1 2 hydrophobe
1 3 hydrophobe
1 4 acceptor
1 5 acceptor
1 6 acceptor
1 7 acceptor
1 8 acceptor
1 9 donor
3 5 8 22 anion
6 13 14 15 16 17 18 rings

>  <PUBCHEM_HEAVY_ATOM_COUNT>  (1) 
26

>  <PUBCHEM_ATOM_DEF_STEREO_COUNT>  (1) 
0

>  <PUBCHEM_ATOM_UDEF_STEREO_COUNT>  (1) 
1

>  <PUBCHEM_BOND_DEF_STEREO_COUNT>  (1) 
0

>  <PUBCHEM_BOND_UDEF_STEREO_COUNT>  (1) 
0

>  <PUBCHEM_ISOTOPIC_ATOM_COUNT>  (1) 
0

>  <PUBCHEM_COMPONENT_COUNT>  (1) 
1

>  <PUBCHEM_CACTVS_TAUTO_COUNT>  (1) 
3

>  <PUBCHEM_CONFORMER_ID>  (1) 
000072EB00000001

>  <PUBCHEM_MMFF94_ENERGY>  (1) 
87.7212

>  <PUBCHEM_FEATURE_SELFOVERLAP>  (1) 
66.034

>  <PUBCHEM_SHAPE_FINGERPRINT>  (1) 
10074138 170 18194088980928194680
10411042 1 17761774366261919694
1100329 8 18121212345148450407
12293681 160 18052220086375467143
12788726 201 17830464130487661654
13140716 1 18049156975687271454
13583140 156 17691127033214713829
13955234 65 17763184635768710537
140371 6 18337951323825770886
14178342 30 18337388361625913106
14787075 74 17917698111229886944
14790565 3 17975991868877368654
14863182 85 18118991116732812261
14955137 171 17619911656636256234
15042514 8 18264486368010997038
15475509 84 17903924705488917771
16945 1 18338238279449854446
19591789 44 18122352267743609214
20739085 24 18046644303908041044
21041028 32 17833270100898620382
21344244 78 17406559580818492594
2334 1 18338514145114900054
23558518 356 18339071597489551134
23559900 14 17330828024917003121
23845131 108 18410576141731468827
2748010 2 18337956658423124374
283562 15 18339909464278454437
3091708 16 9125974535266002286
3380486 145 17046524519920021502
350125 39 18267868276946830470
352729 6 18194682789794596830
469060 322 18339372975744910849
5104073 3 18123477072866997073
58807428 26 18338796702191052624
7808743 9 18340764953451165840
79837 15 18410858754368182155
81228 2 18338508763499707526
9981440 41 18263359201210115561

>  <PUBCHEM_SHAPE_MULTIPOLES>  (1) 
531.57
7.63
7.31
1.22
8.15
2.29
0.17
-2.76
2.87
-7.49
1.16
-0.02
-0.1
0.14

>  <PUBCHEM_SHAPE_SELFOVERLAP>  (1) 
1031.02

>  <PUBCHEM_SHAPE_VOLUME>  (1) 
330.4

>  <PUBCHEM_COORDINATE_TYPE>  (1) 
2
5
10

$$$$
