29423
     RDKit          3D

 15 15  0  0  0  0  0  0  0  0999 V2000
    0.3060   -3.4555    0.4485 I   0  0  0  0  0  0  0  0  0  0  0  0
   -4.6415   -0.1943   -0.4232 I   0  0  0  0  0  0  0  0  0  0  0  0
   -0.2973    3.0832   -0.4941 O   0  0  0  0  0  0  0  0  0  0  0  0
    2.3804   -0.4939   -1.6617 O   0  0  0  0  0  0  0  0  0  0  0  0
    1.2911    2.2902    0.9253 O   0  0  0  0  0  0  0  0  0  0  0  0
    1.5485   -0.4122    0.5420 N   0  0  0  0  0  0  0  0  0  0  0  0
    0.1643   -0.3827    0.3275 C   0  0  0  0  0  0  0  0  0  0  0  0
   -0.4723    0.8506    0.1895 C   0  0  0  0  0  0  0  0  0  0  0  0
   -0.5761   -1.5625    0.2506 C   0  0  0  0  0  0  0  0  0  0  0  0
   -1.8494    0.9043   -0.0256 C   0  0  0  0  0  0  0  0  0  0  0  0
   -1.9533   -1.5088    0.0356 C   0  0  0  0  0  0  0  0  0  0  0  0
   -2.5899   -0.2753   -0.1026 C   0  0  0  0  0  0  0  0  0  0  0  0
    2.5217   -0.4651   -0.4437 C   0  0  0  0  0  0  0  0  0  0  0  0
    0.2675    2.1051    0.2632 C   0  0  0  0  0  0  0  0  0  0  0  0
    3.9004   -0.4831    0.1688 C   0  0  0  0  0  0  0  0  0  0  0  0
  1  9  1  0
  2 12  1  0
  3 14  1  0
  4 13  2  0
  5 14  2  0
  6  7  1  0
  6 13  1  0
  7  8  2  0
  7  9  1  0
  8 10  1  0
  8 14  1  0
  9 11  2  0
 10 12  2  0
 11 12  1  0
 13 15  1  0
M  END
>  <PUBCHEM_COMPOUND_CID>  (1) 
29423

>  <PUBCHEM_CONFORMER_RMSD>  (1) 
0.6

>  <PUBCHEM_CONFORMER_DIVERSEORDER>  (1) 
1
2

>  <PUBCHEM_MMFF94_PARTIAL_CHARGES>  (1) 
19
1 -0.08
10 -0.15
11 -0.15
12 0.08
13 0.57
14 0.63
15 0.06
16 0.15
17 0.37
18 0.15
2 -0.08
22 0.5
3 -0.65
4 -0.57
5 -0.57
6 -0.55
7 0.12
8 0.09
9 0.08

>  <PUBCHEM_EFFECTIVE_ROTOR_COUNT>  (1) 
3

>  <PUBCHEM_PHARMACOPHORE_FEATURES>  (1) 
8
1 1 hydrophobe
1 2 hydrophobe
1 3 acceptor
1 4 acceptor
1 5 acceptor
1 6 donor
3 3 5 14 anion
6 7 8 9 10 11 12 rings

>  <PUBCHEM_HEAVY_ATOM_COUNT>  (1) 
15

>  <PUBCHEM_ATOM_DEF_STEREO_COUNT>  (1) 
0

>  <PUBCHEM_ATOM_UDEF_STEREO_COUNT>  (1) 
0

>  <PUBCHEM_BOND_DEF_STEREO_COUNT>  (1) 
0

>  <PUBCHEM_BOND_UDEF_STEREO_COUNT>  (1) 
0

>  <PUBCHEM_ISOTOPIC_ATOM_COUNT>  (1) 
0

>  <PUBCHEM_COMPONENT_COUNT>  (1) 
1

>  <PUBCHEM_CACTVS_TAUTO_COUNT>  (1) 
3

>  <PUBCHEM_CONFORMER_ID>  (1) 
000072EF00000001

>  <PUBCHEM_MMFF94_ENERGY>  (1) 
62.5941

>  <PUBCHEM_FEATURE_SELFOVERLAP>  (1) 
40.652

>  <PUBCHEM_SHAPE_FINGERPRINT>  (1) 
10967382 1 18410289198934712739
11680986 33 18195244657474034747
13140716 1 18267307706611208083
13380535 76 17836352014927049235
13380536 305 18337951298456854339
14115302 16 18113624507809517926
14614273 12 18045782290886150996
14648413 74 18050005794316063513
14790565 3 18337965518972966665
14911166 2 18410289220762775783
1601671 61 18338516318858935789
16945 1 18411131425184292139
18186145 218 18337659919638902719
193761 8 17761493986069002035
20233049 118 18187357718929002685
20344682 1 17846778499146903086
20510252 161 18269273474361112072
20511035 2 17840586221083400822
20588541 1 18334577915189274827
20645476 183 17750248048043959614
20645477 70 18200865288697542327
20905425 154 18052819143813490655
21029758 11 18343298180278944465
21501502 16 17979916334571162119
2334 1 18050003599946659651
23402539 116 18342728624760884518
23419403 2 16041600454524446435
23557571 272 18130230355015139132
23558518 356 17684655328884210667
23559900 14 18412266160392698518
2748010 2 18120090839067011155
3060560 45 18340473535244941151
3250762 1 17760653963348492650
353137 74 18193561073101354574
43471831 8 18191021205774127594
53812653 11 18410571829468453679
589210 1 17762060243084022075
7364860 26 18057603380988619729
81228 2 18197799729371371736

>  <PUBCHEM_SHAPE_MULTIPOLES>  (1) 
309.98
5.72
3.32
0.91
3.15
0.64
-0.2
0.53
-1.26
-0.79
0.58
-0.36
0.02
0.15

>  <PUBCHEM_SHAPE_SELFOVERLAP>  (1) 
605.605

>  <PUBCHEM_SHAPE_VOLUME>  (1) 
192.5

>  <PUBCHEM_COORDINATE_TYPE>  (1) 
2
5
10

$$$$
