29424
     RDKit          3D

 13 13  0  0  0  0  0  0  0  0999 V2000
    0.8385    3.5211    0.1670 I   0  0  0  0  0  0  0  0  0  0  0  0
    3.8433   -1.6587   -0.1537 I   0  0  0  0  0  0  0  0  0  0  0  0
   -1.5930    1.3654    0.2355 O   0  0  0  0  0  0  0  0  0  0  0  0
   -1.5176   -2.6220   -0.5192 O   0  0  0  0  0  0  0  0  0  0  0  0
   -2.6511   -1.0942    0.7250 O   0  0  0  0  0  0  0  0  0  0  0  0
   -0.3774   -0.6760    0.1094 C   0  0  0  0  0  0  0  0  0  0  0  0
   -0.3937    0.7181    0.1510 C   0  0  0  0  0  0  0  0  0  0  0  0
    0.8369   -1.3568    0.0224 C   0  0  0  0  0  0  0  0  0  0  0  0
    0.8042    1.4315    0.1058 C   0  0  0  0  0  0  0  0  0  0  0  0
    2.0349   -0.6437   -0.0228 C   0  0  0  0  0  0  0  0  0  0  0  0
    2.0186    0.7505    0.0189 C   0  0  0  0  0  0  0  0  0  0  0  0
   -1.6148   -1.4436    0.1534 C   0  0  0  0  0  0  0  0  0  0  0  0
   -2.2288    1.7082   -0.9927 C   0  0  0  0  0  0  0  0  0  0  0  0
  1  9  1  0
  2 10  1  0
  3  7  1  0
  3 13  1  0
  4 12  1  0
  5 12  2  0
  6  7  2  0
  6  8  1  0
  6 12  1  0
  7  9  1  0
  8 10  2  0
  9 11  2  0
 10 11  1  0
M  END
>  <PUBCHEM_COMPOUND_CID>  (1) 
29424

>  <PUBCHEM_CONFORMER_RMSD>  (1) 
0.6

>  <PUBCHEM_CONFORMER_DIVERSEORDER>  (1) 
2
1

>  <PUBCHEM_MMFF94_PARTIAL_CHARGES>  (1) 
16
1 -0.08
10 0.08
11 -0.15
12 0.63
13 0.28
14 0.15
15 0.15
19 0.5
2 -0.08
3 -0.36
4 -0.65
5 -0.57
6 0.09
7 0.08
8 -0.15
9 0.08

>  <PUBCHEM_EFFECTIVE_ROTOR_COUNT>  (1) 
2

>  <PUBCHEM_PHARMACOPHORE_FEATURES>  (1) 
7
1 1 hydrophobe
1 2 hydrophobe
1 3 acceptor
1 4 acceptor
1 5 acceptor
3 4 5 12 anion
6 6 7 8 9 10 11 rings

>  <PUBCHEM_HEAVY_ATOM_COUNT>  (1) 
13

>  <PUBCHEM_ATOM_DEF_STEREO_COUNT>  (1) 
0

>  <PUBCHEM_ATOM_UDEF_STEREO_COUNT>  (1) 
0

>  <PUBCHEM_BOND_DEF_STEREO_COUNT>  (1) 
0

>  <PUBCHEM_BOND_UDEF_STEREO_COUNT>  (1) 
0

>  <PUBCHEM_ISOTOPIC_ATOM_COUNT>  (1) 
0

>  <PUBCHEM_COMPONENT_COUNT>  (1) 
1

>  <PUBCHEM_CACTVS_TAUTO_COUNT>  (1) 
1

>  <PUBCHEM_CONFORMER_ID>  (1) 
000072F000000002

>  <PUBCHEM_MMFF94_ENERGY>  (1) 
47.2467

>  <PUBCHEM_FEATURE_SELFOVERLAP>  (1) 
35.584

>  <PUBCHEM_SHAPE_FINGERPRINT>  (1) 
10967382 1 18194685001802792192
11206711 2 18335986457855202294
11680986 33 18340475751068238080
12138202 97 18191302680623867470
12524768 44 17903356253244195795
13140716 1 18337954493928269280
14911166 2 18193833739369114820
15490181 8 17256244848058205658
161256 15 18193280912400506205
16945 1 18194680599471791780
193761 8 18338795744508622216
20510252 161 17767397986091081640
20588541 1 18125441904239618150
20871998 184 18199751349715605374
21501502 16 18338521935937518308
2334 1 18410293644526187056
23402539 116 18054776300296280628
23526114 1 18410857698423502972
23552423 10 18051417567172398070
23557571 272 18341063934724520566
23559900 14 18197495131156194814
241688 4 18410014312637989176
25 1 17830441787904472285
2748010 2 18412257337865130288
3250762 1 18265601255447703989
43471831 8 17618502529178679824
54173680 148 18337675192031203074
7364860 26 18124882506398451336
81228 2 18124880049740481232

>  <PUBCHEM_SHAPE_MULTIPOLES>  (1) 
273.8
4.45
3.65
0.78
4.88
1.47
-0.06
-0.5
-0.63
-2.25
0.22
-0.18
0.04
0.24

>  <PUBCHEM_SHAPE_SELFOVERLAP>  (1) 
530.474

>  <PUBCHEM_SHAPE_VOLUME>  (1) 
172.7

>  <PUBCHEM_COORDINATE_TYPE>  (1) 
2
5
10

$$$$
