29425
     RDKit          3D

  8  7  0  0  0  0  0  0  0  0999 V2000
    0.6207   -2.4946   -0.3459 I   0  0  0  0  0  0  0  0  0  0  0  0
   -0.6177    2.4867   -0.3618 I   0  0  0  0  0  0  0  0  0  0  0  0
    2.5168    0.5158    1.2294 Cl  0  0  0  0  0  0  0  0  0  0  0  0
   -2.5259   -0.4912    1.2291 Cl  0  0  0  0  0  0  0  0  0  0  0  0
    0.5724   -0.3707   -0.4362 C   0  0  0  0  0  0  0  0  0  0  0  0
   -0.5694    0.3623   -0.4392 C   0  0  0  0  0  0  0  0  0  0  0  0
    1.9564    0.2424   -0.4370 C   0  0  0  0  0  0  0  0  0  0  0  0
   -1.9533   -0.2507   -0.4383 C   0  0  0  0  0  0  0  0  0  0  0  0
  1  5  1  0
  2  6  1  0
  3  7  1  0
  4  8  1  0
  5  6  2  0
  5  7  1  0
  6  8  1  0
M  END
>  <PUBCHEM_COMPOUND_CID>  (1) 
29425

>  <PUBCHEM_CONFORMER_RMSD>  (1) 
0.4

>  <PUBCHEM_CONFORMER_DIVERSEORDER>  (1) 
1
5
2
4
3

>  <PUBCHEM_MMFF94_PARTIAL_CHARGES>  (1) 
8
1 -0.09
2 -0.09
3 -0.29
4 -0.29
5 -0.05
6 -0.05
7 0.43
8 0.43

>  <PUBCHEM_EFFECTIVE_ROTOR_COUNT>  (1) 
2

>  <PUBCHEM_PHARMACOPHORE_FEATURES>  (1) 
2
1 1 hydrophobe
1 2 hydrophobe

>  <PUBCHEM_HEAVY_ATOM_COUNT>  (1) 
8

>  <PUBCHEM_ATOM_DEF_STEREO_COUNT>  (1) 
0

>  <PUBCHEM_ATOM_UDEF_STEREO_COUNT>  (1) 
0

>  <PUBCHEM_BOND_DEF_STEREO_COUNT>  (1) 
0

>  <PUBCHEM_BOND_UDEF_STEREO_COUNT>  (1) 
1

>  <PUBCHEM_ISOTOPIC_ATOM_COUNT>  (1) 
0

>  <PUBCHEM_COMPONENT_COUNT>  (1) 
1

>  <PUBCHEM_CACTVS_TAUTO_COUNT>  (1) 
1

>  <PUBCHEM_CONFORMER_ID>  (1) 
000072F100000001

>  <PUBCHEM_MMFF94_ENERGY>  (1) 
13.9595

>  <PUBCHEM_FEATURE_SELFOVERLAP>  (1) 
10.149

>  <PUBCHEM_SHAPE_FINGERPRINT>  (1) 
10857977 72 18336269028217436617
161256 15 18197795301017412039
20082192 1 17169565003421946174
20653085 51 15122958446625837626
20711978 78 17986112902990605447
23211744 41 17988064648073026196
23552423 10 18045514009985605366
2748010 2 18266458693996380599
29004967 10 18334870423720307723
5084963 1 17988914587672613796
528862 383 17757279540941336021
54338 74 17763429083721202406

>  <PUBCHEM_SHAPE_MULTIPOLES>  (1) 
192.25
3.28
2.82
1.18
0.01
0
-0.37
-0.01
-0.7
-0.02
-0.07
0
0.01
1.12

>  <PUBCHEM_SHAPE_SELFOVERLAP>  (1) 
298.735

>  <PUBCHEM_SHAPE_VOLUME>  (1) 
143.1

>  <PUBCHEM_COORDINATE_TYPE>  (1) 
2
5
10

$$$$
