29439
     RDKit          3D

 22 25  0  0  1  0  0  0  0  0999 V2000
   -4.8078   -1.9782   -2.5311 Br  0  0  0  0  0  0  0  0  0  0  0  0
    1.1728    0.9077   -0.2594 N   0  0  0  0  0  0  0  0  0  0  0  0
   -2.2872    0.6338    2.2606 N   0  0  0  0  0  0  0  0  0  0  0  0
   -0.1676    1.3858   -0.6526 C   0  0  0  0  0  0  0  0  0  0  0  0
   -0.0340    2.9150   -0.7480 C   0  0  0  0  0  0  0  0  0  0  0  0
    1.4181    3.2069   -0.3997 C   0  0  0  0  0  0  0  0  0  0  0  0
    2.1277    1.9101   -0.7340 C   0  0  0  0  0  0  0  0  0  0  0  0
   -1.1971    0.9349    0.3510 C   0  0  0  0  0  0  0  0  0  0  0  0
    1.4817   -0.4241   -0.7646 C   0  0  0  0  0  0  0  0  0  0  0  0
   -2.3482    0.1421    0.0853 C   0  0  0  0  0  0  0  0  0  0  0  0
   -1.1868    1.2214    1.6964 C   0  0  0  0  0  0  0  0  0  0  0  0
   -3.0147   -0.0322    1.3001 C   0  0  0  0  0  0  0  0  0  0  0  0
    2.8519   -0.8171   -0.2993 C   0  0  0  0  0  0  0  0  0  0  0  0
   -2.8890   -0.4458   -1.0754 C   0  0  0  0  0  0  0  0  0  0  0  0
   -4.1998   -0.7679    1.4125 C   0  0  0  0  0  0  0  0  0  0  0  0
    3.9603   -0.5085   -1.0810 C   0  0  0  0  0  0  0  0  0  0  0  0
    3.0036   -1.4865    0.9105 C   0  0  0  0  0  0  0  0  0  0  0  0
   -4.0738   -1.1846   -0.9780 C   0  0  0  0  0  0  0  0  0  0  0  0
   -4.7174   -1.3419    0.2478 C   0  0  0  0  0  0  0  0  0  0  0  0
    5.2349   -0.8739   -0.6482 C   0  0  0  0  0  0  0  0  0  0  0  0
    4.2785   -1.8516    1.3433 C   0  0  0  0  0  0  0  0  0  0  0  0
    5.3940   -1.5452    0.5639 C   0  0  0  0  0  0  0  0  0  0  0  0
  1 18  1  0
  2  4  1  0
  2  7  1  0
  2  9  1  0
  3 11  1  0
  3 12  1  0
  4  5  1  0
  4  8  1  0
  5  6  1  0
  6  7  1  0
  8 10  1  0
  8 11  2  0
  9 13  1  0
 10 12  2  0
 10 14  1  0
 12 15  1  0
 13 16  2  0
 13 17  1  0
 14 18  2  0
 15 19  2  0
 16 20  1  0
 17 21  2  0
 18 19  1  0
 20 22  2  0
 21 22  1  0
M  END
>  <PUBCHEM_COMPOUND_CID>  (1) 
29439

>  <PUBCHEM_CONFORMER_RMSD>  (1) 
0.6

>  <PUBCHEM_CONFORMER_DIVERSEORDER>  (1) 
2
13
27
15
39
36
17
11
32
16
23
14
40
10
31
7
3
34
22
35
6
21
29
19
28
18
38
33
24
5
20
12
4
1
37
30
9
25
26
8

>  <PUBCHEM_MMFF94_PARTIAL_CHARGES>  (1) 
29
1 -0.11
11 -0.3
12 -0.15
13 -0.14
14 -0.15
15 -0.15
16 -0.15
17 -0.15
18 0.11
19 -0.15
2 -0.81
20 -0.15
21 -0.15
22 -0.15
3 0.03
32 0.15
33 0.27
34 0.15
35 0.15
36 0.15
37 0.15
38 0.15
39 0.15
4 0.45
40 0.15
41 0.15
7 0.27
8 -0.18
9 0.41

>  <PUBCHEM_EFFECTIVE_ROTOR_COUNT>  (1) 
4

>  <PUBCHEM_PHARMACOPHORE_FEATURES>  (1) 
8
1 1 hydrophobe
1 2 cation
1 3 cation
1 3 donor
5 2 4 5 6 7 rings
5 3 8 10 11 12 rings
6 10 12 14 15 18 19 rings
6 13 16 17 20 21 22 rings

>  <PUBCHEM_HEAVY_ATOM_COUNT>  (1) 
22

>  <PUBCHEM_ATOM_DEF_STEREO_COUNT>  (1) 
0

>  <PUBCHEM_ATOM_UDEF_STEREO_COUNT>  (1) 
1

>  <PUBCHEM_BOND_DEF_STEREO_COUNT>  (1) 
0

>  <PUBCHEM_BOND_UDEF_STEREO_COUNT>  (1) 
0

>  <PUBCHEM_ISOTOPIC_ATOM_COUNT>  (1) 
0

>  <PUBCHEM_COMPONENT_COUNT>  (1) 
1

>  <PUBCHEM_CACTVS_TAUTO_COUNT>  (1) 
1

>  <PUBCHEM_CONFORMER_ID>  (1) 
000072FF00000002

>  <PUBCHEM_MMFF94_ENERGY>  (1) 
47.0874

>  <PUBCHEM_FEATURE_SELFOVERLAP>  (1) 
40.689

>  <PUBCHEM_SHAPE_FINGERPRINT>  (1) 
10319926 262 15697733548492630279
10447042 23 18040150704625735166
11045977 3 15913329069843327915
11370993 144 14907912521922621455
11552529 35 17915741968695761296
11578080 2 18059276739261108721
12363563 72 18187652375155050392
12553582 1 18335994085970573982
12788726 201 17827905244285423585
12892183 10 16415198932249506758
13009979 54 17988651838663701359
13083527 12 18340756126791848684
13544653 18 18041286474156037740
13583140 156 15482106051469337436
13899415 180 18260541238469984677
14178342 30 17773331044690526559
14251757 17 15647051530072371970
14341114 176 16056886805940639362
14341114 328 16774079600390702330
14767858 380 18042708207674386156
14848178 5 18130775802718756503
15003188 105 15761297673516178191
15183329 4 13984654833172730642
15188451 53 17560506374621522975
15415430 10 18412266116672742822
17349148 13 18273217520885051143
1813 80 18341343222808328188
18222031 100 18342453738411432718
200 152 17895197666871506802
20028762 73 17988637532154942038
20626108 58 18271794774629660263
20645477 70 17969502791309564345
21033650 10 14996278128664362989
2132832 1 18202562904137975953
22393880 68 15574713595103199186
23402539 116 18335986367872112770
23559900 14 17095522941209409196
312425 83 14129357164921987214
314194 84 18408042918359796006
339767 52 18272087175892726959
3459 110 13614227226812568431
351380 3 18411706482133874367
392239 28 17060051558095026482
4098825 35 16877668954641041413
46194498 28 16299244573222860359
463206 1 18041002851226915435
5283173 99 16950837008072978828
56616090 89 18059563707041092963
57527295 17 17677311858742801903
59682541 52 17968918873927392751
7064713 232 17418104191154004903
7471813 234 18409729569096558372
7970288 3 18408043991922863362

>  <PUBCHEM_SHAPE_MULTIPOLES>  (1) 
448.73
11.33
2.75
1.89
2.89
1.95
0.19
-10.52
-0.92
1.03
-0.81
-2.01
-0.46
-2.41

>  <PUBCHEM_SHAPE_SELFOVERLAP>  (1) 
973.065

>  <PUBCHEM_SHAPE_VOLUME>  (1) 
252.1

>  <PUBCHEM_COORDINATE_TYPE>  (1) 
2
5
10

$$$$
