29457
     RDKit          3D

 18 20  0  0  1  0  0  0  0  0999 V2000
   -1.9989    0.4062   -0.2411 N   0  0  0  0  0  0  0  0  0  0  0  0
    1.7689    1.5545    1.2377 N   0  0  0  0  0  0  0  0  0  0  0  0
   -3.2408   -0.2749    0.1734 C   0  0  0  0  0  0  0  0  0  0  0  0
   -0.8921   -0.5697   -0.1593 C   0  0  0  0  0  0  0  0  0  0  0  0
   -2.7226   -1.1631    1.3120 C   0  0  0  0  0  0  0  0  0  0  0  0
   -1.3667   -1.6493    0.8229 C   0  0  0  0  0  0  0  0  0  0  0  0
    0.3763    0.1186    0.2794 C   0  0  0  0  0  0  0  0  0  0  0  0
   -4.2617    0.7319    0.7193 C   0  0  0  0  0  0  0  0  0  0  0  0
   -3.9018   -1.1301   -0.9246 C   0  0  0  0  0  0  0  0  0  0  0  0
   -2.0490    1.1020   -1.5213 C   0  0  0  0  0  0  0  0  0  0  0  0
    1.7052   -0.2720   -0.0417 C   0  0  0  0  0  0  0  0  0  0  0  0
    0.4466    1.2437    1.0665 C   0  0  0  0  0  0  0  0  0  0  0  0
   -0.7878    1.9043   -1.7666 C   0  0  0  0  0  0  0  0  0  0  0  0
    2.5604    0.6458    0.5721 C   0  0  0  0  0  0  0  0  0  0  0  0
    2.2658   -1.3208   -0.7975 C   0  0  0  0  0  0  0  0  0  0  0  0
    3.9536    0.5668    0.4674 C   0  0  0  0  0  0  0  0  0  0  0  0
    3.6578   -1.4122   -0.9110 C   0  0  0  0  0  0  0  0  0  0  0  0
    4.4868   -0.4819   -0.2874 C   0  0  0  0  0  0  0  0  0  0  0  0
  1  3  1  0
  1  4  1  0
  1 10  1  0
  2 12  1  0
  2 14  1  0
  3  5  1  0
  3  8  1  0
  3  9  1  0
  4  6  1  0
  4  7  1  0
  5  6  1  0
  7 11  1  0
  7 12  2  0
 10 13  1  0
 11 14  2  0
 11 15  1  0
 14 16  1  0
 15 17  2  0
 16 18  2  0
 17 18  1  0
M  END
>  <PUBCHEM_COMPOUND_CID>  (1) 
29457

>  <PUBCHEM_CONFORMER_RMSD>  (1) 
0.6

>  <PUBCHEM_CONFORMER_DIVERSEORDER>  (1) 
1
13
5
14
10
3
7
6
11
9
12
2
8
4

>  <PUBCHEM_MMFF94_PARTIAL_CHARGES>  (1) 
18
1 -0.81
10 0.27
12 -0.3
14 -0.15
15 -0.15
16 -0.15
17 -0.15
18 -0.15
2 0.03
3 0.27
32 0.15
36 0.27
37 0.15
38 0.15
39 0.15
4 0.45
40 0.15
7 -0.18

>  <PUBCHEM_EFFECTIVE_ROTOR_COUNT>  (1) 
3

>  <PUBCHEM_PHARMACOPHORE_FEATURES>  (1) 
7
1 1 cation
1 2 cation
1 2 donor
3 3 8 9 hydrophobe
5 1 3 4 5 6 rings
5 2 7 11 12 14 rings
6 11 14 15 16 17 18 rings

>  <PUBCHEM_HEAVY_ATOM_COUNT>  (1) 
18

>  <PUBCHEM_ATOM_DEF_STEREO_COUNT>  (1) 
0

>  <PUBCHEM_ATOM_UDEF_STEREO_COUNT>  (1) 
1

>  <PUBCHEM_BOND_DEF_STEREO_COUNT>  (1) 
0

>  <PUBCHEM_BOND_UDEF_STEREO_COUNT>  (1) 
0

>  <PUBCHEM_ISOTOPIC_ATOM_COUNT>  (1) 
0

>  <PUBCHEM_COMPONENT_COUNT>  (1) 
1

>  <PUBCHEM_CACTVS_TAUTO_COUNT>  (1) 
1

>  <PUBCHEM_CONFORMER_ID>  (1) 
0000731100000001

>  <PUBCHEM_MMFF94_ENERGY>  (1) 
35.5352

>  <PUBCHEM_FEATURE_SELFOVERLAP>  (1) 
35.612

>  <PUBCHEM_SHAPE_FINGERPRINT>  (1) 
10366900 7 18334572464522276834
10498660 4 17604416406426570101
11471102 20 18131351916804409818
12186901 62 17603865550989907359
12236239 1 15985104115241569410
13296908 3 18272650121688129462
13538477 17 16298102120332613195
13583140 156 17753854395360629024
13675066 3 16343701027973572826
14386348 63 18412548708420279650
15219456 202 18413388761010127992
15309172 13 17775571948146217454
15375358 24 18341895212237513378
15375462 189 16415472762147474514
15375462 478 16774083964077442337
15653759 3 18333730217171907152
15848702 151 18131914853772910487
16752209 62 17096067139852346845
16945 1 18199195159676327857
17357779 13 18261657264610595133
17844478 74 18408041801346266420
18186145 218 18410288082063497354
19049666 15 18265327313917067650
19141452 34 18412548725821831359
200 152 17418370320418288675
20279233 1 18410858780417826890
20645476 183 15574711421997433915
20645477 70 18060421283493745886
22094290 60 17821728312593192220
22802520 49 18190734228896194916
23175994 123 18201446843737093872
23402539 116 17967524675301473934
23493267 7 16515683308617843425
23557571 272 18186518787531477076
23559900 14 18260551109048479494
2748010 2 17679022857570024195
296302 2 18201723972306907010
3286 77 18059849623267123933
465052 167 15553312825972392583
474 4 16198156586978208104
5104073 3 18060420230931489682
77492 1 15913325814410708368
81228 2 17967530134490101021
8272917 22 17274555221586059399
9709674 26 18271810171723906627

>  <PUBCHEM_SHAPE_MULTIPOLES>  (1) 
360.47
7.93
1.72
1.39
1.63
0.17
-0.19
-1.57
-0.26
-0.31
-0.26
-0.37
0.36
1.09

>  <PUBCHEM_SHAPE_SELFOVERLAP>  (1) 
776.823

>  <PUBCHEM_SHAPE_VOLUME>  (1) 
203.8

>  <PUBCHEM_COORDINATE_TYPE>  (1) 
2
5
10

$$$$
