29456
     RDKit          3D

 16 18  0  0  1  0  0  0  0  0999 V2000
   -1.8650   -0.0268   -0.8064 N   0  0  0  0  0  0  0  0  0  0  0  0
    1.9443   -1.9630   -0.2849 N   0  0  0  0  0  0  0  0  0  0  0  0
   -0.9742    0.1864    0.3470 C   0  0  0  0  0  0  0  0  0  0  0  0
   -3.2348   -0.2048   -0.2987 C   0  0  0  0  0  0  0  0  0  0  0  0
   -1.7367   -0.3650    1.5444 C   0  0  0  0  0  0  0  0  0  0  0  0
   -3.1654    0.0130    1.2092 C   0  0  0  0  0  0  0  0  0  0  0  0
    0.3646   -0.4461    0.1063 C   0  0  0  0  0  0  0  0  0  0  0  0
   -4.2336    0.7190   -0.9806 C   0  0  0  0  0  0  0  0  0  0  0  0
    1.6254    0.2185    0.0564 C   0  0  0  0  0  0  0  0  0  0  0  0
    0.5981   -1.7882   -0.1079 C   0  0  0  0  0  0  0  0  0  0  0  0
   -5.6340    0.5367   -0.4227 C   0  0  0  0  0  0  0  0  0  0  0  0
    2.5967   -0.7544   -0.1898 C   0  0  0  0  0  0  0  0  0  0  0  0
    2.0306    1.5605    0.1982 C   0  0  0  0  0  0  0  0  0  0  0  0
    3.9583   -0.4511   -0.3017 C   0  0  0  0  0  0  0  0  0  0  0  0
    3.3893    1.8787    0.0887 C   0  0  0  0  0  0  0  0  0  0  0  0
    4.3365    0.8867   -0.1575 C   0  0  0  0  0  0  0  0  0  0  0  0
  1  3  1  0
  1  4  1  0
  2 10  1  0
  2 12  1  0
  3  5  1  0
  3  7  1  0
  4  6  1  0
  4  8  1  0
  5  6  1  0
  7  9  1  0
  7 10  2  0
  8 11  1  0
  9 12  2  0
  9 13  1  0
 12 14  1  0
 13 15  2  0
 14 16  2  0
 15 16  1  0
M  END
>  <PUBCHEM_COMPOUND_CID>  (1) 
29456

>  <PUBCHEM_CONFORMER_RMSD>  (1) 
0.6

>  <PUBCHEM_CONFORMER_DIVERSEORDER>  (1) 
1
22
17
8
10
9
2
19
13
4
16
3
15
11
18
20
7
5
6
14
21
23
12

>  <PUBCHEM_MMFF94_PARTIAL_CHARGES>  (1) 
18
1 -0.9
10 -0.3
12 -0.15
13 -0.15
14 -0.15
15 -0.15
16 -0.15
2 0.03
23 0.36
26 0.15
3 0.45
30 0.27
31 0.15
32 0.15
33 0.15
34 0.15
4 0.27
7 -0.18

>  <PUBCHEM_EFFECTIVE_ROTOR_COUNT>  (1) 
3

>  <PUBCHEM_PHARMACOPHORE_FEATURES>  (1) 
8
1 1 cation
1 1 donor
1 11 hydrophobe
1 2 cation
1 2 donor
5 1 3 4 5 6 rings
5 2 7 9 10 12 rings
6 9 12 13 14 15 16 rings

>  <PUBCHEM_HEAVY_ATOM_COUNT>  (1) 
16

>  <PUBCHEM_ATOM_DEF_STEREO_COUNT>  (1) 
0

>  <PUBCHEM_ATOM_UDEF_STEREO_COUNT>  (1) 
2

>  <PUBCHEM_BOND_DEF_STEREO_COUNT>  (1) 
0

>  <PUBCHEM_BOND_UDEF_STEREO_COUNT>  (1) 
0

>  <PUBCHEM_ISOTOPIC_ATOM_COUNT>  (1) 
0

>  <PUBCHEM_COMPONENT_COUNT>  (1) 
1

>  <PUBCHEM_CACTVS_TAUTO_COUNT>  (1) 
1

>  <PUBCHEM_CONFORMER_ID>  (1) 
0000731000000001

>  <PUBCHEM_MMFF94_ENERGY>  (1) 
20.2237

>  <PUBCHEM_FEATURE_SELFOVERLAP>  (1) 
40.688

>  <PUBCHEM_SHAPE_FINGERPRINT>  (1) 
10608611 8 18260829297620743853
11287383 113 18408040728284787947
11471102 20 18412546505149315148
11543360 7 18342728633761931375
11615757 297 18202286909127526049
11796584 16 13757535274754349588
12119455 92 18334007315561229314
12236239 1 17489588944002454405
12251169 10 10953743296206173153
12403259 415 18264777721259371512
12500047 106 17385444344806785755
12730499 353 18333736797473579779
13675066 3 11891326560819942959
13760787 19 17988917886624384823
14251717 144 18343302552597641854
14993402 34 17346598582012573885
15219456 202 18187088364207660963
15375358 24 18040716965550139553
16752209 62 16128654107671004175
16945 1 18341059553594023690
17834072 33 18273209820609699431
17959699 21 18411698743198906041
18175812 5 17967817175475038022
18186145 218 18272381896674834572
19862831 5 17489585675511340669
200 152 18060698377592965961
20279233 1 17968101910542987907
204376 136 18338803428479155042
20645476 183 17846771940869102919
20645477 56 17894632552581460017
20645477 70 18340486660126992454
212916 134 16660636371603734169
21639500 275 18343016726798045784
22289505 5 18337100160197842781
22892500 29 18409444795611071804
22926399 37 18272933842969756809
231179 274 18260827107429886036
23402539 116 17240477035773226031
23402655 69 18272369780181871516
23557571 272 17676500474985515763
23559900 14 17167867426673874810
23598291 2 17487631727131652955
25 1 18411138052213185286
2748010 2 18125172781984593602
2916195 48 17821723928027987421
29717793 49 17203613648777070181
3060560 45 18343585127360495246
3545911 37 18407761443519819717
4028521 119 18041271076819997469
4047638 21 18113616780967920016
4072396 5 18336531756220985330
42 15 8718829803669980495
474 4 18341614866647362352
57096353 35 17489590069146872329
633830 44 17916330327449079496
77492 1 17417819413131068515
8272917 22 18200316511582329143

>  <PUBCHEM_SHAPE_MULTIPOLES>  (1) 
319.31
9.6
1.57
0.99
7.16
0.12
0.25
-3.3
-1.83
-1.62
-0.09
0.92
0.01
0.53

>  <PUBCHEM_SHAPE_SELFOVERLAP>  (1) 
689.222

>  <PUBCHEM_SHAPE_VOLUME>  (1) 
178.9

>  <PUBCHEM_COORDINATE_TYPE>  (1) 
2
5
10

$$$$
