29452
     RDKit          3D

 16 18  0  0  1  0  0  0  0  0999 V2000
    2.1257    0.4383   -0.5755 N   0  0  0  0  0  0  0  0  0  0  0  0
   -1.4349   -1.9471   -0.5647 N   0  0  0  0  0  0  0  0  0  0  0  0
    1.1687    0.4019    0.5520 C   0  0  0  0  0  0  0  0  0  0  0  0
    3.4723    0.3810    0.0122 C   0  0  0  0  0  0  0  0  0  0  0  0
    1.9249   -0.2606    1.7136 C   0  0  0  0  0  0  0  0  0  0  0  0
    3.2817   -0.6289    1.1369 C   0  0  0  0  0  0  0  0  0  0  0  0
   -0.0781   -0.3423    0.1459 C   0  0  0  0  0  0  0  0  0  0  0  0
    4.5400   -0.0755   -0.9736 C   0  0  0  0  0  0  0  0  0  0  0  0
    1.9283    1.6024   -1.4344 C   0  0  0  0  0  0  0  0  0  0  0  0
   -1.4070    0.1640    0.1563 C   0  0  0  0  0  0  0  0  0  0  0  0
   -0.1266   -1.6416   -0.3015 C   0  0  0  0  0  0  0  0  0  0  0  0
   -2.2392   -0.8630   -0.2943 C   0  0  0  0  0  0  0  0  0  0  0  0
   -1.9845    1.4006    0.5066 C   0  0  0  0  0  0  0  0  0  0  0  0
   -3.6256   -0.7143   -0.4128 C   0  0  0  0  0  0  0  0  0  0  0  0
   -3.3699    1.5637    0.3933 C   0  0  0  0  0  0  0  0  0  0  0  0
   -4.1759    0.5213   -0.0599 C   0  0  0  0  0  0  0  0  0  0  0  0
  1  3  1  0
  1  4  1  0
  1  9  1  0
  2 11  1  0
  2 12  1  0
  3  5  1  0
  3  7  1  0
  4  6  1  0
  4  8  1  0
  5  6  1  0
  7 10  1  0
  7 11  2  0
 10 12  2  0
 10 13  1  0
 12 14  1  0
 13 15  2  0
 14 16  2  0
 15 16  1  0
M  END
>  <PUBCHEM_COMPOUND_CID>  (1) 
29452

>  <PUBCHEM_CONFORMER_RMSD>  (1) 
0.6

>  <PUBCHEM_CONFORMER_DIVERSEORDER>  (1) 
1
2
7
4
10
15
12
11
14
9
3
16
6
13
8
5

>  <PUBCHEM_MMFF94_PARTIAL_CHARGES>  (1) 
18
1 -0.81
11 -0.3
12 -0.15
13 -0.15
14 -0.15
15 -0.15
16 -0.15
2 0.03
29 0.15
3 0.45
30 0.27
31 0.15
32 0.15
33 0.15
34 0.15
4 0.27
7 -0.18
9 0.27

>  <PUBCHEM_EFFECTIVE_ROTOR_COUNT>  (1) 
2

>  <PUBCHEM_PHARMACOPHORE_FEATURES>  (1) 
6
1 1 cation
1 2 cation
1 2 donor
5 1 3 4 5 6 rings
5 2 7 10 11 12 rings
6 10 12 13 14 15 16 rings

>  <PUBCHEM_HEAVY_ATOM_COUNT>  (1) 
16

>  <PUBCHEM_ATOM_DEF_STEREO_COUNT>  (1) 
0

>  <PUBCHEM_ATOM_UDEF_STEREO_COUNT>  (1) 
2

>  <PUBCHEM_BOND_DEF_STEREO_COUNT>  (1) 
0

>  <PUBCHEM_BOND_UDEF_STEREO_COUNT>  (1) 
0

>  <PUBCHEM_ISOTOPIC_ATOM_COUNT>  (1) 
0

>  <PUBCHEM_COMPONENT_COUNT>  (1) 
1

>  <PUBCHEM_CACTVS_TAUTO_COUNT>  (1) 
1

>  <PUBCHEM_CONFORMER_ID>  (1) 
0000730C00000001

>  <PUBCHEM_MMFF94_ENERGY>  (1) 
26.0641

>  <PUBCHEM_FEATURE_SELFOVERLAP>  (1) 
30.538

>  <PUBCHEM_SHAPE_FINGERPRINT>  (1) 
10751810 167 18408890650261420794
10980938 120 17530959168646278400
11471102 20 16877660158716745704
11578080 2 17682354261759778812
11615757 297 17530683220960220217
12236239 1 18187080654989251976
124424 183 17060623283061602826
12500047 106 18060414729378803318
13214271 11 12468357976801225595
13221675 6 17967252000955319612
13538477 17 18262511610546097091
13581323 91 18343857827228162427
13583140 156 17095527305650406153
13760787 19 17822007627486449635
14115302 16 18271812345203795932
14144814 61 18333725814740758040
14252887 29 12180131929860588001
14993402 34 18333730221329795948
15219456 202 16917058997249928776
15342168 16 16227471765681635932
15669948 3 18269831063778830719
15775835 57 18260550021609292412
16752209 62 18342165696419326063
16945 1 18200869669131530587
1813 80 17534610526888836314
18186145 218 18040430031469574708
19422 9 18186236234064151530
19784866 34 16951420978229381740
20233049 118 18343580733434858408
20279233 1 16845574231458340398
20510252 161 18060418036445443433
20645476 183 18260830435903342647
20645477 70 16153971474806875810
21524375 3 18411981330471516683
22854114 59 15068343414635107944
23048698 100 17603862291083355801
23402539 116 18060132128777828269
23463225 33 18335696105202260947
23493267 7 18334862722965610075
23557571 272 17914887879846737130
23559900 14 17918275351361499256
23598291 2 18042398045788289074
2748010 2 17768230668591006563
449060 50 15357705188225355948
474 4 17460599362428108596
4990 188 16988843861022848525
69090 78 16773787121771050231
7364860 26 17700693965392190135
74978 22 18336263560665948972
77492 1 18186794790244676544
7832392 63 18334296508873973252
81228 2 17412161524259304343
8272917 22 17386562441032221595
9981440 41 17181098146613023440

>  <PUBCHEM_SHAPE_MULTIPOLES>  (1) 
319.31
7.7
1.58
1.18
0.9
0.06
-0.16
-1.13
0.71
-0.8
0.3
1.02
-0.09
-0.95

>  <PUBCHEM_SHAPE_SELFOVERLAP>  (1) 
691.593

>  <PUBCHEM_SHAPE_VOLUME>  (1) 
179.5

>  <PUBCHEM_COORDINATE_TYPE>  (1) 
2
5
10

$$$$
