29451
     RDKit          3D

 15 17  0  0  1  0  0  0  0  0999 V2000
    2.2165    0.0574    0.8923 N   0  0  0  0  0  0  0  0  0  0  0  0
   -1.5079   -1.9892    0.2082 N   0  0  0  0  0  0  0  0  0  0  0  0
    1.3487    0.2784   -0.2770 C   0  0  0  0  0  0  0  0  0  0  0  0
    2.1606   -0.2062   -1.4709 C   0  0  0  0  0  0  0  0  0  0  0  0
    3.6043   -0.0566    0.4159 C   0  0  0  0  0  0  0  0  0  0  0  0
    3.5660    0.2089   -1.0854 C   0  0  0  0  0  0  0  0  0  0  0  0
    0.0272   -0.4072   -0.0930 C   0  0  0  0  0  0  0  0  0  0  0  0
    4.5523    0.8774    1.1540 C   0  0  0  0  0  0  0  0  0  0  0  0
   -1.2568    0.2122   -0.0530 C   0  0  0  0  0  0  0  0  0  0  0  0
   -0.1646   -1.7629    0.0711 C   0  0  0  0  0  0  0  0  0  0  0  0
   -2.1993   -0.8009    0.1362 C   0  0  0  0  0  0  0  0  0  0  0  0
   -1.7048    1.5439   -0.1605 C   0  0  0  0  0  0  0  0  0  0  0  0
   -3.5728   -0.5478    0.2234 C   0  0  0  0  0  0  0  0  0  0  0  0
   -3.0757    1.8120   -0.0751 C   0  0  0  0  0  0  0  0  0  0  0  0
   -3.9937    0.7806    0.1136 C   0  0  0  0  0  0  0  0  0  0  0  0
  1  3  1  0
  1  5  1  0
  2 10  1  0
  2 11  1  0
  3  4  1  0
  3  7  1  0
  4  6  1  0
  5  6  1  0
  5  8  1  0
  7  9  1  0
  7 10  2  0
  9 11  2  0
  9 12  1  0
 11 13  1  0
 12 14  2  0
 13 15  2  0
 14 15  1  0
M  END
>  <PUBCHEM_COMPOUND_CID>  (1) 
29451

>  <PUBCHEM_CONFORMER_RMSD>  (1) 
0.6

>  <PUBCHEM_CONFORMER_DIVERSEORDER>  (1) 
1
2
7
6
8
5
9
4
10
3

>  <PUBCHEM_MMFF94_PARTIAL_CHARGES>  (1) 
18
1 -0.9
10 -0.3
11 -0.15
12 -0.15
13 -0.15
14 -0.15
15 -0.15
2 0.03
22 0.36
26 0.15
27 0.27
28 0.15
29 0.15
3 0.45
30 0.15
31 0.15
5 0.27
7 -0.18

>  <PUBCHEM_EFFECTIVE_ROTOR_COUNT>  (1) 
2

>  <PUBCHEM_PHARMACOPHORE_FEATURES>  (1) 
7
1 1 cation
1 1 donor
1 2 cation
1 2 donor
5 1 3 4 5 6 rings
5 2 7 9 10 11 rings
6 9 11 12 13 14 15 rings

>  <PUBCHEM_HEAVY_ATOM_COUNT>  (1) 
15

>  <PUBCHEM_ATOM_DEF_STEREO_COUNT>  (1) 
0

>  <PUBCHEM_ATOM_UDEF_STEREO_COUNT>  (1) 
2

>  <PUBCHEM_BOND_DEF_STEREO_COUNT>  (1) 
0

>  <PUBCHEM_BOND_UDEF_STEREO_COUNT>  (1) 
0

>  <PUBCHEM_ISOTOPIC_ATOM_COUNT>  (1) 
0

>  <PUBCHEM_COMPONENT_COUNT>  (1) 
1

>  <PUBCHEM_CACTVS_TAUTO_COUNT>  (1) 
1

>  <PUBCHEM_CONFORMER_ID>  (1) 
0000730B00000001

>  <PUBCHEM_MMFF94_ENERGY>  (1) 
19.9075

>  <PUBCHEM_FEATURE_SELFOVERLAP>  (1) 
35.613

>  <PUBCHEM_SHAPE_FINGERPRINT>  (1) 
10608611 8 18272931639493304320
10646746 165 18412826859060589648
11132069 177 18408325467035885909
11543360 7 16056586656287720589
11578080 2 13037492511494162282
12119455 92 17346591972284667902
12236239 1 17530685424674043012
12251169 10 18187642522616260796
13140716 1 18192720174914307987
13380535 76 18335986380889065151
13538477 17 17822579420392378738
13581323 91 18260266360631196278
13675066 3 18113335297659783330
14144814 61 18187366523416812956
14614273 12 18115585942438651893
14897335 6 18336543820293749351
15042514 8 18263932205777389627
15219456 202 17917714595503344046
15375358 24 17988922288585950760
15375462 478 16588025684277421253
15536298 74 18338235942866631054
15669948 3 18263087758918246830
15775835 57 18260831470810788280
16945 1 18408891754321275487
17846911 113 18410855447559939929
18186145 218 17917441882027821496
19049666 15 17986966167147801790
19422 9 17386010597764033138
200 152 15213013877737110353
20279233 1 17917434237307931054
20510252 161 18343304747352518593
20645477 56 18413389856168922016
20645477 70 16702031846507893646
21524375 3 18335420119436522955
21639500 275 15841259446086950024
22926399 37 15626221359746177738
23048698 100 16732987539419789644
23402539 116 18340475742646686543
23463225 33 18041278764252060346
23557571 272 18130230479131412222
23559900 14 18343311345028582974
2748010 2 18119823412975746719
3286 77 13984665849647689684
42 15 18186515480411635010
43471831 8 18260547784242983675
474 4 16590293041016891860
5104073 3 18337677391244175131
5706482 22 18334292055008614091
69090 78 17917989490527100823
7364860 26 18052820251946889655
77492 1 17458348567319674574
90316 7 17676481714004449260

>  <PUBCHEM_SHAPE_MULTIPOLES>  (1) 
298.73
7.9
1.6
1
3.53
0.19
0.15
-2.59
-1.19
-1.33
-0.1
1.14
-0.07
0.46

>  <PUBCHEM_SHAPE_SELFOVERLAP>  (1) 
650.089

>  <PUBCHEM_SHAPE_VOLUME>  (1) 
165.8

>  <PUBCHEM_COORDINATE_TYPE>  (1) 
2
5
10

$$$$
