29481
     RDKit          3D

 23 25  0  0  0  0  0  0  0  0999 V2000
    0.9318   -0.3752   -0.4641 N   0  0  0  0  0  0  0  0  0  0  0  0
   -0.5474   -0.4151   -0.1988 C   0  0  0  0  0  0  0  0  0  0  0  0
   -1.2129   -1.2343   -1.3240 C   0  0  0  0  0  0  0  0  0  0  0  0
   -0.7392   -1.0490    1.1954 C   0  0  0  0  0  0  0  0  0  0  0  0
   -1.0362    1.0363   -0.2337 C   0  0  0  0  0  0  0  0  0  0  0  0
   -1.2542   -2.7235   -0.9957 C   0  0  0  0  0  0  0  0  0  0  0  0
   -2.0405   -1.8408    1.2774 C   0  0  0  0  0  0  0  0  0  0  0  0
   -2.0606   -2.9985    0.2761 C   0  0  0  0  0  0  0  0  0  0  0  0
    1.6420    0.4278    0.6259 C   0  0  0  0  0  0  0  0  0  0  0  0
    1.2078    0.2818   -1.8167 C   0  0  0  0  0  0  0  0  0  0  0  0
    1.5033   -1.7930   -0.4809 C   0  0  0  0  0  0  0  0  0  0  0  0
   -2.5249    1.1200   -0.0494 C   0  0  0  0  0  0  0  0  0  0  0  0
    3.1264    0.5090    0.4235 C   0  0  0  0  0  0  0  0  0  0  0  0
   -3.3578    1.0775   -1.1609 C   0  0  0  0  0  0  0  0  0  0  0  0
   -3.0528    1.2385    1.2305 C   0  0  0  0  0  0  0  0  0  0  0  0
    3.9513   -0.4625    0.9795 C   0  0  0  0  0  0  0  0  0  0  0  0
    3.6642    1.5547   -0.3188 C   0  0  0  0  0  0  0  0  0  0  0  0
   -4.7399    1.1550   -0.9899 C   0  0  0  0  0  0  0  0  0  0  0  0
   -4.4350    1.3158    1.4013 C   0  0  0  0  0  0  0  0  0  0  0  0
    5.3313   -0.3873    0.7913 C   0  0  0  0  0  0  0  0  0  0  0  0
    5.0443    1.6297   -0.5071 C   0  0  0  0  0  0  0  0  0  0  0  0
   -5.2785    1.2742    0.2911 C   0  0  0  0  0  0  0  0  0  0  0  0
    5.8777    0.6587    0.0480 C   0  0  0  0  0  0  0  0  0  0  0  0
  1  2  1  0
  1  9  1  0
  1 10  1  0
  1 11  1  0
  2  3  1  0
  2  4  1  0
  2  5  1  0
  3  6  1  0
  4  7  1  0
  5 12  1  0
  6  8  1  0
  7  8  1  0
  9 13  1  0
 12 14  2  0
 12 15  1  0
 13 16  2  0
 13 17  1  0
 14 18  1  0
 15 19  2  0
 16 20  1  0
 17 21  2  0
 18 22  2  0
 19 22  1  0
 20 23  2  0
 21 23  1  0
M  CHG  1   1   1
M  END
>  <PUBCHEM_COMPOUND_CID>  (1) 
29481

>  <PUBCHEM_CONFORMER_RMSD>  (1) 
0.8

>  <PUBCHEM_CONFORMER_DIVERSEORDER>  (1) 
1
2
3

>  <PUBCHEM_MMFF94_PARTIAL_CHARGES>  (1) 
28
1 -1.01
10 0.5
11 0.5
12 -0.14
13 -0.14
14 -0.15
15 -0.15
16 -0.15
17 -0.15
18 -0.15
19 -0.15
2 0.5
20 -0.15
21 -0.15
22 -0.15
23 -0.15
44 0.15
45 0.15
46 0.15
47 0.15
48 0.15
49 0.15
5 0.14
50 0.15
51 0.15
52 0.15
53 0.15
9 0.65

>  <PUBCHEM_EFFECTIVE_ROTOR_COUNT>  (1) 
6.2

>  <PUBCHEM_PHARMACOPHORE_FEATURES>  (1) 
4
1 1 cation
6 12 14 15 18 19 22 rings
6 13 16 17 20 21 23 rings
6 2 3 4 6 7 8 rings

>  <PUBCHEM_HEAVY_ATOM_COUNT>  (1) 
23

>  <PUBCHEM_ATOM_DEF_STEREO_COUNT>  (1) 
0

>  <PUBCHEM_ATOM_UDEF_STEREO_COUNT>  (1) 
0

>  <PUBCHEM_BOND_DEF_STEREO_COUNT>  (1) 
0

>  <PUBCHEM_BOND_UDEF_STEREO_COUNT>  (1) 
0

>  <PUBCHEM_ISOTOPIC_ATOM_COUNT>  (1) 
0

>  <PUBCHEM_COMPONENT_COUNT>  (1) 
1

>  <PUBCHEM_CACTVS_TAUTO_COUNT>  (1) 
1

>  <PUBCHEM_CONFORMER_ID>  (1) 
0000732900000001

>  <PUBCHEM_MMFF94_ENERGY>  (1) 
121.4327

>  <PUBCHEM_FEATURE_SELFOVERLAP>  (1) 
20.297

>  <PUBCHEM_SHAPE_FINGERPRINT>  (1) 
10 15 17385722530709394424
10692045 39 18057041307530488098
11405975 8 18409161147850407928
121448 382 14333407865397962614
12403259 415 18117566137026083053
12516196 113 8069735295961152013
12597179 24 18130792239321286575
12616971 3 17095517431726424788
12633257 1 18115010949497042498
12788726 201 17976836598370721103
13009979 54 12685679697622630709
13140716 1 18339643463784431792
13544653 18 9295280651504577753
13583140 156 17603589633738184353
13675066 3 16950285091811373496
13685833 64 8862648123823277317
14341114 176 17822296764785211720
14955137 171 16443071569362302748
15295992 7 17917140697646961992
15849732 13 17458062651162124837
16752209 62 18057870524018270190
17093844 174 18271800272852431064
17980427 23 18188213207599963773
1813 80 8141795140609286323
18222031 100 12252195085949736145
19784866 140 11527945642978330957
200 152 10231755591423518904
204376 136 18410011005586900435
20602899 9 15554445227763343583
21033648 144 18339066203200667932
21033648 29 17969202508523982420
21033650 10 16915687837726521944
21236236 1 18339078293670268551
22182313 1 17987543500736162527
22224240 67 18410580566091252081
22950370 63 8934706812792743233
23198884 109 17704072889209831384
23227448 37 18261111910689896101
23402539 116 18060128834738430629
23419403 2 17127097552732837615
23503953 91 18261382369835095984
23557571 272 18129669723737552263
23558518 356 17973726075785828528
23559900 14 18271816683743582366
23598288 3 18196096770300934742
23622692 88 17385729096822223134
25147074 1 17823713046908275870
2838139 119 18059570269772759832
4340502 62 18261117335829514507
465052 167 11098150936884431864
469060 322 13912886509118486139
474 4 18271807865737672049
5104073 3 18262226842199863640
59755656 520 18412824668748562207
633830 44 17986118409629042309
8863177 126 9798246765807315005
9981440 41 18131634460980602971

>  <PUBCHEM_SHAPE_MULTIPOLES>  (1) 
468.35
11.36
2.46
1.41
8.61
1.87
0.09
-7.03
-1.66
-1.76
0.13
-0.72
0.08
-0.45

>  <PUBCHEM_SHAPE_SELFOVERLAP>  (1) 
994.611

>  <PUBCHEM_SHAPE_VOLUME>  (1) 
258.8

>  <PUBCHEM_COORDINATE_TYPE>  (1) 
2
5
10

$$$$
