29519
     RDKit          3D

 11 11  0  0  0  0  0  0  0  0999 V2000
   -3.1806    1.7749    0.0885 Cl  0  0  0  0  0  0  0  0  0  0  0  0
    3.3296    1.3453    1.0553 S   0  0  0  0  0  0  0  0  0  0  0  0
    1.6382    0.4085   -0.9334 N   0  0  0  0  0  0  0  0  0  0  0  0
    0.1330   -1.2823   -0.0500 C   0  0  0  0  0  0  0  0  0  0  0  0
    0.3741    0.0265   -0.4677 C   0  0  0  0  0  0  0  0  0  0  0  0
   -1.1325   -1.6456    0.4103 C   0  0  0  0  0  0  0  0  0  0  0  0
   -0.6506    0.9721   -0.4252 C   0  0  0  0  0  0  0  0  0  0  0  0
    1.2138   -2.3127   -0.0867 C   0  0  0  0  0  0  0  0  0  0  0  0
   -2.1571   -0.7001    0.4527 C   0  0  0  0  0  0  0  0  0  0  0  0
   -1.9161    0.6087    0.0350 C   0  0  0  0  0  0  0  0  0  0  0  0
    2.3482    0.8047   -0.0787 C   0  0  0  0  0  0  0  0  0  0  0  0
  1 10  1  0
  2 11  2  0
  3  5  1  0
  3 11  2  0
  4  5  2  0
  4  6  1  0
  4  8  1  0
  5  7  1  0
  6  9  2  0
  7 10  2  0
  9 10  1  0
M  END
>  <PUBCHEM_COMPOUND_CID>  (1) 
29519

>  <PUBCHEM_CONFORMER_RMSD>  (1) 
0.4

>  <PUBCHEM_CONFORMER_DIVERSEORDER>  (1) 
2
3
4
1

>  <PUBCHEM_MMFF94_PARTIAL_CHARGES>  (1) 
14
1 -0.18
10 0.18
11 0.57
12 0.15
13 0.15
17 0.15
2 -0.27
3 -0.48
4 -0.14
5 0.18
6 -0.15
7 -0.15
8 0.14
9 -0.15

>  <PUBCHEM_EFFECTIVE_ROTOR_COUNT>  (1) 
1

>  <PUBCHEM_PHARMACOPHORE_FEATURES>  (1) 
3
1 2 acceptor
1 3 acceptor
6 4 5 6 7 9 10 rings

>  <PUBCHEM_HEAVY_ATOM_COUNT>  (1) 
11

>  <PUBCHEM_ATOM_DEF_STEREO_COUNT>  (1) 
0

>  <PUBCHEM_ATOM_UDEF_STEREO_COUNT>  (1) 
0

>  <PUBCHEM_BOND_DEF_STEREO_COUNT>  (1) 
0

>  <PUBCHEM_BOND_UDEF_STEREO_COUNT>  (1) 
0

>  <PUBCHEM_ISOTOPIC_ATOM_COUNT>  (1) 
0

>  <PUBCHEM_COMPONENT_COUNT>  (1) 
1

>  <PUBCHEM_CACTVS_TAUTO_COUNT>  (1) 
1

>  <PUBCHEM_CONFORMER_ID>  (1) 
0000734F00000002

>  <PUBCHEM_MMFF94_ENERGY>  (1) 
25.6869

>  <PUBCHEM_FEATURE_SELFOVERLAP>  (1) 
15.227

>  <PUBCHEM_SHAPE_FINGERPRINT>  (1) 
12423570 1 11416528350006299935
13024252 1 13479947144229379806
13380535 76 18335416859577333867
13571099 52 18273492381701666568
14897335 6 18410568453692594357
16945 1 18263657327590233967
20510252 161 18198348552918887328
20511035 2 18190197705940161071
20645464 45 18058734744431089484
20871998 184 17980769551510560070
21040471 1 18334871505946616967
23211744 41 18059303170151263374
23402539 116 18054776545336432295
2748010 2 18262533489478742071
305870 269 18411413999471988634
369184 2 18058731445637626402
5084963 1 18127434412440264910
53812653 166 18337679590077480310
54338 74 17689703582004476518
7364860 26 18126848200902017222

>  <PUBCHEM_SHAPE_MULTIPOLES>  (1) 
227.11
4.56
2.24
0.87
0.96
0.86
-0.05
-3.25
-1.14
-0.08
-0.23
0.35
-0.13
0.5

>  <PUBCHEM_SHAPE_SELFOVERLAP>  (1) 
456.023

>  <PUBCHEM_SHAPE_VOLUME>  (1) 
136.5

>  <PUBCHEM_COORDINATE_TYPE>  (1) 
2
5
10

$$$$
