29510
     RDKit          3D

 11 12  0  0  0  0  0  0  0  0999 V2000
    3.7957    0.8264   -0.0007 Cl  0  0  0  0  0  0  0  0  0  0  0  0
   -1.7132   -1.0014   -0.0007 O   0  0  0  0  0  0  0  0  0  0  0  0
   -1.4177    1.2456   -0.0002 N   0  0  0  0  0  0  0  0  0  0  0  0
   -0.1934    0.6221    0.0002 C   0  0  0  0  0  0  0  0  0  0  0  0
   -0.3704   -0.7536    0.0000 C   0  0  0  0  0  0  0  0  0  0  0  0
   -2.2682    0.2429   -0.0002 C   0  0  0  0  0  0  0  0  0  0  0  0
    1.1106    1.1377    0.0004 C   0  0  0  0  0  0  0  0  0  0  0  0
    0.6610   -1.6846    0.0001 C   0  0  0  0  0  0  0  0  0  0  0  0
    2.1785    0.2285    0.0005 C   0  0  0  0  0  0  0  0  0  0  0  0
    1.9556   -1.1539    0.0004 C   0  0  0  0  0  0  0  0  0  0  0  0
   -3.7386    0.2904    0.0004 C   0  0  0  0  0  0  0  0  0  0  0  0
  1  9  1  0
  2  5  1  0
  2  6  1  0
  3  4  1  0
  3  6  2  0
  4  5  2  0
  4  7  1  0
  5  8  1  0
  6 11  1  0
  7  9  2  0
  8 10  2  0
  9 10  1  0
M  END
>  <PUBCHEM_COMPOUND_CID>  (1) 
29510

>  <PUBCHEM_CONFORMER_RMSD>  (1) 
0.4

>  <PUBCHEM_CONFORMER_DIVERSEORDER>  (1) 
1

>  <PUBCHEM_MMFF94_PARTIAL_CHARGES>  (1) 
14
1 -0.18
10 -0.15
11 0.18
12 0.15
13 0.15
14 0.15
2 -0.28
3 -0.57
4 0.23
5 0.14
6 0.3
7 -0.15
8 -0.15
9 0.18

>  <PUBCHEM_EFFECTIVE_ROTOR_COUNT>  (1) 
0

>  <PUBCHEM_PHARMACOPHORE_FEATURES>  (1) 
2
5 2 3 4 5 6 rings
6 4 5 7 8 9 10 rings

>  <PUBCHEM_HEAVY_ATOM_COUNT>  (1) 
11

>  <PUBCHEM_ATOM_DEF_STEREO_COUNT>  (1) 
0

>  <PUBCHEM_ATOM_UDEF_STEREO_COUNT>  (1) 
0

>  <PUBCHEM_BOND_DEF_STEREO_COUNT>  (1) 
0

>  <PUBCHEM_BOND_UDEF_STEREO_COUNT>  (1) 
0

>  <PUBCHEM_ISOTOPIC_ATOM_COUNT>  (1) 
0

>  <PUBCHEM_COMPONENT_COUNT>  (1) 
1

>  <PUBCHEM_CACTVS_TAUTO_COUNT>  (1) 
1

>  <PUBCHEM_CONFORMER_ID>  (1) 
0000734600000001

>  <PUBCHEM_MMFF94_ENERGY>  (1) 
15.2014

>  <PUBCHEM_FEATURE_SELFOVERLAP>  (1) 
10.267

>  <PUBCHEM_SHAPE_FINGERPRINT>  (1) 
10219947 1 18260550017335339708
11062470 55 17603302656807913005
11471102 20 18410569553162037165
12897270 3 18411138030337376780
12932764 1 16988266604269678465
13380535 76 18409448102546186818
14325111 11 18410855442953729761
15775835 57 18342459257085607652
16945 1 18410573989451706181
193761 8 17834113044196650660
20201158 50 18409167701253011587
20645477 70 18267579122748319543
21040471 1 18338797922262516262
23235685 24 18409442609340790592
23402539 116 18272642476693835156
23402655 69 18341319004179011453
23463225 33 18334289838947712746
23552423 10 18191308178071158210
23559900 14 18200318840267201012
2748010 2 18193274079133847300
369184 2 16226042305828182968
5084963 1 18272088249370449554
528886 8 18411414033562695130
53812653 166 18343297106695252768
7364860 26 18270399370005103294

>  <PUBCHEM_SHAPE_MULTIPOLES>  (1) 
217.39
5.22
1.48
0.6
0.51
0.36
0
-1.43
0
-0.42
0
-0.04
0
0

>  <PUBCHEM_SHAPE_SELFOVERLAP>  (1) 
466.247

>  <PUBCHEM_SHAPE_VOLUME>  (1) 
123.8

>  <PUBCHEM_COORDINATE_TYPE>  (1) 
2
5
10

$$$$
