29528
     RDKit          3D

 18 19  0  0  0  0  0  0  0  0999 V2000
    0.9931   -1.6731   -0.4258 O   0  0  0  0  0  0  0  0  0  0  0  0
   -5.1045   -1.2990    0.4061 O   0  0  0  0  0  0  0  0  0  0  0  0
   -4.9326    0.9280   -1.1621 O   0  0  0  0  0  0  0  0  0  0  0  0
    0.4824    0.4730    0.3081 N   0  0  0  0  0  0  0  0  0  0  0  0
   -0.8838    0.3387    0.3332 C   0  0  0  0  0  0  0  0  0  0  0  0
    2.7819   -0.2069   -0.0579 C   0  0  0  0  0  0  0  0  0  0  0  0
    1.3355   -0.5476   -0.0718 C   0  0  0  0  0  0  0  0  0  0  0  0
   -1.4064   -0.8665    0.6014 C   0  0  0  0  0  0  0  0  0  0  0  0
   -1.6299    1.5491    0.0829 C   0  0  0  0  0  0  0  0  0  0  0  0
    3.6332   -0.8842   -0.9058 C   0  0  0  0  0  0  0  0  0  0  0  0
    3.2262    0.7757    0.8020 C   0  0  0  0  0  0  0  0  0  0  0  0
   -2.7901   -1.2460    0.7127 C   0  0  0  0  0  0  0  0  0  0  0  0
   -2.9077    1.6914   -0.2811 C   0  0  0  0  0  0  0  0  0  0  0  0
   -3.8883   -0.6467    0.2404 C   0  0  0  0  0  0  0  0  0  0  0  0
    4.9909   -0.5645   -0.8930 C   0  0  0  0  0  0  0  0  0  0  0  0
    4.5839    1.0954    0.8145 C   0  0  0  0  0  0  0  0  0  0  0  0
   -3.9499    0.6580   -0.4710 C   0  0  0  0  0  0  0  0  0  0  0  0
    5.4661    0.4253   -0.0330 C   0  0  0  0  0  0  0  0  0  0  0  0
  1  7  2  0
  2 14  1  0
  3 17  2  0
  4  5  1  0
  4  7  1  0
  5  8  2  0
  5  9  1  0
  6  7  1  0
  6 10  2  0
  6 11  1  0
  8 12  1  0
  9 13  2  0
 10 15  1  0
 11 16  2  0
 12 14  2  0
 13 17  1  0
 14 17  1  0
 15 18  2  0
 16 18  1  0
M  END
>  <PUBCHEM_COMPOUND_CID>  (1) 
29528

>  <PUBCHEM_CONFORMER_RMSD>  (1) 
0.6

>  <PUBCHEM_CONFORMER_DIVERSEORDER>  (1) 
1
6
7
5
2
4
3

>  <PUBCHEM_MMFF94_PARTIAL_CHARGES>  (1) 
29
1 -0.57
10 -0.15
11 -0.15
12 -0.15
13 -0.14
14 0.09
15 -0.15
16 -0.15
17 0.54
18 -0.15
19 0.37
2 -0.53
20 0.15
21 0.15
22 0.15
23 0.15
24 0.15
25 0.15
26 0.15
27 0.15
28 0.15
29 0.45
3 -0.57
4 -0.54
5 0.11
6 0.09
7 0.54
8 -0.15
9 -0.15

>  <PUBCHEM_EFFECTIVE_ROTOR_COUNT>  (1) 
3

>  <PUBCHEM_PHARMACOPHORE_FEATURES>  (1) 
6
1 1 acceptor
1 2 donor
1 3 acceptor
1 4 donor
6 6 10 11 15 16 18 rings
7 5 8 9 12 13 14 17 rings

>  <PUBCHEM_HEAVY_ATOM_COUNT>  (1) 
18

>  <PUBCHEM_ATOM_DEF_STEREO_COUNT>  (1) 
0

>  <PUBCHEM_ATOM_UDEF_STEREO_COUNT>  (1) 
0

>  <PUBCHEM_BOND_DEF_STEREO_COUNT>  (1) 
0

>  <PUBCHEM_BOND_UDEF_STEREO_COUNT>  (1) 
0

>  <PUBCHEM_ISOTOPIC_ATOM_COUNT>  (1) 
0

>  <PUBCHEM_COMPONENT_COUNT>  (1) 
1

>  <PUBCHEM_CACTVS_TAUTO_COUNT>  (1) 
8

>  <PUBCHEM_CONFORMER_ID>  (1) 
0000735800000001

>  <PUBCHEM_MMFF94_ENERGY>  (1) 
69.3448

>  <PUBCHEM_FEATURE_SELFOVERLAP>  (1) 
30.446

>  <PUBCHEM_SHAPE_FINGERPRINT>  (1) 
10 15 18269825563044135072
10498660 4 18333731291067121180
10912923 1 15791733031097633810
11089746 13 15936413355724246332
11128504 68 15195280958752598608
11471102 20 17846781810946366202
11615757 297 16917348130116430856
12236239 1 16588021316437975840
12403259 415 18343018904336091008
12596602 18 16226054422247741608
12670546 56 15647048279013912788
128620 24 18202566176522824972
13081056 2 18343866632359583640
13760787 5 16630527340677334368
1420 363 18342179976816099211
14386348 63 18342178877309733298
14573314 32 18410014316932910830
15375358 24 18411136930831192571
15961568 22 17968661648384021444
16988056 13 14580498527980872109
17834072 33 15770055046890941474
17844677 252 17989213637629600392
19489759 90 17894910736990840315
200 152 17346598560495455081
20279233 1 18413394228624925458
20645477 56 18187365381604696565
20645477 70 17775290413788940822
21033648 29 18131058342594012752
21065201 7 18259984851574270402
21079973 296 18409168835208656867
21267235 1 18334585676237201419
2297311 6 18410023138479316501
23402539 116 18040147427048334111
23557571 272 18409176497414644677
23559900 14 18408886201018239002
23596394 208 18200602393327536302
300161 21 17240758475820356088
3268164 11 18186794777597223269
34797466 226 18267041586073963620
351380 180 18409445895249209024
3545911 37 18333734589285090638
4028521 119 18408039589575064061
4214541 1 18409731733612187416
5104073 3 18339081484329596122
5281201 14 18060145310628558540
5283173 99 18335697192003592869
542803 24 16298389063087404548
69090 78 17846498158089323518
9709674 26 18409737243955332714

>  <PUBCHEM_SHAPE_MULTIPOLES>  (1) 
347.84
12.3
1.54
0.92
3.02
0.1
-0.06
0.48
-1.47
-0.91
0
0.14
0.01
1.44

>  <PUBCHEM_SHAPE_SELFOVERLAP>  (1) 
750.155

>  <PUBCHEM_SHAPE_VOLUME>  (1) 
188.3

>  <PUBCHEM_COORDINATE_TYPE>  (1) 
2
5
10

$$$$
