2952
     RDKit          3D

 23 25  0  0  0  0  0  0  0  0999 V2000
    0.2282   -0.2543   -0.0004 O   0  0  0  0  0  0  0  0  0  0  0  0
   -6.0990    2.9671    0.0010 O   0  0  0  0  0  0  0  0  0  0  0  0
   -6.0935   -1.6221   -0.0002 O   0  0  0  0  0  0  0  0  0  0  0  0
    7.4234    0.3059    0.0008 O   0  0  0  0  0  0  0  0  0  0  0  0
    6.5543    2.3264   -0.0011 O   0  0  0  0  0  0  0  0  0  0  0  0
   -4.3812   -0.0162    0.0000 N   0  0  0  0  0  0  0  0  0  0  0  0
   -6.4762    0.6732    0.0001 N   0  0  0  0  0  0  0  0  0  0  0  0
   -3.3246   -0.8538    0.0002 N   0  0  0  0  0  0  0  0  0  0  0  0
    6.4351    1.0780    0.0002 N   0  0  0  0  0  0  0  0  0  0  0  0
   -4.2393    1.4076   -0.0002 C   0  0  0  0  0  0  0  0  0  0  0  0
    1.2425   -1.1544   -0.0004 C   0  0  0  0  0  0  0  0  0  0  0  0
    2.5676   -0.5849    0.0001 C   0  0  0  0  0  0  0  0  0  0  0  0
   -0.9235   -0.9752   -0.0002 C   0  0  0  0  0  0  0  0  0  0  0  0
   -5.7019    1.8103   -0.0002 C   0  0  0  0  0  0  0  0  0  0  0  0
   -5.6951   -0.4655    0.0000 C   0  0  0  0  0  0  0  0  0  0  0  0
    0.7610   -2.4379   -0.0004 C   0  0  0  0  0  0  0  0  0  0  0  0
   -0.6496   -2.3232   -0.0002 C   0  0  0  0  0  0  0  0  0  0  0  0
    3.6854   -1.4191    0.0007 C   0  0  0  0  0  0  0  0  0  0  0  0
    2.7313    0.8004   -0.0006 C   0  0  0  0  0  0  0  0  0  0  0  0
   -2.1552   -0.2624    0.0002 C   0  0  0  0  0  0  0  0  0  0  0  0
    5.1305    0.5170    0.0003 C   0  0  0  0  0  0  0  0  0  0  0  0
    4.9669   -0.8682    0.0009 C   0  0  0  0  0  0  0  0  0  0  0  0
    4.0127    1.3513   -0.0006 C   0  0  0  0  0  0  0  0  0  0  0  0
  1 11  1  0
  1 13  1  0
  2 14  2  0
  3 15  2  0
  4  9  1  0
  5  9  2  0
  6  8  1  0
  6 10  1  0
  6 15  1  0
  7 14  1  0
  7 15  1  0
  8 20  2  0
  9 21  1  0
 10 14  1  0
 11 12  1  0
 11 16  2  0
 12 18  2  0
 12 19  1  0
 13 17  2  0
 13 20  1  0
 16 17  1  0
 18 22  1  0
 19 23  2  0
 21 22  2  0
 21 23  1  0
M  CHG  2   4  -1   9   1
M  END
>  <PUBCHEM_COMPOUND_CID>  (1) 
2952

>  <PUBCHEM_CONFORMER_RMSD>  (1) 
0.8

>  <PUBCHEM_CONFORMER_DIVERSEORDER>  (1) 
1
4
7
6
2
8
3
5

>  <PUBCHEM_MMFF94_PARTIAL_CHARGES>  (1) 
31
1 -0.28
10 0.36
11 0.09
12 0.05
13 0.05
14 0.57
15 0.69
16 -0.15
17 -0.15
18 -0.15
19 -0.15
2 -0.57
20 0.47
21 0.13
22 -0.15
23 -0.15
26 0.15
27 0.37
28 0.15
29 0.15
3 -0.57
30 0.15
31 0.06
32 0.15
33 0.15
4 -0.52
5 -0.52
6 -0.3
7 -0.49
8 -0.51
9 0.91

>  <PUBCHEM_EFFECTIVE_ROTOR_COUNT>  (1) 
4.6

>  <PUBCHEM_PHARMACOPHORE_FEATURES>  (1) 
11
1 1 acceptor
1 2 acceptor
1 3 acceptor
1 4 acceptor
1 4 anion
1 5 acceptor
1 7 donor
1 8 acceptor
5 1 11 13 16 17 rings
5 6 7 10 14 15 rings
6 12 18 19 21 22 23 rings

>  <PUBCHEM_HEAVY_ATOM_COUNT>  (1) 
23

>  <PUBCHEM_ATOM_DEF_STEREO_COUNT>  (1) 
0

>  <PUBCHEM_ATOM_UDEF_STEREO_COUNT>  (1) 
0

>  <PUBCHEM_BOND_DEF_STEREO_COUNT>  (1) 
0

>  <PUBCHEM_BOND_UDEF_STEREO_COUNT>  (1) 
1

>  <PUBCHEM_ISOTOPIC_ATOM_COUNT>  (1) 
0

>  <PUBCHEM_COMPONENT_COUNT>  (1) 
1

>  <PUBCHEM_CACTVS_TAUTO_COUNT>  (1) 
3

>  <PUBCHEM_CONFORMER_ID>  (1) 
00000B8800000001

>  <PUBCHEM_MMFF94_ENERGY>  (1) 
55.0114

>  <PUBCHEM_FEATURE_SELFOVERLAP>  (1) 
55.907

>  <PUBCHEM_SHAPE_FINGERPRINT>  (1) 
10 15 18187651284776767473
10411042 1 17762055442276800186
10595046 47 18411696574372244743
12236239 1 18413106147582630415
13167372 99 18410009901643311336
13288520 33 9511460022736575019
13402501 40 18410009931502808693
13631057 29 18271803584378503495
13785724 45 17761206618777872730
14251764 18 18187079564241800946
14556957 393 15482122672903356832
14933364 13 18411703179393220327
15183329 4 17703793608607812577
15196674 1 18410856534334170465
15419008 145 18115856431227116704
15475509 35 15864621740737874826
15961568 22 18335140865074358685
16989713 51 17488732532515640879
18006028 8 11025792111046533598
19611394 137 17897459495787360987
20281389 69 18334011700976098080
20526848 3 18409169913425127492
20554085 129 17774989199427770818
21033648 29 18341040921957335424
21585482 111 18189617142199940805
22224240 67 17894630366227296499
23035841 295 10015868682274824207
23272321 79 18410292510755158127
2838139 119 18341890830996247052
2916195 48 18410855468929248931
293599 30 18411699898281020146
335352 9 18411140256275181022
351380 3 9151173142693272457
3545911 37 18412826919353720562
4073 2 18186807980496106915
4325135 7 18342736351966128391
4340502 62 16443344269773757346
5104073 3 18114467743624514171
59682541 35 18261122898329121595
59682541 52 17417826002523316494
59755656 520 18187358865496204514
636775 72 18268987764732153888
77188 2 17329145771789512818

>  <PUBCHEM_SHAPE_MULTIPOLES>  (1) 
424.06
19.75
2.46
0.58
2.56
0.43
0
12.2
0
1.15
0
-0.02
-0.02
0

>  <PUBCHEM_SHAPE_SELFOVERLAP>  (1) 
932.794

>  <PUBCHEM_SHAPE_VOLUME>  (1) 
230.2

>  <PUBCHEM_COORDINATE_TYPE>  (1) 
2
5
10

$$$$
