29533
     RDKit          3D

 15 14  0  0  1  0  0  0  0  0999 V2000
    5.9022   -0.6656   -0.6257 S   0  0  0  0  0  0  0  0  0  0  0  0
   -0.4223    1.5995    0.9074 S   0  0  0  0  0  0  0  0  0  0  0  0
   -1.3858   -0.1773    0.5356 S   0  0  0  0  0  0  0  0  0  0  0  0
    6.4935   -1.8688    0.2618 O   0  0  0  0  0  0  0  0  0  0  0  0
    6.7277    0.5518   -0.3531 O   0  0  0  0  0  0  0  0  0  0  0  0
   -5.8238   -0.7992   -1.2668 O   0  0  0  0  0  0  0  0  0  0  0  0
   -4.5363    0.2183    0.3856 N   0  0  0  0  0  0  0  0  0  0  0  0
    2.1055    0.5620    0.5674 C   0  0  0  0  0  0  0  0  0  0  0  0
    3.3848    0.3888   -0.2587 C   0  0  0  0  0  0  0  0  0  0  0  0
    1.0610    1.4314   -0.1284 C   0  0  0  0  0  0  0  0  0  0  0  0
    4.3995   -0.5410    0.3950 C   0  0  0  0  0  0  0  0  0  0  0  0
   -2.4192    0.2538   -0.8852 C   0  0  0  0  0  0  0  0  0  0  0  0
   -3.6839    0.9950   -0.4734 C   0  0  0  0  0  0  0  0  0  0  0  0
   -5.5395   -0.6175   -0.0859 C   0  0  0  0  0  0  0  0  0  0  0  0
   -6.2635   -1.3312    1.0243 C   0  0  0  0  0  0  0  0  0  0  0  0
  1  4  1  0
  1  5  2  0
  1 11  1  0
  2  3  1  0
  2 10  1  0
  3 12  1  0
  6 14  2  0
  7 13  1  0
  7 14  1  0
  8  9  1  0
  8 10  1  0
  9 11  1  0
 12 13  1  0
 14 15  1  0
M  END
>  <PUBCHEM_COMPOUND_CID>  (1) 
29533

>  <PUBCHEM_CONFORMER_RMSD>  (1) 
1

>  <PUBCHEM_CONFORMER_DIVERSEORDER>  (1) 
1
232
326
228
155
218
185
111
115
119
183
102
77
181
47
291
325
3
315
290
56
74
219
96
32
233
333
107
225
208
249
68
341
178
302
319
206
4
234
109
95
306
227
353
176
352
2
133
342
175
152
351
124
70
316
210
313
298
151
253
139
41
99
296
45
58
254
300
177
162
134
269
237
286
67
190
216
251
236
87
222
84
125
203
160
28
260
80
105
51
88
69
106
268
128
52
346
299
101
199
117
90
165
6
57
243
349
294
150
192
9
186
33
163
153
82
317
13
331
304
245
340
27
281
76
114
356
11
48
229
263
127
63
104
198
197
258
100
65
277
207
357
345
284
265
287
108
230
173
221
20
231
280
123
297
223
193
355
239
83
59
156
44
329
168
310
29
60
148
270
89
308
338
154
318
309
204
354
53
264
30
49
19
42
26
85
158
194
50
145
213
224
121
205
191
274
112
275
330
36
46
276
323
66
81
144
180
138
332
73
78
334
226
169
212
93
5
343
10
116
201
214
235
149
157
282
61
40
196
170
336
267
17
171
131
25
324
137
167
305
39
64
347
135
31
288
314
187
62
261
350
23
301
240
24
348
172
312
202
246
242
94
311
130
220
92
22
113
159
14
271
103
295
195
120
189
132
72
55
174
322
136
118
293
182
143
339
35
292
321
146
142
257
16
54
161
217
250
211
8
244
238
344
122
7
247
18
15
71
241
141
97
188
215
262
273
289
200
255
110
38
184
283
248
252
12
79
278
337
91
327
209
37
166
179
34
328
164
86
75
21
140
303
147
335
98
259
285
126
43
279
320
272
256
129
307
266

>  <PUBCHEM_MMFF94_PARTIAL_CHARGES>  (1) 
15
1 0.36
10 0.23
11 0.19
12 0.23
13 0.3
14 0.57
15 0.06
2 -0.23
28 0.37
3 -0.23
32 0.5
4 -0.55
5 -0.5
6 -0.57
7 -0.73

>  <PUBCHEM_EFFECTIVE_ROTOR_COUNT>  (1) 
10

>  <PUBCHEM_PHARMACOPHORE_FEATURES>  (1) 
4
1 6 acceptor
1 7 donor
3 2 3 12 hydrophobe
3 8 9 10 hydrophobe

>  <PUBCHEM_HEAVY_ATOM_COUNT>  (1) 
15

>  <PUBCHEM_ATOM_DEF_STEREO_COUNT>  (1) 
0

>  <PUBCHEM_ATOM_UDEF_STEREO_COUNT>  (1) 
0

>  <PUBCHEM_BOND_DEF_STEREO_COUNT>  (1) 
0

>  <PUBCHEM_BOND_UDEF_STEREO_COUNT>  (1) 
0

>  <PUBCHEM_ISOTOPIC_ATOM_COUNT>  (1) 
0

>  <PUBCHEM_COMPONENT_COUNT>  (1) 
1

>  <PUBCHEM_CACTVS_TAUTO_COUNT>  (1) 
2

>  <PUBCHEM_CONFORMER_ID>  (1) 
0000735D00000001

>  <PUBCHEM_MMFF94_ENERGY>  (1) 
2.1866

>  <PUBCHEM_FEATURE_SELFOVERLAP>  (1) 
20.297

>  <PUBCHEM_SHAPE_FINGERPRINT>  (1) 
12596602 18 16128370514985779763
12616971 3 15626214749560011040
12714333 28 13262396661345836956
13167372 99 9799696995742035398
13288520 33 18408323294246612173
13403585 85 12967133800575996051
13533116 47 18201719587525606408
13668630 136 18335424547732551378
13685833 64 18343586248114525626
13862211 1 18202279217126065535
14123256 10 15719392841307572945
14123256 34 18411143545212697299
1420 363 17846781806229464116
14251718 22 17748545943877047080
14251752 14 18336262327958074788
14251757 52 12679172856718840314
14251764 18 16773512260833140948
14350574 20 18333732437691435985
14729087 3 10881405352684014790
15048467 5 8430321238344604775
15501527 16 9655575214685379033
15501527 24 15140959564959471805
15716309 27 18272371970936861223
17834072 8 17603304868758177633
17834076 25 10735878374440202797
20281389 69 10879993557957334363
20526848 3 10737285727411238775
20621476 21 17822865298401846963
20767249 213 8358255942955613328
21150785 3 17240768406016794504
23402539 116 18272368637884490689
23402655 69 13117997803549339953
23559900 14 18114743857785927449
23590187 198 17989484152176299479
246663 6 18187089481664166115
2767999 5 11097854103257118542
300161 21 10231759976791057705
351380 3 18273491260868046854
465052 167 18272936012212863694
59682541 52 14779539029659179562
59755656 520 8934999248389246336

>  <PUBCHEM_SHAPE_MULTIPOLES>  (1) 
297.65
19.41
1.5
1.01
7.66
0.01
-0.03
-10.64
-1.55
0.36
0.24
-0.86
-0.05
0.18

>  <PUBCHEM_SHAPE_SELFOVERLAP>  (1) 
513.213

>  <PUBCHEM_SHAPE_VOLUME>  (1) 
199

>  <PUBCHEM_COORDINATE_TYPE>  (1) 
2
5
10

$$$$
