29538
     RDKit          3D

 39 41  0  0  0  0  0  0  0  0999 V2000
    3.6509   -0.3325   -0.8699 O   0  0  0  0  0  0  0  0  0  0  0  0
   -2.4884   -0.2371    0.2442 O   0  0  0  0  0  0  0  0  0  0  0  0
   -0.4484    2.0777   -1.1432 O   0  0  0  0  0  0  0  0  0  0  0  0
    5.6846    2.1282    0.2014 O   0  0  0  0  0  0  0  0  0  0  0  0
   -6.5787    2.2036    0.2266 O   0  0  0  0  0  0  0  0  0  0  0  0
    9.7956   -0.2766    0.2755 O   0  0  0  0  0  0  0  0  0  0  0  0
   -2.6200   -0.3646   -2.0804 O   0  0  0  0  0  0  0  0  0  0  0  0
    3.5451   -0.1744    1.4533 O   0  0  0  0  0  0  0  0  0  0  0  0
   -8.5622   -0.1021    1.6657 O   0  0  0  0  0  0  0  0  0  0  0  0
   -8.8172   -0.2118   -0.6194 O   0  0  0  0  0  0  0  0  0  0  0  0
   -0.4979   -0.3176   -0.9949 C   0  0  0  0  0  0  0  0  0  0  0  0
    0.1925   -1.5259   -0.8987 C   0  0  0  0  0  0  0  0  0  0  0  0
    0.2058    0.8854   -1.0490 C   0  0  0  0  0  0  0  0  0  0  0  0
    2.2905   -0.3277   -0.9109 C   0  0  0  0  0  0  0  0  0  0  0  0
    5.6721   -0.2654    0.3802 C   0  0  0  0  0  0  0  0  0  0  0  0
    1.5867   -1.5309   -0.8568 C   0  0  0  0  0  0  0  0  0  0  0  0
    6.3422   -1.4719    0.4531 C   0  0  0  0  0  0  0  0  0  0  0  0
    1.5999    0.8804   -1.0070 C   0  0  0  0  0  0  0  0  0  0  0  0
   -5.9519   -1.4070    0.3903 C   0  0  0  0  0  0  0  0  0  0  0  0
   -6.6377   -0.1930    0.3473 C   0  0  0  0  0  0  0  0  0  0  0  0
   -3.8853   -0.2224    0.2789 C   0  0  0  0  0  0  0  0  0  0  0  0
    6.3444    0.9375    0.2733 C   0  0  0  0  0  0  0  0  0  0  0  0
   -1.9560   -0.3063   -1.0393 C   0  0  0  0  0  0  0  0  0  0  0  0
   -4.5577   -1.4218    0.3556 C   0  0  0  0  0  0  0  0  0  0  0  0
   -5.9291    1.0060    0.2697 C   0  0  0  0  0  0  0  0  0  0  0  0
   -0.5341   -2.8301   -0.8383 C   0  0  0  0  0  0  0  0  0  0  0  0
   -4.5348    0.9911    0.2351 C   0  0  0  0  0  0  0  0  0  0  0  0
    7.7365   -1.4757    0.4176 C   0  0  0  0  0  0  0  0  0  0  0  0
    4.1878   -0.2550    0.4174 C   0  0  0  0  0  0  0  0  0  0  0  0
    8.4349   -0.2729    0.3100 C   0  0  0  0  0  0  0  0  0  0  0  0
    7.7387    0.9336    0.2379 C   0  0  0  0  0  0  0  0  0  0  0  0
    5.6214   -2.7756    0.5694 C   0  0  0  0  0  0  0  0  0  0  0  0
   -6.6838   -2.7071    0.4741 C   0  0  0  0  0  0  0  0  0  0  0  0
   -8.0959   -0.1714    0.3831 C   0  0  0  0  0  0  0  0  0  0  0  0
   -0.7970    2.7231    0.0796 C   0  0  0  0  0  0  0  0  0  0  0  0
    5.4037    2.7881    1.4336 C   0  0  0  0  0  0  0  0  0  0  0  0
   -6.9193    2.7092   -1.0624 C   0  0  0  0  0  0  0  0  0  0  0  0
   10.4456    0.9886    0.1644 C   0  0  0  0  0  0  0  0  0  0  0  0
   -9.9839   -0.0758    1.8327 C   0  0  0  0  0  0  0  0  0  0  0  0
  1 14  1  0
  1 29  1  0
  2 21  1  0
  2 23  1  0
  3 13  1  0
  3 35  1  0
  4 22  1  0
  4 36  1  0
  5 25  1  0
  5 37  1  0
  6 30  1  0
  6 38  1  0
  7 23  2  0
  8 29  2  0
  9 34  1  0
  9 39  1  0
 10 34  2  0
 11 12  2  0
 11 13  1  0
 11 23  1  0
 12 16  1  0
 12 26  1  0
 13 18  2  0
 14 16  2  0
 14 18  1  0
 15 17  2  0
 15 22  1  0
 15 29  1  0
 17 28  1  0
 17 32  1  0
 19 20  2  0
 19 24  1  0
 19 33  1  0
 20 25  1  0
 20 34  1  0
 21 24  2  0
 21 27  1  0
 22 31  2  0
 25 27  2  0
 28 30  2  0
 30 31  1  0
M  END
>  <PUBCHEM_COMPOUND_CID>  (1) 
29538

>  <PUBCHEM_CONFORMER_RMSD>  (1) 
1.2

>  <PUBCHEM_CONFORMER_DIVERSEORDER>  (1) 
3
107
127
194
102
33
150
93
5
77
76
124
108
118
94
143
87
163
131
189
123
159
135
11
92
126
136
125
62
101
89
121
196
164
90
78
157
26
140
149
105
188
154
158
96
113
56
68
57
63
66
74
10
179
142
54
169
186
115
111
99
141
112
95
64
67
106
46
119
120
138
36
81
104
100
183
174
23
116
65
18
97
190
71
82
50
86
61
17
191
137
47
184
166
88
139
38
148
128
178
52
31
182
195
114
162
129
117
32
180
85
30
152
132
45
70
12
49
192
41
84
43
176
160
109
58
98
146
27
145
170
34
29
133
187
53
19
60
9
177
130
185
22
181
103
72
35
165
122
193
79
83
175
40
91
1
173
44
37
20
75
151
171
161
8
147
110
59
80
42
7
156
69
39
153
2
144
55
15
172
16
73
168
48
14
4
155
51
24
25
167
6
134
13
28
21

>  <PUBCHEM_MMFF94_PARTIAL_CHARGES>  (1) 
45
1 -0.23
10 -0.57
11 0.09
12 -0.14
13 0.08
14 0.08
15 0.09
16 -0.15
17 -0.14
18 -0.15
19 -0.14
2 -0.23
20 0.09
21 0.08
22 0.08
23 0.63
24 -0.15
25 0.08
26 0.14
27 -0.15
28 -0.15
29 0.63
3 -0.36
30 0.08
31 -0.15
32 0.14
33 0.14
34 0.63
35 0.28
36 0.28
37 0.28
38 0.28
39 0.28
4 -0.36
40 0.15
41 0.15
42 0.15
46 0.15
47 0.15
48 0.15
5 -0.36
6 -0.36
7 -0.57
8 -0.57
9 -0.43

>  <PUBCHEM_EFFECTIVE_ROTOR_COUNT>  (1) 
12

>  <PUBCHEM_PHARMACOPHORE_FEATURES>  (1) 
10
1 10 acceptor
1 3 acceptor
1 4 acceptor
1 5 acceptor
1 6 acceptor
1 7 acceptor
1 8 acceptor
6 11 12 13 14 16 18 rings
6 15 17 22 28 30 31 rings
6 19 20 21 24 25 27 rings

>  <PUBCHEM_HEAVY_ATOM_COUNT>  (1) 
39

>  <PUBCHEM_ATOM_DEF_STEREO_COUNT>  (1) 
0

>  <PUBCHEM_ATOM_UDEF_STEREO_COUNT>  (1) 
0

>  <PUBCHEM_BOND_DEF_STEREO_COUNT>  (1) 
0

>  <PUBCHEM_BOND_UDEF_STEREO_COUNT>  (1) 
0

>  <PUBCHEM_ISOTOPIC_ATOM_COUNT>  (1) 
0

>  <PUBCHEM_COMPONENT_COUNT>  (1) 
1

>  <PUBCHEM_CACTVS_TAUTO_COUNT>  (1) 
1

>  <PUBCHEM_CONFORMER_ID>  (1) 
0000736200000003

>  <PUBCHEM_MMFF94_ENERGY>  (1) 
183.4557

>  <PUBCHEM_FEATURE_SELFOVERLAP>  (1) 
50.754

>  <PUBCHEM_SHAPE_FINGERPRINT>  (1) 
10 15 18273496775442700079
10165383 225 17775286067229289326
10580692 12 18408322181069204912
106641 1 18333452049568038142
10674148 151 15430034353668143085
11135609 127 8934703497869716794
11409948 35 15338572531779744068
12013929 2 18409728417965987286
12013929 94 18262802989855016650
12741549 16 17676489450010923669
13811026 1 18410573963676614677
14150022 121 18059297565404474873
14394314 77 18187927240235459049
15183329 4 14333408947893478230
15247644 1 15357699690651381315
15301273 46 18408602535355032510
15392192 104 17418092126586103206
15461852 350 17704063011296377359
18603816 31 15285646538553993091
18608769 82 18187080685708521058
19315958 150 18131077000386049223
19841028 212 16516237445172085762
20105231 36 18261112946985536566
21130935 74 18334294257884310130
21792934 111 18408599266647803364
23576562 1 11095296630858594507
24771293 8 18202849842428631549
3383291 50 17240492437631699059
504579 68 10879992429166802561
6691757 9 16486974033746795663
9663363 56 16515681152739660687
9962374 69 15502382269867199894

>  <PUBCHEM_SHAPE_MULTIPOLES>  (1) 
743.91
33.61
2.68
1.27
4.94
0.34
-0.03
2.38
13.27
-0.15
0.03
-1.3
0.1
1.06

>  <PUBCHEM_SHAPE_SELFOVERLAP>  (1) 
1602.212

>  <PUBCHEM_SHAPE_VOLUME>  (1) 
410.5

>  <PUBCHEM_COORDINATE_TYPE>  (1) 
2
5
10

$$$$
