29539
     RDKit          3D

 14 14  0  0  0  0  0  0  0  0999 V2000
    3.2080    0.5711   -0.2756 O   0  0  0  0  0  0  0  0  0  0  0  0
   -2.7288   -1.8073    0.4415 O   0  0  0  0  0  0  0  0  0  0  0  0
   -3.0089    1.6352   -0.3363 O   0  0  0  0  0  0  0  0  0  0  0  0
   -2.2147   -0.5177    0.1314 N   0  0  0  0  0  0  0  0  0  0  0  0
   -0.8506   -0.2435    0.0295 C   0  0  0  0  0  0  0  0  0  0  0  0
    1.8773    0.3037   -0.1762 C   0  0  0  0  0  0  0  0  0  0  0  0
   -0.3684    1.0269    0.3442 C   0  0  0  0  0  0  0  0  0  0  0  0
    0.0312   -1.2402   -0.3881 C   0  0  0  0  0  0  0  0  0  0  0  0
    0.9955    1.3006    0.2414 C   0  0  0  0  0  0  0  0  0  0  0  0
    1.3951   -0.9667   -0.4909 C   0  0  0  0  0  0  0  0  0  0  0  0
    4.1069   -0.5145   -0.0535 C   0  0  0  0  0  0  0  0  0  0  0  0
   -3.2096    0.4520   -0.0622 C   0  0  0  0  0  0  0  0  0  0  0  0
    5.4050    0.0268    0.5064 C   0  0  0  0  0  0  0  0  0  0  0  0
   -4.6377   -0.0264    0.0883 C   0  0  0  0  0  0  0  0  0  0  0  0
  1  6  1  0
  1 11  1  0
  2  4  1  0
  3 12  2  0
  4  5  1  0
  4 12  1  0
  5  7  2  0
  5  8  1  0
  6  9  2  0
  6 10  1  0
  7  9  1  0
  8 10  2  0
 11 13  1  0
 12 14  1  0
M  END
>  <PUBCHEM_COMPOUND_CID>  (1) 
29539

>  <PUBCHEM_CONFORMER_RMSD>  (1) 
0.6

>  <PUBCHEM_CONFORMER_DIVERSEORDER>  (1) 
1
30
28
13
34
10
6
31
12
32
2
11
33
25
21
5
19
29
23
27
16
15
17
3
9
18
8
20
22
24
4
7
26
14

>  <PUBCHEM_MMFF94_PARTIAL_CHARGES>  (1) 
18
1 -0.36
10 -0.15
11 0.28
12 0.57
14 0.06
15 0.15
16 0.15
17 0.15
18 0.15
2 -0.44
27 0.4
3 -0.57
4 -0.14
5 0.12
6 0.08
7 -0.15
8 -0.15
9 -0.15

>  <PUBCHEM_EFFECTIVE_ROTOR_COUNT>  (1) 
4

>  <PUBCHEM_PHARMACOPHORE_FEATURES>  (1) 
3
1 1 acceptor
1 3 acceptor
6 5 6 7 8 9 10 rings

>  <PUBCHEM_HEAVY_ATOM_COUNT>  (1) 
14

>  <PUBCHEM_ATOM_DEF_STEREO_COUNT>  (1) 
0

>  <PUBCHEM_ATOM_UDEF_STEREO_COUNT>  (1) 
0

>  <PUBCHEM_BOND_DEF_STEREO_COUNT>  (1) 
0

>  <PUBCHEM_BOND_UDEF_STEREO_COUNT>  (1) 
0

>  <PUBCHEM_ISOTOPIC_ATOM_COUNT>  (1) 
0

>  <PUBCHEM_COMPONENT_COUNT>  (1) 
1

>  <PUBCHEM_CACTVS_TAUTO_COUNT>  (1) 
1

>  <PUBCHEM_CONFORMER_ID>  (1) 
0000736300000001

>  <PUBCHEM_MMFF94_ENERGY>  (1) 
52.185

>  <PUBCHEM_FEATURE_SELFOVERLAP>  (1) 
15.223

>  <PUBCHEM_SHAPE_FINGERPRINT>  (1) 
10465860 250 18411696586892877184
11132069 177 18342740715172638462
11401426 45 18130783460449739860
12032990 46 18342747320853484262
12119455 92 16917063352715960524
124424 183 18407759248322052531
13214271 11 18343862229680540774
13380535 76 18411421696048510999
13675066 3 18342737438318319898
13690532 89 18411700972043748268
13760787 19 17968100845565327578
13922767 16 18131630106099717984
14325111 11 18411140268136761188
16945 1 18270979980325527333
17834076 25 14908179755024823908
18522853 276 18272653437149752521
19026448 5 17313391157842925678
200 152 17561079216084579911
20201158 50 18341898480665277951
20279233 1 18272097092745269159
20645477 70 17417536800573801838
22485316 2 18335417972216541258
23402539 116 18335413578549244325
23402655 69 18200304417397652213
23559900 14 18342460297348836870
2748010 2 18198622335725227957
366044 4 18343300366491183566
4072396 5 18341320094631199346
5104073 3 18339083807864653272
53655031 270 18411136905472715650
53812653 166 18343863320554637634
8809292 202 18334862761583294843

>  <PUBCHEM_SHAPE_MULTIPOLES>  (1) 
265.52
8.96
1.41
0.68
4.28
0.07
0
-0.09
-0.93
-0.68
-0.01
0.09
0.02
0.32

>  <PUBCHEM_SHAPE_SELFOVERLAP>  (1) 
541.335

>  <PUBCHEM_SHAPE_VOLUME>  (1) 
153.8

>  <PUBCHEM_COORDINATE_TYPE>  (1) 
2
5
10

$$$$
