29552
     RDKit          3D

 22 22  0  0  0  0  0  0  0  0999 V2000
   -4.5369   -1.5535   -0.4741 O   0  0  0  0  0  0  0  0  0  0  0  0
    4.5551   -1.5228    0.4795 O   0  0  0  0  0  0  0  0  0  0  0  0
   -5.7535   -2.7684    1.0567 O   0  0  0  0  0  0  0  0  0  0  0  0
    5.7946   -2.7266   -1.0417 O   0  0  0  0  0  0  0  0  0  0  0  0
    0.0154    0.0800   -0.0244 N   0  0  0  0  0  0  0  0  0  0  0  0
   -6.6454   -2.1795   -0.9792 N   0  0  0  0  0  0  0  0  0  0  0  0
    6.6610   -2.1404    1.0059 N   0  0  0  0  0  0  0  0  0  0  0  0
   -1.0490   -0.6714    0.6434 C   0  0  0  0  0  0  0  0  0  0  0  0
    1.0756   -0.6537   -0.6737 C   0  0  0  0  0  0  0  0  0  0  0  0
   -2.2936   -0.7487   -0.2330 C   0  0  0  0  0  0  0  0  0  0  0  0
    2.3108   -0.7280    0.2163 C   0  0  0  0  0  0  0  0  0  0  0  0
   -0.0031    1.4818   -0.0128 C   0  0  0  0  0  0  0  0  0  0  0  0
   -3.4331   -1.5212    0.4211 C   0  0  0  0  0  0  0  0  0  0  0  0
    3.4612   -1.4928   -0.4277 C   0  0  0  0  0  0  0  0  0  0  0  0
    1.0180    2.1979   -0.6375 C   0  0  0  0  0  0  0  0  0  0  0  0
   -1.0425    2.1603    0.6236 C   0  0  0  0  0  0  0  0  0  0  0  0
   -0.0399    4.2711    0.0103 C   0  0  0  0  0  0  0  0  0  0  0  0
    0.9995    3.5925   -0.6260 C   0  0  0  0  0  0  0  0  0  0  0  0
   -1.0609    3.5550    0.6351 C   0  0  0  0  0  0  0  0  0  0  0  0
   -0.0596    5.7622    0.0224 C   0  0  0  0  0  0  0  0  0  0  0  0
   -5.6508   -2.2157   -0.0333 C   0  0  0  0  0  0  0  0  0  0  0  0
    5.6772   -2.1781    0.0489 C   0  0  0  0  0  0  0  0  0  0  0  0
  1 13  1  0
  1 21  1  0
  2 14  1  0
  2 22  1  0
  3 21  2  0
  4 22  2  0
  5  8  1  0
  5  9  1  0
  5 12  1  0
  6 21  1  0
  7 22  1  0
  8 10  1  0
  9 11  1  0
 10 13  1  0
 11 14  1  0
 12 15  2  0
 12 16  1  0
 15 18  1  0
 16 19  2  0
 17 18  2  0
 17 19  1  0
 17 20  1  0
M  END
>  <PUBCHEM_COMPOUND_CID>  (1) 
29552

>  <PUBCHEM_CONFORMER_RMSD>  (1) 
1

>  <PUBCHEM_CONFORMER_DIVERSEORDER>  (1) 
9
41
43
96
51
45
44
20
42
36
71
54
74
3
144
4
93
8
131
137
58
109
127
99
34
107
123
30
78
84
119
132
138
114
1
95
16
79
140
72
57
18
5
117
105
68
46
87
75
110
120
39
100
115
86
141
83
6
48
28
111
73
38
102
113
67
136
129
130
89
49
98
108
122
50
125
116
128
2
27
134
14
60
55
94
47
17
70
64
22
92
21
97
56
101
106
12
63
62
124
31
10
52
112
69
32
90
61
135
77
126
133
104
29
103
118
24
26
23
82
85
143
91
76
88
142
33
65
81
19
40
13
25
35
80
37
59
66
53
15
139
7
11
121

>  <PUBCHEM_MMFF94_PARTIAL_CHARGES>  (1) 
28
1 -0.43
12 0.1
13 0.28
14 0.28
15 -0.15
16 -0.15
17 -0.14
18 -0.15
19 -0.15
2 -0.43
20 0.14
21 0.78
22 0.78
3 -0.57
35 0.15
36 0.15
37 0.15
38 0.15
4 -0.57
42 0.37
43 0.37
44 0.37
45 0.37
5 -0.84
6 -0.8
7 -0.8
8 0.37
9 0.37

>  <PUBCHEM_EFFECTIVE_ROTOR_COUNT>  (1) 
11

>  <PUBCHEM_PHARMACOPHORE_FEATURES>  (1) 
6
1 3 acceptor
1 4 acceptor
1 5 cation
1 6 donor
1 7 donor
6 12 15 16 17 18 19 rings

>  <PUBCHEM_HEAVY_ATOM_COUNT>  (1) 
22

>  <PUBCHEM_ATOM_DEF_STEREO_COUNT>  (1) 
0

>  <PUBCHEM_ATOM_UDEF_STEREO_COUNT>  (1) 
0

>  <PUBCHEM_BOND_DEF_STEREO_COUNT>  (1) 
0

>  <PUBCHEM_BOND_UDEF_STEREO_COUNT>  (1) 
0

>  <PUBCHEM_ISOTOPIC_ATOM_COUNT>  (1) 
0

>  <PUBCHEM_COMPONENT_COUNT>  (1) 
1

>  <PUBCHEM_CACTVS_TAUTO_COUNT>  (1) 
3

>  <PUBCHEM_CONFORMER_ID>  (1) 
0000737000000009

>  <PUBCHEM_MMFF94_ENERGY>  (1) 
53.9803

>  <PUBCHEM_FEATURE_SELFOVERLAP>  (1) 
30.446

>  <PUBCHEM_SHAPE_FINGERPRINT>  (1) 
10411042 1 18410856563950821479
11056379 131 18194692471210239334
11101153 10 18409172109002677028
11265709 11 18410577279449714323
12107183 9 18341908368434426419
12516196 113 18409448111363234594
12730499 353 17760659461792647067
13004483 165 18412819196902373638
13590594 115 18409457973035297657
13955234 65 17978235181682572705
14178000 15 18340208604281709881
14508225 48 18411411791674494077
15042514 8 18267591212585294337
16087824 20 18122344576560624749
16992752 21 18339092518923609470
17539 30 18267300928525216677
1813 80 18201733854678898599
20238998 120 18413384336978158985
20832881 197 18334016125067025147
21120745 212 18337112246362212728
21304303 172 18341897342546456337
21426921 1 18194683666489923762
23559900 14 18265047123732151987
283562 15 18261673649921859306
293599 30 9079114462139940542
3627633 1 18338517430548993109
5385378 56 18051417567473462081
5969126 39 18341322302297189126
7471813 234 18271525398797355357
77188 2 18410856589768474884
9981440 41 17255689590792814264

>  <PUBCHEM_SHAPE_MULTIPOLES>  (1) 
414.33
12.97
6.82
0.9
0.56
12.09
0
-26.67
0.09
-0.36
0.04
0.01
-0.23
-0.42

>  <PUBCHEM_SHAPE_SELFOVERLAP>  (1) 
832.246

>  <PUBCHEM_SHAPE_VOLUME>  (1) 
243.3

>  <PUBCHEM_COORDINATE_TYPE>  (1) 
2
5
10

$$$$
