29566
     RDKit          3D

 17 18  0  0  1  0  0  0  0  0999 V2000
   -4.1379   -0.4562   -0.0938 S   0  0  0  0  0  0  0  0  0  0  0  0
    4.1404   -0.4501    0.0855 S   0  0  0  0  0  0  0  0  0  0  0  0
   -4.5367    0.3010   -1.2642 O   0  0  0  0  0  0  0  0  0  0  0  0
   -5.0490   -1.3880    0.5401 O   0  0  0  0  0  0  0  0  0  0  0  0
    4.5666    0.3615    1.2088 O   0  0  0  0  0  0  0  0  0  0  0  0
    5.0367   -1.4107   -0.5258 O   0  0  0  0  0  0  0  0  0  0  0  0
   -1.1640    0.5323    0.3227 N   0  0  0  0  0  0  0  0  0  0  0  0
    1.1560    0.5180   -0.3045 N   0  0  0  0  0  0  0  0  0  0  0  0
   -3.5138    0.6119    1.0954 N   0  0  0  0  0  0  0  0  0  0  0  0
    3.4864    0.5608   -1.1372 N   0  0  0  0  0  0  0  0  0  0  0  0
   -0.0004    1.3604    0.0035 C   0  0  0  0  0  0  0  0  0  0  0  0
   -1.4891   -0.3514   -0.8094 C   0  0  0  0  0  0  0  0  0  0  0  0
    1.5096   -0.3113    0.8596 C   0  0  0  0  0  0  0  0  0  0  0  0
   -2.3080    1.3816    0.6858 C   0  0  0  0  0  0  0  0  0  0  0  0
    2.2900    1.3492   -0.7351 C   0  0  0  0  0  0  0  0  0  0  0  0
   -2.6252   -1.3171   -0.4752 C   0  0  0  0  0  0  0  0  0  0  0  0
    2.6383   -1.2918    0.5438 C   0  0  0  0  0  0  0  0  0  0  0  0
  1  3  2  0
  1  4  2  0
  1  9  1  0
  1 16  1  0
  2  5  2  0
  2  6  2  0
  2 10  1  0
  2 17  1  0
  7 11  1  0
  7 12  1  0
  7 14  1  0
  8 11  1  0
  8 13  1  0
  8 15  1  0
  9 14  1  0
 10 15  1  0
 12 16  1  0
 13 17  1  0
M  END
>  <PUBCHEM_COMPOUND_CID>  (1) 
29566

>  <PUBCHEM_CONFORMER_RMSD>  (1) 
0.6

>  <PUBCHEM_CONFORMER_DIVERSEORDER>  (1) 
1
11
38
31
33
14
32
34
19
18
29
13
20
30
17
2
37
10
28
7
8
22
36
25
4
3
21
5
35
27
6
9
12
24
23
26
16
15

>  <PUBCHEM_MMFF94_PARTIAL_CHARGES>  (1) 
19
1 1.33
10 -0.91
11 0.54
12 0.27
13 0.27
14 0.63
15 0.63
16 0.11
17 0.11
2 1.33
3 -0.65
32 0.42
33 0.42
4 -0.65
5 -0.65
6 -0.65
7 -0.81
8 -0.81
9 -0.91

>  <PUBCHEM_EFFECTIVE_ROTOR_COUNT>  (1) 
4

>  <PUBCHEM_PHARMACOPHORE_FEATURES>  (1) 
10
1 10 donor
1 3 acceptor
1 4 acceptor
1 5 acceptor
1 6 acceptor
1 7 cation
1 8 cation
1 9 donor
6 1 7 9 12 14 16 rings
6 2 8 10 13 15 17 rings

>  <PUBCHEM_HEAVY_ATOM_COUNT>  (1) 
17

>  <PUBCHEM_ATOM_DEF_STEREO_COUNT>  (1) 
0

>  <PUBCHEM_ATOM_UDEF_STEREO_COUNT>  (1) 
0

>  <PUBCHEM_BOND_DEF_STEREO_COUNT>  (1) 
0

>  <PUBCHEM_BOND_UDEF_STEREO_COUNT>  (1) 
0

>  <PUBCHEM_ISOTOPIC_ATOM_COUNT>  (1) 
0

>  <PUBCHEM_COMPONENT_COUNT>  (1) 
1

>  <PUBCHEM_CACTVS_TAUTO_COUNT>  (1) 
1

>  <PUBCHEM_CONFORMER_ID>  (1) 
0000737E00000001

>  <PUBCHEM_MMFF94_ENERGY>  (1) 
21.7752

>  <PUBCHEM_FEATURE_SELFOVERLAP>  (1) 
50.811

>  <PUBCHEM_SHAPE_FINGERPRINT>  (1) 
11046707 91 18341614789163728201
11471102 20 17894634764289352404
11615757 297 18113339712585541457
12236239 1 18410295813004630088
12633257 1 15841547500468670267
13167823 11 18410577283686347464
13214271 11 11672064151575310547
13675066 3 18201718452983839662
14123238 8 16487253287539175864
14251717 144 18113618984644910530
14252887 29 17988649592554074182
14576447 43 18187085036082981066
16752209 62 18200580420395785517
17834072 33 18260832634889304791
17834072 8 18187355511695582029
1798214 20 18260543420276083594
18186145 218 16443066109905227969
19422 9 18410582785539596549
200 152 18113896069985683529
20279233 1 16128659647630294084
20645477 70 17967533493254278910
21267235 1 18410583885051399731
22485316 2 18410851066381899232
22646028 1 18410298007733113221
22646028 28 18410575088958189131
22854114 59 14836408042378532373
23402539 116 17418087698875324581
23402655 69 17822291258193702036
23557571 272 17846782880156307504
23559900 14 18270954738903287152
42 15 18060421296188366502
465052 167 18269564995498871711
4921388 177 15502664844734983435
4990 188 17312819381262212538
5104073 3 18131068186906760930
559249 180 18338796689311607231
58051976 100 18261108530978136045

>  <PUBCHEM_SHAPE_MULTIPOLES>  (1) 
314.15
10.82
1.47
1.08
0
0.03
0.01
3.39
0.03
-0.02
-0.01
0.01
-0.1
-0.31

>  <PUBCHEM_SHAPE_SELFOVERLAP>  (1) 
605.572

>  <PUBCHEM_SHAPE_VOLUME>  (1) 
190.3

>  <PUBCHEM_COORDINATE_TYPE>  (1) 
2
5
10

$$$$
