29562
     RDKit          3D

 13 12  0  0  0  0  0  0  0  0999 V2000
    1.6517   -1.4121    1.0004 O   0  0  0  0  0  0  0  0  0  0  0  0
    2.5429    0.5149   -0.1780 C   0  0  0  0  0  0  0  0  0  0  0  0
    2.3494    1.9163    0.4308 C   0  0  0  0  0  0  0  0  0  0  0  0
    2.4687    0.6254   -1.7068 C   0  0  0  0  0  0  0  0  0  0  0  0
    3.9211   -0.0087    0.2526 C   0  0  0  0  0  0  0  0  0  0  0  0
    1.4154   -0.4133    0.3212 C   0  0  0  0  0  0  0  0  0  0  0  0
    0.0023   -0.0334    0.0000 C   0  0  0  0  0  0  0  0  0  0  0  0
   -1.0090   -0.9021   -0.1837 C   0  0  0  0  0  0  0  0  0  0  0  0
   -2.3830   -0.5459   -0.4955 C   0  0  0  0  0  0  0  0  0  0  0  0
   -0.7743   -2.3859   -0.0910 C   0  0  0  0  0  0  0  0  0  0  0  0
   -3.0912    0.4785    0.0184 C   0  0  0  0  0  0  0  0  0  0  0  0
   -4.5105    0.7195   -0.4196 C   0  0  0  0  0  0  0  0  0  0  0  0
   -2.5834    1.4468    1.0513 C   0  0  0  0  0  0  0  0  0  0  0  0
  1  6  2  0
  2  3  1  0
  2  4  1  0
  2  5  1  0
  2  6  1  0
  6  7  1  0
  7  8  2  0
  8  9  1  0
  8 10  1  0
  9 11  2  0
 11 12  1  0
 11 13  1  0
M  END
>  <PUBCHEM_COMPOUND_CID>  (1) 
29562

>  <PUBCHEM_CONFORMER_RMSD>  (1) 
0.6

>  <PUBCHEM_CONFORMER_DIVERSEORDER>  (1) 
1
6
4
5
10
9
2
3
7
8

>  <PUBCHEM_MMFF94_PARTIAL_CHARGES>  (1) 
12
1 -0.57
10 0.14
11 -0.28
12 0.14
13 0.14
2 0.06
23 0.15
24 0.15
6 0.49
7 -0.14
8 -0.14
9 -0.15

>  <PUBCHEM_EFFECTIVE_ROTOR_COUNT>  (1) 
3

>  <PUBCHEM_PHARMACOPHORE_FEATURES>  (1) 
4
1 1 acceptor
1 10 hydrophobe
3 11 12 13 hydrophobe
4 2 3 4 5 hydrophobe

>  <PUBCHEM_HEAVY_ATOM_COUNT>  (1) 
13

>  <PUBCHEM_ATOM_DEF_STEREO_COUNT>  (1) 
0

>  <PUBCHEM_ATOM_UDEF_STEREO_COUNT>  (1) 
0

>  <PUBCHEM_BOND_DEF_STEREO_COUNT>  (1) 
0

>  <PUBCHEM_BOND_UDEF_STEREO_COUNT>  (1) 
1

>  <PUBCHEM_ISOTOPIC_ATOM_COUNT>  (1) 
0

>  <PUBCHEM_COMPONENT_COUNT>  (1) 
1

>  <PUBCHEM_CACTVS_TAUTO_COUNT>  (1) 
3

>  <PUBCHEM_CONFORMER_ID>  (1) 
0000737A00000001

>  <PUBCHEM_MMFF94_ENERGY>  (1) 
37.2892

>  <PUBCHEM_FEATURE_SELFOVERLAP>  (1) 
20.297

>  <PUBCHEM_SHAPE_FINGERPRINT>  (1) 
12162725 195 18131914879221090505
13380535 76 18342175561521550031
13538477 17 18410002269312528459
13705890 14 14979954757120224900
13764800 53 18336274551714256059
14144814 61 18411981342923778657
14897335 6 18410006645810330411
15477762 27 10879991380398320328
15775835 57 18334856117020857405
177051 138 8646775499276515733
17802600 8 18411974745938901593
18175812 5 14707216529942539851
18186145 218 18273219685812110801
18511873 20 18334574655372069294
19107657 9 18336279971836558261
20233049 118 18411135814445865088
20279233 1 15697999656218735310
20281407 28 11025794314596351941
20559304 39 18339918199719513186
20645476 183 18334579074635201103
20653085 51 17775019972208367987
20671657 1 18340769226046598991
21028194 46 18335140886427258231
21524375 3 18408886213650082687
22169311 14 15068343410440568861
22485316 2 7997969064025192489
22802520 49 17774183252106725734
231179 274 18113613448083809077
23402539 116 18059844082437649901
23526113 38 16773803588591539526
23557571 272 17914057765742198158
23559900 14 18343305903653360052
3248919 1 16988297472394813658
7364860 26 18340202964921279774
74978 22 18340207500406185672

>  <PUBCHEM_SHAPE_MULTIPOLES>  (1) 
261.66
7
1.83
1.05
2.59
0.49
-0.26
-2.76
-0.57
0.19
0.34
-0.43
-0.16
-0.45

>  <PUBCHEM_SHAPE_SELFOVERLAP>  (1) 
502.842

>  <PUBCHEM_SHAPE_VOLUME>  (1) 
161.6

>  <PUBCHEM_COORDINATE_TYPE>  (1) 
2
5
10

$$$$
