29580
     RDKit          3D

  5  4  0  0  0  0  0  0  0  0999 V2000
   -2.0703    0.0223   -0.4822 S   0  0  0  0  0  0  0  0  0  0  0  0
    1.1454    1.1871   -0.1835 N   0  0  0  0  0  0  0  0  0  0  0  0
    1.1264   -1.1640   -0.2103 N   0  0  0  0  0  0  0  0  0  0  0  0
   -0.7750   -0.0174    0.7814 C   0  0  0  0  0  0  0  0  0  0  0  0
    0.5736   -0.0280    0.0946 C   0  0  0  0  0  0  0  0  0  0  0  0
  1  4  1  0
  2  5  1  0
  3  5  2  0
  4  5  1  0
M  END
>  <PUBCHEM_COMPOUND_CID>  (1) 
29580

>  <PUBCHEM_CONFORMER_RMSD>  (1) 
0.4

>  <PUBCHEM_CONFORMER_DIVERSEORDER>  (1) 
1
2
3

>  <PUBCHEM_MMFF94_PARTIAL_CHARGES>  (1) 
9
1 -0.41
10 0.18
11 0.4
2 -0.85
3 -0.85
4 0.29
5 0.44
8 0.4
9 0.4

>  <PUBCHEM_EFFECTIVE_ROTOR_COUNT>  (1) 
1

>  <PUBCHEM_PHARMACOPHORE_FEATURES>  (1) 
3
1 2 donor
1 3 donor
3 2 3 5 cation

>  <PUBCHEM_HEAVY_ATOM_COUNT>  (1) 
5

>  <PUBCHEM_ATOM_DEF_STEREO_COUNT>  (1) 
0

>  <PUBCHEM_ATOM_UDEF_STEREO_COUNT>  (1) 
0

>  <PUBCHEM_BOND_DEF_STEREO_COUNT>  (1) 
0

>  <PUBCHEM_BOND_UDEF_STEREO_COUNT>  (1) 
0

>  <PUBCHEM_ISOTOPIC_ATOM_COUNT>  (1) 
0

>  <PUBCHEM_COMPONENT_COUNT>  (1) 
1

>  <PUBCHEM_CACTVS_TAUTO_COUNT>  (1) 
1

>  <PUBCHEM_CONFORMER_ID>  (1) 
0000738C00000001

>  <PUBCHEM_MMFF94_ENERGY>  (1) 
8.8197

>  <PUBCHEM_FEATURE_SELFOVERLAP>  (1) 
15.263

>  <PUBCHEM_SHAPE_FINGERPRINT>  (1) 
139733 1 8213553615602011763
20096714 4 18260265299811314349
21015797 1 7997695225231250496
24536 1 18409725166828510665
29004967 10 18337953381094051819
5943 1 11723834174810158994

>  <PUBCHEM_SHAPE_MULTIPOLES>  (1) 
96.79
2.26
1.05
0.8
1.13
0.02
-0.09
0.03
0.45
-0.51
0.11
0.2
-0.01
0.01

>  <PUBCHEM_SHAPE_SELFOVERLAP>  (1) 
160.924

>  <PUBCHEM_SHAPE_VOLUME>  (1) 
67.5

>  <PUBCHEM_COORDINATE_TYPE>  (1) 
2
5
10

$$$$
