29587
     RDKit          3D

 14 14  0  0  0  0  0  0  0  0999 V2000
   -1.2121    2.2595    0.1659 O   0  0  0  0  0  0  0  0  0  0  0  0
    1.5315    2.0623    0.1431 O   0  0  0  0  0  0  0  0  0  0  0  0
    3.2493   -1.6230    0.4898 O   0  0  0  0  0  0  0  0  0  0  0  0
    3.6162    0.3922   -0.4956 O   0  0  0  0  0  0  0  0  0  0  0  0
   -2.8949   -0.0295   -0.0019 C   0  0  0  0  0  0  0  0  0  0  0  0
   -1.4042   -0.1169   -0.0140 C   0  0  0  0  0  0  0  0  0  0  0  0
   -3.5152   -0.7484    1.2102 C   0  0  0  0  0  0  0  0  0  0  0  0
   -3.5247   -0.5584   -1.3035 C   0  0  0  0  0  0  0  0  0  0  0  0
   -0.6208    1.0341    0.0708 C   0  0  0  0  0  0  0  0  0  0  0  0
   -0.7966   -1.3687   -0.1107 C   0  0  0  0  0  0  0  0  0  0  0  0
    0.7705    0.9333    0.0588 C   0  0  0  0  0  0  0  0  0  0  0  0
    1.3781   -0.3187   -0.0381 C   0  0  0  0  0  0  0  0  0  0  0  0
    0.5944   -1.4696   -0.1228 C   0  0  0  0  0  0  0  0  0  0  0  0
    2.8286   -0.4482   -0.0520 C   0  0  0  0  0  0  0  0  0  0  0  0
  1  9  1  0
  2 11  1  0
  3 14  1  0
  4 14  2  0
  5  6  1  0
  5  7  1  0
  5  8  1  0
  6  9  2  0
  6 10  1  0
  9 11  1  0
 10 13  2  0
 11 12  2  0
 12 13  1  0
 12 14  1  0
M  END
>  <PUBCHEM_COMPOUND_CID>  (1) 
29587

>  <PUBCHEM_CONFORMER_RMSD>  (1) 
0.6

>  <PUBCHEM_CONFORMER_DIVERSEORDER>  (1) 
1

>  <PUBCHEM_MMFF94_PARTIAL_CHARGES>  (1) 
17
1 -0.53
10 -0.15
11 0.08
12 0.09
13 -0.15
14 0.63
2 -0.53
22 0.15
23 0.15
24 0.45
25 0.45
26 0.5
3 -0.65
4 -0.57
5 0.14
6 -0.14
9 0.08

>  <PUBCHEM_EFFECTIVE_ROTOR_COUNT>  (1) 
2

>  <PUBCHEM_PHARMACOPHORE_FEATURES>  (1) 
7
1 1 donor
1 2 donor
1 3 acceptor
1 4 acceptor
3 3 4 14 anion
3 5 7 8 hydrophobe
6 6 9 10 11 12 13 rings

>  <PUBCHEM_HEAVY_ATOM_COUNT>  (1) 
14

>  <PUBCHEM_ATOM_DEF_STEREO_COUNT>  (1) 
0

>  <PUBCHEM_ATOM_UDEF_STEREO_COUNT>  (1) 
0

>  <PUBCHEM_BOND_DEF_STEREO_COUNT>  (1) 
0

>  <PUBCHEM_BOND_UDEF_STEREO_COUNT>  (1) 
0

>  <PUBCHEM_ISOTOPIC_ATOM_COUNT>  (1) 
0

>  <PUBCHEM_COMPONENT_COUNT>  (1) 
1

>  <PUBCHEM_CACTVS_TAUTO_COUNT>  (1) 
52

>  <PUBCHEM_CONFORMER_ID>  (1) 
0000739300000001

>  <PUBCHEM_MMFF94_ENERGY>  (1) 
42.2307

>  <PUBCHEM_FEATURE_SELFOVERLAP>  (1) 
35.583

>  <PUBCHEM_SHAPE_FINGERPRINT>  (1) 
10219947 1 18341896285594299719
11132069 177 18131626772820019690
11206711 2 18337671919028740541
11471102 20 18409726262013535599
11543360 7 15936706933381122830
12032990 46 18409738343445666531
12423570 1 17389942588873662365
13140716 1 18268147754479145914
13221675 6 18411986874978916254
13380535 21 18048326835601925736
13705890 14 16805328786072693458
13760787 5 18409450280004766375
14144814 61 18411984650117265786
14911166 2 18410853282595729774
14993402 34 18272086119072212022
16945 1 18412261744132395310
17844478 74 18040441014080719661
19026448 4 16660082204515593415
19026448 5 16128658565203609122
193761 8 17619068326394854791
200 152 18201994465617004103
20201158 50 18335137579355480115
20645477 70 18410003343270786391
21501502 16 18266177219077756792
2334 1 17907857653901298518
23402539 116 18271514313218018678
23402655 69 18195792004660992365
23463225 33 18410015416112183518
23493267 7 17458054946370727041
23552423 10 18119810459000791564
25610 137 18334304179252748249
2748010 2 18051414264310872990
5084963 1 17988637497593742315
528886 8 18341047505572526483
63268167 104 18270394039876368217
7364860 26 18129098003883178392
77492 1 17632300128997311447

>  <PUBCHEM_SHAPE_MULTIPOLES>  (1) 
264.64
5.75
1.82
0.87
0.06
0.7
0.03
-1.5
0.14
-0.54
-0.15
0.78
-0.17
-0.13

>  <PUBCHEM_SHAPE_SELFOVERLAP>  (1) 
555.86

>  <PUBCHEM_SHAPE_VOLUME>  (1) 
149.7

>  <PUBCHEM_COORDINATE_TYPE>  (1) 
2
5
10

$$$$
