29583
     RDKit          3D

 14 14  0  0  1  0  0  0  0  0999 V2000
    1.7042   -0.3319    0.0333 O   0  0  0  0  0  0  0  0  0  0  0  0
    2.7387    1.6705    0.5014 O   0  0  0  0  0  0  0  0  0  0  0  0
   -2.2908    0.8479   -0.5368 N   0  0  0  0  0  0  0  0  0  0  0  0
   -2.0282   -0.2633    0.3863 C   0  0  0  0  0  0  0  0  0  0  0  0
   -3.0839   -1.3658    0.2254 C   0  0  0  0  0  0  0  0  0  0  0  0
   -4.4942   -0.8125    0.4112 C   0  0  0  0  0  0  0  0  0  0  0  0
   -4.7195    0.3943   -0.4932 C   0  0  0  0  0  0  0  0  0  0  0  0
   -3.6138    1.4322   -0.3161 C   0  0  0  0  0  0  0  0  0  0  0  0
   -0.6303   -0.8170    0.1167 C   0  0  0  0  0  0  0  0  0  0  0  0
    0.4363    0.2439    0.3157 C   0  0  0  0  0  0  0  0  0  0  0  0
    2.7826    0.4955    0.1653 C   0  0  0  0  0  0  0  0  0  0  0  0
    4.0337   -0.2433   -0.1628 C   0  0  0  0  0  0  0  0  0  0  0  0
    3.9772   -1.6852   -0.5649 C   0  0  0  0  0  0  0  0  0  0  0  0
    5.1880    0.4347   -0.0816 C   0  0  0  0  0  0  0  0  0  0  0  0
  1 10  1  0
  1 11  1  0
  2 11  2  0
  3  4  1  0
  3  8  1  0
  4  5  1  0
  4  9  1  0
  5  6  1  0
  6  7  1  0
  7  8  1  0
  9 10  1  0
 11 12  1  0
 12 13  1  0
 12 14  2  0
M  END
>  <PUBCHEM_COMPOUND_CID>  (1) 
29583

>  <PUBCHEM_CONFORMER_RMSD>  (1) 
0.6

>  <PUBCHEM_CONFORMER_DIVERSEORDER>  (1) 
1
145
131
260
136
202
103
240
163
209
234
97
69
21
2
233
283
213
26
104
275
129
7
198
186
108
152
171
133
142
100
269
17
226
211
93
203
139
173
59
33
282
70
128
112
85
151
261
197
130
116
244
218
51
158
216
74
34
238
272
239
278
257
6
76
11
114
22
132
50
65
175
166
249
66
179
245
200
183
36
95
178
12
222
125
79
189
48
232
121
35
137
47
187
227
230
231
64
262
181
83
111
87
110
204
169
88
92
193
53
255
256
96
294
270
219
89
154
80
156
223
201
266
54
109
170
56
263
75
41
84
134
264
162
241
290
106
217
113
221
284
165
14
250
57
55
30
40
107
127
160
285
291
91
13
62
185
18
4
295
149
86
292
78
191
27
172
99
210
150
101
192
123
281
29
205
273
5
276
118
52
190
117
228
43
122
10
46
72
115
243
49
206
167
94
68
195
271
279
28
235
199
24
176
280
58
146
153
225
207
182
124
254
268
287
188
120
82
16
144
105
247
159
214
9
265
126
138
39
174
37
81
67
253
119
267
147
277
140
248
135
215
242
25
19
102
60
20
32
61
143
31
229
196
246
155
259
289
224
184
274
164
148
141
42
252
157
44
8
212
63
71
180
23
286
77
15
3
258
208
98
293
38
194
288
177
90
237
161
73
168
220
45
251
236

>  <PUBCHEM_MMFF94_PARTIAL_CHARGES>  (1) 
13
1 -0.43
10 0.28
11 0.71
12 -0.12
13 0.14
14 -0.3
2 -0.57
26 0.36
3 -0.9
32 0.15
33 0.15
4 0.27
8 0.27

>  <PUBCHEM_EFFECTIVE_ROTOR_COUNT>  (1) 
6.2

>  <PUBCHEM_PHARMACOPHORE_FEATURES>  (1) 
4
1 2 acceptor
1 3 cation
1 3 donor
6 3 4 5 6 7 8 rings

>  <PUBCHEM_HEAVY_ATOM_COUNT>  (1) 
14

>  <PUBCHEM_ATOM_DEF_STEREO_COUNT>  (1) 
0

>  <PUBCHEM_ATOM_UDEF_STEREO_COUNT>  (1) 
1

>  <PUBCHEM_BOND_DEF_STEREO_COUNT>  (1) 
0

>  <PUBCHEM_BOND_UDEF_STEREO_COUNT>  (1) 
0

>  <PUBCHEM_ISOTOPIC_ATOM_COUNT>  (1) 
0

>  <PUBCHEM_COMPONENT_COUNT>  (1) 
1

>  <PUBCHEM_CACTVS_TAUTO_COUNT>  (1) 
1

>  <PUBCHEM_CONFORMER_ID>  (1) 
0000738F00000001

>  <PUBCHEM_MMFF94_ENERGY>  (1) 
9.1372

>  <PUBCHEM_FEATURE_SELFOVERLAP>  (1) 
20.297

>  <PUBCHEM_SHAPE_FINGERPRINT>  (1) 
10680689 15 18260833721880105635
114248 4 18410293618513686226
11471102 20 18343302557240775206
12916748 109 18040721354769371849
13081056 2 18410009957441060297
14123238 8 18202002135710936006
14251718 22 18260551151512479062
14573314 32 18408325458208470782
15242439 84 18410011030908337293
15501527 16 18408888400194657297
17834072 33 18334861666440396468
17834072 8 18410575054635302894
17834074 16 18410576179890698190
17834076 25 15285356219769990499
18186145 218 18113892762676216809
1986462 14 18333452032192964263
200 152 17632294575430537467
20279233 1 18410300215821096098
20645477 56 18408320012163532873
20645477 70 18201723899630638534
22485316 2 18342457049657287190
23402539 116 18408316705297210559
23402655 69 18342458136394471094
23557571 272 18335424556063932517
23559900 14 18412259566795077008
32948 21 18335140839140465564
351380 180 18412823586126633701
3545911 37 18410575093263569536
4214541 1 18410012126336085313
42788 4 18334295379165361146
4990 188 18335422348550949402
5104073 3 18409729534720554698
5281201 14 18408890633139665148
542803 24 14851606570208322519
58051976 100 18201999983753317342
77779 3 18409168817912768994

>  <PUBCHEM_SHAPE_MULTIPOLES>  (1) 
271.39
11.81
1.47
0.72
3.14
0.04
0.02
0.01
1.11
0.01
0.05
-0.09
0.01
0.88

>  <PUBCHEM_SHAPE_SELFOVERLAP>  (1) 
529.177

>  <PUBCHEM_SHAPE_VOLUME>  (1) 
162.6

>  <PUBCHEM_COORDINATE_TYPE>  (1) 
2
5
10

$$$$
