29591
     RDKit          3D

 15 15  0  0  0  0  0  0  0  0999 V2000
   -2.6976    1.5360   -0.9429 S   0  0  0  0  0  0  0  0  0  0  0  0
    3.5884   -0.0117    0.0698 N   0  0  0  0  0  0  0  0  0  0  0  0
   -2.8014   -0.9586    0.1332 N   0  0  0  0  0  0  0  0  0  0  0  0
   -0.5794    0.0250   -0.1675 C   0  0  0  0  0  0  0  0  0  0  0  0
    2.1805    0.0008   -0.0102 C   0  0  0  0  0  0  0  0  0  0  0  0
   -2.0565    0.0373   -0.2513 C   0  0  0  0  0  0  0  0  0  0  0  0
    0.1506   -0.4533   -1.2394 C   0  0  0  0  0  0  0  0  0  0  0  0
    0.0325    0.4914    0.9810 C   0  0  0  0  0  0  0  0  0  0  0  0
    1.5431   -0.4656   -1.1601 C   0  0  0  0  0  0  0  0  0  0  0  0
    1.4251    0.4792    1.0604 C   0  0  0  0  0  0  0  0  0  0  0  0
    4.2494   -0.1560    1.3518 C   0  0  0  0  0  0  0  0  0  0  0  0
    4.3931    0.1336   -1.1269 C   0  0  0  0  0  0  0  0  0  0  0  0
   -4.2966   -0.9273    0.0403 C   0  0  0  0  0  0  0  0  0  0  0  0
   -2.2403   -2.2322    0.6885 C   0  0  0  0  0  0  0  0  0  0  0  0
   -2.8910    2.5015    0.5732 C   0  0  0  0  0  0  0  0  0  0  0  0
  1  6  1  0
  1 15  1  0
  2  5  1  0
  2 11  1  0
  2 12  1  0
  3  6  2  3
  3 13  1  0
  3 14  1  0
  4  6  1  0
  4  7  2  0
  4  8  1  0
  5  9  2  0
  5 10  1  0
  7  9  1  0
  8 10  2  0
M  CHG  1   3   1
M  END
>  <PUBCHEM_COMPOUND_CID>  (1) 
29591

>  <PUBCHEM_CONFORMER_RMSD>  (1) 
0.6

>  <PUBCHEM_CONFORMER_DIVERSEORDER>  (1) 
1
4
2
3

>  <PUBCHEM_MMFF94_PARTIAL_CHARGES>  (1) 
19
1 -0.37
10 -0.15
11 0.37
12 0.37
13 0.35
14 0.35
15 0.23
16 0.15
17 0.15
18 0.15
19 0.15
2 -0.84
3 -0.09
4 0.09
5 0.1
6 0.45
7 -0.15
8 -0.15
9 -0.15

>  <PUBCHEM_EFFECTIVE_ROTOR_COUNT>  (1) 
3

>  <PUBCHEM_PHARMACOPHORE_FEATURES>  (1) 
3
1 15 hydrophobe
1 2 cation
6 4 5 7 8 9 10 rings

>  <PUBCHEM_HEAVY_ATOM_COUNT>  (1) 
15

>  <PUBCHEM_ATOM_DEF_STEREO_COUNT>  (1) 
0

>  <PUBCHEM_ATOM_UDEF_STEREO_COUNT>  (1) 
0

>  <PUBCHEM_BOND_DEF_STEREO_COUNT>  (1) 
0

>  <PUBCHEM_BOND_UDEF_STEREO_COUNT>  (1) 
0

>  <PUBCHEM_ISOTOPIC_ATOM_COUNT>  (1) 
0

>  <PUBCHEM_COMPONENT_COUNT>  (1) 
1

>  <PUBCHEM_CACTVS_TAUTO_COUNT>  (1) 
1

>  <PUBCHEM_CONFORMER_ID>  (1) 
0000739700000001

>  <PUBCHEM_MMFF94_ENERGY>  (1) 
67.1169

>  <PUBCHEM_FEATURE_SELFOVERLAP>  (1) 
15.223

>  <PUBCHEM_SHAPE_FINGERPRINT>  (1) 
10366900 7 18341049713259725451
11132069 177 17417810703000936158
11543360 7 18115037402110817718
12032990 46 17418384592647198630
12186901 62 18411140220849975117
12236239 1 17022619776175871999
124424 183 18201427048216800952
12500047 106 18262509308369539431
13296908 3 17846780698164779572
13581323 91 18334011704907107591
13583140 156 18266995350645429328
13675066 3 17275103946544284728
13760787 19 18260831466964252698
13760787 5 16056879130965748556
14289901 80 18187927321992584896
14993402 34 16298382487308143906
15219456 202 17988927712939657271
15279308 16 17988640740510542981
15309172 13 14923947825213764881
15653759 3 18342735234461962049
16945 1 16988840579599204060
17844478 74 18131354137133826569
18186145 218 16271924926535336524
18534176 82 18341330020221460093
19026448 4 18341610408792744068
19026448 5 17894911815444362892
19049666 15 18129388102937668735
19422 9 17603862295689656778
200 152 15864074295325935313
20510252 161 18410856543056136457
20645477 56 18337114458307423157
20645477 70 16486694663113707428
21061003 4 17489316325121701449
21339142 149 17676777542756133521
22094290 60 18409172125016559525
23402539 116 18410001153227420407
23493267 7 18342179916876441818
23557571 272 18271258143877496725
23559900 14 18261950851537446352
25 1 17700976535654015833
2748010 2 17345768373482272660
3286 77 17894898668686730400
573450 72 18113888343328916914
633830 44 14476968912793914692
6992083 37 17531248318518635189
77492 1 17167864157707487541
81228 2 18336559269807902385

>  <PUBCHEM_SHAPE_MULTIPOLES>  (1) 
302.58
7.91
1.73
1.29
4.38
0.26
-0.05
-0.12
0.3
-2.81
0.34
0.86
0.09
0.18

>  <PUBCHEM_SHAPE_SELFOVERLAP>  (1) 
595.232

>  <PUBCHEM_SHAPE_VOLUME>  (1) 
185.9

>  <PUBCHEM_COORDINATE_TYPE>  (1) 
2
5
10

$$$$
