29593
     RDKit          3D

  8  7  0  0  0  0  0  0  0  0999 V2000
   -3.8776   -0.5040   -0.1854 N   0  0  0  0  0  0  0  0  0  0  0  0
    2.1624   -0.1109   -0.3536 C   0  0  0  0  0  0  0  0  0  0  0  0
    0.9250    0.6737    0.1227 C   0  0  0  0  0  0  0  0  0  0  0  0
   -0.4006   -0.0379   -0.1797 C   0  0  0  0  0  0  0  0  0  0  0  0
    2.2572   -1.4966    0.2866 C   0  0  0  0  0  0  0  0  0  0  0  0
    3.4323    0.6872   -0.0473 C   0  0  0  0  0  0  0  0  0  0  0  0
   -1.6185    0.7430    0.3198 C   0  0  0  0  0  0  0  0  0  0  0  0
   -2.8802    0.0454    0.0370 C   0  0  0  0  0  0  0  0  0  0  0  0
  1  8  3  0
  2  3  1  0
  2  5  1  0
  2  6  1  0
  3  4  1  0
  4  7  1  0
  7  8  1  0
M  END
>  <PUBCHEM_COMPOUND_CID>  (1) 
29593

>  <PUBCHEM_CONFORMER_RMSD>  (1) 
0.6

>  <PUBCHEM_CONFORMER_DIVERSEORDER>  (1) 
1
6
3
5
4
2

>  <PUBCHEM_MMFF94_PARTIAL_CHARGES>  (1) 
3
1 -0.56
7 0.2
8 0.36

>  <PUBCHEM_EFFECTIVE_ROTOR_COUNT>  (1) 
3

>  <PUBCHEM_PHARMACOPHORE_FEATURES>  (1) 
3
1 1 acceptor
3 2 5 6 hydrophobe
4 2 3 4 7 hydrophobe

>  <PUBCHEM_HEAVY_ATOM_COUNT>  (1) 
8

>  <PUBCHEM_ATOM_DEF_STEREO_COUNT>  (1) 
0

>  <PUBCHEM_ATOM_UDEF_STEREO_COUNT>  (1) 
0

>  <PUBCHEM_BOND_DEF_STEREO_COUNT>  (1) 
0

>  <PUBCHEM_BOND_UDEF_STEREO_COUNT>  (1) 
0

>  <PUBCHEM_ISOTOPIC_ATOM_COUNT>  (1) 
0

>  <PUBCHEM_COMPONENT_COUNT>  (1) 
1

>  <PUBCHEM_CACTVS_TAUTO_COUNT>  (1) 
1

>  <PUBCHEM_CONFORMER_ID>  (1) 
0000739900000001

>  <PUBCHEM_MMFF94_ENERGY>  (1) 
3.3492

>  <PUBCHEM_FEATURE_SELFOVERLAP>  (1) 
15.25

>  <PUBCHEM_SHAPE_FINGERPRINT>  (1) 
10857977 72 16128370467751195169
11062470 55 16588023528193262789
12932764 1 13829845764581631869
14325111 11 18411138009020854213
15310529 11 18411696560811778501
170605 34 18271809051322563092
177051 138 18201438047533386439
20201158 50 18187086160826167154
20645477 70 18337104558434251231
22485316 2 18412539921080527471
3248919 1 17095818645428575760
5460574 1 8358257038098472748

>  <PUBCHEM_SHAPE_MULTIPOLES>  (1) 
159.66
6.38
1.11
0.66
3.19
0.3
0.01
0.5
-0.25
-0.68
0.1
-0.05
0
-0.2

>  <PUBCHEM_SHAPE_SELFOVERLAP>  (1) 
283.692

>  <PUBCHEM_SHAPE_VOLUME>  (1) 
102.8

>  <PUBCHEM_COORDINATE_TYPE>  (1) 
2
5
10

$$$$
