29604
     RDKit          3D

 26 28  0  0  0  0  0  0  0  0999 V2000
    1.2987   -0.5987   -0.0285 O   0  0  0  0  0  0  0  0  0  0  0  0
   -3.3678   -0.1264   -0.6728 O   0  0  0  0  0  0  0  0  0  0  0  0
    0.8291   -2.7823    0.4626 O   0  0  0  0  0  0  0  0  0  0  0  0
    4.8845    0.2265    0.1908 N   0  0  0  0  0  0  0  0  0  0  0  0
   -0.8477   -1.2517   -0.1083 N   0  0  0  0  0  0  0  0  0  0  0  0
    5.5508    1.5047    0.4775 C   0  0  0  0  0  0  0  0  0  0  0  0
    5.4998   -0.4466   -0.9617 C   0  0  0  0  0  0  0  0  0  0  0  0
    7.0376    1.2982    0.7718 C   0  0  0  0  0  0  0  0  0  0  0  0
    6.9847   -0.7167   -0.7148 C   0  0  0  0  0  0  0  0  0  0  0  0
    7.7324    0.5666   -0.3710 C   0  0  0  0  0  0  0  0  0  0  0  0
    3.4556    0.4353   -0.0416 C   0  0  0  0  0  0  0  0  0  0  0  0
    2.6802   -0.8516    0.1912 C   0  0  0  0  0  0  0  0  0  0  0  0
    0.4471   -1.6639    0.1405 C   0  0  0  0  0  0  0  0  0  0  0  0
   -2.0323   -2.0207   -0.0507 C   0  0  0  0  0  0  0  0  0  0  0  0
   -3.2700   -1.4431   -0.3341 C   0  0  0  0  0  0  0  0  0  0  0  0
   -1.9550   -3.3702    0.2940 C   0  0  0  0  0  0  0  0  0  0  0  0
   -4.1639    0.7020    0.1716 C   0  0  0  0  0  0  0  0  0  0  0  0
   -3.6356    2.1055    0.1198 C   0  0  0  0  0  0  0  0  0  0  0  0
   -4.4302   -2.2152   -0.2729 C   0  0  0  0  0  0  0  0  0  0  0  0
   -3.1154   -4.1420    0.3551 C   0  0  0  0  0  0  0  0  0  0  0  0
   -4.3529   -3.5645    0.0718 C   0  0  0  0  0  0  0  0  0  0  0  0
   -2.6561    2.5158    1.0243 C   0  0  0  0  0  0  0  0  0  0  0  0
   -4.1237    2.9998   -0.8330 C   0  0  0  0  0  0  0  0  0  0  0  0
   -2.1648    3.8204    0.9761 C   0  0  0  0  0  0  0  0  0  0  0  0
   -3.6322    4.3044   -0.8812 C   0  0  0  0  0  0  0  0  0  0  0  0
   -2.6527    4.7146    0.0234 C   0  0  0  0  0  0  0  0  0  0  0  0
  1 12  1  0
  1 13  1  0
  2 15  1  0
  2 17  1  0
  3 13  2  0
  4  6  1  0
  4  7  1  0
  4 11  1  0
  5 13  1  0
  5 14  1  0
  6  8  1  0
  7  9  1  0
  8 10  1  0
  9 10  1  0
 11 12  1  0
 14 15  1  0
 14 16  2  0
 15 19  2  0
 16 20  1  0
 17 18  1  0
 18 22  2  0
 18 23  1  0
 19 21  1  0
 20 21  2  0
 22 24  1  0
 23 25  2  0
 24 26  2  0
 25 26  1  0
M  END
>  <PUBCHEM_COMPOUND_CID>  (1) 
29604

>  <PUBCHEM_CONFORMER_RMSD>  (1) 
1

>  <PUBCHEM_CONFORMER_DIVERSEORDER>  (1) 
1
55
41
8
122
83
24
39
125
110
88
85
45
53
27
62
90
78
113
118
43
48
54
32
102
70
17
68
91
28
63
108
86
34
89
10
99
77
67
31
112
42
71
105
79
82
81
56
59
40
52
92
47
44
21
121
26
51
119
49
60
18
76
123
66
25
116
106
64
103
73
97
107
84
109
61
33
50
23
5
94
65
30
38
15
93
104
46
22
35
72
12
124
57
80
11
37
29
96
20
100
69
14
13
95
7
19
4
111
58
75
87
9
6
36
120
74
3
98
114
115
101
2
117
16

>  <PUBCHEM_MMFF94_PARTIAL_CHARGES>  (1) 
33
1 -0.43
11 0.27
12 0.28
13 0.78
14 0.12
15 0.08
16 -0.15
17 0.42
18 -0.14
19 -0.15
2 -0.36
20 -0.15
21 -0.15
22 -0.15
23 -0.15
24 -0.15
25 -0.15
26 -0.15
3 -0.57
4 -0.81
41 0.37
44 0.15
45 0.15
46 0.15
47 0.15
48 0.15
49 0.15
5 -0.55
50 0.15
51 0.15
52 0.15
6 0.27
7 0.27

>  <PUBCHEM_EFFECTIVE_ROTOR_COUNT>  (1) 
10.2

>  <PUBCHEM_PHARMACOPHORE_FEATURES>  (1) 
7
1 2 acceptor
1 3 acceptor
1 4 cation
1 5 donor
6 14 15 16 19 20 21 rings
6 18 22 23 24 25 26 rings
6 4 6 7 8 9 10 rings

>  <PUBCHEM_HEAVY_ATOM_COUNT>  (1) 
26

>  <PUBCHEM_ATOM_DEF_STEREO_COUNT>  (1) 
0

>  <PUBCHEM_ATOM_UDEF_STEREO_COUNT>  (1) 
0

>  <PUBCHEM_BOND_DEF_STEREO_COUNT>  (1) 
0

>  <PUBCHEM_BOND_UDEF_STEREO_COUNT>  (1) 
0

>  <PUBCHEM_ISOTOPIC_ATOM_COUNT>  (1) 
0

>  <PUBCHEM_COMPONENT_COUNT>  (1) 
1

>  <PUBCHEM_CACTVS_TAUTO_COUNT>  (1) 
2

>  <PUBCHEM_CONFORMER_ID>  (1) 
000073A400000001

>  <PUBCHEM_MMFF94_ENERGY>  (1) 
60.9548

>  <PUBCHEM_FEATURE_SELFOVERLAP>  (1) 
35.522

>  <PUBCHEM_SHAPE_FINGERPRINT>  (1) 
10050765 1 18338516340413478234
100830 39 18410856556036185136
10291535 26 18411420626596171787
10411042 1 18050005786249154119
10670039 82 18411695495939340498
10864689 126 18049161065019202212
10937287 8 18049720720557802121
10951579 204 18338252483703489348
11059845 2 17904449980231435776
11135609 187 18120365455461998597
11434127 23 18130506314864186340
12107183 9 17973430015385641642
12788726 201 18261666056472486307
13885169 127 18411138052988827198
13974486 27 18125730234539411380
14251757 5 18412542111092095937
14251764 75 17909836427308957001
14512766 119 18335421245140318804
14790565 3 17833273021333911503
15328684 2 18041541600062854704
15400415 2 17906169555967377268
15419008 42 17987239924627847910
15419008 47 18059012929225358610
15463212 79 18261671455230020241
155225 5 18339360756199911096
15876981 60 18335143154059228173
16087824 20 18410292507383486871
17844677 252 18338241582685854158
17859628 70 9331322084633779191
21033650 10 18189359955779675374
21236236 1 18412826897693975462
21279426 13 18271812268601370598
21304253 13 18267873968533482371
21859007 373 18272641364872104040
21927370 108 18193006031133090595
22956985 138 17182500036801987263
3418910 222 17973735958901820012
508706 21 18342161289435019960
5283173 99 18413672414025907184
531348 171 18060136522825219806
5372103 7 17098038448680854485
550186 7 18272374178318248838
6299153 45 18190173478699421330
6327066 14 18190737532116903541
7288768 16 17896325727273422355
7808743 9 18410290272660498273
9980921 221 18337411387166945532
9981440 41 18048591518174459585

>  <PUBCHEM_SHAPE_MULTIPOLES>  (1) 
507.5
17.36
6.42
0.88
44.9
3.24
-0.01
4.11
-1.82
-14.39
0.38
0.09
0.43
1.04

>  <PUBCHEM_SHAPE_SELFOVERLAP>  (1) 
1062.236

>  <PUBCHEM_SHAPE_VOLUME>  (1) 
286.1

>  <PUBCHEM_COORDINATE_TYPE>  (1) 
2
5
10

$$$$
