29609
     RDKit          3D

 13 14  0  0  0  0  0  0  0  0999 V2000
    2.3925    1.3309    0.9043 S   0  0  0  0  0  0  0  0  0  0  0  0
    2.0216   -1.1712   -0.6916 S   0  0  0  0  0  0  0  0  0  0  0  0
   -2.3925   -1.3308    0.9043 S   0  0  0  0  0  0  0  0  0  0  0  0
   -2.0216    1.1712   -0.6916 S   0  0  0  0  0  0  0  0  0  0  0  0
    1.2081    0.3657   -0.1098 C   0  0  0  0  0  0  0  0  0  0  0  0
   -1.2081   -0.3658   -0.1098 C   0  0  0  0  0  0  0  0  0  0  0  0
    0.0000    0.0000    0.7522 C   0  0  0  0  0  0  0  0  0  0  0  0
    0.7918    1.1964   -1.3235 C   0  0  0  0  0  0  0  0  0  0  0  0
   -0.7918   -1.1964   -1.3234 C   0  0  0  0  0  0  0  0  0  0  0  0
    3.8754    0.3899    0.4670 C   0  0  0  0  0  0  0  0  0  0  0  0
    3.4788   -1.0683    0.3774 C   0  0  0  0  0  0  0  0  0  0  0  0
   -3.8754   -0.3899    0.4670 C   0  0  0  0  0  0  0  0  0  0  0  0
   -3.4788    1.0683    0.3774 C   0  0  0  0  0  0  0  0  0  0  0  0
  1  5  1  0
  1 10  1  0
  2  5  1  0
  2 11  1  0
  3  6  1  0
  3 12  1  0
  4  6  1  0
  4 13  1  0
  5  7  1  0
  5  8  1  0
  6  7  1  0
  6  9  1  0
 10 11  1  0
 12 13  1  0
M  END
>  <PUBCHEM_COMPOUND_CID>  (1) 
29609

>  <PUBCHEM_CONFORMER_RMSD>  (1) 
0.6

>  <PUBCHEM_CONFORMER_DIVERSEORDER>  (1) 
4
2
3
1

>  <PUBCHEM_MMFF94_PARTIAL_CHARGES>  (1) 
10
1 -0.46
10 0.23
11 0.23
12 0.23
13 0.23
2 -0.46
3 -0.46
4 -0.46
5 0.46
6 0.46

>  <PUBCHEM_EFFECTIVE_ROTOR_COUNT>  (1) 
4

>  <PUBCHEM_PHARMACOPHORE_FEATURES>  (1) 
2
5 1 2 5 10 11 rings
5 3 4 6 12 13 rings

>  <PUBCHEM_HEAVY_ATOM_COUNT>  (1) 
13

>  <PUBCHEM_ATOM_DEF_STEREO_COUNT>  (1) 
0

>  <PUBCHEM_ATOM_UDEF_STEREO_COUNT>  (1) 
0

>  <PUBCHEM_BOND_DEF_STEREO_COUNT>  (1) 
0

>  <PUBCHEM_BOND_UDEF_STEREO_COUNT>  (1) 
0

>  <PUBCHEM_ISOTOPIC_ATOM_COUNT>  (1) 
0

>  <PUBCHEM_COMPONENT_COUNT>  (1) 
1

>  <PUBCHEM_CACTVS_TAUTO_COUNT>  (1) 
1

>  <PUBCHEM_CONFORMER_ID>  (1) 
000073A900000004

>  <PUBCHEM_MMFF94_ENERGY>  (1) 
68.4253

>  <PUBCHEM_FEATURE_SELFOVERLAP>  (1) 
10.149

>  <PUBCHEM_SHAPE_FINGERPRINT>  (1) 
10219947 1 17489590034887230854
10608611 8 18412541007243374089
10799339 124 18410573993741386017
10922523 26 18410012117540344607
10980938 120 18130786763517045242
11062470 55 15985100799442330041
11132069 177 17894347778537122569
12119455 92 18130782339816723077
12251169 10 18410855494487900171
124424 183 18273492360110655888
12500047 106 18411697698988713435
12507560 40 18412262843617662528
12932764 1 18130785724061119548
13296908 3 18408603643551520666
13571099 22 17560806480928622702
13581323 91 18410853273989827636
13922767 16 18202282472336729505
14577589 140 18342172254496718598
14993402 34 14261343670095643992
15219456 202 18341612598688040272
15309172 13 17775288257187785191
15375462 478 18335422387200257029
15653759 3 18334014990556913665
15775835 57 17917429864635532783
15852999 172 15913332402737651244
16945 1 18338798892587417734
17804303 29 18337115574761205446
17834069 15 18334574603347139105
17844478 74 18334857203584383701
18175812 5 18410855468718096446
18186145 218 16845305912056199661
19049666 15 18194682557755293799
19422 9 15719683073358564231
200 152 18059562616773462903
20279233 1 18411422804060175187
20361792 2 15430034391737240535
20645464 45 18410856551482456179
20645477 70 17987797406349331662
20715346 28 18411419501013825988
21501502 16 17896051007831849173
21501925 9 18187366579420186347
21730867 7 18272656765902270746
23402539 116 18410569609555852663
23559900 14 18262238807662277454
296302 2 17847057792121965056
3248919 1 18114183094149824431
4175511 71 17530975678247850765
42 15 18407762529782587899
5084963 1 18334867095231559549
57812782 119 18411700971985732553
69090 78 18272363183502553367
7364860 26 17970639690738656060

>  <PUBCHEM_SHAPE_MULTIPOLES>  (1) 
282.93
6.59
1.6
1.22
0
0
0.22
0
-1.92
0
0.1
0
0
0.48

>  <PUBCHEM_SHAPE_SELFOVERLAP>  (1) 
518.589

>  <PUBCHEM_SHAPE_VOLUME>  (1) 
178.7

>  <PUBCHEM_COORDINATE_TYPE>  (1) 
2
5
10

$$$$
