29628
     RDKit          3D

 16 16  0  0  1  0  0  0  0  0999 V2000
   -1.9252   -0.8255    1.2061 O   0  0  0  0  0  0  0  0  0  0  0  0
   -2.1069   -1.1858   -1.1353 O   0  0  0  0  0  0  0  0  0  0  0  0
    1.9147   -0.6288   -0.2827 O   0  0  0  0  0  0  0  0  0  0  0  0
   -0.3175    0.2480   -0.2892 C   0  0  0  0  0  0  0  0  0  0  0  0
    1.1724    0.5697   -0.4546 C   0  0  0  0  0  0  0  0  0  0  0  0
   -1.1347    1.5474   -0.4256 C   0  0  0  0  0  0  0  0  0  0  0  0
   -0.5732   -0.3781    1.0946 C   0  0  0  0  0  0  0  0  0  0  0  0
   -0.7644   -0.7568   -1.3678 C   0  0  0  0  0  0  0  0  0  0  0  0
   -0.7102    2.5635    0.6220 C   0  0  0  0  0  0  0  0  0  0  0  0
    1.4383    1.1508   -1.8296 C   0  0  0  0  0  0  0  0  0  0  0  0
   -2.2417   -1.7562    0.1685 C   0  0  0  0  0  0  0  0  0  0  0  0
    3.1949   -0.3747    0.2806 C   0  0  0  0  0  0  0  0  0  0  0  0
   -1.5322    3.8367    0.5019 C   0  0  0  0  0  0  0  0  0  0  0  0
   -3.6922   -2.1721    0.3450 C   0  0  0  0  0  0  0  0  0  0  0  0
    3.1015   -0.4188    1.7971 C   0  0  0  0  0  0  0  0  0  0  0  0
    4.1762   -1.4196   -0.2311 C   0  0  0  0  0  0  0  0  0  0  0  0
  1  7  1  0
  1 11  1  0
  2  8  1  0
  2 11  1  0
  3  5  1  0
  3 12  1  0
  4  5  1  0
  4  6  1  0
  4  7  1  0
  4  8  1  0
  5 10  1  0
  6  9  1  0
  9 13  1  0
 11 14  1  0
 12 15  1  0
 12 16  1  0
M  END
>  <PUBCHEM_COMPOUND_CID>  (1) 
29628

>  <PUBCHEM_CONFORMER_RMSD>  (1) 
0.8

>  <PUBCHEM_CONFORMER_DIVERSEORDER>  (1) 
1
10
8
3
11
18
20
12
6
5
13
17
19
7
21
14
4
16
22
9
23
2
15

>  <PUBCHEM_MMFF94_PARTIAL_CHARGES>  (1) 
8
1 -0.56
11 0.56
12 0.28
2 -0.56
3 -0.56
5 0.28
7 0.28
8 0.28

>  <PUBCHEM_EFFECTIVE_ROTOR_COUNT>  (1) 
6.2

>  <PUBCHEM_PHARMACOPHORE_FEATURES>  (1) 
6
1 1 acceptor
1 13 hydrophobe
1 2 acceptor
1 3 acceptor
3 12 15 16 hydrophobe
6 1 2 4 7 8 11 rings

>  <PUBCHEM_HEAVY_ATOM_COUNT>  (1) 
16

>  <PUBCHEM_ATOM_DEF_STEREO_COUNT>  (1) 
0

>  <PUBCHEM_ATOM_UDEF_STEREO_COUNT>  (1) 
1

>  <PUBCHEM_BOND_DEF_STEREO_COUNT>  (1) 
0

>  <PUBCHEM_BOND_UDEF_STEREO_COUNT>  (1) 
0

>  <PUBCHEM_ISOTOPIC_ATOM_COUNT>  (1) 
0

>  <PUBCHEM_COMPONENT_COUNT>  (1) 
1

>  <PUBCHEM_CACTVS_TAUTO_COUNT>  (1) 
1

>  <PUBCHEM_CONFORMER_ID>  (1) 
000073BC00000001

>  <PUBCHEM_MMFF94_ENERGY>  (1) 
45.9046

>  <PUBCHEM_FEATURE_SELFOVERLAP>  (1) 
30.483

>  <PUBCHEM_SHAPE_FINGERPRINT>  (1) 
10130415 120 18262238936294966443
10922049 32 17766281972608240265
11357001 24 18339081484318993865
12423570 1 12782389140680889805
12500047 106 18053660275004379008
12716301 132 17617140972789923397
13024252 1 12180136327854085303
13134695 92 18195807590775153133
136203 1 18339643334903491689
14178342 30 18191293897922116938
14181834 199 17128729399760404389
14617773 55 18042426710257805308
14713566 1 18188478065390591805
14817 1 13500077071994048037
15295992 7 17273683261741853992
15852999 172 17767974133856556516
15906896 17 18196929976987355725
16945 1 18338524014765116589
19021347 4 17907583527803619833
20361792 2 18270962482745016119
20524608 308 18198059171070661264
20645477 70 17751079330453436291
21296965 67 18336260257873216515
21524375 3 17479444647634861480
21731228 192 17836654019626460521
22112679 90 18268170775614472705
23402539 116 18200871786882742909
23419403 2 17540207289438305948
23598294 1 18341909492834999788
266924 1 18043557042766252308
305870 269 17260464198597900545
3071541 236 18193545671438542237
3286 77 18046058530867751751
6049 1 17846493708782428960
633830 44 12324780377018591191
68419 9 17972070035006854324
81228 2 18338791217570900809
90316 7 18342187665071381449

>  <PUBCHEM_SHAPE_MULTIPOLES>  (1) 
311.66
5.42
3.11
1.46
4.1
3.25
-0.09
-4.18
1.06
-3.38
0.57
0.51
0.04
-0.36

>  <PUBCHEM_SHAPE_SELFOVERLAP>  (1) 
607.261

>  <PUBCHEM_SHAPE_VOLUME>  (1) 
188.5

>  <PUBCHEM_COORDINATE_TYPE>  (1) 
2
5
10

$$$$
