29635
     RDKit          3D

 14 13  0  0  1  0  0  0  0  0999 V2000
   -1.8038   -0.0858   -0.1604 O   0  0  0  0  0  0  0  0  0  0  0  0
    2.3980    0.5111   -0.2605 O   0  0  0  0  0  0  0  0  0  0  0  0
   -3.6081    0.0481    1.2771 O   0  0  0  0  0  0  0  0  0  0  0  0
    3.2221   -1.3114    0.8969 O   0  0  0  0  0  0  0  0  0  0  0  0
   -1.2769    1.1762    0.2401 C   0  0  0  0  0  0  0  0  0  0  0  0
    0.1500    1.3397   -0.2866 C   0  0  0  0  0  0  0  0  0  0  0  0
    1.0970    0.2785    0.2625 C   0  0  0  0  0  0  0  0  0  0  0  0
   -2.1936    2.2758   -0.2782 C   0  0  0  0  0  0  0  0  0  0  0  0
   -3.0731   -0.3556    0.2567 C   0  0  0  0  0  0  0  0  0  0  0  0
    3.3656   -0.3629    0.1417 C   0  0  0  0  0  0  0  0  0  0  0  0
   -3.7036   -1.2354   -0.7490 C   0  0  0  0  0  0  0  0  0  0  0  0
    4.6367    0.0368   -0.4970 C   0  0  0  0  0  0  0  0  0  0  0  0
   -4.9613   -1.6526   -0.5785 C   0  0  0  0  0  0  0  0  0  0  0  0
    5.7511   -0.6626   -0.2648 C   0  0  0  0  0  0  0  0  0  0  0  0
  1  5  1  0
  1  9  1  0
  2  7  1  0
  2 10  1  0
  3  9  2  0
  4 10  2  0
  5  6  1  0
  5  8  1  0
  6  7  1  0
  9 11  1  0
 10 12  1  0
 11 13  2  0
 12 14  2  0
M  END
>  <PUBCHEM_COMPOUND_CID>  (1) 
29635

>  <PUBCHEM_CONFORMER_RMSD>  (1) 
0.8

>  <PUBCHEM_CONFORMER_DIVERSEORDER>  (1) 
1
306
35
238
267
249
266
244
176
53
81
18
265
24
301
102
115
300
73
293
9
66
16
95
148
123
39
12
117
183
60
127
200
96
273
77
271
233
131
246
90
185
309
44
48
20
160
227
68
144
22
235
6
276
121
304
212
97
45
203
168
147
89
261
62
310
184
120
179
78
27
209
100
247
216
283
243
36
174
11
109
225
175
67
277
98
224
308
56
156
311
111
25
250
208
151
172
275
31
29
10
218
92
52
232
268
106
171
4
79
152
254
158
145
41
188
7
37
239
187
14
217
302
197
99
113
288
281
257
303
162
26
215
229
297
86
38
230
264
17
64
305
32
8
58
161
154
141
269
236
112
84
80
207
21
251
93
157
34
51
2
220
282
125
223
237
181
287
114
198
124
105
54
28
43
142
140
83
110
130
278
70
298
88
259
255
242
180
19
296
75
193
189
3
292
137
222
103
69
118
150
134
290
182
258
94
240
294
74
192
248
149
71
307
63
274
122
234
132
219
50
139
295
155
163
76
40
5
42
46
262
129
211
85
107
159
196
256
146
177
199
128
194
228
169
284
213
13
285
195
91
202
59
167
49
241
210
47
252
101
186
173
133
104
289
191
166
205
170
55
116
65
206
280
33
153
23
126
245
136
61
164
253
291
72
135
204
260
231
119
272
201
270
108
143
15
263
82
221
57
178
286
165
87
30
279
138
299
214
190
226

>  <PUBCHEM_MMFF94_PARTIAL_CHARGES>  (1) 
18
1 -0.43
10 0.71
11 -0.14
12 -0.14
13 -0.3
14 -0.3
2 -0.43
23 0.15
24 0.15
25 0.15
26 0.15
27 0.15
28 0.15
3 -0.57
4 -0.57
5 0.28
7 0.28
9 0.71

>  <PUBCHEM_EFFECTIVE_ROTOR_COUNT>  (1) 
8

>  <PUBCHEM_PHARMACOPHORE_FEATURES>  (1) 
4
1 13 hydrophobe
1 14 hydrophobe
1 3 acceptor
1 4 acceptor

>  <PUBCHEM_HEAVY_ATOM_COUNT>  (1) 
14

>  <PUBCHEM_ATOM_DEF_STEREO_COUNT>  (1) 
0

>  <PUBCHEM_ATOM_UDEF_STEREO_COUNT>  (1) 
1

>  <PUBCHEM_BOND_DEF_STEREO_COUNT>  (1) 
0

>  <PUBCHEM_BOND_UDEF_STEREO_COUNT>  (1) 
0

>  <PUBCHEM_ISOTOPIC_ATOM_COUNT>  (1) 
0

>  <PUBCHEM_COMPONENT_COUNT>  (1) 
1

>  <PUBCHEM_CACTVS_TAUTO_COUNT>  (1) 
1

>  <PUBCHEM_CONFORMER_ID>  (1) 
000073C300000001

>  <PUBCHEM_MMFF94_ENERGY>  (1) 
26.6193

>  <PUBCHEM_FEATURE_SELFOVERLAP>  (1) 
20.298

>  <PUBCHEM_SHAPE_FINGERPRINT>  (1) 
10680689 15 18410579452776993152
11046707 91 18272651264049054023
13288520 33 18343302578541454087
13675066 3 14836410215848333400
13911882 115 17775016691175770430
14123260 362 10881677975522092927
14576447 43 18260827099156637978
15501527 24 18113903788368981750
15880784 105 17989208182999704298
17834072 33 18408045113404381300
17834072 8 18334564747320341925
19784866 240 18339081605300972695
200 152 18113898264492354245
20281475 54 18338513045703238936
204376 136 10519994772643361277
20621476 21 17703526457827537182
20871999 31 17822283566092053781
21426921 1 18339079294076122613
22485316 2 18410008814784509288
23402539 116 18335138682818930645
23559900 14 18339630230868912441
2871803 45 18187641414472539402
351380 3 18412824720072288143
603831 33 18113610171129426210
6430166 295 9655578508883058026

>  <PUBCHEM_SHAPE_MULTIPOLES>  (1) 
264.64
11.83
1.74
0.85
8.62
0.56
0.1
-6.58
-1.24
-1.89
-0.24
-0.31
-0.1
-0.63

>  <PUBCHEM_SHAPE_SELFOVERLAP>  (1) 
508.251

>  <PUBCHEM_SHAPE_VOLUME>  (1) 
160.4

>  <PUBCHEM_COORDINATE_TYPE>  (1) 
2
5
10

$$$$
