29648
     RDKit          3D

 13 14  0  0  0  0  0  0  0  0999 V2000
   -0.3142    2.3696   -0.2834 O   0  0  0  0  0  0  0  0  0  0  0  0
   -1.5836   -0.3668   -0.2373 N   0  0  0  0  0  0  0  0  0  0  0  0
    1.7571   -1.1264    0.1274 N   0  0  0  0  0  0  0  0  0  0  0  0
   -0.3925   -2.2451   -0.0087 N   0  0  0  0  0  0  0  0  0  0  0  0
    1.7054    1.2887   -0.0248 N   0  0  0  0  0  0  0  0  0  0  0  0
    3.7046    0.0944    0.2382 N   0  0  0  0  0  0  0  0  0  0  0  0
   -0.2782    0.0214   -0.1368 C   0  0  0  0  0  0  0  0  0  0  0  0
   -2.7404    0.4808   -0.3997 C   0  0  0  0  0  0  0  0  0  0  0  0
    0.4194   -1.1513    0.0015 C   0  0  0  0  0  0  0  0  0  0  0  0
   -1.6007   -1.7379   -0.1549 C   0  0  0  0  0  0  0  0  0  0  0  0
    0.3199    1.3281   -0.1599 C   0  0  0  0  0  0  0  0  0  0  0  0
   -3.3345    0.9041    0.9327 C   0  0  0  0  0  0  0  0  0  0  0  0
    2.3375    0.1405    0.1057 C   0  0  0  0  0  0  0  0  0  0  0  0
  1 11  2  0
  2  7  1  0
  2  8  1  0
  2 10  1  0
  3  9  1  0
  3 13  1  0
  4  9  1  0
  4 10  2  0
  5 11  1  0
  5 13  2  0
  6 13  1  0
  7  9  2  0
  7 11  1  0
  8 12  1  0
M  END
>  <PUBCHEM_COMPOUND_CID>  (1) 
29648

>  <PUBCHEM_CONFORMER_RMSD>  (1) 
0.4

>  <PUBCHEM_CONFORMER_DIVERSEORDER>  (1) 
1
2
3

>  <PUBCHEM_MMFF94_PARTIAL_CHARGES>  (1) 
16
1 -0.57
10 0.04
11 0.87
13 0.55
16 0.15
17 0.4
2 0.05
21 0.4
22 0.4
3 -0.53
4 -0.57
5 -0.66
6 -0.85
7 -0.24
8 0.26
9 0.31

>  <PUBCHEM_EFFECTIVE_ROTOR_COUNT>  (1) 
1

>  <PUBCHEM_PHARMACOPHORE_FEATURES>  (1) 
7
1 1 acceptor
1 3 donor
1 5 donor
1 6 donor
3 2 4 10 cation
5 2 4 7 9 10 rings
6 3 5 7 9 11 13 rings

>  <PUBCHEM_HEAVY_ATOM_COUNT>  (1) 
13

>  <PUBCHEM_ATOM_DEF_STEREO_COUNT>  (1) 
0

>  <PUBCHEM_ATOM_UDEF_STEREO_COUNT>  (1) 
0

>  <PUBCHEM_BOND_DEF_STEREO_COUNT>  (1) 
0

>  <PUBCHEM_BOND_UDEF_STEREO_COUNT>  (1) 
0

>  <PUBCHEM_ISOTOPIC_ATOM_COUNT>  (1) 
0

>  <PUBCHEM_COMPONENT_COUNT>  (1) 
1

>  <PUBCHEM_CACTVS_TAUTO_COUNT>  (1) 
6

>  <PUBCHEM_CONFORMER_ID>  (1) 
000073D000000001

>  <PUBCHEM_MMFF94_ENERGY>  (1) 
25.2636

>  <PUBCHEM_FEATURE_SELFOVERLAP>  (1) 
35.767

>  <PUBCHEM_SHAPE_FINGERPRINT>  (1) 
10219947 1 18337113367422282937
11132069 177 18341041961091416296
11471102 22 18190201039024414353
12382932 28 18411414033689315304
12524768 44 18340769251831973830
13380535 76 18412542115476870159
14993402 34 18410851066661493773
15775835 57 17988648441582129297
161256 15 17981336590077402127
16945 1 18409161082782164084
17844478 74 17748831782767572365
193761 8 17905608057432041013
19973954 147 18049722124442246359
20588541 1 18413390912746668638
207724 885 18334857246602570017
21040471 1 18338516446963974375
21501502 16 18120939661515964725
2334 1 18121215652025277044
23402539 116 18129648807658297095
23402655 69 18268410362418971013
23463225 33 18335136492670498106
23552423 10 17684927299108649726
23559900 14 18342462569650287236
2748010 2 18266455606162814350
528886 8 18411411808753850531
53812653 166 18413668015182804600
63268167 104 18341327795459912889

>  <PUBCHEM_SHAPE_MULTIPOLES>  (1) 
236.76
4.39
2.08
0.68
0.51
0.17
-0.06
-0.95
-0.83
-0.4
0.11
-0.29
-0.08
-0.23

>  <PUBCHEM_SHAPE_SELFOVERLAP>  (1) 
513.042

>  <PUBCHEM_SHAPE_VOLUME>  (1) 
130.6

>  <PUBCHEM_COORDINATE_TYPE>  (1) 
2
5
10

$$$$
