29656
     RDKit          3D

  7  6  0  0  1  0  0  0  0  0999 V2000
   -2.0864    0.9820   -0.4224 O   0  0  0  0  0  0  0  0  0  0  0  0
   -0.2700   -0.6185   -0.3203 C   0  0  0  0  0  0  0  0  0  0  0  0
    0.7408    0.5528   -0.1862 C   0  0  0  0  0  0  0  0  0  0  0  0
   -1.6591   -0.2216    0.2050 C   0  0  0  0  0  0  0  0  0  0  0  0
    0.1987   -1.9191    0.3460 C   0  0  0  0  0  0  0  0  0  0  0  0
    1.0054    0.9851    1.2586 C   0  0  0  0  0  0  0  0  0  0  0  0
    2.0707    0.2393   -0.8807 C   0  0  0  0  0  0  0  0  0  0  0  0
  1  4  1  0
  2  3  1  0
  2  4  1  0
  2  5  1  0
  3  6  1  0
  3  7  1  0
M  END
>  <PUBCHEM_COMPOUND_CID>  (1) 
29656

>  <PUBCHEM_CONFORMER_RMSD>  (1) 
0.4

>  <PUBCHEM_CONFORMER_DIVERSEORDER>  (1) 
2
7
11
13
1
17
12
8
4
15
9
14
10
16
5
6
3

>  <PUBCHEM_MMFF94_PARTIAL_CHARGES>  (1) 
3
1 -0.68
21 0.4
4 0.28

>  <PUBCHEM_EFFECTIVE_ROTOR_COUNT>  (1) 
2

>  <PUBCHEM_PHARMACOPHORE_FEATURES>  (1) 
4
1 1 acceptor
1 1 donor
1 5 hydrophobe
3 3 6 7 hydrophobe

>  <PUBCHEM_HEAVY_ATOM_COUNT>  (1) 
7

>  <PUBCHEM_ATOM_DEF_STEREO_COUNT>  (1) 
0

>  <PUBCHEM_ATOM_UDEF_STEREO_COUNT>  (1) 
1

>  <PUBCHEM_BOND_DEF_STEREO_COUNT>  (1) 
0

>  <PUBCHEM_BOND_UDEF_STEREO_COUNT>  (1) 
0

>  <PUBCHEM_ISOTOPIC_ATOM_COUNT>  (1) 
0

>  <PUBCHEM_COMPONENT_COUNT>  (1) 
1

>  <PUBCHEM_CACTVS_TAUTO_COUNT>  (1) 
1

>  <PUBCHEM_CONFORMER_ID>  (1) 
000073D800000002

>  <PUBCHEM_MMFF94_ENERGY>  (1) 
10.1315

>  <PUBCHEM_FEATURE_SELFOVERLAP>  (1) 
20.302

>  <PUBCHEM_SHAPE_FINGERPRINT>  (1) 
137420 1 13948261320073078527
16714656 1 18116448117872337143
20096714 4 18341891900585372469
21040471 1 18336260227618417959
24536 1 17906162211360973020
29004967 10 16773532022125109638
5084963 1 18269845357524651431
5943 1 17043757620415012986

>  <PUBCHEM_SHAPE_MULTIPOLES>  (1) 
138.19
2.37
1.51
1.02
0.22
0.68
0.19
-0.72
-0.54
0.2
0.28
-0.39
-0.19
0.3

>  <PUBCHEM_SHAPE_SELFOVERLAP>  (1) 
242.987

>  <PUBCHEM_SHAPE_VOLUME>  (1) 
92.1

>  <PUBCHEM_COORDINATE_TYPE>  (1) 
2
5
10

$$$$
