29650
     RDKit          3D

 19 21  0  0  0  0  0  0  0  0999 V2000
   -0.0036    0.3503    0.0034 O   0  0  0  0  0  0  0  0  0  0  0  0
   -0.6969   -1.6556    0.7109 N   0  0  0  0  0  0  0  0  0  0  0  0
    0.6855   -1.6567    0.7120 N   0  0  0  0  0  0  0  0  0  0  0  0
   -3.3077   -2.0961   -0.4322 N   0  0  0  0  0  0  0  0  0  0  0  0
    3.3075   -2.0966   -0.4323 N   0  0  0  0  0  0  0  0  0  0  0  0
   -2.3585    0.0983    0.0913 C   0  0  0  0  0  0  0  0  0  0  0  0
    2.3507    0.0945    0.0931 C   0  0  0  0  0  0  0  0  0  0  0  0
   -1.0441   -0.4696    0.2925 C   0  0  0  0  0  0  0  0  0  0  0  0
    1.0462   -0.4666    0.2919 C   0  0  0  0  0  0  0  0  0  0  0  0
   -3.4473   -0.7000   -0.2596 C   0  0  0  0  0  0  0  0  0  0  0  0
    3.4493   -0.7008   -0.2593 C   0  0  0  0  0  0  0  0  0  0  0  0
   -2.5261    1.4734    0.2551 C   0  0  0  0  0  0  0  0  0  0  0  0
    2.5313    1.4740    0.2551 C   0  0  0  0  0  0  0  0  0  0  0  0
   -4.7036   -0.1231   -0.4465 C   0  0  0  0  0  0  0  0  0  0  0  0
    4.7064   -0.1258   -0.4463 C   0  0  0  0  0  0  0  0  0  0  0  0
   -3.7824    2.0501    0.0680 C   0  0  0  0  0  0  0  0  0  0  0  0
    3.7884    2.0490    0.0682 C   0  0  0  0  0  0  0  0  0  0  0  0
   -4.8710    1.2520   -0.2828 C   0  0  0  0  0  0  0  0  0  0  0  0
    4.8759    1.2491   -0.2824 C   0  0  0  0  0  0  0  0  0  0  0  0
  1  8  1  0
  1  9  1  0
  2  3  1  0
  2  8  2  0
  3  9  2  0
  4 10  1  0
  5 11  1  0
  6  8  1  0
  6 10  2  0
  6 12  1  0
  7  9  1  0
  7 11  2  0
  7 13  1  0
 10 14  1  0
 11 15  1  0
 12 16  2  0
 13 17  2  0
 14 18  2  0
 15 19  2  0
 16 18  1  0
 17 19  1  0
M  END
>  <PUBCHEM_COMPOUND_CID>  (1) 
29650

>  <PUBCHEM_CONFORMER_RMSD>  (1) 
0.6

>  <PUBCHEM_CONFORMER_DIVERSEORDER>  (1) 
1
14
16
2
3
20
19
11
13
6
5
18
17
15
7
4
10
12
21
9
8

>  <PUBCHEM_MMFF94_PARTIAL_CHARGES>  (1) 
31
1 -0.28
10 0.1
11 0.1
12 -0.15
13 -0.15
14 -0.15
15 -0.15
16 -0.15
17 -0.15
18 -0.15
19 -0.15
2 -0.34
20 0.15
21 0.15
22 0.15
23 0.15
24 0.15
25 0.15
26 0.15
27 0.15
28 0.4
29 0.4
3 -0.34
30 0.4
31 0.4
4 -0.9
5 -0.9
6 0.05
7 0.05
8 0.43
9 0.43

>  <PUBCHEM_EFFECTIVE_ROTOR_COUNT>  (1) 
2

>  <PUBCHEM_PHARMACOPHORE_FEATURES>  (1) 
7
1 4 cation
1 4 donor
1 5 cation
1 5 donor
5 1 2 3 8 9 rings
6 6 10 12 14 16 18 rings
6 7 11 13 15 17 19 rings

>  <PUBCHEM_HEAVY_ATOM_COUNT>  (1) 
19

>  <PUBCHEM_ATOM_DEF_STEREO_COUNT>  (1) 
0

>  <PUBCHEM_ATOM_UDEF_STEREO_COUNT>  (1) 
0

>  <PUBCHEM_BOND_DEF_STEREO_COUNT>  (1) 
0

>  <PUBCHEM_BOND_UDEF_STEREO_COUNT>  (1) 
0

>  <PUBCHEM_ISOTOPIC_ATOM_COUNT>  (1) 
0

>  <PUBCHEM_COMPONENT_COUNT>  (1) 
1

>  <PUBCHEM_CACTVS_TAUTO_COUNT>  (1) 
2

>  <PUBCHEM_CONFORMER_ID>  (1) 
000073D200000001

>  <PUBCHEM_MMFF94_ENERGY>  (1) 
69.2821

>  <PUBCHEM_FEATURE_SELFOVERLAP>  (1) 
35.522

>  <PUBCHEM_SHAPE_FINGERPRINT>  (1) 
10014705 185 18260827090487647205
10498660 4 18260821575459826677
10595046 47 18342173396999990037
10608611 8 18410576227514925832
10646746 165 18408885144092261316
11471102 20 18412266138617071188
11543360 7 18273212027605860187
12107183 9 17764310535300545696
12251169 10 8142085364112501795
12596602 18 14418145018901097540
12670546 177 18272933825362405485
12730499 353 18409176518947776338
12916748 109 18334862718522683049
13167823 11 18341891887537291263
14528608 73 18410571799087119685
15196674 1 18410011039493295960
15536298 74 18412262822211391132
17492 89 18412545422433428767
17834072 33 18342173375393310757
17959699 21 18409730642637883137
18186145 218 18260823778566487660
200 152 17704354376717645689
20300324 65 18272368698467291221
20645477 56 18407762530135996037
20645477 70 18202006486845473918
21267235 1 18411144636487785771
221357 26 18272368659422663121
22289505 5 18340767053331016212
23402539 116 18411412938551860516
23402655 69 18341895190646443780
23557571 272 18271533103731372719
23559900 14 18343581816030217946
245318 6 16882460819731849876
3004659 81 18335705993129690302
335352 9 18408605838844240214
34797466 226 17703516583317668092
351380 180 18411980269366850156
3545911 37 18411702092750871557
4028521 119 18334571330946270933
4214541 1 18412545401084400173
474 4 17894916251644647236
495365 180 17917421069296936928
4990 188 18272938210866828038
5104073 3 18408041805593586411
5281201 14 18343308037307808852
543358 83 18339646629428101226
59755656 520 17385724703065794675
633830 44 18334572430078129559
67856867 119 18411971469363651578
77779 3 18412826880250394733
9709674 26 18411426141392507286

>  <PUBCHEM_SHAPE_MULTIPOLES>  (1) 
365.22
11.16
2.18
0.71
0.04
0.03
-0.01
-3.45
2.15
0
-0.05
0
0.07
0

>  <PUBCHEM_SHAPE_SELFOVERLAP>  (1) 
811.968

>  <PUBCHEM_SHAPE_VOLUME>  (1) 
196

>  <PUBCHEM_COORDINATE_TYPE>  (1) 
2
5
10

$$$$
