29653
     RDKit          3D

 10  9  0  0  1  0  0  0  0  0999 V2000
    1.3047    1.8464    0.4877 O   0  0  0  0  0  0  0  0  0  0  0  0
    1.2034    0.4313    0.6721 C   0  0  0  0  0  0  0  0  0  0  0  0
   -0.1367   -0.0296    0.0781 C   0  0  0  0  0  0  0  0  0  0  0  0
   -1.3869    0.6746    0.6158 C   0  0  0  0  0  0  0  0  0  0  0  0
    2.4583   -0.2414    0.0705 C   0  0  0  0  0  0  0  0  0  0  0  0
   -2.7312    0.1446    0.0830 C   0  0  0  0  0  0  0  0  0  0  0  0
    2.4425   -1.7507    0.3430 C   0  0  0  0  0  0  0  0  0  0  0  0
    2.6020   -0.0046   -1.4359 C   0  0  0  0  0  0  0  0  0  0  0  0
   -2.7464    0.2198   -1.4463 C   0  0  0  0  0  0  0  0  0  0  0  0
   -3.0097   -1.2904    0.5319 C   0  0  0  0  0  0  0  0  0  0  0  0
  1  2  1  0
  2  3  1  0
  2  5  1  0
  3  4  1  0
  4  6  1  0
  5  7  1  0
  5  8  1  0
  6  9  1  0
  6 10  1  0
M  END
>  <PUBCHEM_COMPOUND_CID>  (1) 
29653

>  <PUBCHEM_CONFORMER_RMSD>  (1) 
0.6

>  <PUBCHEM_CONFORMER_DIVERSEORDER>  (1) 
4
6
3
5
2
1

>  <PUBCHEM_MMFF94_PARTIAL_CHARGES>  (1) 
3
1 -0.68
2 0.28
30 0.4

>  <PUBCHEM_EFFECTIVE_ROTOR_COUNT>  (1) 
4

>  <PUBCHEM_PHARMACOPHORE_FEATURES>  (1) 
4
1 1 acceptor
1 1 donor
3 5 7 8 hydrophobe
3 6 9 10 hydrophobe

>  <PUBCHEM_HEAVY_ATOM_COUNT>  (1) 
10

>  <PUBCHEM_ATOM_DEF_STEREO_COUNT>  (1) 
0

>  <PUBCHEM_ATOM_UDEF_STEREO_COUNT>  (1) 
1

>  <PUBCHEM_BOND_DEF_STEREO_COUNT>  (1) 
0

>  <PUBCHEM_BOND_UDEF_STEREO_COUNT>  (1) 
0

>  <PUBCHEM_ISOTOPIC_ATOM_COUNT>  (1) 
0

>  <PUBCHEM_COMPONENT_COUNT>  (1) 
1

>  <PUBCHEM_CACTVS_TAUTO_COUNT>  (1) 
1

>  <PUBCHEM_CONFORMER_ID>  (1) 
000073D500000004

>  <PUBCHEM_MMFF94_ENERGY>  (1) 
13.6851

>  <PUBCHEM_FEATURE_SELFOVERLAP>  (1) 
20.297

>  <PUBCHEM_SHAPE_FINGERPRINT>  (1) 
10857977 72 12966840286684284177
12897270 3 18334293184363271873
12932741 1 18261382386613999185
12932764 1 17821442469856300761
14390081 3 14417855847300274445
18522851 268 17603587426114516151
20201158 50 18411133623801521691
20279233 1 18336816567859796459
20645477 70 18060132172085911719
20653085 51 16805885074674205077
20653091 64 18202007642022657152
20711985 327 17774710988045260888
20711985 344 17699305269278923136
23552423 10 18341331205510984577
3248919 1 18187079533717879617
5084963 1 17894351085677764883
8030462 33 18412545383777813473
93112 12 17530963540606767015

>  <PUBCHEM_SHAPE_MULTIPOLES>  (1) 
199.93
5.49
1.42
1.18
1.51
0.28
-0.47
1.41
-1.14
-0.45
0.31
0.03
-0.21
0.23

>  <PUBCHEM_SHAPE_SELFOVERLAP>  (1) 
359.491

>  <PUBCHEM_SHAPE_VOLUME>  (1) 
130.6

>  <PUBCHEM_COORDINATE_TYPE>  (1) 
2
5
10

$$$$
