29655
     RDKit          3D

 10  9  0  0  1  0  0  0  0  0999 V2000
   -0.0751   -2.0347   -0.1216 O   0  0  0  0  0  0  0  0  0  0  0  0
    0.2237   -0.7137    0.3429 C   0  0  0  0  0  0  0  0  0  0  0  0
   -1.0953    0.0951    0.4898 C   0  0  0  0  0  0  0  0  0  0  0  0
    1.2779   -0.1038   -0.6179 C   0  0  0  0  0  0  0  0  0  0  0  0
   -1.7581    0.3911   -0.8731 C   0  0  0  0  0  0  0  0  0  0  0  0
    1.7076    1.3354   -0.2693 C   0  0  0  0  0  0  0  0  0  0  0  0
   -2.0668   -0.6426    1.4247 C   0  0  0  0  0  0  0  0  0  0  0  0
    2.5062   -1.0242   -0.7207 C   0  0  0  0  0  0  0  0  0  0  0  0
   -3.0516    1.1889   -0.7637 C   0  0  0  0  0  0  0  0  0  0  0  0
    2.3317    1.5086    1.1089 C   0  0  0  0  0  0  0  0  0  0  0  0
  1  2  1  0
  2  3  1  0
  2  4  1  0
  3  5  1  0
  3  7  1  0
  4  6  1  0
  4  8  1  0
  5  9  1  0
  6 10  1  0
M  END
>  <PUBCHEM_COMPOUND_CID>  (1) 
29655

>  <PUBCHEM_CONFORMER_RMSD>  (1) 
0.6

>  <PUBCHEM_CONFORMER_DIVERSEORDER>  (1) 
1
16
28
3
23
11
14
21
8
13
27
5
17
10
22
18
12
19
25
7
24
9
6
15
2
4
20
26

>  <PUBCHEM_MMFF94_PARTIAL_CHARGES>  (1) 
3
1 -0.68
2 0.28
30 0.4

>  <PUBCHEM_EFFECTIVE_ROTOR_COUNT>  (1) 
4

>  <PUBCHEM_PHARMACOPHORE_FEATURES>  (1) 
6
1 1 acceptor
1 1 donor
1 10 hydrophobe
1 7 hydrophobe
1 8 hydrophobe
1 9 hydrophobe

>  <PUBCHEM_HEAVY_ATOM_COUNT>  (1) 
10

>  <PUBCHEM_ATOM_DEF_STEREO_COUNT>  (1) 
0

>  <PUBCHEM_ATOM_UDEF_STEREO_COUNT>  (1) 
2

>  <PUBCHEM_BOND_DEF_STEREO_COUNT>  (1) 
0

>  <PUBCHEM_BOND_UDEF_STEREO_COUNT>  (1) 
0

>  <PUBCHEM_ISOTOPIC_ATOM_COUNT>  (1) 
0

>  <PUBCHEM_COMPONENT_COUNT>  (1) 
1

>  <PUBCHEM_CACTVS_TAUTO_COUNT>  (1) 
1

>  <PUBCHEM_CONFORMER_ID>  (1) 
000073D700000001

>  <PUBCHEM_MMFF94_ENERGY>  (1) 
14.714

>  <PUBCHEM_FEATURE_SELFOVERLAP>  (1) 
30.449

>  <PUBCHEM_SHAPE_FINGERPRINT>  (1) 
10857977 72 17678756732737851411
12423570 1 16054377638352938474
12932741 1 18335146383705809247
12932764 1 18337402611652180970
13380536 237 18128804434188592486
14390081 3 18335413543973591701
16945 1 17917439670241139446
20653085 51 18272368625305310029
20715346 28 18334582373043210912
21040471 1 18335702796914204476
21930827 45 17531253829046078137
230 275 18187352199759279989
23211744 41 18335988674063750946
23235685 24 17604432886194797205
23552423 10 15051471374347355237
2748010 2 18336273408904659069
5084963 1 18042427831164985986

>  <PUBCHEM_SHAPE_MULTIPOLES>  (1) 
199.93
4.13
1.69
1.22
0.9
0.15
0.28
-1.36
-0.35
-0.53
0.05
0.25
-0.08
1.08

>  <PUBCHEM_SHAPE_SELFOVERLAP>  (1) 
359.957

>  <PUBCHEM_SHAPE_VOLUME>  (1) 
130.4

>  <PUBCHEM_COORDINATE_TYPE>  (1) 
2
5
10

$$$$
