29660
     RDKit          3D

 17 20  0  0  0  0  0  0  0  0999 V2000
    0.6855    0.0975    0.0931 C   0  0  0  0  0  0  0  0  0  0  0  0
   -0.6819    0.0968    0.0781 C   0  0  0  0  0  0  0  0  0  0  0  0
    1.3955    1.4077    0.2321 C   0  0  0  0  0  0  0  0  0  0  0  0
    0.6407    2.6001    0.7486 C   0  0  0  0  0  0  0  0  0  0  0  0
   -1.4116    1.4078    0.0430 C   0  0  0  0  0  0  0  0  0  0  0  0
    1.5753   -1.0914   -0.1080 C   0  0  0  0  0  0  0  0  0  0  0  0
   -1.5409   -1.1263    0.0097 C   0  0  0  0  0  0  0  0  0  0  0  0
   -0.7983    2.5568    0.3704 C   0  0  0  0  0  0  0  0  0  0  0  0
    2.6964    1.5205   -0.1025 C   0  0  0  0  0  0  0  0  0  0  0  0
   -2.8002    1.4500   -0.3988 C   0  0  0  0  0  0  0  0  0  0  0  0
    2.9520   -0.8418   -0.5754 C   0  0  0  0  0  0  0  0  0  0  0  0
   -2.8460   -0.9732   -0.3262 C   0  0  0  0  0  0  0  0  0  0  0  0
    1.2619   -2.3864    0.0788 C   0  0  0  0  0  0  0  0  0  0  0  0
   -1.1784   -2.4475    0.4944 C   0  0  0  0  0  0  0  0  0  0  0  0
    3.4642    0.3965   -0.5804 C   0  0  0  0  0  0  0  0  0  0  0  0
   -3.4595    0.3050   -0.6145 C   0  0  0  0  0  0  0  0  0  0  0  0
    0.0452   -2.9721    0.5574 C   0  0  0  0  0  0  0  0  0  0  0  0
  1  2  2  0
  1  3  1  0
  1  6  1  0
  2  5  1  0
  2  7  1  0
  3  4  1  0
  3  9  2  0
  4  8  1  0
  5  8  2  0
  5 10  1  0
  6 11  1  0
  6 13  2  0
  7 12  2  0
  7 14  1  0
  9 15  1  0
 10 16  2  0
 11 15  2  0
 12 16  1  0
 13 17  1  0
 14 17  2  0
M  END
>  <PUBCHEM_COMPOUND_CID>  (1) 
29660

>  <PUBCHEM_CONFORMER_RMSD>  (1) 
0.4

>  <PUBCHEM_CONFORMER_DIVERSEORDER>  (1) 
1

>  <PUBCHEM_MMFF94_PARTIAL_CHARGES>  (1) 
22
10 -0.15
11 -0.15
12 -0.15
13 -0.15
14 -0.15
15 -0.15
16 -0.15
17 -0.15
20 0.15
21 0.15
22 0.15
23 0.15
24 0.15
25 0.15
26 0.15
27 0.15
28 0.15
29 0.15
3 -0.14
4 0.28
8 -0.29
9 -0.15

>  <PUBCHEM_EFFECTIVE_ROTOR_COUNT>  (1) 
0.2

>  <PUBCHEM_PHARMACOPHORE_FEATURES>  (1) 
4
6 1 2 3 4 5 8 rings
6 1 3 6 9 11 15 rings
6 2 5 7 10 12 16 rings
7 1 2 6 7 13 14 17 rings

>  <PUBCHEM_HEAVY_ATOM_COUNT>  (1) 
17

>  <PUBCHEM_ATOM_DEF_STEREO_COUNT>  (1) 
0

>  <PUBCHEM_ATOM_UDEF_STEREO_COUNT>  (1) 
0

>  <PUBCHEM_BOND_DEF_STEREO_COUNT>  (1) 
0

>  <PUBCHEM_BOND_UDEF_STEREO_COUNT>  (1) 
0

>  <PUBCHEM_ISOTOPIC_ATOM_COUNT>  (1) 
0

>  <PUBCHEM_COMPONENT_COUNT>  (1) 
1

>  <PUBCHEM_CACTVS_TAUTO_COUNT>  (1) 
1

>  <PUBCHEM_CONFORMER_ID>  (1) 
000073DC00000001

>  <PUBCHEM_MMFF94_ENERGY>  (1) 
72.9871

>  <PUBCHEM_FEATURE_SELFOVERLAP>  (1) 
20.365

>  <PUBCHEM_SHAPE_FINGERPRINT>  (1) 
10693767 8 18058428994473913383
10759866 29 17895480327638862950
10967382 1 18410855460138724307
1100329 8 17546447778081937360
11458722 379 18338806602486477750
12730499 353 18261380123857292229
13140716 1 18411138000262043616
13380535 76 18410006645910524742
14178342 30 17907847406441731096
1420 336 17474954224966836835
14251745 187 18269831085242942392
14790565 3 18338818752796789225
16945 1 18266741272785012680
193761 8 17834394523146529816
19591789 44 18337678615246862011
20588541 1 18266741466116680137
20739085 24 15244852019384306800
20905425 154 18126844885160696310
21634736 98 18052540971904039990
22721475 48 18267309913580715597
22802520 49 18124882518808398218
2334 1 18411136982349512777
23388829 49 17617367386164684018
23402539 116 18341602720854116446
23493267 7 17603307080550225841
23559900 14 18341899623912822204
238 59 17902469828240288375
25 1 18408319965077226271
2748010 2 17330553662004590857
2871803 45 18339349855893894671
2897 32 18121503444766881372
34934 24 18200300014423060453
353137 74 18339081475692161889
5262128 65 17772485499016796838
589210 1 17546446038578049153
7364860 26 18195804072616987478
8809292 202 18337393862977612530
9709674 26 18341899644675372454

>  <PUBCHEM_SHAPE_MULTIPOLES>  (1) 
349.85
4.71
3.36
0.77
0.05
0.72
0
-0.67
1.42
-0.03
-0.84
0.01
-0.03
0.22

>  <PUBCHEM_SHAPE_SELFOVERLAP>  (1) 
794.093

>  <PUBCHEM_SHAPE_VOLUME>  (1) 
170

>  <PUBCHEM_COORDINATE_TYPE>  (1) 
2
5
10

$$$$
