29667
     RDKit          3D

 14 14  0  0  0  0  0  0  0  0999 V2000
    0.5381    0.5423   -0.6729 N   0  0  0  0  0  0  0  0  0  0  0  0
    2.6880    0.7614   -0.0129 N   0  0  0  0  0  0  0  0  0  0  0  0
    1.0257    0.7027    1.6746 N   0  0  0  0  0  0  0  0  0  0  0  0
    4.7067   -0.3180   -0.4599 N   0  0  0  0  0  0  0  0  0  0  0  0
    2.9162   -1.6308    0.0753 N   0  0  0  0  0  0  0  0  0  0  0  0
   -2.7779   -0.9384    0.0058 C   0  0  0  0  0  0  0  0  0  0  0  0
   -0.8392    0.4299   -0.4198 C   0  0  0  0  0  0  0  0  0  0  0  0
   -1.4103   -0.8274   -0.2458 C   0  0  0  0  0  0  0  0  0  0  0  0
   -3.5683    0.2084    0.0822 C   0  0  0  0  0  0  0  0  0  0  0  0
   -1.6239    1.5772   -0.3446 C   0  0  0  0  0  0  0  0  0  0  0  0
   -2.9913    1.4661   -0.0930 C   0  0  0  0  0  0  0  0  0  0  0  0
   -3.3955   -2.2829    0.1937 C   0  0  0  0  0  0  0  0  0  0  0  0
    1.3563    0.6566    0.3363 C   0  0  0  0  0  0  0  0  0  0  0  0
    3.3755   -0.3470   -0.1190 C   0  0  0  0  0  0  0  0  0  0  0  0
  1  7  1  0
  1 13  2  0
  2 13  1  0
  2 14  2  0
  3 13  1  0
  4 14  1  0
  5 14  1  0
  6  8  2  0
  6  9  1  0
  6 12  1  0
  7  8  1  0
  7 10  2  0
  9 11  2  0
 10 11  1  0
M  END
>  <PUBCHEM_COMPOUND_CID>  (1) 
29667

>  <PUBCHEM_CONFORMER_RMSD>  (1) 
0.6

>  <PUBCHEM_CONFORMER_DIVERSEORDER>  (1) 
1
4
5
2
3
6

>  <PUBCHEM_MMFF94_PARTIAL_CHARGES>  (1) 
24
1 -0.63
10 -0.15
11 -0.15
12 0.14
13 0.71
14 0.55
15 0.15
16 0.15
17 0.15
18 0.15
2 -0.66
22 0.4
23 0.4
24 0.4
25 0.4
26 0.4
27 0.4
3 -0.85
4 -0.85
5 -0.85
6 -0.14
7 0.18
8 -0.15
9 -0.15

>  <PUBCHEM_EFFECTIVE_ROTOR_COUNT>  (1) 
2

>  <PUBCHEM_PHARMACOPHORE_FEATURES>  (1) 
6
1 3 donor
1 4 donor
1 5 donor
4 1 2 3 13 cation
4 2 4 5 14 cation
6 6 7 8 9 10 11 rings

>  <PUBCHEM_HEAVY_ATOM_COUNT>  (1) 
14

>  <PUBCHEM_ATOM_DEF_STEREO_COUNT>  (1) 
0

>  <PUBCHEM_ATOM_UDEF_STEREO_COUNT>  (1) 
0

>  <PUBCHEM_BOND_DEF_STEREO_COUNT>  (1) 
0

>  <PUBCHEM_BOND_UDEF_STEREO_COUNT>  (1) 
0

>  <PUBCHEM_ISOTOPIC_ATOM_COUNT>  (1) 
0

>  <PUBCHEM_COMPONENT_COUNT>  (1) 
1

>  <PUBCHEM_CACTVS_TAUTO_COUNT>  (1) 
5

>  <PUBCHEM_CONFORMER_ID>  (1) 
000073E300000001

>  <PUBCHEM_MMFF94_ENERGY>  (1) 
47.0068

>  <PUBCHEM_FEATURE_SELFOVERLAP>  (1) 
30.547

>  <PUBCHEM_SHAPE_FINGERPRINT>  (1) 
10465860 250 17988637459334773144
10616163 171 18409452500566655526
10751810 167 18410581664885370388
11769659 78 18408318899714307622
12186901 62 18187363177911778261
124424 183 17775281638611539881
12500047 106 18337383838671877205
12932764 1 17560514126667849933
13760787 19 18335144154897429062
14965852 173 18410572881545381149
15653759 3 18343861130116165377
17804303 29 18342461456298721853
17834074 16 18411983546263366790
18186145 218 15502382244234163156
19422 9 18260553350282624612
200 152 16988552512159054173
20281407 28 18411983572043427714
20281475 54 18334009476151461678
20871998 184 18271527593499478167
22094290 60 18335141985648911156
22485316 2 18334855000577176326
23175994 123 17274829042788740680
23402539 116 16660642930440593324
23559900 14 18339352067211604240
31174 14 17487611068692199169
3312278 4 18342459201472520512
449060 23 18040713696874409383
53748568 43 17385997347895381129
58051976 100 18409168809322821829
633830 44 15936981725720608108
7364860 26 18192996143321523500
77779 3 18410014338476435924
9709674 26 18410017636758592350

>  <PUBCHEM_SHAPE_MULTIPOLES>  (1) 
263.21
7.51
1.78
0.83
5.46
0.61
-0.25
2.29
0.43
-1.58
-0.02
0.2
-0.14
0.29

>  <PUBCHEM_SHAPE_SELFOVERLAP>  (1) 
544.666

>  <PUBCHEM_SHAPE_VOLUME>  (1) 
147.4

>  <PUBCHEM_COORDINATE_TYPE>  (1) 
2
5
10

$$$$
