29679
     RDKit          3D

 14 15  0  0  0  0  0  0  0  0999 V2000
    2.6168    1.6744   -0.0051 O   0  0  0  0  0  0  0  0  0  0  0  0
   -3.9399   -1.4153   -0.0179 O   0  0  0  0  0  0  0  0  0  0  0  0
   -4.2406    0.7629    0.0338 O   0  0  0  0  0  0  0  0  0  0  0  0
    2.9002   -0.6300   -0.0567 N   0  0  0  0  0  0  0  0  0  0  0  0
   -3.4929   -0.2437    0.0053 N   0  0  0  0  0  0  0  0  0  0  0  0
    4.1902   -0.6994   -0.6772 C   0  0  0  0  0  0  0  0  0  0  0  0
    4.0413   -0.8355    0.7858 C   0  0  0  0  0  0  0  0  0  0  0  0
    2.1535    0.5374   -0.0241 C   0  0  0  0  0  0  0  0  0  0  0  0
    0.6770    0.3323   -0.0147 C   0  0  0  0  0  0  0  0  0  0  0  0
    0.1512   -0.9593   -0.0380 C   0  0  0  0  0  0  0  0  0  0  0  0
   -0.1790    1.4332    0.0161 C   0  0  0  0  0  0  0  0  0  0  0  0
   -1.2305   -1.1502   -0.0306 C   0  0  0  0  0  0  0  0  0  0  0  0
   -1.5607    1.2425    0.0234 C   0  0  0  0  0  0  0  0  0  0  0  0
   -2.0865   -0.0493   -0.0001 C   0  0  0  0  0  0  0  0  0  0  0  0
  1  8  2  0
  2  5  1  0
  3  5  2  0
  4  6  1  0
  4  7  1  0
  4  8  1  0
  5 14  1  0
  6  7  1  0
  8  9  1  0
  9 10  2  0
  9 11  1  0
 10 12  1  0
 11 13  2  0
 12 14  2  0
 13 14  1  0
M  CHG  2   2  -1   5   1
M  END
>  <PUBCHEM_COMPOUND_CID>  (1) 
29679

>  <PUBCHEM_CONFORMER_RMSD>  (1) 
0.6

>  <PUBCHEM_CONFORMER_DIVERSEORDER>  (1) 
1
3
2

>  <PUBCHEM_MMFF94_PARTIAL_CHARGES>  (1) 
22
1 -0.57
10 -0.15
11 -0.15
12 -0.15
13 -0.15
14 0.13
15 0.1
16 0.1
17 0.1
18 0.1
19 0.15
2 -0.52
20 0.15
21 0.15
22 0.15
3 -0.52
4 -0.36
5 0.91
6 -0.05
7 -0.05
8 0.54
9 0.09

>  <PUBCHEM_EFFECTIVE_ROTOR_COUNT>  (1) 
3.6

>  <PUBCHEM_PHARMACOPHORE_FEATURES>  (1) 
5
1 1 acceptor
1 2 acceptor
1 2 anion
1 3 acceptor
6 9 10 11 12 13 14 rings

>  <PUBCHEM_HEAVY_ATOM_COUNT>  (1) 
14

>  <PUBCHEM_ATOM_DEF_STEREO_COUNT>  (1) 
0

>  <PUBCHEM_ATOM_UDEF_STEREO_COUNT>  (1) 
0

>  <PUBCHEM_BOND_DEF_STEREO_COUNT>  (1) 
0

>  <PUBCHEM_BOND_UDEF_STEREO_COUNT>  (1) 
0

>  <PUBCHEM_ISOTOPIC_ATOM_COUNT>  (1) 
0

>  <PUBCHEM_COMPONENT_COUNT>  (1) 
1

>  <PUBCHEM_CACTVS_TAUTO_COUNT>  (1) 
1

>  <PUBCHEM_CONFORMER_ID>  (1) 
000073EF00000001

>  <PUBCHEM_MMFF94_ENERGY>  (1) 
50.2444

>  <PUBCHEM_FEATURE_SELFOVERLAP>  (1) 
25.452

>  <PUBCHEM_SHAPE_FINGERPRINT>  (1) 
10062212 137 18412537717683501607
10130415 120 18411698794379356344
11062470 55 12175899952575868138
11132069 177 18272083894389766315
11401426 45 18343294851831958933
11543360 7 15791739649526452087
11769659 78 18409163337508158039
12032990 46 18410578409210547547
12932764 1 17168130256722403376
13288520 33 18340771442824223590
13296908 3 18334857268093042427
13675066 3 17918270948133855994
13690532 89 18335983086611953034
13760787 5 18334298699338663405
14115302 16 17749402468147153694
14144814 61 18410009897522332954
14252887 29 17917716781969070062
14325111 11 18410856598563702477
14993402 34 16950288407589423230
15196674 1 18411136960885245229
15536298 74 18341612659223998208
16945 1 18411703140859782006
17804303 29 18413392033522116756
18186145 218 17822284708431755549
18522853 276 18342173350019295248
19422 9 18410296947155636033
200 152 17846210047324512141
20201158 50 18342461413402075774
20510252 161 18130223757597473104
20645476 183 17824281485999031214
20645477 70 18411418427478061678
21267235 1 18410865373303486831
21501925 9 18412256247033114536
22485316 2 18408881841188492722
2255824 54 18041282153619358988
23402539 116 18201710739449384213
23463225 33 18410012134809897486
23559900 14 18341893000661457200
42 15 18409728448157209434
43471831 8 18263360283283748690
5104073 3 18411702118736804681
53655031 270 18337108973459697211
57812782 119 18201717336397837724
69090 78 18131625694809680366
7364860 26 18270120248860433336
8809292 202 18260834829633748787

>  <PUBCHEM_SHAPE_MULTIPOLES>  (1) 
260.54
7.82
1.5
0.67
0.13
0.25
0.01
-1.98
0.05
-0.18
0.01
0.39
-0.06
-0.07

>  <PUBCHEM_SHAPE_SELFOVERLAP>  (1) 
554.287

>  <PUBCHEM_SHAPE_VOLUME>  (1) 
146.1

>  <PUBCHEM_COORDINATE_TYPE>  (1) 
2
5
10

$$$$
