29677
     RDKit          3D

 20 19  0  0  0  0  0  0  0  0999 V2000
   -0.4042   -1.4956   -0.3933 S   0  0  0  0  0  0  0  0  0  0  0  0
   -1.9667   -0.0992   -0.4759 P   0  0  0  0  0  0  0  0  0  0  0  0
   -3.3564   -0.8099   -0.9301 O   0  0  0  0  0  0  0  0  0  0  0  0
   -2.2966    0.4054    1.0343 O   0  0  0  0  0  0  0  0  0  0  0  0
    1.1153    1.7675   -0.1024 O   0  0  0  0  0  0  0  0  0  0  0  0
    3.3593   -0.7639    0.3902 O   0  0  0  0  0  0  0  0  0  0  0  0
   -1.6027    1.0422   -1.3901 O   0  0  0  0  0  0  0  0  0  0  0  0
    1.6229    0.4057   -1.8939 O   0  0  0  0  0  0  0  0  0  0  0  0
    2.1364   -2.6837    0.7332 O   0  0  0  0  0  0  0  0  0  0  0  0
    1.0212   -0.5621    0.2474 C   0  0  0  0  0  0  0  0  0  0  0  0
    1.2985    0.5646   -0.7236 C   0  0  0  0  0  0  0  0  0  0  0  0
    2.2009   -1.4890    0.4755 C   0  0  0  0  0  0  0  0  0  0  0  0
   -3.8667   -1.9071   -0.1925 C   0  0  0  0  0  0  0  0  0  0  0  0
   -3.3604    1.3213    1.2308 C   0  0  0  0  0  0  0  0  0  0  0  0
    1.3296    2.9222   -0.9203 C   0  0  0  0  0  0  0  0  0  0  0  0
    4.5663   -1.4956    0.6273 C   0  0  0  0  0  0  0  0  0  0  0  0
   -5.1597   -2.3705   -0.8289 C   0  0  0  0  0  0  0  0  0  0  0  0
   -3.4716    1.6385    2.7069 C   0  0  0  0  0  0  0  0  0  0  0  0
    1.0885    4.1655   -0.0909 C   0  0  0  0  0  0  0  0  0  0  0  0
    5.7462   -0.5561    0.4963 C   0  0  0  0  0  0  0  0  0  0  0  0
  1  2  1  0
  1 10  1  0
  2  3  1  0
  2  4  1  0
  2  7  2  0
  3 13  1  0
  4 14  1  0
  5 11  1  0
  5 15  1  0
  6 12  1  0
  6 16  1  0
  8 11  2  0
  9 12  2  0
 10 11  1  0
 10 12  1  0
 13 17  1  0
 14 18  1  0
 15 19  1  0
 16 20  1  0
M  END
>  <PUBCHEM_COMPOUND_CID>  (1) 
29677

>  <PUBCHEM_CONFORMER_RMSD>  (1) 
1

>  <PUBCHEM_CONFORMER_DIVERSEORDER>  (1) 
1
44
19
52
73
74
41
37
49
29
47
80
70
25
68
72
43
40
28
81
53
27
17
65
34
5
10
31
82
57
38
66
50
24
54
61
26
35
12
69
58
20
6
62
67
59
78
48
9
76
11
55
33
2
21
7
30
8
42
75
51
71
46
16
13
79
39
56
32
14
4
60
22
3
64
45
63
83
77
23
18
15
36

>  <PUBCHEM_MMFF94_PARTIAL_CHARGES>  (1) 
16
1 -0.48
10 0.35
11 0.66
12 0.66
13 0.28
14 0.28
15 0.28
16 0.28
2 1.49
3 -0.55
4 -0.55
5 -0.43
6 -0.43
7 -0.7
8 -0.57
9 -0.57

>  <PUBCHEM_EFFECTIVE_ROTOR_COUNT>  (1) 
12

>  <PUBCHEM_PHARMACOPHORE_FEATURES>  (1) 
4
1 10 anion
1 7 acceptor
1 8 acceptor
1 9 acceptor

>  <PUBCHEM_HEAVY_ATOM_COUNT>  (1) 
20

>  <PUBCHEM_ATOM_DEF_STEREO_COUNT>  (1) 
0

>  <PUBCHEM_ATOM_UDEF_STEREO_COUNT>  (1) 
0

>  <PUBCHEM_BOND_DEF_STEREO_COUNT>  (1) 
0

>  <PUBCHEM_BOND_UDEF_STEREO_COUNT>  (1) 
0

>  <PUBCHEM_ISOTOPIC_ATOM_COUNT>  (1) 
0

>  <PUBCHEM_COMPONENT_COUNT>  (1) 
1

>  <PUBCHEM_CACTVS_TAUTO_COUNT>  (1) 
1

>  <PUBCHEM_CONFORMER_ID>  (1) 
000073ED00000001

>  <PUBCHEM_MMFF94_ENERGY>  (1) 
13.2564

>  <PUBCHEM_FEATURE_SELFOVERLAP>  (1) 
20.298

>  <PUBCHEM_SHAPE_FINGERPRINT>  (1) 
12633257 1 17899450569358290905
12788726 201 17845387703280308451
12892183 10 17703497827469877250
13009979 54 18202289112498685065
13965767 371 17696771968565697777
14178342 30 18059303058682833551
14787075 74 18113056039297731754
17980427 23 17989487415924657005
20600515 1 17773608130401227608
20671657 1 18265334099965551508
21524375 3 17838063958632090740
23526113 38 16081636782210976107
23557571 272 17060344011208196419
23558518 356 17763496162621047817
23559900 14 18263910194074869387
23598291 2 18341628026379541661
25147074 1 18341626952954339065
312423 11 18269570475612935943
3286 77 18334289920214520655
3380486 145 18189617133809627885
6992083 37 18269278950344116073
7364860 26 18263637544970667446
7471813 234 18129370656912192871
7615 1 18341342162352436249

>  <PUBCHEM_SHAPE_MULTIPOLES>  (1) 
378.2
9.4
3.69
1.58
1.62
3.46
0.62
-6.39
2.3
0.24
-0.13
-1.41
0.84
-2.86

>  <PUBCHEM_SHAPE_SELFOVERLAP>  (1) 
689.98

>  <PUBCHEM_SHAPE_VOLUME>  (1) 
242

>  <PUBCHEM_COORDINATE_TYPE>  (1) 
2
5
10

$$$$
