29676
     RDKit          3D

 26 28  0  0  1  0  0  0  0  0999 V2000
    0.0898    1.3440   -2.0781 O   0  0  0  0  0  0  0  0  0  0  0  0
   -3.7143   -2.3375    0.5030 O   0  0  0  0  0  0  0  0  0  0  0  0
   -4.3632    2.3863    0.0517 O   0  0  0  0  0  0  0  0  0  0  0  0
   -5.3196   -0.1006    0.8076 O   0  0  0  0  0  0  0  0  0  0  0  0
    5.5022    0.7886    1.0320 N   0  0  0  0  0  0  0  0  0  0  0  0
    0.7523   -0.5597   -0.9326 N   0  0  0  0  0  0  0  0  0  0  0  0
    3.0026    0.3106   -0.4437 C   0  0  0  0  0  0  0  0  0  0  0  0
    3.3072   -0.3972    0.8958 C   0  0  0  0  0  0  0  0  0  0  0  0
    2.1297   -0.5518   -1.3795 C   0  0  0  0  0  0  0  0  0  0  0  0
    3.8490   -1.8218    0.6861 C   0  0  0  0  0  0  0  0  0  0  0  0
    4.3090    0.7418   -1.1343 C   0  0  0  0  0  0  0  0  0  0  0  0
    4.2651    0.4540    1.7506 C   0  0  0  0  0  0  0  0  0  0  0  0
    2.6474   -1.9861   -1.5296 C   0  0  0  0  0  0  0  0  0  0  0  0
    2.9156   -2.6565   -0.1847 C   0  0  0  0  0  0  0  0  0  0  0  0
    5.2072    1.5448   -0.1914 C   0  0  0  0  0  0  0  0  0  0  0  0
    6.4077    1.5459    1.8957 C   0  0  0  0  0  0  0  0  0  0  0  0
   -0.1594    0.4040   -1.3278 C   0  0  0  0  0  0  0  0  0  0  0  0
   -1.5261    0.2708   -0.7607 C   0  0  0  0  0  0  0  0  0  0  0  0
   -2.3030    1.4020   -0.6216 C   0  0  0  0  0  0  0  0  0  0  0  0
   -1.9751   -0.9808   -0.3932 C   0  0  0  0  0  0  0  0  0  0  0  0
   -3.2589   -1.1067    0.1374 C   0  0  0  0  0  0  0  0  0  0  0  0
   -3.5869    1.2760   -0.0910 C   0  0  0  0  0  0  0  0  0  0  0  0
   -4.0648    0.0218    0.2885 C   0  0  0  0  0  0  0  0  0  0  0  0
   -3.4658   -2.7476    1.8462 C   0  0  0  0  0  0  0  0  0  0  0  0
   -4.2663    3.0904    1.2881 C   0  0  0  0  0  0  0  0  0  0  0  0
   -6.3813   -0.3346   -0.1147 C   0  0  0  0  0  0  0  0  0  0  0  0
  1 17  2  0
  2 21  1  0
  2 24  1  0
  3 22  1  0
  3 25  1  0
  4 23  1  0
  4 26  1  0
  5 12  1  0
  5 15  1  0
  5 16  1  0
  6  9  1  0
  6 17  1  0
  7  8  1  0
  7  9  1  0
  7 11  1  0
  8 10  1  0
  8 12  1  0
  9 13  1  0
 10 14  1  0
 11 15  1  0
 13 14  1  0
 17 18  1  0
 18 19  2  0
 18 20  1  0
 19 22  1  0
 20 21  2  0
 21 23  1  0
 22 23  2  0
M  END
>  <PUBCHEM_COMPOUND_CID>  (1) 
29676

>  <PUBCHEM_CONFORMER_RMSD>  (1) 
0.8

>  <PUBCHEM_CONFORMER_DIVERSEORDER>  (1) 
1
86
90
102
35
68
44
65
89
63
87
49
25
73
32
42
69
97
64
37
61
67
58
66
43
94
95
36
62
91
101
98
51
83
84
41
99
78
72
103
50
81
6
38
47
85
48
70
40
30
14
59
104
17
88
46
80
53
71
5
79
39
55
52
18
7
82
74
100
57
77
54
93
92
106
45
8
56
27
11
96
15
31
105
76
19
28
13
23
12
3
34
60
22
20
4
33
16
29
10
21
9
26
2
24
75

>  <PUBCHEM_MMFF94_PARTIAL_CHARGES>  (1) 
23
1 -0.57
12 0.27
15 0.27
16 0.27
17 0.54
18 0.09
19 -0.15
2 -0.36
20 -0.15
21 0.08
22 0.08
23 0.08
24 0.28
25 0.28
26 0.28
3 -0.36
4 -0.36
42 0.37
46 0.15
47 0.15
5 -0.81
6 -0.73
9 0.3

>  <PUBCHEM_EFFECTIVE_ROTOR_COUNT>  (1) 
7.6

>  <PUBCHEM_PHARMACOPHORE_FEATURES>  (1) 
9
1 1 acceptor
1 2 acceptor
1 3 acceptor
1 4 acceptor
1 5 cation
1 6 donor
6 18 19 20 21 22 23 rings
6 5 7 8 11 12 15 rings
6 7 8 9 10 13 14 rings

>  <PUBCHEM_HEAVY_ATOM_COUNT>  (1) 
26

>  <PUBCHEM_ATOM_DEF_STEREO_COUNT>  (1) 
2

>  <PUBCHEM_ATOM_UDEF_STEREO_COUNT>  (1) 
1

>  <PUBCHEM_BOND_DEF_STEREO_COUNT>  (1) 
0

>  <PUBCHEM_BOND_UDEF_STEREO_COUNT>  (1) 
0

>  <PUBCHEM_ISOTOPIC_ATOM_COUNT>  (1) 
0

>  <PUBCHEM_COMPONENT_COUNT>  (1) 
1

>  <PUBCHEM_CACTVS_TAUTO_COUNT>  (1) 
2

>  <PUBCHEM_CONFORMER_ID>  (1) 
000073EC00000001

>  <PUBCHEM_MMFF94_ENERGY>  (1) 
89.8617

>  <PUBCHEM_FEATURE_SELFOVERLAP>  (1) 
45.738

>  <PUBCHEM_SHAPE_FINGERPRINT>  (1) 
10 15 18271519905640023456
10319926 262 18336543820626058682
10366900 7 18272366516370632267
10498660 4 15841258303515008960
10670039 82 13182752445613741066
11135609 201 17774424097220512472
11370993 144 18269272365790115998
11405975 8 18339364037464682818
11796584 16 11674878900752287956
12107183 9 17904202520857729393
12507560 40 18272935985852281295
12553582 1 16588599612140896766
12596602 18 18409727327112931305
12633257 1 17676481774808860296
12892183 10 18341333301476091765
13533116 47 18270402689919955647
13583140 156 18060414742036617963
14178342 30 18187369830594755367
14251751 18 11746944182945069808
14341114 176 18410576167311446104
14341114 328 17967532402496317396
15183329 4 11455900186876612488
15510800 12 13551733095299563288
15575132 122 14333140650155909955
15788980 27 15140674795626670950
17349148 13 15140679172630784024
1813 80 16515693216616876575
19377110 9 18342448266274892607
193927 3 14345793795408202372
19784866 240 13118275941621031884
21033648 29 17917715681966838301
21065199 12 18412827949665752431
21756936 100 17702083950574971884
21859007 373 17241875503032089813
22122407 14 17203333273369958177
221357 26 10015867578294642859
23559900 14 18268444438066778046
312425 54 18187920647734746106
32027 91 17754440271253812354
339767 52 17822006557971014387
3633792 109 18041266674905306391
46194498 28 9079108986451835746
474 4 14692578710298932295
5104073 3 18339085874039249867
57724786 102 16988011495991657736
6371380 46 17831864542617292247
6823239 73 18337128778002675790
90127 26 17917157117116698964

>  <PUBCHEM_SHAPE_MULTIPOLES>  (1) 
501.63
14.92
2.8
1.7
0.49
0.28
-0.18
-4.73
-6.54
-1.6
-0.94
1.36
-0.04
1.37

>  <PUBCHEM_SHAPE_SELFOVERLAP>  (1) 
1048.23

>  <PUBCHEM_SHAPE_VOLUME>  (1) 
282.7

>  <PUBCHEM_COORDINATE_TYPE>  (1) 
2
5
10

$$$$
