29682
     RDKit          3D

 18 19  0  0  0  0  0  0  0  0999 V2000
    1.9765   -0.5758    0.9574 O   0  0  0  0  0  0  0  0  0  0  0  0
    2.3854    0.1659   -1.2220 O   0  0  0  0  0  0  0  0  0  0  0  0
   -3.1341   -1.8650   -0.5518 N   0  0  0  0  0  0  0  0  0  0  0  0
   -3.3078    3.9686   -0.0571 N   0  0  0  0  0  0  0  0  0  0  0  0
   -2.8898    0.2021    0.2194 C   0  0  0  0  0  0  0  0  0  0  0  0
   -1.6207   -0.4402    0.2585 C   0  0  0  0  0  0  0  0  0  0  0  0
   -1.8017   -1.7357   -0.2304 C   0  0  0  0  0  0  0  0  0  0  0  0
   -3.1881    1.5861    0.6392 C   0  0  0  0  0  0  0  0  0  0  0  0
   -3.7997   -0.6990   -0.2837 C   0  0  0  0  0  0  0  0  0  0  0  0
   -0.3312   -0.0425    0.6642 C   0  0  0  0  0  0  0  0  0  0  0  0
   -3.0362    2.6065   -0.5038 C   0  0  0  0  0  0  0  0  0  0  0  0
   -0.7535   -2.6572   -0.3342 C   0  0  0  0  0  0  0  0  0  0  0  0
    0.7267   -0.9534    0.5661 C   0  0  0  0  0  0  0  0  0  0  0  0
    0.5167   -2.2402    0.0743 C   0  0  0  0  0  0  0  0  0  0  0  0
    4.1095    0.3742    0.4851 C   0  0  0  0  0  0  0  0  0  0  0  0
    5.0119    0.9821   -0.5855 C   0  0  0  0  0  0  0  0  0  0  0  0
    2.7522   -0.0019   -0.0668 C   0  0  0  0  0  0  0  0  0  0  0  0
    6.3840    1.3253   -0.0289 C   0  0  0  0  0  0  0  0  0  0  0  0
  1 13  1  0
  1 17  1  0
  2 17  2  0
  3  7  1  0
  3  9  1  0
  4 11  1  0
  5  6  1  0
  5  8  1  0
  5  9  2  0
  6  7  2  0
  6 10  1  0
  7 12  1  0
  8 11  1  0
 10 13  2  0
 12 14  2  0
 13 14  1  0
 15 16  1  0
 15 17  1  0
 16 18  1  0
M  END
>  <PUBCHEM_COMPOUND_CID>  (1) 
29682

>  <PUBCHEM_CONFORMER_RMSD>  (1) 
0.8

>  <PUBCHEM_CONFORMER_DIVERSEORDER>  (1) 
1
98
87
111
108
62
18
54
11
61
77
49
51
47
126
70
55
124
29
64
38
66
92
14
107
6
2
88
121
120
81
45
30
105
125
60
103
104
34
102
58
26
20
63
91
43
80
128
59
101
16
123
122
3
4
99
53
94
24
25
52
39
96
71
83
75
74
109
69
8
44
85
90
82
113
33
35
7
97
46
78
106
116
5
19
22
57
32
65
100
68
41
130
127
86
23
15
89
84
73
93
114
50
10
40
9
56
76
118
13
36
17
119
48
79
115
112
31
28
27
67
21
42
72
12
129
95
37
117
110

>  <PUBCHEM_MMFF94_PARTIAL_CHARGES>  (1) 
22
1 -0.23
10 -0.15
11 0.27
12 -0.15
13 0.08
14 -0.15
15 0.06
17 0.66
2 -0.57
21 0.15
22 0.27
23 0.15
26 0.15
27 0.15
3 0.03
32 0.36
33 0.36
4 -0.99
5 -0.18
7 -0.15
8 0.18
9 -0.3

>  <PUBCHEM_EFFECTIVE_ROTOR_COUNT>  (1) 
6

>  <PUBCHEM_PHARMACOPHORE_FEATURES>  (1) 
8
1 18 hydrophobe
1 2 acceptor
1 3 cation
1 3 donor
1 4 cation
1 4 donor
5 3 5 6 7 9 rings
6 6 7 10 12 13 14 rings

>  <PUBCHEM_HEAVY_ATOM_COUNT>  (1) 
18

>  <PUBCHEM_ATOM_DEF_STEREO_COUNT>  (1) 
0

>  <PUBCHEM_ATOM_UDEF_STEREO_COUNT>  (1) 
0

>  <PUBCHEM_BOND_DEF_STEREO_COUNT>  (1) 
0

>  <PUBCHEM_BOND_UDEF_STEREO_COUNT>  (1) 
0

>  <PUBCHEM_ISOTOPIC_ATOM_COUNT>  (1) 
0

>  <PUBCHEM_COMPONENT_COUNT>  (1) 
1

>  <PUBCHEM_CACTVS_TAUTO_COUNT>  (1) 
1

>  <PUBCHEM_CONFORMER_ID>  (1) 
000073F200000001

>  <PUBCHEM_MMFF94_ENERGY>  (1) 
24.8788

>  <PUBCHEM_FEATURE_SELFOVERLAP>  (1) 
40.686

>  <PUBCHEM_SHAPE_FINGERPRINT>  (1) 
10087517 78 18335978783498438444
10411042 1 17834676380708587579
10498660 4 18339641140170071301
10615611 76 17532111495434718156
10871710 139 18409445891033616573
12107183 9 18046615708527195362
12173636 292 18411694387721987143
12236239 1 17968369152314746658
12390115 104 18200044957932722929
12507557 5 17095524045079138637
12596602 18 17095521850678236120
12916748 109 18336836376417997906
14123255 52 18338237046440909680
14142880 1 18187080637904614477
14251764 75 17982459196030205025
14508225 48 17839728602436261879
14739800 52 18194943340577138040
16945 1 18342444976868507443
16988056 13 16319205768749727141
17134986 127 18051413959642378263
1741750 31 18269553845341427441
17834072 32 18265333915245417473
18186145 218 17988652860850204082
19489759 90 18272370923392141426
20645477 56 18272376390178699194
20645477 70 16701758085640645294
20871999 31 18131068263873117675
21307412 95 12933650879211827573
23366157 5 18117558427196588754
23402539 116 18271804670466379870
23466295 7 12103262972019666621
23557571 272 18130514114703564960
23559900 14 17845374341679872014
23590187 32 18338233743848533353
3268164 11 18130781295775673471
5283173 99 18342741823754547616
568465 68 13551480237061554163
6327066 14 18262794043601851565
7808743 9 18410855430074505664
9981440 41 18334577940611095058

>  <PUBCHEM_SHAPE_MULTIPOLES>  (1) 
348.73
10.18
3.17
0.85
17.05
2.18
-0.02
7.19
-1.03
-4.32
-0.41
0.18
0.01
-0.4

>  <PUBCHEM_SHAPE_SELFOVERLAP>  (1) 
733.093

>  <PUBCHEM_SHAPE_VOLUME>  (1) 
196.7

>  <PUBCHEM_COORDINATE_TYPE>  (1) 
2
5
10

$$$$
