29680
     RDKit          3D

  9  9  0  0  0  0  0  0  0  0999 V2000
    2.3432    1.1761    0.0273 O   0  0  0  0  0  0  0  0  0  0  0  0
    0.3334    0.0035    0.0482 N   0  0  0  0  0  0  0  0  0  0  0  0
   -1.8262    1.1862   -0.3638 C   0  0  0  0  0  0  0  0  0  0  0  0
   -0.4419    1.2362    0.2740 C   0  0  0  0  0  0  0  0  0  0  0  0
   -2.5858   -0.0593    0.0826 C   0  0  0  0  0  0  0  0  0  0  0  0
   -1.7034   -1.2683    0.0518 C   0  0  0  0  0  0  0  0  0  0  0  0
   -0.3654   -1.1954    0.0091 C   0  0  0  0  0  0  0  0  0  0  0  0
    1.7312    0.1041   -0.0083 C   0  0  0  0  0  0  0  0  0  0  0  0
    2.5150   -1.1830   -0.1208 C   0  0  0  0  0  0  0  0  0  0  0  0
  1  8  2  0
  2  4  1  0
  2  7  1  0
  2  8  1  0
  3  4  1  0
  3  5  1  0
  5  6  1  0
  6  7  2  0
  8  9  1  0
M  END
>  <PUBCHEM_COMPOUND_CID>  (1) 
29680

>  <PUBCHEM_CONFORMER_RMSD>  (1) 
0.4

>  <PUBCHEM_CONFORMER_DIVERSEORDER>  (1) 
1
2

>  <PUBCHEM_MMFF94_PARTIAL_CHARGES>  (1) 
10
1 -0.57
16 0.15
17 0.15
2 -0.47
4 0.3
5 0.14
6 -0.29
7 -0.04
8 0.57
9 0.06

>  <PUBCHEM_EFFECTIVE_ROTOR_COUNT>  (1) 
1.8

>  <PUBCHEM_PHARMACOPHORE_FEATURES>  (1) 
2
1 1 acceptor
6 2 3 4 5 6 7 rings

>  <PUBCHEM_HEAVY_ATOM_COUNT>  (1) 
9

>  <PUBCHEM_ATOM_DEF_STEREO_COUNT>  (1) 
0

>  <PUBCHEM_ATOM_UDEF_STEREO_COUNT>  (1) 
0

>  <PUBCHEM_BOND_DEF_STEREO_COUNT>  (1) 
0

>  <PUBCHEM_BOND_UDEF_STEREO_COUNT>  (1) 
0

>  <PUBCHEM_ISOTOPIC_ATOM_COUNT>  (1) 
0

>  <PUBCHEM_COMPONENT_COUNT>  (1) 
1

>  <PUBCHEM_CACTVS_TAUTO_COUNT>  (1) 
1

>  <PUBCHEM_CONFORMER_ID>  (1) 
000073F000000001

>  <PUBCHEM_MMFF94_ENERGY>  (1) 
12.8556

>  <PUBCHEM_FEATURE_SELFOVERLAP>  (1) 
10.148

>  <PUBCHEM_SHAPE_FINGERPRINT>  (1) 
10857977 72 18266169724444208609
12897270 3 18338801224976303004
12932764 1 17603865563785183624
14325111 11 18410292488884695733
16714656 1 18409730672929065719
16945 1 18265612087365410059
19973954 147 18410576180038202868
21040471 1 18337950086896249201
23552423 10 18260831513934651326
2748010 2 18410573993773053879
29004967 10 18265338484968768690
369184 2 18413106169157336435
5084963 1 18270960146161260305

>  <PUBCHEM_SHAPE_MULTIPOLES>  (1) 
174.37
3.73
1.58
0.62
0.99
0.01
0.01
0.16
0.14
-0.04
0
-0.06
-0.01
0.13

>  <PUBCHEM_SHAPE_SELFOVERLAP>  (1) 
343.392

>  <PUBCHEM_SHAPE_VOLUME>  (1) 
103.5

>  <PUBCHEM_COORDINATE_TYPE>  (1) 
2
5
10

$$$$
