29697
     RDKit          3D

 12 11  0  0  0  0  0  0  0  0999 V2000
    2.7391    0.5435   -0.7209 S   0  0  0  0  0  0  0  0  0  0  0  0
    1.8531   -1.2421    1.0060 O   0  0  0  0  0  0  0  0  0  0  0  0
   -3.2947    0.8039    0.3679 N   0  0  0  0  0  0  0  0  0  0  0  0
    0.5451   -0.8086   -0.8705 N   0  0  0  0  0  0  0  0  0  0  0  0
   -1.6317   -1.0276    0.2216 C   0  0  0  0  0  0  0  0  0  0  0  0
   -2.2987    0.1598   -0.4796 C   0  0  0  0  0  0  0  0  0  0  0  0
   -0.5409   -1.7184   -0.5962 C   0  0  0  0  0  0  0  0  0  0  0  0
   -4.4105   -0.1213    0.7011 C   0  0  0  0  0  0  0  0  0  0  0  0
   -3.7918    2.0288   -0.2621 C   0  0  0  0  0  0  0  0  0  0  0  0
    1.6386   -0.6549   -0.0464 C   0  0  0  0  0  0  0  0  0  0  0  0
    4.0409    0.5386    0.5308 C   0  0  0  0  0  0  0  0  0  0  0  0
    5.1515    1.4983    0.1482 C   0  0  0  0  0  0  0  0  0  0  0  0
  1 10  1  0
  1 11  1  0
  2 10  2  0
  3  6  1  0
  3  8  1  0
  3  9  1  0
  4  7  1  0
  4 10  1  0
  5  6  1  0
  5  7  1  0
 11 12  1  0
M  END
>  <PUBCHEM_COMPOUND_CID>  (1) 
29697

>  <PUBCHEM_CONFORMER_RMSD>  (1) 
0.8

>  <PUBCHEM_CONFORMER_DIVERSEORDER>  (1) 
2
83
27
77
68
49
57
42
44
3
56
90
71
81
35
34
10
62
65
40
5
45
52
63
39
70
74
11
89
1
88
78
59
51
87
67
43
26
25
76
37
48
32
75
29
72
33
31
86
46
21
28
6
4
61
73
9
54
47
8
13
19
55
12
53
50
66
16
30
20
17
14
80
7
22
60
24
82
41
15
23
58
85
38
69
36
79
64
84
18

>  <PUBCHEM_MMFF94_PARTIAL_CHARGES>  (1) 
11
1 -0.37
10 0.77
11 0.23
2 -0.57
25 0.37
3 -0.81
4 -0.73
6 0.27
7 0.3
8 0.27
9 0.27

>  <PUBCHEM_EFFECTIVE_ROTOR_COUNT>  (1) 
7

>  <PUBCHEM_PHARMACOPHORE_FEATURES>  (1) 
3
1 12 hydrophobe
1 3 cation
1 4 donor

>  <PUBCHEM_HEAVY_ATOM_COUNT>  (1) 
12

>  <PUBCHEM_ATOM_DEF_STEREO_COUNT>  (1) 
0

>  <PUBCHEM_ATOM_UDEF_STEREO_COUNT>  (1) 
0

>  <PUBCHEM_BOND_DEF_STEREO_COUNT>  (1) 
0

>  <PUBCHEM_BOND_UDEF_STEREO_COUNT>  (1) 
0

>  <PUBCHEM_ISOTOPIC_ATOM_COUNT>  (1) 
0

>  <PUBCHEM_COMPONENT_COUNT>  (1) 
1

>  <PUBCHEM_CACTVS_TAUTO_COUNT>  (1) 
2

>  <PUBCHEM_CONFORMER_ID>  (1) 
0000740100000002

>  <PUBCHEM_MMFF94_ENERGY>  (1) 
7.5936

>  <PUBCHEM_FEATURE_SELFOVERLAP>  (1) 
15.223

>  <PUBCHEM_SHAPE_FINGERPRINT>  (1) 
11046707 91 8286207153700765156
122479 349 18409731767924303534
12251169 10 17894633677235339159
14123255 352 18411132524179241085
14123255 52 18412261735700540932
14251710 61 8574712407833527188
14252887 29 15068612778437033936
14576447 43 11240002252668519612
15501527 16 18271526494051257496
15775835 57 18411980260533932672
1741750 31 18343584061902663162
177051 138 8070029960856047854
17834072 32 18341049627524117701
17834072 8 18060431209716606692
18915474 69 10159691417585370808
193927 3 10809337807122563400
20281475 54 8502360161991002471
20432913 95 14634864254019686256
20605781 2 18343585110265002073
20621476 51 12974762267963353185
20645477 56 18130511932564740654
20645477 70 16629980862461668142
20724930 69 18343021125266374596
20871999 31 16056588902692533133
21119208 17 12535350090678695155
21256008 61 11312058760074212914
21713013 43 12463274883302068529
22485316 2 8070016757926269247
22926399 65 18131349734881999600
23402655 69 14117531908252640906
23403322 49 9007061261874233173
23500284 214 18343025509805647651
23557571 272 17559964401235283350
270888 7 18342457002328783737
59345606 38 18412822473846356573
6430166 295 18413386553650294688

>  <PUBCHEM_SHAPE_MULTIPOLES>  (1) 
234.97
10.01
1.79
0.91
3.36
0.3
0
6.51
1.89
-0.62
-0.12
0.11
-0.11
0.12

>  <PUBCHEM_SHAPE_SELFOVERLAP>  (1) 
415.534

>  <PUBCHEM_SHAPE_VOLUME>  (1) 
155.4

>  <PUBCHEM_COORDINATE_TYPE>  (1) 
2
5
10

$$$$
