29709
     RDKit          3D

 17 17  0  0  0  0  0  0  0  0999 V2000
    0.3369    1.2078   -0.4601 O   0  0  0  0  0  0  0  0  0  0  0  0
   -0.6867    2.4030    1.2200 O   0  0  0  0  0  0  0  0  0  0  0  0
   -4.9581   -2.0517   -0.3053 O   0  0  0  0  0  0  0  0  0  0  0  0
    3.5666   -0.0156    0.1272 N   0  0  0  0  0  0  0  0  0  0  0  0
    4.6280   -1.4061    1.6479 N   0  0  0  0  0  0  0  0  0  0  0  0
    3.9883   -2.3352   -0.3327 N   0  0  0  0  0  0  0  0  0  0  0  0
    2.5095    1.5714   -1.4007 C   0  0  0  0  0  0  0  0  0  0  0  0
    1.4848    2.0420   -0.3757 C   0  0  0  0  0  0  0  0  0  0  0  0
    2.9368    0.1262   -1.1863 C   0  0  0  0  0  0  0  0  0  0  0  0
   -1.8128    0.5593    0.2113 C   0  0  0  0  0  0  0  0  0  0  0  0
   -0.6792    1.4998    0.3981 C   0  0  0  0  0  0  0  0  0  0  0  0
   -3.0944    0.9990    0.4724 C   0  0  0  0  0  0  0  0  0  0  0  0
   -1.5496   -0.7257   -0.2175 C   0  0  0  0  0  0  0  0  0  0  0  0
   -4.1592    0.1151    0.2972 C   0  0  0  0  0  0  0  0  0  0  0  0
   -2.6142   -1.6095   -0.3929 C   0  0  0  0  0  0  0  0  0  0  0  0
   -3.9192   -1.1891   -0.1355 C   0  0  0  0  0  0  0  0  0  0  0  0
    4.0224   -1.1906    0.4323 C   0  0  0  0  0  0  0  0  0  0  0  0
  1  8  1  0
  1 11  1  0
  2 11  2  0
  3 16  1  0
  4  9  1  0
  4 17  2  3
  5 17  1  0
  6 17  1  0
  7  8  1  0
  7  9  1  0
 10 11  1  0
 10 12  2  0
 10 13  1  0
 12 14  1  0
 13 15  2  0
 14 16  2  0
 15 16  1  0
M  END
>  <PUBCHEM_COMPOUND_CID>  (1) 
29709

>  <PUBCHEM_CONFORMER_RMSD>  (1) 
0.8

>  <PUBCHEM_CONFORMER_DIVERSEORDER>  (1) 
2
98
77
9
70
8
36
57
28
43
80
12
69
62
63
20
32
26
51
104
86
56
64
73
92
91
54
46
84
103
19
68
76
95
38
71
105
99
21
29
60
11
65
3
25
88
23
10
1
90
59
67
16
94
96
87
42
79
6
13
48
55
41
107
100
22
39
66
93
102
31
35
18
4
85
40
34
24
89
33
78
44
72
27
101
47
81
83
50
37
5
82
17
49
53
52
75
7
45
74
61
58
30
14
97
15
106

>  <PUBCHEM_MMFF94_PARTIAL_CHARGES>  (1) 
25
1 -0.43
10 0.09
11 0.63
12 -0.15
13 -0.15
14 -0.15
15 -0.15
16 0.08
17 0.55
2 -0.57
24 0.15
25 0.15
26 0.15
27 0.15
28 0.4
29 0.4
3 -0.53
30 0.4
31 0.4
32 0.45
4 -0.7
5 -0.85
6 -0.85
8 0.28
9 0.25

>  <PUBCHEM_EFFECTIVE_ROTOR_COUNT>  (1) 
6

>  <PUBCHEM_PHARMACOPHORE_FEATURES>  (1) 
6
1 2 acceptor
1 3 donor
1 5 donor
1 6 donor
4 4 5 6 17 cation
6 10 12 13 14 15 16 rings

>  <PUBCHEM_HEAVY_ATOM_COUNT>  (1) 
17

>  <PUBCHEM_ATOM_DEF_STEREO_COUNT>  (1) 
0

>  <PUBCHEM_ATOM_UDEF_STEREO_COUNT>  (1) 
0

>  <PUBCHEM_BOND_DEF_STEREO_COUNT>  (1) 
0

>  <PUBCHEM_BOND_UDEF_STEREO_COUNT>  (1) 
0

>  <PUBCHEM_ISOTOPIC_ATOM_COUNT>  (1) 
0

>  <PUBCHEM_COMPONENT_COUNT>  (1) 
1

>  <PUBCHEM_CACTVS_TAUTO_COUNT>  (1) 
6

>  <PUBCHEM_CONFORMER_ID>  (1) 
0000740D00000002

>  <PUBCHEM_MMFF94_ENERGY>  (1) 
43.6511

>  <PUBCHEM_FEATURE_SELFOVERLAP>  (1) 
30.503

>  <PUBCHEM_SHAPE_FINGERPRINT>  (1) 
10062212 137 18413109468098557631
11159736 12 18409164424187663967
12410352 35 18334853888070143330
12824470 246 18408321060378373728
14178342 30 18056487144979479108
1420 369 18411139125781202278
15342816 4 18268442384808913077
17977361 122 18409726240328059731
1798214 20 18260547839950347054
18186145 218 14923945673604188373
20281475 54 18410298029366361301
20291156 8 18335702698377902342
20369508 70 18057887033703484533
20626108 58 18409726283314454504
20645477 70 18113901606198456798
20671657 53 17822005398245240724
2255824 54 18118132587351827828
22646028 28 18335140882127042122
22959321 94 18343305859622310940
23366157 5 18052540168940737105
23559900 14 17702685245390264196
3004659 81 18408047316173776710
339767 52 18337379470674280338
5104073 3 18201166567588814707
573450 72 18341898476386219449
633830 44 16370446674432348205
76465 3 18335416876430129573
88748 71 18333739021839592075

>  <PUBCHEM_SHAPE_MULTIPOLES>  (1) 
317.3
9.95
2.53
1.09
1.58
0.02
-0.09
7.17
-0.8
0.75
-0.12
1.08
-0.14
-1.64

>  <PUBCHEM_SHAPE_SELFOVERLAP>  (1) 
650.593

>  <PUBCHEM_SHAPE_VOLUME>  (1) 
181.4

>  <PUBCHEM_COORDINATE_TYPE>  (1) 
2
5
10

$$$$
