29703
     RDKit          3D

 16 16  0  0  0  0  0  0  0  0999 V2000
   -0.0747    1.0949   -0.4368 O   0  0  0  0  0  0  0  0  0  0  0  0
   -1.2318    2.1153    1.2718 O   0  0  0  0  0  0  0  0  0  0  0  0
    3.2535    0.1746    0.1536 N   0  0  0  0  0  0  0  0  0  0  0  0
    4.4300   -1.1633    1.6363 N   0  0  0  0  0  0  0  0  0  0  0  0
    3.9092   -2.0718   -0.3883 N   0  0  0  0  0  0  0  0  0  0  0  0
    2.0619    1.7087   -1.3286 C   0  0  0  0  0  0  0  0  0  0  0  0
    0.9835    2.0345   -0.3025 C   0  0  0  0  0  0  0  0  0  0  0  0
    2.6282    0.3055   -1.1632 C   0  0  0  0  0  0  0  0  0  0  0  0
   -2.1571    0.2108    0.1756 C   0  0  0  0  0  0  0  0  0  0  0  0
   -1.1248    1.2507    0.4160 C   0  0  0  0  0  0  0  0  0  0  0  0
   -3.4789    0.5111    0.4334 C   0  0  0  0  0  0  0  0  0  0  0  0
   -1.7625   -1.0235   -0.2987 C   0  0  0  0  0  0  0  0  0  0  0  0
   -4.4487   -0.4656    0.2074 C   0  0  0  0  0  0  0  0  0  0  0  0
   -2.7324   -2.0002   -0.5249 C   0  0  0  0  0  0  0  0  0  0  0  0
   -4.0755   -1.7211   -0.2717 C   0  0  0  0  0  0  0  0  0  0  0  0
    3.8202   -0.9607    0.4205 C   0  0  0  0  0  0  0  0  0  0  0  0
  1  7  1  0
  1 10  1  0
  2 10  2  0
  3  8  1  0
  3 16  2  3
  4 16  1  0
  5 16  1  0
  6  7  1  0
  6  8  1  0
  9 10  1  0
  9 11  2  0
  9 12  1  0
 11 13  1  0
 12 14  2  0
 13 15  2  0
 14 15  1  0
M  END
>  <PUBCHEM_COMPOUND_CID>  (1) 
29703

>  <PUBCHEM_CONFORMER_RMSD>  (1) 
0.8

>  <PUBCHEM_CONFORMER_DIVERSEORDER>  (1) 
2
34
23
64
13
115
48
19
90
42
86
57
5
67
88
73
63
55
107
74
41
17
29
52
60
71
96
28
11
53
100
78
1
14
27
117
10
82
83
108
77
92
26
99
46
16
37
31
7
25
45
61
72
22
15
50
98
21
51
18
54
97
58
94
85
32
43
66
69
3
40
113
9
105
36
8
103
101
6
56
44
75
114
65
109
76
111
33
91
112
104
102
106
30
79
20
38
80
110
87
81
35
12
95
59
47
24
116
39
68
84
49
4
62
70
89
93

>  <PUBCHEM_MMFF94_PARTIAL_CHARGES>  (1) 
24
1 -0.43
10 0.63
11 -0.15
12 -0.15
13 -0.15
14 -0.15
15 -0.15
16 0.55
2 -0.57
23 0.15
24 0.15
25 0.15
26 0.15
27 0.15
28 0.4
29 0.4
3 -0.7
30 0.4
31 0.4
4 -0.85
5 -0.85
7 0.28
8 0.25
9 0.09

>  <PUBCHEM_EFFECTIVE_ROTOR_COUNT>  (1) 
6

>  <PUBCHEM_PHARMACOPHORE_FEATURES>  (1) 
5
1 2 acceptor
1 4 donor
1 5 donor
4 3 4 5 16 cation
6 9 11 12 13 14 15 rings

>  <PUBCHEM_HEAVY_ATOM_COUNT>  (1) 
16

>  <PUBCHEM_ATOM_DEF_STEREO_COUNT>  (1) 
0

>  <PUBCHEM_ATOM_UDEF_STEREO_COUNT>  (1) 
0

>  <PUBCHEM_BOND_DEF_STEREO_COUNT>  (1) 
0

>  <PUBCHEM_BOND_UDEF_STEREO_COUNT>  (1) 
0

>  <PUBCHEM_ISOTOPIC_ATOM_COUNT>  (1) 
0

>  <PUBCHEM_COMPONENT_COUNT>  (1) 
1

>  <PUBCHEM_CACTVS_TAUTO_COUNT>  (1) 
2

>  <PUBCHEM_CONFORMER_ID>  (1) 
0000740700000002

>  <PUBCHEM_MMFF94_ENERGY>  (1) 
41.597

>  <PUBCHEM_FEATURE_SELFOVERLAP>  (1) 
25.427

>  <PUBCHEM_SHAPE_FINGERPRINT>  (1) 
10062212 137 18413108390125212775
12410352 35 18335134280620201842
13828863 39 16340860019383048656
14178342 30 18128545855587545760
1420 369 18410576180011991514
14251764 38 12030415821237779235
15375462 189 18196105536545359201
15415430 10 18261387820185368122
17977361 122 18409724058574428587
1798214 20 18114178644452961906
1798214 55 10087633797867491718
18186145 218 15068617227627831941
20291156 8 18335701620235693982
20645477 70 18040719220144225942
20671657 53 17821721737019387100
2255824 54 18045792435894634892
22646028 28 18335140899201468238
22959321 94 18343024397430190885
23366157 5 17909267228383653265
23463225 33 18340212980768637949
23559900 14 17703248238166822780
23598291 2 18115888337900666780
3004659 81 18335707160416393646
339767 52 18409438185587967730
351380 3 18187085023108538434
5104073 3 18128546045151631083
573450 72 18343023298372191881
5902787 121 18059017314324046605
59345606 31 18410012147610409759
633830 44 16226043431611034629

>  <PUBCHEM_SHAPE_MULTIPOLES>  (1) 
302.59
9.23
2.38
1.11
2.35
0.03
0.11
-5.83
1.18
0.65
-0.05
0.93
0.13
-1.5

>  <PUBCHEM_SHAPE_SELFOVERLAP>  (1) 
617.045

>  <PUBCHEM_SHAPE_VOLUME>  (1) 
173.5

>  <PUBCHEM_COORDINATE_TYPE>  (1) 
2
5
10

$$$$
