2970
     RDKit          3D

 20 22  0  0  1  0  0  0  0  0999 V2000
    2.2967    0.3617   -0.9666 O   0  0  0  0  0  0  0  0  0  0  0  0
    2.6418   -1.9805    1.0000 O   0  0  0  0  0  0  0  0  0  0  0  0
    1.6036    1.3355    1.9794 O   0  0  0  0  0  0  0  0  0  0  0  0
    0.7619   -1.2976   -2.6532 O   0  0  0  0  0  0  0  0  0  0  0  0
   -0.0415    0.1703   -0.4605 N   0  0  0  0  0  0  0  0  0  0  0  0
   -1.5431    1.7620   -0.8446 N   0  0  0  0  0  0  0  0  0  0  0  0
   -1.4477   -1.4954    0.6078 N   0  0  0  0  0  0  0  0  0  0  0  0
   -3.7562   -0.7211    0.7732 N   0  0  0  0  0  0  0  0  0  0  0  0
   -4.4554    1.4180   -0.0409 N   0  0  0  0  0  0  0  0  0  0  0  0
    1.2728   -0.5236   -0.4408 C   0  0  0  0  0  0  0  0  0  0  0  0
    1.7490   -0.8670    0.9927 C   0  0  0  0  0  0  0  0  0  0  0  0
    2.4962    0.3783    1.4301 C   0  0  0  0  0  0  0  0  0  0  0  0
    1.2187   -1.7334   -1.3851 C   0  0  0  0  0  0  0  0  0  0  0  0
    2.9946    0.8774    0.1162 C   0  0  0  0  0  0  0  0  0  0  0  0
   -1.2202   -0.3108    0.0206 C   0  0  0  0  0  0  0  0  0  0  0  0
   -0.2793    1.4143   -0.9693 C   0  0  0  0  0  0  0  0  0  0  0  0
   -2.1428    0.6929   -0.2275 C   0  0  0  0  0  0  0  0  0  0  0  0
    4.0541    1.6744   -0.0548 C   0  0  0  0  0  0  0  0  0  0  0  0
   -3.4539    0.4552    0.1728 C   0  0  0  0  0  0  0  0  0  0  0  0
   -2.7493   -1.6102    0.9507 C   0  0  0  0  0  0  0  0  0  0  0  0
  1 10  1  0
  1 14  1  0
  2 11  1  0
  3 12  1  0
  4 13  1  0
  5 10  1  0
  5 15  1  0
  5 16  1  0
  6 16  2  0
  6 17  1  0
  7 15  1  0
  7 20  2  0
  8 19  2  0
  8 20  1  0
  9 19  1  0
 10 11  1  0
 10 13  1  0
 11 12  1  0
 12 14  1  0
 14 18  2  0
 15 17  2  0
 17 19  1  0
M  END
>  <PUBCHEM_COMPOUND_CID>  (1) 
2970

>  <PUBCHEM_CONFORMER_RMSD>  (1) 
0.6

>  <PUBCHEM_CONFORMER_DIVERSEORDER>  (1) 
1
46
47
52
35
66
64
24
55
22
31
67
13
36
60
44
56
45
20
63
39
51
58
37
11
30
38
23
15
43
28
9
8
42
10
59
19
25
27
65
41
40
33
12
53
26
3
5
61
62
57
2
29
48
34
16
54
21
18
17
7
49
4
14
32
50
6

>  <PUBCHEM_MMFF94_PARTIAL_CHARGES>  (1) 
29
1 -0.36
10 0.54
11 0.28
12 0.42
13 0.28
14 -0.06
15 0.11
16 0.04
17 0.23
18 -0.3
19 0.41
2 -0.68
20 0.47
25 0.15
26 0.4
27 0.4
28 0.15
29 0.15
3 -0.68
30 0.4
31 0.15
32 0.4
33 0.4
4 -0.68
5 0.05
6 -0.57
7 -0.57
8 -0.62
9 -0.9

>  <PUBCHEM_EFFECTIVE_ROTOR_COUNT>  (1) 
2.8

>  <PUBCHEM_PHARMACOPHORE_FEATURES>  (1) 
15
1 1 acceptor
1 2 acceptor
1 2 donor
1 3 acceptor
1 3 donor
1 4 acceptor
1 4 donor
1 9 cation
1 9 donor
3 5 6 16 cation
3 5 7 15 cation
3 7 8 20 cation
5 1 10 11 12 14 rings
5 5 6 15 16 17 rings
6 7 8 15 17 19 20 rings

>  <PUBCHEM_HEAVY_ATOM_COUNT>  (1) 
20

>  <PUBCHEM_ATOM_DEF_STEREO_COUNT>  (1) 
0

>  <PUBCHEM_ATOM_UDEF_STEREO_COUNT>  (1) 
3

>  <PUBCHEM_BOND_DEF_STEREO_COUNT>  (1) 
0

>  <PUBCHEM_BOND_UDEF_STEREO_COUNT>  (1) 
0

>  <PUBCHEM_ISOTOPIC_ATOM_COUNT>  (1) 
0

>  <PUBCHEM_COMPONENT_COUNT>  (1) 
1

>  <PUBCHEM_CACTVS_TAUTO_COUNT>  (1) 
3

>  <PUBCHEM_CONFORMER_ID>  (1) 
00000B9A00000001

>  <PUBCHEM_MMFF94_ENERGY>  (1) 
48.2385

>  <PUBCHEM_FEATURE_SELFOVERLAP>  (1) 
76.733

>  <PUBCHEM_SHAPE_FINGERPRINT>  (1) 
10366900 7 18060418023708474697
107287 299 18060426806483753462
10863032 1 18333168375415032970
12382932 28 18333734636819933337
12633257 1 18261941947632424882
13083527 12 17759514865677016907
13140716 1 18114463353746041691
13675066 3 16950567640994138377
14223421 5 18040709251688811572
14341114 328 17531245127585332824
14787075 74 16738902014513721304
15219456 202 18342184349045418438
15238133 3 17845654724937999824
15309172 13 17632577192515108038
15375358 24 18408887326294337501
15775835 57 18201431528010102536
16945 1 18263912401202392592
17804303 29 17826228493337320674
1813 80 15574993893585989394
19010151 120 14996832346970129876
19049666 15 18056204574743871057
19862831 5 14189575234709781257
20361792 2 14707203275673659266
20510252 161 18336265648463744841
20511035 2 18052226571918566672
20645476 183 15123789578790710413
21756936 100 18047465918937030100
232386 152 17604155925270951203
23526113 38 17769114348868493167
23557571 272 18337403724396811875
23559900 14 18261959544256055878
25 1 16702031915063813428
2748010 2 18116155467849586941
296302 2 18409167723081334369
3060560 45 17203324520421851996
34934 24 18040431118397182333
474 4 15338251580967422146
495365 180 17917140581824976925
5104073 3 18186519895300626737
7364860 26 18262235517596002954

>  <PUBCHEM_SHAPE_MULTIPOLES>  (1) 
363.21
6.44
1.96
1.58
2.85
0.23
-0.46
-1.96
1.69
-0.14
-0.11
-0.9
0.43
0.65

>  <PUBCHEM_SHAPE_SELFOVERLAP>  (1) 
797.631

>  <PUBCHEM_SHAPE_VOLUME>  (1) 
192.6

>  <PUBCHEM_COORDINATE_TYPE>  (1) 
2
5
10

$$$$
