29719
     RDKit          3D

 21 21  0  0  1  0  0  0  0  0999 V2000
   -1.9352    0.0154    1.9667 S   0  0  0  0  0  0  0  0  0  0  0  0
   -2.3004   -2.4391    0.1930 O   0  0  0  0  0  0  0  0  0  0  0  0
   -0.3158   -3.7708   -1.1705 O   0  0  0  0  0  0  0  0  0  0  0  0
    1.7640    2.0594   -0.6705 O   0  0  0  0  0  0  0  0  0  0  0  0
    3.6642    2.5517    0.4663 O   0  0  0  0  0  0  0  0  0  0  0  0
   -3.4420    0.0450   -1.4077 O   0  0  0  0  0  0  0  0  0  0  0  0
   -4.4669    1.6463   -0.1703 O   0  0  0  0  0  0  0  0  0  0  0  0
    4.8852    0.4011   -0.7230 N   0  0  0  0  0  0  0  0  0  0  0  0
   -1.9411    3.0102   -0.8226 N   0  0  0  0  0  0  0  0  0  0  0  0
    3.0538   -0.6798    0.5320 C   0  0  0  0  0  0  0  0  0  0  0  0
    1.6375   -1.1391    0.4463 C   0  0  0  0  0  0  0  0  0  0  0  0
    3.4349    0.3514   -0.5529 C   0  0  0  0  0  0  0  0  0  0  0  0
    0.6391   -0.4567    1.1413 C   0  0  0  0  0  0  0  0  0  0  0  0
   -0.6851   -0.8870    1.0607 C   0  0  0  0  0  0  0  0  0  0  0  0
    1.3116   -2.2519   -0.3288 C   0  0  0  0  0  0  0  0  0  0  0  0
   -1.0115   -1.9997    0.2857 C   0  0  0  0  0  0  0  0  0  0  0  0
   -1.7822    1.6732    1.2279 C   0  0  0  0  0  0  0  0  0  0  0  0
   -0.0128   -2.6822   -0.4092 C   0  0  0  0  0  0  0  0  0  0  0  0
   -2.0509    1.6554   -0.2780 C   0  0  0  0  0  0  0  0  0  0  0  0
    2.9932    1.7558   -0.1783 C   0  0  0  0  0  0  0  0  0  0  0  0
   -3.4396    1.1413   -0.6081 C   0  0  0  0  0  0  0  0  0  0  0  0
  1 14  1  0
  1 17  1  0
  2 16  1  0
  3 18  1  0
  4 20  1  0
  5 20  2  0
  6 21  1  0
  7 21  2  0
  8 12  1  0
  9 19  1  0
 10 11  1  0
 10 12  1  0
 11 13  2  0
 11 15  1  0
 12 20  1  0
 13 14  1  0
 14 16  2  0
 15 18  2  0
 16 18  1  0
 17 19  1  0
 19 21  1  0
M  END
>  <PUBCHEM_COMPOUND_CID>  (1) 
29719

>  <PUBCHEM_CONFORMER_RMSD>  (1) 
0.8

>  <PUBCHEM_CONFORMER_DIVERSEORDER>  (1) 
1
121
283
444
301
60
270
341
450
437
229
151
236
385
186
197
434
298
355
180
296
257
459
150
158
310
326
387
13
164
411
77
156
345
468
425
94
223
472
43
463
336
268
9
119
378
288
417
19
89
428
112
214
432
144
36
126
314
262
218
165
403
177
97
313
108
477
449
114
358
210
340
261
339
266
195
424
300
70
85
438
187
142
228
390
467
160
153
20
8
259
303
81
317
289
458
198
422
171
113
406
265
103
136
96
430
454
68
206
471
169
318
99
380
451
273
319
185
38
23
233
159
83
203
51
251
476
237
397
370
34
401
176
234
433
73
82
111
264
295
116
382
414
399
332
201
473
140
291
87
122
331
293
213
349
410
452
474
460
445
147
84
256
98
275
222
290
383
479
212
48
104
353
138
322
312
174
88
285
242
240
356
200
238
461
57
365
74
429
6
400
292
323
466
254
263
304
131
191
335
62
152
419
348
118
362
25
166
297
120
44
124
448
178
435
389
163
465
146
134
167
91
79
155
395
207
26
56
364
457
78
367
188
377
347
282
161
217
369
272
28
182
67
100
409
194
66
139
76
279
431
54
269
327
359
338
65
30
215
72
299
172
39
135
287
193
41
226
316
33
47
328
162
145
205
5
22
276
363
31
284
464
360
441
357
192
443
453
396
416
130
168
418
447
11
271
260
129
421
252
455
420
115
149
302
415
35
366
92
64
469
247
53
173
333
42
267
413
408
15
106
189
337
199
52
235
125
123
63
141
439
181
342
18
21
381
37
446
75
204
2
423
478
475
4
308
379
462
351
480
244
253
368
250
80
306
45
179
170
243
93
17
127
157
407
373
29
137
202
90
404
311
346
371
392
278
221
154
105
307
309
388
376
232
117
361
386
375
294
248
249
329
241
374
391
148
274
175
372
102
281
86
315
286
184
16
209
245
442
107
183
220
132
95
196
280
40
239
427
224
393
402
352
227
470
58
412
7
384
101
405
219
255
440
211
321
24
398
190
110
69
325
216
128
71
225
27
456
12
344
343
436
208
330
32
55
334
61
50
350
143
3
230
394
258
231
133
320
277
305
426
354
324
246
49
14
10
59
46
109

>  <PUBCHEM_MMFF94_PARTIAL_CHARGES>  (1) 
31
1 -0.33
10 0.14
11 -0.14
12 0.33
13 -0.15
14 0.1
15 -0.15
16 0.08
17 0.23
18 0.08
19 0.33
2 -0.53
20 0.66
21 0.66
25 0.15
26 0.15
3 -0.53
30 0.36
31 0.36
32 0.36
33 0.36
34 0.45
35 0.45
36 0.5
37 0.5
4 -0.65
5 -0.57
6 -0.65
7 -0.57
8 -0.99
9 -0.99

>  <PUBCHEM_EFFECTIVE_ROTOR_COUNT>  (1) 
7

>  <PUBCHEM_PHARMACOPHORE_FEATURES>  (1) 
13
1 2 donor
1 3 donor
1 4 acceptor
1 5 acceptor
1 6 acceptor
1 7 acceptor
1 8 cation
1 8 donor
1 9 cation
1 9 donor
3 4 5 20 anion
3 6 7 21 anion
6 11 13 14 15 16 18 rings

>  <PUBCHEM_HEAVY_ATOM_COUNT>  (1) 
21

>  <PUBCHEM_ATOM_DEF_STEREO_COUNT>  (1) 
0

>  <PUBCHEM_ATOM_UDEF_STEREO_COUNT>  (1) 
2

>  <PUBCHEM_BOND_DEF_STEREO_COUNT>  (1) 
0

>  <PUBCHEM_BOND_UDEF_STEREO_COUNT>  (1) 
0

>  <PUBCHEM_ISOTOPIC_ATOM_COUNT>  (1) 
0

>  <PUBCHEM_COMPONENT_COUNT>  (1) 
1

>  <PUBCHEM_CACTVS_TAUTO_COUNT>  (1) 
18

>  <PUBCHEM_CONFORMER_ID>  (1) 
0000741700000001

>  <PUBCHEM_MMFF94_ENERGY>  (1) 
38.6654

>  <PUBCHEM_FEATURE_SELFOVERLAP>  (1) 
66.094

>  <PUBCHEM_SHAPE_FINGERPRINT>  (1) 
10498660 4 18336263552118498228
10871710 139 17685228561100335716
11045515 52 17476076203774766790
11221954 11 17970915453276799025
11370993 70 18410567383934897500
11725454 13 17458897120706249983
11759241 127 18263639572469576829
12173636 292 17845113876801504368
12422481 6 17973191636231312553
13583140 156 17749964253705619602
13994607 96 17531827838297628796
15848702 105 18262222426388037123
17492 54 18261095397120794573
18219364 16 18337128790475860888
18981168 100 18191049857326515567
192875 21 18266165137498433336
21524375 3 18334296418526458466
22907989 373 18198910390512513567
23114952 82 18053950550126823951
23227448 37 18408888455664955927
23598291 2 17269764511873940537
238 59 18338507535017760853
26353 1 17050749921631040486
3060560 45 18268990886861394542
474 4 18265896843934550897
6287921 2 18122635959393007893
7097593 13 8429725337243910881
81228 2 17834966647550899138
9862522 239 18334569136381487000

>  <PUBCHEM_SHAPE_MULTIPOLES>  (1) 
390.84
6.88
3.74
1.31
2.14
1.33
-0.36
-5.11
1.6
-0.19
1.14
-0.79
0.05
0.22

>  <PUBCHEM_SHAPE_SELFOVERLAP>  (1) 
792.781

>  <PUBCHEM_SHAPE_VOLUME>  (1) 
228.3

>  <PUBCHEM_COORDINATE_TYPE>  (1) 
2
5
10

$$$$
