29715
     RDKit          3D

 16 17  0  0  0  0  0  0  0  0999 V2000
    2.7388    0.3425    0.8188 O   0  0  0  0  0  0  0  0  0  0  0  0
    2.8712    1.0590   -1.4058 O   0  0  0  0  0  0  0  0  0  0  0  0
   -1.8862   -2.3265   -0.4241 N   0  0  0  0  0  0  0  0  0  0  0  0
   -3.6576    3.2349   -0.0876 N   0  0  0  0  0  0  0  0  0  0  0  0
   -2.1787   -0.2331    0.2531 C   0  0  0  0  0  0  0  0  0  0  0  0
   -0.7838   -0.5139    0.2657 C   0  0  0  0  0  0  0  0  0  0  0  0
   -0.6275   -1.8335   -0.1637 C   0  0  0  0  0  0  0  0  0  0  0  0
   -2.8227    1.0411    0.6301 C   0  0  0  0  0  0  0  0  0  0  0  0
   -2.8301   -1.3667   -0.1753 C   0  0  0  0  0  0  0  0  0  0  0  0
    0.3645    0.2304    0.6020 C   0  0  0  0  0  0  0  0  0  0  0  0
   -2.9976    2.0312   -0.5379 C   0  0  0  0  0  0  0  0  0  0  0  0
    0.6247   -2.4484   -0.2741 C   0  0  0  0  0  0  0  0  0  0  0  0
    1.6235   -0.3717    0.4965 C   0  0  0  0  0  0  0  0  0  0  0  0
    1.7493   -1.6907    0.0649 C   0  0  0  0  0  0  0  0  0  0  0  0
    3.2977    1.0476   -0.2587 C   0  0  0  0  0  0  0  0  0  0  0  0
    4.5143    1.7977    0.1962 C   0  0  0  0  0  0  0  0  0  0  0  0
  1 13  1  0
  1 15  1  0
  2 15  2  0
  3  7  1  0
  3  9  1  0
  4 11  1  0
  5  6  1  0
  5  8  1  0
  5  9  2  0
  6  7  2  0
  6 10  1  0
  7 12  1  0
  8 11  1  0
 10 13  2  0
 12 14  2  0
 13 14  1  0
 15 16  1  0
M  END
>  <PUBCHEM_COMPOUND_CID>  (1) 
29715

>  <PUBCHEM_CONFORMER_RMSD>  (1) 
0.6

>  <PUBCHEM_CONFORMER_DIVERSEORDER>  (1) 
1
25
45
8
61
58
49
29
55
38
52
54
17
24
33
62
37
5
16
53
41
50
14
42
60
15
32
57
19
2
39
46
27
31
28
3
7
9
36
43
47
21
20
56
51
10
59
40
6
23
30
4
48
13
35
12
26
44
22
11
34
18

>  <PUBCHEM_MMFF94_PARTIAL_CHARGES>  (1) 
22
1 -0.23
10 -0.15
11 0.27
12 -0.15
13 0.08
14 -0.15
15 0.66
16 0.06
19 0.15
2 -0.57
20 0.27
21 0.15
24 0.15
25 0.15
26 0.36
27 0.36
3 0.03
4 -0.99
5 -0.18
7 -0.15
8 0.18
9 -0.3

>  <PUBCHEM_EFFECTIVE_ROTOR_COUNT>  (1) 
4

>  <PUBCHEM_PHARMACOPHORE_FEATURES>  (1) 
7
1 2 acceptor
1 3 cation
1 3 donor
1 4 cation
1 4 donor
5 3 5 6 7 9 rings
6 6 7 10 12 13 14 rings

>  <PUBCHEM_HEAVY_ATOM_COUNT>  (1) 
16

>  <PUBCHEM_ATOM_DEF_STEREO_COUNT>  (1) 
0

>  <PUBCHEM_ATOM_UDEF_STEREO_COUNT>  (1) 
0

>  <PUBCHEM_BOND_DEF_STEREO_COUNT>  (1) 
0

>  <PUBCHEM_BOND_UDEF_STEREO_COUNT>  (1) 
0

>  <PUBCHEM_ISOTOPIC_ATOM_COUNT>  (1) 
0

>  <PUBCHEM_COMPONENT_COUNT>  (1) 
1

>  <PUBCHEM_CACTVS_TAUTO_COUNT>  (1) 
1

>  <PUBCHEM_CONFORMER_ID>  (1) 
0000741300000001

>  <PUBCHEM_MMFF94_ENERGY>  (1) 
26.6362

>  <PUBCHEM_FEATURE_SELFOVERLAP>  (1) 
35.612

>  <PUBCHEM_SHAPE_FINGERPRINT>  (1) 
10498660 4 18410854373760327677
10608611 8 18338797810582726259
11206711 2 18201148979212745479
11715629 250 18410580595232817764
11725454 13 16627387127168746032
11769659 78 10375864173639090059
12173636 292 18411416258324151686
13140716 1 18264488386476717539
13380535 21 18343030968920356819
14123255 52 18411138017526808544
14508225 48 17407946047827408079
14614273 12 18341334478328909035
15342168 16 18265618676410361821
16945 1 18198053879555473355
17134986 127 18267306430367448557
1741750 31 18341613693947210825
17834072 32 18410011005318583161
18186145 218 18059591208196763248
20510252 161 18199754806763007962
20645477 56 18200039572085710768
20671657 1 18193559960725898022
21501502 16 18339634564612057899
21524375 3 18410854369206845603
23402539 116 18055064625819902374
23419403 2 16112842898066451274
23558518 356 18261112971768897067
23559900 14 17989213651394950296
238 59 17179365943173123741
2748010 2 18271249313736089035
3071541 158 18050856511431787030
53812653 8 18339359793994874402

>  <PUBCHEM_SHAPE_MULTIPOLES>  (1) 
307.57
6.77
3.07
0.84
3.47
0.67
-0.08
6.11
-0.37
-2.12
-0.49
0.26
0.14
-0.12

>  <PUBCHEM_SHAPE_SELFOVERLAP>  (1) 
656.719

>  <PUBCHEM_SHAPE_VOLUME>  (1) 
171.2

>  <PUBCHEM_COORDINATE_TYPE>  (1) 
2
5
10

$$$$
