2971
     RDKit          3D

 23 23  0  0  0  0  0  0  0  0999 V2000
   -4.5899   -2.1723   -0.5546 O   0  0  0  0  0  0  0  0  0  0  0  0
   -2.0716   -2.1192    0.5440 O   0  0  0  0  0  0  0  0  0  0  0  0
   -5.8646    0.2697   -0.9593 O   0  0  0  0  0  0  0  0  0  0  0  0
   -4.5417    2.5282   -0.2301 O   0  0  0  0  0  0  0  0  0  0  0  0
    3.0285    0.0638   -0.0141 C   0  0  0  0  0  0  0  0  0  0  0  0
    4.4017   -0.1203    0.6348 C   0  0  0  0  0  0  0  0  0  0  0  0
    1.9087   -0.0168    1.0270 C   0  0  0  0  0  0  0  0  0  0  0  0
    5.5629   -0.0411   -0.3608 C   0  0  0  0  0  0  0  0  0  0  0  0
    0.5313    0.1303    0.3726 C   0  0  0  0  0  0  0  0  0  0  0  0
    6.9659   -0.1958    0.2344 C   0  0  0  0  0  0  0  0  0  0  0  0
   -0.6185    0.0847    1.3819 C   0  0  0  0  0  0  0  0  0  0  0  0
    8.0859   -0.0520   -0.7979 C   0  0  0  0  0  0  0  0  0  0  0  0
   -1.9641    0.2483    0.7582 C   0  0  0  0  0  0  0  0  0  0  0  0
    9.4623   -0.1248   -0.1354 C   0  0  0  0  0  0  0  0  0  0  0  0
   -2.5820    1.4250    0.5455 C   0  0  0  0  0  0  0  0  0  0  0  0
   -2.6273   -1.0361    0.3790 C   0  0  0  0  0  0  0  0  0  0  0  0
   10.5802   -0.0154   -1.1601 C   0  0  0  0  0  0  0  0  0  0  0  0
   -3.9532    1.4652   -0.0475 C   0  0  0  0  0  0  0  0  0  0  0  0
   -3.9823   -0.9803   -0.2128 C   0  0  0  0  0  0  0  0  0  0  0  0
   -4.6004    0.1853   -0.4112 C   0  0  0  0  0  0  0  0  0  0  0  0
   -1.9961    2.7789    0.8440 C   0  0  0  0  0  0  0  0  0  0  0  0
   -5.3414   -2.6803    0.5300 C   0  0  0  0  0  0  0  0  0  0  0  0
   -5.7943    0.3750   -2.3676 C   0  0  0  0  0  0  0  0  0  0  0  0
  1 19  1  0
  1 22  1  0
  2 16  2  0
  3 20  1  0
  3 23  1  0
  4 18  2  0
  5  6  1  0
  5  7  1  0
  6  8  1  0
  7  9  1  0
  8 10  1  0
  9 11  1  0
 10 12  1  0
 11 13  1  0
 12 14  1  0
 13 15  2  0
 13 16  1  0
 14 17  1  0
 15 18  1  0
 15 21  1  0
 16 19  1  0
 18 20  1  0
 19 20  2  0
M  END
>  <PUBCHEM_COMPOUND_CID>  (1) 
2971

>  <PUBCHEM_CONFORMER_RMSD>  (1) 
1

>  <PUBCHEM_CONFORMER_DIVERSEORDER>  (1) 
2
178
90
89
31
34
183
79
158
131
193
43
104
177
80
190
11
153
29
19
60
66
36
172
141
75
186
191
40
85
121
100
49
17
138
162
187
169
84
146
144
50
63
120
24
159
134
9
156
155
135
139
180
25
97
72
129
109
174
148
101
83
175
192
160
189
33
38
173
12
94
132
176
67
68
125
87
37
13
95
18
150
26
164
99
30
168
51
113
8
130
57
47
65
105
122
56
102
61
161
59
55
96
166
167
123
39
41
136
16
181
92
76
128
179
42
23
32
127
163
82
108
195
10
107
78
81
91
140
119
188
111
1
14
117
151
93
58
194
147
48
20
71
184
3
52
73
185
115
182
54
114
74
21
46
152
116
124
64
4
27
5
62
112
70
77
145
133
53
6
88
165
110
35
45
103
142
28
69
15
126
154
7
22
106
44
171
137
118
143
98
170
157
149
86

>  <PUBCHEM_MMFF94_PARTIAL_CHARGES>  (1) 
14
1 -0.36
11 0.14
13 -0.12
15 -0.12
16 0.54
18 0.54
19 0.09
2 -0.57
20 0.09
21 0.14
22 0.28
23 0.28
3 -0.36
4 -0.57

>  <PUBCHEM_EFFECTIVE_ROTOR_COUNT>  (1) 
11

>  <PUBCHEM_PHARMACOPHORE_FEATURES>  (1) 
6
1 1 acceptor
1 17 hydrophobe
1 2 acceptor
1 3 acceptor
1 4 acceptor
6 13 15 16 18 19 20 rings

>  <PUBCHEM_HEAVY_ATOM_COUNT>  (1) 
23

>  <PUBCHEM_ATOM_DEF_STEREO_COUNT>  (1) 
0

>  <PUBCHEM_ATOM_UDEF_STEREO_COUNT>  (1) 
0

>  <PUBCHEM_BOND_DEF_STEREO_COUNT>  (1) 
0

>  <PUBCHEM_BOND_UDEF_STEREO_COUNT>  (1) 
0

>  <PUBCHEM_ISOTOPIC_ATOM_COUNT>  (1) 
0

>  <PUBCHEM_COMPONENT_COUNT>  (1) 
1

>  <PUBCHEM_CACTVS_TAUTO_COUNT>  (1) 
9

>  <PUBCHEM_CONFORMER_ID>  (1) 
00000B9B00000002

>  <PUBCHEM_MMFF94_ENERGY>  (1) 
39.0758

>  <PUBCHEM_FEATURE_SELFOVERLAP>  (1) 
30.462

>  <PUBCHEM_SHAPE_FINGERPRINT>  (1) 
10 15 9007063465571900398
10411042 1 18194683898882823379
11315181 36 18259988180052754688
12082328 90 18272653416408067732
12091667 2 18187370930527947824
13288520 33 18343301483272046169
13668630 136 16056879122639564748
14251764 18 17967813843698598970
15152005 1 17412735486135224047
15183329 4 18334290947086270034
15419008 47 17703784817675317920
15461852 350 18410300220696013494
15716309 27 12967127212275121968
1577012 14 17967531247408415714
17093844 174 8430316827070293874
1754911 235 18041006151195855700
1818759 1 13183027316186212780
18681886 176 18411696626016906144
18927931 339 18272086115436510527
19489759 90 18412544305746271080
195137 175 17603592928969578372
21150785 3 18260269664273482210
21267235 1 18410294757059958107
22288116 15 18114185271740792530
2297311 6 18342738537534458057
23559900 14 18269262612093837361
2748010 2 17905015374628038721
335352 9 18411409606627949093
636775 72 14346069789690250447
636775 8 18335708298657404931

>  <PUBCHEM_SHAPE_MULTIPOLES>  (1) 
449.85
26.76
2.09
1.27
87.38
0.1
-0.52
-3.42
-12.55
-5.65
0.42
-1.14
0.12
0.36

>  <PUBCHEM_SHAPE_SELFOVERLAP>  (1) 
889.558

>  <PUBCHEM_SHAPE_VOLUME>  (1) 
268.8

>  <PUBCHEM_COORDINATE_TYPE>  (1) 
2
5
10

$$$$
