29739
     RDKit          3D

 21 23  0  0  1  0  0  0  0  0999 V2000
   -1.2836   -2.5292   -0.1554 O   0  0  0  0  0  0  0  0  0  0  0  0
    2.5826    0.3959   -1.5011 O   0  0  0  0  0  0  0  0  0  0  0  0
    1.6331   -2.2676    0.5551 O   0  0  0  0  0  0  0  0  0  0  0  0
    0.3941    1.1601    0.3040 O   0  0  0  0  0  0  0  0  0  0  0  0
    4.0729    2.4034    0.0285 O   0  0  0  0  0  0  0  0  0  0  0  0
   -0.6221   -1.5170    0.5938 C   0  0  0  0  0  0  0  0  0  0  0  0
    0.7668   -1.2328    0.0712 C   0  0  0  0  0  0  0  0  0  0  0  0
    2.6253    0.4286   -0.0559 C   0  0  0  0  0  0  0  0  0  0  0  0
    1.3124    0.1092    0.6059 C   0  0  0  0  0  0  0  0  0  0  0  0
   -1.8065   -1.1977   -0.2467 C   0  0  0  0  0  0  0  0  0  0  0  0
    0.7894   -1.2471   -1.4703 C   0  0  0  0  0  0  0  0  0  0  0  0
    3.9474    0.0301    0.5978 C   0  0  0  0  0  0  0  0  0  0  0  0
    3.5427    1.4103    0.4808 C   0  0  0  0  0  0  0  0  0  0  0  0
   -0.7399   -1.6567    2.0526 C   0  0  0  0  0  0  0  0  0  0  0  0
    2.1690   -0.8716   -2.0100 C   0  0  0  0  0  0  0  0  0  0  0  0
   -3.1748   -1.0234    0.2946 C   0  0  0  0  0  0  0  0  0  0  0  0
   -3.5595    0.4035    0.6063 C   0  0  0  0  0  0  0  0  0  0  0  0
    0.8657    2.4106    0.7814 C   0  0  0  0  0  0  0  0  0  0  0  0
   -4.2297    1.2666   -0.1805 C   0  0  0  0  0  0  0  0  0  0  0  0
   -4.5810    2.6788    0.1934 C   0  0  0  0  0  0  0  0  0  0  0  0
   -4.7042    0.8458   -1.5456 C   0  0  0  0  0  0  0  0  0  0  0  0
  1  6  1  0
  1 10  1  0
  2  8  1  0
  2 15  1  0
  3  7  1  0
  4  9  1  0
  4 18  1  0
  5 13  2  0
  6  7  1  0
  6 10  1  0
  6 14  1  0
  7  9  1  0
  7 11  1  0
  8  9  1  0
  8 12  1  0
  8 13  1  0
 10 16  1  0
 11 15  1  0
 12 13  1  0
 16 17  1  0
 17 19  2  3
 19 20  1  0
 19 21  1  0
M  END
>  <PUBCHEM_COMPOUND_CID>  (1) 
29739

>  <PUBCHEM_CONFORMER_RMSD>  (1) 
0.8

>  <PUBCHEM_CONFORMER_DIVERSEORDER>  (1) 
1
258
296
192
244
355
194
406
170
169
292
331
26
317
260
51
431
132
154
200
458
375
57
247
399
79
263
165
453
314
430
387
103
426
255
69
161
335
245
138
23
307
445
311
394
108
284
373
128
462
183
17
239
127
59
217
368
90
166
386
158
112
403
264
55
85
354
402
364
54
420
340
290
379
236
356
115
434
400
353
393
303
93
470
81
446
189
207
129
332
369
299
326
349
437
365
338
140
234
185
145
432
256
357
342
419
347
124
82
344
415
91
283
382
152
18
407
49
34
289
361
52
179
180
449
125
229
32
133
468
160
254
385
288
238
318
282
435
422
196
150
390
270
352
172
31
454
126
20
222
40
411
241
322
401
68
436
397
339
48
211
276
121
459
230
178
72
464
204
358
295
218
267
408
65
439
213
329
195
119
226
228
67
333
345
89
374
167
71
363
61
235
28
427
130
273
384
242
259
2
452
243
275
147
467
330
383
396
107
41
325
371
442
202
250
428
268
279
77
269
376
116
118
197
74
101
209
144
248
148
123
63
21
117
50
176
328
210
153
463
377
324
155
44
37
164
409
13
297
12
136
359
466
334
451
306
96
66
58
203
214
366
448
367
220
227
309
135
174
424
262
223
257
456
42
337
102
302
137
370
388
33
416
274
53
294
440
151
271
173
412
380
313
224
444
265
392
56
308
287
360
240
24
104
381
232
105
261
149
231
425
88
212
109
404
391
455
106
414
327
249
413
15
73
286
111
168
301
298
201
76
395
198
36
281
441
319
433
304
405
177
186
310
320
80
64
443
139
99
438
278
291
272
156
336
372
47
3
206
429
341
305
315
193
447
184
362
410
10
417
348
100
94
280
398
461
110
208
346
46
83
450
205
323
134
187
215
460
98
199
252
95
423
157
378
43
86
146
421
469
219
237
321
312
225
120
266
175
143
246
29
285
113
418
350
162
39
216
6
343
22
5
62
171
316
190
45
465
293
457
60
92
191
221
300
97
114
389
19
122
75
30
11
70
14
9
4
87
251
188
8
277
7
35
38
142
253
27
351
84
181
163
141
25
233
16
78
182
159
131

>  <PUBCHEM_MMFF94_PARTIAL_CHARGES>  (1) 
25
1 -0.3
10 -0.05
12 -0.2
13 0.57
14 0.09
15 0.28
16 0.23
17 -0.29
18 0.28
19 -0.28
2 -0.43
20 0.14
21 0.14
23 0.1
26 0.1
27 0.1
3 -0.68
35 0.4
36 0.15
4 -0.56
5 -0.57
6 -0.04
7 0.38
8 0.05
9 0.38

>  <PUBCHEM_EFFECTIVE_ROTOR_COUNT>  (1) 
5.8

>  <PUBCHEM_PHARMACOPHORE_FEATURES>  (1) 
8
1 1 acceptor
1 2 acceptor
1 3 acceptor
1 3 donor
1 4 acceptor
1 5 acceptor
3 19 20 21 hydrophobe
6 2 7 8 9 11 15 rings

>  <PUBCHEM_HEAVY_ATOM_COUNT>  (1) 
21

>  <PUBCHEM_ATOM_DEF_STEREO_COUNT>  (1) 
0

>  <PUBCHEM_ATOM_UDEF_STEREO_COUNT>  (1) 
5

>  <PUBCHEM_BOND_DEF_STEREO_COUNT>  (1) 
0

>  <PUBCHEM_BOND_UDEF_STEREO_COUNT>  (1) 
0

>  <PUBCHEM_ISOTOPIC_ATOM_COUNT>  (1) 
0

>  <PUBCHEM_COMPONENT_COUNT>  (1) 
1

>  <PUBCHEM_CACTVS_TAUTO_COUNT>  (1) 
2

>  <PUBCHEM_CONFORMER_ID>  (1) 
0000742B00000001

>  <PUBCHEM_MMFF94_ENERGY>  (1) 
75.217

>  <PUBCHEM_FEATURE_SELFOVERLAP>  (1) 
40.602

>  <PUBCHEM_SHAPE_FINGERPRINT>  (1) 
10498660 4 18337389349542302853
10646746 165 18409451422539751026
10948715 1 18411135865811275986
11221954 11 18122066665403956337
11552529 35 13913194351374433561
12077114 3 18337392759144656915
12654215 9 18272094881084882022
12788726 201 16954530478205953963
12892183 10 17823133608818264626
12969540 114 16916226740374135632
13103583 49 12540976236265755389
13134695 92 17830730955051779587
13464514 151 18412827975398476882
13544653 18 9727630614105645633
13571099 52 18339085989919405598
13965767 371 17605269576194758005
14123255 352 18334570278431370045
14251732 17 18411697682188444394
14251757 17 18272941513776014321
15163728 17 18190761884417642828
15375358 24 18273215317556161620
16945 1 15410069507367158254
18186145 218 18200891586254826499
193927 3 11167935888227914245
19784866 9 18041273262409452267
200 152 15410625778324388618
20233049 118 18334573546769606952
21524375 3 18259700099717263539
21864079 5 18197779891455683561
22182313 1 18129402512410723486
231179 274 18334571330803579637
23402539 116 18201429268762443716
23557571 272 18269551818565626895
23559900 14 18343028800689372390
25 1 18409167684331624787
2838139 119 18273205422115295360
5895379 119 17413867626981733945
6328613 192 18186807998139920276
9862522 239 17122530438944730864

>  <PUBCHEM_SHAPE_MULTIPOLES>  (1) 
402.82
8.31
2.76
1.47
6.3
0.65
0.37
6.26
1.27
0.4
-0.53
-0.15
-0.52
0.64

>  <PUBCHEM_SHAPE_SELFOVERLAP>  (1) 
839.044

>  <PUBCHEM_SHAPE_VOLUME>  (1) 
230

>  <PUBCHEM_COORDINATE_TYPE>  (1) 
2
5
10

$$$$
