29744
     RDKit          3D

  7  7  0  0  0  0  0  0  0  0999 V2000
    0.1475   -1.0494    0.3861 O   0  0  0  0  0  0  0  0  0  0  0  0
    0.7955    1.1864    0.0660 O   0  0  0  0  0  0  0  0  0  0  0  0
   -1.4154    0.5302   -0.4024 O   0  0  0  0  0  0  0  0  0  0  0  0
    1.3328   -1.0070   -0.4053 C   0  0  0  0  0  0  0  0  0  0  0  0
    1.9291    0.3271   -0.0483 C   0  0  0  0  0  0  0  0  0  0  0  0
   -0.2852    0.3176    0.4352 C   0  0  0  0  0  0  0  0  0  0  0  0
   -2.5041   -0.3048   -0.0313 C   0  0  0  0  0  0  0  0  0  0  0  0
  1  4  1  0
  1  6  1  0
  2  5  1  0
  2  6  1  0
  3  6  1  0
  3  7  1  0
  4  5  1  0
M  END
>  <PUBCHEM_COMPOUND_CID>  (1) 
29744

>  <PUBCHEM_CONFORMER_RMSD>  (1) 
0.4

>  <PUBCHEM_CONFORMER_DIVERSEORDER>  (1) 
1
3
2

>  <PUBCHEM_MMFF94_PARTIAL_CHARGES>  (1) 
7
1 -0.56
2 -0.56
3 -0.56
4 0.28
5 0.28
6 0.84
7 0.28

>  <PUBCHEM_EFFECTIVE_ROTOR_COUNT>  (1) 
2

>  <PUBCHEM_PHARMACOPHORE_FEATURES>  (1) 
4
1 1 acceptor
1 2 acceptor
1 3 acceptor
5 1 2 4 5 6 rings

>  <PUBCHEM_HEAVY_ATOM_COUNT>  (1) 
7

>  <PUBCHEM_ATOM_DEF_STEREO_COUNT>  (1) 
0

>  <PUBCHEM_ATOM_UDEF_STEREO_COUNT>  (1) 
0

>  <PUBCHEM_BOND_DEF_STEREO_COUNT>  (1) 
0

>  <PUBCHEM_BOND_UDEF_STEREO_COUNT>  (1) 
0

>  <PUBCHEM_ISOTOPIC_ATOM_COUNT>  (1) 
0

>  <PUBCHEM_COMPONENT_COUNT>  (1) 
1

>  <PUBCHEM_CACTVS_TAUTO_COUNT>  (1) 
1

>  <PUBCHEM_CONFORMER_ID>  (1) 
0000743000000001

>  <PUBCHEM_MMFF94_ENERGY>  (1) 
13.5613

>  <PUBCHEM_FEATURE_SELFOVERLAP>  (1) 
20.417

>  <PUBCHEM_SHAPE_FINGERPRINT>  (1) 
20096714 4 18337105760692329784
21040471 1 18337672047972431688
24536 1 18199454494297132977
29004967 10 18272371953440526491
5460574 1 9223235147783763717
5943 1 17128210167983560234

>  <PUBCHEM_SHAPE_MULTIPOLES>  (1) 
126.45
2.81
1.11
0.67
1.39
0.07
0.01
0.15
-0.27
-0.32
-0.01
0.01
0.03
0.09

>  <PUBCHEM_SHAPE_SELFOVERLAP>  (1) 
242.146

>  <PUBCHEM_SHAPE_VOLUME>  (1) 
76.5

>  <PUBCHEM_COORDINATE_TYPE>  (1) 
2
5
10

$$$$
