29741
     RDKit          3D

 18 19  0  0  0  0  0  0  0  0999 V2000
   -2.4782    2.5590   -0.1731 O   0  0  0  0  0  0  0  0  0  0  0  0
   -1.0355   -1.6724    0.0547 O   0  0  0  0  0  0  0  0  0  0  0  0
    0.2691    0.2490    2.3003 O   0  0  0  0  0  0  0  0  0  0  0  0
   -3.0437   -1.4727   -1.0526 O   0  0  0  0  0  0  0  0  0  0  0  0
   -2.9065    1.3043   -0.5898 N   0  0  0  0  0  0  0  0  0  0  0  0
   -0.9592    1.1345    0.4882 C   0  0  0  0  0  0  0  0  0  0  0  0
    1.5003    0.4728    0.3458 C   0  0  0  0  0  0  0  0  0  0  0  0
    0.2686    0.5954    1.1091 C   0  0  0  0  0  0  0  0  0  0  0  0
   -1.9597    0.4596   -0.1716 C   0  0  0  0  0  0  0  0  0  0  0  0
    1.5305    0.8548   -0.9954 C   0  0  0  0  0  0  0  0  0  0  0  0
    2.6517   -0.0264    0.9549 C   0  0  0  0  0  0  0  0  0  0  0  0
   -1.2942    2.4346    0.4794 C   0  0  0  0  0  0  0  0  0  0  0  0
   -2.0918   -0.9441   -0.4407 C   0  0  0  0  0  0  0  0  0  0  0  0
    2.7120    0.7374   -1.7277 C   0  0  0  0  0  0  0  0  0  0  0  0
    3.8331   -0.1436    0.2226 C   0  0  0  0  0  0  0  0  0  0  0  0
   -1.0514   -3.0889   -0.1521 C   0  0  0  0  0  0  0  0  0  0  0  0
    3.8631    0.2383   -1.1187 C   0  0  0  0  0  0  0  0  0  0  0  0
    0.1919   -3.6915    0.4666 C   0  0  0  0  0  0  0  0  0  0  0  0
  1  5  1  0
  1 12  1  0
  2 13  1  0
  2 16  1  0
  3  8  2  0
  4 13  2  0
  5  9  2  0
  6  8  1  0
  6  9  1  0
  6 12  2  0
  7  8  1  0
  7 10  2  0
  7 11  1  0
  9 13  1  0
 10 14  1  0
 11 15  2  0
 14 17  2  0
 15 17  1  0
 16 18  1  0
M  END
>  <PUBCHEM_COMPOUND_CID>  (1) 
29741

>  <PUBCHEM_CONFORMER_RMSD>  (1) 
0.6

>  <PUBCHEM_CONFORMER_DIVERSEORDER>  (1) 
1
28
25
8
5
22
14
24
17
29
9
30
27
15
4
21
6
16
31
26
18
2
23
7
10
3
13
12
11
20
19

>  <PUBCHEM_MMFF94_PARTIAL_CHARGES>  (1) 
23
1 -0.02
10 -0.15
11 -0.15
12 -0.01
13 0.81
14 -0.15
15 -0.15
16 0.28
17 -0.15
19 0.15
2 -0.43
20 0.15
21 0.15
24 0.15
25 0.15
26 0.15
3 -0.57
4 -0.57
5 -0.41
6 -0.09
7 0.09
8 0.57
9 0.2

>  <PUBCHEM_EFFECTIVE_ROTOR_COUNT>  (1) 
5

>  <PUBCHEM_PHARMACOPHORE_FEATURES>  (1) 
5
1 3 acceptor
1 4 acceptor
1 5 acceptor
5 1 5 6 9 12 rings
6 7 10 11 14 15 17 rings

>  <PUBCHEM_HEAVY_ATOM_COUNT>  (1) 
18

>  <PUBCHEM_ATOM_DEF_STEREO_COUNT>  (1) 
0

>  <PUBCHEM_ATOM_UDEF_STEREO_COUNT>  (1) 
0

>  <PUBCHEM_BOND_DEF_STEREO_COUNT>  (1) 
0

>  <PUBCHEM_BOND_UDEF_STEREO_COUNT>  (1) 
0

>  <PUBCHEM_ISOTOPIC_ATOM_COUNT>  (1) 
0

>  <PUBCHEM_COMPONENT_COUNT>  (1) 
1

>  <PUBCHEM_CACTVS_TAUTO_COUNT>  (1) 
1

>  <PUBCHEM_CONFORMER_ID>  (1) 
0000742D00000001

>  <PUBCHEM_MMFF94_ENERGY>  (1) 
41.7238

>  <PUBCHEM_FEATURE_SELFOVERLAP>  (1) 
25.376

>  <PUBCHEM_SHAPE_FINGERPRINT>  (1) 
11370993 70 18340759339564185342
12054548 360 17546174455248774550
12173636 292 18409726235927740669
12202030 40 17346600819527115316
12553582 1 17977953706252694158
12592029 89 18120107095227881569
12841375 5 16537944377068253966
14115302 16 18189327047149182246
14181834 199 17620184339408223583
14817 1 16014436912248914826
15375462 175 18338221756742360643
15415430 2 18270397316604398031
15852999 172 18129952161177061230
16752209 62 18337659893394520551
16945 1 18338236071630727848
18785283 64 17042629517312131073
20600515 1 17908670124681021473
20645476 183 18260269641838575950
20871999 31 18342177803626243605
20905425 154 18201434727603158615
22802520 49 18055075620825195634
23419403 2 17058626659665083001
23526113 38 17274527755143555464
23557571 272 18200874105790984824
23559900 14 18131062698544970600
23598291 2 17750499699046880778
2748010 2 17692802005750606227
298252 57 18261395481637203040
576247 118 17767143250963538087
77492 1 17894905205173501656
81228 2 18200319943002475873
90525 40 18261396611186857455

>  <PUBCHEM_SHAPE_MULTIPOLES>  (1) 
341.97
5.32
3.18
1.39
3.55
3.02
-0.24
-0.9
1.93
-2.72
-0.18
0.69
-0.2
-0.54

>  <PUBCHEM_SHAPE_SELFOVERLAP>  (1) 
734.839

>  <PUBCHEM_SHAPE_VOLUME>  (1) 
189.6

>  <PUBCHEM_COORDINATE_TYPE>  (1) 
2
5
10

$$$$
