29756
     RDKit          3D

 22 22  0  0  0  0  0  0  0  0999 V2000
    0.5787    2.8306    1.0593 I   0  0  0  0  0  0  0  0  0  0  0  0
    1.3956   -3.1524    0.1599 I   0  0  0  0  0  0  0  0  0  0  0  0
   -4.2259   -0.7730   -0.0355 I   0  0  0  0  0  0  0  0  0  0  0  0
    2.7650    0.3686   -1.4474 O   0  0  0  0  0  0  0  0  0  0  0  0
   -1.8942   -3.2176   -1.4761 O   0  0  0  0  0  0  0  0  0  0  0  0
   -2.1994   -3.7617    0.7096 O   0  0  0  0  0  0  0  0  0  0  0  0
   -2.5565    2.6502   -1.6313 O   0  0  0  0  0  0  0  0  0  0  0  0
    2.0063   -0.0417    0.7362 N   0  0  0  0  0  0  0  0  0  0  0  0
   -2.4531    1.8457    0.5806 N   0  0  0  0  0  0  0  0  0  0  0  0
    0.6113   -0.2061    0.5632 C   0  0  0  0  0  0  0  0  0  0  0  0
    4.3468    0.3326    0.3721 C   0  0  0  0  0  0  0  0  0  0  0  0
    5.4510    0.6351   -0.6383 C   0  0  0  0  0  0  0  0  0  0  0  0
   -1.5999    0.7365    0.4873 C   0  0  0  0  0  0  0  0  0  0  0  0
   -0.2249    0.8984    0.6577 C   0  0  0  0  0  0  0  0  0  0  0  0
    0.0977   -1.4694    0.3016 C   0  0  0  0  0  0  0  0  0  0  0  0
    2.9560    0.2351   -0.2433 C   0  0  0  0  0  0  0  0  0  0  0  0
   -1.2773   -1.6310    0.1314 C   0  0  0  0  0  0  0  0  0  0  0  0
   -2.1260   -0.5283    0.2243 C   0  0  0  0  0  0  0  0  0  0  0  0
    6.8257    0.7264    0.0089 C   0  0  0  0  0  0  0  0  0  0  0  0
   -1.8295   -2.9582   -0.1450 C   0  0  0  0  0  0  0  0  0  0  0  0
   -2.8618    2.7022   -0.4443 C   0  0  0  0  0  0  0  0  0  0  0  0
   -3.7857    3.7780    0.0689 C   0  0  0  0  0  0  0  0  0  0  0  0
  1 14  1  0
  2 15  1  0
  3 18  1  0
  4 16  2  0
  5 20  1  0
  6 20  2  0
  7 21  2  0
  8 10  1  0
  8 16  1  0
  9 13  1  0
  9 21  1  0
 10 14  2  0
 10 15  1  0
 11 12  1  0
 11 16  1  0
 12 19  1  0
 13 14  1  0
 13 18  2  0
 15 17  2  0
 17 18  1  0
 17 20  1  0
 21 22  1  0
M  END
>  <PUBCHEM_COMPOUND_CID>  (1) 
29756

>  <PUBCHEM_CONFORMER_RMSD>  (1) 
0.8

>  <PUBCHEM_CONFORMER_DIVERSEORDER>  (1) 
2
9
3
12
5
8
4
1
7
10
11
6

>  <PUBCHEM_MMFF94_PARTIAL_CHARGES>  (1) 
23
1 -0.08
10 0.12
11 0.06
13 0.12
14 0.08
15 0.08
16 0.57
17 0.09
18 0.08
2 -0.08
20 0.63
21 0.57
22 0.06
27 0.37
3 -0.08
31 0.37
35 0.5
4 -0.57
5 -0.65
6 -0.57
7 -0.57
8 -0.55
9 -0.55

>  <PUBCHEM_EFFECTIVE_ROTOR_COUNT>  (1) 
7

>  <PUBCHEM_PHARMACOPHORE_FEATURES>  (1) 
12
1 1 hydrophobe
1 19 hydrophobe
1 2 hydrophobe
1 3 hydrophobe
1 4 acceptor
1 5 acceptor
1 6 acceptor
1 7 acceptor
1 8 donor
1 9 donor
3 5 6 20 anion
6 10 13 14 15 17 18 rings

>  <PUBCHEM_HEAVY_ATOM_COUNT>  (1) 
22

>  <PUBCHEM_ATOM_DEF_STEREO_COUNT>  (1) 
0

>  <PUBCHEM_ATOM_UDEF_STEREO_COUNT>  (1) 
0

>  <PUBCHEM_BOND_DEF_STEREO_COUNT>  (1) 
0

>  <PUBCHEM_BOND_UDEF_STEREO_COUNT>  (1) 
0

>  <PUBCHEM_ISOTOPIC_ATOM_COUNT>  (1) 
0

>  <PUBCHEM_COMPONENT_COUNT>  (1) 
1

>  <PUBCHEM_CACTVS_TAUTO_COUNT>  (1) 
4

>  <PUBCHEM_CONFORMER_ID>  (1) 
0000743C00000002

>  <PUBCHEM_MMFF94_ENERGY>  (1) 
108.1576

>  <PUBCHEM_FEATURE_SELFOVERLAP>  (1) 
60.954

>  <PUBCHEM_SHAPE_FINGERPRINT>  (1) 
10411042 1 17906173202146191755
12107183 9 18045492020713087498
12236239 1 17894628197532205330
12293681 160 17844241822516328952
12390115 104 18270692956478398129
12403259 226 18054508286116106882
12553582 1 18339631360693062427
12788726 201 18336254730308686699
13140716 1 18123471841554106035
14508225 48 18124585642405986071
14713325 29 18334018310698755803
14790565 3 17766287474419629632
14955137 171 17902804286334904235
15042514 8 18265059213600977011
16087824 20 18411136966578658439
167882 2 18049159969353446802
16945 1 18340195380198627603
17539 30 18270111447870687167
19591789 44 18411983525152222067
19784866 34 18124317103797697313
20101258 96 18119259599211562306
20871999 31 18341889679950591589
21339142 51 18343585157314652152
21426921 1 18337674217136651042
2334 1 17763175148301718739
23402539 116 18270399529092810806
23557571 272 18273502282086703944
23558518 356 18188215295265929131
23559900 14 18128252484063128520
23566358 2 18271530779890665935
2748010 2 18197213646919305515
283562 15 18336824320255232074
335352 9 18341614879806460287
350125 39 18410575072448778953
394222 165 17826792534127903536
5283173 99 18412543237038483848
559249 180 18336825278676328850
59755656 215 18341620308840671854
59755656 520 18337671889264708308
6327066 14 18188768336360747980
9862522 239 17677604276953733652
9981440 41 18335144172267592714

>  <PUBCHEM_SHAPE_MULTIPOLES>  (1) 
455.12
9.44
4.82
1.08
16.17
0.96
0.23
-4.53
1.86
-5.28
0.05
-0.08
-0.23
0.27

>  <PUBCHEM_SHAPE_SELFOVERLAP>  (1) 
875.078

>  <PUBCHEM_SHAPE_VOLUME>  (1) 
285.5

>  <PUBCHEM_COORDINATE_TYPE>  (1) 
2
5
10

$$$$
