29751
     RDKit          3D

 20 21  0  0  1  0  0  0  0  0999 V2000
   -0.2625   -0.6852    1.0300 O   0  0  0  0  0  0  0  0  0  0  0  0
   -0.8030    1.5763    0.7828 O   0  0  0  0  0  0  0  0  0  0  0  0
   -4.4228    3.1984   -1.1124 N   0  0  0  0  0  0  0  0  0  0  0  0
    4.9274    0.6143   -0.1667 N   0  0  0  0  0  0  0  0  0  0  0  0
   -3.3554   -0.3263    0.0011 C   0  0  0  0  0  0  0  0  0  0  0  0
   -2.7390   -1.5018   -0.7942 C   0  0  0  0  0  0  0  0  0  0  0  0
   -3.5478    0.9172   -0.8967 C   0  0  0  0  0  0  0  0  0  0  0  0
   -2.5310   -0.0469    1.2725 C   0  0  0  0  0  0  0  0  0  0  0  0
   -2.6661   -2.8093    0.0004 C   0  0  0  0  0  0  0  0  0  0  0  0
   -4.2789    2.0681   -0.2001 C   0  0  0  0  0  0  0  0  0  0  0  0
   -1.1150    0.4124    1.0015 C   0  0  0  0  0  0  0  0  0  0  0  0
   -2.0286   -3.9206   -0.8207 C   0  0  0  0  0  0  0  0  0  0  0  0
    1.0699   -0.3445    0.7878 C   0  0  0  0  0  0  0  0  0  0  0  0
    2.8674   -0.0073   -0.7560 C   0  0  0  0  0  0  0  0  0  0  0  0
    3.6779    0.3227    0.3323 C   0  0  0  0  0  0  0  0  0  0  0  0
    1.5217   -0.3513   -0.5197 C   0  0  0  0  0  0  0  0  0  0  0  0
    1.8696   -0.0190    1.8605 C   0  0  0  0  0  0  0  0  0  0  0  0
    3.2078    0.3260    1.6504 C   0  0  0  0  0  0  0  0  0  0  0  0
    3.6737    0.0965   -1.9238 C   0  0  0  0  0  0  0  0  0  0  0  0
    4.9348    0.4803   -1.5292 C   0  0  0  0  0  0  0  0  0  0  0  0
  1 11  1  0
  1 13  1  0
  2 11  2  0
  3 10  1  0
  4 15  1  0
  4 20  1  0
  5  6  1  0
  5  7  1  0
  5  8  1  0
  6  9  1  0
  7 10  1  0
  8 11  1  0
  9 12  1  0
 13 16  2  0
 13 17  1  0
 14 15  2  0
 14 16  1  0
 14 19  1  0
 15 18  1  0
 17 18  2  0
 19 20  2  0
M  END
>  <PUBCHEM_COMPOUND_CID>  (1) 
29751

>  <PUBCHEM_CONFORMER_RMSD>  (1) 
1

>  <PUBCHEM_CONFORMER_DIVERSEORDER>  (1) 
1
414
12
562
924
247
658
531
669
3
68
754
56
481
822
312
817
289
187
432
600
259
10
301
298
753
836
348
656
184
111
280
321
379
234
236
224
114
245
29
929
255
706
905
571
101
107
174
43
400
456
538
578
243
112
563
142
554
168
6
129
92
291
77
641
529
642
138
875
103
821
98
625
27
33
148
249
500
9
233
620
226
157
357
99
300
11
179
166
743
416
374
20
4
938
228
123
265
535
206
341
194
308
7
2
8
149
499
269
22
50
396
366
436
476
266
31
197
106
526
835
364
705
471
78
294
190
38
116
867
852
5
699
178
67
398
55
917
542
225
410
74
217
70
314
13
337
150
601
246
354
799
530
406
253
26
536
32
442
46
474
544
546
25
460
479
16
777
152
510
457
310
58
153
203
443
832
214
477

>  <PUBCHEM_MMFF94_PARTIAL_CHARGES>  (1) 
22
1 -0.23
10 0.27
11 0.66
13 0.08
15 -0.15
16 -0.15
17 -0.15
18 -0.15
19 -0.15
2 -0.57
20 -0.3
3 -0.99
35 0.36
36 0.36
37 0.15
38 0.15
39 0.15
4 0.03
40 0.15
41 0.27
42 0.15
8 0.06

>  <PUBCHEM_EFFECTIVE_ROTOR_COUNT>  (1) 
8

>  <PUBCHEM_PHARMACOPHORE_FEATURES>  (1) 
9
1 12 hydrophobe
1 2 acceptor
1 3 cation
1 3 donor
1 4 cation
1 4 donor
5 4 14 15 19 20 rings
5 5 6 7 8 9 hydrophobe
6 13 14 15 16 17 18 rings

>  <PUBCHEM_HEAVY_ATOM_COUNT>  (1) 
20

>  <PUBCHEM_ATOM_DEF_STEREO_COUNT>  (1) 
0

>  <PUBCHEM_ATOM_UDEF_STEREO_COUNT>  (1) 
1

>  <PUBCHEM_BOND_DEF_STEREO_COUNT>  (1) 
0

>  <PUBCHEM_BOND_UDEF_STEREO_COUNT>  (1) 
0

>  <PUBCHEM_ISOTOPIC_ATOM_COUNT>  (1) 
0

>  <PUBCHEM_COMPONENT_COUNT>  (1) 
1

>  <PUBCHEM_CACTVS_TAUTO_COUNT>  (1) 
1

>  <PUBCHEM_CONFORMER_ID>  (1) 
0000743700000001

>  <PUBCHEM_MMFF94_ENERGY>  (1) 
32.0884

>  <PUBCHEM_FEATURE_SELFOVERLAP>  (1) 
45.764

>  <PUBCHEM_SHAPE_FINGERPRINT>  (1) 
10366900 7 17346600750965803064
10498660 4 18341895177656430176
105312 117 18411698751656426573
107951 10 18343306942429285071
10803635 8 18341899571492227182
11543360 7 18267032828651282326
11640471 11 17749389234898928801
11796584 16 18342741789474242470
12173636 292 18266445534939447509
12500047 106 18341325630648793511
12670546 177 18268998763789236788
12714826 92 18340490088043586227
12788726 201 18041557061676139787
12892183 10 8646493977461444252
13675066 3 11819267854464613248
14251757 5 18412549833791271565
14251764 38 18043534017505172236
15163728 17 18121786028515548437
15463212 79 18260541251518364643
18186145 218 18060422425664629922
18785283 64 17686617945014498459
19433438 15 17967525770639375634
20645476 183 18408882928269146199
20645477 56 18412547604861461633
20645477 70 16487252192565101996
20693207 138 17845659290414141386
20871999 31 18343298184995632111
221490 88 17130999814136488818
22182313 1 17631724018974075210
22620623 9 18272363230889748399
23402539 116 18334015017023017116
23402655 69 18186524293684565212
23557571 272 18129934693144427561
23559900 14 18060143128959069902
23596394 208 17417808392508893356
268830 7 16298382470291876444
312425 83 18263948634116097894
4921388 177 18201167644982481639
5104073 3 15791738533447366072
633830 44 17167870759668547762

>  <PUBCHEM_SHAPE_MULTIPOLES>  (1) 
389.89
10.06
2.8
1.69
4.62
1.94
-0.11
-4.14
4.03
-6.14
1.14
1.39
-0.25
0.52

>  <PUBCHEM_SHAPE_SELFOVERLAP>  (1) 
809.878

>  <PUBCHEM_SHAPE_VOLUME>  (1) 
222.4

>  <PUBCHEM_COORDINATE_TYPE>  (1) 
2
5
10

$$$$
