29759
     RDKit          3D

 13 13  0  0  1  0  0  0  0  0999 V2000
    2.9903   -1.1299   -0.4662 O   0  0  0  0  0  0  0  0  0  0  0  0
    1.5312   -0.1526   -1.9021 O   0  0  0  0  0  0  0  0  0  0  0  0
    0.6356    0.1933    1.2698 C   0  0  0  0  0  0  0  0  0  0  0  0
    1.7576    0.7532    0.3532 C   0  0  0  0  0  0  0  0  0  0  0  0
   -0.7134    0.0447    0.5784 C   0  0  0  0  0  0  0  0  0  0  0  0
    1.0795   -1.0904    1.9878 C   0  0  0  0  0  0  0  0  0  0  0  0
    1.5046    2.1626   -0.1892 C   0  0  0  0  0  0  0  0  0  0  0  0
    2.0554   -0.2014   -0.7968 C   0  0  0  0  0  0  0  0  0  0  0  0
   -1.5212    1.1552    0.4484 C   0  0  0  0  0  0  0  0  0  0  0  0
   -1.0855   -1.1961    0.1040 C   0  0  0  0  0  0  0  0  0  0  0  0
   -2.7567    1.0188   -0.1846 C   0  0  0  0  0  0  0  0  0  0  0  0
   -2.3209   -1.3324   -0.5291 C   0  0  0  0  0  0  0  0  0  0  0  0
   -3.1565   -0.2249   -0.6735 C   0  0  0  0  0  0  0  0  0  0  0  0
  1  8  1  0
  2  8  2  0
  3  4  1  0
  3  5  1  0
  3  6  1  0
  4  7  1  0
  4  8  1  0
  5  9  2  0
  5 10  1  0
  9 11  1  0
 10 12  2  0
 11 13  2  0
 12 13  1  0
M  END
>  <PUBCHEM_COMPOUND_CID>  (1) 
29759

>  <PUBCHEM_CONFORMER_RMSD>  (1) 
0.6

>  <PUBCHEM_CONFORMER_DIVERSEORDER>  (1) 
8
18
11
1
20
3
19
15
14
12
7
17
6
24
4
23
21
5
22
9
13
10
2
16

>  <PUBCHEM_MMFF94_PARTIAL_CHARGES>  (1) 
17
1 -0.65
10 -0.15
11 -0.15
12 -0.15
13 -0.15
2 -0.57
22 0.15
23 0.15
24 0.15
25 0.15
26 0.15
27 0.5
3 0.14
4 0.06
5 -0.14
8 0.66
9 -0.15

>  <PUBCHEM_EFFECTIVE_ROTOR_COUNT>  (1) 
3

>  <PUBCHEM_PHARMACOPHORE_FEATURES>  (1) 
6
1 1 acceptor
1 2 acceptor
1 6 hydrophobe
1 7 hydrophobe
3 1 2 8 anion
6 5 9 10 11 12 13 rings

>  <PUBCHEM_HEAVY_ATOM_COUNT>  (1) 
13

>  <PUBCHEM_ATOM_DEF_STEREO_COUNT>  (1) 
0

>  <PUBCHEM_ATOM_UDEF_STEREO_COUNT>  (1) 
2

>  <PUBCHEM_BOND_DEF_STEREO_COUNT>  (1) 
0

>  <PUBCHEM_BOND_UDEF_STEREO_COUNT>  (1) 
0

>  <PUBCHEM_ISOTOPIC_ATOM_COUNT>  (1) 
0

>  <PUBCHEM_COMPONENT_COUNT>  (1) 
1

>  <PUBCHEM_CACTVS_TAUTO_COUNT>  (1) 
1

>  <PUBCHEM_CONFORMER_ID>  (1) 
0000743F00000008

>  <PUBCHEM_MMFF94_ENERGY>  (1) 
33.1103

>  <PUBCHEM_FEATURE_SELFOVERLAP>  (1) 
30.505

>  <PUBCHEM_SHAPE_FINGERPRINT>  (1) 
11031198 65 16950282871344754721
12202030 40 17131259290032363455
12897270 3 18056765561549227869
12932764 1 17967805042619701057
14817 1 13062010250666759576
15775835 57 17967810531282086885
16945 1 18340499892915456257
20201158 50 17346602936956535567
20559304 39 18042667456296726441
20645476 183 18040427781429366679
20653085 51 18335708243186196753
20671657 53 17774741783087555804
21061003 4 15051734166305927250
22802520 49 18339091474550171827
230 275 16950274152376702876
23419403 2 14182546353458384976
23552423 10 18410848902003368187
23559900 14 17987795182342281410
2748010 2 16536511722207305953
430814 3 16733281113129423450
5084963 1 17989204837204161193
549884 4 18187088351238538396
7364860 26 18129371756292328800
8030462 33 17894621548569305713
81228 2 14331755204800558490

>  <PUBCHEM_SHAPE_MULTIPOLES>  (1) 
255.8
4.31
1.65
1.43
1.48
0.42
-0.05
-0.11
1.34
-0.27
-0.17
-0.78
-0.39
-0.26

>  <PUBCHEM_SHAPE_SELFOVERLAP>  (1) 
524.218

>  <PUBCHEM_SHAPE_VOLUME>  (1) 
147.5

>  <PUBCHEM_COORDINATE_TYPE>  (1) 
2
5
10

$$$$
