29755
     RDKit          3D

 21 21  0  0  0  0  0  0  0  0999 V2000
    0.6094   -2.9407   -1.0626 I   0  0  0  0  0  0  0  0  0  0  0  0
    2.0224    2.9299   -0.1615 I   0  0  0  0  0  0  0  0  0  0  0  0
   -3.8090    1.1253    0.0394 I   0  0  0  0  0  0  0  0  0  0  0  0
    3.0437   -0.7362    1.4383 O   0  0  0  0  0  0  0  0  0  0  0  0
   -1.2425    3.3234    1.4784 O   0  0  0  0  0  0  0  0  0  0  0  0
   -1.4940    3.8964   -0.7068 O   0  0  0  0  0  0  0  0  0  0  0  0
   -2.4890   -2.4488    1.6318 O   0  0  0  0  0  0  0  0  0  0  0  0
    2.3179   -0.2262   -0.7398 N   0  0  0  0  0  0  0  0  0  0  0  0
   -2.3080   -1.6574   -0.5798 N   0  0  0  0  0  0  0  0  0  0  0  0
    0.9590    0.0743   -0.5667 C   0  0  0  0  0  0  0  0  0  0  0  0
   -1.3479   -0.6393   -0.4871 C   0  0  0  0  0  0  0  0  0  0  0  0
    0.0038   -0.9381   -0.6591 C   0  0  0  0  0  0  0  0  0  0  0  0
   -0.7893    1.6839   -0.1306 C   0  0  0  0  0  0  0  0  0  0  0  0
    0.5624    1.3853   -0.3024 C   0  0  0  0  0  0  0  0  0  0  0  0
   -1.7445    0.6716   -0.2229 C   0  0  0  0  0  0  0  0  0  0  0  0
    3.2484   -0.6003    0.2366 C   0  0  0  0  0  0  0  0  0  0  0  0
    4.6193   -0.8355   -0.3800 C   0  0  0  0  0  0  0  0  0  0  0  0
   -1.2055    3.0594    0.1471 C   0  0  0  0  0  0  0  0  0  0  0  0
    5.6696   -1.2108    0.6499 C   0  0  0  0  0  0  0  0  0  0  0  0
   -2.7993   -2.4692    0.4452 C   0  0  0  0  0  0  0  0  0  0  0  0
   -3.8269   -3.4469   -0.0675 C   0  0  0  0  0  0  0  0  0  0  0  0
  1 12  1  0
  2 14  1  0
  3 15  1  0
  4 16  2  0
  5 18  1  0
  6 18  2  0
  7 20  2  0
  8 10  1  0
  8 16  1  0
  9 11  1  0
  9 20  1  0
 10 12  2  0
 10 14  1  0
 11 12  1  0
 11 15  2  0
 13 14  2  0
 13 15  1  0
 13 18  1  0
 16 17  1  0
 17 19  1  0
 20 21  1  0
M  END
>  <PUBCHEM_COMPOUND_CID>  (1) 
29755

>  <PUBCHEM_CONFORMER_RMSD>  (1) 
0.8

>  <PUBCHEM_CONFORMER_DIVERSEORDER>  (1) 
2
3
4
1

>  <PUBCHEM_MMFF94_PARTIAL_CHARGES>  (1) 
23
1 -0.08
10 0.12
11 0.12
12 0.08
13 0.09
14 0.08
15 0.08
16 0.57
17 0.06
18 0.63
2 -0.08
20 0.57
21 0.06
22 0.37
25 0.37
3 -0.08
32 0.5
4 -0.57
5 -0.65
6 -0.57
7 -0.57
8 -0.55
9 -0.55

>  <PUBCHEM_EFFECTIVE_ROTOR_COUNT>  (1) 
6

>  <PUBCHEM_PHARMACOPHORE_FEATURES>  (1) 
12
1 1 hydrophobe
1 19 hydrophobe
1 2 hydrophobe
1 3 hydrophobe
1 4 acceptor
1 5 acceptor
1 6 acceptor
1 7 acceptor
1 8 donor
1 9 donor
3 5 6 18 anion
6 10 11 12 13 14 15 rings

>  <PUBCHEM_HEAVY_ATOM_COUNT>  (1) 
21

>  <PUBCHEM_ATOM_DEF_STEREO_COUNT>  (1) 
0

>  <PUBCHEM_ATOM_UDEF_STEREO_COUNT>  (1) 
0

>  <PUBCHEM_BOND_DEF_STEREO_COUNT>  (1) 
0

>  <PUBCHEM_BOND_UDEF_STEREO_COUNT>  (1) 
0

>  <PUBCHEM_ISOTOPIC_ATOM_COUNT>  (1) 
0

>  <PUBCHEM_COMPONENT_COUNT>  (1) 
1

>  <PUBCHEM_CACTVS_TAUTO_COUNT>  (1) 
4

>  <PUBCHEM_CONFORMER_ID>  (1) 
0000743B00000002

>  <PUBCHEM_MMFF94_ENERGY>  (1) 
108.3431

>  <PUBCHEM_FEATURE_SELFOVERLAP>  (1) 
60.954

>  <PUBCHEM_SHAPE_FINGERPRINT>  (1) 
10366900 7 18058997389928263762
10411042 1 18338797947726936830
10906281 52 18269569259958278621
10967382 1 18268434529498175813
1100329 8 18410576175954401113
11680986 33 18339633550973525748
12507560 14 18198065987121125807
12553582 1 18336539439157841639
12633257 1 18339379542818841739
12788726 201 18262790775015071187
13140716 1 18341335577824777505
14178342 30 18342185414313657526
14790565 3 16895964037679853501
14844126 61 18410564076963307658
15042514 8 18411140225308686975
16945 1 18340216176208735261
19591789 44 18196380435726536988
20510252 161 18055351336224648505
20600515 1 18272662211805316172
20739085 24 18123493801600297929
21041028 32 18340209707755618751
2334 1 18196937888317238493
23402539 116 18269825437582754389
23419403 2 17829578980540466687
23559900 14 18411974767867145876
2748010 2 18269557302753327005
3091708 16 9132718952538810301
352729 6 18412832365050485949
5104073 3 18412539942697821912
58807428 26 17617939127931971736
81228 2 18269001899088989037
9709674 26 18198908007059326990

>  <PUBCHEM_SHAPE_MULTIPOLES>  (1) 
434.54
7.58
4.96
1.1
7.37
1.77
0.25
-4.72
1.87
-3.41
0.01
0.06
-0.27
0.11

>  <PUBCHEM_SHAPE_SELFOVERLAP>  (1) 
837.07

>  <PUBCHEM_SHAPE_VOLUME>  (1) 
272.7

>  <PUBCHEM_COORDINATE_TYPE>  (1) 
2
5
10

$$$$
