29766
     RDKit          3D

  9  9  0  0  0  0  0  0  0  0999 V2000
    3.2663    0.0010    0.0000 Br  0  0  0  0  0  0  0  0  0  0  0  0
   -1.5761   -2.6989   -0.0001 Cl  0  0  0  0  0  0  0  0  0  0  0  0
   -1.5776    2.6980   -0.0002 Cl  0  0  0  0  0  0  0  0  0  0  0  0
    1.3762    0.0003    0.0000 C   0  0  0  0  0  0  0  0  0  0  0  0
    0.6783    1.2081    0.0000 C   0  0  0  0  0  0  0  0  0  0  0  0
    0.6791   -1.2080   -0.0001 C   0  0  0  0  0  0  0  0  0  0  0  0
   -0.7159   -1.2082    0.0000 C   0  0  0  0  0  0  0  0  0  0  0  0
   -0.7166    1.2078    0.0002 C   0  0  0  0  0  0  0  0  0  0  0  0
   -1.4136   -0.0003    0.0001 C   0  0  0  0  0  0  0  0  0  0  0  0
  1  4  1  0
  2  7  1  0
  3  8  1  0
  4  5  2  0
  4  6  1  0
  5  8  1  0
  6  7  2  0
  7  9  1  0
  8  9  2  0
M  END
>  <PUBCHEM_COMPOUND_CID>  (1) 
29766

>  <PUBCHEM_CONFORMER_RMSD>  (1) 
0.4

>  <PUBCHEM_CONFORMER_DIVERSEORDER>  (1) 
1

>  <PUBCHEM_MMFF94_PARTIAL_CHARGES>  (1) 
12
1 -0.11
10 0.15
11 0.15
12 0.15
2 -0.18
3 -0.18
4 0.11
5 -0.15
6 -0.15
7 0.18
8 0.18
9 -0.15

>  <PUBCHEM_EFFECTIVE_ROTOR_COUNT>  (1) 
0

>  <PUBCHEM_PHARMACOPHORE_FEATURES>  (1) 
2
1 1 hydrophobe
6 4 5 6 7 8 9 rings

>  <PUBCHEM_HEAVY_ATOM_COUNT>  (1) 
9

>  <PUBCHEM_ATOM_DEF_STEREO_COUNT>  (1) 
0

>  <PUBCHEM_ATOM_UDEF_STEREO_COUNT>  (1) 
0

>  <PUBCHEM_BOND_DEF_STEREO_COUNT>  (1) 
0

>  <PUBCHEM_BOND_UDEF_STEREO_COUNT>  (1) 
0

>  <PUBCHEM_ISOTOPIC_ATOM_COUNT>  (1) 
0

>  <PUBCHEM_COMPONENT_COUNT>  (1) 
1

>  <PUBCHEM_CACTVS_TAUTO_COUNT>  (1) 
1

>  <PUBCHEM_CONFORMER_ID>  (1) 
0000744600000001

>  <PUBCHEM_MMFF94_ENERGY>  (1) 
15.7253

>  <PUBCHEM_FEATURE_SELFOVERLAP>  (1) 
10.148

>  <PUBCHEM_SHAPE_FINGERPRINT>  (1) 
1 1 17689435979613746692
12423570 1 18266766664795138698
12716758 59 18341335475014418870
16945 1 18410575089132113030
19021347 4 18266459793523845352
20645477 70 17041470086569546543
20871998 184 18201159952896391494
21040471 1 18266741268706420580
23552423 10 18043812198351716254
23552449 1 18339358685940355918
2748010 2 18411703192183111796
81228 2 18410575119043916498

>  <PUBCHEM_SHAPE_MULTIPOLES>  (1) 
194.9
3.28
2.93
0.64
3.36
0
0
0
0
-2.78
0
0.04
0
0

>  <PUBCHEM_SHAPE_SELFOVERLAP>  (1) 
371.478

>  <PUBCHEM_SHAPE_VOLUME>  (1) 
123.9

>  <PUBCHEM_COORDINATE_TYPE>  (1) 
2
5
10

$$$$
