29772
     RDKit          3D

 19 19  0  0  1  0  0  0  0  0999 V2000
    3.9884   -2.4599   -0.2512 O   0  0  0  0  0  0  0  0  0  0  0  0
    5.6529   -0.9756    0.2509 O   0  0  0  0  0  0  0  0  0  0  0  0
    1.9426   -3.4211   -0.6055 O   0  0  0  0  0  0  0  0  0  0  0  0
   -2.7578    1.7699   -0.3833 C   0  0  0  0  0  0  0  0  0  0  0  0
   -3.2786    0.4216    0.1193 C   0  0  0  0  0  0  0  0  0  0  0  0
   -1.3296    2.0286    0.1049 C   0  0  0  0  0  0  0  0  0  0  0  0
   -4.7304    0.1421   -0.2796 C   0  0  0  0  0  0  0  0  0  0  0  0
   -0.8215    3.3948   -0.3663 C   0  0  0  0  0  0  0  0  0  0  0  0
    3.3235   -0.3819    0.5921 C   0  0  0  0  0  0  0  0  0  0  0  0
   -5.2750   -1.1719    0.2848 C   0  0  0  0  0  0  0  0  0  0  0  0
    0.5952    3.7192    0.1193 C   0  0  0  0  0  0  0  0  0  0  0  0
    3.4728    1.0320    0.0591 C   0  0  0  0  0  0  0  0  0  0  0  0
    2.1137   -1.0961    0.0245 C   0  0  0  0  0  0  0  0  0  0  0  0
   -6.7470   -1.3640   -0.0832 C   0  0  0  0  0  0  0  0  0  0  0  0
    1.6290    2.7422   -0.3658 C   0  0  0  0  0  0  0  0  0  0  0  0
    2.4116    2.0224    0.4528 C   0  0  0  0  0  0  0  0  0  0  0  0
    4.4675   -1.2605    0.1792 C   0  0  0  0  0  0  0  0  0  0  0  0
    2.6292   -2.4587   -0.2989 C   0  0  0  0  0  0  0  0  0  0  0  0
   -7.2864   -2.6830    0.4469 C   0  0  0  0  0  0  0  0  0  0  0  0
  1 17  1  0
  1 18  1  0
  2 17  2  0
  3 18  2  0
  4  5  1  0
  4  6  1  0
  5  7  1  0
  6  8  1  0
  7 10  1  0
  8 11  1  0
  9 12  1  0
  9 13  1  0
  9 17  1  0
 10 14  1  0
 11 15  1  0
 12 16  1  0
 13 18  1  0
 14 19  1  0
 15 16  2  0
M  END
>  <PUBCHEM_COMPOUND_CID>  (1) 
29772

>  <PUBCHEM_CONFORMER_RMSD>  (1) 
1.4

>  <PUBCHEM_CONFORMER_DIVERSEORDER>  (1) 
1
3
48
25
45
14
30
31
22
54
11
42
12
39
15
20
28
53
55
44
51
2
49
7
6
52
19
8
47
59
38
60
63
26
33
27
57
5
58
23
18
24
36
4
32
34
17
21
43
16
35
56
29
62
41
13
10
46
61
9
40
50
37

>  <PUBCHEM_MMFF94_PARTIAL_CHARGES>  (1) 
13
1 -0.3
11 0.14
12 0.14
13 0.06
15 -0.29
16 -0.29
17 0.66
18 0.66
2 -0.57
3 -0.57
41 0.15
42 0.15
9 0.06

>  <PUBCHEM_EFFECTIVE_ROTOR_COUNT>  (1) 
10.6

>  <PUBCHEM_PHARMACOPHORE_FEATURES>  (1) 
4
1 19 hydrophobe
1 2 acceptor
1 3 acceptor
5 1 9 13 17 18 rings

>  <PUBCHEM_HEAVY_ATOM_COUNT>  (1) 
19

>  <PUBCHEM_ATOM_DEF_STEREO_COUNT>  (1) 
0

>  <PUBCHEM_ATOM_UDEF_STEREO_COUNT>  (1) 
1

>  <PUBCHEM_BOND_DEF_STEREO_COUNT>  (1) 
0

>  <PUBCHEM_BOND_UDEF_STEREO_COUNT>  (1) 
1

>  <PUBCHEM_ISOTOPIC_ATOM_COUNT>  (1) 
0

>  <PUBCHEM_COMPONENT_COUNT>  (1) 
1

>  <PUBCHEM_CACTVS_TAUTO_COUNT>  (1) 
4

>  <PUBCHEM_CONFORMER_ID>  (1) 
0000744C00000001

>  <PUBCHEM_MMFF94_ENERGY>  (1) 
2.6436

>  <PUBCHEM_FEATURE_SELFOVERLAP>  (1) 
20.297

>  <PUBCHEM_SHAPE_FINGERPRINT>  (1) 
10049733 162 15458760903121066879
11197282 1 18409450284843286339
12107183 9 18269849631941024753
13533116 47 18268995465771578137
1361 2 18339079423178121907
13911852 28 18411134745436695949
13911882 115 17915456091799682318
13955234 65 17983011451820916993
13989917 61 18193841664038313923
14251740 57 18413389860558763489
14429380 30 18336546014932613778
14863182 85 18336828714312945180
15003188 105 18186515488706411050
15352361 1 18338233769486435809
17859628 70 18339360897912596457
20165401 70 18196653119924194055
20645477 70 18188484808758843529
21197605 99 18340486784870980370
221490 88 17765993901468870910
23379529 103 17406840575402307494
3421961 26 18411979204310309169
46194498 28 17604424232005033901
5047190 2 17985537000107429575
5283384 97 18269544096219223007
5309563 4 18411136922489242765
6327066 14 9260385992013227196

>  <PUBCHEM_SHAPE_MULTIPOLES>  (1) 
373.4
15.45
4.89
0.7
27.54
1.51
-0.01
-16.31
-1.55
-1.9
0.52
0.01
-0.01
0.89

>  <PUBCHEM_SHAPE_SELFOVERLAP>  (1) 
722.492

>  <PUBCHEM_SHAPE_VOLUME>  (1) 
227.8

>  <PUBCHEM_COORDINATE_TYPE>  (1) 
2
5
10

$$$$
