2978
     RDKit          3D

 23 25  0  0  1  0  0  0  0  0999 V2000
    0.7125    1.9932    0.4217 O   0  0  0  0  0  0  0  0  0  0  0  0
    0.4999   -2.5774   -1.2522 O   0  0  0  0  0  0  0  0  0  0  0  0
    2.8868    1.0506   -0.2762 C   0  0  0  0  0  0  0  0  0  0  0  0
    2.2030   -0.2154   -0.8592 C   0  0  0  0  0  0  0  0  0  0  0  0
    1.9110    2.2586   -0.3264 C   0  0  0  0  0  0  0  0  0  0  0  0
    3.4223    0.7532    1.1432 C   0  0  0  0  0  0  0  0  0  0  0  0
    0.7658   -0.3235   -0.3746 C   0  0  0  0  0  0  0  0  0  0  0  0
    4.4276   -0.4001    1.1446 C   0  0  0  0  0  0  0  0  0  0  0  0
    3.0204   -1.4637   -0.6107 C   0  0  0  0  0  0  0  0  0  0  0  0
    4.0275   -1.5555    0.2729 C   0  0  0  0  0  0  0  0  0  0  0  0
    0.1265    0.7702    0.2280 C   0  0  0  0  0  0  0  0  0  0  0  0
    2.5304    3.5117    0.3189 C   0  0  0  0  0  0  0  0  0  0  0  0
    1.5295    2.6418   -1.7720 C   0  0  0  0  0  0  0  0  0  0  0  0
    0.0189   -1.4990   -0.5687 C   0  0  0  0  0  0  0  0  0  0  0  0
   -1.1909    0.6644    0.6889 C   0  0  0  0  0  0  0  0  0  0  0  0
    4.8294   -2.8134    0.4338 C   0  0  0  0  0  0  0  0  0  0  0  0
   -1.9024   -0.5194    0.5162 C   0  0  0  0  0  0  0  0  0  0  0  0
   -1.3004   -1.5983   -0.1215 C   0  0  0  0  0  0  0  0  0  0  0  0
   -3.3095   -0.6242    0.9976 C   0  0  0  0  0  0  0  0  0  0  0  0
   -4.3688   -0.1936   -0.0338 C   0  0  0  0  0  0  0  0  0  0  0  0
   -5.7957   -0.2528    0.5205 C   0  0  0  0  0  0  0  0  0  0  0  0
   -6.8144    0.2061   -0.5235 C   0  0  0  0  0  0  0  0  0  0  0  0
   -8.2293    0.1866    0.0328 C   0  0  0  0  0  0  0  0  0  0  0  0
  1  5  1  0
  1 11  1  0
  2 14  1  0
  3  4  1  0
  3  5  1  0
  3  6  1  0
  4  7  1  0
  4  9  1  0
  5 12  1  0
  5 13  1  0
  6  8  1  0
  7 11  2  0
  7 14  1  0
  8 10  1  0
  9 10  2  0
 10 16  1  0
 11 15  1  0
 14 18  2  0
 15 17  2  0
 17 18  1  0
 17 19  1  0
 19 20  1  0
 20 21  1  0
 21 22  1  0
 22 23  1  0
M  END
>  <PUBCHEM_COMPOUND_CID>  (1) 
2978

>  <PUBCHEM_CONFORMER_RMSD>  (1) 
0.8

>  <PUBCHEM_CONFORMER_DIVERSEORDER>  (1) 
10
29
3
12
23
35
24
14
33
34
18
22
7
2
32
30
11
20
36
15
21
8
19
27
5
13
16
9
17
26
4
25
28
31
6
1

>  <PUBCHEM_MMFF94_PARTIAL_CHARGES>  (1) 
19
1 -0.36
10 -0.28
11 0.08
14 0.08
15 -0.15
16 0.14
17 -0.14
18 -0.15
19 0.14
2 -0.53
30 0.15
37 0.15
4 0.28
41 0.15
46 0.45
5 0.28
7 -0.14
8 0.14
9 -0.29

>  <PUBCHEM_EFFECTIVE_ROTOR_COUNT>  (1) 
4.8

>  <PUBCHEM_PHARMACOPHORE_FEATURES>  (1) 
8
1 1 acceptor
1 2 donor
1 23 hydrophobe
3 5 12 13 hydrophobe
4 19 20 21 22 hydrophobe
6 1 3 4 5 7 11 rings
6 3 4 6 8 9 10 rings
6 7 11 14 15 17 18 rings

>  <PUBCHEM_HEAVY_ATOM_COUNT>  (1) 
23

>  <PUBCHEM_ATOM_DEF_STEREO_COUNT>  (1) 
0

>  <PUBCHEM_ATOM_UDEF_STEREO_COUNT>  (1) 
2

>  <PUBCHEM_BOND_DEF_STEREO_COUNT>  (1) 
0

>  <PUBCHEM_BOND_UDEF_STEREO_COUNT>  (1) 
0

>  <PUBCHEM_ISOTOPIC_ATOM_COUNT>  (1) 
0

>  <PUBCHEM_COMPONENT_COUNT>  (1) 
1

>  <PUBCHEM_CACTVS_TAUTO_COUNT>  (1) 
9

>  <PUBCHEM_CONFORMER_ID>  (1) 
00000BA20000000A

>  <PUBCHEM_MMFF94_ENERGY>  (1) 
54.9205

>  <PUBCHEM_FEATURE_SELFOVERLAP>  (1) 
40.678

>  <PUBCHEM_SHAPE_FINGERPRINT>  (1) 
10411042 1 18195529186695284238
11135609 127 18201429316741034761
11405975 8 18261118517045936355
11545043 162 17095818689211543355
11719270 70 18202281390844364655
11796584 16 17095251323277920115
11954058 11 15338013953295836996
12011746 2 18342749520135124854
12166972 35 18273214171047703593
12236239 1 17346880036274142271
12403260 363 18342460318406994041
12507560 14 18343582923931222714
12616971 3 18272930549188685991
13140716 1 18339926046683168354
13167372 99 18271250431129115417
13533116 47 18342454846175352593
13583140 156 18042698371439986499
13782708 43 17968109663697994883
13836976 161 18202567285204753367
13878862 14 18263346123256381765
14170010 4 18411979157249570603
14790565 3 17470735871620080500
15183329 4 18060427919919753401
16728300 4 17609193685723771882
16945 1 18269827761608330548
17349148 13 18202567263371123051
1813 80 17895195468370302334
18222031 100 18270973353528892238
192875 21 18272094885337710129
20028762 73 17988924431812302431
20157964 124 18341332271137478185
20715895 44 18341894087267038649
21267235 1 18340208484365672794
21304304 249 18342458089208678238
21315763 129 18409730626286065597
21859007 373 17823114784367269229
22149856 69 16916245359606386067
23184049 59 18342738507570257618
23559900 14 17822018639571443851
2748010 2 17910410385125556758
335352 9 18412547612939972878
3886686 26 16458798708888063666
4072396 5 18342170055642417547
42630746 31 18059858355067784911
4325135 7 14189570845411453963
4340502 62 12535626063865830685
465052 167 18335146383769613187
495365 180 18129941307584064793
5104073 3 18337402651098061427
59755656 215 17385720254239272627
633830 44 17677327350795424643
8509985 295 18335420175059951915
8988823 20 17489581281622816273
9999458 23 17894348903866293299

>  <PUBCHEM_SHAPE_MULTIPOLES>  (1) 
461.59
13.59
2.98
1.12
35.26
1.43
0.15
-2.78
-1.72
-4.94
0.54
-0.56
0.17
-0.11

>  <PUBCHEM_SHAPE_SELFOVERLAP>  (1) 
969.062

>  <PUBCHEM_SHAPE_VOLUME>  (1) 
259.3

>  <PUBCHEM_COORDINATE_TYPE>  (1) 
2
5
10

$$$$
