29792
     RDKit          3D

 27 29  0  0  0  0  0  0  0  0999 V2000
    6.1097   -2.3125    0.4716 O   0  0  0  0  0  0  0  0  0  0  0  0
   -6.8732   -0.3181    0.6922 O   0  0  0  0  0  0  0  0  0  0  0  0
   -6.3825   -2.0928   -0.5030 O   0  0  0  0  0  0  0  0  0  0  0  0
    3.3511   -2.1322   -0.2062 N   0  0  0  0  0  0  0  0  0  0  0  0
   -0.6103    0.1887    0.1288 N   0  0  0  0  0  0  0  0  0  0  0  0
    1.1037    3.4949    0.3475 N   0  0  0  0  0  0  0  0  0  0  0  0
   -1.2434   -1.6502   -0.9470 N   0  0  0  0  0  0  0  0  0  0  0  0
   -6.0407   -1.0525    0.1084 N   0  0  0  0  0  0  0  0  0  0  0  0
    1.9446   -1.9238    0.1318 C   0  0  0  0  0  0  0  0  0  0  0  0
    1.2427   -1.0797   -0.9338 C   0  0  0  0  0  0  0  0  0  0  0  0
   -0.2046   -0.8406   -0.5805 C   0  0  0  0  0  0  0  0  0  0  0  0
    0.1788    1.2564    0.6938 C   0  0  0  0  0  0  0  0  0  0  0  0
    4.1455   -0.9362    0.1064 C   0  0  0  0  0  0  0  0  0  0  0  0
    3.8924   -3.2969    0.5080 C   0  0  0  0  0  0  0  0  0  0  0  0
    0.3234    2.4302   -0.2704 C   0  0  0  0  0  0  0  0  0  0  0  0
   -1.9747    0.0396    0.2266 C   0  0  0  0  0  0  0  0  0  0  0  0
    5.6104   -1.1818   -0.2437 C   0  0  0  0  0  0  0  0  0  0  0  0
    5.3635   -3.4868    0.1494 C   0  0  0  0  0  0  0  0  0  0  0  0
   -2.3963   -1.1071   -0.4408 C   0  0  0  0  0  0  0  0  0  0  0  0
    2.5309    3.1692    0.3238 C   0  0  0  0  0  0  0  0  0  0  0  0
    0.8634    4.7706   -0.3300 C   0  0  0  0  0  0  0  0  0  0  0  0
   -2.9276    0.8460    0.8714 C   0  0  0  0  0  0  0  0  0  0  0  0
   -3.7310   -1.5083   -0.5071 C   0  0  0  0  0  0  0  0  0  0  0  0
   -4.6659   -0.6940    0.1405 C   0  0  0  0  0  0  0  0  0  0  0  0
   -4.2736    0.4628    0.8181 C   0  0  0  0  0  0  0  0  0  0  0  0
    3.3501    4.2399    1.0242 C   0  0  0  0  0  0  0  0  0  0  0  0
    1.3135    4.7153   -1.7801 C   0  0  0  0  0  0  0  0  0  0  0  0
  1 17  1  0
  1 18  1  0
  2  8  1  0
  3  8  2  0
  4  9  1  0
  4 13  1  0
  4 14  1  0
  5 11  1  0
  5 12  1  0
  5 16  1  0
  6 15  1  0
  6 20  1  0
  6 21  1  0
  7 11  2  0
  7 19  1  0
  8 24  1  0
  9 10  1  0
 10 11  1  0
 12 15  1  0
 13 17  1  0
 14 18  1  0
 16 19  2  0
 16 22  1  0
 19 23  1  0
 20 26  1  0
 21 27  1  0
 22 25  2  0
 23 24  2  0
 24 25  1  0
M  CHG  2   2  -1   8   1
M  END
>  <PUBCHEM_COMPOUND_CID>  (1) 
29792

>  <PUBCHEM_CONFORMER_RMSD>  (1) 
1

>  <PUBCHEM_CONFORMER_DIVERSEORDER>  (1) 
2
40
53
26
34
35
48
63
5
21
46
39
58
29
31
20
37
32
36
61
22
13
45
62
55
49
14
56
1
59
60
17
51
30
52
15
42
9
27
33
23
28
8
54
16
3
47
50
44
12
38
57
11
43
25
4
41
10
18
7
19
24
6

>  <PUBCHEM_MMFF94_PARTIAL_CHARGES>  (1) 
28
1 -0.56
10 0.18
11 0.01
12 0.26
13 0.27
14 0.27
15 0.27
16 -0.15
17 0.28
18 0.28
19 0.23
2 -0.52
20 0.27
21 0.27
22 -0.15
23 -0.15
24 0.13
25 -0.15
3 -0.52
4 -0.81
48 0.15
49 0.15
5 0.05
50 0.15
6 -0.81
7 -0.57
8 0.91
9 0.27

>  <PUBCHEM_EFFECTIVE_ROTOR_COUNT>  (1) 
10.2

>  <PUBCHEM_PHARMACOPHORE_FEATURES>  (1) 
10
1 1 acceptor
1 2 acceptor
1 2 anion
1 3 acceptor
1 4 cation
1 6 cation
3 5 7 11 cation
5 5 7 11 16 19 rings
6 1 4 13 14 17 18 rings
6 16 19 22 23 24 25 rings

>  <PUBCHEM_HEAVY_ATOM_COUNT>  (1) 
27

>  <PUBCHEM_ATOM_DEF_STEREO_COUNT>  (1) 
0

>  <PUBCHEM_ATOM_UDEF_STEREO_COUNT>  (1) 
0

>  <PUBCHEM_BOND_DEF_STEREO_COUNT>  (1) 
0

>  <PUBCHEM_BOND_UDEF_STEREO_COUNT>  (1) 
0

>  <PUBCHEM_ISOTOPIC_ATOM_COUNT>  (1) 
0

>  <PUBCHEM_COMPONENT_COUNT>  (1) 
1

>  <PUBCHEM_CACTVS_TAUTO_COUNT>  (1) 
2

>  <PUBCHEM_CONFORMER_ID>  (1) 
0000746000000002

>  <PUBCHEM_MMFF94_ENERGY>  (1) 
53.6627

>  <PUBCHEM_FEATURE_SELFOVERLAP>  (1) 
50.935

>  <PUBCHEM_SHAPE_FINGERPRINT>  (1) 
10050765 1 18196090161248761415
10411042 1 18338797806409415922
10688039 33 18335984147790537580
11045515 52 18262798454585284156
11445158 3 18412260675149945399
11763715 3 18048621243268945326
11963148 33 17622718040050345895
12107183 9 18270973323865165257
12236239 1 18335987462841366479
12516196 113 18409166571756286170
12788726 201 17900540082302091098
13533116 47 18338518641897964979
13540713 5 17915737777293568399
13590594 115 18336553711883344961
13785724 45 18342182120257981094
138480 1 18411697708285679048
14849402 71 18337400443010090681
15042514 8 18123471570585927134
15347591 1 18338517573590993783
15439362 3 18264488566828862049
15775530 1 17754194281175270651
15927050 60 17910111653271171470
167882 2 18265900339853514669
17980427 23 17917434164504639493
1813 80 18270411498623170606
18785283 64 18191021403078352628
20600515 1 17771918133700104568
21049683 271 18334303088784924564
21304253 13 18270681965535482385
21360443 120 18121502616456086292
23366157 5 18264774431345889397
23559900 14 18409444830414162267
25147074 1 17773874380351610479
283562 15 17971194720951692554
4015057 19 18334017220061970811
4409770 3 17686053899185352149
474 4 18121220050346432449
5104073 3 18270416000682827171
5385378 56 18268430316072364193
67856867 119 18270964647946369335
9981440 41 17617657000188888593

>  <PUBCHEM_SHAPE_MULTIPOLES>  (1) 
513.13
13.35
6.16
0.99
9.68
9.27
0.17
-14.68
-2.12
-9.64
0.74
-0.02
0.68
-0.63

>  <PUBCHEM_SHAPE_SELFOVERLAP>  (1) 
1068.423

>  <PUBCHEM_SHAPE_VOLUME>  (1) 
294.3

>  <PUBCHEM_COORDINATE_TYPE>  (1) 
2
5
10

$$$$
