29794
     RDKit          3D

 26 28  0  0  0  0  0  0  0  0999 V2000
    6.6676   -0.1600   -0.6496 O   0  0  0  0  0  0  0  0  0  0  0  0
    6.3232    1.6530    0.5394 O   0  0  0  0  0  0  0  0  0  0  0  0
   -3.3471    2.5844    0.1739 N   0  0  0  0  0  0  0  0  0  0  0  0
    0.3787   -0.1102   -0.1527 N   0  0  0  0  0  0  0  0  0  0  0  0
    1.1608    1.6658    0.9307 N   0  0  0  0  0  0  0  0  0  0  0  0
   -1.6589   -3.2273   -0.3732 N   0  0  0  0  0  0  0  0  0  0  0  0
    5.8971    0.6462   -0.0755 N   0  0  0  0  0  0  0  0  0  0  0  0
   -4.2389    1.4262    0.2234 C   0  0  0  0  0  0  0  0  0  0  0  0
   -3.9509    3.4869   -0.8060 C   0  0  0  0  0  0  0  0  0  0  0  0
   -5.6217    2.0608    0.2099 C   0  0  0  0  0  0  0  0  0  0  0  0
   -5.4331    3.4135   -0.4698 C   0  0  0  0  0  0  0  0  0  0  0  0
   -1.9818    2.2198   -0.1739 C   0  0  0  0  0  0  0  0  0  0  0  0
   -1.3655    1.3149    0.8949 C   0  0  0  0  0  0  0  0  0  0  0  0
    0.0583    0.9510    0.5530 C   0  0  0  0  0  0  0  0  0  0  0  0
   -0.4957   -1.1041   -0.7269 C   0  0  0  0  0  0  0  0  0  0  0  0
    1.7519   -0.0820   -0.2367 C   0  0  0  0  0  0  0  0  0  0  0  0
   -0.7528   -2.2608    0.2345 C   0  0  0  0  0  0  0  0  0  0  0  0
    2.2663    1.0232    0.4354 C   0  0  0  0  0  0  0  0  0  0  0  0
    2.6363   -0.9693   -0.8729 C   0  0  0  0  0  0  0  0  0  0  0  0
   -3.0462   -2.7711   -0.2676 C   0  0  0  0  0  0  0  0  0  0  0  0
   -1.5081   -4.5416    0.2541 C   0  0  0  0  0  0  0  0  0  0  0  0
    3.6303    1.3053    0.5152 C   0  0  0  0  0  0  0  0  0  0  0  0
    4.4964    0.4116   -0.1237 C   0  0  0  0  0  0  0  0  0  0  0  0
    4.0103   -0.7061   -0.8060 C   0  0  0  0  0  0  0  0  0  0  0  0
   -3.9956   -3.7371   -0.9561 C   0  0  0  0  0  0  0  0  0  0  0  0
   -1.8808   -4.4933    1.7262 C   0  0  0  0  0  0  0  0  0  0  0  0
  1  7  1  0
  2  7  2  0
  3  8  1  0
  3  9  1  0
  3 12  1  0
  4 14  1  0
  4 15  1  0
  4 16  1  0
  5 14  2  0
  5 18  1  0
  6 17  1  0
  6 20  1  0
  6 21  1  0
  7 23  1  0
  8 10  1  0
  9 11  1  0
 10 11  1  0
 12 13  1  0
 13 14  1  0
 15 17  1  0
 16 18  2  0
 16 19  1  0
 18 22  1  0
 19 24  2  0
 20 25  1  0
 21 26  1  0
 22 23  2  0
 23 24  1  0
M  CHG  2   1  -1   7   1
M  END
>  <PUBCHEM_COMPOUND_CID>  (1) 
29794

>  <PUBCHEM_CONFORMER_RMSD>  (1) 
1

>  <PUBCHEM_CONFORMER_DIVERSEORDER>  (1) 
1
13
45
47
14
8
39
15
29
10
28
38
27
23
25
26
33
44
41
42
22
24
46
9
7
20
34
5
32
16
40
43
31
35
37
19
3
18
12
48
2
4
30
11
6
21
36
17

>  <PUBCHEM_MMFF94_PARTIAL_CHARGES>  (1) 
25
1 -0.52
12 0.27
13 0.18
14 0.01
15 0.26
16 -0.15
17 0.27
18 0.23
19 -0.15
2 -0.52
20 0.27
21 0.27
22 -0.15
23 0.13
24 -0.15
3 -0.81
4 0.05
43 0.15
48 0.15
49 0.15
5 -0.57
6 -0.81
7 0.91
8 0.27
9 0.27

>  <PUBCHEM_EFFECTIVE_ROTOR_COUNT>  (1) 
10

>  <PUBCHEM_PHARMACOPHORE_FEATURES>  (1) 
9
1 1 acceptor
1 1 anion
1 2 acceptor
1 3 cation
1 6 cation
3 4 5 14 cation
5 3 8 9 10 11 rings
5 4 5 14 16 18 rings
6 16 18 19 22 23 24 rings

>  <PUBCHEM_HEAVY_ATOM_COUNT>  (1) 
26

>  <PUBCHEM_ATOM_DEF_STEREO_COUNT>  (1) 
0

>  <PUBCHEM_ATOM_UDEF_STEREO_COUNT>  (1) 
0

>  <PUBCHEM_BOND_DEF_STEREO_COUNT>  (1) 
0

>  <PUBCHEM_BOND_UDEF_STEREO_COUNT>  (1) 
0

>  <PUBCHEM_ISOTOPIC_ATOM_COUNT>  (1) 
0

>  <PUBCHEM_COMPONENT_COUNT>  (1) 
1

>  <PUBCHEM_CACTVS_TAUTO_COUNT>  (1) 
2

>  <PUBCHEM_CONFORMER_ID>  (1) 
0000746200000001

>  <PUBCHEM_MMFF94_ENERGY>  (1) 
49.3357

>  <PUBCHEM_FEATURE_SELFOVERLAP>  (1) 
45.86

>  <PUBCHEM_SHAPE_FINGERPRINT>  (1) 
10050765 1 18339078324136297560
10411042 1 17907014329142762087
10688039 33 18122627425045298003
107951 10 18340767053225313679
1100329 8 18050282574757285395
11578080 2 16126943400194956163
11991303 11 18334303054003037135
12293681 160 17916580930143273769
12293681 25 17416711088441398502
12730499 353 18121789327203574801
12788726 201 18264476446584095043
13052359 8 18410298016560346835
13540713 4 17987795345545777264
138480 1 17114662914025844391
14790565 3 18123753054290040729
14866123 147 18410290315600160915
15463212 79 18261386711735600699
15629462 23 16773249382990911000
15927050 60 18339640036363937615
16993438 75 18272364321579573967
18681886 176 18334012774576387361
19301676 85 17694240871920963590
19427546 20 18265342870800609348
20197701 30 18263929843312430071
20567600 347 18116440228687308139
21033648 29 18339914927071504736
21049683 118 18194937726173452881
21236236 1 18271806860546402831
21279426 13 18271251508279677038
21307412 95 17986133828904618126
21360443 126 18410570686980961317
21521721 280 18270968934118600585
23558518 356 18044377360039702504
23559900 14 18130230346805019310
3103668 31 18264196072041821207
3759504 43 18409730633968625932
4058900 60 18123477076971955737
4073 2 18411136970472127546
4409770 3 18409728504356014987
5104073 3 18130786794383540466
5171179 24 17700401752949500665
5283173 99 18341328972096251078
552612 73 18057601177718182032
59025328 239 16694389381448619239
59755656 520 18335416829290900230
6669772 16 18198626536092714598
77188 2 17616536602520429263

>  <PUBCHEM_SHAPE_MULTIPOLES>  (1) 
498.42
12.76
5.88
1
12.56
7.1
-0.14
-10.7
1.75
-11.31
-0.56
-0.17
0.53
0.9

>  <PUBCHEM_SHAPE_SELFOVERLAP>  (1) 
1041.007

>  <PUBCHEM_SHAPE_VOLUME>  (1) 
287.4

>  <PUBCHEM_COORDINATE_TYPE>  (1) 
2
5
10

$$$$
