29796
     RDKit          3D

 26 28  0  0  0  0  0  0  0  0999 V2000
   -6.3310   -1.7324    0.4300 O   0  0  0  0  0  0  0  0  0  0  0  0
    6.6967   -0.6142    0.6065 O   0  0  0  0  0  0  0  0  0  0  0  0
    6.0681   -2.3153   -0.6304 O   0  0  0  0  0  0  0  0  0  0  0  0
   -3.5590   -1.9849   -0.1643 N   0  0  0  0  0  0  0  0  0  0  0  0
    0.4930    0.1824    0.1838 N   0  0  0  0  0  0  0  0  0  0  0  0
    0.9723   -1.6547   -0.9716 N   0  0  0  0  0  0  0  0  0  0  0  0
   -1.3757    4.6910   -0.4166 N   0  0  0  0  0  0  0  0  0  0  0  0
    5.8065   -1.2775    0.0231 N   0  0  0  0  0  0  0  0  0  0  0  0
   -2.1437   -1.8290    0.1651 C   0  0  0  0  0  0  0  0  0  0  0  0
   -1.4228   -0.9901   -0.8919 C   0  0  0  0  0  0  0  0  0  0  0  0
    0.0442   -0.8437   -0.5712 C   0  0  0  0  0  0  0  0  0  0  0  0
   -4.2233   -2.8760    0.7970 C   0  0  0  0  0  0  0  0  0  0  0  0
   -4.2350   -0.6804   -0.1919 C   0  0  0  0  0  0  0  0  0  0  0  0
   -0.2887    1.2452    0.7744 C   0  0  0  0  0  0  0  0  0  0  0  0
    1.8516    0.0284    0.2882 C   0  0  0  0  0  0  0  0  0  0  0  0
   -0.4217    2.4485   -0.1586 C   0  0  0  0  0  0  0  0  0  0  0  0
   -5.7005   -3.0137    0.4398 C   0  0  0  0  0  0  0  0  0  0  0  0
   -5.7123   -0.8693   -0.5248 C   0  0  0  0  0  0  0  0  0  0  0  0
    2.1262   -1.1251   -0.4412 C   0  0  0  0  0  0  0  0  0  0  0  0
   -1.2409    3.5600    0.4937 C   0  0  0  0  0  0  0  0  0  0  0  0
    2.8338    0.7763    0.9382 C   0  0  0  0  0  0  0  0  0  0  0  0
    3.4542   -1.5739   -0.5386 C   0  0  0  0  0  0  0  0  0  0  0  0
    4.4570   -0.8389    0.1060 C   0  0  0  0  0  0  0  0  0  0  0  0
    4.1501    0.3151    0.8308 C   0  0  0  0  0  0  0  0  0  0  0  0
   -0.0625    5.2507   -0.7414 C   0  0  0  0  0  0  0  0  0  0  0  0
   -2.2368    5.7219    0.1658 C   0  0  0  0  0  0  0  0  0  0  0  0
  1 17  1  0
  1 18  1  0
  2  8  1  0
  3  8  2  0
  4  9  1  0
  4 12  1  0
  4 13  1  0
  5 11  1  0
  5 14  1  0
  5 15  1  0
  6 11  2  0
  6 19  1  0
  7 20  1  0
  7 25  1  0
  7 26  1  0
  8 23  1  0
  9 10  1  0
 10 11  1  0
 12 17  1  0
 13 18  1  0
 14 16  1  0
 15 19  2  0
 15 21  1  0
 16 20  1  0
 19 22  1  0
 21 24  2  0
 22 23  2  0
 23 24  1  0
M  CHG  2   2  -1   8   1
M  END
>  <PUBCHEM_COMPOUND_CID>  (1) 
29796

>  <PUBCHEM_CONFORMER_RMSD>  (1) 
1

>  <PUBCHEM_CONFORMER_DIVERSEORDER>  (1) 
1
32
17
16
26
36
7
27
14
39
29
8
35
13
21
4
18
28
25
12
2
11
23
40
20
6
24
30
33
19
15
9
34
31
3
5
38
10
37
22

>  <PUBCHEM_MMFF94_PARTIAL_CHARGES>  (1) 
28
1 -0.56
10 0.18
11 0.01
12 0.27
13 0.27
14 0.26
15 -0.15
17 0.28
18 0.28
19 0.23
2 -0.52
20 0.27
21 -0.15
22 -0.15
23 0.13
24 -0.15
25 0.27
26 0.27
3 -0.52
4 -0.81
45 0.15
46 0.15
47 0.15
5 0.05
6 -0.57
7 -0.81
8 0.91
9 0.27

>  <PUBCHEM_EFFECTIVE_ROTOR_COUNT>  (1) 
9.2

>  <PUBCHEM_PHARMACOPHORE_FEATURES>  (1) 
10
1 1 acceptor
1 2 acceptor
1 2 anion
1 3 acceptor
1 4 cation
1 7 cation
3 5 6 11 cation
5 5 6 11 15 19 rings
6 1 4 12 13 17 18 rings
6 15 19 21 22 23 24 rings

>  <PUBCHEM_HEAVY_ATOM_COUNT>  (1) 
26

>  <PUBCHEM_ATOM_DEF_STEREO_COUNT>  (1) 
0

>  <PUBCHEM_ATOM_UDEF_STEREO_COUNT>  (1) 
0

>  <PUBCHEM_BOND_DEF_STEREO_COUNT>  (1) 
0

>  <PUBCHEM_BOND_UDEF_STEREO_COUNT>  (1) 
0

>  <PUBCHEM_ISOTOPIC_ATOM_COUNT>  (1) 
0

>  <PUBCHEM_COMPONENT_COUNT>  (1) 
1

>  <PUBCHEM_CACTVS_TAUTO_COUNT>  (1) 
2

>  <PUBCHEM_CONFORMER_ID>  (1) 
0000746400000001

>  <PUBCHEM_MMFF94_ENERGY>  (1) 
51.1308

>  <PUBCHEM_FEATURE_SELFOVERLAP>  (1) 
50.938

>  <PUBCHEM_SHAPE_FINGERPRINT>  (1) 
10050765 1 18122344584923420230
10411042 1 18410294748053298215
10688039 33 18411982472626765040
12166972 35 17895478123814498231
12516196 113 18337672013576341747
12788726 201 18261385603222777187
13540713 4 17915741964891937198
13590594 115 18409175432896037665
138480 1 15312098133722967245
14028597 1 17822280241491851306
14790565 3 16825310524295657336
14955137 171 18337954614023972471
15042514 8 18411702049938511121
15081414 286 18267297832117702617
15198563 99 18338235968494199309
15347591 1 18266741278415102846
15927050 60 17761214310626014322
16087824 20 18266459816223333613
16090146 7 17023202500196381986
18785283 64 17904479958950465577
19301676 85 16543565548746108942
20238998 120 18413106186606965225
20739085 24 18198908200010542848
21033648 29 17703216400075391611
21267235 1 18202286884471494070
21641784 216 18338815467304648124
23558518 356 18118131259811092554
23559900 14 18192989551327315955
23845131 108 17761771763343108613
24180151 248 18270413788674780476
283562 15 18261672588906538674
3103668 31 18262514785323956013
350125 39 18273494577078736656
3886686 26 17400332587425861434
4409770 3 18262794039691460285
5104073 3 18058441025072863674
59755656 520 17903636281075793580
6086070 43 18118376623689508151
6442390 28 17617100209108377725
77188 2 18337956808689320813
9777508 108 18124030126951815841

>  <PUBCHEM_SHAPE_MULTIPOLES>  (1) 
492.55
13.28
6.37
0.9
2.36
15.62
0.01
-16.57
1.52
-6.26
-0.54
0.11
-0.03
1.07

>  <PUBCHEM_SHAPE_SELFOVERLAP>  (1) 
1029.509

>  <PUBCHEM_SHAPE_VOLUME>  (1) 
282.4

>  <PUBCHEM_COORDINATE_TYPE>  (1) 
2
5
10

$$$$
