29808
     RDKit          3D

 23 25  0  0  1  0  0  0  0  0999 V2000
    3.2130   -0.3097    0.0874 N   0  0  0  0  0  0  0  0  0  0  0  0
   -1.3484   -0.1074   -0.4615 N   0  0  0  0  0  0  0  0  0  0  0  0
   -0.9803   -2.2602   -0.0486 N   0  0  0  0  0  0  0  0  0  0  0  0
   -0.9869    3.5872    0.0436 N   0  0  0  0  0  0  0  0  0  0  0  0
    3.9879    0.1058    1.2650 C   0  0  0  0  0  0  0  0  0  0  0  0
    3.7843   -1.5171   -0.5255 C   0  0  0  0  0  0  0  0  0  0  0  0
    1.8133   -0.5326    0.4487 C   0  0  0  0  0  0  0  0  0  0  0  0
    5.4443    0.3907    0.8947 C   0  0  0  0  0  0  0  0  0  0  0  0
    5.2341   -1.2851   -0.9546 C   0  0  0  0  0  0  0  0  0  0  0  0
    6.0893   -0.8120    0.2153 C   0  0  0  0  0  0  0  0  0  0  0  0
    0.9843   -0.9196   -0.7776 C   0  0  0  0  0  0  0  0  0  0  0  0
   -1.0852    1.2652   -0.8311 C   0  0  0  0  0  0  0  0  0  0  0  0
   -0.4658   -1.1290   -0.4172 C   0  0  0  0  0  0  0  0  0  0  0  0
   -2.5627   -0.6204   -0.0838 C   0  0  0  0  0  0  0  0  0  0  0  0
   -1.3525    2.2093    0.3561 C   0  0  0  0  0  0  0  0  0  0  0  0
   -2.3067   -1.9654    0.1685 C   0  0  0  0  0  0  0  0  0  0  0  0
   -1.8493    1.6592   -2.1009 C   0  0  0  0  0  0  0  0  0  0  0  0
   -3.8246   -0.0413    0.0546 C   0  0  0  0  0  0  0  0  0  0  0  0
   -3.3604   -2.7968    0.5843 C   0  0  0  0  0  0  0  0  0  0  0  0
   -4.8616   -0.8833    0.4695 C   0  0  0  0  0  0  0  0  0  0  0  0
    0.4666    3.7148   -0.2420 C   0  0  0  0  0  0  0  0  0  0  0  0
   -1.3969    4.4846    1.1249 C   0  0  0  0  0  0  0  0  0  0  0  0
   -4.6358   -2.2368    0.7301 C   0  0  0  0  0  0  0  0  0  0  0  0
  1  5  1  0
  1  6  1  0
  1  7  1  0
  2 12  1  0
  2 13  1  0
  2 14  1  0
  3 13  2  0
  3 16  1  0
  4 15  1  0
  4 21  1  0
  4 22  1  0
  5  8  1  0
  6  9  1  0
  7 11  1  0
  8 10  1  0
  9 10  1  0
 11 13  1  0
 12 15  1  0
 12 17  1  0
 14 16  2  0
 14 18  1  0
 16 19  1  0
 18 20  2  0
 19 23  2  0
 20 23  1  0
M  END
>  <PUBCHEM_COMPOUND_CID>  (1) 
29808

>  <PUBCHEM_CONFORMER_RMSD>  (1) 
0.8

>  <PUBCHEM_CONFORMER_DIVERSEORDER>  (1) 
1
52
18
22
26
74
86
25
34
13
62
60
57
21
92
17
40
9
71
72
96
10
67
56
16
31
54
41
15
5
82
37
51
75
76
88
32
64
35
39
14
48
63
79
29
38
19
46
49
87
69
61
42
93
73
53
6
90
36
27
81
23
85
12
4
45
91
66
47
80
95
8
2
97
43
84
3
65
78
7
70
77
20
11
68
55
44
30
94
58
33
50
28
89
24
59
83

>  <PUBCHEM_MMFF94_PARTIAL_CHARGES>  (1) 
23
1 -0.81
11 0.18
12 0.26
13 0.01
14 -0.15
15 0.27
16 0.23
18 -0.15
19 -0.15
2 0.05
20 -0.15
21 0.27
22 0.27
23 -0.15
3 -0.57
4 -0.81
44 0.15
45 0.15
46 0.15
5 0.27
53 0.15
6 0.27
7 0.27

>  <PUBCHEM_EFFECTIVE_ROTOR_COUNT>  (1) 
7.2

>  <PUBCHEM_PHARMACOPHORE_FEATURES>  (1) 
6
1 1 cation
1 4 cation
3 2 3 13 cation
5 2 3 13 14 16 rings
6 1 5 6 8 9 10 rings
6 14 16 18 19 20 23 rings

>  <PUBCHEM_HEAVY_ATOM_COUNT>  (1) 
23

>  <PUBCHEM_ATOM_DEF_STEREO_COUNT>  (1) 
0

>  <PUBCHEM_ATOM_UDEF_STEREO_COUNT>  (1) 
1

>  <PUBCHEM_BOND_DEF_STEREO_COUNT>  (1) 
0

>  <PUBCHEM_BOND_UDEF_STEREO_COUNT>  (1) 
0

>  <PUBCHEM_ISOTOPIC_ATOM_COUNT>  (1) 
0

>  <PUBCHEM_COMPONENT_COUNT>  (1) 
1

>  <PUBCHEM_CACTVS_TAUTO_COUNT>  (1) 
2

>  <PUBCHEM_CONFORMER_ID>  (1) 
0000747000000001

>  <PUBCHEM_MMFF94_ENERGY>  (1) 
37.6861

>  <PUBCHEM_FEATURE_SELFOVERLAP>  (1) 
30.558

>  <PUBCHEM_SHAPE_FINGERPRINT>  (1) 
10006869 2 18050280376476808531
10319926 262 18196360443603898698
10670039 82 18337125484258404676
1100329 8 18338807723763637849
11578080 2 13469036631124733059
12107183 9 17542780916169303626
12236239 1 17022623082958454782
12293681 160 18050539891212590237
12516196 113 18411138082178223307
12596602 18 17676201390864424514
12788726 201 18260264114252797738
13140716 1 18337114587050674123
13257819 101 14476416863683645907
13540713 4 17682108117969859451
138480 1 15384439405517855992
14142880 1 18201444615034066113
14713325 29 18268997479583387762
14955137 171 18266191685108332939
15131766 46 16055450942739206304
17844677 252 18408890612366331398
17980427 23 17561096812898115825
1813 80 17677048052823703870
200 152 14923937959885181062
20510252 161 18337948987289597955
20600515 1 18200893871129955127
21033648 29 17846486037406739074
21304253 13 18342462560490731441
22182937 141 18056199068643679864
2297311 6 18409739460633035918
23366157 5 17610343014818592645
23402539 116 18342452664501284295
23557571 272 18410580552520664974
23559900 14 18336824298563558779
23845131 108 17617949032644177153
283562 15 18335983065179542043
314173 85 18411139164314705575
4409770 3 18115013118460658877
469060 322 17894919490287579664
59755656 215 18337954489470505598
621550 34 18131637764032091062
69474 34 18339077206937677465
7399639 24 18201432589273648326
81228 2 18117298977112066255

>  <PUBCHEM_SHAPE_MULTIPOLES>  (1) 
453.41
11.09
4.32
1.17
14.7
6.27
-0.3
-7.84
2.28
-3.94
0.88
0.1
0.46
1.13

>  <PUBCHEM_SHAPE_SELFOVERLAP>  (1) 
942.837

>  <PUBCHEM_SHAPE_VOLUME>  (1) 
257.8

>  <PUBCHEM_COORDINATE_TYPE>  (1) 
2
5
10

$$$$
