29816
     RDKit          3D

 14 15  0  0  0  0  0  0  0  0999 V2000
    3.0625   -1.4428   -0.2864 O   0  0  0  0  0  0  0  0  0  0  0  0
   -3.3730   -0.5380    0.1213 N   0  0  0  0  0  0  0  0  0  0  0  0
   -1.5519    0.2991   -0.5162 C   0  0  0  0  0  0  0  0  0  0  0  0
   -2.1299   -1.1211   -0.4400 C   0  0  0  0  0  0  0  0  0  0  0  0
   -2.5723    0.6216    0.5846 C   0  0  0  0  0  0  0  0  0  0  0  0
   -0.0564    0.4650   -0.1529 C   0  0  0  0  0  0  0  0  0  0  0  0
   -1.7754    1.0172   -1.8317 C   0  0  0  0  0  0  0  0  0  0  0  0
   -3.8329   -1.3237    1.2579 C   0  0  0  0  0  0  0  0  0  0  0  0
    0.8401   -0.5781   -0.3856 C   0  0  0  0  0  0  0  0  0  0  0  0
    0.3948    1.6608    0.4060 C   0  0  0  0  0  0  0  0  0  0  0  0
    2.1877   -0.4253   -0.0594 C   0  0  0  0  0  0  0  0  0  0  0  0
    1.7421    1.8136    0.7322 C   0  0  0  0  0  0  0  0  0  0  0  0
    2.6387    0.7707    0.4994 C   0  0  0  0  0  0  0  0  0  0  0  0
    4.4258   -1.2190    0.0706 C   0  0  0  0  0  0  0  0  0  0  0  0
  1 11  1  0
  1 14  1  0
  2  4  1  0
  2  5  1  0
  2  8  1  0
  3  4  1  0
  3  5  1  0
  3  6  1  0
  3  7  1  0
  6  9  2  0
  6 10  1  0
  9 11  1  0
 10 12  2  0
 11 13  2  0
 12 13  1  0
M  END
>  <PUBCHEM_COMPOUND_CID>  (1) 
29816

>  <PUBCHEM_CONFORMER_RMSD>  (1) 
0.6

>  <PUBCHEM_CONFORMER_DIVERSEORDER>  (1) 
1
11
14
9
7
2
13
6
12
8
5
10
4
3

>  <PUBCHEM_MMFF94_PARTIAL_CHARGES>  (1) 
17
1 -0.36
10 -0.15
11 0.08
12 -0.15
13 -0.15
14 0.28
2 -0.69
25 0.15
26 0.15
27 0.15
28 0.15
3 0.11
4 0.21
5 0.21
6 -0.11
8 0.27
9 -0.15

>  <PUBCHEM_EFFECTIVE_ROTOR_COUNT>  (1) 
2.8

>  <PUBCHEM_PHARMACOPHORE_FEATURES>  (1) 
4
1 1 acceptor
1 2 cation
4 2 3 4 5 rings
6 6 9 10 11 12 13 rings

>  <PUBCHEM_HEAVY_ATOM_COUNT>  (1) 
14

>  <PUBCHEM_ATOM_DEF_STEREO_COUNT>  (1) 
0

>  <PUBCHEM_ATOM_UDEF_STEREO_COUNT>  (1) 
0

>  <PUBCHEM_BOND_DEF_STEREO_COUNT>  (1) 
0

>  <PUBCHEM_BOND_UDEF_STEREO_COUNT>  (1) 
0

>  <PUBCHEM_ISOTOPIC_ATOM_COUNT>  (1) 
0

>  <PUBCHEM_COMPONENT_COUNT>  (1) 
1

>  <PUBCHEM_CACTVS_TAUTO_COUNT>  (1) 
1

>  <PUBCHEM_CONFORMER_ID>  (1) 
0000747800000001

>  <PUBCHEM_MMFF94_ENERGY>  (1) 
54.6445

>  <PUBCHEM_FEATURE_SELFOVERLAP>  (1) 
20.297

>  <PUBCHEM_SHAPE_FINGERPRINT>  (1) 
11471102 22 18342181123551281609
11543360 7 16950575363324250742
12032990 46 18412829053941826230
12251169 10 18060421326147817967
124424 183 18341045216565928325
12932764 1 17749661909456085792
13296908 3 18408878534016208488
14252887 29 17897170332555244561
15219456 202 18409438206909842916
15375462 189 18410572864540001194
15375462 478 17489591147246999857
15501101 241 18338237179663952277
15653759 3 18260263031878587032
16945 1 18199175377057319596
17357990 137 16128108856771654745
17804303 29 18410020926819130815
17841504 4 18272088331101662689
17844478 74 18261109699013873133
19422 9 18335150790342384849
200 152 17774705537916333317
20281407 28 17967253100456417467
20281475 54 18335146444125670679
20339313 130 18059862757477659536
20645477 70 18343007904845568943
20715346 28 18262503879578636077
20871998 22 17916315948209789630
20871999 31 17530964652955551341
21041028 32 18131638859064063760
21061003 4 18343581824023943049
21501502 16 18057882652478140102
22094290 60 17313105215715079350
22445834 79 18130790117728143977
228727 97 14418135097520946661
231179 274 10592044648498386362
23557571 272 17531515572663982764
23559900 14 18119798128925528130
2748010 2 18338780269783711468
31174 14 18339359798331935745
3286 77 18411986896553888707
458136 41 18050856820764488312
6049 1 18260539035093726428
7615 1 16199569407237116225
77492 1 16845286198140623181
81228 2 17697031436515319544
83771 10 18408889529232713042
8809292 202 18334860527947333650
88987 49 16516783915040592437

>  <PUBCHEM_SHAPE_MULTIPOLES>  (1) 
277.26
6.69
1.72
1.12
1.49
0.2
-0.25
-3.66
1.35
0.59
0.21
-0.86
0.2
0.95

>  <PUBCHEM_SHAPE_SELFOVERLAP>  (1) 
579.869

>  <PUBCHEM_SHAPE_VOLUME>  (1) 
161.1

>  <PUBCHEM_COORDINATE_TYPE>  (1) 
2
5
10

$$$$
