29824
     RDKit          3D

 18 19  0  0  0  0  0  0  0  0999 V2000
   -3.0523    1.4869    1.4467 O   0  0  0  0  0  0  0  0  0  0  0  0
    1.4273   -3.1597    0.4947 N   0  0  0  0  0  0  0  0  0  0  0  0
    0.6312   -1.3485   -0.2190 C   0  0  0  0  0  0  0  0  0  0  0  0
    0.8347   -1.9774    1.1666 C   0  0  0  0  0  0  0  0  0  0  0  0
    0.6665   -2.7972   -0.7261 C   0  0  0  0  0  0  0  0  0  0  0  0
    1.7871   -0.4806   -0.6989 C   0  0  0  0  0  0  0  0  0  0  0  0
   -0.6645   -0.5516   -0.4489 C   0  0  0  0  0  0  0  0  0  0  0  0
    1.8455    0.8158    0.1076 C   0  0  0  0  0  0  0  0  0  0  0  0
    0.9017   -4.3881    1.0741 C   0  0  0  0  0  0  0  0  0  0  0  0
    3.0225    1.6903   -0.3256 C   0  0  0  0  0  0  0  0  0  0  0  0
   -1.2834    0.1169    0.6152 C   0  0  0  0  0  0  0  0  0  0  0  0
   -1.2396   -0.4847   -1.7244 C   0  0  0  0  0  0  0  0  0  0  0  0
    3.0595    3.0014    0.4590 C   0  0  0  0  0  0  0  0  0  0  0  0
   -2.4579    0.8404    0.4070 C   0  0  0  0  0  0  0  0  0  0  0  0
   -2.4139    0.2386   -1.9325 C   0  0  0  0  0  0  0  0  0  0  0  0
   -3.0229    0.9013   -0.8669 C   0  0  0  0  0  0  0  0  0  0  0  0
    4.2089    3.8884    0.0080 C   0  0  0  0  0  0  0  0  0  0  0  0
   -4.2504    2.2079    1.1634 C   0  0  0  0  0  0  0  0  0  0  0  0
  1 14  1  0
  1 18  1  0
  2  4  1  0
  2  5  1  0
  2  9  1  0
  3  4  1  0
  3  5  1  0
  3  6  1  0
  3  7  1  0
  6  8  1  0
  7 11  2  0
  7 12  1  0
  8 10  1  0
 10 13  1  0
 11 14  1  0
 12 15  2  0
 13 17  1  0
 14 16  2  0
 15 16  1  0
M  END
>  <PUBCHEM_COMPOUND_CID>  (1) 
29824

>  <PUBCHEM_CONFORMER_RMSD>  (1) 
0.8

>  <PUBCHEM_CONFORMER_DIVERSEORDER>  (1) 
1
35
26
29
54
44
18
52
36
8
48
55
33
41
37
16
50
58
13
45
40
34
25
30
53
39
17
56
11
59
23
46
28
12
22
6
43
38
51
42
4
32
49
31
10
27
20
57
21
3
47
24
2
19
14
15
9
7
5

>  <PUBCHEM_MMFF94_PARTIAL_CHARGES>  (1) 
17
1 -0.36
11 -0.15
12 -0.15
14 0.08
15 -0.15
16 -0.15
18 0.28
2 -0.69
3 0.11
32 0.15
33 0.15
36 0.15
37 0.15
4 0.21
5 0.21
7 -0.11
9 0.27

>  <PUBCHEM_EFFECTIVE_ROTOR_COUNT>  (1) 
6.8

>  <PUBCHEM_PHARMACOPHORE_FEATURES>  (1) 
6
1 1 acceptor
1 17 hydrophobe
1 2 cation
4 2 3 4 5 rings
4 6 8 10 13 hydrophobe
6 7 11 12 14 15 16 rings

>  <PUBCHEM_HEAVY_ATOM_COUNT>  (1) 
18

>  <PUBCHEM_ATOM_DEF_STEREO_COUNT>  (1) 
0

>  <PUBCHEM_ATOM_UDEF_STEREO_COUNT>  (1) 
0

>  <PUBCHEM_BOND_DEF_STEREO_COUNT>  (1) 
0

>  <PUBCHEM_BOND_UDEF_STEREO_COUNT>  (1) 
0

>  <PUBCHEM_ISOTOPIC_ATOM_COUNT>  (1) 
0

>  <PUBCHEM_COMPONENT_COUNT>  (1) 
1

>  <PUBCHEM_CACTVS_TAUTO_COUNT>  (1) 
1

>  <PUBCHEM_CONFORMER_ID>  (1) 
0000748000000001

>  <PUBCHEM_MMFF94_ENERGY>  (1) 
55.277

>  <PUBCHEM_FEATURE_SELFOVERLAP>  (1) 
30.446

>  <PUBCHEM_SHAPE_FINGERPRINT>  (1) 
10165383 225 17898885450198257004
10291535 26 17696468864535182488
11036077 51 18194675089482510008
11640471 11 18131343094683556229
12173636 292 18195817485815716196
12293681 160 17692502904349582007
12293681 4 16750713535286915821
12549972 3 17025712551924437037
12553582 1 17617936937647110127
12788726 201 17763164144537678778
13134695 92 17831568782579251158
13140716 1 18409172116685087808
13583140 156 18120387466989197985
14142880 1 18192145125711349397
14713325 29 17762629782224222176
14787075 74 17982161537800449271
14817 1 12713971015840544302
14955137 171 18265621970565719594
15534591 1 18059018405055790365
15842332 3 18058713712108006351
16945 1 18191863431422177230
17357990 137 17701818774339844591
1741750 31 18123748914347820704
1813 80 17479737117802034654
19765921 60 18202003260829078016
20510252 161 17905598161980508286
21041028 32 17544199272735190094
21524375 3 18342169016296995348
22182937 141 17978795932555261440
2255824 54 18269836419492285543
22907989 373 17475232878503819716
23526113 38 11887671736708329877
23557571 272 17547293762676379468
23558518 356 18195254536099457630
23845131 108 18335145331887384035
283562 15 18050562138768506743
31174 14 18045229245469932617
3286 77 17609513631059187979
394222 165 18200886075568933353
4175511 71 17764874589171357431
474 4 18412257333311960120
56616090 278 18126588746259673321
5939293 188 17622178866339074929
59755656 520 18265617765650071484
6049 1 17243308114963644837
621550 5 16956783025396046175
633830 44 18271813427557030756
6442390 28 18192733321387331259
6992083 37 17409346405103417719
7615 1 17843661306525773021
81228 2 17539700509404733110
88987 49 16127223617067716359
90316 7 17188133392799477585

>  <PUBCHEM_SHAPE_MULTIPOLES>  (1) 
359.58
6.12
4.99
1.47
2.55
4.01
0.29
-10.41
-0.71
3.34
-2.17
-1.3
0.03
-0.93

>  <PUBCHEM_SHAPE_SELFOVERLAP>  (1) 
734.121

>  <PUBCHEM_SHAPE_VOLUME>  (1) 
212.2

>  <PUBCHEM_COORDINATE_TYPE>  (1) 
2
5
10

$$$$
