29822
     RDKit          3D

 19 20  0  0  0  0  0  0  0  0999 V2000
   -4.3682    0.8200    1.1656 O   0  0  0  0  0  0  0  0  0  0  0  0
    3.7829    1.1213   -1.5768 O   0  0  0  0  0  0  0  0  0  0  0  0
   -2.3131    0.3381    0.2625 N   0  0  0  0  0  0  0  0  0  0  0  0
   -0.4451   -0.4840    0.4076 C   0  0  0  0  0  0  0  0  0  0  0  0
   -1.2754    0.1293   -0.7265 C   0  0  0  0  0  0  0  0  0  0  0  0
   -1.4564    0.0926    1.4053 C   0  0  0  0  0  0  0  0  0  0  0  0
   -0.4873   -2.0009    0.3779 C   0  0  0  0  0  0  0  0  0  0  0  0
    1.0232   -0.0405    0.5403 C   0  0  0  0  0  0  0  0  0  0  0  0
    0.3414   -2.5354   -0.7903 C   0  0  0  0  0  0  0  0  0  0  0  0
   -3.6319    0.6897    0.1889 C   0  0  0  0  0  0  0  0  0  0  0  0
    1.7519    0.3454   -0.5918 C   0  0  0  0  0  0  0  0  0  0  0  0
    1.6461   -0.0178    1.7945 C   0  0  0  0  0  0  0  0  0  0  0  0
   -4.1390    0.9078   -1.2114 C   0  0  0  0  0  0  0  0  0  0  0  0
    0.2904   -4.0522   -0.8703 C   0  0  0  0  0  0  0  0  0  0  0  0
    3.0822    0.7478   -0.4715 C   0  0  0  0  0  0  0  0  0  0  0  0
    2.9762    0.3844    1.9148 C   0  0  0  0  0  0  0  0  0  0  0  0
    3.6941    0.7673    0.7819 C   0  0  0  0  0  0  0  0  0  0  0  0
   -5.6103    1.2656   -1.2191 C   0  0  0  0  0  0  0  0  0  0  0  0
    5.1385    1.5215   -1.3817 C   0  0  0  0  0  0  0  0  0  0  0  0
  1 10  2  0
  2 15  1  0
  2 19  1  0
  3  5  1  0
  3  6  1  0
  3 10  1  0
  4  5  1  0
  4  6  1  0
  4  7  1  0
  4  8  1  0
  7  9  1  0
  8 11  2  0
  8 12  1  0
  9 14  1  0
 10 13  1  0
 11 15  1  0
 12 16  2  0
 13 18  1  0
 15 17  2  0
 16 17  1  0
M  END
>  <PUBCHEM_COMPOUND_CID>  (1) 
29822

>  <PUBCHEM_CONFORMER_RMSD>  (1) 
0.8

>  <PUBCHEM_CONFORMER_DIVERSEORDER>  (1) 
1
36
60
41
27
31
30
10
48
18
38
45
68
40
72
33
22
61
58
62
74
54
65
16
69
34
66
14
73
53
49
12
39
55
42
26
52
35
9
47
70
57
21
28
23
59
63
46
19
13
64
20
67
29
37
51
5
24
32
56
71
8
7
43
6
44
25
4
50
15
11
2
17
3

>  <PUBCHEM_MMFF94_PARTIAL_CHARGES>  (1) 
19
1 -0.57
10 0.57
11 -0.15
12 -0.15
13 0.06
15 0.08
16 -0.15
17 -0.15
19 0.28
2 -0.36
28 0.15
29 0.15
3 -0.51
35 0.15
36 0.15
4 0.11
5 0.22
6 0.22
8 -0.11

>  <PUBCHEM_EFFECTIVE_ROTOR_COUNT>  (1) 
6.8

>  <PUBCHEM_PHARMACOPHORE_FEATURES>  (1) 
6
1 1 acceptor
1 14 hydrophobe
1 18 hydrophobe
1 2 acceptor
4 3 4 5 6 rings
6 8 11 12 15 16 17 rings

>  <PUBCHEM_HEAVY_ATOM_COUNT>  (1) 
19

>  <PUBCHEM_ATOM_DEF_STEREO_COUNT>  (1) 
0

>  <PUBCHEM_ATOM_UDEF_STEREO_COUNT>  (1) 
0

>  <PUBCHEM_BOND_DEF_STEREO_COUNT>  (1) 
0

>  <PUBCHEM_BOND_UDEF_STEREO_COUNT>  (1) 
0

>  <PUBCHEM_ISOTOPIC_ATOM_COUNT>  (1) 
0

>  <PUBCHEM_COMPONENT_COUNT>  (1) 
1

>  <PUBCHEM_CACTVS_TAUTO_COUNT>  (1) 
1

>  <PUBCHEM_CONFORMER_ID>  (1) 
0000747E00000001

>  <PUBCHEM_MMFF94_ENERGY>  (1) 
52.4298

>  <PUBCHEM_FEATURE_SELFOVERLAP>  (1) 
30.446

>  <PUBCHEM_SHAPE_FINGERPRINT>  (1) 
11543360 7 15338828798607105841
12363563 72 8862944974175719916
12500047 106 18270967968019464286
12507560 40 16298389050165872065
12633257 1 15357963577964393472
12788726 201 17827633969750825643
12892183 10 15719112452894577145
12895836 83 18264777721623556876
12895837 130 17754190987616142164
12969540 114 18410285947602388885
133893 2 18050582749963087314
13675066 3 14129341729051884657
14252887 29 11891329833548398072
15163728 17 18262812765216101557
15188451 53 12324539657672660065
15342168 16 15430611674529122932
15502722 9 18269552733087523855
15534591 1 17750524055874747394
15906896 17 18116992397603689578
16752209 62 18196362839230382714
167882 2 18337961073818783782
16945 1 16558761095825188386
17980427 23 17240488039642936895
1813 80 17268634196873405511
18186145 218 17846778520347536833
20369508 70 9583221869299616813
20645476 183 18337394958373926338
20671657 53 13542469782200601800
20871999 31 18128262383551120134
21065199 12 15719110241044578465
21069387 34 14117533055483733724
21344244 181 16630242619143595271
21524375 3 18335412465567353467
21756936 100 17314800805102035476
23366157 5 18121499047042721419
23419403 2 17543970745968255250
23557571 272 17771058595302096384
23559900 14 17532649031897752915
23598288 3 18042964470386648810
25 1 17846227639268015322
298252 57 18334584572330210842
3004659 81 14620798188912580356
3057174 1 18342459222679131487
3060560 45 18201142300285282129
3071541 37 18270394988911445607
314173 85 10737279147589640121
33382 64 13686013263116958317
34934 24 17749389316941514756
458136 41 18270410395048930803
4990 188 16487248872502842681
5104073 3 15791729681266684873
58779409 8 18271524324512868895
59755656 520 17559702631779841763
633830 44 17561365088902333561
7364860 26 17914608363401896259
81228 2 17767956902453410091
81539 233 18336542720835018419
88987 49 18197206169507622826

>  <PUBCHEM_SHAPE_MULTIPOLES>  (1) 
374.29
9.37
2.54
1.71
5.56
4.39
0.28
-8.48
-3.49
-0.35
-1.27
-0.94
-0.42
-0.23

>  <PUBCHEM_SHAPE_SELFOVERLAP>  (1) 
773.757

>  <PUBCHEM_SHAPE_VOLUME>  (1) 
216.8

>  <PUBCHEM_COORDINATE_TYPE>  (1) 
2
5
10

$$$$
