29827
     RDKit          3D

 15 17  0  0  1  0  0  0  0  0999 V2000
    2.6119   -0.8310    0.4180 N   0  0  0  0  0  0  0  0  0  0  0  0
   -0.0067    0.6335    0.1311 C   0  0  0  0  0  0  0  0  0  0  0  0
   -1.6799   -0.3390   -1.5058 C   0  0  0  0  0  0  0  0  0  0  0  0
   -1.4137   -1.3735    0.7766 C   0  0  0  0  0  0  0  0  0  0  0  0
   -2.4954    0.8899    0.5375 C   0  0  0  0  0  0  0  0  0  0  0  0
   -0.3042    0.3342   -1.3574 C   0  0  0  0  0  0  0  0  0  0  0  0
   -0.0387   -0.6976    0.9188 C   0  0  0  0  0  0  0  0  0  0  0  0
   -1.1175    1.5596    0.6806 C   0  0  0  0  0  0  0  0  0  0  0  0
   -1.6881   -1.6547   -0.7100 C   0  0  0  0  0  0  0  0  0  0  0  0
   -2.7644    0.5975   -0.9480 C   0  0  0  0  0  0  0  0  0  0  0  0
   -2.4996   -0.4319    1.3232 C   0  0  0  0  0  0  0  0  0  0  0  0
    1.3626    1.3030    0.2749 C   0  0  0  0  0  0  0  0  0  0  0  0
    2.5158    0.4540   -0.2746 C   0  0  0  0  0  0  0  0  0  0  0  0
    3.8407    1.1988   -0.1163 C   0  0  0  0  0  0  0  0  0  0  0  0
    3.6773   -1.6428   -0.1487 C   0  0  0  0  0  0  0  0  0  0  0  0
  1 13  1  0
  1 15  1  0
  2  6  1  0
  2  7  1  0
  2  8  1  0
  2 12  1  0
  3  6  1  0
  3  9  1  0
  3 10  1  0
  4  7  1  0
  4  9  1  0
  4 11  1  0
  5  8  1  0
  5 10  1  0
  5 11  1  0
 12 13  1  0
 13 14  1  0
M  END
>  <PUBCHEM_COMPOUND_CID>  (1) 
29827

>  <PUBCHEM_CONFORMER_RMSD>  (1) 
0.6

>  <PUBCHEM_CONFORMER_DIVERSEORDER>  (1) 
1
3
2
4

>  <PUBCHEM_MMFF94_PARTIAL_CHARGES>  (1) 
4
1 -0.9
13 0.27
15 0.27
37 0.36

>  <PUBCHEM_EFFECTIVE_ROTOR_COUNT>  (1) 
4.2

>  <PUBCHEM_PHARMACOPHORE_FEATURES>  (1) 
6
1 1 cation
1 1 donor
6 2 3 4 6 7 9 rings
6 2 3 5 6 8 10 rings
6 2 4 5 7 8 11 rings
6 3 4 5 9 10 11 rings

>  <PUBCHEM_HEAVY_ATOM_COUNT>  (1) 
15

>  <PUBCHEM_ATOM_DEF_STEREO_COUNT>  (1) 
0

>  <PUBCHEM_ATOM_UDEF_STEREO_COUNT>  (1) 
1

>  <PUBCHEM_BOND_DEF_STEREO_COUNT>  (1) 
0

>  <PUBCHEM_BOND_UDEF_STEREO_COUNT>  (1) 
0

>  <PUBCHEM_ISOTOPIC_ATOM_COUNT>  (1) 
0

>  <PUBCHEM_COMPONENT_COUNT>  (1) 
1

>  <PUBCHEM_CACTVS_TAUTO_COUNT>  (1) 
1

>  <PUBCHEM_CONFORMER_ID>  (1) 
0000748300000001

>  <PUBCHEM_MMFF94_ENERGY>  (1) 
42.9651

>  <PUBCHEM_FEATURE_SELFOVERLAP>  (1) 
42.962

>  <PUBCHEM_SHAPE_FINGERPRINT>  (1) 
10922523 26 18040716952696886412
10948715 1 18192148201219091485
12423570 1 11108533269409583691
12491281 212 18060424590380998377
12592029 89 17845661335293406031
12932764 1 17775287196536520032
13024252 1 18040995189416033129
13296908 3 18259989275395918314
13571099 22 18410849954032991900
14817 1 15689484926984109951
15076042 46 18200041641980444024
15219456 202 18186521016508304778
15309172 13 16845585230985760108
16945 1 17989212525121936809
17844478 74 17458071481699333153
18186145 218 17967533441746293778
200 152 18270671077988273518
20279233 1 17749101201834113668
21524375 3 17769944471863770249
22802520 49 17386277693306255206
23402539 116 17847056663004774829
23557571 272 16877946083147842844
23559900 14 18411130347585480800
25 1 17680694939883473341
2748010 2 18186519933986739754
369184 2 18342740744989450713
5706482 22 17560523881002659875
598444 67 17822860753714380987
74978 22 18343861143175055932
8030462 33 18343862242866220180

>  <PUBCHEM_SHAPE_MULTIPOLES>  (1) 
303.71
5.4
1.7
1.27
5.46
0.27
0.21
0.28
0.1
0.44
-0.13
-0.9
0.11
-0.06

>  <PUBCHEM_SHAPE_SELFOVERLAP>  (1) 
640.339

>  <PUBCHEM_SHAPE_VOLUME>  (1) 
165.1

>  <PUBCHEM_COORDINATE_TYPE>  (1) 
2
5
10

$$$$
