29829
     RDKit          3D

 16 18  0  0  1  0  0  0  0  0999 V2000
    0.4453   -2.0775    1.4390 Cl  0  0  0  0  0  0  0  0  0  0  0  0
    2.6179   -0.7242   -0.3443 N   0  0  0  0  0  0  0  0  0  0  0  0
   -0.0283    0.4925    0.4324 C   0  0  0  0  0  0  0  0  0  0  0  0
   -1.4485   -1.4262   -0.4370 C   0  0  0  0  0  0  0  0  0  0  0  0
   -2.5173    0.4034    0.9345 C   0  0  0  0  0  0  0  0  0  0  0  0
   -1.7400    0.8831   -1.4107 C   0  0  0  0  0  0  0  0  0  0  0  0
   -0.0461   -1.0230    0.0723 C   0  0  0  0  0  0  0  0  0  0  0  0
   -1.1330    0.8049    1.4741 C   0  0  0  0  0  0  0  0  0  0  0  0
   -0.3587    1.2823   -0.8645 C   0  0  0  0  0  0  0  0  0  0  0  0
   -2.5298   -1.0995    0.6122 C   0  0  0  0  0  0  0  0  0  0  0  0
   -1.7515   -0.6235   -1.7169 C   0  0  0  0  0  0  0  0  0  0  0  0
   -2.8083    1.1947   -0.3509 C   0  0  0  0  0  0  0  0  0  0  0  0
    1.3396    0.9503    0.9580 C   0  0  0  0  0  0  0  0  0  0  0  0
    2.4821    0.6985   -0.0316 C   0  0  0  0  0  0  0  0  0  0  0  0
    3.8012    1.2021    0.5529 C   0  0  0  0  0  0  0  0  0  0  0  0
    3.6754   -0.9381   -1.3196 C   0  0  0  0  0  0  0  0  0  0  0  0
  1  7  1  0
  2 14  1  0
  2 16  1  0
  3  7  1  0
  3  8  1  0
  3  9  1  0
  3 13  1  0
  4  7  1  0
  4 10  1  0
  4 11  1  0
  5  8  1  0
  5 10  1  0
  5 12  1  0
  6  9  1  0
  6 11  1  0
  6 12  1  0
 13 14  1  0
 14 15  1  0
M  END
>  <PUBCHEM_COMPOUND_CID>  (1) 
29829

>  <PUBCHEM_CONFORMER_RMSD>  (1) 
0.6

>  <PUBCHEM_CONFORMER_DIVERSEORDER>  (1) 
1
4
3
6
5
2
7

>  <PUBCHEM_MMFF94_PARTIAL_CHARGES>  (1) 
6
1 -0.29
14 0.27
16 0.27
2 -0.9
37 0.36
7 0.29

>  <PUBCHEM_EFFECTIVE_ROTOR_COUNT>  (1) 
4.2

>  <PUBCHEM_PHARMACOPHORE_FEATURES>  (1) 
6
1 2 cation
1 2 donor
6 3 4 5 7 8 10 rings
6 3 4 6 7 9 11 rings
6 3 5 6 8 9 12 rings
6 4 5 6 10 11 12 rings

>  <PUBCHEM_HEAVY_ATOM_COUNT>  (1) 
16

>  <PUBCHEM_ATOM_DEF_STEREO_COUNT>  (1) 
0

>  <PUBCHEM_ATOM_UDEF_STEREO_COUNT>  (1) 
4

>  <PUBCHEM_BOND_DEF_STEREO_COUNT>  (1) 
0

>  <PUBCHEM_BOND_UDEF_STEREO_COUNT>  (1) 
0

>  <PUBCHEM_ISOTOPIC_ATOM_COUNT>  (1) 
0

>  <PUBCHEM_COMPONENT_COUNT>  (1) 
1

>  <PUBCHEM_CACTVS_TAUTO_COUNT>  (1) 
1

>  <PUBCHEM_CONFORMER_ID>  (1) 
0000748500000001

>  <PUBCHEM_MMFF94_ENERGY>  (1) 
47.743

>  <PUBCHEM_FEATURE_SELFOVERLAP>  (1) 
42.901

>  <PUBCHEM_SHAPE_FINGERPRINT>  (1) 
10863032 1 17561367304983859195
10948715 1 18128542570212046441
12423570 1 13634248947365982367
12491281 212 17275112720977958265
12932764 1 18187083936391667384
13024252 1 14056987339556331985
13296908 3 18202005438778124542
13299463 15 18261660532632274835
144361 1 18129079191704440655
14614273 12 17604129485388830799
14713566 1 17775280543473760489
14817 1 10744856200582255597
15219456 202 18343585161640845516
15309172 13 17894351094120019584
15775835 57 18334288751956957496
16945 1 18200319805579359531
17844478 74 18261399982931350827
18186145 218 18409733941604919304
18981168 100 16662038124053369614
19868273 325 17603301587440281749
200 152 17418083347872824924
20525323 117 15864069862365739389
21296965 12 16588847006720723687
22802520 49 18336827498636012830
23419403 2 17259323996265294307
23559900 14 18411700955676398766
2748010 2 18335414707503215552
369184 2 17418376925735014161
5084963 1 18336833086224830593
528886 8 18187354433226416553
74978 22 17274818073484321508
81228 2 17681284578674306922

>  <PUBCHEM_SHAPE_MULTIPOLES>  (1) 
326.16
5.13
1.78
1.55
4.67
0.6
0.2
-0.71
0.73
-0.05
-0.24
-0.2
0.1
0.51

>  <PUBCHEM_SHAPE_SELFOVERLAP>  (1) 
678.653

>  <PUBCHEM_SHAPE_VOLUME>  (1) 
186.4

>  <PUBCHEM_COORDINATE_TYPE>  (1) 
2
5
10

$$$$
