29832
     RDKit          3D

 21 21  0  0  0  0  0  0  0  0999 V2000
    3.0119    1.2382   -0.0004 O   0  0  0  0  0  0  0  0  0  0  0  0
   -0.1681   -2.1220   -0.0003 O   0  0  0  0  0  0  0  0  0  0  0  0
   -1.4881    2.3120   -0.0002 O   0  0  0  0  0  0  0  0  0  0  0  0
    1.4581   -0.4762   -0.0001 N   0  0  0  0  0  0  0  0  0  0  0  0
    0.7735    1.8237   -0.0001 N   0  0  0  0  0  0  0  0  0  0  0  0
   -0.8759    0.0809    0.0002 N   0  0  0  0  0  0  0  0  0  0  0  0
    5.3726    0.8382    0.0197 C   0  0  0  0  0  0  0  0  0  0  0  0
   -1.7029   -3.9592    0.0200 C   0  0  0  0  0  0  0  0  0  0  0  0
   -3.7778    3.0108   -0.0209 C   0  0  0  0  0  0  0  0  0  0  0  0
    6.4746   -0.2173    0.0045 C   0  0  0  0  0  0  0  0  0  0  0  0
   -3.1699   -4.3790    0.0049 C   0  0  0  0  0  0  0  0  0  0  0  0
   -5.2356    2.5598   -0.0058 C   0  0  0  0  0  0  0  0  0  0  0  0
    3.9882    0.2058   -0.0006 C   0  0  0  0  0  0  0  0  0  0  0  0
   -1.5513   -2.4447   -0.0002 C   0  0  0  0  0  0  0  0  0  0  0  0
   -2.8227    1.8259   -0.0002 C   0  0  0  0  0  0  0  0  0  0  0  0
    7.8551    0.4188   -0.0188 C   0  0  0  0  0  0  0  0  0  0  0  0
   -3.3163   -5.8920   -0.0184 C   0  0  0  0  0  0  0  0  0  0  0  0
   -6.1856    3.7465    0.0169 C   0  0  0  0  0  0  0  0  0  0  0  0
    1.6981    0.8472   -0.0002 C   0  0  0  0  0  0  0  0  0  0  0  0
    0.1512   -0.7842    0.0000 C   0  0  0  0  0  0  0  0  0  0  0  0
   -0.4892    1.3667   -0.0001 C   0  0  0  0  0  0  0  0  0  0  0  0
  1 13  1  0
  1 19  1  0
  2 14  1  0
  2 20  1  0
  3 15  1  0
  3 21  1  0
  4 19  2  0
  4 20  1  0
  5 19  1  0
  5 21  2  0
  6 20  2  0
  6 21  1  0
  7 10  1  0
  7 13  1  0
  8 11  1  0
  8 14  1  0
  9 12  1  0
  9 15  1  0
 10 16  1  0
 11 17  1  0
 12 18  1  0
M  END
>  <PUBCHEM_COMPOUND_CID>  (1) 
29832

>  <PUBCHEM_CONFORMER_RMSD>  (1) 
1

>  <PUBCHEM_CONFORMER_DIVERSEORDER>  (1) 
1
4
13
18
26
21
17
33
19
35
5
25
14
11
20
31
3
9
15
16
23
24
2
22
7
27
8
32
10
6
12
30
34
28
29

>  <PUBCHEM_MMFF94_PARTIAL_CHARGES>  (1) 
12
1 -0.36
13 0.28
14 0.28
15 0.28
19 0.7
2 -0.36
20 0.7
21 0.7
3 -0.36
4 -0.62
5 -0.62
6 -0.62

>  <PUBCHEM_EFFECTIVE_ROTOR_COUNT>  (1) 
12

>  <PUBCHEM_PHARMACOPHORE_FEATURES>  (1) 
7
1 16 hydrophobe
1 17 hydrophobe
1 18 hydrophobe
3 4 5 19 cation
3 4 6 20 cation
3 5 6 21 cation
6 4 5 6 19 20 21 rings

>  <PUBCHEM_HEAVY_ATOM_COUNT>  (1) 
21

>  <PUBCHEM_ATOM_DEF_STEREO_COUNT>  (1) 
0

>  <PUBCHEM_ATOM_UDEF_STEREO_COUNT>  (1) 
0

>  <PUBCHEM_BOND_DEF_STEREO_COUNT>  (1) 
0

>  <PUBCHEM_BOND_UDEF_STEREO_COUNT>  (1) 
0

>  <PUBCHEM_ISOTOPIC_ATOM_COUNT>  (1) 
0

>  <PUBCHEM_COMPONENT_COUNT>  (1) 
1

>  <PUBCHEM_CACTVS_TAUTO_COUNT>  (1) 
1

>  <PUBCHEM_CONFORMER_ID>  (1) 
0000748800000001

>  <PUBCHEM_MMFF94_ENERGY>  (1) 
31.9356

>  <PUBCHEM_FEATURE_SELFOVERLAP>  (1) 
38.286

>  <PUBCHEM_SHAPE_FINGERPRINT>  (1) 
10050765 1 18266458896720485160
10411042 1 17978229688066680867
11719270 70 18121770635231310217
12293681 160 17845648132200409641
13052359 8 18411703187898706889
13134695 92 17474105887643602791
13540713 4 18058443378556666560
13540713 5 18042411399469860212
13590594 115 17975984473112788883
138480 1 17185594616767943751
14866123 147 18410574011106514627
15042514 8 18339082704095052042
15629462 23 18128238177527657335
15927050 60 18338515240184555618
17539 30 18268989959032563471
17859628 70 17762340211465851433
19427546 20 18336271253485418812
21478907 32 18122063366737100234
22224240 67 18339358561598145433
23558518 356 18117279366085969560
23559900 14 18271800234335538040
283562 15 17984424040283194608
4409770 3 18409728500119108891
5486654 2 18340485560631487472
5758199 1 18270964518792259681
59755656 520 18338509746878614820
6669772 16 18199189477503570358
77188 2 17762055845432909623

>  <PUBCHEM_SHAPE_MULTIPOLES>  (1) 
399.62
14.83
6.95
0.59
25.41
12.37
0
-11.17
0.02
-18.82
0.01
-0.01
0.01
-0.01

>  <PUBCHEM_SHAPE_SELFOVERLAP>  (1) 
774.579

>  <PUBCHEM_SHAPE_VOLUME>  (1) 
238.7

>  <PUBCHEM_COORDINATE_TYPE>  (1) 
2
5
10

$$$$
