29831
     RDKit          3D

  7  7  0  0  0  0  0  0  0  0999 V2000
   -1.1840   -0.8835    0.0628 O   0  0  0  0  0  0  0  0  0  0  0  0
    0.9274   -1.7596    0.0027 O   0  0  0  0  0  0  0  0  0  0  0  0
    0.5389    0.5439   -0.0335 N   0  0  0  0  0  0  0  0  0  0  0  0
   -0.6080    1.3861    0.1227 C   0  0  0  0  0  0  0  0  0  0  0  0
   -1.7444    0.4261   -0.1277 C   0  0  0  0  0  0  0  0  0  0  0  0
    0.1854   -0.7871    0.0043 C   0  0  0  0  0  0  0  0  0  0  0  0
    1.8848    1.0742   -0.0313 C   0  0  0  0  0  0  0  0  0  0  0  0
  1  5  1  0
  1  6  1  0
  2  6  2  0
  3  4  1  0
  3  6  1  0
  3  7  1  0
  4  5  1  0
M  END
>  <PUBCHEM_COMPOUND_CID>  (1) 
29831

>  <PUBCHEM_CONFORMER_RMSD>  (1) 
0.4

>  <PUBCHEM_CONFORMER_DIVERSEORDER>  (1) 
1

>  <PUBCHEM_MMFF94_PARTIAL_CHARGES>  (1) 
7
1 -0.43
2 -0.57
3 -0.66
4 0.3
5 0.28
6 0.78
7 0.3

>  <PUBCHEM_EFFECTIVE_ROTOR_COUNT>  (1) 
0.8

>  <PUBCHEM_PHARMACOPHORE_FEATURES>  (1) 
2
1 2 acceptor
5 1 3 4 5 6 rings

>  <PUBCHEM_HEAVY_ATOM_COUNT>  (1) 
7

>  <PUBCHEM_ATOM_DEF_STEREO_COUNT>  (1) 
0

>  <PUBCHEM_ATOM_UDEF_STEREO_COUNT>  (1) 
0

>  <PUBCHEM_BOND_DEF_STEREO_COUNT>  (1) 
0

>  <PUBCHEM_BOND_UDEF_STEREO_COUNT>  (1) 
0

>  <PUBCHEM_ISOTOPIC_ATOM_COUNT>  (1) 
0

>  <PUBCHEM_COMPONENT_COUNT>  (1) 
1

>  <PUBCHEM_CACTVS_TAUTO_COUNT>  (1) 
1

>  <PUBCHEM_CONFORMER_ID>  (1) 
0000748700000001

>  <PUBCHEM_MMFF94_ENERGY>  (1) 
10.2105

>  <PUBCHEM_FEATURE_SELFOVERLAP>  (1) 
10.148

>  <PUBCHEM_SHAPE_FINGERPRINT>  (1) 
16714656 1 18049166858343761564
20096714 4 18411421669998826949
21040471 1 18338515364669307844
5943 1 12686518783127451680

>  <PUBCHEM_SHAPE_MULTIPOLES>  (1) 
127.34
2
1.67
0.58
0.21
0.4
0
-0.52
0.06
0.31
-0.04
-0.01
-0.04
0

>  <PUBCHEM_SHAPE_SELFOVERLAP>  (1) 
251.494

>  <PUBCHEM_SHAPE_VOLUME>  (1) 
78.8

>  <PUBCHEM_COORDINATE_TYPE>  (1) 
2
5
10

$$$$
