29836
     RDKit          3D

 14 13  0  0  1  0  0  0  0  0999 V2000
    2.4613   -2.4825    0.0571 Cl  0  0  0  0  0  0  0  0  0  0  0  0
   -2.5798   -2.4226   -0.0686 Cl  0  0  0  0  0  0  0  0  0  0  0  0
    2.0314    1.3463   -0.6707 O   0  0  0  0  0  0  0  0  0  0  0  0
   -1.9652    1.3775    0.6774 O   0  0  0  0  0  0  0  0  0  0  0  0
    3.1445    0.1875    0.9786 O   0  0  0  0  0  0  0  0  0  0  0  0
   -3.1342    0.2820   -0.9763 O   0  0  0  0  0  0  0  0  0  0  0  0
    0.2952   -0.9826   -0.7037 C   0  0  0  0  0  0  0  0  0  0  0  0
   -0.3432   -1.0323    0.6966 C   0  0  0  0  0  0  0  0  0  0  0  0
    1.8295   -0.9973   -0.7037 C   0  0  0  0  0  0  0  0  0  0  0  0
   -1.8763   -0.9732    0.6986 C   0  0  0  0  0  0  0  0  0  0  0  0
    2.4284    0.2142   -0.0136 C   0  0  0  0  0  0  0  0  0  0  0  0
   -2.4168    0.2691    0.0151 C   0  0  0  0  0  0  0  0  0  0  0  0
    2.5111    2.5793   -0.1255 C   0  0  0  0  0  0  0  0  0  0  0  0
   -2.3857    2.6348    0.1388 C   0  0  0  0  0  0  0  0  0  0  0  0
  1  9  1  0
  2 10  1  0
  3 11  1  0
  3 13  1  0
  4 12  1  0
  4 14  1  0
  5 11  2  0
  6 12  2  0
  7  8  1  0
  7  9  1  0
  8 10  1  0
  9 11  1  0
 10 12  1  0
M  END
>  <PUBCHEM_COMPOUND_CID>  (1) 
29836

>  <PUBCHEM_CONFORMER_RMSD>  (1) 
0.8

>  <PUBCHEM_CONFORMER_DIVERSEORDER>  (1) 
1
28
76
49
52
67
93
7
83
94
53
47
31
56
36
70
3
23
27
81
97
5
54
50
42
41
46
87
2
85
6
43
38
61
37
66
78
30
24
26
17
82
57
91
63
71
35
48
29
44
4
15
90
86
73
101
34
62
45
51
109
32
33
65
80
106
110
14
99
19
88
69
77
40
16
89
74
22
9
75
84
21
64
111
39
79
108
68
25
100
104
98
72
11
59
8
103
105
95
20
10
55
12
96
92
107
112
13
18
60
102
58

>  <PUBCHEM_MMFF94_PARTIAL_CHARGES>  (1) 
12
1 -0.29
10 0.35
11 0.66
12 0.66
13 0.28
14 0.28
2 -0.29
3 -0.43
4 -0.43
5 -0.57
6 -0.57
9 0.35

>  <PUBCHEM_EFFECTIVE_ROTOR_COUNT>  (1) 
7

>  <PUBCHEM_PHARMACOPHORE_FEATURES>  (1) 
2
1 5 acceptor
1 6 acceptor

>  <PUBCHEM_HEAVY_ATOM_COUNT>  (1) 
14

>  <PUBCHEM_ATOM_DEF_STEREO_COUNT>  (1) 
0

>  <PUBCHEM_ATOM_UDEF_STEREO_COUNT>  (1) 
2

>  <PUBCHEM_BOND_DEF_STEREO_COUNT>  (1) 
0

>  <PUBCHEM_BOND_UDEF_STEREO_COUNT>  (1) 
0

>  <PUBCHEM_ISOTOPIC_ATOM_COUNT>  (1) 
0

>  <PUBCHEM_COMPONENT_COUNT>  (1) 
1

>  <PUBCHEM_CACTVS_TAUTO_COUNT>  (1) 
1

>  <PUBCHEM_CONFORMER_ID>  (1) 
0000748C00000001

>  <PUBCHEM_MMFF94_ENERGY>  (1) 
19.2492

>  <PUBCHEM_FEATURE_SELFOVERLAP>  (1) 
10.149

>  <PUBCHEM_SHAPE_FINGERPRINT>  (1) 
12162725 195 18410853261110187488
12932764 1 18338817657316001199
13618510 140 18337675320885561756
14250199 8 18411138004773411933
14648413 74 18337963302679586522
15375462 6 18267307710304989710
15442244 35 18265895757260527458
15775835 57 17984997134958878664
16945 1 18410863152414764327
17041 50 18199203797325429062
18186145 218 18196938773238445031
192875 21 18338495504703828885
19973954 147 18410864251926249190
20304884 271 18411707551865424801
20671657 1 18337401448026981524
21130352 189 18121784932939860182
21501502 16 18410580586516431946
21947302 44 18411420587777831750
230 275 18343023306867213286
23402539 116 18341035364296073383
23419403 2 16260346789869773122
23557571 272 18271535306970772951
3084891 72 17545326276222086326
74978 22 18337397032447569430
7832392 63 18194966240345220592
8050 44 18336542815065758285
81228 2 17605861285244282731

>  <PUBCHEM_SHAPE_MULTIPOLES>  (1) 
268.38
5.54
3.16
0.9
0.06
0.91
0
0.8
0
0
0.01
0
-0.06
-0.08

>  <PUBCHEM_SHAPE_SELFOVERLAP>  (1) 
494.938

>  <PUBCHEM_SHAPE_VOLUME>  (1) 
170.4

>  <PUBCHEM_COORDINATE_TYPE>  (1) 
2
5
10

$$$$
