29841
     RDKit          3D

  9  8  0  0  1  0  0  0  0  0999 V2000
    0.4928    2.0569    0.5053 O   0  0  0  0  0  0  0  0  0  0  0  0
    1.1504    0.9051   -1.3304 O   0  0  0  0  0  0  0  0  0  0  0  0
    0.9210   -1.4291    0.1415 N   0  0  0  0  0  0  0  0  0  0  0  0
    2.2513   -1.1457    0.5695 N   0  0  0  0  0  0  0  0  0  0  0  0
   -1.4220   -0.5996    0.2551 C   0  0  0  0  0  0  0  0  0  0  0  0
    0.0742   -0.2954    0.5107 C   0  0  0  0  0  0  0  0  0  0  0  0
   -1.7739   -0.9358   -1.1985 C   0  0  0  0  0  0  0  0  0  0  0  0
   -2.3224    0.5279    0.7712 C   0  0  0  0  0  0  0  0  0  0  0  0
    0.6286    0.9158   -0.2244 C   0  0  0  0  0  0  0  0  0  0  0  0
  1  9  1  0
  2  9  2  0
  3  4  1  0
  3  6  1  0
  5  6  1  0
  5  7  1  0
  5  8  1  0
  6  9  1  0
M  END
>  <PUBCHEM_COMPOUND_CID>  (1) 
29841

>  <PUBCHEM_CONFORMER_RMSD>  (1) 
0.6

>  <PUBCHEM_CONFORMER_DIVERSEORDER>  (1) 
1
19
12
14
20
11
22
2
13
15
8
6
17
4
21
3
18
5
7
10
9
16

>  <PUBCHEM_MMFF94_PARTIAL_CHARGES>  (1) 
10
1 -0.65
18 0.36
19 0.36
2 -0.57
20 0.36
21 0.5
3 -0.63
4 -0.72
6 0.33
9 0.66

>  <PUBCHEM_EFFECTIVE_ROTOR_COUNT>  (1) 
3

>  <PUBCHEM_PHARMACOPHORE_FEATURES>  (1) 
6
1 1 acceptor
1 2 acceptor
1 3 donor
1 4 donor
3 1 2 9 anion
3 5 7 8 hydrophobe

>  <PUBCHEM_HEAVY_ATOM_COUNT>  (1) 
9

>  <PUBCHEM_ATOM_DEF_STEREO_COUNT>  (1) 
0

>  <PUBCHEM_ATOM_UDEF_STEREO_COUNT>  (1) 
1

>  <PUBCHEM_BOND_DEF_STEREO_COUNT>  (1) 
0

>  <PUBCHEM_BOND_UDEF_STEREO_COUNT>  (1) 
0

>  <PUBCHEM_ISOTOPIC_ATOM_COUNT>  (1) 
0

>  <PUBCHEM_COMPONENT_COUNT>  (1) 
1

>  <PUBCHEM_CACTVS_TAUTO_COUNT>  (1) 
1

>  <PUBCHEM_CONFORMER_ID>  (1) 
0000749100000001

>  <PUBCHEM_MMFF94_ENERGY>  (1) 
11.6937

>  <PUBCHEM_FEATURE_SELFOVERLAP>  (1) 
31.833

>  <PUBCHEM_SHAPE_FINGERPRINT>  (1) 
12423570 1 15896228155027065471
137420 1 16534338614483523248
18185500 45 18341895177613946235
20653091 64 18041284343419794555
21040471 1 17829900080400003368
24536 1 17604141657479102229
29004967 10 17895198735986164882
5084963 1 17316473208804262867

>  <PUBCHEM_SHAPE_MULTIPOLES>  (1) 
163.52
2.64
1.66
1.09
0.57
0.42
0.33
-0.5
-0.21
-0.57
-0.1
0.14
0
-0.64

>  <PUBCHEM_SHAPE_SELFOVERLAP>  (1) 
302.822

>  <PUBCHEM_SHAPE_VOLUME>  (1) 
103.8

>  <PUBCHEM_COORDINATE_TYPE>  (1) 
2
5
10

$$$$
