29865
     RDKit          3D

 13 12  0  0  1  0  0  0  0  0999 V2000
    4.3216   -1.2530    0.4077 O   0  0  0  0  0  0  0  0  0  0  0  0
    2.9660   -1.2497   -1.4202 O   0  0  0  0  0  0  0  0  0  0  0  0
   -1.9461    0.5524   -0.6633 C   0  0  0  0  0  0  0  0  0  0  0  0
   -1.1505    1.7593   -0.1124 C   0  0  0  0  0  0  0  0  0  0  0  0
    0.1781    1.4353    0.6047 C   0  0  0  0  0  0  0  0  0  0  0  0
   -2.3281   -0.4384    0.4559 C   0  0  0  0  0  0  0  0  0  0  0  0
    1.1277    0.5244   -0.1996 C   0  0  0  0  0  0  0  0  0  0  0  0
   -3.1825    1.0764   -1.4058 C   0  0  0  0  0  0  0  0  0  0  0  0
    0.8717    2.7406    1.0142 C   0  0  0  0  0  0  0  0  0  0  0  0
   -3.0629   -1.6844   -0.0475 C   0  0  0  0  0  0  0  0  0  0  0  0
    2.3714    0.0515    0.5564 C   0  0  0  0  0  0  0  0  0  0  0  0
   -3.3820   -2.6387    1.0941 C   0  0  0  0  0  0  0  0  0  0  0  0
    3.2156   -0.8757   -0.2842 C   0  0  0  0  0  0  0  0  0  0  0  0
  1 13  1  0
  2 13  2  0
  3  4  1  0
  3  6  1  0
  3  8  1  0
  4  5  1  0
  5  7  1  0
  5  9  1  0
  6 10  1  0
  7 11  1  0
 10 12  1  0
 11 13  1  0
M  END
>  <PUBCHEM_COMPOUND_CID>  (1) 
29865

>  <PUBCHEM_CONFORMER_RMSD>  (1) 
0.8

>  <PUBCHEM_CONFORMER_DIVERSEORDER>  (1) 
1
77
57
39
70
2
16
50
56
53
42
31
20
58
64
26
82
75
66
30
83
48
60
7
52
62
10
5
40
4
63
6
17
46
65
74
38
33
59
12
25
80
67
41
24
78
8
55
37
32
73
43
13
49
35
54
19
61
11
22
51
14
44
79
9
81
23
76
36
15
29
21
28
69
45
72
18
27
68
34
71
47
3

>  <PUBCHEM_MMFF94_PARTIAL_CHARGES>  (1) 
5
1 -0.65
11 0.06
13 0.66
2 -0.57
35 0.5

>  <PUBCHEM_EFFECTIVE_ROTOR_COUNT>  (1) 
7

>  <PUBCHEM_PHARMACOPHORE_FEATURES>  (1) 
6
1 1 acceptor
1 12 hydrophobe
1 2 acceptor
1 8 hydrophobe
1 9 hydrophobe
3 1 2 13 anion

>  <PUBCHEM_HEAVY_ATOM_COUNT>  (1) 
13

>  <PUBCHEM_ATOM_DEF_STEREO_COUNT>  (1) 
0

>  <PUBCHEM_ATOM_UDEF_STEREO_COUNT>  (1) 
2

>  <PUBCHEM_BOND_DEF_STEREO_COUNT>  (1) 
0

>  <PUBCHEM_BOND_UDEF_STEREO_COUNT>  (1) 
0

>  <PUBCHEM_ISOTOPIC_ATOM_COUNT>  (1) 
0

>  <PUBCHEM_COMPONENT_COUNT>  (1) 
1

>  <PUBCHEM_CACTVS_TAUTO_COUNT>  (1) 
1

>  <PUBCHEM_CONFORMER_ID>  (1) 
000074A900000001

>  <PUBCHEM_MMFF94_ENERGY>  (1) 
12.5341

>  <PUBCHEM_FEATURE_SELFOVERLAP>  (1) 
30.503

>  <PUBCHEM_SHAPE_FINGERPRINT>  (1) 
11127187 94 18261109643321521813
117890 22 18195532716815471307
12202030 40 18336261361848649109
12841375 5 17984721153293000796
13296908 3 18411976974984256064
14115302 16 18260549987545103021
14251705 54 18341056297518423822
14251731 5 18335708303083896731
14252887 29 17756148148256359275
18380122 1 17831001787231230689
19107657 162 18272090465921967822
19766037 51 18115600381833981163
20201158 50 18270674264621944102
20645476 183 17531803524867489575
20645477 70 18124863810532477599
20871998 22 17972882742135943043
20871999 31 18113056043154719503
21061003 4 18059860566669766321
21665056 4 17688880734852746725
23526113 38 18269249383705315601
23557571 272 17678438956750841797
23559900 14 18337097970428653272
2748010 2 18264753532304292573
31174 14 18055358191371825801
4416823 128 18336832004056894659
5493415 88 18411695504360684448
5902787 121 18409160013572762368
81228 2 17842278069042496872
8809292 202 18409162186652030097

>  <PUBCHEM_SHAPE_MULTIPOLES>  (1) 
255.8
6.95
2.79
1.18
2.45
0.13
-0.19
-5.63
-0.5
-1.01
0.82
-0.27
0.05
1.81

>  <PUBCHEM_SHAPE_SELFOVERLAP>  (1) 
469.139

>  <PUBCHEM_SHAPE_VOLUME>  (1) 
162.9

>  <PUBCHEM_COORDINATE_TYPE>  (1) 
2
5
10

$$$$
