2986
     RDKit          3D

 19 18  0  0  1  0  0  0  0  0999 V2000
   -2.2664   -3.7010   -0.8609 O   0  0  0  0  0  0  0  0  0  0  0  0
    6.7607   -0.4765    0.8800 O   0  0  0  0  0  0  0  0  0  0  0  0
   -3.4020   -0.8408    1.3800 C   0  0  0  0  0  0  0  0  0  0  0  0
   -4.0088    0.2008    0.4365 C   0  0  0  0  0  0  0  0  0  0  0  0
   -3.2851   -2.2310    0.7453 C   0  0  0  0  0  0  0  0  0  0  0  0
   -4.1298    1.5941    1.0661 C   0  0  0  0  0  0  0  0  0  0  0  0
   -2.3547   -2.3275   -0.4725 C   0  0  0  0  0  0  0  0  0  0  0  0
   -4.8101    2.6562    0.1964 C   0  0  0  0  0  0  0  0  0  0  0  0
   -0.9549   -1.8673   -0.1693 C   0  0  0  0  0  0  0  0  0  0  0  0
   -6.2361    2.3278   -0.1326 C   0  0  0  0  0  0  0  0  0  0  0  0
   -0.2526   -0.9221   -0.8101 C   0  0  0  0  0  0  0  0  0  0  0  0
   -6.6993    2.1782   -1.3785 C   0  0  0  0  0  0  0  0  0  0  0  0
    1.0707   -0.5423   -0.4623 C   0  0  0  0  0  0  0  0  0  0  0  0
    2.1965   -0.2319   -0.1842 C   0  0  0  0  0  0  0  0  0  0  0  0
    6.0163    0.7264    0.7207 C   0  0  0  0  0  0  0  0  0  0  0  0
    3.4904    0.1019    0.1254 C   0  0  0  0  0  0  0  0  0  0  0  0
    4.6264    0.3860    0.3916 C   0  0  0  0  0  0  0  0  0  0  0  0
    6.5866    1.6145   -0.3519 C   0  0  0  0  0  0  0  0  0  0  0  0
    7.6521    1.3546   -1.1198 C   0  0  0  0  0  0  0  0  0  0  0  0
  1  7  1  0
  2 15  1  0
  3  4  1  0
  3  5  1  0
  4  6  1  0
  5  7  1  0
  6  8  1  0
  7  9  1  0
  8 10  1  0
  9 11  2  0
 10 12  2  0
 11 13  1  0
 13 14  3  0
 14 16  1  0
 15 17  1  0
 15 18  1  0
 16 17  3  0
 18 19  2  0
M  END
>  <PUBCHEM_COMPOUND_CID>  (1) 
2986

>  <PUBCHEM_CONFORMER_RMSD>  (1) 
0.8

>  <PUBCHEM_CONFORMER_DIVERSEORDER>  (1) 
2
199
132
311
12
77
115
375
189
285
74
54
365
169
222
193
351
88
268
208
13
99
260
380
112
8
66
152
211
170
335
367
36
302
26
80
147
7
133
303
3
271
226
148
264
301
265
163
137
233
228
296
358
106
243
240
318
75
341
194
313
304
218
289
16
100
11
29
18
168
345
223
370
6
71
213
31
73
144
38
377
149
181
390
17
59
108
128
244
368
192
232
131
334
140
109
187
50
251
253
63
257
165
340
239
162
93
182
305
92
282
247
382
217
254
272
69
269
177
14
329
328
255
160
267
47
360
22
83
293
159
369
32
23
242
121
55
338
229
259
219
337
319
277
212
203
326
378
183
210
145
256
372
4
297
101
67
119
383
332
280
171
27
141
366
230
125
215
373
110
200
349
195
104
236
363
276
124
52
221
173
151
64
44
136
33
386
224
299
19
157
241
275
96
273
76
166
85
120
24
164
156
381
153
28
179
126
376
310
350
70
281
10
45
196
48
37
357
198
43
231
172
107
103
314
262
65
379
258
117
91
385
295
353
114
292
388
339
58
34
118
146
306
263
237
185
178
209
39
42
113
325
202
245
134
204
270
312
21
86
139
188
392
323
82
364
123
60
288
216
346
78
62
5
161
51
261
287
190
321
279
15
359
290
81
393
57
348
362
308
129
127
238
20
25
53
333
116
150
252
97
135
174
111
298
315
155
214
1
46
94
30
250
9
220
102
294
175
90
274
201
284
41
56
324
68
122
246
331
176
184
343
98
309
355
248
291
225
84
197
266
320
143
235
49
327
95
167
186
206
72
395
154
191
352
384
286
330
354
79
138
361
130
300
227
347
158
35
89
283
317
105
389
391
61
207
316
40
356
307
249
205
322
342
374
387
278
142
234
344
180
87
336
394
371

>  <PUBCHEM_MMFF94_PARTIAL_CHARGES>  (1) 
23
1 -0.68
10 -0.29
11 -0.09
12 -0.3
13 -0.06
15 0.62
17 -0.2
18 -0.29
19 -0.3
2 -0.68
31 0.15
32 0.15
33 0.4
34 0.15
35 0.15
36 0.15
38 0.15
39 0.4
40 0.15
41 0.15
7 0.42
8 0.14
9 -0.29

>  <PUBCHEM_EFFECTIVE_ROTOR_COUNT>  (1) 
8

>  <PUBCHEM_PHARMACOPHORE_FEATURES>  (1) 
8
1 1 acceptor
1 1 donor
1 12 hydrophobe
1 19 hydrophobe
1 2 acceptor
1 2 donor
3 3 4 5 hydrophobe
3 6 8 10 hydrophobe

>  <PUBCHEM_HEAVY_ATOM_COUNT>  (1) 
19

>  <PUBCHEM_ATOM_DEF_STEREO_COUNT>  (1) 
0

>  <PUBCHEM_ATOM_UDEF_STEREO_COUNT>  (1) 
2

>  <PUBCHEM_BOND_DEF_STEREO_COUNT>  (1) 
0

>  <PUBCHEM_BOND_UDEF_STEREO_COUNT>  (1) 
1

>  <PUBCHEM_ISOTOPIC_ATOM_COUNT>  (1) 
0

>  <PUBCHEM_COMPONENT_COUNT>  (1) 
1

>  <PUBCHEM_CACTVS_TAUTO_COUNT>  (1) 
1

>  <PUBCHEM_CONFORMER_ID>  (1) 
00000BAA00000002

>  <PUBCHEM_MMFF94_ENERGY>  (1) 
8.9788

>  <PUBCHEM_FEATURE_SELFOVERLAP>  (1) 
40.629

>  <PUBCHEM_SHAPE_FINGERPRINT>  (1) 
10638233 991 18044945808168396028
12107183 9 18265043631728672290
13941219 33 15213296396306647321
14251732 14 10159692495495405678
14647877 103 18186812369831162756
15183329 4 14764351518463090972
16120349 189 18334852771848151741
20281389 69 18343303695391245832
21054139 6 11095890350263861204
23081809 10 18188204412335388674
23522609 53 17822871869865288164
393628 194 18338803317175230213
4938544 92 18336266833362612767
5372103 7 17823401705826917341
5470011 282 13038894543090018672
6327066 14 18337669724954560349
8217 86 9511168655795930569

>  <PUBCHEM_SHAPE_MULTIPOLES>  (1) 
379.27
21.38
3.35
1.15
27.9
1.34
0.01
-19.81
1.44
-6.75
0.78
-0.57
-0.07
0.01

>  <PUBCHEM_SHAPE_SELFOVERLAP>  (1) 
722.09

>  <PUBCHEM_SHAPE_VOLUME>  (1) 
228.6

>  <PUBCHEM_COORDINATE_TYPE>  (1) 
2
5
10

$$$$
