29873
     RDKit          3D

 19 19  0  0  0  0  0  0  0  0999 V2000
   -1.1855   -1.0862    0.8719 O   0  0  0  0  0  0  0  0  0  0  0  0
   -1.6806   -0.8117   -1.3843 O   0  0  0  0  0  0  0  0  0  0  0  0
    4.5378    1.9540   -0.1937 O   0  0  0  0  0  0  0  0  0  0  0  0
    2.3279    2.0541    0.3868 O   0  0  0  0  0  0  0  0  0  0  0  0
   -3.2556   -0.3834    0.2657 N   0  0  0  0  0  0  0  0  0  0  0  0
    3.3746    0.0251   -0.1499 N   0  0  0  0  0  0  0  0  0  0  0  0
   -4.8146    1.4437   -0.3040 C   0  0  0  0  0  0  0  0  0  0  0  0
   -4.3442    0.0125   -0.5861 C   0  0  0  0  0  0  0  0  0  0  0  0
   -3.6730    2.4298   -0.5545 C   0  0  0  0  0  0  0  0  0  0  0  0
   -5.3311    1.5964    1.1284 C   0  0  0  0  0  0  0  0  0  0  0  0
   -2.0113   -0.7648   -0.2031 C   0  0  0  0  0  0  0  0  0  0  0  0
    0.0991   -1.4850    0.4900 C   0  0  0  0  0  0  0  0  0  0  0  0
    2.3606   -0.9238   -0.0149 C   0  0  0  0  0  0  0  0  0  0  0  0
    1.0791   -0.5260    0.3661 C   0  0  0  0  0  0  0  0  0  0  0  0
    0.3330   -2.8210    0.2531 C   0  0  0  0  0  0  0  0  0  0  0  0
    2.6283   -2.2703   -0.2618 C   0  0  0  0  0  0  0  0  0  0  0  0
    1.6146   -3.2190   -0.1278 C   0  0  0  0  0  0  0  0  0  0  0  0
    3.3083    1.4018    0.0493 C   0  0  0  0  0  0  0  0  0  0  0  0
    4.6327    3.3739   -0.0310 C   0  0  0  0  0  0  0  0  0  0  0  0
  1 11  1  0
  1 12  1  0
  2 11  2  0
  3 18  1  0
  3 19  1  0
  4 18  2  0
  5  8  1  0
  5 11  1  0
  6 13  1  0
  6 18  1  0
  7  8  1  0
  7  9  1  0
  7 10  1  0
 12 14  2  0
 12 15  1  0
 13 14  1  0
 13 16  2  0
 15 17  2  0
 16 17  1  0
M  END
>  <PUBCHEM_COMPOUND_CID>  (1) 
29873

>  <PUBCHEM_CONFORMER_RMSD>  (1) 
0.8

>  <PUBCHEM_CONFORMER_DIVERSEORDER>  (1) 
1
197
118
189
124
135
100
164
244
36
247
13
214
199
104
32
62
173
193
252
167
255
139
161
160
143
245
223
25
72
2
101
158
159
235
257
243
194
50
103
179
48
165
254
17
191
140
169
250
232
202
96
73
201
95
234
219
86
24
212
92
126
236
130
204
240
248
134
180
251
258
175
79
222
110
65
107
131
146
142
94
6
76
224
226
148
231
90
182
172
121
31
108
91
215
183
227
225
157
166
37
80
45
29
82
7
162
171
147
122
210
99
84
105
120
136
46
205
97
203
176
209
220
188
213
138
33
208
78
253
125
233
26
230
154
15
218
249
178
87
184
228
51
177
128
42
207
145
221
58
206
137
156
52
238
74
111
115
211
53
66
55
216
102
67
16
256
200
40
190
117
28
192
116
174
152
23
241
11
112
19
64
88
5
195
133
60
34
106
49
186
141
260
123
43
57
119
38
237
69
114
93
170
9
185
113
196
41
151
85
217
20
198
246
98
81
39
153
144
163
149
12
132
14
71
27
83
63
61
70
109
168
89
59
127
10
229
47
129
75
259
30
54
35
22
4
44
181
56
242
3
239
8
21
68
187
18
77
155
150

>  <PUBCHEM_MMFF94_PARTIAL_CHARGES>  (1) 
22
1 -0.23
11 0.78
12 0.08
13 0.12
14 -0.15
15 -0.15
16 -0.15
17 -0.15
18 0.78
19 0.28
2 -0.57
29 0.37
3 -0.43
30 0.15
31 0.15
32 0.15
33 0.15
34 0.37
4 -0.57
5 -0.73
6 -0.55
8 0.3

>  <PUBCHEM_EFFECTIVE_ROTOR_COUNT>  (1) 
8

>  <PUBCHEM_PHARMACOPHORE_FEATURES>  (1) 
6
1 2 acceptor
1 4 acceptor
1 5 donor
1 6 donor
3 7 9 10 hydrophobe
6 12 13 14 15 16 17 rings

>  <PUBCHEM_HEAVY_ATOM_COUNT>  (1) 
19

>  <PUBCHEM_ATOM_DEF_STEREO_COUNT>  (1) 
0

>  <PUBCHEM_ATOM_UDEF_STEREO_COUNT>  (1) 
0

>  <PUBCHEM_BOND_DEF_STEREO_COUNT>  (1) 
0

>  <PUBCHEM_BOND_UDEF_STEREO_COUNT>  (1) 
0

>  <PUBCHEM_ISOTOPIC_ATOM_COUNT>  (1) 
0

>  <PUBCHEM_COMPONENT_COUNT>  (1) 
1

>  <PUBCHEM_CACTVS_TAUTO_COUNT>  (1) 
4

>  <PUBCHEM_CONFORMER_ID>  (1) 
000074B100000001

>  <PUBCHEM_MMFF94_ENERGY>  (1) 
44.6413

>  <PUBCHEM_FEATURE_SELFOVERLAP>  (1) 
30.446

>  <PUBCHEM_SHAPE_FINGERPRINT>  (1) 
10382601 240 17968086521754229176
10411042 1 17689998938511543650
12293681 160 17846224401195166312
12730499 353 18336557061709786011
12769317 202 18341886394421923200
12788726 201 17059505015333446897
13103583 49 11314569983864214647
13590594 115 17834682595562188186
13955234 65 18262521368833613595
14123255 52 18410854403677022350
14251764 75 18341623649877036505
14848178 96 18411415115916020481
15163728 17 18190195648914362932
15342168 16 18335420200834946263
1768 23 17057829321364153785
17834072 32 18264771137406978300
19784866 34 18411981390105089417
21401589 2 18187366592358135257
21709351 56 18268701728040946751
23559900 14 18267020557513817891
245318 6 17605851440673247796
25 1 18410852187685192914
394222 165 18334565846183675738
474 4 18410007732468568619
5104073 3 18187650180743618371
5281201 14 18194966232298923471
633830 44 18413105052408246423
7808743 9 18192710274872655416
84936 182 18343295964022825640
9981440 41 18264484156108004730

>  <PUBCHEM_SHAPE_MULTIPOLES>  (1) 
357.57
10.67
3.94
0.86
8.47
0.87
0.01
10.9
-0.08
-4.9
0.02
0.71
0
-0.07

>  <PUBCHEM_SHAPE_SELFOVERLAP>  (1) 
726.034

>  <PUBCHEM_SHAPE_VOLUME>  (1) 
207

>  <PUBCHEM_COORDINATE_TYPE>  (1) 
2
5
10

$$$$
