29878
     RDKit          3D

 12 12  0  0  0  0  0  0  0  0999 V2000
   -3.4832   -1.1471   -0.0003 S   0  0  0  0  0  0  0  0  0  0  0  0
    3.8196   -1.3730    0.0014 O   0  0  0  0  0  0  0  0  0  0  0  0
   -2.3193    1.2101    0.0008 O   0  0  0  0  0  0  0  0  0  0  0  0
   -0.9352   -0.6940   -0.0009 N   0  0  0  0  0  0  0  0  0  0  0  0
    0.3614   -0.1789   -0.0015 C   0  0  0  0  0  0  0  0  0  0  0  0
    1.4555   -1.0442   -0.0007 C   0  0  0  0  0  0  0  0  0  0  0  0
    0.5637    1.2013   -0.0011 C   0  0  0  0  0  0  0  0  0  0  0  0
    2.7519   -0.5292    0.0003 C   0  0  0  0  0  0  0  0  0  0  0  0
    1.8600    1.7163    0.0000 C   0  0  0  0  0  0  0  0  0  0  0  0
    2.9540    0.8510    0.0007 C   0  0  0  0  0  0  0  0  0  0  0  0
   -2.1393    0.0014    0.0002 C   0  0  0  0  0  0  0  0  0  0  0  0
   -4.8892   -0.0136    0.0012 C   0  0  0  0  0  0  0  0  0  0  0  0
  1 11  1  0
  1 12  1  0
  2  8  1  0
  3 11  2  0
  4  5  1  0
  4 11  1  0
  5  6  2  0
  5  7  1  0
  6  8  1  0
  7  9  2  0
  8 10  2  0
  9 10  1  0
M  END
>  <PUBCHEM_COMPOUND_CID>  (1) 
29878

>  <PUBCHEM_CONFORMER_RMSD>  (1) 
0.6

>  <PUBCHEM_CONFORMER_DIVERSEORDER>  (1) 
1
22
23
17
27
15
12
25
18
13
24
20
26
16
21
2
10
3
6
19
8
14
4
7
11
5
9

>  <PUBCHEM_MMFF94_PARTIAL_CHARGES>  (1) 
18
1 -0.37
10 -0.15
11 0.77
12 0.23
13 0.15
14 0.15
15 0.15
16 0.37
17 0.15
18 0.45
2 -0.53
3 -0.57
4 -0.55
5 0.12
6 -0.15
7 -0.15
8 0.08
9 -0.15

>  <PUBCHEM_EFFECTIVE_ROTOR_COUNT>  (1) 
3

>  <PUBCHEM_PHARMACOPHORE_FEATURES>  (1) 
4
1 12 hydrophobe
1 2 donor
1 4 donor
6 5 6 7 8 9 10 rings

>  <PUBCHEM_HEAVY_ATOM_COUNT>  (1) 
12

>  <PUBCHEM_ATOM_DEF_STEREO_COUNT>  (1) 
0

>  <PUBCHEM_ATOM_UDEF_STEREO_COUNT>  (1) 
0

>  <PUBCHEM_BOND_DEF_STEREO_COUNT>  (1) 
0

>  <PUBCHEM_BOND_UDEF_STEREO_COUNT>  (1) 
0

>  <PUBCHEM_ISOTOPIC_ATOM_COUNT>  (1) 
0

>  <PUBCHEM_COMPONENT_COUNT>  (1) 
1

>  <PUBCHEM_CACTVS_TAUTO_COUNT>  (1) 
13

>  <PUBCHEM_CONFORMER_ID>  (1) 
000074B600000001

>  <PUBCHEM_MMFF94_ENERGY>  (1) 
26.5156

>  <PUBCHEM_FEATURE_SELFOVERLAP>  (1) 
20.297

>  <PUBCHEM_SHAPE_FINGERPRINT>  (1) 
10219947 1 18272936028728243790
10608611 8 18408317813457100293
11471102 20 18410290328431645965
12032990 46 18339928121452864182
12932764 1 17489300940427683413
14144814 61 18412546517759891067
14251717 144 18411135848494334679
14252887 29 18131073693281972622
14325111 11 18410855494741192197
15442244 35 18339927000133993200
15477762 27 18411701006213751566
18186145 218 17822282514072849271
18522853 276 18343017791786431049
200 152 18131063849274517295
20201158 50 18409168805160034859
20645477 70 18411980260814020967
20871998 22 18199754635523829462
21501925 9 18411128139391697586
221490 88 18263370350607611859
22485316 2 18271241720407573767
23402539 116 17917139521263636005
23402655 69 18412260649295582213
5104073 3 18411419544454220571
522135 26 18408042922300906767
7364860 26 18270962457360431448
8809292 202 18259990400482600027

>  <PUBCHEM_SHAPE_MULTIPOLES>  (1) 
234.08
7.65
1.54
0.6
6.63
0.2
0
-1.34
0
-0.85
0
0.03
0
0

>  <PUBCHEM_SHAPE_SELFOVERLAP>  (1) 
467.613

>  <PUBCHEM_SHAPE_VOLUME>  (1) 
139.3

>  <PUBCHEM_COORDINATE_TYPE>  (1) 
2
5
10

$$$$
