29874
     RDKit          3D

 18 18  0  0  0  0  0  0  0  0999 V2000
    3.3163   -0.1124    0.9233 O   0  0  0  0  0  0  0  0  0  0  0  0
   -3.6332   -0.5173    0.0641 O   0  0  0  0  0  0  0  0  0  0  0  0
   -2.9475    1.5899   -0.5013 O   0  0  0  0  0  0  0  0  0  0  0  0
    3.5913   -0.7834   -1.2858 O   0  0  0  0  0  0  0  0  0  0  0  0
   -1.4356   -0.0486    0.2268 N   0  0  0  0  0  0  0  0  0  0  0  0
    5.1045   -1.4305    0.3494 N   0  0  0  0  0  0  0  0  0  0  0  0
   -0.1990    0.5968    0.1983 C   0  0  0  0  0  0  0  0  0  0  0  0
    0.9545   -0.0893    0.5787 C   0  0  0  0  0  0  0  0  0  0  0  0
    2.1907    0.5564    0.5519 C   0  0  0  0  0  0  0  0  0  0  0  0
   -0.1162    1.9283   -0.2089 C   0  0  0  0  0  0  0  0  0  0  0  0
    2.2733    1.8880    0.1445 C   0  0  0  0  0  0  0  0  0  0  0  0
    1.1199    2.5740   -0.2358 C   0  0  0  0  0  0  0  0  0  0  0  0
   -2.6883    0.4586   -0.1095 C   0  0  0  0  0  0  0  0  0  0  0  0
    3.9802   -0.7843   -0.1215 C   0  0  0  0  0  0  0  0  0  0  0  0
    5.9902   -2.2049   -0.4885 C   0  0  0  0  0  0  0  0  0  0  0  0
   -4.9828   -0.1475   -0.2418 C   0  0  0  0  0  0  0  0  0  0  0  0
   -5.8873   -1.2751   -0.0148 C   0  0  0  0  0  0  0  0  0  0  0  0
   -6.6310   -2.1988    0.1710 C   0  0  0  0  0  0  0  0  0  0  0  0
  1  9  1  0
  1 14  1  0
  2 13  1  0
  2 16  1  0
  3 13  2  0
  4 14  2  0
  5  7  1  0
  5 13  1  0
  6 14  1  0
  6 15  1  0
  7  8  2  0
  7 10  1  0
  8  9  1  0
  9 11  2  0
 10 12  2  0
 11 12  1  0
 16 17  1  0
 17 18  3  0
M  END
>  <PUBCHEM_COMPOUND_CID>  (1) 
29874

>  <PUBCHEM_CONFORMER_RMSD>  (1) 
0.8

>  <PUBCHEM_CONFORMER_DIVERSEORDER>  (1) 
1
158
128
252
143
146
63
81
177
130
243
51
247
250
174
192
172
253
41
70
97
147
166
127
224
90
57
167
262
248
164
16
226
179
145
184
140
234
213
233
131
255
155
114
240
245
205
142
120
223
227
199
39
83
49
169
194
137
191
48
141
206
259
249
161
183
124
80
197
133
185
163
215
56
212
44
106
129
244
209
187
265
260
180
225
157
264
214
59
126
111
78
173
268
261
21
159
246
210
119
84
237
76
150
36
181
100
103
217
202
231
45
95
160
230
151
23
168
236
216
242
102
203
37
235
10
110
201
232
121
258
186
19
267
204
61
176
149
132
86
239
92
182
220
266
134
188
101
256
107
136
30
144
35
93
190
211
154
241
218
193
85
221
229
7
17
115
26
117
77
79
47
156
108
14
228
178
263
28
58
222
254
29
175
64
200
82
122
9
25
162
198
257
238
40
43
165
62
53
60
73
96
104
67
50
22
99
24
208
171
152
271
170
31
153
251
88
189
32
94
42
105
12
54
5
109
55
72
98
74
123
34
18
125
116
195
27
138
15
33
196
91
112
207
46
68
38
20
69
139
8
52
113
270
75
269
4
87
118
219
135
89
71
13
3
2
148
65
11
66
6

>  <PUBCHEM_MMFF94_PARTIAL_CHARGES>  (1) 
25
1 -0.23
10 -0.15
11 -0.15
12 -0.15
13 0.78
14 0.78
15 0.3
16 0.48
17 -0.2
18 -0.18
19 0.15
2 -0.43
20 0.15
21 0.15
22 0.15
23 0.37
24 0.37
3 -0.57
30 0.18
4 -0.57
5 -0.55
6 -0.73
7 0.12
8 -0.15
9 0.08

>  <PUBCHEM_EFFECTIVE_ROTOR_COUNT>  (1) 
7

>  <PUBCHEM_PHARMACOPHORE_FEATURES>  (1) 
6
1 18 hydrophobe
1 3 acceptor
1 4 acceptor
1 5 donor
1 6 donor
6 7 8 9 10 11 12 rings

>  <PUBCHEM_HEAVY_ATOM_COUNT>  (1) 
18

>  <PUBCHEM_ATOM_DEF_STEREO_COUNT>  (1) 
0

>  <PUBCHEM_ATOM_UDEF_STEREO_COUNT>  (1) 
0

>  <PUBCHEM_BOND_DEF_STEREO_COUNT>  (1) 
0

>  <PUBCHEM_BOND_UDEF_STEREO_COUNT>  (1) 
0

>  <PUBCHEM_ISOTOPIC_ATOM_COUNT>  (1) 
0

>  <PUBCHEM_COMPONENT_COUNT>  (1) 
1

>  <PUBCHEM_CACTVS_TAUTO_COUNT>  (1) 
4

>  <PUBCHEM_CONFORMER_ID>  (1) 
000074B200000001

>  <PUBCHEM_MMFF94_ENERGY>  (1) 
42.2816

>  <PUBCHEM_FEATURE_SELFOVERLAP>  (1) 
30.446

>  <PUBCHEM_SHAPE_FINGERPRINT>  (1) 
10366900 7 17095520699811461185
117890 112 9871749096094720643
12032990 46 18410571769033125256
12916754 54 18410575106818904249
13533116 47 18271807990344322065
13685833 64 18413389838736001227
13740256 8 18410576167232227332
13862211 1 18334573508521258906
13955234 65 18127687338791049728
14123256 34 18411705374069248311
14178000 29 18409731750997836972
14251764 30 18408322159579038118
14350574 20 18333731334021646599
14528608 73 11602816921979473115
14576447 43 18186798050462646378
17980427 23 12535046642586248697
18222031 100 18408037411931751776
193927 3 18343028791440145559
19784866 240 18341618109542518345
20028762 73 18272367620325921223
20374829 77 18337952269172113280
20388580 30 18334580156972403388
20645477 70 18335135449030478913
21267235 1 18409733963006078275
21682296 61 18342181042395802239
23402539 116 18190740839373005268
23522609 53 18121252893909097749
23559900 14 18261669393872688025
29717793 49 18341044212239744621
312423 11 18337964471301405873
465052 167 18343587351821251510
5104073 3 18131071541424165473
5718773 13 18266173942767653754
59682541 35 18272639161833820346
77188 2 18413107268812448048
7970288 3 18410854330563189426
8863177 126 18042697280866777891

>  <PUBCHEM_SHAPE_MULTIPOLES>  (1) 
336.99
14.55
2.46
0.78
12.47
0.34
0.04
-15.17
0.95
-1.15
0.29
-0.48
-0.06
0.72

>  <PUBCHEM_SHAPE_SELFOVERLAP>  (1) 
689.832

>  <PUBCHEM_SHAPE_VOLUME>  (1) 
191.1

>  <PUBCHEM_COORDINATE_TYPE>  (1) 
2
5
10

$$$$
