29898
     RDKit          3D

 11 12  0  0  0  0  0  0  0  0999 V2000
    2.8090    0.2989    0.0382 S   0  0  0  0  0  0  0  0  0  0  0  0
   -3.1658   -1.0000    0.0107 O   0  0  0  0  0  0  0  0  0  0  0  0
   -1.8264   -1.3888   -0.0392 N   0  0  0  0  0  0  0  0  0  0  0  0
   -0.7947    2.1354   -0.3915 C   0  0  0  0  0  0  0  0  0  0  0  0
    0.6367    2.0673    0.1610 C   0  0  0  0  0  0  0  0  0  0  0  0
   -1.6956    1.0549    0.2162 C   0  0  0  0  0  0  0  0  0  0  0  0
    1.1462    0.6622    0.0712 C   0  0  0  0  0  0  0  0  0  0  0  0
    0.3519   -0.4673    0.0183 C   0  0  0  0  0  0  0  0  0  0  0  0
   -1.0932   -0.3282    0.0441 C   0  0  0  0  0  0  0  0  0  0  0  0
    1.1403   -1.6538   -0.0658 C   0  0  0  0  0  0  0  0  0  0  0  0
    2.4917   -1.3806   -0.0631 C   0  0  0  0  0  0  0  0  0  0  0  0
  1  7  1  0
  1 11  1  0
  2  3  1  0
  3  9  2  0
  4  5  1  0
  4  6  1  0
  5  7  1  0
  6  9  1  0
  7  8  2  0
  8  9  1  0
  8 10  1  0
 10 11  2  0
M  END
>  <PUBCHEM_COMPOUND_CID>  (1) 
29898

>  <PUBCHEM_CONFORMER_RMSD>  (1) 
0.4

>  <PUBCHEM_CONFORMER_DIVERSEORDER>  (1) 
1

>  <PUBCHEM_MMFF94_PARTIAL_CHARGES>  (1) 
13
1 -0.08
10 -0.15
11 -0.11
18 0.15
19 0.15
2 -0.34
20 0.4
3 -0.51
5 0.18
6 0.06
7 -0.14
8 -0.09
9 0.47

>  <PUBCHEM_EFFECTIVE_ROTOR_COUNT>  (1) 
0.6

>  <PUBCHEM_PHARMACOPHORE_FEATURES>  (1) 
4
1 2 anion
1 3 acceptor
5 1 7 8 10 11 rings
6 4 5 6 7 8 9 rings

>  <PUBCHEM_HEAVY_ATOM_COUNT>  (1) 
11

>  <PUBCHEM_ATOM_DEF_STEREO_COUNT>  (1) 
0

>  <PUBCHEM_ATOM_UDEF_STEREO_COUNT>  (1) 
0

>  <PUBCHEM_BOND_DEF_STEREO_COUNT>  (1) 
0

>  <PUBCHEM_BOND_UDEF_STEREO_COUNT>  (1) 
1

>  <PUBCHEM_ISOTOPIC_ATOM_COUNT>  (1) 
0

>  <PUBCHEM_COMPONENT_COUNT>  (1) 
1

>  <PUBCHEM_CACTVS_TAUTO_COUNT>  (1) 
2

>  <PUBCHEM_CONFORMER_ID>  (1) 
000074CA00000001

>  <PUBCHEM_MMFF94_ENERGY>  (1) 
16.8512

>  <PUBCHEM_FEATURE_SELFOVERLAP>  (1) 
20.353

>  <PUBCHEM_SHAPE_FINGERPRINT>  (1) 
11206711 2 18408887321508740588
12524768 44 18125444111668218054
12897270 3 18410292501790657774
161256 15 18340203085048170432
16945 1 18339923830479634208
18185500 45 18411421738728755774
193761 8 18338516322631696132
19973954 147 18266741290344644492
20201158 50 18335697290755860731
20871998 184 18129377111873680918
20871998 22 18341905081740186439
21040471 1 17761491392103693568
21501502 16 18338237055336513568
2334 1 18411136913788408466
23552423 10 18188778245113289878
23559900 14 17622727523659622454
241688 4 18409167679730813040
2748010 2 18339921519945465150
5084963 1 18202005472932134690
66348 1 18122065561559950768

>  <PUBCHEM_SHAPE_MULTIPOLES>  (1) 
219.37
3.7
2.25
0.63
0.01
0.61
0
-1.31
-0.02
0.44
0.09
-0.04
0.06
0.1

>  <PUBCHEM_SHAPE_SELFOVERLAP>  (1) 
454.484

>  <PUBCHEM_SHAPE_VOLUME>  (1) 
127.5

>  <PUBCHEM_COORDINATE_TYPE>  (1) 
2
5
10

$$$$
