29899
     RDKit          3D

 17 19  0  0  0  0  0  0  0  0999 V2000
   -0.0002    3.3288    0.3210 Cl  0  0  0  0  0  0  0  0  0  0  0  0
    0.0004   -3.4916    1.1367 Cl  0  0  0  0  0  0  0  0  0  0  0  0
    0.0000   -1.1801   -0.2480 C   0  0  0  0  0  0  0  0  0  0  0  0
   -1.2251   -0.4979   -0.1616 C   0  0  0  0  0  0  0  0  0  0  0  0
    1.2251   -0.4978   -0.1616 C   0  0  0  0  0  0  0  0  0  0  0  0
   -1.2251    0.9030    0.0156 C   0  0  0  0  0  0  0  0  0  0  0  0
    1.2250    0.9031    0.0158 C   0  0  0  0  0  0  0  0  0  0  0  0
    0.0000    1.5853    0.1020 C   0  0  0  0  0  0  0  0  0  0  0  0
   -2.4504   -1.1795   -0.2478 C   0  0  0  0  0  0  0  0  0  0  0  0
    2.4505   -1.1792   -0.2478 C   0  0  0  0  0  0  0  0  0  0  0  0
    0.0001   -2.6732   -0.4364 C   0  0  0  0  0  0  0  0  0  0  0  0
   -2.4506    1.5844    0.1020 C   0  0  0  0  0  0  0  0  0  0  0  0
    2.4503    1.5846    0.1021 C   0  0  0  0  0  0  0  0  0  0  0  0
   -3.6586   -0.4877   -0.1603 C   0  0  0  0  0  0  0  0  0  0  0  0
    3.6587   -0.4873   -0.1604 C   0  0  0  0  0  0  0  0  0  0  0  0
   -3.6586    0.8925    0.0144 C   0  0  0  0  0  0  0  0  0  0  0  0
    3.6585    0.8928    0.0142 C   0  0  0  0  0  0  0  0  0  0  0  0
  1  8  1  0
  2 11  1  0
  3  4  2  0
  3  5  1  0
  3 11  1  0
  4  6  1  0
  4  9  1  0
  5  7  2  0
  5 10  1  0
  6  8  2  0
  6 12  1  0
  7  8  1  0
  7 13  1  0
  9 14  2  0
 10 15  2  0
 12 16  2  0
 13 17  2  0
 14 16  1  0
 15 17  1  0
M  END
>  <PUBCHEM_COMPOUND_CID>  (1) 
29899

>  <PUBCHEM_CONFORMER_RMSD>  (1) 
0.6

>  <PUBCHEM_CONFORMER_DIVERSEORDER>  (1) 
1

>  <PUBCHEM_MMFF94_PARTIAL_CHARGES>  (1) 
21
1 -0.18
10 -0.15
11 0.43
12 -0.15
13 -0.15
14 -0.15
15 -0.15
16 -0.15
17 -0.15
18 0.15
19 0.15
2 -0.29
22 0.15
23 0.15
24 0.15
25 0.15
26 0.15
27 0.15
3 -0.14
8 0.18
9 -0.15

>  <PUBCHEM_EFFECTIVE_ROTOR_COUNT>  (1) 
1

>  <PUBCHEM_PHARMACOPHORE_FEATURES>  (1) 
3
6 3 4 5 6 7 8 rings
6 4 6 9 12 14 16 rings
6 5 7 10 13 15 17 rings

>  <PUBCHEM_HEAVY_ATOM_COUNT>  (1) 
17

>  <PUBCHEM_ATOM_DEF_STEREO_COUNT>  (1) 
0

>  <PUBCHEM_ATOM_UDEF_STEREO_COUNT>  (1) 
0

>  <PUBCHEM_BOND_DEF_STEREO_COUNT>  (1) 
0

>  <PUBCHEM_BOND_UDEF_STEREO_COUNT>  (1) 
0

>  <PUBCHEM_ISOTOPIC_ATOM_COUNT>  (1) 
0

>  <PUBCHEM_COMPONENT_COUNT>  (1) 
1

>  <PUBCHEM_CACTVS_TAUTO_COUNT>  (1) 
1

>  <PUBCHEM_CONFORMER_ID>  (1) 
000074CB00000001

>  <PUBCHEM_MMFF94_ENERGY>  (1) 
64.7545

>  <PUBCHEM_FEATURE_SELFOVERLAP>  (1) 
15.274

>  <PUBCHEM_SHAPE_FINGERPRINT>  (1) 
10382601 240 17981348715060170953
10411042 1 15745846370218951740
10608611 8 18413103974366179860
108231 29 18343022237098798361
10967382 1 18411982455256939734
11132069 177 18342451534745082424
11471102 20 18412258407285723917
11680986 33 17835237127026495545
13140716 1 18411419466643629273
13380535 76 18340768229903998942
14178342 30 17907287759502757200
14614273 12 18188767228490715933
14790565 3 18339377300171394145
15196674 1 18412825784965292396
15309172 13 18410581686244103913
15442244 35 18051975822905912922
15536298 74 18273495671904941836
16945 1 17346881151968555149
18186145 218 18411139108495533068
193761 8 17691125937570388956
19591789 44 18410857650656941503
20028762 73 18057045933405990599
20510252 161 18272088271162271576
20511035 2 17841429550950041572
20645476 183 18042140906096277766
20645477 70 18269832013504459287
20905425 154 17982170015601674302
21267235 1 18341059561513999903
21421861 104 17829616058787222785
21501502 16 17762900961536297537
21524375 3 18412261735526850983
21634736 98 17841414132149311815
2334 1 18411982493906520045
23402539 116 18272359889225454460
23419403 2 15969261393862339493
23463225 33 18410573968130045468
23559900 14 18272370876458763548
25 1 18410291380788408295
2748010 2 18412263943113472476
2871803 45 18410847768464389623
335352 9 17980200785875767868
34934 24 18269548348009946885
43471831 8 18263923250342867786
5104073 3 18412825784970418569
528886 8 18413102849010492625
54173680 148 18048880998126586738
58807428 26 18338230471051546050
589210 1 17690561205184421312
7364860 26 18124313800756609599
81228 2 17832974319369964147
8809292 202 18337392772108887754
9709674 26 18270122456214901070

>  <PUBCHEM_SHAPE_MULTIPOLES>  (1) 
353.59
5.48
3.44
0.74
0
0.93
0.09
-0.99
-0.38
0
0.88
0
0.3
0

>  <PUBCHEM_SHAPE_SELFOVERLAP>  (1) 
774.881

>  <PUBCHEM_SHAPE_VOLUME>  (1) 
183.3

>  <PUBCHEM_COORDINATE_TYPE>  (1) 
2
5
10

$$$$
