29903
     RDKit          3D

 24 26  0  0  1  0  0  0  0  0999 V2000
    0.4613   -1.7462    0.2273 O   0  0  0  0  0  0  0  0  0  0  0  0
   -3.5701   -1.4435   -0.5855 N   0  0  0  0  0  0  0  0  0  0  0  0
   -0.4489    0.3118   -0.5120 N   0  0  0  0  0  0  0  0  0  0  0  0
    1.8797    0.0244   -0.2742 N   0  0  0  0  0  0  0  0  0  0  0  0
   -1.6833   -0.1658   -1.0721 C   0  0  0  0  0  0  0  0  0  0  0  0
   -1.5404   -1.5296   -1.7521 C   0  0  0  0  0  0  0  0  0  0  0  0
   -2.7602   -0.3687   -0.0111 C   0  0  0  0  0  0  0  0  0  0  0  0
   -2.6002   -2.4104   -1.1007 C   0  0  0  0  0  0  0  0  0  0  0  0
   -4.4789   -2.0336    0.3864 C   0  0  0  0  0  0  0  0  0  0  0  0
   -0.3121    1.7437   -0.2238 C   0  0  0  0  0  0  0  0  0  0  0  0
    0.6248   -0.5843   -0.1485 C   0  0  0  0  0  0  0  0  0  0  0  0
   -5.4633   -1.0295    0.9018 C   0  0  0  0  0  0  0  0  0  0  0  0
    0.4365    2.0961    0.8561 C   0  0  0  0  0  0  0  0  0  0  0  0
   -0.9431    2.6127   -1.0587 C   0  0  0  0  0  0  0  0  0  0  0  0
    0.5673    3.4577    1.1293 C   0  0  0  0  0  0  0  0  0  0  0  0
   -0.8122    3.9743   -0.7856 C   0  0  0  0  0  0  0  0  0  0  0  0
   -5.5865   -0.6970    2.1920 C   0  0  0  0  0  0  0  0  0  0  0  0
    3.1477   -0.5463   -0.0070 C   0  0  0  0  0  0  0  0  0  0  0  0
   -0.0570    4.3968    0.3084 C   0  0  0  0  0  0  0  0  0  0  0  0
    4.2869    0.2187   -0.1919 C   0  0  0  0  0  0  0  0  0  0  0  0
    3.2202   -1.8566    0.4341 C   0  0  0  0  0  0  0  0  0  0  0  0
    5.5359   -0.3434    0.0723 C   0  0  0  0  0  0  0  0  0  0  0  0
    4.4692   -2.4188    0.6984 C   0  0  0  0  0  0  0  0  0  0  0  0
    5.6270   -1.6622    0.5175 C   0  0  0  0  0  0  0  0  0  0  0  0
  1 11  2  0
  2  7  1  0
  2  8  1  0
  2  9  1  0
  3  5  1  0
  3 10  1  0
  3 11  1  0
  4 11  1  0
  4 18  1  0
  5  6  1  0
  5  7  1  0
  6  8  1  0
  9 12  1  0
 10 13  2  0
 10 14  1  0
 12 17  2  0
 13 15  1  0
 14 16  2  0
 15 19  2  0
 16 19  1  0
 18 20  2  0
 18 21  1  0
 20 22  1  0
 21 23  2  0
 22 24  2  0
 23 24  1  0
M  END
>  <PUBCHEM_COMPOUND_CID>  (1) 
29903

>  <PUBCHEM_CONFORMER_RMSD>  (1) 
0.8

>  <PUBCHEM_CONFORMER_DIVERSEORDER>  (1) 
4
133
212
115
312
162
124
269
321
51
183
159
131
164
241
151
21
180
317
295
233
172
208
207
281
234
285
125
173
73
196
209
258
138
326
300
140
145
72
320
152
289
185
63
118
223
204
139
201
33
99
226
92
282
210
193
294
94
309
248
126
42
216
200
88
189
293
70
298
142
39
85
27
86
174
113
55
255
89
23
64
137
203
191
240
273
116
245
186
239
324
275
227
176
80
149
69
327
161
165
266
61
190
287
214
256
66
91
304
253
47
296
38
77
50
268
153
9
280
146
49
17
187
249
100
299
319
305
25
87
57
243
231
301
272
261
158
260
303
221
32
141
96
195
68
302
105
247
181
2
314
306
217
170
229
22
323
279
171
147
259
110
177
169
263
276
107
202
14
168
31
122
83
286
111
103
108
246
199
8
163
121
24
232
179
284
213
211
67
254
112
30
182
307
93
238
157
106
167
7
205
117
267
291
274
71
219
44
143
292
194
184
41
136
52
18
228
123
74
236
325
160
270
132
16
53
218
318
104
224
315
290
311
144
251
120
130
15
206
75
54
84
155
297
252
6
109
222
198
188
277
97
215
257
1
58
101
175
90
43
278
265
10
134
19
62
310
178
192
34
244
36
271
148
150
166
46
119
98
237
81
26
262
76
3
95
250
48
29
225
12
313
13
322
235
56
127
45
11
79
59
129
37
264
60
28
197
20
65
5
220
288
78
114
102
308
82
128
230
283
40
135
242
35
156
316
154

>  <PUBCHEM_MMFF94_PARTIAL_CHARGES>  (1) 
37
1 -0.57
10 0.12
11 0.69
12 -0.29
13 -0.15
14 -0.15
15 -0.15
16 -0.15
17 -0.3
18 0.12
19 -0.15
2 -0.81
20 -0.15
21 -0.15
22 -0.15
23 -0.15
24 -0.15
3 -0.48
34 0.15
35 0.15
36 0.15
37 0.37
38 0.15
39 0.15
4 -0.55
40 0.15
41 0.15
42 0.15
43 0.15
44 0.15
45 0.15
46 0.15
47 0.15
5 0.3
7 0.27
8 0.27
9 0.41

>  <PUBCHEM_EFFECTIVE_ROTOR_COUNT>  (1) 
8

>  <PUBCHEM_PHARMACOPHORE_FEATURES>  (1) 
7
1 1 acceptor
1 17 hydrophobe
1 2 cation
1 4 donor
5 2 5 6 7 8 rings
6 10 13 14 15 16 19 rings
6 18 20 21 22 23 24 rings

>  <PUBCHEM_HEAVY_ATOM_COUNT>  (1) 
24

>  <PUBCHEM_ATOM_DEF_STEREO_COUNT>  (1) 
0

>  <PUBCHEM_ATOM_UDEF_STEREO_COUNT>  (1) 
1

>  <PUBCHEM_BOND_DEF_STEREO_COUNT>  (1) 
0

>  <PUBCHEM_BOND_UDEF_STEREO_COUNT>  (1) 
0

>  <PUBCHEM_ISOTOPIC_ATOM_COUNT>  (1) 
0

>  <PUBCHEM_COMPONENT_COUNT>  (1) 
1

>  <PUBCHEM_CACTVS_TAUTO_COUNT>  (1) 
2

>  <PUBCHEM_CONFORMER_ID>  (1) 
000074CF00000004

>  <PUBCHEM_MMFF94_ENERGY>  (1) 
97.0486

>  <PUBCHEM_FEATURE_SELFOVERLAP>  (1) 
35.521

>  <PUBCHEM_SHAPE_FINGERPRINT>  (1) 
10688039 33 18260830384242195141
10764073 3 15837087701138960477
11045515 52 18260822709315102444
11049842 53 14639592098691086639
12107183 9 18342186579056572499
12422481 6 18057901155534744467
12516196 113 18409449214879595067
12553582 1 18340472448365020526
12788726 201 18337118877970994326
13004483 165 18411695469853051698
13103583 49 18343032111740542275
13140716 1 18341046333120697416
13257819 101 13470136137998521203
13540713 5 17699852027817705063
13583140 156 17343751857021408026
13590594 115 18410577301599959617
138480 1 15242851986337322340
14466204 15 18341058415675422001
14739800 52 16699202991947166857
14790565 3 17617377724225792860
14955137 171 18339655528437055055
15042514 8 18267023864495658653
15527383 91 18411141381008051107
15927050 60 17548140382128739942
17492 89 18265329500594290562
17980427 23 17489591195024357549
17980427 26 17695059294527637533
1813 80 18342186591007726286
18785283 64 17829890193411908721
20600515 1 17846226586895519951
20739085 24 18341620376910905569
21029758 27 18411698811421971583
21041028 32 18410857676716798333
21049683 271 18117282668889265044
21304253 13 18272373083323231449
22182313 1 18121468445010555277
22849341 161 18341064002942746233
22950370 63 18410575119160513046
23366157 5 17905604754728921277
23558518 356 18045788888457304818
23559900 14 18192419999893057511
23598288 3 18123173624626167574
23845131 108 17477211526845339953
25147074 1 17700977910518252823
283562 15 18262233314145989426
2838139 119 12391519641929489747
3091708 16 9568995313875235268
3421961 26 18266456692726438089
352729 6 17838321987476498428
4409770 3 18191857925796369501
458136 41 17614846640179252885
469060 322 18336839597685805056
5104073 3 18267853996703097162
513202 73 18194976140308908178
59444896 2 17835286450473952329
6009941 240 17531248306192798235
621550 5 17821444690401794501
69474 34 18342176687388017797
7097593 13 18055350490600894143
7164475 11 18338794508280558798
79837 15 17548696283872361312

>  <PUBCHEM_SHAPE_MULTIPOLES>  (1) 
473.1
10.9
4.6
1.33
3
6.68
0.15
-11.45
4.87
-0.64
0.07
-1.67
-0.15
-0.15

>  <PUBCHEM_SHAPE_SELFOVERLAP>  (1) 
1007.955

>  <PUBCHEM_SHAPE_VOLUME>  (1) 
262.4

>  <PUBCHEM_COORDINATE_TYPE>  (1) 
2
5
10

$$$$
