29905
     RDKit          3D

 11 12  0  0  1  0  0  0  0  0999 V2000
    0.6863   -1.3116   -0.0628 O   0  0  0  0  0  0  0  0  0  0  0  0
    3.8885    0.5693    0.0387 N   0  0  0  0  0  0  0  0  0  0  0  0
    1.6116   -0.2433   -0.3961 C   0  0  0  0  0  0  0  0  0  0  0  0
    0.9678    1.1023   -0.0273 C   0  0  0  0  0  0  0  0  0  0  0  0
   -0.4540    0.6921   -0.0333 C   0  0  0  0  0  0  0  0  0  0  0  0
   -0.5364   -0.6917   -0.0280 C   0  0  0  0  0  0  0  0  0  0  0  0
    2.9232   -0.4817    0.3341 C   0  0  0  0  0  0  0  0  0  0  0  0
   -1.5957    1.4709    0.0158 C   0  0  0  0  0  0  0  0  0  0  0  0
   -1.7482   -1.3525    0.0292 C   0  0  0  0  0  0  0  0  0  0  0  0
   -2.8338    0.8245    0.0608 C   0  0  0  0  0  0  0  0  0  0  0  0
   -2.9093   -0.5784    0.0690 C   0  0  0  0  0  0  0  0  0  0  0  0
  1  3  1  0
  1  6  1  0
  2  7  1  0
  3  4  1  0
  3  7  1  0
  4  5  1  0
  5  6  2  0
  5  8  1  0
  6  9  1  0
  8 10  2  0
  9 11  2  0
 10 11  1  0
M  END
>  <PUBCHEM_COMPOUND_CID>  (1) 
29905

>  <PUBCHEM_CONFORMER_RMSD>  (1) 
0.4

>  <PUBCHEM_CONFORMER_DIVERSEORDER>  (1) 
1
4
3
2
5

>  <PUBCHEM_MMFF94_PARTIAL_CHARGES>  (1) 
17
1 -0.36
10 -0.15
11 -0.15
17 0.15
18 0.15
19 0.15
2 -0.99
20 0.15
21 0.36
22 0.36
3 0.28
4 0.14
5 -0.14
6 0.08
7 0.27
8 -0.15
9 -0.15

>  <PUBCHEM_EFFECTIVE_ROTOR_COUNT>  (1) 
1.6

>  <PUBCHEM_PHARMACOPHORE_FEATURES>  (1) 
5
1 1 acceptor
1 2 cation
1 2 donor
5 1 3 4 5 6 rings
6 5 6 8 9 10 11 rings

>  <PUBCHEM_HEAVY_ATOM_COUNT>  (1) 
11

>  <PUBCHEM_ATOM_DEF_STEREO_COUNT>  (1) 
0

>  <PUBCHEM_ATOM_UDEF_STEREO_COUNT>  (1) 
1

>  <PUBCHEM_BOND_DEF_STEREO_COUNT>  (1) 
0

>  <PUBCHEM_BOND_UDEF_STEREO_COUNT>  (1) 
0

>  <PUBCHEM_ISOTOPIC_ATOM_COUNT>  (1) 
0

>  <PUBCHEM_COMPONENT_COUNT>  (1) 
1

>  <PUBCHEM_CACTVS_TAUTO_COUNT>  (1) 
1

>  <PUBCHEM_CONFORMER_ID>  (1) 
000074D100000001

>  <PUBCHEM_MMFF94_ENERGY>  (1) 
26.3405

>  <PUBCHEM_FEATURE_SELFOVERLAP>  (1) 
25.474

>  <PUBCHEM_SHAPE_FINGERPRINT>  (1) 
10857977 72 18412818105574193377
12032990 46 18411427201980163678
13024252 1 14707208812250247301
13380535 76 18411417272216261415
14144814 61 18408322172663886730
14325111 11 18410855434632742564
15219456 202 18059582334630923094
16945 1 18410863144104229271
193761 8 17618223252924472735
20201158 50 18342175557352838935
20645464 45 18060140920517574895
20871998 184 18201724002335242263
21040471 1 18266464200403013997
23235685 24 18340481184164671241
23402539 116 18271515460332723087
23402655 69 18196637520523477429
23463225 33 18334573491346384794
23552423 10 18116153444556090805
23559900 14 18342456998792705094
2748010 2 18123187067852360717
369184 2 18334292041712054091
5084963 1 18343585165687893041
528886 8 18411413999371735819
53812653 166 18343017765958585561
6333449 129 18342453738152826613
7364860 26 18125721188846922022
75552 356 18410293622571276651

>  <PUBCHEM_SHAPE_MULTIPOLES>  (1) 
215.52
5.03
1.45
0.63
3.03
0.03
0
0.28
0.32
-0.54
0.01
0.02
0
-0.02

>  <PUBCHEM_SHAPE_SELFOVERLAP>  (1) 
461.42

>  <PUBCHEM_SHAPE_VOLUME>  (1) 
120.9

>  <PUBCHEM_COORDINATE_TYPE>  (1) 
2
5
10

$$$$
