29917
     RDKit          3D

 13 14  0  0  1  0  0  0  0  0999 V2000
    1.8619   -1.9979   -0.7809 O   0  0  0  0  0  0  0  0  0  0  0  0
    2.4366   -0.7415    1.1189 N   0  0  0  0  0  0  0  0  0  0  0  0
    1.0627    0.2996   -0.0035 C   0  0  0  0  0  0  0  0  0  0  0  0
    1.8182    0.5615    1.3003 C   0  0  0  0  0  0  0  0  0  0  0  0
    1.3764    1.2472   -1.1283 C   0  0  0  0  0  0  0  0  0  0  0  0
    1.8125   -1.0334   -0.0526 C   0  0  0  0  0  0  0  0  0  0  0  0
   -0.4688    0.0592    0.0410 C   0  0  0  0  0  0  0  0  0  0  0  0
    0.7098    2.6060   -0.9401 C   0  0  0  0  0  0  0  0  0  0  0  0
   -1.0979   -0.6260   -0.9986 C   0  0  0  0  0  0  0  0  0  0  0  0
   -1.2174    0.5283    1.1206 C   0  0  0  0  0  0  0  0  0  0  0  0
   -2.4753   -0.8419   -0.9585 C   0  0  0  0  0  0  0  0  0  0  0  0
   -2.5948    0.3120    1.1607 C   0  0  0  0  0  0  0  0  0  0  0  0
   -3.2239   -0.3732    0.1212 C   0  0  0  0  0  0  0  0  0  0  0  0
  1  6  2  0
  2  4  1  0
  2  6  1  0
  3  4  1  0
  3  5  1  0
  3  6  1  0
  3  7  1  0
  5  8  1  0
  7  9  2  0
  7 10  1  0
  9 11  1  0
 10 12  2  0
 11 13  2  0
 12 13  1  0
M  END
>  <PUBCHEM_COMPOUND_CID>  (1) 
29917

>  <PUBCHEM_CONFORMER_RMSD>  (1) 
0.6

>  <PUBCHEM_CONFORMER_DIVERSEORDER>  (1) 
2
5
8
6
7
4
3
1

>  <PUBCHEM_MMFF94_PARTIAL_CHARGES>  (1) 
17
1 -0.57
10 -0.15
11 -0.15
12 -0.15
13 -0.15
18 0.37
2 -0.65
22 0.15
23 0.15
24 0.15
25 0.15
26 0.15
3 0.16
4 0.22
6 0.58
7 -0.11
9 -0.15

>  <PUBCHEM_EFFECTIVE_ROTOR_COUNT>  (1) 
2.6

>  <PUBCHEM_PHARMACOPHORE_FEATURES>  (1) 
5
1 1 acceptor
1 2 donor
1 8 hydrophobe
4 2 3 4 6 rings
6 7 9 10 11 12 13 rings

>  <PUBCHEM_HEAVY_ATOM_COUNT>  (1) 
13

>  <PUBCHEM_ATOM_DEF_STEREO_COUNT>  (1) 
0

>  <PUBCHEM_ATOM_UDEF_STEREO_COUNT>  (1) 
1

>  <PUBCHEM_BOND_DEF_STEREO_COUNT>  (1) 
0

>  <PUBCHEM_BOND_UDEF_STEREO_COUNT>  (1) 
0

>  <PUBCHEM_ISOTOPIC_ATOM_COUNT>  (1) 
0

>  <PUBCHEM_COMPONENT_COUNT>  (1) 
1

>  <PUBCHEM_CACTVS_TAUTO_COUNT>  (1) 
2

>  <PUBCHEM_CONFORMER_ID>  (1) 
000074DD00000002

>  <PUBCHEM_MMFF94_ENERGY>  (1) 
31.8979

>  <PUBCHEM_FEATURE_SELFOVERLAP>  (1) 
25.371

>  <PUBCHEM_SHAPE_FINGERPRINT>  (1) 
10219947 1 18262506083265792648
12326174 3 17968098667842633804
12932764 1 17704082806373317675
13538477 17 18059300988587497279
13839132 238 15913058598736158689
13898156 1 18059305369253769957
15775835 57 17704080589954006235
16945 1 17917417718478575738
20082192 1 18188201121646524403
20361792 2 18260546671613929334
20559304 39 18272940457145409657
20645476 183 18199761391554599223
20711985 344 17682391447485530088
21524375 3 17394181257606848076
22445834 79 17917428675093602763
23552423 10 18272093841755635007
3248919 1 18409166653734691547
369184 2 17275097319594538779
430814 3 17977966891807262644
5084963 1 18271254832768570771
7364860 26 18340494472825335044
8030462 33 17988648531665438575
81228 2 17681824116665954188

>  <PUBCHEM_SHAPE_MULTIPOLES>  (1) 
256.68
4.07
1.77
1.39
2.36
0.72
-0.17
-0.95
-0.55
-1.29
0.73
-0.02
0.12
-0.5

>  <PUBCHEM_SHAPE_SELFOVERLAP>  (1) 
546.033

>  <PUBCHEM_SHAPE_VOLUME>  (1) 
143

>  <PUBCHEM_COORDINATE_TYPE>  (1) 
2
5
10

$$$$
