29939
     RDKit          3D

 12 13  0  0  1  0  0  0  0  0999 V2000
    0.2225   -1.3432   -0.1144 O   0  0  0  0  0  0  0  0  0  0  0  0
    3.4604    0.4338   -0.2006 N   0  0  0  0  0  0  0  0  0  0  0  0
    1.1548   -0.3011   -0.5063 C   0  0  0  0  0  0  0  0  0  0  0  0
    0.5576    1.0643   -0.1317 C   0  0  0  0  0  0  0  0  0  0  0  0
   -0.8714    0.6861   -0.0647 C   0  0  0  0  0  0  0  0  0  0  0  0
    2.4922   -0.5573    0.1690 C   0  0  0  0  0  0  0  0  0  0  0  0
   -0.9834   -0.6954   -0.0330 C   0  0  0  0  0  0  0  0  0  0  0  0
   -1.9921    1.4910    0.0249 C   0  0  0  0  0  0  0  0  0  0  0  0
   -2.2053   -1.3276    0.0919 C   0  0  0  0  0  0  0  0  0  0  0  0
   -3.2405    0.8734    0.1388 C   0  0  0  0  0  0  0  0  0  0  0  0
   -3.3460   -0.5271    0.1735 C   0  0  0  0  0  0  0  0  0  0  0  0
    4.7511    0.2030    0.4526 C   0  0  0  0  0  0  0  0  0  0  0  0
  1  3  1  0
  1  7  1  0
  2  6  1  0
  2 12  1  0
  3  4  1  0
  3  6  1  0
  4  5  1  0
  5  7  2  0
  5  8  1  0
  7  9  1  0
  8 10  2  0
  9 11  2  0
 10 11  1  0
M  END
>  <PUBCHEM_COMPOUND_CID>  (1) 
29939

>  <PUBCHEM_CONFORMER_RMSD>  (1) 
0.6

>  <PUBCHEM_CONFORMER_DIVERSEORDER>  (1) 
1
3
5
2
4

>  <PUBCHEM_MMFF94_PARTIAL_CHARGES>  (1) 
17
1 -0.36
10 -0.15
11 -0.15
12 0.27
18 0.15
19 0.36
2 -0.9
20 0.15
21 0.15
22 0.15
3 0.28
4 0.14
5 -0.14
6 0.27
7 0.08
8 -0.15
9 -0.15

>  <PUBCHEM_EFFECTIVE_ROTOR_COUNT>  (1) 
2.6

>  <PUBCHEM_PHARMACOPHORE_FEATURES>  (1) 
5
1 1 acceptor
1 2 cation
1 2 donor
5 1 3 4 5 7 rings
6 5 7 8 9 10 11 rings

>  <PUBCHEM_HEAVY_ATOM_COUNT>  (1) 
12

>  <PUBCHEM_ATOM_DEF_STEREO_COUNT>  (1) 
0

>  <PUBCHEM_ATOM_UDEF_STEREO_COUNT>  (1) 
1

>  <PUBCHEM_BOND_DEF_STEREO_COUNT>  (1) 
0

>  <PUBCHEM_BOND_UDEF_STEREO_COUNT>  (1) 
0

>  <PUBCHEM_ISOTOPIC_ATOM_COUNT>  (1) 
0

>  <PUBCHEM_COMPONENT_COUNT>  (1) 
1

>  <PUBCHEM_CACTVS_TAUTO_COUNT>  (1) 
1

>  <PUBCHEM_CONFORMER_ID>  (1) 
000074F300000001

>  <PUBCHEM_MMFF94_ENERGY>  (1) 
28.2727

>  <PUBCHEM_FEATURE_SELFOVERLAP>  (1) 
25.474

>  <PUBCHEM_SHAPE_FINGERPRINT>  (1) 
10608611 8 18342175523082966144
11062470 55 18410575080373386382
11132069 177 18410575072015670812
11401426 45 18411131442290106949
12119455 92 17275099518654594334
12251169 10 18334859419813784712
12932764 1 17203598281573878446
13024252 1 13839983309603845261
13214271 11 18343861130026338748
13380535 76 18410857642114375831
14144814 61 18335702719494055802
14325111 11 18411139099963575004
15219456 202 18059300859580378934
15536298 74 18340486652133124018
16945 1 18337966622905324359
200 152 18060127761407634799
20510252 161 18272655597518367633
20645464 45 18059860562369465791
20871998 184 18201443618396269343
23402539 116 18341323466459978375
23402655 69 18197484148787597965
23463225 33 18333731286814001110
23552423 10 18115875272683517933
23559900 14 18342177705490738254
2748010 2 18049453543411039215
369184 2 18260267417293338875
43471831 8 18261391105181969186
53812653 166 18343300349100103584
6333449 129 18342454837733019693
7364860 26 18125440817692656726

>  <PUBCHEM_SHAPE_MULTIPOLES>  (1) 
236.1
6.85
1.38
0.65
6.98
0.03
0
0.54
1.04
-0.84
0
0.08
0
0.02

>  <PUBCHEM_SHAPE_SELFOVERLAP>  (1) 
498.645

>  <PUBCHEM_SHAPE_VOLUME>  (1) 
134.4

>  <PUBCHEM_COORDINATE_TYPE>  (1) 
2
5
10

$$$$
