29941
     RDKit          3D

 13 14  0  0  1  0  0  0  0  0999 V2000
   -0.3231   -1.4226   -0.1074 O   0  0  0  0  0  0  0  0  0  0  0  0
    3.0331    0.1180   -0.2227 N   0  0  0  0  0  0  0  0  0  0  0  0
    0.6791   -0.4522   -0.5109 C   0  0  0  0  0  0  0  0  0  0  0  0
    0.1829    0.9545   -0.1421 C   0  0  0  0  0  0  0  0  0  0  0  0
    1.9988   -0.7992    0.1584 C   0  0  0  0  0  0  0  0  0  0  0  0
   -1.2694    0.6798   -0.0689 C   0  0  0  0  0  0  0  0  0  0  0  0
   -1.4796   -0.6900   -0.0273 C   0  0  0  0  0  0  0  0  0  0  0  0
   -2.3296    1.5634    0.0178 C   0  0  0  0  0  0  0  0  0  0  0  0
   -2.7430   -1.2324    0.1050 C   0  0  0  0  0  0  0  0  0  0  0  0
    4.3078   -0.2009    0.4247 C   0  0  0  0  0  0  0  0  0  0  0  0
   -3.6184    1.0372    0.1387 C   0  0  0  0  0  0  0  0  0  0  0  0
   -3.8235   -0.3520    0.1838 C   0  0  0  0  0  0  0  0  0  0  0  0
    5.3848    0.7964    0.0509 C   0  0  0  0  0  0  0  0  0  0  0  0
  1  3  1  0
  1  7  1  0
  2  5  1  0
  2 10  1  0
  3  4  1  0
  3  5  1  0
  4  6  1  0
  6  7  2  0
  6  8  1  0
  7  9  1  0
  8 11  2  0
  9 12  2  0
 10 13  1  0
 11 12  1  0
M  END
>  <PUBCHEM_COMPOUND_CID>  (1) 
29941

>  <PUBCHEM_CONFORMER_RMSD>  (1) 
0.6

>  <PUBCHEM_CONFORMER_DIVERSEORDER>  (1) 
1
6
10
11
5
12
9
3
7
2
4
8

>  <PUBCHEM_MMFF94_PARTIAL_CHARGES>  (1) 
17
1 -0.36
10 0.27
11 -0.15
12 -0.15
19 0.36
2 -0.9
20 0.15
21 0.15
24 0.15
25 0.15
3 0.28
4 0.14
5 0.27
6 -0.14
7 0.08
8 -0.15
9 -0.15

>  <PUBCHEM_EFFECTIVE_ROTOR_COUNT>  (1) 
3.6

>  <PUBCHEM_PHARMACOPHORE_FEATURES>  (1) 
5
1 1 acceptor
1 2 cation
1 2 donor
5 1 3 4 6 7 rings
6 6 7 8 9 11 12 rings

>  <PUBCHEM_HEAVY_ATOM_COUNT>  (1) 
13

>  <PUBCHEM_ATOM_DEF_STEREO_COUNT>  (1) 
0

>  <PUBCHEM_ATOM_UDEF_STEREO_COUNT>  (1) 
1

>  <PUBCHEM_BOND_DEF_STEREO_COUNT>  (1) 
0

>  <PUBCHEM_BOND_UDEF_STEREO_COUNT>  (1) 
0

>  <PUBCHEM_ISOTOPIC_ATOM_COUNT>  (1) 
0

>  <PUBCHEM_COMPONENT_COUNT>  (1) 
1

>  <PUBCHEM_CACTVS_TAUTO_COUNT>  (1) 
1

>  <PUBCHEM_CONFORMER_ID>  (1) 
000074F500000001

>  <PUBCHEM_MMFF94_ENERGY>  (1) 
23.7814

>  <PUBCHEM_FEATURE_SELFOVERLAP>  (1) 
25.474

>  <PUBCHEM_SHAPE_FINGERPRINT>  (1) 
10014705 185 18260824873978638925
11132069 177 18409452461821616524
11401426 45 18408881837167741221
12119455 92 17274819138789101126
12251169 10 18333733519928015196
12346645 44 18409165480923887082
13024252 1 13190341258221044055
13214271 11 18342454850438606239
13897977 58 18409169935000054316
14325111 11 18339080389049598751
15219456 202 18059300855132495822
15536298 74 18339924797275043894
16945 1 18337966601652027463
18522853 276 18410294717951733780
200 152 18201991145337921343
20510252 161 18272091539516105441
20645477 56 18343023285017791500
20645477 70 16988290772678544310
23402539 116 18411693314370468863
23559900 14 18270683039868234542
2748010 2 17905056854804868783
449060 50 18413109450781356500
5104073 3 18409729526325935338
7364860 26 18125440813387185398
77779 3 18410856547388007386

>  <PUBCHEM_SHAPE_MULTIPOLES>  (1) 
256.68
8.9
1.4
0.65
11.14
0.09
0
1.7
1.01
-0.83
0.01
0.05
0
-0.03

>  <PUBCHEM_SHAPE_SELFOVERLAP>  (1) 
536.255

>  <PUBCHEM_SHAPE_VOLUME>  (1) 
147.3

>  <PUBCHEM_COORDINATE_TYPE>  (1) 
2
5
10

$$$$
