29943
     RDKit          3D

 21 21  0  0  1  0  0  0  0  0999 V2000
    2.1739   -2.2591    1.7666 O   0  0  0  0  0  0  0  0  0  0  0  0
    0.7005   -1.7402   -0.7812 N   0  0  0  0  0  0  0  0  0  0  0  0
    1.2446   -0.7103    0.1506 C   0  0  0  0  0  0  0  0  0  0  0  0
    2.5259   -1.2151    0.8489 C   0  0  0  0  0  0  0  0  0  0  0  0
    1.4584    0.5799   -0.6451 C   0  0  0  0  0  0  0  0  0  0  0  0
    2.0548    1.6874    0.2339 C   0  0  0  0  0  0  0  0  0  0  0  0
    3.1139   -0.0772    1.7058 C   0  0  0  0  0  0  0  0  0  0  0  0
    3.3409    1.2134    0.9221 C   0  0  0  0  0  0  0  0  0  0  0  0
   -0.6317   -1.2747   -1.3782 C   0  0  0  0  0  0  0  0  0  0  0  0
    2.3166    2.9477   -0.5889 C   0  0  0  0  0  0  0  0  0  0  0  0
    3.5894   -1.7750   -0.1063 C   0  0  0  0  0  0  0  0  0  0  0  0
    1.6813   -1.9977   -1.9297 C   0  0  0  0  0  0  0  0  0  0  0  0
    0.4633   -3.0616   -0.0426 C   0  0  0  0  0  0  0  0  0  0  0  0
   -1.6619   -1.0396   -0.2799 C   0  0  0  0  0  0  0  0  0  0  0  0
    1.0431    3.3974   -1.3009 C   0  0  0  0  0  0  0  0  0  0  0  0
    2.8591    4.0650    0.2991 C   0  0  0  0  0  0  0  0  0  0  0  0
   -3.0275   -0.5195   -0.7429 C   0  0  0  0  0  0  0  0  0  0  0  0
   -3.9952   -0.2399    0.4089 C   0  0  0  0  0  0  0  0  0  0  0  0
   -5.3371    0.2819   -0.1099 C   0  0  0  0  0  0  0  0  0  0  0  0
   -6.2951    0.5932    1.0399 C   0  0  0  0  0  0  0  0  0  0  0  0
   -7.6172    1.1441    0.5299 C   0  0  0  0  0  0  0  0  0  0  0  0
  1  4  1  0
  2  3  1  0
  2  9  1  0
  2 12  1  0
  2 13  1  0
  3  4  1  0
  3  5  1  0
  4  7  1  0
  4 11  1  0
  5  6  1  0
  6  8  1  0
  6 10  1  0
  7  8  1  0
  9 14  1  0
 10 15  1  0
 10 16  1  0
 14 17  1  0
 17 18  1  0
 18 19  1  0
 19 20  1  0
 20 21  1  0
M  CHG  1   2   1
M  END
>  <PUBCHEM_COMPOUND_CID>  (1) 
29943

>  <PUBCHEM_CONFORMER_RMSD>  (1) 
0.8

>  <PUBCHEM_CONFORMER_DIVERSEORDER>  (1) 
45
277
234
153
197
105
172
263
285
138
198
320
276
248
94
88
201
302
199
332
29
300
13
98
147
38
9
264
237
191
238
272
196
308
169
200
130
43
286
3
102
50
125
269
84
291
166
243
101
310
17
232
257
106
146
22
47
175
268
207
289
317
309
81
267
315
46
227
314
167
30
64
1
107
158
154
184
321
91
35
5
66
280
141
242
192
58
176
296
246
241
312
258
121
8
76
23
283
228
159
15
156
244
249
326
96
177
104
266
187
87
36
292
313
251
174
55
49
65
324
278
211
42
137
282
260
112
180
11
247
206
68
209
4
327
288
27
185
168
25
295
132
204
70
304
252
114
225
179
178
287
39
281
322
173
79
85
56
330
33
231
195
115
165
274
93
20
10
59
255
14
294
297
239
259
86
72
109
273
323
208
116
213
262
299
117
118
202
307
240
331
301
57
271
51
236
62
34
24
233
218
203
54
120
163
270
328
303
103
2
44
325
143
171
221
311
284
75
123
290
205
182
110
214
222
52
329
256
97
190
253
28
90
71
217
144
319
69
61
293
148
230
140
245
316
298
215
99
83
261
133
134
194
19
306
48
164
305
53
275
6
229
122
142
254
113
131
162
157
150
89
224
186
92
95
265
63
235
32
318
226
170
189
155
250
193
60
67
160
151
220
212
136
80
41
161
216
16
124
279
127
139
37
188
108
152
100
78
77
210
31
223
21
40
73
82
129
183
128
119
126
12
145
149
181
74
135
7
111
219
26
18

>  <PUBCHEM_MMFF94_PARTIAL_CHARGES>  (1) 
8
1 -0.68
12 0.5
13 0.5
2 -1.01
3 0.5
4 0.28
44 0.4
9 0.5

>  <PUBCHEM_EFFECTIVE_ROTOR_COUNT>  (1) 
9.2

>  <PUBCHEM_PHARMACOPHORE_FEATURES>  (1) 
7
1 1 acceptor
1 1 donor
1 2 cation
1 21 hydrophobe
3 10 15 16 hydrophobe
5 14 17 18 19 20 hydrophobe
6 3 4 5 6 7 8 rings

>  <PUBCHEM_HEAVY_ATOM_COUNT>  (1) 
21

>  <PUBCHEM_ATOM_DEF_STEREO_COUNT>  (1) 
0

>  <PUBCHEM_ATOM_UDEF_STEREO_COUNT>  (1) 
3

>  <PUBCHEM_BOND_DEF_STEREO_COUNT>  (1) 
0

>  <PUBCHEM_BOND_UDEF_STEREO_COUNT>  (1) 
0

>  <PUBCHEM_ISOTOPIC_ATOM_COUNT>  (1) 
0

>  <PUBCHEM_COMPONENT_COUNT>  (1) 
1

>  <PUBCHEM_CACTVS_TAUTO_COUNT>  (1) 
1

>  <PUBCHEM_CONFORMER_ID>  (1) 
000074F70000002D

>  <PUBCHEM_MMFF94_ENERGY>  (1) 
83.2164

>  <PUBCHEM_FEATURE_SELFOVERLAP>  (1) 
35.521

>  <PUBCHEM_SHAPE_FINGERPRINT>  (1) 
10382601 240 17897706881461248184
11724838 91 18343014524155108127
12166972 35 18129944477580788945
12403259 118 18268701887186494251
12403259 327 17603583045379561387
12617007 42 18059310763801344190
12633257 1 17895738707938288907
13583140 156 17823114780040464743
13878862 14 18263062397991192677
13965767 371 18128792270872625232
14251764 38 18265052604025928115
14251764 75 18121504823853284429
14400156 188 18116440245731307531
15183329 4 12324238370380499519
15342168 16 18272090535073811989
15348495 7 18114190740014362825
15475509 8 18342464755577696196
1601671 61 18411414038511868156
16945 1 17973972280934378558
17810953 82 18413389860659509905
19377110 9 18200031880532870231
20157964 124 18412825764613893621
20715895 44 18268988688450451881
20739085 24 18411976928098396378
21049683 271 17914347779478852286
21344244 181 10440414250769746211
21452121 99 9941796839217901846
21503847 285 18413673495645788435
21665062 11 18335128795983550158
23559900 14 18271259231206076551
2748010 2 17979316860970034892
2871803 45 8934999295649184299
3472631 163 16199855267871035897
4409770 3 16396360715826063543
474 4 18412261766071500903
5104073 3 18261397784699607419
5283268 108 18335701581401887237
56616090 278 18335988635408993230
5924683 9 8684493687690933533
633830 44 18271525394402538743
960060 61 10015864289082462635
9999458 23 18408888425241989215

>  <PUBCHEM_SHAPE_MULTIPOLES>  (1) 
421.32
11.54
4.06
1.47
35.14
3.22
0.02
5.6
-4.58
-5.41
0.83
-0.87
-0.4
-0.75

>  <PUBCHEM_SHAPE_SELFOVERLAP>  (1) 
813.57

>  <PUBCHEM_SHAPE_VOLUME>  (1) 
257.8

>  <PUBCHEM_COORDINATE_TYPE>  (1) 
2
5
10

$$$$
