29950
     RDKit          3D

 13 13  0  0  0  0  0  0  0  0999 V2000
   -0.2312   -0.0524    1.0161 O   0  0  0  0  0  0  0  0  0  0  0  0
    0.5616    0.0223   -1.1833 O   0  0  0  0  0  0  0  0  0  0  0  0
    3.2459   -0.0115   -0.3070 C   0  0  0  0  0  0  0  0  0  0  0  0
    4.6043   -0.0111    0.3926 C   0  0  0  0  0  0  0  0  0  0  0  0
    2.1005   -0.0619    0.7025 C   0  0  0  0  0  0  0  0  0  0  0  0
    5.7460    0.0777   -0.6075 C   0  0  0  0  0  0  0  0  0  0  0  0
    0.7482   -0.0238    0.0251 C   0  0  0  0  0  0  0  0  0  0  0  0
   -1.5284   -0.0208    0.4992 C   0  0  0  0  0  0  0  0  0  0  0  0
   -2.1541   -1.2129    0.2086 C   0  0  0  0  0  0  0  0  0  0  0  0
   -2.1314    1.2013    0.2998 C   0  0  0  0  0  0  0  0  0  0  0  0
   -3.4493   -1.1813   -0.3083 C   0  0  0  0  0  0  0  0  0  0  0  0
   -3.4267    1.2329   -0.2170 C   0  0  0  0  0  0  0  0  0  0  0  0
   -4.0855    0.0415   -0.5210 C   0  0  0  0  0  0  0  0  0  0  0  0
  1  7  1  0
  1  8  1  0
  2  7  2  0
  3  4  1  0
  3  5  1  0
  4  6  1  0
  5  7  1  0
  8  9  2  0
  8 10  1  0
  9 11  1  0
 10 12  2  0
 11 13  2  0
 12 13  1  0
M  END
>  <PUBCHEM_COMPOUND_CID>  (1) 
29950

>  <PUBCHEM_CONFORMER_RMSD>  (1) 
0.6

>  <PUBCHEM_CONFORMER_DIVERSEORDER>  (1) 
1
50
38
86
32
69
12
124
84
80
66
87
113
106
65
82
41
77
39
73
48
11
97
7
4
76
92
22
121
112
21
85
79
2
51
114
88
115
34
123
119
26
111
57
64
6
122
17
47
36
14
67
31
49
103
70
101
93
105
28
60
72
42
59
13
24
37
16
95
71
19
8
54
23
56
78
20
107
118
68
109
89
63
55
10
110
40
96
98
5
90
3
120
33
52
62
15
81
46
35
125
108
25
83
100
29
94
18
99
9
104
74
91
117
45
75
27
44
61
102
53
116
43
58
30

>  <PUBCHEM_MMFF94_PARTIAL_CHARGES>  (1) 
15
1 -0.23
10 -0.15
11 -0.15
12 -0.15
13 -0.15
2 -0.57
23 0.15
24 0.15
25 0.15
26 0.15
27 0.15
5 0.06
7 0.66
8 0.08
9 -0.15

>  <PUBCHEM_EFFECTIVE_ROTOR_COUNT>  (1) 
5

>  <PUBCHEM_PHARMACOPHORE_FEATURES>  (1) 
3
1 2 acceptor
1 6 hydrophobe
6 8 9 10 11 12 13 rings

>  <PUBCHEM_HEAVY_ATOM_COUNT>  (1) 
13

>  <PUBCHEM_ATOM_DEF_STEREO_COUNT>  (1) 
0

>  <PUBCHEM_ATOM_UDEF_STEREO_COUNT>  (1) 
0

>  <PUBCHEM_BOND_DEF_STEREO_COUNT>  (1) 
0

>  <PUBCHEM_BOND_UDEF_STEREO_COUNT>  (1) 
0

>  <PUBCHEM_ISOTOPIC_ATOM_COUNT>  (1) 
0

>  <PUBCHEM_COMPONENT_COUNT>  (1) 
1

>  <PUBCHEM_CACTVS_TAUTO_COUNT>  (1) 
1

>  <PUBCHEM_CONFORMER_ID>  (1) 
000074FE00000001

>  <PUBCHEM_MMFF94_ENERGY>  (1) 
25.1776

>  <PUBCHEM_FEATURE_SELFOVERLAP>  (1) 
15.223

>  <PUBCHEM_SHAPE_FINGERPRINT>  (1) 
10014705 185 18113615677182735933
10680689 15 18411987974384964786
11062470 55 17458343039638716250
11401426 45 17022900164209358614
13675066 3 12612755718259673064
13690532 89 15913329083334481764
13760787 5 15339117966028336896
14123238 8 9439402432724426666
14251718 22 18412545444503324686
14993402 34 17676483968893479402
15242439 84 18131631179836137216
17834072 33 18335140934020123252
17834076 25 18409167705489846107
17870717 6 18202013117910806670
19489759 90 18413105052777075936
1986462 14 18343302565276756896
200 152 18410853278295337934
20279233 1 17704077291308411446
20300324 65 18409166623321786729
20325693 3 18412265034398986991
20645477 56 18339927017809981337
20645477 70 17417818275703467222
21061003 4 16486971830132634115
22485316 2 18410291402701140026
23402539 116 18341324540011924205
23402655 69 18040709225760791380
23557571 272 18131357379634097257
23559900 14 18343294899234965560
300161 21 17967245404259989002
42 15 10159701296147191176
42788 4 18333450946030344964
573450 72 18334845087682004826

>  <PUBCHEM_SHAPE_MULTIPOLES>  (1) 
255.8
10.4
1.07
0.9
12.96
0.01
-0.03
0.2
-1.96
-1.31
0
0.19
0
-0.05

>  <PUBCHEM_SHAPE_SELFOVERLAP>  (1) 
515.102

>  <PUBCHEM_SHAPE_VOLUME>  (1) 
149.5

>  <PUBCHEM_COORDINATE_TYPE>  (1) 
2
5
10

$$$$
