29957
     RDKit          3D

 29 30  0  0  1  0  0  0  0  0999 V2000
   -0.7481   -1.4284   -2.5495 S   0  0  0  0  0  0  0  0  0  0  0  0
    4.7623    1.1855   -0.7743 S   0  0  0  0  0  0  0  0  0  0  0  0
    0.6253   -2.7783    1.6819 O   0  0  0  0  0  0  0  0  0  0  0  0
   -4.1312    1.2330   -0.6697 O   0  0  0  0  0  0  0  0  0  0  0  0
   -3.3126   -2.3432    1.6075 O   0  0  0  0  0  0  0  0  0  0  0  0
   -1.8787   -0.9576    2.7276 O   0  0  0  0  0  0  0  0  0  0  0  0
    3.2144   -1.1529   -2.6697 O   0  0  0  0  0  0  0  0  0  0  0  0
   -6.3740    1.2192   -0.1153 O   0  0  0  0  0  0  0  0  0  0  0  0
    4.5230    0.7773    1.7943 O   0  0  0  0  0  0  0  0  0  0  0  0
   -0.5145   -1.4578    0.0950 N   0  0  0  0  0  0  0  0  0  0  0  0
    2.6692   -1.4951   -0.4393 N   0  0  0  0  0  0  0  0  0  0  0  0
    2.7437    1.9439    0.8548 N   0  0  0  0  0  0  0  0  0  0  0  0
    0.2095   -1.0015   -1.0775 C   0  0  0  0  0  0  0  0  0  0  0  0
    1.3146   -1.9981   -0.6645 C   0  0  0  0  0  0  0  0  0  0  0  0
    0.4888   -2.1789    0.6411 C   0  0  0  0  0  0  0  0  0  0  0  0
   -1.8064   -1.1334    0.3581 C   0  0  0  0  0  0  0  0  0  0  0  0
   -2.6098   -0.6016   -0.5937 C   0  0  0  0  0  0  0  0  0  0  0  0
   -2.1809   -0.4157   -2.0474 C   0  0  0  0  0  0  0  0  0  0  0  0
   -4.0282   -0.1404   -0.3583 C   0  0  0  0  0  0  0  0  0  0  0  0
   -2.3120   -1.4457    1.7032 C   0  0  0  0  0  0  0  0  0  0  0  0
    3.5146   -1.1101   -1.4776 C   0  0  0  0  0  0  0  0  0  0  0  0
    4.8581   -0.6053   -1.0086 C   0  0  0  0  0  0  0  0  0  0  0  0
   -5.3695    1.7996   -0.5044 C   0  0  0  0  0  0  0  0  0  0  0  0
    3.9762    1.2729    0.8112 C   0  0  0  0  0  0  0  0  0  0  0  0
    2.1232    2.5204   -0.3321 C   0  0  0  0  0  0  0  0  0  0  0  0
    1.9857    2.1171    2.0952 C   0  0  0  0  0  0  0  0  0  0  0  0
   -5.3284    3.2524   -0.8700 C   0  0  0  0  0  0  0  0  0  0  0  0
    2.5578    3.9559   -0.5437 C   0  0  0  0  0  0  0  0  0  0  0  0
    1.0278    0.9666    2.3253 C   0  0  0  0  0  0  0  0  0  0  0  0
  1 13  1  0
  1 18  1  0
  2 22  1  0
  2 24  1  0
  3 15  2  0
  4 19  1  0
  4 23  1  0
  5 20  1  0
  6 20  2  0
  7 21  2  0
  8 23  2  0
  9 24  2  0
 10 13  1  0
 10 15  1  0
 10 16  1  0
 11 14  1  0
 11 21  1  0
 12 24  1  0
 12 25  1  0
 12 26  1  0
 13 14  1  0
 14 15  1  0
 16 17  2  0
 16 20  1  0
 17 18  1  0
 17 19  1  0
 21 22  1  0
 23 27  1  0
 25 28  1  0
 26 29  1  0
M  END
>  <PUBCHEM_COMPOUND_CID>  (1) 
29957

>  <PUBCHEM_CONFORMER_RMSD>  (1) 
1.2

>  <PUBCHEM_CONFORMER_DIVERSEORDER>  (1) 
1
100
66
76
18
96
29
87
57
98
5
53
108
82
109
61
9
65
39
111
90
71
72
59
104
95
31
120
62
78
97
41
15
42
93
11
105
46
122
94
118
36
48
35
101
60
77
25
56
45
49
110
23
92
17
64
33
74
112
79
119
21
47
86
81
84
58
44
10
83
115
99
16
89
103
113
22
117
43
3
121
67
24
26
52
116
54
8
80
34
114
73
68
40
20
2
85
91
19
107
37
88
70
102
51
12
32
4
75
69
50
6
28
38
106
14
63
13
27
55
30
7

>  <PUBCHEM_MMFF94_PARTIAL_CHARGES>  (1) 
29
1 -0.45
10 -0.39
11 -0.65
12 -0.66
13 0.44
14 0.28
15 0.58
16 0.12
17 -0.28
18 0.37
19 0.42
2 -0.37
20 0.71
21 0.57
22 0.29
23 0.66
24 0.77
25 0.3
26 0.3
27 0.06
3 -0.57
34 0.37
39 0.5
4 -0.43
5 -0.65
6 -0.57
7 -0.57
8 -0.57
9 -0.57

>  <PUBCHEM_EFFECTIVE_ROTOR_COUNT>  (1) 
12.6

>  <PUBCHEM_PHARMACOPHORE_FEATURES>  (1) 
9
1 11 donor
1 3 acceptor
1 5 acceptor
1 6 acceptor
1 7 acceptor
1 8 acceptor
3 5 6 20 anion
4 10 13 14 15 rings
6 1 10 13 16 17 18 rings

>  <PUBCHEM_HEAVY_ATOM_COUNT>  (1) 
29

>  <PUBCHEM_ATOM_DEF_STEREO_COUNT>  (1) 
0

>  <PUBCHEM_ATOM_UDEF_STEREO_COUNT>  (1) 
2

>  <PUBCHEM_BOND_DEF_STEREO_COUNT>  (1) 
0

>  <PUBCHEM_BOND_UDEF_STEREO_COUNT>  (1) 
0

>  <PUBCHEM_ISOTOPIC_ATOM_COUNT>  (1) 
0

>  <PUBCHEM_COMPONENT_COUNT>  (1) 
1

>  <PUBCHEM_CACTVS_TAUTO_COUNT>  (1) 
2

>  <PUBCHEM_CONFORMER_ID>  (1) 
0000750500000001

>  <PUBCHEM_MMFF94_ENERGY>  (1) 
60.7873

>  <PUBCHEM_FEATURE_SELFOVERLAP>  (1) 
45.987

>  <PUBCHEM_SHAPE_FINGERPRINT>  (1) 
11578080 2 18260843574566880891
11595378 159 16081082641646760541
12035759 4 16559031623109538107
12633257 1 17313372452949348973
13402501 40 18411136909457012052
13583140 156 18342469148469955751
14251764 38 18336542841115169493
14705955 166 17749969863339051201
15238133 3 18189045404847945690
17093844 170 18412539899717097292
20554085 129 17822289029991976581
21033648 29 18408887377728417382
21315764 21 18201722876827028856
21475661 188 18409166623158308668
22289505 5 18130790032198154564
23559900 14 17603876554981891710
2838139 119 18271230635049789749
3459 39 17530958034986149845
474 4 18335688460635377173
5081480 168 17843156720851477396
508706 21 18336266855133036707
513532 50 15338249338641156457

>  <PUBCHEM_SHAPE_MULTIPOLES>  (1) 
548.48
10.95
3.67
2.49
8.3
2.63
-0.64
7.86
2.65
-0.09
0.12
-0.3
-0.84
2.37

>  <PUBCHEM_SHAPE_SELFOVERLAP>  (1) 
1096.327

>  <PUBCHEM_SHAPE_VOLUME>  (1) 
325.2

>  <PUBCHEM_COORDINATE_TYPE>  (1) 
2
5
10

$$$$
