29969
     RDKit          3D

 13 14  0  0  0  0  0  0  0  0999 V2000
   -2.9707    1.0141   -0.6667 S   0  0  0  0  0  0  0  0  0  0  0  0
   -1.4417   -1.0843    0.8175 S   0  0  0  0  0  0  0  0  0  0  0  0
   -1.3415    0.5798    0.0538 C   0  0  0  0  0  0  0  0  0  0  0  0
   -0.2955    0.5594   -1.0607 C   0  0  0  0  0  0  0  0  0  0  0  0
   -3.9170   -0.3208    0.1064 C   0  0  0  0  0  0  0  0  0  0  0  0
   -3.0409   -1.5553    0.1120 C   0  0  0  0  0  0  0  0  0  0  0  0
   -0.9810    1.5999    1.1333 C   0  0  0  0  0  0  0  0  0  0  0  0
    1.0657    0.2009   -0.5541 C   0  0  0  0  0  0  0  0  0  0  0  0
    1.9299    1.2035   -0.1208 C   0  0  0  0  0  0  0  0  0  0  0  0
    1.4624   -1.1335   -0.5176 C   0  0  0  0  0  0  0  0  0  0  0  0
    3.1990    0.8695    0.3517 C   0  0  0  0  0  0  0  0  0  0  0  0
    2.7316   -1.4674   -0.0448 C   0  0  0  0  0  0  0  0  0  0  0  0
    3.5998   -0.4658    0.3898 C   0  0  0  0  0  0  0  0  0  0  0  0
  1  3  1  0
  1  5  1  0
  2  3  1  0
  2  6  1  0
  3  4  1  0
  3  7  1  0
  4  8  1  0
  5  6  1  0
  8  9  2  0
  8 10  1  0
  9 11  1  0
 10 12  2  0
 11 13  2  0
 12 13  1  0
M  END
>  <PUBCHEM_COMPOUND_CID>  (1) 
29969

>  <PUBCHEM_CONFORMER_RMSD>  (1) 
0.6

>  <PUBCHEM_CONFORMER_DIVERSEORDER>  (1) 
1
2
3

>  <PUBCHEM_MMFF94_PARTIAL_CHARGES>  (1) 
17
1 -0.46
10 -0.15
11 -0.15
12 -0.15
13 -0.15
2 -0.46
23 0.15
24 0.15
25 0.15
26 0.15
27 0.15
3 0.46
4 0.14
5 0.23
6 0.23
8 -0.14
9 -0.15

>  <PUBCHEM_EFFECTIVE_ROTOR_COUNT>  (1) 
3

>  <PUBCHEM_PHARMACOPHORE_FEATURES>  (1) 
2
5 1 2 3 5 6 rings
6 8 9 10 11 12 13 rings

>  <PUBCHEM_HEAVY_ATOM_COUNT>  (1) 
13

>  <PUBCHEM_ATOM_DEF_STEREO_COUNT>  (1) 
0

>  <PUBCHEM_ATOM_UDEF_STEREO_COUNT>  (1) 
0

>  <PUBCHEM_BOND_DEF_STEREO_COUNT>  (1) 
0

>  <PUBCHEM_BOND_UDEF_STEREO_COUNT>  (1) 
0

>  <PUBCHEM_ISOTOPIC_ATOM_COUNT>  (1) 
0

>  <PUBCHEM_COMPONENT_COUNT>  (1) 
1

>  <PUBCHEM_CACTVS_TAUTO_COUNT>  (1) 
1

>  <PUBCHEM_CONFORMER_ID>  (1) 
0000751100000001

>  <PUBCHEM_MMFF94_ENERGY>  (1) 
36.8216

>  <PUBCHEM_FEATURE_SELFOVERLAP>  (1) 
10.149

>  <PUBCHEM_SHAPE_FINGERPRINT>  (1) 
10608611 8 18408317787307501461
10922523 26 18113900451068590559
11769659 78 18335134302042115243
12251169 10 18410571795061093030
12382932 28 18272658994906161067
12500047 106 18261665974624987885
12932764 1 17604148125378174613
13296908 3 18407761430249919423
13581323 91 18040435494773502685
13693222 15 18413111675194724683
13764800 53 15266516014765731153
14144814 61 18411702049827403480
14325111 11 18408039606607370221
14350558 41 18334300885018029197
14943859 89 10447931667571347588
15219456 202 18409443691524791301
15309172 13 16056881329524683397
15375462 189 18129383872605911087
15375462 478 18059572464669430556
15775835 57 16845285055789871280
16945 1 18268440035424553525
17834072 14 18335414677501735011
18186145 218 18263079933783102661
200 152 18202274801746646007
20201158 50 18410012139110366867
20279233 1 18407759226826195031
20361792 2 16081089289860398159
20525323 117 17346041078199139809
20528008 55 18411133645249704943
20645477 70 18341608179462508031
21501502 16 18334018314861815164
21501925 9 18335416893646876502
22169311 21 18335693931975091999
23402539 116 18339913849777699917
23559900 14 18339072701522317194
26918003 58 18411694379079044979
296302 2 17967534609676808972
57812782 119 18334290968070398397
581208 293 18336546105263693622
69090 78 18409725162760611023
81228 2 16661204720083451908
8809292 202 18261116287293453083
9709674 26 18335706060989681203

>  <PUBCHEM_SHAPE_MULTIPOLES>  (1) 
275.23
6.46
1.7
0.97
0.11
0.16
0.04
1.09
0.32
0.19
0.18
0.19
-0.17
0.29

>  <PUBCHEM_SHAPE_SELFOVERLAP>  (1) 
545.168

>  <PUBCHEM_SHAPE_VOLUME>  (1) 
163

>  <PUBCHEM_COORDINATE_TYPE>  (1) 
2
5
10

$$$$
