29966
     RDKit          3D

 23 25  0  0  1  0  0  0  0  0999 V2000
    0.6805   -0.0187    0.0681 O   0  0  0  0  0  0  0  0  0  0  0  0
   -0.7784   -0.2616    1.8125 O   0  0  0  0  0  0  0  0  0  0  0  0
    3.4699   -0.5933   -0.2281 N   0  0  0  0  0  0  0  0  0  0  0  0
   -1.5030   -0.1705   -0.4118 N   0  0  0  0  0  0  0  0  0  0  0  0
    2.9880    0.7318    0.1322 C   0  0  0  0  0  0  0  0  0  0  0  0
    1.6459    0.6521    0.8787 C   0  0  0  0  0  0  0  0  0  0  0  0
    2.8807    1.6003   -1.1283 C   0  0  0  0  0  0  0  0  0  0  0  0
    1.1284    2.0550    1.2117 C   0  0  0  0  0  0  0  0  0  0  0  0
    2.3560    2.9959   -0.7919 C   0  0  0  0  0  0  0  0  0  0  0  0
    3.5958   -1.4760    0.9313 C   0  0  0  0  0  0  0  0  0  0  0  0
    4.8044   -0.5587   -0.8257 C   0  0  0  0  0  0  0  0  0  0  0  0
    1.0331    2.9401   -0.0323 C   0  0  0  0  0  0  0  0  0  0  0  0
    4.4519   -2.6159    0.3998 C   0  0  0  0  0  0  0  0  0  0  0  0
    5.2489   -2.0122   -0.7526 C   0  0  0  0  0  0  0  0  0  0  0  0
   -0.5723   -0.1620    0.6090 C   0  0  0  0  0  0  0  0  0  0  0  0
   -2.9071   -0.2966   -0.3085 C   0  0  0  0  0  0  0  0  0  0  0  0
   -3.4841   -1.5584   -0.3412 C   0  0  0  0  0  0  0  0  0  0  0  0
   -3.6876    0.8435   -0.1767 C   0  0  0  0  0  0  0  0  0  0  0  0
   -4.8697   -1.6828   -0.2403 C   0  0  0  0  0  0  0  0  0  0  0  0
   -5.0732    0.7190   -0.0757 C   0  0  0  0  0  0  0  0  0  0  0  0
   -2.6598   -2.7970   -0.4833 C   0  0  0  0  0  0  0  0  0  0  0  0
   -3.0839    2.2102   -0.1394 C   0  0  0  0  0  0  0  0  0  0  0  0
   -5.6642   -0.5442   -0.1075 C   0  0  0  0  0  0  0  0  0  0  0  0
  1  6  1  0
  1 15  1  0
  2 15  2  0
  3  5  1  0
  3 10  1  0
  3 11  1  0
  4 15  1  0
  4 16  1  0
  5  6  1  0
  5  7  1  0
  6  8  1  0
  7  9  1  0
  8 12  1  0
  9 12  1  0
 10 13  1  0
 11 14  1  0
 13 14  1  0
 16 17  2  0
 16 18  1  0
 17 19  1  0
 17 21  1  0
 18 20  2  0
 18 22  1  0
 19 23  2  0
 20 23  1  0
M  END
>  <PUBCHEM_COMPOUND_CID>  (1) 
29966

>  <PUBCHEM_CONFORMER_RMSD>  (1) 
0.8

>  <PUBCHEM_CONFORMER_DIVERSEORDER>  (1) 
1
60
58
63
30
82
22
81
50
29
11
72
41
83
71
57
56
32
48
59
39
54
5
36
62
17
51
26
10
21
61
80
84
68
4
87
25
31
67
69
15
13
79
76
3
66
65
88
35
49
19
70
16
34
53
64
14
46
20
18
2
86
12
85
37
45
73
38
52
77
43
33
40
47
74
23
8
42
44
75
55
9
24
78
28
7
27
6

>  <PUBCHEM_MMFF94_PARTIAL_CHARGES>  (1) 
21
1 -0.43
10 0.27
11 0.27
15 0.78
16 0.12
17 -0.14
18 -0.14
19 -0.15
2 -0.57
20 -0.15
21 0.14
22 0.14
23 -0.15
3 -0.81
4 -0.55
42 0.37
43 0.15
44 0.15
5 0.27
51 0.15
6 0.28

>  <PUBCHEM_EFFECTIVE_ROTOR_COUNT>  (1) 
7.2

>  <PUBCHEM_PHARMACOPHORE_FEATURES>  (1) 
6
1 2 acceptor
1 3 cation
1 4 donor
5 3 10 11 13 14 rings
6 16 17 18 19 20 23 rings
6 5 6 7 8 9 12 rings

>  <PUBCHEM_HEAVY_ATOM_COUNT>  (1) 
23

>  <PUBCHEM_ATOM_DEF_STEREO_COUNT>  (1) 
0

>  <PUBCHEM_ATOM_UDEF_STEREO_COUNT>  (1) 
2

>  <PUBCHEM_BOND_DEF_STEREO_COUNT>  (1) 
0

>  <PUBCHEM_BOND_UDEF_STEREO_COUNT>  (1) 
0

>  <PUBCHEM_ISOTOPIC_ATOM_COUNT>  (1) 
0

>  <PUBCHEM_COMPONENT_COUNT>  (1) 
1

>  <PUBCHEM_CACTVS_TAUTO_COUNT>  (1) 
2

>  <PUBCHEM_CONFORMER_ID>  (1) 
0000750E00000001

>  <PUBCHEM_MMFF94_ENERGY>  (1) 
69.9271

>  <PUBCHEM_FEATURE_SELFOVERLAP>  (1) 
30.447

>  <PUBCHEM_SHAPE_FINGERPRINT>  (1) 
11405975 8 18341332283848462899
11796584 16 17988929984914423814
12107183 9 18267871571218849905
12633257 1 18201731643392940533
13009979 54 18201730513310607824
13167823 11 18409447007445616383
13533116 47 18339077224302435887
14341114 176 18411703205500692657
14347332 77 18411414016984225751
15183329 4 18409730616941789471
15250474 111 18198895010319841607
15788980 27 17346593071569481271
17349148 13 17489593354818004795
17492 89 18265614458372525923
17818456 19 18201724998619981457
17844677 252 18408610279365592301
18186145 218 17531516681070947509
19784866 240 18131077008548046402
20645477 70 18411421730613659430
21250096 35 18273213071689030138
21267235 1 18409172125960869963
221357 26 18260827085934243109
221490 88 18264775530794460466
22950370 63 18337392643264987710
23559900 14 18340760529069555971
3004659 81 18334860477125248174
312423 11 18410018770903784457
314173 41 18411702080272353046
335352 9 18340204099351549165
340366 18 18411697694783462735
350125 39 18337954494239635133
4214541 1 18411136914078409495
44062 13 18343581854485002951
46194498 28 17822012051160145324
463206 1 18187360987653349442
474 4 17314788722968856245
5104073 3 18272653480537087659
5281201 14 18334573576971463293
559249 180 18268708320778640459
58051976 100 18408040736505808311
633830 44 17677042555566173571
960060 61 18187654596022654670
9709674 26 18264207091957419283
9841814 1 16486976253822374648
9971528 1 18412257346481692240
9981440 41 17543065040455358384

>  <PUBCHEM_SHAPE_MULTIPOLES>  (1) 
451.63
12.24
3.28
1.05
4.07
0.69
-0.21
-6.9
2.3
-1.95
0.39
-0.66
0.12
-0.53

>  <PUBCHEM_SHAPE_SELFOVERLAP>  (1) 
946.572

>  <PUBCHEM_SHAPE_VOLUME>  (1) 
255.3

>  <PUBCHEM_COORDINATE_TYPE>  (1) 
2
5
10

$$$$
