29970
     RDKit          3D

 16 16  0  0  0  0  0  0  0  0999 V2000
   -5.9840    1.2941    0.8754 Cl  0  0  0  0  0  0  0  0  0  0  0  0
    4.9065   -0.0244    0.5638 O   0  0  0  0  0  0  0  0  0  0  0  0
   -1.2675   -1.9927    0.1791 O   0  0  0  0  0  0  0  0  0  0  0  0
   -3.2333    0.4789    1.1566 O   0  0  0  0  0  0  0  0  0  0  0  0
   -0.4865    0.0287   -0.7288 N   0  0  0  0  0  0  0  0  0  0  0  0
    0.8900    0.0158   -0.3986 C   0  0  0  0  0  0  0  0  0  0  0  0
   -2.8092   -0.5741   -0.9586 C   0  0  0  0  0  0  0  0  0  0  0  0
   -1.4330   -0.9455   -0.4406 C   0  0  0  0  0  0  0  0  0  0  0  0
    1.6843    1.0898   -0.7632 C   0  0  0  0  0  0  0  0  0  0  0  0
    1.4125   -1.0719    0.2810 C   0  0  0  0  0  0  0  0  0  0  0  0
    3.5833   -0.0118    0.2455 C   0  0  0  0  0  0  0  0  0  0  0  0
    3.0408    1.0759   -0.4390 C   0  0  0  0  0  0  0  0  0  0  0  0
    2.7690   -1.0858    0.6054 C   0  0  0  0  0  0  0  0  0  0  0  0
   -3.6712    0.1556    0.0536 C   0  0  0  0  0  0  0  0  0  0  0  0
   -5.0823    0.4607   -0.3991 C   0  0  0  0  0  0  0  0  0  0  0  0
    5.6806    1.1068    0.1674 C   0  0  0  0  0  0  0  0  0  0  0  0
  1 15  1  0
  2 11  1  0
  2 16  1  0
  3  8  2  0
  4 14  2  0
  5  6  1  0
  5  8  1  0
  6  9  2  0
  6 10  1  0
  7  8  1  0
  7 14  1  0
  9 12  1  0
 10 13  2  0
 11 12  2  0
 11 13  1  0
 14 15  1  0
M  END
>  <PUBCHEM_COMPOUND_CID>  (1) 
29970

>  <PUBCHEM_CONFORMER_RMSD>  (1) 
0.8

>  <PUBCHEM_CONFORMER_DIVERSEORDER>  (1) 
1
33
36
26
2
32
31
16
17
15
22
9
13
29
27
8
19
7
24
21
11
4
23
3
35
5
12
30
34
18
28
6
10
20
14
25

>  <PUBCHEM_MMFF94_PARTIAL_CHARGES>  (1) 
21
1 -0.29
10 -0.15
11 0.08
12 -0.15
13 -0.15
14 0.45
15 0.35
16 0.28
19 0.37
2 -0.36
20 0.15
21 0.15
22 0.15
23 0.15
3 -0.57
4 -0.57
5 -0.55
6 0.12
7 0.12
8 0.57
9 -0.15

>  <PUBCHEM_EFFECTIVE_ROTOR_COUNT>  (1) 
6

>  <PUBCHEM_PHARMACOPHORE_FEATURES>  (1) 
6
1 2 acceptor
1 3 acceptor
1 4 acceptor
1 5 donor
1 7 anion
6 6 9 10 11 12 13 rings

>  <PUBCHEM_HEAVY_ATOM_COUNT>  (1) 
16

>  <PUBCHEM_ATOM_DEF_STEREO_COUNT>  (1) 
0

>  <PUBCHEM_ATOM_UDEF_STEREO_COUNT>  (1) 
0

>  <PUBCHEM_BOND_DEF_STEREO_COUNT>  (1) 
0

>  <PUBCHEM_BOND_UDEF_STEREO_COUNT>  (1) 
0

>  <PUBCHEM_ISOTOPIC_ATOM_COUNT>  (1) 
0

>  <PUBCHEM_COMPONENT_COUNT>  (1) 
1

>  <PUBCHEM_CACTVS_TAUTO_COUNT>  (1) 
8

>  <PUBCHEM_CONFORMER_ID>  (1) 
0000751200000001

>  <PUBCHEM_MMFF94_ENERGY>  (1) 
46.6592

>  <PUBCHEM_FEATURE_SELFOVERLAP>  (1) 
30.446

>  <PUBCHEM_SHAPE_FINGERPRINT>  (1) 
10354089 29 18261115166274989368
11089746 13 18130780187648100796
117890 112 17989203754951803312
12236239 1 18343862216690078615
12251169 10 18259983786047919014
12500047 106 17060331963698415334
12670543 26 13398639328886610337
14251764 18 18186804699351458645
14252887 29 17385722457098266866
14350574 20 11455886983846360325
14445660 50 18334575784505551526
15048467 5 18343299279959318840
15188451 53 16009326404637866657
15242439 84 14620791613137827759
15527383 91 17676206883489585036
17834076 25 18201998841676663830
187816 3 12895352196783233455
20645477 56 17203610393713813223
20645477 70 17823677716676753046
21150785 3 8934716739142289560
212847 35 18131630058453975793
21637258 2 12685095916877162353
23402539 116 17632569461990817301
23402655 69 18202278104513251591
23557571 272 16200145543409763711
23559900 14 12031490112505920790
26918003 58 17313104155074688273
33382 64 13984931888849899912
351380 180 17203325611211611449
351380 3 10953745512673334441
3545911 37 18343021099143337927
42 15 17458346334026299423
465052 167 11386662801530466601
5104073 3 17969495090934168376
542803 24 18131348617916202533
8272917 22 18271527503131455390

>  <PUBCHEM_SHAPE_MULTIPOLES>  (1) 
308.55
12.73
1.41
0.94
5.11
0.23
0.02
-6.04
2.96
0
0.09
0.49
-0.08
-0.89

>  <PUBCHEM_SHAPE_SELFOVERLAP>  (1) 
622.204

>  <PUBCHEM_SHAPE_VOLUME>  (1) 
181.7

>  <PUBCHEM_COORDINATE_TYPE>  (1) 
2
5
10

$$$$
