29971
     RDKit          3D

  7  6  0  0  0  0  0  0  0  0999 V2000
   -1.5124    1.3508   -0.0980 O   0  0  0  0  0  0  0  0  0  0  0  0
    0.8629    0.0425    0.5381 N   0  0  0  0  0  0  0  0  0  0  0  0
   -0.3312   -0.6163    0.2957 N   0  0  0  0  0  0  0  0  0  0  0  0
    1.8854   -0.4086   -0.3960 C   0  0  0  0  0  0  0  0  0  0  0  0
    3.2229    0.2434   -0.1121 C   0  0  0  0  0  0  0  0  0  0  0  0
   -1.4558    0.1261   -0.0127 C   0  0  0  0  0  0  0  0  0  0  0  0
   -2.6717   -0.7380   -0.2151 C   0  0  0  0  0  0  0  0  0  0  0  0
  1  6  2  0
  2  3  1  0
  2  4  1  0
  3  6  1  0
  4  5  1  0
  6  7  1  0
M  END
>  <PUBCHEM_COMPOUND_CID>  (1) 
29971

>  <PUBCHEM_CONFORMER_RMSD>  (1) 
0.4

>  <PUBCHEM_CONFORMER_DIVERSEORDER>  (1) 
1
6
9
7
10
8
5
4
3
2

>  <PUBCHEM_MMFF94_PARTIAL_CHARGES>  (1) 
8
1 -0.57
10 0.36
14 0.37
2 -0.64
3 -0.42
4 0.27
6 0.57
7 0.06

>  <PUBCHEM_EFFECTIVE_ROTOR_COUNT>  (1) 
3

>  <PUBCHEM_PHARMACOPHORE_FEATURES>  (1) 
3
1 1 acceptor
1 2 donor
1 3 donor

>  <PUBCHEM_HEAVY_ATOM_COUNT>  (1) 
7

>  <PUBCHEM_ATOM_DEF_STEREO_COUNT>  (1) 
0

>  <PUBCHEM_ATOM_UDEF_STEREO_COUNT>  (1) 
0

>  <PUBCHEM_BOND_DEF_STEREO_COUNT>  (1) 
0

>  <PUBCHEM_BOND_UDEF_STEREO_COUNT>  (1) 
0

>  <PUBCHEM_ISOTOPIC_ATOM_COUNT>  (1) 
0

>  <PUBCHEM_COMPONENT_COUNT>  (1) 
1

>  <PUBCHEM_CACTVS_TAUTO_COUNT>  (1) 
2

>  <PUBCHEM_CONFORMER_ID>  (1) 
0000751300000001

>  <PUBCHEM_MMFF94_ENERGY>  (1) 
0.7994

>  <PUBCHEM_FEATURE_SELFOVERLAP>  (1) 
16.714

>  <PUBCHEM_SHAPE_FINGERPRINT>  (1) 
12897270 3 18411697698935861958
14390081 3 18408322181401689624
15310529 11 18202281381573343942
16714656 1 18413107281696440359
23552423 10 18190460450300853594
29004967 10 16415481545118308914
5460574 1 8862944974376179946

>  <PUBCHEM_SHAPE_MULTIPOLES>  (1) 
128.23
4.67
0.96
0.66
2.02
0.21
-0.01
-0.23
-0.51
-0.47
-0.05
0.06
-0.03
0.03

>  <PUBCHEM_SHAPE_SELFOVERLAP>  (1) 
226.206

>  <PUBCHEM_SHAPE_VOLUME>  (1) 
84.4

>  <PUBCHEM_COORDINATE_TYPE>  (1) 
2
5
10

$$$$
