29974
     RDKit          3D

  8  8  0  0  0  0  0  0  0  0999 V2000
   -1.3992    0.0000    0.3516 N   0  0  0  0  0  0  0  0  0  0  0  0
    1.3990    0.0000   -0.3514 N   0  0  0  0  0  0  0  0  0  0  0  0
   -2.7683   -0.0001   -0.0827 N   0  0  0  0  0  0  0  0  0  0  0  0
    2.7684   -0.0001    0.0819 N   0  0  0  0  0  0  0  0  0  0  0  0
   -0.7464   -1.2050   -0.1766 C   0  0  0  0  0  0  0  0  0  0  0  0
   -0.7465    1.2052   -0.1766 C   0  0  0  0  0  0  0  0  0  0  0  0
    0.7464   -1.2051    0.1770 C   0  0  0  0  0  0  0  0  0  0  0  0
    0.7465    1.2052    0.1769 C   0  0  0  0  0  0  0  0  0  0  0  0
  1  3  1  0
  1  5  1  0
  1  6  1  0
  2  4  1  0
  2  7  1  0
  2  8  1  0
  5  7  1  0
  6  8  1  0
M  END
>  <PUBCHEM_COMPOUND_CID>  (1) 
29974

>  <PUBCHEM_CONFORMER_RMSD>  (1) 
0.4

>  <PUBCHEM_CONFORMER_DIVERSEORDER>  (1) 
1
2
3

>  <PUBCHEM_MMFF94_PARTIAL_CHARGES>  (1) 
12
1 -0.54
17 0.36
18 0.36
19 0.36
2 -0.54
20 0.36
3 -0.72
4 -0.72
5 0.27
6 0.27
7 0.27
8 0.27

>  <PUBCHEM_EFFECTIVE_ROTOR_COUNT>  (1) 
1.2

>  <PUBCHEM_PHARMACOPHORE_FEATURES>  (1) 
3
1 3 donor
1 4 donor
6 1 2 5 6 7 8 rings

>  <PUBCHEM_HEAVY_ATOM_COUNT>  (1) 
8

>  <PUBCHEM_ATOM_DEF_STEREO_COUNT>  (1) 
0

>  <PUBCHEM_ATOM_UDEF_STEREO_COUNT>  (1) 
0

>  <PUBCHEM_BOND_DEF_STEREO_COUNT>  (1) 
0

>  <PUBCHEM_BOND_UDEF_STEREO_COUNT>  (1) 
0

>  <PUBCHEM_ISOTOPIC_ATOM_COUNT>  (1) 
0

>  <PUBCHEM_COMPONENT_COUNT>  (1) 
1

>  <PUBCHEM_CACTVS_TAUTO_COUNT>  (1) 
1

>  <PUBCHEM_CONFORMER_ID>  (1) 
0000751600000001

>  <PUBCHEM_MMFF94_ENERGY>  (1) 
11.0929

>  <PUBCHEM_FEATURE_SELFOVERLAP>  (1) 
15.223

>  <PUBCHEM_SHAPE_FINGERPRINT>  (1) 
16714656 1 18410859862633164078
18185500 45 18410571807613731007
20096714 4 18339364161870768475
21040471 1 18410576209955079471
23552423 10 18116714225714538446
29004967 10 18187937169988565177

>  <PUBCHEM_SHAPE_MULTIPOLES>  (1) 
144.71
2.96
1.4
0.62
0
0
0
0
0
0
0
0
0
0

>  <PUBCHEM_SHAPE_SELFOVERLAP>  (1) 
274.402

>  <PUBCHEM_SHAPE_VOLUME>  (1) 
87.9

>  <PUBCHEM_COORDINATE_TYPE>  (1) 
2
5
10

$$$$
