29988
     RDKit          3D

 24 26  0  0  1  0  0  0  0  0999 V2000
    3.3729    2.3349   -0.1716 Cl  0  0  0  0  0  0  0  0  0  0  0  0
    2.5516   -3.0550   -0.4874 Cl  0  0  0  0  0  0  0  0  0  0  0  0
   -0.4640    0.1348    0.0913 O   0  0  0  0  0  0  0  0  0  0  0  0
    0.9954   -0.1897    1.8219 O   0  0  0  0  0  0  0  0  0  0  0  0
   -3.2835   -0.2710   -0.1535 N   0  0  0  0  0  0  0  0  0  0  0  0
    1.6993   -0.1635   -0.4106 N   0  0  0  0  0  0  0  0  0  0  0  0
   -2.7163    1.0368    0.1742 C   0  0  0  0  0  0  0  0  0  0  0  0
   -1.3748    0.8727    0.9069 C   0  0  0  0  0  0  0  0  0  0  0  0
   -2.5644    1.8876   -1.0946 C   0  0  0  0  0  0  0  0  0  0  0  0
   -0.7618    2.2402    1.2245 C   0  0  0  0  0  0  0  0  0  0  0  0
   -1.9440    3.2472   -0.7740 C   0  0  0  0  0  0  0  0  0  0  0  0
   -0.6202    3.1086   -0.0270 C   0  0  0  0  0  0  0  0  0  0  0  0
   -3.4294   -1.0867    1.0603 C   0  0  0  0  0  0  0  0  0  0  0  0
   -4.5702   -0.1144   -0.8462 C   0  0  0  0  0  0  0  0  0  0  0  0
   -3.9758   -2.4762    0.7288 C   0  0  0  0  0  0  0  0  0  0  0  0
   -5.1538   -1.4723   -1.2401 C   0  0  0  0  0  0  0  0  0  0  0  0
   -5.2956   -2.3871   -0.0290 C   0  0  0  0  0  0  0  0  0  0  0  0
    0.7828   -0.0856    0.6200 C   0  0  0  0  0  0  0  0  0  0  0  0
    3.0933   -0.3804   -0.3214 C   0  0  0  0  0  0  0  0  0  0  0  0
    3.9505    0.7064   -0.2074 C   0  0  0  0  0  0  0  0  0  0  0  0
    3.5873   -1.6782   -0.3471 C   0  0  0  0  0  0  0  0  0  0  0  0
    5.3259    0.4915   -0.1177 C   0  0  0  0  0  0  0  0  0  0  0  0
    4.9628   -1.8928   -0.2575 C   0  0  0  0  0  0  0  0  0  0  0  0
    5.8320   -0.8079   -0.1426 C   0  0  0  0  0  0  0  0  0  0  0  0
  1 20  1  0
  2 21  1  0
  3  8  1  0
  3 18  1  0
  4 18  2  0
  5  7  1  0
  5 13  1  0
  5 14  1  0
  6 18  1  0
  6 19  1  0
  7  8  1  0
  7  9  1  0
  8 10  1  0
  9 11  1  0
 10 12  1  0
 11 12  1  0
 13 15  1  0
 14 16  1  0
 15 17  1  0
 16 17  1  0
 19 20  2  0
 19 21  1  0
 20 22  1  0
 21 23  2  0
 22 24  2  0
 23 24  1  0
M  END
>  <PUBCHEM_COMPOUND_CID>  (1) 
29988

>  <PUBCHEM_CONFORMER_RMSD>  (1) 
0.8

>  <PUBCHEM_CONFORMER_DIVERSEORDER>  (1) 
1
76
37
32
67
102
42
81
98
3
57
60
77
72
101
82
97
52
65
75
40
35
17
85
66
7
25
58
21
84
53
55
71
73
89
64
100
99
27
47
51
6
29
94
19
83
56
15
70
18
22
62
8
33
68
43
28
10
103
88
13
79
16
86
61
96
59
31
69
93
90
44
92
45
23
54
50
26
11
36
30
95
49
74
48
87
91
78
39
12
14
34
5
24
41
20
80
63
38
9
4
2
46

>  <PUBCHEM_MMFF94_PARTIAL_CHARGES>  (1) 
21
1 -0.18
13 0.27
14 0.27
18 0.78
19 0.12
2 -0.18
20 0.18
21 0.18
22 -0.15
23 -0.15
24 -0.15
3 -0.43
4 -0.57
45 0.37
46 0.15
47 0.15
48 0.15
5 -0.81
6 -0.55
7 0.27
8 0.28

>  <PUBCHEM_EFFECTIVE_ROTOR_COUNT>  (1) 
7.4

>  <PUBCHEM_PHARMACOPHORE_FEATURES>  (1) 
6
1 4 acceptor
1 5 cation
1 6 donor
6 19 20 21 22 23 24 rings
6 5 13 14 15 16 17 rings
6 7 8 9 10 11 12 rings

>  <PUBCHEM_HEAVY_ATOM_COUNT>  (1) 
24

>  <PUBCHEM_ATOM_DEF_STEREO_COUNT>  (1) 
0

>  <PUBCHEM_ATOM_UDEF_STEREO_COUNT>  (1) 
2

>  <PUBCHEM_BOND_DEF_STEREO_COUNT>  (1) 
0

>  <PUBCHEM_BOND_UDEF_STEREO_COUNT>  (1) 
0

>  <PUBCHEM_ISOTOPIC_ATOM_COUNT>  (1) 
0

>  <PUBCHEM_COMPONENT_COUNT>  (1) 
1

>  <PUBCHEM_CACTVS_TAUTO_COUNT>  (1) 
2

>  <PUBCHEM_CONFORMER_ID>  (1) 
0000752400000001

>  <PUBCHEM_MMFF94_ENERGY>  (1) 
66.2909

>  <PUBCHEM_FEATURE_SELFOVERLAP>  (1) 
30.446

>  <PUBCHEM_SHAPE_FINGERPRINT>  (1) 
11045515 52 18187085044325230565
11089746 13 13840267030985809950
12403259 226 18410011022904536856
12403260 363 18333732395290272240
12553582 1 18261104189177403363
12596602 18 15697716016711019371
12788726 201 18261385620698227283
12916754 54 18412549794952138000
13103583 49 16558479681495263899
13544653 18 18342744048093614441
13631057 29 18413108342574623842
14251764 30 18339639066086008959
14347332 77 18335978666890301482
15238133 3 9151172082543368810
15352361 1 18410857685174513271
15849732 13 18262248725285375401
17349148 13 17749400256217507338
17492 89 18340770326022489550
200 152 18342176656864421184
20871999 31 18335693923965607429
21033650 10 16950554455355057525
221490 88 18411703166967403736
22393880 68 17968365780301059229
23402539 116 18408887325740338955
23557571 272 18341896238370908052
23559900 14 18409721855087296808
2838139 119 13912592879711459415
3004659 81 18260263061969972219
314194 84 18200313363476906319
329604 57 18411139160077422870
4280585 95 18261663870048762761
46194498 28 17533772969526286997
463206 1 18268151031560629295
5104073 3 18272651199935742818
5283173 99 18186512190382485213
6669772 16 17767400558497572744
6913067 236 18341039809354888824
7495541 125 17846212285044658560
9709674 26 18267592303686543542

>  <PUBCHEM_SHAPE_MULTIPOLES>  (1) 
475.95
12.71
3.63
1.11
3.85
0.92
0.18
-8.41
-2.54
-1.47
-0.41
-0.83
0.09
0.61

>  <PUBCHEM_SHAPE_SELFOVERLAP>  (1) 
977.41

>  <PUBCHEM_SHAPE_VOLUME>  (1) 
274

>  <PUBCHEM_COORDINATE_TYPE>  (1) 
2
5
10

$$$$
