29998
     RDKit          3D

 14 13  0  0  0  0  0  0  0  0999 V2000
   -1.8493   -0.0151    0.4717 P   0  0  0  0  0  0  0  0  0  0  0  0
   -0.3007    0.0094    0.9432 O   0  0  0  0  0  0  0  0  0  0  0  0
   -1.9884    1.2494   -0.5317 O   0  0  0  0  0  0  0  0  0  0  0  0
   -1.9490   -1.2855   -0.5289 O   0  0  0  0  0  0  0  0  0  0  0  0
   -2.8395   -0.0292    1.6018 O   0  0  0  0  0  0  0  0  0  0  0  0
    2.0802    0.0460    0.6907 C   0  0  0  0  0  0  0  0  0  0  0  0
    3.2463    0.0473   -0.2952 C   0  0  0  0  0  0  0  0  0  0  0  0
    4.5900    0.0263    0.4328 C   0  0  0  0  0  0  0  0  0  0  0  0
    0.7378    0.0244   -0.0264 C   0  0  0  0  0  0  0  0  0  0  0  0
    5.7534   -0.0066   -0.5457 C   0  0  0  0  0  0  0  0  0  0  0  0
   -1.8326    2.5537    0.0005 C   0  0  0  0  0  0  0  0  0  0  0  0
   -1.7529   -2.5832    0.0062 C   0  0  0  0  0  0  0  0  0  0  0  0
   -2.0033    3.5645   -1.1135 C   0  0  0  0  0  0  0  0  0  0  0  0
   -1.8920   -3.6012   -1.1055 C   0  0  0  0  0  0  0  0  0  0  0  0
  1  2  1  0
  1  3  1  0
  1  4  1  0
  1  5  2  0
  2  9  1  0
  3 11  1  0
  4 12  1  0
  6  7  1  0
  6  9  1  0
  7  8  1  0
  8 10  1  0
 11 13  1  0
 12 14  1  0
M  END
>  <PUBCHEM_COMPOUND_CID>  (1) 
29998

>  <PUBCHEM_CONFORMER_RMSD>  (1) 
0.8

>  <PUBCHEM_CONFORMER_DIVERSEORDER>  (1) 
1
151
162
69
217
173
14
141
84
43
116
15
207
118
76
212
178
95
174
172
25
184
143
107
191
131
19
161
81
42
168
171
58
213
77
72
137
220
180
204
138
65
39
37
139
17
109
83
112
74
133
195
3
98
154
23
181
44
156
102
78
68
157
89
146
94
18
132
51
54
79
211
63
11
140
108
210
13
60
142
56
205
186
27
216
170
126
104
16
92
159
35
62
90
30
22
9
128
203
66
4
125
36
52
200
48
187
34
193
24
192
196
28
85
33
123
198
218
99
64
153
41
40
182
160
7
12
130
101
167
115
122
144
190
129
55
136
197
6
21
166
152
70
91
158
82
38
114
105
67
179
119
59
50
155
202
163
100
214
80
185
175
5
46
2
57
147
97
165
150
8
183
219
209
194
206
148
32
103
120
31
10
208
215
96
201
127
169
29
134
71
20
88
26
113
93
73
75
176
117
110
86
145
53
177
199
106
121
47
188
45
111
124
61
49
149
135
87
189
164

>  <PUBCHEM_MMFF94_PARTIAL_CHARGES>  (1) 
8
1 1.51
11 0.28
12 0.28
2 -0.55
3 -0.55
4 -0.55
5 -0.7
9 0.28

>  <PUBCHEM_EFFECTIVE_ROTOR_COUNT>  (1) 
9

>  <PUBCHEM_PHARMACOPHORE_FEATURES>  (1) 
2
1 10 hydrophobe
1 5 acceptor

>  <PUBCHEM_HEAVY_ATOM_COUNT>  (1) 
14

>  <PUBCHEM_ATOM_DEF_STEREO_COUNT>  (1) 
0

>  <PUBCHEM_ATOM_UDEF_STEREO_COUNT>  (1) 
0

>  <PUBCHEM_BOND_DEF_STEREO_COUNT>  (1) 
0

>  <PUBCHEM_BOND_UDEF_STEREO_COUNT>  (1) 
0

>  <PUBCHEM_ISOTOPIC_ATOM_COUNT>  (1) 
0

>  <PUBCHEM_COMPONENT_COUNT>  (1) 
1

>  <PUBCHEM_CACTVS_TAUTO_COUNT>  (1) 
1

>  <PUBCHEM_CONFORMER_ID>  (1) 
0000752E00000001

>  <PUBCHEM_MMFF94_ENERGY>  (1) 
2.6826

>  <PUBCHEM_FEATURE_SELFOVERLAP>  (1) 
10.148

>  <PUBCHEM_SHAPE_FINGERPRINT>  (1) 
10680689 15 18409173216655515090
12500047 106 18340480059347255472
12932764 1 18410852166378811288
14508225 48 18125144177038159647
1741750 31 18192708938911096560
17539 30 18269258205546744055
18785283 64 17545611050012930641
20645477 56 18340491071353655000
20645477 70 16773522058492118958
20671657 53 17979348995330236023
21339142 126 18408606980392781275
21426921 1 18409447003366537116
21524375 3 17827623765272110993
2306618 200 18272092690461813376
23402539 116 18341887511529716399
23557571 272 18202007625096229108
23598288 3 18114477737438171149
3057174 1 17907559346979157437
58051976 100 18272937158795246542
633830 44 17240772736093084306
81228 2 18268698584367173739

>  <PUBCHEM_SHAPE_MULTIPOLES>  (1) 
268.49
8.17
3.75
1.1
17.85
0.18
-0.1
-0.23
0.67
-6.37
2.15
-0.6
0
0.05

>  <PUBCHEM_SHAPE_SELFOVERLAP>  (1) 
472.124

>  <PUBCHEM_SHAPE_VOLUME>  (1) 
176.2

>  <PUBCHEM_COORDINATE_TYPE>  (1) 
2
5
10

$$$$
