29997
     RDKit          3D

 18 17  0  0  0  0  0  0  0  0999 V2000
    0.8992    1.3128   -1.5225 S   0  0  0  0  0  0  0  0  0  0  0  0
    2.1807    0.7492    0.0398 P   0  0  0  0  0  0  0  0  0  0  0  0
    1.8187   -0.7421    0.5766 O   0  0  0  0  0  0  0  0  0  0  0  0
    3.6823    0.5631   -0.5558 O   0  0  0  0  0  0  0  0  0  0  0  0
    2.1315    1.7658    1.1509 O   0  0  0  0  0  0  0  0  0  0  0  0
   -2.7656    0.1226   -0.0022 N   0  0  0  0  0  0  0  0  0  0  0  0
   -1.3826    0.0114   -0.6275 C   0  0  0  0  0  0  0  0  0  0  0  0
   -3.7564    0.6173   -1.0463 C   0  0  0  0  0  0  0  0  0  0  0  0
   -3.2039   -1.2434    0.5058 C   0  0  0  0  0  0  0  0  0  0  0  0
   -2.7199    1.1051    1.1593 C   0  0  0  0  0  0  0  0  0  0  0  0
   -0.7529    1.3877   -0.7670 C   0  0  0  0  0  0  0  0  0  0  0  0
   -5.1290    0.7256   -0.4189 C   0  0  0  0  0  0  0  0  0  0  0  0
   -3.2474   -2.2154   -0.6530 C   0  0  0  0  0  0  0  0  0  0  0  0
   -1.7338    0.6081    2.1937 C   0  0  0  0  0  0  0  0  0  0  0  0
    1.8119   -1.8378   -0.3221 C   0  0  0  0  0  0  0  0  0  0  0  0
    4.7136    0.1315    0.3155 C   0  0  0  0  0  0  0  0  0  0  0  0
    1.4453   -3.0954    0.4365 C   0  0  0  0  0  0  0  0  0  0  0  0
    6.0083    0.0340   -0.4629 C   0  0  0  0  0  0  0  0  0  0  0  0
  1  2  1  0
  1 11  1  0
  2  3  1  0
  2  4  1  0
  2  5  2  0
  3 15  1  0
  4 16  1  0
  6  7  1  0
  6  8  1  0
  6  9  1  0
  6 10  1  0
  7 11  1  0
  8 12  1  0
  9 13  1  0
 10 14  1  0
 15 17  1  0
 16 18  1  0
M  CHG  1   6   1
M  END
>  <PUBCHEM_COMPOUND_CID>  (1) 
29997

>  <PUBCHEM_CONFORMER_RMSD>  (1) 
1

>  <PUBCHEM_CONFORMER_DIVERSEORDER>  (1) 
1
57
14
16
52
10
55
3
79
11
9
58
81
33
5
62
13
37
38
44
48
15
17
63
18
84
25
53
20
40
12
43
45
85
47
72
24
21
4
75
19
31
66
6
61
70
60
56
36
34
35
50
30
28
77
73
59
51
80
68
27
8
82
49
67
23
65
76
71
41
46
42
69
39
83
26
74
7
22
2
64
32
78
54
29

>  <PUBCHEM_MMFF94_PARTIAL_CHARGES>  (1) 
13
1 -0.48
10 0.5
11 0.23
15 0.28
16 0.28
2 1.49
3 -0.55
4 -0.55
5 -0.7
6 -1.01
7 0.5
8 0.5
9 0.5

>  <PUBCHEM_EFFECTIVE_ROTOR_COUNT>  (1) 
11

>  <PUBCHEM_PHARMACOPHORE_FEATURES>  (1) 
2
1 5 acceptor
1 6 cation

>  <PUBCHEM_HEAVY_ATOM_COUNT>  (1) 
18

>  <PUBCHEM_ATOM_DEF_STEREO_COUNT>  (1) 
0

>  <PUBCHEM_ATOM_UDEF_STEREO_COUNT>  (1) 
0

>  <PUBCHEM_BOND_DEF_STEREO_COUNT>  (1) 
0

>  <PUBCHEM_BOND_UDEF_STEREO_COUNT>  (1) 
0

>  <PUBCHEM_ISOTOPIC_ATOM_COUNT>  (1) 
0

>  <PUBCHEM_COMPONENT_COUNT>  (1) 
1

>  <PUBCHEM_CACTVS_TAUTO_COUNT>  (1) 
1

>  <PUBCHEM_CONFORMER_ID>  (1) 
0000752D00000001

>  <PUBCHEM_MMFF94_ENERGY>  (1) 
39.1223

>  <PUBCHEM_FEATURE_SELFOVERLAP>  (1) 
10.148

>  <PUBCHEM_SHAPE_FINGERPRINT>  (1) 
10366900 7 18341324535300381305
11315181 36 18201722872906386768
12500047 106 18410285900726669261
12596599 1 18200331994696539284
12788726 201 17345757370119036745
13533116 47 18200026236502387335
14787075 74 17339550910026030361
15209289 33 18342179998786827370
15375358 24 17748828483905491909
17802600 8 11023823976911437679
200 152 18059850679897748013
20233049 118 12247681569717392422
20279233 1 17676496012102960249
20600515 1 15864080844697485462
20645477 70 18115863010198817182
23402539 116 17530681018027125708
23557571 272 15792028786772402689
23559900 14 18271795874025750377
3286 77 18201439250509312136
34934 24 18187640263437096063
3545911 37 18410011035678051895
474229 33 18334857225824013894
7495541 125 11887374937599595652
81228 2 17170118027748787709

>  <PUBCHEM_SHAPE_MULTIPOLES>  (1) 
355.54
10.18
2.31
1.41
6.8
2.1
-0.51
-0.7
1.07
0.07
0.08
-0.72
-0.51
-0.25

>  <PUBCHEM_SHAPE_SELFOVERLAP>  (1) 
628.553

>  <PUBCHEM_SHAPE_VOLUME>  (1) 
235.6

>  <PUBCHEM_COORDINATE_TYPE>  (1) 
2
5
10

$$$$
