29995
     RDKit          3D

 10 10  0  0  0  0  0  0  0  0999 V2000
   -1.1356   -2.1826   -0.1278 O   0  0  0  0  0  0  0  0  0  0  0  0
    2.7963    0.1384    0.2714 O   0  0  0  0  0  0  0  0  0  0  0  0
    1.0312   -1.3728    0.1323 N   0  0  0  0  0  0  0  0  0  0  0  0
   -0.6123    0.1540   -0.2496 C   0  0  0  0  0  0  0  0  0  0  0  0
    0.5374    0.8327   -0.1325 C   0  0  0  0  0  0  0  0  0  0  0  0
   -1.9935    0.6319   -0.5017 C   0  0  0  0  0  0  0  0  0  0  0  0
   -0.3131   -1.2841   -0.0802 C   0  0  0  0  0  0  0  0  0  0  0  0
    1.6204   -0.1428    0.1164 C   0  0  0  0  0  0  0  0  0  0  0  0
    0.8117    2.2878   -0.2160 C   0  0  0  0  0  0  0  0  0  0  0  0
   -2.7425    0.9374    0.7879 C   0  0  0  0  0  0  0  0  0  0  0  0
  1  7  2  0
  2  8  2  0
  3  7  1  0
  3  8  1  0
  4  5  2  0
  4  6  1  0
  4  7  1  0
  5  8  1  0
  5  9  1  0
  6 10  1  0
M  END
>  <PUBCHEM_COMPOUND_CID>  (1) 
29995

>  <PUBCHEM_CONFORMER_RMSD>  (1) 
0.4

>  <PUBCHEM_CONFORMER_DIVERSEORDER>  (1) 
1
2
3
4

>  <PUBCHEM_MMFF94_PARTIAL_CHARGES>  (1) 
10
1 -0.57
13 0.37
2 -0.57
3 -0.49
4 -0.12
5 -0.12
6 0.14
7 0.62
8 0.62
9 0.14

>  <PUBCHEM_EFFECTIVE_ROTOR_COUNT>  (1) 
1.2

>  <PUBCHEM_PHARMACOPHORE_FEATURES>  (1) 
5
1 1 acceptor
1 10 hydrophobe
1 2 acceptor
1 3 donor
5 3 4 5 7 8 rings

>  <PUBCHEM_HEAVY_ATOM_COUNT>  (1) 
10

>  <PUBCHEM_ATOM_DEF_STEREO_COUNT>  (1) 
0

>  <PUBCHEM_ATOM_UDEF_STEREO_COUNT>  (1) 
0

>  <PUBCHEM_BOND_DEF_STEREO_COUNT>  (1) 
0

>  <PUBCHEM_BOND_UDEF_STEREO_COUNT>  (1) 
0

>  <PUBCHEM_ISOTOPIC_ATOM_COUNT>  (1) 
0

>  <PUBCHEM_COMPONENT_COUNT>  (1) 
1

>  <PUBCHEM_CACTVS_TAUTO_COUNT>  (1) 
3

>  <PUBCHEM_CONFORMER_ID>  (1) 
0000752B00000001

>  <PUBCHEM_MMFF94_ENERGY>  (1) 
5.7139

>  <PUBCHEM_FEATURE_SELFOVERLAP>  (1) 
25.371

>  <PUBCHEM_SHAPE_FINGERPRINT>  (1) 
10219947 1 18337394812234132169
12423570 1 9175791096728756142
161256 15 17694229867485379493
16945 1 18408601457028012772
193761 8 18049723211095469444
21040471 1 18411135814165926526
23552423 10 17900253410198388060
2748010 2 17976532819549324740
29004967 10 18116439145791352161
5084963 1 18272640264701333397

>  <PUBCHEM_SHAPE_MULTIPOLES>  (1) 
189.08
3.07
2.07
0.71
0.53
0.11
0.02
-0.69
0.63
-0.01
-0.13
0.23
-0.09
-0.19

>  <PUBCHEM_SHAPE_SELFOVERLAP>  (1) 
390.652

>  <PUBCHEM_SHAPE_VOLUME>  (1) 
111.5

>  <PUBCHEM_COORDINATE_TYPE>  (1) 
2
5
10

$$$$
