30012
     RDKit          3D

 19 19  0  0  0  0  0  0  0  0999 V2000
    4.9324   -2.7846   -0.4738 Cl  0  0  0  0  0  0  0  0  0  0  0  0
   -1.0085    0.4736    0.0215 O   0  0  0  0  0  0  0  0  0  0  0  0
    0.2512   -1.4082   -0.2965 O   0  0  0  0  0  0  0  0  0  0  0  0
   -4.6399   -0.1313   -0.1616 N   0  0  0  0  0  0  0  0  0  0  0  0
    1.2254    0.6845    0.0932 N   0  0  0  0  0  0  0  0  0  0  0  0
   -3.3961    0.6187    0.0103 C   0  0  0  0  0  0  0  0  0  0  0  0
   -4.7340   -1.1998    0.8323 C   0  0  0  0  0  0  0  0  0  0  0  0
   -5.7932    0.7623   -0.0622 C   0  0  0  0  0  0  0  0  0  0  0  0
   -2.1920   -0.2981   -0.1355 C   0  0  0  0  0  0  0  0  0  0  0  0
   -5.9914   -2.0284    0.6304 C   0  0  0  0  0  0  0  0  0  0  0  0
   -5.7121    1.8796   -1.0885 C   0  0  0  0  0  0  0  0  0  0  0  0
    2.6126    0.4148    0.0661 C   0  0  0  0  0  0  0  0  0  0  0  0
    3.5274    1.4382    0.2615 C   0  0  0  0  0  0  0  0  0  0  0  0
    0.1824   -0.2042   -0.0817 C   0  0  0  0  0  0  0  0  0  0  0  0
    3.0305   -0.8882   -0.1605 C   0  0  0  0  0  0  0  0  0  0  0  0
    4.8923    1.1525    0.2295 C   0  0  0  0  0  0  0  0  0  0  0  0
    3.0913    2.8461    0.5056 C   0  0  0  0  0  0  0  0  0  0  0  0
    4.3954   -1.1740   -0.1925 C   0  0  0  0  0  0  0  0  0  0  0  0
    5.3262   -0.1536    0.0025 C   0  0  0  0  0  0  0  0  0  0  0  0
  1 18  1  0
  2  9  1  0
  2 14  1  0
  3 14  2  0
  4  6  1  0
  4  7  1  0
  4  8  1  0
  5 12  1  0
  5 14  1  0
  6  9  1  0
  7 10  1  0
  8 11  1  0
 12 13  2  0
 12 15  1  0
 13 16  1  0
 13 17  1  0
 15 18  2  0
 16 19  2  0
 18 19  1  0
M  END
>  <PUBCHEM_COMPOUND_CID>  (1) 
30012

>  <PUBCHEM_CONFORMER_RMSD>  (1) 
0.8

>  <PUBCHEM_CONFORMER_DIVERSEORDER>  (1) 
1
75
32
49
67
99
136
11
43
141
59
37
142
5
129
31
120
124
36
140
92
130
79
44
68
80
4
69
19
123
7
89
3
39
112
17
38
13
103
41
94
107
113
81
58
53
74
18
62
127
73
126
85
106
22
115
66
30
34
93
29
121
2
138
15
86
108
63
21
117
122
131
24
70
33
128
102
40
54
27
60
9
137
71
35
116
64
20
48
50
10
61
118
56
78
95
52
87
16
46
119
100
84
104
45
110
51
96
65
55
8
76
77
105
139
135
6
57
83
82
26
125
72
98
91
14
111
134
47
114
90
42
101
109
88
12
25
97
133
132
28
23

>  <PUBCHEM_MMFF94_PARTIAL_CHARGES>  (1) 
21
1 -0.18
12 0.12
13 -0.14
14 0.78
15 -0.15
16 -0.15
17 0.14
18 0.18
19 -0.15
2 -0.43
3 -0.57
34 0.37
35 0.15
36 0.15
4 -0.81
40 0.15
5 -0.55
6 0.27
7 0.27
8 0.27
9 0.28

>  <PUBCHEM_EFFECTIVE_ROTOR_COUNT>  (1) 
8

>  <PUBCHEM_PHARMACOPHORE_FEATURES>  (1) 
4
1 3 acceptor
1 4 cation
1 5 donor
6 12 13 15 16 18 19 rings

>  <PUBCHEM_HEAVY_ATOM_COUNT>  (1) 
19

>  <PUBCHEM_ATOM_DEF_STEREO_COUNT>  (1) 
0

>  <PUBCHEM_ATOM_UDEF_STEREO_COUNT>  (1) 
0

>  <PUBCHEM_BOND_DEF_STEREO_COUNT>  (1) 
0

>  <PUBCHEM_BOND_UDEF_STEREO_COUNT>  (1) 
0

>  <PUBCHEM_ISOTOPIC_ATOM_COUNT>  (1) 
0

>  <PUBCHEM_COMPONENT_COUNT>  (1) 
1

>  <PUBCHEM_CACTVS_TAUTO_COUNT>  (1) 
2

>  <PUBCHEM_CONFORMER_ID>  (1) 
0000753C00000001

>  <PUBCHEM_MMFF94_ENERGY>  (1) 
41.3698

>  <PUBCHEM_FEATURE_SELFOVERLAP>  (1) 
20.297

>  <PUBCHEM_SHAPE_FINGERPRINT>  (1) 
10912923 1 17131833196420632163
11045977 3 18334860523789249915
11287383 113 18409450314538350659
12107183 9 17767695957451334760
12616971 3 17489869349664177437
12730499 353 18339648948974009810
13073987 5 18272937111054715024
13167372 99 18059580122786381129
13167823 11 18412261748664992787
13533116 47 17988924440586346074
13911852 28 18053665772631934398
13955234 65 18272647996059009784
1420 363 18260834834313675451
14341114 176 18408609145415260817
14933364 13 18408044009418470333
15196674 1 18410575097954227667
15348495 7 18336267929022229305
17834072 33 18343020033843703399
17844677 252 18409736183599304097
18222031 100 16660642990037489535
19433438 28 18334294301381972425
19489759 90 17676485064880156345
20645477 70 18412265013204134686
21065198 57 18410012173559639603
21267235 1 18272095972739928214
21279426 13 18336265643815161135
21709351 56 18261106396616474677
220451 1 17988930010763205727
22289505 5 18412543198230732332
2303208 19 18261967288145510803
23081809 10 15719388430286476161
23402539 116 17967810557468381693
23559900 14 18410006628894140665
239999 70 18409169913768103322
3014965 18 18339356349441522726
3545911 37 18341896333376750312
4073 2 18113904891753772371
4214541 1 18408604764727869513
465052 167 18272939293531435422
5104073 3 18343303634844914273
59755656 215 18115305553708930255
633830 44 18114454643256718879
90127 26 18040722484720531673

>  <PUBCHEM_SHAPE_MULTIPOLES>  (1) 
371.18
16.96
2.51
0.77
16.33
0.1
-0.03
2.31
-0.26
-1.71
0.02
0.52
-0.04
2.21

>  <PUBCHEM_SHAPE_SELFOVERLAP>  (1) 
736.75

>  <PUBCHEM_SHAPE_VOLUME>  (1) 
222.6

>  <PUBCHEM_COORDINATE_TYPE>  (1) 
2
5
10

$$$$
