30020
     RDKit          3D

  9  8  0  0  1  0  0  0  0  0999 V2000
   -0.8679    1.7660   -0.9613 O   0  0  0  0  0  0  0  0  0  0  0  0
   -0.7171    1.3600    1.2731 O   0  0  0  0  0  0  0  0  0  0  0  0
   -0.3361   -0.4501   -0.3149 C   0  0  0  0  0  0  0  0  0  0  0  0
    1.0672   -0.8407    0.1811 C   0  0  0  0  0  0  0  0  0  0  0  0
   -1.3957   -1.4129    0.2455 C   0  0  0  0  0  0  0  0  0  0  0  0
    2.1649    0.0631   -0.3892 C   0  0  0  0  0  0  0  0  0  0  0  0
   -0.6559    0.9692    0.1160 C   0  0  0  0  0  0  0  0  0  0  0  0
   -2.8011   -1.0931   -0.2480 C   0  0  0  0  0  0  0  0  0  0  0  0
    3.5418   -0.3616    0.0977 C   0  0  0  0  0  0  0  0  0  0  0  0
  1  7  1  0
  2  7  2  0
  3  4  1  0
  3  5  1  0
  3  7  1  0
  4  6  1  0
  5  8  1  0
  6  9  1  0
M  END
>  <PUBCHEM_COMPOUND_CID>  (1) 
30020

>  <PUBCHEM_CONFORMER_RMSD>  (1) 
0.6

>  <PUBCHEM_CONFORMER_DIVERSEORDER>  (1) 
1
25
7
26
10
30
21
16
29
34
20
18
22
33
17
14
19
3
24
11
23
12
28
9
15
27
32
5
13
8
31
4
2
6

>  <PUBCHEM_MMFF94_PARTIAL_CHARGES>  (1) 
5
1 -0.65
2 -0.57
23 0.5
3 0.06
7 0.66

>  <PUBCHEM_EFFECTIVE_ROTOR_COUNT>  (1) 
4

>  <PUBCHEM_PHARMACOPHORE_FEATURES>  (1) 
6
1 1 acceptor
1 2 acceptor
1 8 hydrophobe
1 9 hydrophobe
3 1 2 7 anion
4 3 4 5 6 hydrophobe

>  <PUBCHEM_HEAVY_ATOM_COUNT>  (1) 
9

>  <PUBCHEM_ATOM_DEF_STEREO_COUNT>  (1) 
0

>  <PUBCHEM_ATOM_UDEF_STEREO_COUNT>  (1) 
1

>  <PUBCHEM_BOND_DEF_STEREO_COUNT>  (1) 
0

>  <PUBCHEM_BOND_UDEF_STEREO_COUNT>  (1) 
0

>  <PUBCHEM_ISOTOPIC_ATOM_COUNT>  (1) 
0

>  <PUBCHEM_COMPONENT_COUNT>  (1) 
1

>  <PUBCHEM_CACTVS_TAUTO_COUNT>  (1) 
1

>  <PUBCHEM_CONFORMER_ID>  (1) 
0000754400000001

>  <PUBCHEM_MMFF94_ENERGY>  (1) 
3.7484

>  <PUBCHEM_FEATURE_SELFOVERLAP>  (1) 
30.503

>  <PUBCHEM_SHAPE_FINGERPRINT>  (1) 
10857977 72 18201148957595438874
14128692 85 18192999441861213871
20653085 51 15719388425696370055
21040471 1 18049442535156658228
23552423 10 18189058607693912582
23552449 1 18409728430972260404
29004967 10 18116437122898711483
5084963 1 18408325475789149286
54338 74 18113620109667833708

>  <PUBCHEM_SHAPE_MULTIPOLES>  (1) 
173.48
4.11
1.62
0.86
2.89
0.54
0.09
-1.6
-0.2
-0.9
0
-0.14
0.3
-0.06

>  <PUBCHEM_SHAPE_SELFOVERLAP>  (1) 
316.915

>  <PUBCHEM_SHAPE_VOLUME>  (1) 
111.3

>  <PUBCHEM_COORDINATE_TYPE>  (1) 
2
5
10

$$$$
