30027
     RDKit          3D

 19 19  0  0  0  0  0  0  0  0999 V2000
    3.0694    3.0599    0.5217 Cl  0  0  0  0  0  0  0  0  0  0  0  0
    4.9000   -2.8218   -0.4608 Cl  0  0  0  0  0  0  0  0  0  0  0  0
   -1.0041    0.4690    0.0156 O   0  0  0  0  0  0  0  0  0  0  0  0
    0.2540   -1.4166   -0.2867 O   0  0  0  0  0  0  0  0  0  0  0  0
   -4.6360   -0.1345   -0.1605 N   0  0  0  0  0  0  0  0  0  0  0  0
    1.2300    0.6786    0.0844 N   0  0  0  0  0  0  0  0  0  0  0  0
   -3.3915    0.6159    0.0043 C   0  0  0  0  0  0  0  0  0  0  0  0
   -5.7886    0.7609   -0.0683 C   0  0  0  0  0  0  0  0  0  0  0  0
   -4.7306   -1.1944    0.8427 C   0  0  0  0  0  0  0  0  0  0  0  0
   -2.1883   -0.3032   -0.1341 C   0  0  0  0  0  0  0  0  0  0  0  0
   -5.7071    1.8692   -1.1042 C   0  0  0  0  0  0  0  0  0  0  0  0
   -5.9887   -2.0236    0.6485 C   0  0  0  0  0  0  0  0  0  0  0  0
    0.1862   -0.2107   -0.0823 C   0  0  0  0  0  0  0  0  0  0  0  0
    2.6170    0.4075    0.0590 C   0  0  0  0  0  0  0  0  0  0  0  0
    3.5441    1.4216    0.2468 C   0  0  0  0  0  0  0  0  0  0  0  0
    3.0211   -0.9022   -0.1574 C   0  0  0  0  0  0  0  0  0  0  0  0
    4.3827   -1.2035   -0.1868 C   0  0  0  0  0  0  0  0  0  0  0  0
    4.9057    1.1202    0.2175 C   0  0  0  0  0  0  0  0  0  0  0  0
    5.3250   -0.1924    0.0007 C   0  0  0  0  0  0  0  0  0  0  0  0
  1 15  1  0
  2 17  1  0
  3 10  1  0
  3 13  1  0
  4 13  2  0
  5  7  1  0
  5  8  1  0
  5  9  1  0
  6 13  1  0
  6 14  1  0
  7 10  1  0
  8 11  1  0
  9 12  1  0
 14 15  2  0
 14 16  1  0
 15 18  1  0
 16 17  2  0
 17 19  1  0
 18 19  2  0
M  END
>  <PUBCHEM_COMPOUND_CID>  (1) 
30027

>  <PUBCHEM_CONFORMER_RMSD>  (1) 
0.8

>  <PUBCHEM_CONFORMER_DIVERSEORDER>  (1) 
1
81
125
58
117
107
91
122
108
48
47
142
66
79
100
127
16
132
97
72
120
49
98
119
78
19
136
68
40
42
139
141
63
90
60
92
128
123
43
65
35
109
111
133
110
113
18
33
44
32
140
83
105
17
14
36
130
38
59
64
114
6
54
8
50
51
71
131
106
25
102
76
74
55
13
116
80
23
70
46
21
94
126
89
137
30
115
84
88
93
99
69
62
3
24
20
103
5
87
2
61
31
56
121
118
52
27
7
124
77
67
135
101
41
28
34
75
112
26
22
138
95
10
96
73
29
85
39
9
15
82
104
37
53
12
45
11
4
86
134
129
57

>  <PUBCHEM_MMFF94_PARTIAL_CHARGES>  (1) 
21
1 -0.18
10 0.28
13 0.78
14 0.12
15 0.18
16 -0.15
17 0.18
18 -0.15
19 -0.15
2 -0.18
3 -0.43
34 0.37
35 0.15
36 0.15
37 0.15
4 -0.57
5 -0.81
6 -0.55
7 0.27
8 0.27
9 0.27

>  <PUBCHEM_EFFECTIVE_ROTOR_COUNT>  (1) 
8

>  <PUBCHEM_PHARMACOPHORE_FEATURES>  (1) 
4
1 4 acceptor
1 5 cation
1 6 donor
6 14 15 16 17 18 19 rings

>  <PUBCHEM_HEAVY_ATOM_COUNT>  (1) 
19

>  <PUBCHEM_ATOM_DEF_STEREO_COUNT>  (1) 
0

>  <PUBCHEM_ATOM_UDEF_STEREO_COUNT>  (1) 
0

>  <PUBCHEM_BOND_DEF_STEREO_COUNT>  (1) 
0

>  <PUBCHEM_BOND_UDEF_STEREO_COUNT>  (1) 
0

>  <PUBCHEM_ISOTOPIC_ATOM_COUNT>  (1) 
0

>  <PUBCHEM_COMPONENT_COUNT>  (1) 
1

>  <PUBCHEM_CACTVS_TAUTO_COUNT>  (1) 
2

>  <PUBCHEM_CONFORMER_ID>  (1) 
0000754B00000001

>  <PUBCHEM_MMFF94_ENERGY>  (1) 
39.3757

>  <PUBCHEM_FEATURE_SELFOVERLAP>  (1) 
20.297

>  <PUBCHEM_SHAPE_FINGERPRINT>  (1) 
10411042 1 18125443000263939470
10912923 1 17203890790463854331
11045977 3 18334579048812519771
11287383 113 18409168839545828731
11858739 19 18270962341069104582
12107183 9 17767695953156367458
12616971 3 17418375809428522277
12730499 353 18339930423950746458
13073987 5 18272655636051552632
13167372 99 18059580122781106369
13167823 11 18411980273698831643
13533116 47 18060137609662480570
13911852 28 18053665772626653134
13955234 65 18272367624873102416
1420 363 18261116304990157043
14341114 176 18408610244932150353
14933364 13 18408044009407920837
15348495 7 18335986454040243905
17834072 33 18342738558861698503
17844677 252 18410299133536901185
18222031 100 16660642990048032543
19433438 28 18334012826421099017
19489759 90 17676486164386489873
20645477 70 18412265008919736382
21065198 57 18410293648536356755
21267235 1 18271814497752674550
21279426 13 18335984168843764215
21709351 56 18260824921639712061
220451 1 17988930006468251439
221357 26 18339357462065100572
22289505 5 18412542098703312788
2303208 19 18334024882193981779
23081809 10 16008746900978308315
23402539 116 17967530181997998085
23559900 14 18410288103854975105
239999 70 18409169909478430250
3014965 18 18339074874464831566
3545911 37 18341896333397810328
4073 2 18113624511998996947
4214541 1 18408323285471989825
465052 167 18272939293542010918
5104073 3 18343022159868203617
59755656 215 18115305553714224495
633830 44 18114454643277837367
90127 26 18041002860201432321

>  <PUBCHEM_SHAPE_MULTIPOLES>  (1) 
373.05
16.89
2.63
0.78
16.85
0.19
0.02
-2.4
0.22
-2.12
-0.07
0.56
0.05
2.24

>  <PUBCHEM_SHAPE_SELFOVERLAP>  (1) 
733.361

>  <PUBCHEM_SHAPE_VOLUME>  (1) 
225.7

>  <PUBCHEM_COORDINATE_TYPE>  (1) 
2
5
10

$$$$
