30037
     RDKit          3D

 17 17  0  0  0  0  0  0  0  0999 V2000
   -2.0902   -2.7418   -0.1051 Cl  0  0  0  0  0  0  0  0  0  0  0  0
    1.5162   -0.1522   -0.4224 O   0  0  0  0  0  0  0  0  0  0  0  0
    0.2967    0.0505    1.5016 O   0  0  0  0  0  0  0  0  0  0  0  0
    5.1589   -0.2129    0.1371 N   0  0  0  0  0  0  0  0  0  0  0  0
   -0.7207   -0.0894   -0.6020 N   0  0  0  0  0  0  0  0  0  0  0  0
    3.8992   -0.2493   -0.6051 C   0  0  0  0  0  0  0  0  0  0  0  0
    2.7152   -0.1296    0.3411 C   0  0  0  0  0  0  0  0  0  0  0  0
   -2.1014   -0.0171   -0.3080 C   0  0  0  0  0  0  0  0  0  0  0  0
   -2.7157    1.2275   -0.2688 C   0  0  0  0  0  0  0  0  0  0  0  0
    5.2634    1.0268    0.9058 C   0  0  0  0  0  0  0  0  0  0  0  0
    6.2938   -0.3458   -0.7755 C   0  0  0  0  0  0  0  0  0  0  0  0
   -2.8234   -1.1775   -0.0640 C   0  0  0  0  0  0  0  0  0  0  0  0
   -4.0776    1.3130    0.0201 C   0  0  0  0  0  0  0  0  0  0  0  0
    0.3403   -0.0529    0.2819 C   0  0  0  0  0  0  0  0  0  0  0  0
   -1.9569    2.4888   -0.5285 C   0  0  0  0  0  0  0  0  0  0  0  0
   -4.1853   -1.0917    0.2250 C   0  0  0  0  0  0  0  0  0  0  0  0
   -4.8125    0.1536    0.2668 C   0  0  0  0  0  0  0  0  0  0  0  0
  1 12  1  0
  2  7  1  0
  2 14  1  0
  3 14  2  0
  4  6  1  0
  4 10  1  0
  4 11  1  0
  5  8  1  0
  5 14  1  0
  6  7  1  0
  8  9  2  0
  8 12  1  0
  9 13  1  0
  9 15  1  0
 12 16  2  0
 13 17  2  0
 16 17  1  0
M  END
>  <PUBCHEM_COMPOUND_CID>  (1) 
30037

>  <PUBCHEM_CONFORMER_RMSD>  (1) 
0.8

>  <PUBCHEM_CONFORMER_DIVERSEORDER>  (1) 
1
8
30
9
15
28
32
46
34
33
48
38
20
37
10
45
26
41
18
35
42
22
27
16
19
14
17
44
2
47
43
25
12
29
49
36
11
40
31
6
23
7
5
39
4
3
24
13
21

>  <PUBCHEM_MMFF94_PARTIAL_CHARGES>  (1) 
21
1 -0.18
10 0.27
11 0.27
12 0.18
13 -0.15
14 0.78
15 0.14
16 -0.15
17 -0.15
2 -0.43
28 0.37
29 0.15
3 -0.57
33 0.15
34 0.15
4 -0.81
5 -0.55
6 0.27
7 0.28
8 0.12
9 -0.14

>  <PUBCHEM_EFFECTIVE_ROTOR_COUNT>  (1) 
6

>  <PUBCHEM_PHARMACOPHORE_FEATURES>  (1) 
4
1 3 acceptor
1 4 cation
1 5 donor
6 8 9 12 13 16 17 rings

>  <PUBCHEM_HEAVY_ATOM_COUNT>  (1) 
17

>  <PUBCHEM_ATOM_DEF_STEREO_COUNT>  (1) 
0

>  <PUBCHEM_ATOM_UDEF_STEREO_COUNT>  (1) 
0

>  <PUBCHEM_BOND_DEF_STEREO_COUNT>  (1) 
0

>  <PUBCHEM_BOND_UDEF_STEREO_COUNT>  (1) 
0

>  <PUBCHEM_ISOTOPIC_ATOM_COUNT>  (1) 
0

>  <PUBCHEM_COMPONENT_COUNT>  (1) 
1

>  <PUBCHEM_CACTVS_TAUTO_COUNT>  (1) 
2

>  <PUBCHEM_CONFORMER_ID>  (1) 
0000755500000001

>  <PUBCHEM_MMFF94_ENERGY>  (1) 
60.7937

>  <PUBCHEM_FEATURE_SELFOVERLAP>  (1) 
20.297

>  <PUBCHEM_SHAPE_FINGERPRINT>  (1) 
10680689 15 18408889546555039666
10912923 1 17530963584157631672
11287383 113 18343864442021182264
11315181 36 17967254217121527724
12107183 9 17467340128862319848
12236239 1 17458344130381035350
12390115 104 18198915703767477521
13167823 11 18187641376118793698
13288520 33 18410295821984967943
13760787 5 15841832257459440384
13897977 58 18333452019313551501
14123238 8 18187083949271281444
14341114 176 18412829105508008976
15042514 8 18264495160236722659
17834072 33 18113904883733348412
17844677 252 18413113866324624648
19433438 28 18413385437080227600
19489759 90 18334857208322248400
200 152 14634867552533275493
20645477 56 18410575058903909244
20645477 70 16916793925291593598
21267235 1 18334302006706249715
22224240 67 18341621391614899161
2297311 6 18411990156138738732
23175994 123 17203331117444068209
23402539 116 18409443700447068023
23557571 272 18343309136999103012
23559900 14 18272931622856598234
26918003 58 17775287170951403826
3545911 37 18412266112546496252
4214541 1 18411419505630637476
42788 4 18272933825784346366
5104073 3 18263643974420750026
542803 24 17675927599410009460

>  <PUBCHEM_SHAPE_MULTIPOLES>  (1) 
330.02
12.93
1.94
0.88
20.15
0.25
-0.13
-0.48
0.21
-2.55
0.21
0.55
-0.07
0.64

>  <PUBCHEM_SHAPE_SELFOVERLAP>  (1) 
658.481

>  <PUBCHEM_SHAPE_VOLUME>  (1) 
197.4

>  <PUBCHEM_COORDINATE_TYPE>  (1) 
2
5
10

$$$$
