30041
     RDKit          3D

 20 20  0  0  0  0  0  0  0  0999 V2000
    2.2426   -2.4143    1.3114 Cl  0  0  0  0  0  0  0  0  0  0  0  0
    2.3269    2.7083   -0.5774 Cl  0  0  0  0  0  0  0  0  0  0  0  0
    6.8217   -0.2418   -0.4849 Cl  0  0  0  0  0  0  0  0  0  0  0  0
   -1.2042    0.2186    0.4077 O   0  0  0  0  0  0  0  0  0  0  0  0
    0.0350   -0.4637   -1.3891 O   0  0  0  0  0  0  0  0  0  0  0  0
   -4.8420    0.0848   -0.1705 N   0  0  0  0  0  0  0  0  0  0  0  0
    1.0320    0.2547    0.6035 N   0  0  0  0  0  0  0  0  0  0  0  0
   -3.5901    0.3110    0.5510 C   0  0  0  0  0  0  0  0  0  0  0  0
   -4.9458   -1.3127   -0.5886 C   0  0  0  0  0  0  0  0  0  0  0  0
   -5.9857    0.4555    0.6622 C   0  0  0  0  0  0  0  0  0  0  0  0
   -2.3961   -0.0317   -0.3256 C   0  0  0  0  0  0  0  0  0  0  0  0
   -6.2122   -1.5526   -1.3929 C   0  0  0  0  0  0  0  0  0  0  0  0
   -5.8945    1.9057    1.1061 C   0  0  0  0  0  0  0  0  0  0  0  0
   -0.0207   -0.0399   -0.2412 C   0  0  0  0  0  0  0  0  0  0  0  0
    2.4162    0.1362    0.3433 C   0  0  0  0  0  0  0  0  0  0  0  0
    3.0687   -1.0545    0.6353 C   0  0  0  0  0  0  0  0  0  0  0  0
    3.1058    1.2115   -0.2014 C   0  0  0  0  0  0  0  0  0  0  0  0
    4.4346   -1.1719    0.3783 C   0  0  0  0  0  0  0  0  0  0  0  0
    4.4717    1.0943   -0.4585 C   0  0  0  0  0  0  0  0  0  0  0  0
    5.1360   -0.0975   -0.1687 C   0  0  0  0  0  0  0  0  0  0  0  0
  1 16  1  0
  2 17  1  0
  3 20  1  0
  4 11  1  0
  4 14  1  0
  5 14  2  0
  6  8  1  0
  6  9  1  0
  6 10  1  0
  7 14  1  0
  7 15  1  0
  8 11  1  0
  9 12  1  0
 10 13  1  0
 15 16  2  0
 15 17  1  0
 16 18  1  0
 17 19  2  0
 18 20  2  0
 19 20  1  0
M  END
>  <PUBCHEM_COMPOUND_CID>  (1) 
30041

>  <PUBCHEM_CONFORMER_RMSD>  (1) 
0.8

>  <PUBCHEM_CONFORMER_DIVERSEORDER>  (1) 
1
4
86
58
24
42
16
83
61
59
51
77
63
52
40
20
64
28
67
57
71
62
41
6
23
72
15
88
82
76
38
32
14
35
92
43
36
87
49
93
55
90
30
54
53
18
10
11
68
44
7
19
69
94
47
65
45
37
25
2
81
29
78
73
17
33
39
89
3
70
84
26
9
48
75
12
34
21
91
80
56
60
74
66
22
5
8
79
13
27
50
31
85
95
46

>  <PUBCHEM_MMFF94_PARTIAL_CHARGES>  (1) 
21
1 -0.18
10 0.27
11 0.28
14 0.78
15 0.12
16 0.18
17 0.18
18 -0.15
19 -0.15
2 -0.18
20 0.18
3 -0.18
35 0.37
36 0.15
37 0.15
4 -0.43
5 -0.57
6 -0.81
7 -0.55
8 0.27
9 0.27

>  <PUBCHEM_EFFECTIVE_ROTOR_COUNT>  (1) 
8

>  <PUBCHEM_PHARMACOPHORE_FEATURES>  (1) 
4
1 5 acceptor
1 6 cation
1 7 donor
6 15 16 17 18 19 20 rings

>  <PUBCHEM_HEAVY_ATOM_COUNT>  (1) 
20

>  <PUBCHEM_ATOM_DEF_STEREO_COUNT>  (1) 
0

>  <PUBCHEM_ATOM_UDEF_STEREO_COUNT>  (1) 
0

>  <PUBCHEM_BOND_DEF_STEREO_COUNT>  (1) 
0

>  <PUBCHEM_BOND_UDEF_STEREO_COUNT>  (1) 
0

>  <PUBCHEM_ISOTOPIC_ATOM_COUNT>  (1) 
0

>  <PUBCHEM_COMPONENT_COUNT>  (1) 
1

>  <PUBCHEM_CACTVS_TAUTO_COUNT>  (1) 
2

>  <PUBCHEM_CONFORMER_ID>  (1) 
0000755900000001

>  <PUBCHEM_MMFF94_ENERGY>  (1) 
57.8407

>  <PUBCHEM_FEATURE_SELFOVERLAP>  (1) 
20.297

>  <PUBCHEM_SHAPE_FINGERPRINT>  (1) 
10354089 29 18408608050093085944
10366900 7 17748826319300198536
10595046 47 18412543249743524313
10693767 8 18339926992584133374
10912923 1 18411978062164850563
11089746 13 18411138056154789729
11545043 162 16415474969993085275
12091667 2 18413674612922523195
12107183 9 17689433785307478097
12166972 35 18202283636268163945
12236239 1 18201720660908363592
12596602 18 17917709131993857000
12730499 353 17603872195768642018
13167823 11 18412259558558674007
13836976 161 18187086170139028566
14341114 176 18334300838058615185
15183329 4 18334571343709678015
15250474 111 18339347618248361155
17834072 33 18410571803561408811
17844677 252 17346317146081011529
18681886 176 17988920102394823778
19489759 90 17561082506319652995
20645477 70 18261388914980516226
21033648 29 17095791201147029373
21267235 1 18335989675608574388
21521721 280 17894920659251744604
21709351 56 18341608226991919869
220451 1 18411702063071157539
22224240 67 18113332046960390474
23081809 10 18410856572804363781
23402539 116 18273213097654064669
23559900 14 17968377952122416081
29717793 49 18131078121493124564
335352 9 18260270772770482334
4073 2 18041005093220553083
4325135 7 18272651260318608991
542803 24 18343865511373015377
7495541 125 17775000245386738849
8272917 22 18337114471097262586

>  <PUBCHEM_SHAPE_MULTIPOLES>  (1) 
395.5
17.5
2.06
1.11
14.7
0.37
0.06
-0.68
1.45
-0.39
-0.22
0.97
-0.26
-2.54

>  <PUBCHEM_SHAPE_SELFOVERLAP>  (1) 
771.862

>  <PUBCHEM_SHAPE_VOLUME>  (1) 
242

>  <PUBCHEM_COORDINATE_TYPE>  (1) 
2
5
10

$$$$
