30054
     RDKit          3D

 20 21  0  0  0  0  0  0  0  0999 V2000
   -0.6031    2.8653    0.3811 S   0  0  0  0  0  0  0  0  0  0  0  0
    1.4492    2.6790    0.3504 S   0  0  0  0  0  0  0  0  0  0  0  0
   -0.6008    1.2812    2.9514 S   0  0  0  0  0  0  0  0  0  0  0  0
    1.2456    2.1253   -2.6105 S   0  0  0  0  0  0  0  0  0  0  0  0
   -3.4308   -1.2662   -0.8880 N   0  0  0  0  0  0  0  0  0  0  0  0
    2.9847   -2.0585    0.2482 N   0  0  0  0  0  0  0  0  0  0  0  0
   -1.8712    0.6162    0.7130 N   0  0  0  0  0  0  0  0  0  0  0  0
    2.3029    0.5013   -0.7917 N   0  0  0  0  0  0  0  0  0  0  0  0
   -2.2019   -1.6560   -0.1791 C   0  0  0  0  0  0  0  0  0  0  0  0
   -3.9155    0.0786   -0.5464 C   0  0  0  0  0  0  0  0  0  0  0  0
    1.8779   -1.9191   -0.7123 C   0  0  0  0  0  0  0  0  0  0  0  0
    3.0877   -0.8612    1.0985 C   0  0  0  0  0  0  0  0  0  0  0  0
   -1.8872   -0.8019    1.0483 C   0  0  0  0  0  0  0  0  0  0  0  0
   -2.7647    1.0617   -0.3479 C   0  0  0  0  0  0  0  0  0  0  0  0
    2.0786   -0.6896   -1.5983 C   0  0  0  0  0  0  0  0  0  0  0  0
    3.3129    0.3906    0.2505 C   0  0  0  0  0  0  0  0  0  0  0  0
   -4.4924   -2.2566   -0.7319 C   0  0  0  0  0  0  0  0  0  0  0  0
    2.8040   -3.2559    1.0682 C   0  0  0  0  0  0  0  0  0  0  0  0
   -1.0623    1.4893    1.3630 C   0  0  0  0  0  0  0  0  0  0  0  0
    1.6860    1.6766   -1.0665 C   0  0  0  0  0  0  0  0  0  0  0  0
  1  2  1  0
  1 19  1  0
  2 20  1  0
  3 19  2  0
  4 20  2  0
  5  9  1  0
  5 10  1  0
  5 17  1  0
  6 11  1  0
  6 12  1  0
  6 18  1  0
  7 13  1  0
  7 14  1  0
  7 19  1  0
  8 15  1  0
  8 16  1  0
  8 20  1  0
  9 13  1  0
 10 14  1  0
 11 15  1  0
 12 16  1  0
M  END
>  <PUBCHEM_COMPOUND_CID>  (1) 
30054

>  <PUBCHEM_CONFORMER_RMSD>  (1) 
1

>  <PUBCHEM_CONFORMER_DIVERSEORDER>  (1) 
2
50
22
55
4
25
16
15
53
49
43
26
45
27
8
11
54
17
41
7
30
13
34
48
52
47
32
38
9
12
31
39
19
42
3
35
14
10
33
44
23
37
46
36
40
6
18
51
28
21
20
24
5
29
1

>  <PUBCHEM_MMFF94_PARTIAL_CHARGES>  (1) 
20
1 -0.14
10 0.27
11 0.27
12 0.27
13 0.3
14 0.3
15 0.3
16 0.3
17 0.27
18 0.27
19 0.58
2 -0.14
20 0.58
3 -0.38
4 -0.38
5 -0.81
6 -0.81
7 -0.66
8 -0.66
9 0.27

>  <PUBCHEM_EFFECTIVE_ROTOR_COUNT>  (1) 
7.4

>  <PUBCHEM_PHARMACOPHORE_FEATURES>  (1) 
6
1 3 acceptor
1 4 acceptor
1 5 cation
1 6 cation
6 5 7 9 10 13 14 rings
6 6 8 11 12 15 16 rings

>  <PUBCHEM_HEAVY_ATOM_COUNT>  (1) 
20

>  <PUBCHEM_ATOM_DEF_STEREO_COUNT>  (1) 
0

>  <PUBCHEM_ATOM_UDEF_STEREO_COUNT>  (1) 
0

>  <PUBCHEM_BOND_DEF_STEREO_COUNT>  (1) 
0

>  <PUBCHEM_BOND_UDEF_STEREO_COUNT>  (1) 
0

>  <PUBCHEM_ISOTOPIC_ATOM_COUNT>  (1) 
0

>  <PUBCHEM_COMPONENT_COUNT>  (1) 
1

>  <PUBCHEM_CACTVS_TAUTO_COUNT>  (1) 
1

>  <PUBCHEM_CONFORMER_ID>  (1) 
0000756600000002

>  <PUBCHEM_MMFF94_ENERGY>  (1) 
56.133

>  <PUBCHEM_FEATURE_SELFOVERLAP>  (1) 
30.446

>  <PUBCHEM_SHAPE_FINGERPRINT>  (1) 
11370993 70 17975405025440611060
121448 382 17762089874522716892
12156800 1 16455663047099691142
12553582 1 18341067253816420193
12633257 1 17482549690468251386
12824470 246 18272654567037485321
13083527 12 18337938078574255000
13931106 250 17323503108553901772
14251757 17 17752177553738022325
14713325 29 10085055495061639336
14787075 74 17629472270964118296
18981168 100 14057013770405503757
192875 21 18261108539198798754
20626108 58 18340470262221008763
20715895 44 18124587584169385069
21452121 99 17040639963890279960
23419403 2 17696143150978208232
23557571 272 17417532397778570651
23559900 14 17774445962619285548
23728640 28 17617664250077898696
238 59 17680161942736373604
2803657 2 18269860669035673352
3797600 57 17274815874941250896
463206 1 18124310768794535247
484985 159 16742805920727571330
6433294 58 18050283966685307387

>  <PUBCHEM_SHAPE_MULTIPOLES>  (1) 
407.06
6.65
3.68
2.17
4.68
0.62
0.42
4.94
-1.39
-1.51
0.18
-0.45
-1.15
-1.73

>  <PUBCHEM_SHAPE_SELFOVERLAP>  (1) 
767.941

>  <PUBCHEM_SHAPE_VOLUME>  (1) 
255.7

>  <PUBCHEM_COORDINATE_TYPE>  (1) 
2
5
10

$$$$
