30065
     RDKit          3D

 19 20  0  0  1  0  0  0  0  0999 V2000
   -2.2715    2.3961    0.1137 O   0  0  0  0  0  0  0  0  0  0  0  0
   -4.1563    0.3584    0.1598 O   0  0  0  0  0  0  0  0  0  0  0  0
    1.7384   -2.1379    0.0429 N   0  0  0  0  0  0  0  0  0  0  0  0
    2.9373    0.8241   -0.4853 C   0  0  0  0  0  0  0  0  0  0  0  0
    2.3482    0.0848    0.7180 C   0  0  0  0  0  0  0  0  0  0  0  0
    1.3214   -0.9446    0.3117 C   0  0  0  0  0  0  0  0  0  0  0  0
   -0.1071   -0.5434    0.2472 C   0  0  0  0  0  0  0  0  0  0  0  0
    3.9686    1.9107   -0.1244 C   0  0  0  0  0  0  0  0  0  0  0  0
   -1.0534   -1.5760    0.2523 C   0  0  0  0  0  0  0  0  0  0  0  0
   -0.5719   -2.9940    0.3363 C   0  0  0  0  0  0  0  0  0  0  0  0
    0.7493   -3.1214   -0.4106 C   0  0  0  0  0  0  0  0  0  0  0  0
    3.5438   -0.1538   -1.4981 C   0  0  0  0  0  0  0  0  0  0  0  0
   -0.5153    0.7908    0.1981 C   0  0  0  0  0  0  0  0  0  0  0  0
   -2.4156   -1.2639    0.2342 C   0  0  0  0  0  0  0  0  0  0  0  0
    5.2035    1.3699    0.5823 C   0  0  0  0  0  0  0  0  0  0  0  0
   -1.8775    1.0924    0.1638 C   0  0  0  0  0  0  0  0  0  0  0  0
   -2.8252    0.0687    0.1849 C   0  0  0  0  0  0  0  0  0  0  0  0
   -1.2427    3.3833    0.0951 C   0  0  0  0  0  0  0  0  0  0  0  0
   -4.7740    0.4559   -1.1219 C   0  0  0  0  0  0  0  0  0  0  0  0
  1 16  1  0
  1 18  1  0
  2 17  1  0
  2 19  1  0
  3  6  2  0
  3 11  1  0
  4  5  1  0
  4  8  1  0
  4 12  1  0
  5  6  1  0
  6  7  1  0
  7  9  2  0
  7 13  1  0
  8 15  1  0
  9 10  1  0
  9 14  1  0
 10 11  1  0
 13 16  2  0
 14 17  2  0
 16 17  1  0
M  END
>  <PUBCHEM_COMPOUND_CID>  (1) 
30065

>  <PUBCHEM_CONFORMER_RMSD>  (1) 
0.8

>  <PUBCHEM_CONFORMER_DIVERSEORDER>  (1) 
17
15
14
19
3
28
27
13
21
30
7
29
22
11
32
26
12
16
10
5
20
9
18
23
31
6
8
1
24
25
4
2

>  <PUBCHEM_MMFF94_PARTIAL_CHARGES>  (1) 
17
1 -0.36
10 0.14
11 0.25
13 -0.15
14 -0.15
16 0.08
17 0.08
18 0.28
19 0.28
2 -0.36
3 -0.7
32 0.15
33 0.15
5 0.06
6 0.3
7 0.09
9 -0.14

>  <PUBCHEM_EFFECTIVE_ROTOR_COUNT>  (1) 
5.4

>  <PUBCHEM_PHARMACOPHORE_FEATURES>  (1) 
7
1 1 acceptor
1 12 hydrophobe
1 15 hydrophobe
1 2 acceptor
1 3 acceptor
6 3 6 7 9 10 11 rings
6 7 9 13 14 16 17 rings

>  <PUBCHEM_HEAVY_ATOM_COUNT>  (1) 
19

>  <PUBCHEM_ATOM_DEF_STEREO_COUNT>  (1) 
0

>  <PUBCHEM_ATOM_UDEF_STEREO_COUNT>  (1) 
1

>  <PUBCHEM_BOND_DEF_STEREO_COUNT>  (1) 
0

>  <PUBCHEM_BOND_UDEF_STEREO_COUNT>  (1) 
0

>  <PUBCHEM_ISOTOPIC_ATOM_COUNT>  (1) 
0

>  <PUBCHEM_COMPONENT_COUNT>  (1) 
1

>  <PUBCHEM_CACTVS_TAUTO_COUNT>  (1) 
1

>  <PUBCHEM_CONFORMER_ID>  (1) 
0000757100000011

>  <PUBCHEM_MMFF94_ENERGY>  (1) 
68.1979

>  <PUBCHEM_FEATURE_SELFOVERLAP>  (1) 
35.55

>  <PUBCHEM_SHAPE_FINGERPRINT>  (1) 
10411042 1 17329710332735251050
10498660 4 18410013268633842869
10756046 5 17980202989536739007
10967382 1 18410293605670975945
11132069 177 18335143132579265388
11370993 70 18410008832222893420
12173636 292 18410577279507529036
12403260 363 18266166245531475594
12969540 114 18337372933776156909
13140716 1 18120945167753975617
13544592 271 18334582373312288419
13583140 156 16805594919346971713
14250199 8 18123468285358185799
14648413 74 17905050252775646011
14790565 3 18339936973623866633
15042514 8 18192435392549528946
15256400 18 18410288078696938634
16945 1 18339362959644130483
17980427 23 17690248565956873946
18186145 218 18129965424305076630
19591789 44 18049448342268999123
20510252 161 18342746225378569104
20645477 56 18339647853551718392
20671657 1 17763471612292519928
20715895 44 17824245039307698549
21501502 16 18123753045873776779
21524375 3 18260548913987485802
22182313 1 18266483025013258870
23227448 37 18052539056427721092
2334 1 17906174310305035793
23366157 5 17971198019180731114
23402539 116 18270391828015709772
23526113 38 17775574139201543496
23557571 272 18125734628057411102
23558518 356 17976536118484965929
23559900 14 18049995593901000475
2748010 2 18051971712659010771
34934 24 18411411817945217175
350125 39 18265618675945345592
4028521 119 18409730681244856357
5104073 3 18261118409660964577
58051976 378 18412544292987911300
59755656 215 18410294688577871142
633830 44 18202009780810836293
7364860 26 18268149760498079946
81228 2 17908713065663982474
9709674 26 18195248811050833723
9981440 41 18334853909312767971

>  <PUBCHEM_SHAPE_MULTIPOLES>  (1) 
374.29
7.94
3.42
0.89
3.14
0.46
0.24
-4.79
1.26
-0.46
-0.12
0.3
0.02
0.38

>  <PUBCHEM_SHAPE_SELFOVERLAP>  (1) 
775.885

>  <PUBCHEM_SHAPE_VOLUME>  (1) 
215.5

>  <PUBCHEM_COORDINATE_TYPE>  (1) 
2
5
10

$$$$
