30064
     RDKit          3D

 19 20  0  0  0  0  0  0  0  0999 V2000
   -1.7639   -2.6034    0.0384 O   0  0  0  0  0  0  0  0  0  0  0  0
   -4.0368   -1.0222   -0.1631 O   0  0  0  0  0  0  0  0  0  0  0  0
    1.1743    2.6883    0.0979 N   0  0  0  0  0  0  0  0  0  0  0  0
    2.1804    0.6699    0.9233 C   0  0  0  0  0  0  0  0  0  0  0  0
    0.9990    1.4409    0.3858 C   0  0  0  0  0  0  0  0  0  0  0  0
   -0.2991    0.7379    0.2214 C   0  0  0  0  0  0  0  0  0  0  0  0
    2.9644    0.0397   -0.2155 C   0  0  0  0  0  0  0  0  0  0  0  0
   -1.4404    1.5406    0.1003 C   0  0  0  0  0  0  0  0  0  0  0  0
   -1.2825    3.0310    0.1584 C   0  0  0  0  0  0  0  0  0  0  0  0
    4.2166   -0.6995    0.2658 C   0  0  0  0  0  0  0  0  0  0  0  0
    0.0436    3.4218   -0.4807 C   0  0  0  0  0  0  0  0  0  0  0  0
   -0.4068   -0.6540    0.2010 C   0  0  0  0  0  0  0  0  0  0  0  0
    4.9957   -1.2928   -0.9084 C   0  0  0  0  0  0  0  0  0  0  0  0
   -2.6971    0.9401   -0.0162 C   0  0  0  0  0  0  0  0  0  0  0  0
   -1.6642   -1.2444    0.0681 C   0  0  0  0  0  0  0  0  0  0  0  0
   -2.8065   -0.4504   -0.0372 C   0  0  0  0  0  0  0  0  0  0  0  0
    6.2610   -1.9935   -0.4402 C   0  0  0  0  0  0  0  0  0  0  0  0
   -1.9402   -3.2672    1.2881 C   0  0  0  0  0  0  0  0  0  0  0  0
   -4.4976   -1.2829   -1.4873 C   0  0  0  0  0  0  0  0  0  0  0  0
  1 15  1  0
  1 18  1  0
  2 16  1  0
  2 19  1  0
  3  5  2  0
  3 11  1  0
  4  5  1  0
  4  7  1  0
  5  6  1  0
  6  8  2  0
  6 12  1  0
  7 10  1  0
  8  9  1  0
  8 14  1  0
  9 11  1  0
 10 13  1  0
 12 15  2  0
 13 17  1  0
 14 16  2  0
 15 16  1  0
M  END
>  <PUBCHEM_COMPOUND_CID>  (1) 
30064

>  <PUBCHEM_CONFORMER_RMSD>  (1) 
0.8

>  <PUBCHEM_CONFORMER_DIVERSEORDER>  (1) 
1
26
9
11
6
24
5
10
29
12
7
17
13
14
31
15
4
21
18
19
16
28
30
20
25
2
23
3
22
27
8

>  <PUBCHEM_MMFF94_PARTIAL_CHARGES>  (1) 
17
1 -0.36
11 0.25
12 -0.15
14 -0.15
15 0.08
16 0.08
18 0.28
19 0.28
2 -0.36
3 -0.7
30 0.15
33 0.15
4 0.06
5 0.3
6 0.09
8 -0.14
9 0.14

>  <PUBCHEM_EFFECTIVE_ROTOR_COUNT>  (1) 
6.4

>  <PUBCHEM_PHARMACOPHORE_FEATURES>  (1) 
7
1 1 acceptor
1 17 hydrophobe
1 2 acceptor
1 3 acceptor
4 4 7 10 13 hydrophobe
6 3 5 6 8 9 11 rings
6 6 8 12 14 15 16 rings

>  <PUBCHEM_HEAVY_ATOM_COUNT>  (1) 
19

>  <PUBCHEM_ATOM_DEF_STEREO_COUNT>  (1) 
0

>  <PUBCHEM_ATOM_UDEF_STEREO_COUNT>  (1) 
0

>  <PUBCHEM_BOND_DEF_STEREO_COUNT>  (1) 
0

>  <PUBCHEM_BOND_UDEF_STEREO_COUNT>  (1) 
0

>  <PUBCHEM_ISOTOPIC_ATOM_COUNT>  (1) 
0

>  <PUBCHEM_COMPONENT_COUNT>  (1) 
1

>  <PUBCHEM_CACTVS_TAUTO_COUNT>  (1) 
1

>  <PUBCHEM_CONFORMER_ID>  (1) 
0000757000000001

>  <PUBCHEM_MMFF94_ENERGY>  (1) 
62.049

>  <PUBCHEM_FEATURE_SELFOVERLAP>  (1) 
35.55

>  <PUBCHEM_SHAPE_FINGERPRINT>  (1) 
10616163 171 18338803295689070990
10693767 8 18057299869052068495
11458722 379 18336547127381825954
11680986 33 18194679508560843241
116883 192 18340198682590816445
12553582 1 18335415768444820026
12757275 245 18338521824938216624
12788726 201 18263358105946047154
12821665 9 18263381295318276252
13140716 1 18193556890098477985
14022347 108 18188757444296551593
14115302 16 18041000682257315822
14251757 5 18261679194766550262
14508225 48 18410003330254217284
14790565 3 17620198633007481688
14866123 147 18268997488236483273
15042514 8 18336839605832244312
15352361 1 18413108372887327830
15927050 60 17765434240943466213
16752209 62 18189319221787178257
16945 1 18191581059440808425
17492 89 18053658367928929143
17804303 29 18343022168658831424
19591789 44 17691693285966233217
20374829 77 18341892948879256542
20403669 9 18272375252561401254
20645477 70 18121206847526949543
20871999 31 18334573508325859028
21307412 95 18412545418375728391
21728266 224 18191014613705774730
221490 88 17974292332547543914
2334 1 17615120422969321401
23402539 116 18341889654227793197
23557571 272 18271531897367775892
23559900 14 18338229491999501128
2748010 2 17687175805199338017
3286 77 16988555857579797121
335352 9 18411699855674349365
43658 37 8685621782510602938
559249 180 18046909278227074794
6138700 20 18340204098813732167
7364860 26 18052253195957351656
81228 2 18411416206800712801
9709674 26 18267861859812048450

>  <PUBCHEM_SHAPE_MULTIPOLES>  (1) 
374.29
9.25
3.84
0.95
14.57
1.2
-0.07
-8.55
-3.28
-1.7
0.38
-0.3
-0.45
0.48

>  <PUBCHEM_SHAPE_SELFOVERLAP>  (1) 
770.258

>  <PUBCHEM_SHAPE_VOLUME>  (1) 
217.3

>  <PUBCHEM_COORDINATE_TYPE>  (1) 
2
5
10

$$$$
