30089
     RDKit          3D

 23 26  0  0  0  0  0  0  0  0999 V2000
    6.1151    0.0938    0.9686 O   0  0  0  0  0  0  0  0  0  0  0  0
    3.6865    0.6821   -0.3942 N   0  0  0  0  0  0  0  0  0  0  0  0
    0.0228    0.9165   -0.8143 N   0  0  0  0  0  0  0  0  0  0  0  0
   -3.5207   -0.9493    0.4229 N   0  0  0  0  0  0  0  0  0  0  0  0
    2.3759    1.3216   -0.4888 C   0  0  0  0  0  0  0  0  0  0  0  0
    3.7266   -0.2613    0.7317 C   0  0  0  0  0  0  0  0  0  0  0  0
    4.7482    1.6874   -0.2468 C   0  0  0  0  0  0  0  0  0  0  0  0
    1.2934    0.2781   -0.7326 C   0  0  0  0  0  0  0  0  0  0  0  0
    5.1069   -0.9064    0.8182 C   0  0  0  0  0  0  0  0  0  0  0  0
    6.1041    0.9959   -0.1384 C   0  0  0  0  0  0  0  0  0  0  0  0
   -1.1788    0.2837   -0.3948 C   0  0  0  0  0  0  0  0  0  0  0  0
   -1.2254   -1.1093   -0.2802 C   0  0  0  0  0  0  0  0  0  0  0  0
   -2.3044    1.0596   -0.1001 C   0  0  0  0  0  0  0  0  0  0  0  0
   -2.4337   -1.6920    0.1378 C   0  0  0  0  0  0  0  0  0  0  0  0
   -3.4706    0.3922    0.3110 C   0  0  0  0  0  0  0  0  0  0  0  0
   -0.1093   -1.9137   -0.5697 C   0  0  0  0  0  0  0  0  0  0  0  0
   -2.2859    2.4614   -0.2065 C   0  0  0  0  0  0  0  0  0  0  0  0
   -2.4862   -3.0785    0.2538 C   0  0  0  0  0  0  0  0  0  0  0  0
   -4.5946    1.1592    0.6057 C   0  0  0  0  0  0  0  0  0  0  0  0
   -0.1880   -3.2976   -0.4456 C   0  0  0  0  0  0  0  0  0  0  0  0
   -3.4231    3.2051    0.0942 C   0  0  0  0  0  0  0  0  0  0  0  0
   -1.3790   -3.8808   -0.0330 C   0  0  0  0  0  0  0  0  0  0  0  0
   -4.5797    2.5523    0.5011 C   0  0  0  0  0  0  0  0  0  0  0  0
  1  9  1  0
  1 10  1  0
  2  5  1  0
  2  6  1  0
  2  7  1  0
  3  8  1  0
  3 11  1  0
  4 14  2  0
  4 15  1  0
  5  8  1  0
  6  9  1  0
  7 10  1  0
 11 12  2  0
 11 13  1  0
 12 14  1  0
 12 16  1  0
 13 15  2  0
 13 17  1  0
 14 18  1  0
 15 19  1  0
 16 20  2  0
 17 21  2  0
 18 22  2  0
 19 23  2  0
 20 22  1  0
 21 23  1  0
M  END
>  <PUBCHEM_COMPOUND_CID>  (1) 
30089

>  <PUBCHEM_CONFORMER_RMSD>  (1) 
0.8

>  <PUBCHEM_CONFORMER_DIVERSEORDER>  (1) 
1
2
4
3

>  <PUBCHEM_MMFF94_PARTIAL_CHARGES>  (1) 
30
1 -0.56
10 0.28
11 0.1
14 0.31
15 0.31
16 -0.15
17 -0.15
18 -0.15
19 -0.15
2 -0.81
20 -0.15
21 -0.15
22 -0.15
23 -0.15
3 -0.87
36 0.4
37 0.15
38 0.15
39 0.15
4 -0.62
40 0.15
41 0.15
42 0.15
43 0.15
44 0.15
5 0.27
6 0.27
7 0.27
8 0.37
9 0.28

>  <PUBCHEM_EFFECTIVE_ROTOR_COUNT>  (1) 
5.2

>  <PUBCHEM_PHARMACOPHORE_FEATURES>  (1) 
9
1 1 acceptor
1 2 cation
1 3 cation
1 3 donor
1 4 acceptor
6 1 2 6 7 9 10 rings
6 12 14 16 18 20 22 rings
6 13 15 17 19 21 23 rings
6 4 11 12 13 14 15 rings

>  <PUBCHEM_HEAVY_ATOM_COUNT>  (1) 
23

>  <PUBCHEM_ATOM_DEF_STEREO_COUNT>  (1) 
0

>  <PUBCHEM_ATOM_UDEF_STEREO_COUNT>  (1) 
0

>  <PUBCHEM_BOND_DEF_STEREO_COUNT>  (1) 
0

>  <PUBCHEM_BOND_UDEF_STEREO_COUNT>  (1) 
0

>  <PUBCHEM_ISOTOPIC_ATOM_COUNT>  (1) 
0

>  <PUBCHEM_COMPONENT_COUNT>  (1) 
1

>  <PUBCHEM_CACTVS_TAUTO_COUNT>  (1) 
2

>  <PUBCHEM_CONFORMER_ID>  (1) 
0000758900000001

>  <PUBCHEM_MMFF94_ENERGY>  (1) 
105.1736

>  <PUBCHEM_FEATURE_SELFOVERLAP>  (1) 
45.732

>  <PUBCHEM_SHAPE_FINGERPRINT>  (1) 
10319926 262 18270388499906796008
10411042 1 17763185039517215759
10493431 412 18410575046024217011
10616163 171 18265616657727993582
1100329 8 18122069973282803887
11036077 51 18408322202866256131
11049842 53 18120406231310788622
11370993 70 18339924805632460645
11720765 8 16477935150608177959
12107183 9 18263917736364372418
12390115 104 18271822184826392513
12523318 42 18269827769971204410
12633257 1 18129959990522828585
12788726 201 17974307704272757366
13004483 165 17910388725611206031
13140716 1 18050018976129864051
13167823 11 18260828241765410984
138480 1 17329714215348172199
14251757 5 18342177795326485624
14420673 8 18264208020351135922
14466204 15 18340768126566775936
14790565 3 18338519621187951336
14844126 61 18264490761741559323
15042514 8 18264776643607929227
15230672 131 18337116645295441070
15250474 111 18262227932995079002
15256400 18 18410576141589238606
15326921 28 18047446969177810576
15537594 2 17676203542753926610
15842332 3 17751657660842429332
16110190 28 18190445083894546618
16994733 274 16199874952043861561
17818456 19 18408046221268768228
1813 80 16588312648791860246
20554085 129 18057303021341415361
21065198 57 18339922727264253104
212916 134 18271231734260548768
23522609 53 17822872939549794532
23559900 14 18200333038953809036
23728640 28 18409731802468989747
4214541 1 18409448107284246252
508706 21 18342747337996820510
5104073 3 17975711502361209217
5265222 85 18268442385810752062
532947 4 18051976913680121287
5364581 5 17983560091127729872
5385378 56 18125731084493328641
58260988 114 16515975881452671683
58807428 26 18336839584837598523
5924683 9 18341326815875280934
7064713 232 18410566280576273242
7226269 152 17989205915399754264
7364860 26 17906460922611109247
7808743 9 18411418431999661432
79837 15 18409457964112813267
9862522 239 18336261254500619917
9981440 41 18337116653367742017

>  <PUBCHEM_SHAPE_MULTIPOLES>  (1) 
452.52
11.82
4.1
0.83
19.16
2.88
-0.04
-7.53
-3.3
-4.87
0.13
0.35
0
-0.64

>  <PUBCHEM_SHAPE_SELFOVERLAP>  (1) 
993.951

>  <PUBCHEM_SHAPE_VOLUME>  (1) 
243.7

>  <PUBCHEM_COORDINATE_TYPE>  (1) 
2
5
10

$$$$
