30096
     RDKit          3D

 17 17  0  0  0  0  0  0  0  0999 V2000
    1.5953   -0.6695    0.0002 O   0  0  0  0  0  0  0  0  0  0  0  0
    4.3365    0.8829   -0.1944 N   0  0  0  0  0  0  0  0  0  0  0  0
    4.1521   -0.4999    1.7323 N   0  0  0  0  0  0  0  0  0  0  0  0
   -4.6637    0.5190    0.3273 C   0  0  0  0  0  0  0  0  0  0  0  0
   -3.2910   -0.0100    0.0820 C   0  0  0  0  0  0  0  0  0  0  0  0
   -0.7319   -0.9969   -0.3752 C   0  0  0  0  0  0  0  0  0  0  0  0
   -2.2684    0.8557   -0.3063 C   0  0  0  0  0  0  0  0  0  0  0  0
   -3.0296   -1.3709    0.2412 C   0  0  0  0  0  0  0  0  0  0  0  0
   -5.2898    1.1401   -0.9357 C   0  0  0  0  0  0  0  0  0  0  0  0
   -4.7053    1.5348    1.4846 C   0  0  0  0  0  0  0  0  0  0  0  0
   -0.9848    0.3606   -0.5358 C   0  0  0  0  0  0  0  0  0  0  0  0
   -1.7459   -1.8661    0.0118 C   0  0  0  0  0  0  0  0  0  0  0  0
    0.6492   -1.5293   -0.6210 C   0  0  0  0  0  0  0  0  0  0  0  0
    2.9258   -1.1258   -0.2003 C   0  0  0  0  0  0  0  0  0  0  0  0
    3.8573   -0.1859    0.4716 C   0  0  0  0  0  0  0  0  0  0  0  0
    5.2652    1.8557    0.4138 C   0  0  0  0  0  0  0  0  0  0  0  0
    3.9292    1.1055   -1.5962 C   0  0  0  0  0  0  0  0  0  0  0  0
  1 13  1  0
  1 14  1  0
  2 15  2  3
  2 16  1  0
  2 17  1  0
  3 15  1  0
  4  5  1  0
  4  9  1  0
  4 10  1  0
  5  7  2  0
  5  8  1  0
  6 11  2  0
  6 12  1  0
  6 13  1  0
  7 11  1  0
  8 12  2  0
 14 15  1  0
M  CHG  1   2   1
M  END
>  <PUBCHEM_COMPOUND_CID>  (1) 
30096

>  <PUBCHEM_CONFORMER_RMSD>  (1) 
0.6

>  <PUBCHEM_CONFORMER_DIVERSEORDER>  (1) 
8
83
58
81
71
2
68
65
63
26
64
53
50
18
75
45
23
13
22
86
74
84
27
67
39
9
78
24
30
80
33
73
61
62
79
66
12
56
38
36
60
21
28
41
17
40
11
19
49
32
15
35
37
34
77
82
57
42
51
14
44
85
59
55
70
6
48
52
43
47
76
10
16
25
20
54
46
1
7
29
4
72
69
31
3
5

>  <PUBCHEM_MMFF94_PARTIAL_CHARGES>  (1) 
21
1 -0.56
11 -0.15
12 -0.15
13 0.42
14 0.38
15 0.6
16 0.49
17 0.49
19 0.15
2 -0.83
20 0.15
27 0.15
28 0.15
3 -0.75
39 0.45
4 0.14
40 0.45
5 -0.14
6 -0.14
7 -0.15
8 -0.15

>  <PUBCHEM_EFFECTIVE_ROTOR_COUNT>  (1) 
5

>  <PUBCHEM_PHARMACOPHORE_FEATURES>  (1) 
5
1 1 acceptor
1 3 donor
3 2 3 15 cation
3 4 9 10 hydrophobe
6 5 6 7 8 11 12 rings

>  <PUBCHEM_HEAVY_ATOM_COUNT>  (1) 
17

>  <PUBCHEM_ATOM_DEF_STEREO_COUNT>  (1) 
0

>  <PUBCHEM_ATOM_UDEF_STEREO_COUNT>  (1) 
0

>  <PUBCHEM_BOND_DEF_STEREO_COUNT>  (1) 
0

>  <PUBCHEM_BOND_UDEF_STEREO_COUNT>  (1) 
0

>  <PUBCHEM_ISOTOPIC_ATOM_COUNT>  (1) 
0

>  <PUBCHEM_COMPONENT_COUNT>  (1) 
1

>  <PUBCHEM_CACTVS_TAUTO_COUNT>  (1) 
2

>  <PUBCHEM_CONFORMER_ID>  (1) 
0000759000000008

>  <PUBCHEM_MMFF94_ENERGY>  (1) 
42.1665

>  <PUBCHEM_FEATURE_SELFOVERLAP>  (1) 
25.371

>  <PUBCHEM_SHAPE_FINGERPRINT>  (1) 
10014705 185 18335135389233174911
10378564 45 16414646943031662172
10498660 4 18130513019550052232
10670039 82 18199765673558404532
11089746 13 17561074792110113490
11132069 177 18335141964585589927
11543360 7 14836397034546281159
12596602 18 17458349641177848953
13675066 3 16515406235798254607
1420 369 10953455236960331552
14251764 75 17973464374876466388
14341114 328 17749391515943216312
14445660 50 18334577957706405046
14528608 73 17489582359759703957
15163728 17 16055777343105714697
15188451 53 15068913018099571905
17834072 32 18342460373893162148
19050596 39 18186515527598389234
193927 3 9223235169332576844
19784866 140 11167938048691409797
20369508 70 9439398004666249502
20374829 77 7997967960361048395
204376 136 18410013209005772391
20621476 91 17169007710763386849
20645477 56 18260548887927837191
20645477 70 10663819693954838620
21065198 48 18114455756070233466
212847 35 18131067117702470730
21637258 2 13912618203466130777
21652331 79 18334293167199551892
22646028 1 7853854979381430810
23503953 91 18260537936009178122
23557571 272 17846226621176403574
23559900 14 18270125600031228814
2871803 45 10952051143452768132
300161 21 18334851740544089396
3472631 163 18201719613042202612
34797466 226 17203334458955037037
351380 3 8718825396743741705
4259306 186 10015862063798851313
465052 167 8286189583053205089
5104073 3 18334577949169225306
5374978 207 18040433265753976332
59682541 52 16342864213942086213
633830 44 18202003183504050454
76465 3 11097862921004247497
960060 61 11312053257983574208

>  <PUBCHEM_SHAPE_MULTIPOLES>  (1) 
334.02
12.76
1.87
1.18
3.75
0.09
-0.13
-7.58
-1.72
0.05
-0.05
0.42
-0.35
-0.52

>  <PUBCHEM_SHAPE_SELFOVERLAP>  (1) 
668.973

>  <PUBCHEM_SHAPE_VOLUME>  (1) 
198.8

>  <PUBCHEM_COORDINATE_TYPE>  (1) 
2
5
10

$$$$
