30159
     RDKit          3D

 10 10  0  0  0  0  0  0  0  0999 V2000
    2.8961    0.0003   -1.0212 Br  0  0  0  0  0  0  0  0  0  0  0  0
    0.5172   -2.7262    0.3080 Cl  0  0  0  0  0  0  0  0  0  0  0  0
    0.5167    2.7263    0.3081 Cl  0  0  0  0  0  0  0  0  0  0  0  0
    0.3946    0.0000    0.2799 C   0  0  0  0  0  0  0  0  0  0  0  0
   -0.2845   -1.2080    0.1221 C   0  0  0  0  0  0  0  0  0  0  0  0
   -0.2848    1.2080    0.1221 C   0  0  0  0  0  0  0  0  0  0  0  0
    1.8542    0.0001    0.6188 C   0  0  0  0  0  0  0  0  0  0  0  0
   -1.6433   -1.2082   -0.1934 C   0  0  0  0  0  0  0  0  0  0  0  0
   -1.6435    1.2079   -0.1934 C   0  0  0  0  0  0  0  0  0  0  0  0
   -2.3228   -0.0001   -0.3509 C   0  0  0  0  0  0  0  0  0  0  0  0
  1  7  1  0
  2  5  1  0
  3  6  1  0
  4  5  2  0
  4  6  1  0
  4  7  1  0
  5  8  1  0
  6  9  2  0
  8 10  2  0
  9 10  1  0
M  END
>  <PUBCHEM_COMPOUND_CID>  (1) 
30159

>  <PUBCHEM_CONFORMER_RMSD>  (1) 
0.4

>  <PUBCHEM_CONFORMER_DIVERSEORDER>  (1) 
1

>  <PUBCHEM_MMFF94_PARTIAL_CHARGES>  (1) 
13
1 -0.23
10 -0.15
13 0.15
14 0.15
15 0.15
2 -0.18
3 -0.18
4 -0.14
5 0.18
6 0.18
7 0.37
8 -0.15
9 -0.15

>  <PUBCHEM_EFFECTIVE_ROTOR_COUNT>  (1) 
1

>  <PUBCHEM_PHARMACOPHORE_FEATURES>  (1) 
2
1 1 hydrophobe
6 4 5 6 8 9 10 rings

>  <PUBCHEM_HEAVY_ATOM_COUNT>  (1) 
10

>  <PUBCHEM_ATOM_DEF_STEREO_COUNT>  (1) 
0

>  <PUBCHEM_ATOM_UDEF_STEREO_COUNT>  (1) 
0

>  <PUBCHEM_BOND_DEF_STEREO_COUNT>  (1) 
0

>  <PUBCHEM_BOND_UDEF_STEREO_COUNT>  (1) 
0

>  <PUBCHEM_ISOTOPIC_ATOM_COUNT>  (1) 
0

>  <PUBCHEM_COMPONENT_COUNT>  (1) 
1

>  <PUBCHEM_CACTVS_TAUTO_COUNT>  (1) 
1

>  <PUBCHEM_CONFORMER_ID>  (1) 
000075CF00000001

>  <PUBCHEM_MMFF94_ENERGY>  (1) 
23.2753

>  <PUBCHEM_FEATURE_SELFOVERLAP>  (1) 
10.148

>  <PUBCHEM_SHAPE_FINGERPRINT>  (1) 
11206711 2 18336535088714673973
12423570 1 17534326860665940020
12524768 44 17834956755840419158
12716758 59 18337680805732547166
161256 15 17543925949374292234
16945 1 18410846668678240529
18185500 45 18338785711543808787
193761 8 17690557481484640497
20645476 183 17822297919951994982
21040471 1 18266730286358889825
22802520 49 18057624100174294550
23552423 10 18046626694278292139
23559900 14 18271527503927527014
241688 4 18342176626694116384
2748010 2 18048024465999664791
4369600 1 18411696591013556588
5084963 1 18059293296021547195
53812653 11 18194415608701343695

>  <PUBCHEM_SHAPE_MULTIPOLES>  (1) 
215.48
3.11
2.74
0.85
1.16
0
-0.08
0
-1.04
0.1
0.5
0.37
0
0

>  <PUBCHEM_SHAPE_SELFOVERLAP>  (1) 
413.326

>  <PUBCHEM_SHAPE_VOLUME>  (1) 
133.2

>  <PUBCHEM_COORDINATE_TYPE>  (1) 
2
5
10

$$$$
