30167
     RDKit          3D

 18 20  0  0  1  0  0  0  0  0999 V2000
    1.7125    0.7696    0.0242 N   0  0  0  0  0  0  0  0  0  0  0  0
   -2.1052    0.4837   -1.9102 N   0  0  0  0  0  0  0  0  0  0  0  0
    0.4465    1.2168    0.6382 C   0  0  0  0  0  0  0  0  0  0  0  0
    0.5729    2.7459    0.7444 C   0  0  0  0  0  0  0  0  0  0  0  0
    2.7187    1.7750    0.3694 C   0  0  0  0  0  0  0  0  0  0  0  0
    1.9504    3.0681    0.1831 C   0  0  0  0  0  0  0  0  0  0  0  0
   -0.7253    0.7668   -0.1954 C   0  0  0  0  0  0  0  0  0  0  0  0
    2.1132   -0.5694    0.4379 C   0  0  0  0  0  0  0  0  0  0  0  0
    3.3757   -1.0447   -0.2734 C   0  0  0  0  0  0  0  0  0  0  0  0
   -1.8072   -0.0507    0.2352 C   0  0  0  0  0  0  0  0  0  0  0  0
   -0.9364    1.0791   -1.5182 C   0  0  0  0  0  0  0  0  0  0  0  0
   -2.6587   -0.2130   -0.8597 C   0  0  0  0  0  0  0  0  0  0  0  0
    3.7845   -2.4610    0.1378 C   0  0  0  0  0  0  0  0  0  0  0  0
   -2.1451   -0.6700    1.4549 C   0  0  0  0  0  0  0  0  0  0  0  0
   -3.8359   -0.9668   -0.7956 C   0  0  0  0  0  0  0  0  0  0  0  0
    5.0098   -2.9304   -0.6309 C   0  0  0  0  0  0  0  0  0  0  0  0
   -3.3197   -1.4270    1.5338 C   0  0  0  0  0  0  0  0  0  0  0  0
   -4.1506   -1.5719    0.4245 C   0  0  0  0  0  0  0  0  0  0  0  0
  1  3  1  0
  1  5  1  0
  1  8  1  0
  2 11  1  0
  2 12  1  0
  3  4  1  0
  3  7  1  0
  4  6  1  0
  5  6  1  0
  7 10  1  0
  7 11  2  0
  8  9  1  0
  9 13  1  0
 10 12  2  0
 10 14  1  0
 12 15  1  0
 13 16  1  0
 14 17  2  0
 15 18  2  0
 17 18  1  0
M  END
>  <PUBCHEM_COMPOUND_CID>  (1) 
30167

>  <PUBCHEM_CONFORMER_RMSD>  (1) 
0.6

>  <PUBCHEM_CONFORMER_DIVERSEORDER>  (1) 
1
68
65
29
20
17
69
64
33
63
72
22
38
45
49
19
42
30
75
16
34
59
76
54
74
43
35
32
18
12
15
8
51
52
25
28
39
55
56
66
14
23
67
21
13
11
71
46
4
40
70
44
7
9
36
26
73
10
48
62
5
58
50
60
31
61
47
3
57
37
41
2
53
27
24
6

>  <PUBCHEM_MMFF94_PARTIAL_CHARGES>  (1) 
18
1 -0.81
11 -0.3
12 -0.15
14 -0.15
15 -0.15
17 -0.15
18 -0.15
2 0.03
3 0.45
30 0.15
33 0.27
34 0.15
35 0.15
39 0.15
40 0.15
5 0.27
7 -0.18
8 0.27

>  <PUBCHEM_EFFECTIVE_ROTOR_COUNT>  (1) 
5

>  <PUBCHEM_PHARMACOPHORE_FEATURES>  (1) 
7
1 1 cation
1 16 hydrophobe
1 2 cation
1 2 donor
5 1 3 4 5 6 rings
5 2 7 10 11 12 rings
6 10 12 14 15 17 18 rings

>  <PUBCHEM_HEAVY_ATOM_COUNT>  (1) 
18

>  <PUBCHEM_ATOM_DEF_STEREO_COUNT>  (1) 
0

>  <PUBCHEM_ATOM_UDEF_STEREO_COUNT>  (1) 
1

>  <PUBCHEM_BOND_DEF_STEREO_COUNT>  (1) 
0

>  <PUBCHEM_BOND_UDEF_STEREO_COUNT>  (1) 
0

>  <PUBCHEM_ISOTOPIC_ATOM_COUNT>  (1) 
0

>  <PUBCHEM_COMPONENT_COUNT>  (1) 
1

>  <PUBCHEM_CACTVS_TAUTO_COUNT>  (1) 
1

>  <PUBCHEM_CONFORMER_ID>  (1) 
000075D700000001

>  <PUBCHEM_MMFF94_ENERGY>  (1) 
22.0437

>  <PUBCHEM_FEATURE_SELFOVERLAP>  (1) 
35.612

>  <PUBCHEM_SHAPE_FINGERPRINT>  (1) 
10465860 71 16443065036474439239
11582403 64 15955178810490784205
12107183 9 18199765652341407851
12202030 40 18187364358774446757
12363563 72 18339924810154599606
12553582 1 18272939284825378230
12623949 98 18122084240669127123
12707595 3 18335696122704195410
12788726 201 17690551992864693608
13533116 47 18269559506609788907
13544592 145 18186515506207864199
13544653 18 18411138000858278582
13583140 156 17699291272544572891
14252887 29 17824546498677020729
14289901 80 18126563655503660033
14866123 147 17836368142381559505
15422964 175 18411414025331788112
15475509 8 17603581899308920351
1813 80 17917162606596612798
18915476 22 18266166421598929772
19049666 15 18188473749128054157
20603629 256 18272373126209256754
20645477 70 18265599039450054343
20693207 138 18113332003214288542
20832881 197 18336833000642126067
23175994 123 18339360764519988958
23526113 38 18263063509480119968
23557571 272 17531235210152256565
23559900 14 17749101218792463054
27216 239 10591172743966814830
31174 14 18338234984856315285
3421961 26 18413389856284966802
458136 41 18049732011747508300
474 4 16695818759154724433
5486654 36 18264503813988617547
57003041 14 18260834769372188261
6049 1 18186795907068412613
6669772 16 18053392273936792604
77492 1 17130995437290578961
7970288 3 18271246019549596606
81228 2 17765136290530594376
84936 31 17901952168406455037
9709674 26 18260821652832041091

>  <PUBCHEM_SHAPE_MULTIPOLES>  (1) 
360.47
8.14
3.23
1.35
2.89
0.69
-0.21
-8.72
-0.38
4.52
0.35
-1.28
-0.04
1.29

>  <PUBCHEM_SHAPE_SELFOVERLAP>  (1) 
765.27

>  <PUBCHEM_SHAPE_VOLUME>  (1) 
204.9

>  <PUBCHEM_COORDINATE_TYPE>  (1) 
2
5
10

$$$$
