30170
     RDKit          3D

 13 12  0  0  0  0  0  0  0  0999 V2000
    1.5264    0.0057   -0.0526 Si  0  0  0  0  0  4  0  0  0  0  0  0
    0.0088    0.1346    0.6517 O   0  0  0  0  0  0  0  0  0  0  0  0
   -3.5917    0.2751   -0.0856 N   0  0  0  0  0  0  0  0  0  0  0  0
    2.8548    0.0413    1.2833 C   0  0  0  0  0  0  0  0  0  0  0  0
    1.8520    1.4330   -1.2338 C   0  0  0  0  0  0  0  0  0  0  0  0
    1.7005   -1.6088   -1.0020 C   0  0  0  0  0  0  0  0  0  0  0  0
   -1.1496    0.1297   -0.1697 C   0  0  0  0  0  0  0  0  0  0  0  0
    4.2886   -0.1014    0.7898 C   0  0  0  0  0  0  0  0  0  0  0  0
    1.8260    2.8225   -0.6103 C   0  0  0  0  0  0  0  0  0  0  0  0
    1.5421   -2.8786   -0.1759 C   0  0  0  0  0  0  0  0  0  0  0  0
   -2.3778    0.2582    0.7171 C   0  0  0  0  0  0  0  0  0  0  0  0
   -4.7730    0.4410    0.7646 C   0  0  0  0  0  0  0  0  0  0  0  0
   -3.7070   -0.9524   -0.8768 C   0  0  0  0  0  0  0  0  0  0  0  0
  1  2  1  0
  1  4  1  0
  1  5  1  0
  1  6  1  0
  2  7  1  0
  3 11  1  0
  3 12  1  0
  3 13  1  0
  4  8  1  0
  5  9  1  0
  6 10  1  0
  7 11  1  0
M  END
>  <PUBCHEM_COMPOUND_CID>  (1) 
30170

>  <PUBCHEM_CONFORMER_RMSD>  (1) 
0.8

>  <PUBCHEM_CONFORMER_DIVERSEORDER>  (1) 
10
30
39
6
21
37
29
12
22
7
38
19
58
46
11
4
42
20
32
8
45
55
35
9
49
31
5
57
44
14
48
24
36
40
27
65
13
43
23
34
18
33
41
1
67
25
17
60
3
56
16
54
2
47
26
51
59
15
28
63
52
62
50
61
53
64
66
68

>  <PUBCHEM_MMFF94_PARTIAL_CHARGES>  (1) 
10
1 0.54
11 0.27
12 0.27
13 0.27
2 -0.58
3 -0.81
4 -0.08
5 -0.08
6 -0.08
7 0.28

>  <PUBCHEM_EFFECTIVE_ROTOR_COUNT>  (1) 
7

>  <PUBCHEM_PHARMACOPHORE_FEATURES>  (1) 
1
1 3 cation

>  <PUBCHEM_HEAVY_ATOM_COUNT>  (1) 
13

>  <PUBCHEM_ATOM_DEF_STEREO_COUNT>  (1) 
0

>  <PUBCHEM_ATOM_UDEF_STEREO_COUNT>  (1) 
0

>  <PUBCHEM_BOND_DEF_STEREO_COUNT>  (1) 
0

>  <PUBCHEM_BOND_UDEF_STEREO_COUNT>  (1) 
0

>  <PUBCHEM_ISOTOPIC_ATOM_COUNT>  (1) 
0

>  <PUBCHEM_COMPONENT_COUNT>  (1) 
1

>  <PUBCHEM_CACTVS_TAUTO_COUNT>  (1) 
1

>  <PUBCHEM_CONFORMER_ID>  (1) 
000075DA0000000A

>  <PUBCHEM_MMFF94_ENERGY>  (1) 
8.1237

>  <PUBCHEM_FEATURE_SELFOVERLAP>  (1) 
5.074

>  <PUBCHEM_SHAPE_FINGERPRINT>  (1) 
10219947 1 18408318878809001592
12932764 1 17632304462650987769
13922767 16 17967246507396995808
14251717 144 18410572898524926910
14252887 29 18334580088126040466
14344429 50 17458348537349816384
14993402 34 18408888469003460628
18186145 218 17530966903988009873
19050596 39 18342459274734936369
19786989 88 18260831552673584501
20511035 2 17679596794176402176
20559304 39 18411427189021564609
20645477 70 18259986002630780231
20711985 327 18261390014417920584
20871998 22 18190461562981713134
21524375 3 17683253816831820836
21730867 7 17846776282680144378
2255824 54 18339935839229715375
23402539 116 18334563629668781072
3060560 45 18337967769566699436
3248919 1 18409736174929904123
58051976 378 18412824703118934567
581208 293 18413388730671316567
7364860 26 18410301306420964556
81228 2 17610067771739669148
9999458 23 17774711039795975656

>  <PUBCHEM_SHAPE_MULTIPOLES>  (1) 
274.9
7.83
2.31
1.2
9.31
0.24
0
-0.29
1.86
-2.12
-0.87
-0.43
-0.09
-0.62

>  <PUBCHEM_SHAPE_SELFOVERLAP>  (1) 
483.782

>  <PUBCHEM_SHAPE_VOLUME>  (1) 
181.7

>  <PUBCHEM_COORDINATE_TYPE>  (1) 
2
5
10

$$$$
