30172
     RDKit          3D

 13 12  0  0  0  0  0  0  0  0999 V2000
   -0.0001   -0.8996    0.0009 Si  0  0  0  0  0  4  0  0  0  0  0  0
    1.1755    0.0790    0.6922 O   0  0  0  0  0  0  0  0  0  0  0  0
   -1.1956    0.0569   -0.6869 O   0  0  0  0  0  0  0  0  0  0  0  0
    3.6782    2.6677   -0.0582 N   0  0  0  0  0  0  0  0  0  0  0  0
   -3.6910    2.6548    0.0569 N   0  0  0  0  0  0  0  0  0  0  0  0
    0.7574   -2.0103   -1.3190 C   0  0  0  0  0  0  0  0  0  0  0  0
   -0.7344   -2.0307    1.3166 C   0  0  0  0  0  0  0  0  0  0  0  0
    1.8616   -2.9433   -0.8396 C   0  0  0  0  0  0  0  0  0  0  0  0
   -1.8190   -2.9847    0.8336 C   0  0  0  0  0  0  0  0  0  0  0  0
    1.9039    0.9829   -0.1262 C   0  0  0  0  0  0  0  0  0  0  0  0
   -1.9085    0.9785    0.1255 C   0  0  0  0  0  0  0  0  0  0  0  0
    2.8951    1.7394    0.7436 C   0  0  0  0  0  0  0  0  0  0  0  0
   -2.9230    1.7094   -0.7394 C   0  0  0  0  0  0  0  0  0  0  0  0
  1  2  1  0
  1  3  1  0
  1  6  1  0
  1  7  1  0
  2 10  1  0
  3 11  1  0
  4 12  1  0
  5 13  1  0
  6  8  1  0
  7  9  1  0
 10 12  1  0
 11 13  1  0
M  END
>  <PUBCHEM_COMPOUND_CID>  (1) 
30172

>  <PUBCHEM_CONFORMER_RMSD>  (1) 
0.8

>  <PUBCHEM_CONFORMER_DIVERSEORDER>  (1) 
1
37
36
35
31
38
6
9
28
4
18
30
7
2
8
27
40
3
29
13
16
42
5
26
10
33
25
20
23
21
24
39
34
14
15
22
12
41
32
17
19
11

>  <PUBCHEM_MMFF94_PARTIAL_CHARGES>  (1) 
15
1 0.76
10 0.28
11 0.28
12 0.27
13 0.27
2 -0.58
3 -0.58
32 0.36
33 0.36
34 0.36
35 0.36
4 -0.99
5 -0.99
6 -0.08
7 -0.08

>  <PUBCHEM_EFFECTIVE_ROTOR_COUNT>  (1) 
8

>  <PUBCHEM_PHARMACOPHORE_FEATURES>  (1) 
4
1 4 cation
1 4 donor
1 5 cation
1 5 donor

>  <PUBCHEM_HEAVY_ATOM_COUNT>  (1) 
13

>  <PUBCHEM_ATOM_DEF_STEREO_COUNT>  (1) 
0

>  <PUBCHEM_ATOM_UDEF_STEREO_COUNT>  (1) 
0

>  <PUBCHEM_BOND_DEF_STEREO_COUNT>  (1) 
0

>  <PUBCHEM_BOND_UDEF_STEREO_COUNT>  (1) 
0

>  <PUBCHEM_ISOTOPIC_ATOM_COUNT>  (1) 
0

>  <PUBCHEM_COMPONENT_COUNT>  (1) 
1

>  <PUBCHEM_CACTVS_TAUTO_COUNT>  (1) 
1

>  <PUBCHEM_CONFORMER_ID>  (1) 
000075DC00000001

>  <PUBCHEM_MMFF94_ENERGY>  (1) 
-2.8335

>  <PUBCHEM_FEATURE_SELFOVERLAP>  (1) 
20.297

>  <PUBCHEM_SHAPE_FINGERPRINT>  (1) 
11357001 24 17973997646351670584
13380536 305 18121781621414534427
14648413 74 18340488863576862926
15490181 8 18338781369121057798
17041 50 17549252636893224541
20388701 513 18115882969439343211
20645477 56 17770221879928275552
20671657 1 18197779895143963533
20871998 184 18050569835096225838
21339142 126 17763740293046523752
21524375 3 18266719385626735233
220403 375 18410568504783795970
2255824 54 18051684443982420733
23419403 2 17905087747819112755
23526113 38 17979088080209042359
23558518 356 18334012817604447431
2748010 2 18270691977457352404
3250762 1 18338530684775928870
4175511 376 18128826239589783830
4369600 1 17618225009645731355
7364860 26 18056469556740404908
81228 2 17969804032110860867
90316 7 17547283866786593842

>  <PUBCHEM_SHAPE_MULTIPOLES>  (1) 
264.05
4.9
4.19
1.16
0.08
0.73
0
-5.98
-0.03
-0.03
0.03
-0.01
0.68
1.55

>  <PUBCHEM_SHAPE_SELFOVERLAP>  (1) 
466.387

>  <PUBCHEM_SHAPE_VOLUME>  (1) 
172.4

>  <PUBCHEM_COORDINATE_TYPE>  (1) 
2
5
10

$$$$
