30175
     RDKit          3D

  7  7  0  0  0  0  0  0  0  0999 V2000
   -1.0635   -0.0565   -0.5835 C   0  0  0  0  0  0  0  0  0  0  0  0
   -1.7441   -1.1001    0.2070 C   0  0  0  0  0  0  0  0  0  0  0  0
   -2.1342    0.3419    0.3506 C   0  0  0  0  0  0  0  0  0  0  0  0
    0.3497    0.2866   -0.1909 C   0  0  0  0  0  0  0  0  0  0  0  0
    0.5715    1.7438    0.1005 C   0  0  0  0  0  0  0  0  0  0  0  0
    1.2891   -0.6757   -0.1253 C   0  0  0  0  0  0  0  0  0  0  0  0
    2.7314   -0.5400    0.2415 C   0  0  0  0  0  0  0  0  0  0  0  0
  1  2  1  0
  1  3  1  0
  1  4  1  0
  2  3  1  0
  4  5  1  0
  4  6  2  0
  6  7  1  0
M  END
>  <PUBCHEM_COMPOUND_CID>  (1) 
30175

>  <PUBCHEM_CONFORMER_RMSD>  (1) 
0.4

>  <PUBCHEM_CONFORMER_DIVERSEORDER>  (1) 
1
2
3

>  <PUBCHEM_MMFF94_PARTIAL_CHARGES>  (1) 
13
1 -0.06
10 0.1
11 0.1
12 0.1
16 0.15
2 -0.2
3 -0.2
4 -0.18
5 0.14
6 -0.29
7 0.14
8 0.1
9 0.1

>  <PUBCHEM_EFFECTIVE_ROTOR_COUNT>  (1) 
1.6

>  <PUBCHEM_PHARMACOPHORE_FEATURES>  (1) 
2
1 5 hydrophobe
1 7 hydrophobe

>  <PUBCHEM_HEAVY_ATOM_COUNT>  (1) 
7

>  <PUBCHEM_ATOM_DEF_STEREO_COUNT>  (1) 
0

>  <PUBCHEM_ATOM_UDEF_STEREO_COUNT>  (1) 
0

>  <PUBCHEM_BOND_DEF_STEREO_COUNT>  (1) 
0

>  <PUBCHEM_BOND_UDEF_STEREO_COUNT>  (1) 
1

>  <PUBCHEM_ISOTOPIC_ATOM_COUNT>  (1) 
0

>  <PUBCHEM_COMPONENT_COUNT>  (1) 
1

>  <PUBCHEM_CACTVS_TAUTO_COUNT>  (1) 
1

>  <PUBCHEM_CONFORMER_ID>  (1) 
000075DF00000001

>  <PUBCHEM_MMFF94_ENERGY>  (1) 
12.3197

>  <PUBCHEM_FEATURE_SELFOVERLAP>  (1) 
10.149

>  <PUBCHEM_SHAPE_FINGERPRINT>  (1) 
10857977 72 18339910589417285762
12897270 3 8862938347289102203
14390081 3 9079115544460785894
16714656 1 18340207375720310862
20096714 4 18128262387682758237
21040471 1 17546168498039541948
23552423 10 18116154548251857653
23552449 11 18336538438441017803
24536 1 18266728259308412369
29004967 10 18411139125765137786
5460574 1 9223228550708865270

>  <PUBCHEM_SHAPE_MULTIPOLES>  (1) 
144.06
3.23
1.36
0.71
0.93
0.51
-0.02
-0.91
0.45
0.11
0.08
-0.07
-0.01
-0.01

>  <PUBCHEM_SHAPE_SELFOVERLAP>  (1) 
272.294

>  <PUBCHEM_SHAPE_VOLUME>  (1) 
91.9

>  <PUBCHEM_COORDINATE_TYPE>  (1) 
2
5
10

$$$$
