30171
     RDKit          3D

 19 18  0  0  0  0  0  0  0  0999 V2000
    3.2271    0.0118   -0.0949 Si  0  0  0  0  0  4  0  0  0  0  0  0
    1.7544    0.3838    0.6181 O   0  0  0  0  0  0  0  0  0  0  0  0
   -1.8854   -0.0094    0.2659 N   0  0  0  0  0  0  0  0  0  0  0  0
    3.4805   -1.8489   -0.2008 C   0  0  0  0  0  0  0  0  0  0  0  0
    3.3448    0.7318   -1.8288 C   0  0  0  0  0  0  0  0  0  0  0  0
    4.6331    0.7331    0.9315 C   0  0  0  0  0  0  0  0  0  0  0  0
   -0.6241    0.4101    0.8585 C   0  0  0  0  0  0  0  0  0  0  0  0
    0.5489   -0.0609    0.0136 C   0  0  0  0  0  0  0  0  0  0  0  0
   -2.9861    0.8333    0.7396 C   0  0  0  0  0  0  0  0  0  0  0  0
   -2.1589   -1.4160    0.5703 C   0  0  0  0  0  0  0  0  0  0  0  0
    3.4912   -2.5887    1.1306 C   0  0  0  0  0  0  0  0  0  0  0  0
    3.2369    2.2483   -1.9206 C   0  0  0  0  0  0  0  0  0  0  0  0
    6.0378    0.4439    0.4187 C   0  0  0  0  0  0  0  0  0  0  0  0
   -2.9700    2.1812    0.0206 C   0  0  0  0  0  0  0  0  0  0  0  0
   -3.1204   -2.0048   -0.4605 C   0  0  0  0  0  0  0  0  0  0  0  0
   -4.1248    3.0692    0.4854 C   0  0  0  0  0  0  0  0  0  0  0  0
   -3.4028   -3.4799   -0.1734 C   0  0  0  0  0  0  0  0  0  0  0  0
   -4.0952    4.4261   -0.1998 C   0  0  0  0  0  0  0  0  0  0  0  0
   -4.3869   -4.0642   -1.1743 C   0  0  0  0  0  0  0  0  0  0  0  0
  1  2  1  0
  1  4  1  0
  1  5  1  0
  1  6  1  0
  2  8  1  0
  3  7  1  0
  3  9  1  0
  3 10  1  0
  4 11  1  0
  5 12  1  0
  6 13  1  0
  7  8  1  0
  9 14  1  0
 10 15  1  0
 14 16  1  0
 15 17  1  0
 16 18  1  0
 17 19  1  0
M  END
>  <PUBCHEM_COMPOUND_CID>  (1) 
30171

>  <PUBCHEM_CONFORMER_RMSD>  (1) 
1.2

>  <PUBCHEM_CONFORMER_DIVERSEORDER>  (1) 
1
8
19
23
11
16
13
25
29
28
12
15
30
31
14
18
27
22
7
24
10
2
21
20
4
17
5
26
32
3
9
6

>  <PUBCHEM_MMFF94_PARTIAL_CHARGES>  (1) 
10
1 0.54
10 0.27
2 -0.58
3 -0.81
4 -0.08
5 -0.08
6 -0.08
7 0.27
8 0.28
9 0.27

>  <PUBCHEM_EFFECTIVE_ROTOR_COUNT>  (1) 
13

>  <PUBCHEM_PHARMACOPHORE_FEATURES>  (1) 
3
1 18 hydrophobe
1 19 hydrophobe
1 3 cation

>  <PUBCHEM_HEAVY_ATOM_COUNT>  (1) 
19

>  <PUBCHEM_ATOM_DEF_STEREO_COUNT>  (1) 
0

>  <PUBCHEM_ATOM_UDEF_STEREO_COUNT>  (1) 
0

>  <PUBCHEM_BOND_DEF_STEREO_COUNT>  (1) 
0

>  <PUBCHEM_BOND_UDEF_STEREO_COUNT>  (1) 
0

>  <PUBCHEM_ISOTOPIC_ATOM_COUNT>  (1) 
0

>  <PUBCHEM_COMPONENT_COUNT>  (1) 
1

>  <PUBCHEM_CACTVS_TAUTO_COUNT>  (1) 
1

>  <PUBCHEM_CONFORMER_ID>  (1) 
000075DB00000001

>  <PUBCHEM_MMFF94_ENERGY>  (1) 
2.8928

>  <PUBCHEM_FEATURE_SELFOVERLAP>  (1) 
15.223

>  <PUBCHEM_SHAPE_FINGERPRINT>  (1) 
11796584 16 18271529676917598326
12107183 9 17975687295287108386
12403260 363 18189331432906818652
12788726 201 18263649618461723411
13583140 156 18060412534555433000
14508225 48 18125989697870585069
15842332 3 18113894961688962227
17539 30 18342448297109699247
17818456 19 18122064200261533816
20645477 56 18412264999939554977
20645477 70 16415205516513635996
21054139 6 18264485264690003910
21426921 1 18412542145720541153
23557571 272 18202283610798806320
23558518 356 18334013886814297915
23598288 3 18335437759067446985
3057174 1 17981324491987986117
53777708 50 18335145301558822942
633830 44 17386020442045158698
7164475 11 18337673121751263567
77188 2 17907854356220743073

>  <PUBCHEM_SHAPE_MULTIPOLES>  (1) 
398.37
12.29
5.07
1.32
4.6
0.22
0.55
-1.1
0.22
-11.31
1.2
1.16
-0.16
-2.68

>  <PUBCHEM_SHAPE_SELFOVERLAP>  (1) 
711.873

>  <PUBCHEM_SHAPE_VOLUME>  (1) 
258.9

>  <PUBCHEM_COORDINATE_TYPE>  (1) 
2
5
10

$$$$
