30188
     RDKit          3D

 28 29  0  0  0  0  0  0  0  0999 V2000
    0.0088   -3.8824   -0.2374 S   0  0  0  0  0  0  0  0  0  0  0  0
    0.1848   -4.5546    1.0971 O   0  0  0  0  0  0  0  0  0  0  0  0
    4.3343    0.2298   -0.6355 N   0  0  0  0  0  0  0  0  0  0  0  0
   -4.3450    0.1418    0.5556 N   0  0  0  0  0  0  0  0  0  0  0  0
    2.7542    2.0180   -0.3531 N   0  0  0  0  0  0  0  0  0  0  0  0
   -2.7818    1.9639    0.4488 N   0  0  0  0  0  0  0  0  0  0  0  0
    5.0813    2.3625   -0.6367 N   0  0  0  0  0  0  0  0  0  0  0  0
   -5.1111    2.2631    0.7636 N   0  0  0  0  0  0  0  0  0  0  0  0
    6.7741    3.5559    0.4354 N   0  0  0  0  0  0  0  0  0  0  0  0
    5.4256    2.2546    1.7408 N   0  0  0  0  0  0  0  0  0  0  0  0
   -6.8126    3.5429   -0.1886 N   0  0  0  0  0  0  0  0  0  0  0  0
   -5.4555    2.3834   -1.6133 N   0  0  0  0  0  0  0  0  0  0  0  0
    1.3054   -2.6498   -0.3566 C   0  0  0  0  0  0  0  0  0  0  0  0
   -1.3081   -2.6652    0.0024 C   0  0  0  0  0  0  0  0  0  0  0  0
    1.6453   -2.1128   -1.5984 C   0  0  0  0  0  0  0  0  0  0  0  0
   -1.6394   -2.2643    1.2880 C   0  0  0  0  0  0  0  0  0  0  0  0
    1.9743   -2.2276    0.7923 C   0  0  0  0  0  0  0  0  0  0  0  0
   -1.9684   -2.1493   -1.1028 C   0  0  0  0  0  0  0  0  0  0  0  0
    3.3186   -0.7360   -0.5420 C   0  0  0  0  0  0  0  0  0  0  0  0
   -3.3269   -0.7993    0.3700 C   0  0  0  0  0  0  0  0  0  0  0  0
    2.6541   -1.1540   -1.6913 C   0  0  0  0  0  0  0  0  0  0  0  0
   -2.6549   -1.3259    1.4729 C   0  0  0  0  0  0  0  0  0  0  0  0
    2.9830   -1.2686    0.6995 C   0  0  0  0  0  0  0  0  0  0  0  0
   -2.9838   -1.2110   -0.9178 C   0  0  0  0  0  0  0  0  0  0  0  0
    4.0160    1.4905   -0.5313 C   0  0  0  0  0  0  0  0  0  0  0  0
   -4.0399    1.4128    0.5747 C   0  0  0  0  0  0  0  0  0  0  0  0
    5.7071    2.6902    0.4648 C   0  0  0  0  0  0  0  0  0  0  0  0
   -5.7396    2.6916   -0.3012 C   0  0  0  0  0  0  0  0  0  0  0  0
  1  2  2  0
  1 13  1  0
  1 14  1  0
  3 19  1  0
  3 25  2  0
  4 20  1  0
  4 26  2  0
  5 25  1  0
  6 26  1  0
  7 25  1  0
  7 27  2  0
  8 26  1  0
  8 28  2  0
  9 27  1  0
 10 27  1  0
 11 28  1  0
 12 28  1  0
 13 15  2  0
 13 17  1  0
 14 16  2  0
 14 18  1  0
 15 21  1  0
 16 22  1  0
 17 23  2  0
 18 24  2  0
 19 21  2  0
 19 23  1  0
 20 22  2  0
 20 24  1  0
M  END
>  <PUBCHEM_COMPOUND_CID>  (1) 
30188

>  <PUBCHEM_CONFORMER_RMSD>  (1) 
0.8

>  <PUBCHEM_CONFORMER_DIVERSEORDER>  (1) 
1
8
13
7
45
47
43
49
11
4
36
9
26
35
14
41
34
37
48
10
16
33
6
40
30
12
42
2
24
31
17
32
44
38
46
20
28
23
39
19
18
5
29
21
25
15
22
27
3

>  <PUBCHEM_MMFF94_PARTIAL_CHARGES>  (1) 
48
1 0.37
10 -0.85
11 -0.85
12 -0.85
13 0.06
14 0.06
15 -0.15
16 -0.15
17 -0.15
18 -0.15
19 0.18
2 -0.5
20 0.18
21 -0.15
22 -0.15
23 -0.15
24 -0.15
25 0.71
26 0.71
27 0.55
28 0.55
29 0.15
3 -0.63
30 0.15
31 0.15
32 0.15
33 0.15
34 0.15
35 0.15
36 0.15
37 0.4
38 0.4
39 0.4
4 -0.63
40 0.4
41 0.4
42 0.4
43 0.4
44 0.4
45 0.4
46 0.4
47 0.4
48 0.4
5 -0.85
6 -0.85
7 -0.66
8 -0.66
9 -0.85

>  <PUBCHEM_EFFECTIVE_ROTOR_COUNT>  (1) 
6

>  <PUBCHEM_PHARMACOPHORE_FEATURES>  (1) 
13
1 10 donor
1 11 donor
1 12 donor
1 2 acceptor
1 5 donor
1 6 donor
1 9 donor
4 3 5 7 25 cation
4 4 6 8 26 cation
4 7 9 10 27 cation
4 8 11 12 28 cation
6 13 15 17 19 21 23 rings
6 14 16 18 20 22 24 rings

>  <PUBCHEM_HEAVY_ATOM_COUNT>  (1) 
28

>  <PUBCHEM_ATOM_DEF_STEREO_COUNT>  (1) 
0

>  <PUBCHEM_ATOM_UDEF_STEREO_COUNT>  (1) 
0

>  <PUBCHEM_BOND_DEF_STEREO_COUNT>  (1) 
0

>  <PUBCHEM_BOND_UDEF_STEREO_COUNT>  (1) 
0

>  <PUBCHEM_ISOTOPIC_ATOM_COUNT>  (1) 
0

>  <PUBCHEM_COMPONENT_COUNT>  (1) 
1

>  <PUBCHEM_CACTVS_TAUTO_COUNT>  (1) 
15

>  <PUBCHEM_CONFORMER_ID>  (1) 
000075EC00000001

>  <PUBCHEM_MMFF94_ENERGY>  (1) 
99.5182

>  <PUBCHEM_FEATURE_SELFOVERLAP>  (1) 
66.176

>  <PUBCHEM_SHAPE_FINGERPRINT>  (1) 
10439779 11 18338788044080803120
10675989 125 18195532493250494297
10864689 126 18341338833948785764
10937287 8 18411138034722644891
11135609 201 18340488971209580099
11477941 20 17194039385480862230
11479125 193 18118661272277981125
11720765 8 17842011987772024542
12107183 9 18334845135755294506
13878862 14 17753039506814973511
13965767 371 17894911789321820206
14251764 75 18200043841399520705
14289278 72 12830318167138698807
14848178 96 18341054008437777779
15142526 21 18261117318687237979
16120349 21 8646501743131554791
1768 210 18411689998713901317
20715895 44 18338797797397163739
21049683 118 17241337846272742083
21133410 221 17126468842667205296
21388113 180 18337674118363394725
21475661 188 18262243197023940831
21864079 5 18411143536486099815
2748736 6 18411409613999695053
2838139 119 18412826880224560430
3388396 114 16974760516872304644
3472631 163 18341896226044980743
376196 1 18341338833473986742
4112364 45 18260822653432730201
508706 21 17984417718411990376
56616090 13 18335988550169361523
56633871 153 10881695623770078833
6036956 94 17831019387907392629
7288768 16 18186803616540172219
7808743 9 18269558402291529706
9849439 229 18410287008511792099
9981440 41 18335424603287870427

>  <PUBCHEM_SHAPE_MULTIPOLES>  (1) 
524.4
14.83
5.79
1.4
0.44
0.09
0.08
25.98
-0.42
-0.06
-0.56
-0.14
-0.36
1.78

>  <PUBCHEM_SHAPE_SELFOVERLAP>  (1) 
1099.113

>  <PUBCHEM_SHAPE_VOLUME>  (1) 
296.2

>  <PUBCHEM_COORDINATE_TYPE>  (1) 
2
5
10

$$$$
