30181
     RDKit          3D

 11 11  0  0  1  0  0  0  0  0999 V2000
   -2.1786   -0.7673    0.3596 O   0  0  0  0  0  0  0  0  0  0  0  0
    2.8672    0.5929   -0.1294 O   0  0  0  0  0  0  0  0  0  0  0  0
   -0.6550    1.0722   -0.0545 C   0  0  0  0  0  0  0  0  0  0  0  0
    0.0191   -1.4339   -0.3851 C   0  0  0  0  0  0  0  0  0  0  0  0
    0.7036    1.3042    0.6245 C   0  0  0  0  0  0  0  0  0  0  0  0
   -1.0434   -0.4154    0.0349 C   0  0  0  0  0  0  0  0  0  0  0  0
    1.3215   -1.1719    0.3621 C   0  0  0  0  0  0  0  0  0  0  0  0
    1.7311    0.2730    0.2165 C   0  0  0  0  0  0  0  0  0  0  0  0
   -1.7130    1.9336    0.6557 C   0  0  0  0  0  0  0  0  0  0  0  0
   -0.6032    1.4802   -1.5350 C   0  0  0  0  0  0  0  0  0  0  0  0
   -0.4493   -2.8677   -0.1494 C   0  0  0  0  0  0  0  0  0  0  0  0
  1  6  2  0
  2  8  2  0
  3  5  1  0
  3  6  1  0
  3  9  1  0
  3 10  1  0
  4  6  1  0
  4  7  1  0
  4 11  1  0
  5  8  1  0
  7  8  1  0
M  END
>  <PUBCHEM_COMPOUND_CID>  (1) 
30181

>  <PUBCHEM_CONFORMER_RMSD>  (1) 
0.4

>  <PUBCHEM_CONFORMER_DIVERSEORDER>  (1) 
2
5
6
4
3
1

>  <PUBCHEM_MMFF94_PARTIAL_CHARGES>  (1) 
8
1 -0.57
2 -0.57
3 0.06
4 0.06
5 0.06
6 0.45
7 0.06
8 0.45

>  <PUBCHEM_EFFECTIVE_ROTOR_COUNT>  (1) 
0.8

>  <PUBCHEM_PHARMACOPHORE_FEATURES>  (1) 
4
1 1 acceptor
1 2 acceptor
3 3 9 10 hydrophobe
6 3 4 5 6 7 8 rings

>  <PUBCHEM_HEAVY_ATOM_COUNT>  (1) 
11

>  <PUBCHEM_ATOM_DEF_STEREO_COUNT>  (1) 
0

>  <PUBCHEM_ATOM_UDEF_STEREO_COUNT>  (1) 
1

>  <PUBCHEM_BOND_DEF_STEREO_COUNT>  (1) 
0

>  <PUBCHEM_BOND_UDEF_STEREO_COUNT>  (1) 
0

>  <PUBCHEM_ISOTOPIC_ATOM_COUNT>  (1) 
0

>  <PUBCHEM_COMPONENT_COUNT>  (1) 
1

>  <PUBCHEM_CACTVS_TAUTO_COUNT>  (1) 
6

>  <PUBCHEM_CONFORMER_ID>  (1) 
000075E500000002

>  <PUBCHEM_MMFF94_ENERGY>  (1) 
22.9335

>  <PUBCHEM_FEATURE_SELFOVERLAP>  (1) 
20.297

>  <PUBCHEM_SHAPE_FINGERPRINT>  (1) 
12423570 1 15614658543144120669
13024252 1 15068613898933075832
14128692 85 17616540995955059366
14817 1 10909165456878582212
16945 1 18268995447836899514
18185500 45 17905606962152135442
193761 8 18124035620183052915
21040471 1 18341325604973818456
21922407 69 15476707376040889771
23235685 24 17908414758599259520
23552423 10 17836363752914452541
2748010 2 18339079268242521510
5084963 1 18114175294441657728
528862 383 17762340210463681185

>  <PUBCHEM_SHAPE_MULTIPOLES>  (1) 
214.64
2.69
2.43
0.95
0.06
0.97
-0.29
-1.07
0.02
0.82
0.21
-0.46
-0.01
0.17

>  <PUBCHEM_SHAPE_SELFOVERLAP>  (1) 
431.633

>  <PUBCHEM_SHAPE_VOLUME>  (1) 
126.7

>  <PUBCHEM_COORDINATE_TYPE>  (1) 
2
5
10

$$$$
