30184
     RDKit          3D

 15 16  0  0  0  0  0  0  0  0999 V2000
    1.2283    1.5644   -0.3477 S   0  0  0  0  0  0  0  0  0  0  0  0
    4.6535   -0.6008   -0.0750 N   0  0  0  0  0  0  0  0  0  0  0  0
   -1.3893    1.5198    0.2654 N   0  0  0  0  0  0  0  0  0  0  0  0
   -0.6578   -0.3916   -0.6015 N   0  0  0  0  0  0  0  0  0  0  0  0
    3.7832    0.5614   -0.2262 C   0  0  0  0  0  0  0  0  0  0  0  0
    2.3242    0.1272   -0.1604 C   0  0  0  0  0  0  0  0  0  0  0  0
   -2.4823    0.6923    0.2292 C   0  0  0  0  0  0  0  0  0  0  0  0
   -1.9999   -0.4944   -0.3159 C   0  0  0  0  0  0  0  0  0  0  0  0
   -0.3246    0.8274   -0.2408 C   0  0  0  0  0  0  0  0  0  0  0  0
    4.3908   -1.2775    1.1955 C   0  0  0  0  0  0  0  0  0  0  0  0
    6.0596   -0.2042   -0.1593 C   0  0  0  0  0  0  0  0  0  0  0  0
   -3.8108    0.8744    0.6148 C   0  0  0  0  0  0  0  0  0  0  0  0
   -2.8813   -1.5741   -0.4943 C   0  0  0  0  0  0  0  0  0  0  0  0
   -4.6741   -0.2106    0.4303 C   0  0  0  0  0  0  0  0  0  0  0  0
   -4.2196   -1.4139   -0.1143 C   0  0  0  0  0  0  0  0  0  0  0  0
  1  6  1  0
  1  9  1  0
  2  5  1  0
  2 10  1  0
  2 11  1  0
  3  7  1  0
  3  9  1  0
  4  8  1  0
  4  9  2  0
  5  6  1  0
  7  8  2  0
  7 12  1  0
  8 13  1  0
 12 14  2  0
 13 15  2  0
 14 15  1  0
M  END
>  <PUBCHEM_COMPOUND_CID>  (1) 
30184

>  <PUBCHEM_CONFORMER_RMSD>  (1) 
0.6

>  <PUBCHEM_CONFORMER_DIVERSEORDER>  (1) 
5
26
7
30
33
25
32
31
12
16
13
11
22
14
28
19
21
20
6
23
29
4
27
9
15
8
1
17
10
2
24
18
3

>  <PUBCHEM_MMFF94_PARTIAL_CHARGES>  (1) 
20
1 -0.29
10 0.27
11 0.27
12 -0.15
13 -0.15
14 -0.15
15 -0.15
2 -0.81
20 0.27
27 0.15
28 0.15
29 0.15
3 0.03
30 0.15
4 -0.57
5 0.27
6 0.23
7 -0.15
8 0.23
9 0.24

>  <PUBCHEM_EFFECTIVE_ROTOR_COUNT>  (1) 
4

>  <PUBCHEM_PHARMACOPHORE_FEATURES>  (1) 
5
1 2 cation
1 3 donor
3 3 4 9 cation
5 3 4 7 8 9 rings
6 7 8 12 13 14 15 rings

>  <PUBCHEM_HEAVY_ATOM_COUNT>  (1) 
15

>  <PUBCHEM_ATOM_DEF_STEREO_COUNT>  (1) 
0

>  <PUBCHEM_ATOM_UDEF_STEREO_COUNT>  (1) 
0

>  <PUBCHEM_BOND_DEF_STEREO_COUNT>  (1) 
0

>  <PUBCHEM_BOND_UDEF_STEREO_COUNT>  (1) 
0

>  <PUBCHEM_ISOTOPIC_ATOM_COUNT>  (1) 
0

>  <PUBCHEM_COMPONENT_COUNT>  (1) 
1

>  <PUBCHEM_CACTVS_TAUTO_COUNT>  (1) 
1

>  <PUBCHEM_CONFORMER_ID>  (1) 
000075E800000005

>  <PUBCHEM_MMFF94_ENERGY>  (1) 
25.9352

>  <PUBCHEM_FEATURE_SELFOVERLAP>  (1) 
25.479

>  <PUBCHEM_SHAPE_FINGERPRINT>  (1) 
10062212 137 18341330076135156319
10465860 250 17703792526413301321
10968037 39 18334298686606716348
11046707 91 18410572894235143164
114248 4 14345797149782727436
12107183 9 17762057636497491696
12236239 1 18334298660752633372
12555020 224 18336817693637626671
12596602 18 17917991698435631930
13167823 11 18408604768785362538
13288520 33 18411702097172251125
13551218 46 18339644438541593198
13675066 3 17203894054438682300
13690532 89 18334576862515865053
13862211 1 18200313355361862087
14251731 8 18410573972308961797
14251764 18 18272094932935732521
15048467 5 9943536193672549867
17804303 29 18272934942080529281
17834072 33 18335706074396536916
17862501 102 18413108381207873153
1813 80 17822021873771320342
19489759 90 17060339604671678561
200 152 17385722491415807124
20281475 54 18335701705834366308
204376 136 13470688161212685092
20645477 70 15141234387706893096
21267235 1 18410582820379473775
22485316 2 18334010584310994372
22646028 1 18333448742474745290
22646028 28 18335420179586969262
2297311 6 17988656176997635740
23035841 295 18411704262574421942
23366157 5 18120934176859428825
23402539 116 18411696582265503124
23559900 14 18341324599746217184
23596394 208 14635139084982436906
351380 180 8286198345203038250
351380 3 18334011688244300498
42 15 18341897402438621580
4214541 1 18412546496137796616
5104073 3 18129107886734276289
559249 180 18408600332142213519
573450 72 18413670205800865201
5924683 9 16844998134868814423

>  <PUBCHEM_SHAPE_MULTIPOLES>  (1) 
297.6
12.26
1.56
0.82
12.61
0.01
-0.1
4.17
-1.49
-0.52
-0.03
0.17
0.12
-0.96

>  <PUBCHEM_SHAPE_SELFOVERLAP>  (1) 
609.242

>  <PUBCHEM_SHAPE_VOLUME>  (1) 
175.3

>  <PUBCHEM_COORDINATE_TYPE>  (1) 
2
5
10

$$$$
