30189
     RDKit          3D

 23 24  0  0  0  0  0  0  0  0999 V2000
   -1.8647   -2.9106    0.1911 S   0  0  0  0  0  0  0  0  0  0  0  0
   -5.0053    2.8473   -1.1301 O   0  0  0  0  0  0  0  0  0  0  0  0
   -5.9141    2.3791    0.8126 O   0  0  0  0  0  0  0  0  0  0  0  0
    3.6802   -0.7049    0.0077 N   0  0  0  0  0  0  0  0  0  0  0  0
   -5.1285    2.1043   -0.1264 N   0  0  0  0  0  0  0  0  0  0  0  0
    5.2066    0.8356   -0.6272 N   0  0  0  0  0  0  0  0  0  0  0  0
    2.9682    1.1564   -1.3348 N   0  0  0  0  0  0  0  0  0  0  0  0
    6.8637    2.0980    0.4216 N   0  0  0  0  0  0  0  0  0  0  0  0
    4.7916    2.0905    1.3817 N   0  0  0  0  0  0  0  0  0  0  0  0
   -0.2095   -2.2523    0.1365 C   0  0  0  0  0  0  0  0  0  0  0  0
   -2.8386   -1.4154    0.0965 C   0  0  0  0  0  0  0  0  0  0  0  0
    0.6556   -2.6247   -0.8924 C   0  0  0  0  0  0  0  0  0  0  0  0
    0.2208   -1.3642    1.1224 C   0  0  0  0  0  0  0  0  0  0  0  0
    2.3756   -1.2241    0.0510 C   0  0  0  0  0  0  0  0  0  0  0  0
   -2.7161   -0.5781   -1.0095 C   0  0  0  0  0  0  0  0  0  0  0  0
   -3.7158   -1.0932    1.1290 C   0  0  0  0  0  0  0  0  0  0  0  0
   -4.3552    0.9157   -0.0512 C   0  0  0  0  0  0  0  0  0  0  0  0
    1.9512   -2.1095   -0.9351 C   0  0  0  0  0  0  0  0  0  0  0  0
    1.5164   -0.8490    1.0796 C   0  0  0  0  0  0  0  0  0  0  0  0
   -3.4756    0.5896   -1.0833 C   0  0  0  0  0  0  0  0  0  0  0  0
   -4.4754    0.0744    1.0549 C   0  0  0  0  0  0  0  0  0  0  0  0
    3.8945    0.4061   -0.6410 C   0  0  0  0  0  0  0  0  0  0  0  0
    5.5741    1.6290    0.3464 C   0  0  0  0  0  0  0  0  0  0  0  0
  1 10  1  0
  1 11  1  0
  2  5  1  0
  3  5  2  0
  4 14  1  0
  4 22  2  0
  5 17  1  0
  6 22  1  0
  6 23  2  0
  7 22  1  0
  8 23  1  0
  9 23  1  0
 10 12  2  0
 10 13  1  0
 11 15  2  0
 11 16  1  0
 12 18  1  0
 13 19  2  0
 14 18  2  0
 14 19  1  0
 15 20  1  0
 16 21  2  0
 17 20  2  0
 17 21  1  0
M  CHG  2   2  -1   5   1
M  END
>  <PUBCHEM_COMPOUND_CID>  (1) 
30189

>  <PUBCHEM_CONFORMER_RMSD>  (1) 
0.8

>  <PUBCHEM_CONFORMER_DIVERSEORDER>  (1) 
1
8
6
3
11
9
10
2
12
4
5
13
7

>  <PUBCHEM_MMFF94_PARTIAL_CHARGES>  (1) 
37
1 -0.2
10 0.1
11 0.1
12 -0.15
13 -0.15
14 0.18
15 -0.15
16 -0.15
17 0.13
18 -0.15
19 -0.15
2 -0.52
20 -0.15
21 -0.15
22 0.71
23 0.55
24 0.15
25 0.15
26 0.15
27 0.15
28 0.15
29 0.15
3 -0.52
30 0.15
31 0.15
32 0.4
33 0.4
34 0.4
35 0.4
36 0.4
37 0.4
4 -0.63
5 0.91
6 -0.66
7 -0.85
8 -0.85
9 -0.85

>  <PUBCHEM_EFFECTIVE_ROTOR_COUNT>  (1) 
5

>  <PUBCHEM_PHARMACOPHORE_FEATURES>  (1) 
10
1 2 acceptor
1 2 anion
1 3 acceptor
1 7 donor
1 8 donor
1 9 donor
4 4 6 7 22 cation
4 6 8 9 23 cation
6 10 12 13 14 18 19 rings
6 11 15 16 17 20 21 rings

>  <PUBCHEM_HEAVY_ATOM_COUNT>  (1) 
23

>  <PUBCHEM_ATOM_DEF_STEREO_COUNT>  (1) 
0

>  <PUBCHEM_ATOM_UDEF_STEREO_COUNT>  (1) 
0

>  <PUBCHEM_BOND_DEF_STEREO_COUNT>  (1) 
0

>  <PUBCHEM_BOND_UDEF_STEREO_COUNT>  (1) 
0

>  <PUBCHEM_ISOTOPIC_ATOM_COUNT>  (1) 
0

>  <PUBCHEM_COMPONENT_COUNT>  (1) 
1

>  <PUBCHEM_CACTVS_TAUTO_COUNT>  (1) 
5

>  <PUBCHEM_CONFORMER_ID>  (1) 
000075ED00000001

>  <PUBCHEM_MMFF94_ENERGY>  (1) 
76.9079

>  <PUBCHEM_FEATURE_SELFOVERLAP>  (1) 
50.926

>  <PUBCHEM_SHAPE_FINGERPRINT>  (1) 
10042902 136 10159699109655435674
105312 117 18270964651988590614
11069576 57 14691467035719848956
11135609 201 18410855473630301187
11720765 8 17695918726300497990
12107183 9 18116420467464509266
12403259 118 18041566956562864334
12422481 6 18113606873011261116
12633257 1 15068920662819663123
12969540 114 17060062600840806034
13383661 66 8213865945993912900
14123256 34 9079116678537873856
14251764 38 18050285061949245808
14341114 328 16950292831194845543
14429114 114 18196652891784616201
14739800 52 18264189457127293874
14848178 5 9439409016703654042
14950920 106 15647342986605864901
15510800 12 7853582322031024129
15537594 2 11815354722371810326
1768 210 18269254872926760349
17780758 139 12396567529734546359
17834072 32 18408605838211321687
17870717 6 12319742449389691971
193927 3 8790614718908902010
19438510 23 18334860489445239105
20715895 44 18341332215149955114
21033648 29 18187655712497893018
21196832 93 10663807625202738536
21307412 95 9799423183124001683
21401589 2 18260268538628008683
23559900 14 18198346147864594326
270888 7 18410854326657930177
2838139 119 18341325708411762060
2916195 48 18410013255712212674
316301 35 9150875175057807116
3459 39 18339343249986449000
392239 28 16009033924957813259
465052 167 10953464020347741802
5104073 3 18040433278438984106
5718773 13 8574417704732364401
57724786 102 17985275067046558019
633830 44 18337387141328278287
7062679 13 9511465511182461972
7064713 232 18260269676303842356
7288768 16 18187086144105461459
7808743 9 18408884049055104963
7918774 8 11314577685320870640
7970288 3 8790884081624592416
9981440 41 18333735744779831563
999808 66 12830023601576638456

>  <PUBCHEM_SHAPE_MULTIPOLES>  (1) 
435.55
14.59
3.38
1.25
8.57
0.29
0.02
16.65
1.45
-1.57
-0.19
-0.16
0.12
1.26

>  <PUBCHEM_SHAPE_SELFOVERLAP>  (1) 
915.779

>  <PUBCHEM_SHAPE_VOLUME>  (1) 
246.7

>  <PUBCHEM_COORDINATE_TYPE>  (1) 
2
5
10

$$$$
