3018
     RDKit          3D

 26 28  0  0  0  0  0  0  0  0999 V2000
    1.5379   -2.1645   -0.6691 O   0  0  0  0  0  0  0  0  0  0  0  0
   -1.5378    2.1643   -0.6713 O   0  0  0  0  0  0  0  0  0  0  0  0
    4.8786   -0.1255    0.0308 O   0  0  0  0  0  0  0  0  0  0  0  0
   -4.8787    0.1259    0.0310 O   0  0  0  0  0  0  0  0  0  0  0  0
    3.1551   -0.9168    1.3250 O   0  0  0  0  0  0  0  0  0  0  0  0
   -3.1550    0.9170    1.3252 O   0  0  0  0  0  0  0  0  0  0  0  0
    2.7804    0.2244   -0.6639 N   0  0  0  0  0  0  0  0  0  0  0  0
   -2.7804   -0.2245   -0.6637 N   0  0  0  0  0  0  0  0  0  0  0  0
   -1.2665   -2.6878   -0.6628 C   0  0  0  0  0  0  0  0  0  0  0  0
    1.2665    2.6878   -0.6625 C   0  0  0  0  0  0  0  0  0  0  0  0
   -0.8640   -3.6490    0.4171 C   0  0  0  0  0  0  0  0  0  0  0  0
   -2.2413   -3.0531    0.4180 C   0  0  0  0  0  0  0  0  0  0  0  0
    2.2412    3.0528    0.4184 C   0  0  0  0  0  0  0  0  0  0  0  0
    0.8640    3.6484    0.4176 C   0  0  0  0  0  0  0  0  0  0  0  0
   -0.6738   -1.3176   -0.6647 C   0  0  0  0  0  0  0  0  0  0  0  0
    0.6738    1.3173   -0.6648 C   0  0  0  0  0  0  0  0  0  0  0  0
    1.4098    0.1911   -0.6652 C   0  0  0  0  0  0  0  0  0  0  0  0
   -1.4099   -0.1914   -0.6650 C   0  0  0  0  0  0  0  0  0  0  0  0
    0.8142   -1.1698   -0.6669 C   0  0  0  0  0  0  0  0  0  0  0  0
   -0.8142    1.1696   -0.6675 C   0  0  0  0  0  0  0  0  0  0  0  0
    3.5596   -0.3293    0.3265 C   0  0  0  0  0  0  0  0  0  0  0  0
   -3.5596    0.3295    0.3266 C   0  0  0  0  0  0  0  0  0  0  0  0
    5.8188   -0.6487    0.9759 C   0  0  0  0  0  0  0  0  0  0  0  0
   -5.8187    0.6492    0.9762 C   0  0  0  0  0  0  0  0  0  0  0  0
    7.2217   -0.3382    0.4995 C   0  0  0  0  0  0  0  0  0  0  0  0
   -7.2217    0.3389    0.4997 C   0  0  0  0  0  0  0  0  0  0  0  0
  1 19  2  0
  2 20  2  0
  3 21  1  0
  3 23  1  0
  4 22  1  0
  4 24  1  0
  5 21  2  0
  6 22  2  0
  7 17  1  0
  7 21  1  0
  8 18  1  0
  8 22  1  0
  9 11  1  0
  9 12  1  0
  9 15  1  0
 10 13  1  0
 10 14  1  0
 10 16  1  0
 11 12  1  0
 13 14  1  0
 15 18  2  0
 15 19  1  0
 16 17  2  0
 16 20  1  0
 17 19  1  0
 18 20  1  0
 23 25  1  0
 24 26  1  0
M  END
>  <PUBCHEM_COMPOUND_CID>  (1) 
3018

>  <PUBCHEM_CONFORMER_RMSD>  (1) 
1

>  <PUBCHEM_CONFORMER_DIVERSEORDER>  (1) 
1
9
11
3
7
8
5
16
2
4
13
15
10
14
6
12

>  <PUBCHEM_MMFF94_PARTIAL_CHARGES>  (1) 
36
1 -0.57
10 -0.06
11 -0.2
12 -0.2
13 -0.2
14 -0.2
15 -0.03
16 -0.03
17 0.12
18 0.12
19 0.54
2 -0.57
20 0.54
21 0.78
22 0.78
23 0.28
24 0.28
27 0.1
28 0.1
29 0.1
3 -0.43
30 0.1
31 0.1
32 0.1
33 0.1
34 0.1
35 0.1
36 0.1
37 0.37
38 0.37
4 -0.43
5 -0.57
6 -0.57
7 -0.54
8 -0.54
9 -0.06

>  <PUBCHEM_EFFECTIVE_ROTOR_COUNT>  (1) 
11.2

>  <PUBCHEM_PHARMACOPHORE_FEATURES>  (1) 
7
1 1 acceptor
1 2 acceptor
1 5 acceptor
1 6 acceptor
1 7 donor
1 8 donor
6 15 16 17 18 19 20 rings

>  <PUBCHEM_HEAVY_ATOM_COUNT>  (1) 
26

>  <PUBCHEM_ATOM_DEF_STEREO_COUNT>  (1) 
0

>  <PUBCHEM_ATOM_UDEF_STEREO_COUNT>  (1) 
0

>  <PUBCHEM_BOND_DEF_STEREO_COUNT>  (1) 
0

>  <PUBCHEM_BOND_UDEF_STEREO_COUNT>  (1) 
0

>  <PUBCHEM_ISOTOPIC_ATOM_COUNT>  (1) 
0

>  <PUBCHEM_COMPONENT_COUNT>  (1) 
1

>  <PUBCHEM_CACTVS_TAUTO_COUNT>  (1) 
139

>  <PUBCHEM_CONFORMER_ID>  (1) 
00000BCA00000001

>  <PUBCHEM_MMFF94_ENERGY>  (1) 
82.6434

>  <PUBCHEM_FEATURE_SELFOVERLAP>  (1) 
35.528

>  <PUBCHEM_SHAPE_FINGERPRINT>  (1) 
10162869 55 18343300363356687629
10906281 52 18342751731647708644
1100329 8 18410575131907719257
11578080 2 17486763345105858488
11680986 33 18122045766361846764
12035758 1 18410855464423129400
12553582 1 18263906822588475306
12633257 1 18410575106137915461
12788726 201 18189043210736810288
13140716 1 18266458887269908629
13540713 5 18122626316632064687
13692114 37 18200870803478417287
14022347 108 18338815420107136166
14466204 15 18266741286208667017
14790565 3 18338246985164642172
14955137 171 18411144627765897970
15131766 46 15336834349925144376
15219462 58 14203889871049877996
15238133 3 18409456885917584420
16110190 28 18337951298710120472
16728300 4 17533758426171521594
16945 1 18410573989446418966
17980427 23 17917419977605246964
20028762 73 18272932752417835983
20510252 161 18197209257573446548
20600515 1 18341622507774120284
20642791 178 18044663237790460532
21197605 99 18196105554617421523
21267235 1 18334014952756717804
21304253 13 18272929427881013944
22224240 67 18342454829349047387
2334 1 17906172102491256021
23558518 356 17974573803688567279
23559900 14 18122045757692628334
23622692 88 18410855473013070326
25147074 1 18266459995371471519
2748010 2 18050567339614667439
2838139 119 15051723166720635688
3117164 225 18338799047206240801
3178227 256 18334870406951980089
335352 9 18410855481602998893
350125 39 18193843871107438087
4409770 3 17970328357159678076
465052 167 17967544475601666939
474 4 18343591733294236259
5104073 3 18266459986781536832
5486654 36 18187927356305279274
69474 34 18411698794311076680
9896288 288 17977657607756009344

>  <PUBCHEM_SHAPE_MULTIPOLES>  (1) 
489.89
12.42
3.75
1.04
0
0
-0.11
0
-5.69
0
-0.16
0
0
-0.51

>  <PUBCHEM_SHAPE_SELFOVERLAP>  (1) 
1028.738

>  <PUBCHEM_SHAPE_VOLUME>  (1) 
274.4

>  <PUBCHEM_COORDINATE_TYPE>  (1) 
2
5
10

$$$$
