30214
     RDKit          3D

  7  7  0  0  0  0  0  0  0  0999 V2000
   -0.4964    1.3710    0.0000 O   0  0  0  0  0  0  0  0  0  0  0  0
    1.4712    0.2560    0.0001 N   0  0  0  0  0  0  0  0  0  0  0  0
   -0.7661    0.0359   -0.0001 C   0  0  0  0  0  0  0  0  0  0  0  0
    0.4304   -0.6369   -0.0003 C   0  0  0  0  0  0  0  0  0  0  0  0
   -2.1782   -0.3611    0.0001 C   0  0  0  0  0  0  0  0  0  0  0  0
    0.6753   -2.0858    0.0002 C   0  0  0  0  0  0  0  0  0  0  0  0
    0.8639    1.4210    0.0001 C   0  0  0  0  0  0  0  0  0  0  0  0
  1  3  1  0
  1  7  1  0
  2  4  1  0
  2  7  2  0
  3  4  2  0
  3  5  1  0
  4  6  1  0
M  END
>  <PUBCHEM_COMPOUND_CID>  (1) 
30214

>  <PUBCHEM_CONFORMER_RMSD>  (1) 
0.4

>  <PUBCHEM_CONFORMER_DIVERSEORDER>  (1) 
1

>  <PUBCHEM_MMFF94_PARTIAL_CHARGES>  (1) 
8
1 -0.28
14 0.15
2 -0.57
3 -0.04
4 0.05
5 0.18
6 0.18
7 0.33

>  <PUBCHEM_EFFECTIVE_ROTOR_COUNT>  (1) 
0

>  <PUBCHEM_PHARMACOPHORE_FEATURES>  (1) 
1
5 1 2 3 4 7 rings

>  <PUBCHEM_HEAVY_ATOM_COUNT>  (1) 
7

>  <PUBCHEM_ATOM_DEF_STEREO_COUNT>  (1) 
0

>  <PUBCHEM_ATOM_UDEF_STEREO_COUNT>  (1) 
0

>  <PUBCHEM_BOND_DEF_STEREO_COUNT>  (1) 
0

>  <PUBCHEM_BOND_UDEF_STEREO_COUNT>  (1) 
0

>  <PUBCHEM_ISOTOPIC_ATOM_COUNT>  (1) 
0

>  <PUBCHEM_COMPONENT_COUNT>  (1) 
1

>  <PUBCHEM_CACTVS_TAUTO_COUNT>  (1) 
1

>  <PUBCHEM_CONFORMER_ID>  (1) 
0000760600000001

>  <PUBCHEM_MMFF94_ENERGY>  (1) 
2.3513

>  <PUBCHEM_FEATURE_SELFOVERLAP>  (1) 
5.074

>  <PUBCHEM_SHAPE_FINGERPRINT>  (1) 
20096714 4 18122626329622629833
21040471 1 17978229687997459493
23552423 10 17684946703977108502
29004967 10 18335425659912478651
5943 1 16675213833855413250

>  <PUBCHEM_SHAPE_MULTIPOLES>  (1) 
133.21
1.91
1.86
0.59
0.85
0.97
0
-0.5
0
-0.28
0
0.02
0.02
0

>  <PUBCHEM_SHAPE_SELFOVERLAP>  (1) 
270.492

>  <PUBCHEM_SHAPE_VOLUME>  (1) 
81.3

>  <PUBCHEM_COORDINATE_TYPE>  (1) 
2
5
10

$$$$
