30227
     RDKit          3D

  9  8  0  0  0  0  0  0  0  0999 V2000
    2.3616    0.3175   -0.9170 O   0  0  0  0  0  0  0  0  0  0  0  0
   -0.7572    0.4242   -0.2408 C   0  0  0  0  0  0  0  0  0  0  0  0
   -2.1958    0.0246   -0.5168 C   0  0  0  0  0  0  0  0  0  0  0  0
    0.2465   -0.4800   -0.1951 C   0  0  0  0  0  0  0  0  0  0  0  0
   -0.5683    1.9152   -0.0795 C   0  0  0  0  0  0  0  0  0  0  0  0
   -2.9587   -0.2984    0.7602 C   0  0  0  0  0  0  0  0  0  0  0  0
    0.1015   -1.9705   -0.2919 C   0  0  0  0  0  0  0  0  0  0  0  0
    1.6480   -0.0129    0.0277 C   0  0  0  0  0  0  0  0  0  0  0  0
    2.1225    0.0803    1.4532 C   0  0  0  0  0  0  0  0  0  0  0  0
  1  8  2  0
  2  3  1  0
  2  4  2  0
  2  5  1  0
  3  6  1  0
  4  7  1  0
  4  8  1  0
  8  9  1  0
M  END
>  <PUBCHEM_COMPOUND_CID>  (1) 
30227

>  <PUBCHEM_CONFORMER_RMSD>  (1) 
0.4

>  <PUBCHEM_CONFORMER_DIVERSEORDER>  (1) 
1
6
2
5
4
3

>  <PUBCHEM_MMFF94_PARTIAL_CHARGES>  (1) 
8
1 -0.57
2 -0.28
3 0.14
4 -0.12
5 0.14
7 0.14
8 0.49
9 0.06

>  <PUBCHEM_EFFECTIVE_ROTOR_COUNT>  (1) 
2

>  <PUBCHEM_PHARMACOPHORE_FEATURES>  (1) 
4
1 1 acceptor
1 5 hydrophobe
1 6 hydrophobe
1 7 hydrophobe

>  <PUBCHEM_HEAVY_ATOM_COUNT>  (1) 
9

>  <PUBCHEM_ATOM_DEF_STEREO_COUNT>  (1) 
0

>  <PUBCHEM_ATOM_UDEF_STEREO_COUNT>  (1) 
0

>  <PUBCHEM_BOND_DEF_STEREO_COUNT>  (1) 
0

>  <PUBCHEM_BOND_UDEF_STEREO_COUNT>  (1) 
1

>  <PUBCHEM_ISOTOPIC_ATOM_COUNT>  (1) 
0

>  <PUBCHEM_COMPONENT_COUNT>  (1) 
1

>  <PUBCHEM_CACTVS_TAUTO_COUNT>  (1) 
8

>  <PUBCHEM_CONFORMER_ID>  (1) 
0000761300000001

>  <PUBCHEM_MMFF94_ENERGY>  (1) 
14.3784

>  <PUBCHEM_FEATURE_SELFOVERLAP>  (1) 
20.297

>  <PUBCHEM_SHAPE_FINGERPRINT>  (1) 
10857977 72 18410571812256754153
12932764 1 17775283829192287645
15310529 11 16877655794618490477
16714656 1 18411987982916792574
16945 1 18412821399909028831
20653085 51 14547887489820416066
21040471 1 18412819192364605342
21922407 69 17023471819861353768
23235685 24 18411143545080659647
23552333 60 17168142347245375832
23552423 10 18045787788460114055
24536 1 18044650893373521269
29004967 10 18408609145388614281
5084963 1 18201159854001061830
528862 383 17972319787450178741

>  <PUBCHEM_SHAPE_MULTIPOLES>  (1) 
179.35
3.56
1.54
1.03
0.89
0.07
0.27
-0.03
0.78
0.17
-0.18
-0.38
-0.02
0.11

>  <PUBCHEM_SHAPE_SELFOVERLAP>  (1) 
334.087

>  <PUBCHEM_SHAPE_VOLUME>  (1) 
113.9

>  <PUBCHEM_COORDINATE_TYPE>  (1) 
2
5
10

$$$$
