30220
     RDKit          3D

  9  8  0  0  1  0  0  0  0  0999 V2000
   -0.7269    0.9267   -0.1514 O   0  0  0  0  0  0  0  0  0  0  0  0
    1.2606   -0.3502   -0.1300 O   0  0  0  0  0  0  0  0  0  0  0  0
    0.6136    0.8317    0.3478 C   0  0  0  0  0  0  0  0  0  0  0  0
   -1.5342   -0.1683    0.2610 C   0  0  0  0  0  0  0  0  0  0  0  0
   -2.9330    0.0100   -0.3092 C   0  0  0  0  0  0  0  0  0  0  0  0
    1.3607    2.0564   -0.1646 C   0  0  0  0  0  0  0  0  0  0  0  0
    2.6116   -0.4551    0.2983 C   0  0  0  0  0  0  0  0  0  0  0  0
   -3.8595   -1.1194    0.1039 C   0  0  0  0  0  0  0  0  0  0  0  0
    3.2069   -1.7319   -0.2558 C   0  0  0  0  0  0  0  0  0  0  0  0
  1  3  1  0
  1  4  1  0
  2  3  1  0
  2  7  1  0
  3  6  1  0
  4  5  1  0
  5  8  1  0
  7  9  1  0
M  END
>  <PUBCHEM_COMPOUND_CID>  (1) 
30220

>  <PUBCHEM_CONFORMER_RMSD>  (1) 
0.6

>  <PUBCHEM_CONFORMER_DIVERSEORDER>  (1) 
1
42
50
35
62
14
27
23
5
41
49
52
57
47
34
28
24
6
53
58
51
40
30
29
20
10
7
46
25
55
43
38
60
16
33
45
21
19
8
3
56
12
36
31
18
61
39
54
11
22
17
9
26
32
37
59
2
44
4
48
15
13

>  <PUBCHEM_MMFF94_PARTIAL_CHARGES>  (1) 
5
1 -0.56
2 -0.56
3 0.56
4 0.28
7 0.28

>  <PUBCHEM_EFFECTIVE_ROTOR_COUNT>  (1) 
5

>  <PUBCHEM_PHARMACOPHORE_FEATURES>  (1) 
3
1 1 acceptor
1 2 acceptor
1 8 hydrophobe

>  <PUBCHEM_HEAVY_ATOM_COUNT>  (1) 
9

>  <PUBCHEM_ATOM_DEF_STEREO_COUNT>  (1) 
0

>  <PUBCHEM_ATOM_UDEF_STEREO_COUNT>  (1) 
1

>  <PUBCHEM_BOND_DEF_STEREO_COUNT>  (1) 
0

>  <PUBCHEM_BOND_UDEF_STEREO_COUNT>  (1) 
0

>  <PUBCHEM_ISOTOPIC_ATOM_COUNT>  (1) 
0

>  <PUBCHEM_COMPONENT_COUNT>  (1) 
1

>  <PUBCHEM_CACTVS_TAUTO_COUNT>  (1) 
1

>  <PUBCHEM_CONFORMER_ID>  (1) 
0000760C00000001

>  <PUBCHEM_MMFF94_ENERGY>  (1) 
10.7119

>  <PUBCHEM_FEATURE_SELFOVERLAP>  (1) 
15.261

>  <PUBCHEM_SHAPE_FINGERPRINT>  (1) 
12932764 1 17559955596821448961
14325111 11 18337389461084488041
15477762 27 18410292544576845806
177051 138 18202281420402272111
20201158 50 18408041801378161843
20645477 70 18337101371848033959
20711978 1 18410293622677018577
20871998 22 18341332197806639926

>  <PUBCHEM_SHAPE_MULTIPOLES>  (1) 
173.48
6.14
1.79
0.66
3.57
0.38
-0.01
-3.86
0.21
-1.41
0.15
-0.01
-0.01
0.17

>  <PUBCHEM_SHAPE_SELFOVERLAP>  (1) 
305.557

>  <PUBCHEM_SHAPE_VOLUME>  (1) 
114.4

>  <PUBCHEM_COORDINATE_TYPE>  (1) 
2
5
10

$$$$
