30237
     RDKit          3D

 16 16  0  0  0  0  0  0  0  0999 V2000
   -0.1982    1.7451    0.2853 O   0  0  0  0  0  0  0  0  0  0  0  0
    2.0718    2.3416   -0.4499 O   0  0  0  0  0  0  0  0  0  0  0  0
    3.6902    1.0160    0.4390 O   0  0  0  0  0  0  0  0  0  0  0  0
   -2.2466   -0.2202    0.2248 C   0  0  0  0  0  0  0  0  0  0  0  0
   -2.7071    0.7682   -0.8906 C   0  0  0  0  0  0  0  0  0  0  0  0
   -0.7532   -0.5672    0.0822 C   0  0  0  0  0  0  0  0  0  0  0  0
   -2.4585    0.4702    1.5957 C   0  0  0  0  0  0  0  0  0  0  0  0
   -3.1791   -1.4555    0.2116 C   0  0  0  0  0  0  0  0  0  0  0  0
    0.1742    0.4426    0.1217 C   0  0  0  0  0  0  0  0  0  0  0  0
   -0.4228   -1.8898   -0.0795 C   0  0  0  0  0  0  0  0  0  0  0  0
   -4.1858    1.1439   -0.8577 C   0  0  0  0  0  0  0  0  0  0  0  0
    1.5222    0.1088   -0.0088 C   0  0  0  0  0  0  0  0  0  0  0  0
    1.8977   -1.2244   -0.1748 C   0  0  0  0  0  0  0  0  0  0  0  0
    0.9252   -2.2237   -0.2101 C   0  0  0  0  0  0  0  0  0  0  0  0
    3.3336   -1.6125   -0.3171 C   0  0  0  0  0  0  0  0  0  0  0  0
    2.5365    1.1569    0.0284 C   0  0  0  0  0  0  0  0  0  0  0  0
  1  9  1  0
  2 16  1  0
  3 16  2  0
  4  5  1  0
  4  6  1  0
  4  7  1  0
  4  8  1  0
  5 11  1  0
  6  9  2  0
  6 10  1  0
  9 12  1  0
 10 14  2  0
 12 13  2  0
 12 16  1  0
 13 14  1  0
 13 15  1  0
M  END
>  <PUBCHEM_COMPOUND_CID>  (1) 
30237

>  <PUBCHEM_CONFORMER_RMSD>  (1) 
0.6

>  <PUBCHEM_CONFORMER_DIVERSEORDER>  (1) 
5
1
6
2
3
4

>  <PUBCHEM_MMFF94_PARTIAL_CHARGES>  (1) 
16
1 -0.53
10 -0.15
12 0.09
13 -0.14
14 -0.15
15 0.14
16 0.63
2 -0.65
25 0.15
29 0.15
3 -0.57
33 0.45
34 0.5
4 0.14
6 -0.14
9 0.08

>  <PUBCHEM_EFFECTIVE_ROTOR_COUNT>  (1) 
3

>  <PUBCHEM_PHARMACOPHORE_FEATURES>  (1) 
7
1 1 donor
1 11 hydrophobe
1 2 acceptor
1 3 acceptor
3 2 3 16 anion
3 4 7 8 hydrophobe
6 6 9 10 12 13 14 rings

>  <PUBCHEM_HEAVY_ATOM_COUNT>  (1) 
16

>  <PUBCHEM_ATOM_DEF_STEREO_COUNT>  (1) 
0

>  <PUBCHEM_ATOM_UDEF_STEREO_COUNT>  (1) 
0

>  <PUBCHEM_BOND_DEF_STEREO_COUNT>  (1) 
0

>  <PUBCHEM_BOND_UDEF_STEREO_COUNT>  (1) 
0

>  <PUBCHEM_ISOTOPIC_ATOM_COUNT>  (1) 
0

>  <PUBCHEM_COMPONENT_COUNT>  (1) 
1

>  <PUBCHEM_CACTVS_TAUTO_COUNT>  (1) 
13

>  <PUBCHEM_CONFORMER_ID>  (1) 
0000761D00000005

>  <PUBCHEM_MMFF94_ENERGY>  (1) 
66.006

>  <PUBCHEM_FEATURE_SELFOVERLAP>  (1) 
35.585

>  <PUBCHEM_SHAPE_FINGERPRINT>  (1) 
10608611 8 18334573538511786949
10967382 1 18338797801781872950
10980938 120 18410578417895473154
11471102 20 18411133593673083389
124424 183 17895757266407805858
12654215 9 18335697191997714012
12932764 1 18041007202207724523
13140716 1 18412270510129251731
13296908 3 18408045104286860851
13380535 76 18267584783277838490
13571099 22 18340767057129708484
13897977 150 18409727352914188205
14325111 11 18410856585520493067
14617773 55 17488472892218323233
14897335 6 18342733057140493622
14911166 2 18338801087553518326
15219456 202 18334858307723119239
15536298 74 18201442475992756622
15775835 57 18413107286028155661
16945 1 18196098750217619010
18175812 5 18187085031355360839
18186145 218 18343032081174143294
193761 8 16969426210751392766
200 152 17989197136633923575
20201158 50 18265050241334810343
20449540 30 18342741862197782505
20510252 161 17479182307058708072
20645477 70 18271522005509811679
20715346 28 18114472214073331003
21029758 11 18198903617908360774
21501502 16 18411985801242587835
21524375 3 18195811988468398378
21639500 275 18342449352980869301
2334 1 18340491178537978630
23402655 69 18269540668846117181
23463225 33 18410294743906043546
23493267 7 17458636600658646808
23559900 14 18339920416714389578
25 1 18262795151744656743
2748010 2 18339653324939458134
3071541 158 18261960652394301214
528886 8 18412537725814162611
63268167 104 18343021099011280843
7364860 26 18272653416060044238
74978 22 18338519642704667539
77492 1 17489587814557943971
8030462 33 17632857512419870809

>  <PUBCHEM_SHAPE_MULTIPOLES>  (1) 
311.66
6.14
2.27
0.91
1.5
0.11
0.17
-1.14
-0.67
-1.13
-0.21
0.71
-0.16
0.47

>  <PUBCHEM_SHAPE_SELFOVERLAP>  (1) 
652.994

>  <PUBCHEM_SHAPE_VOLUME>  (1) 
177.1

>  <PUBCHEM_COORDINATE_TYPE>  (1) 
2
5
10

$$$$
