30236
     RDKit          3D

 16 16  0  0  1  0  0  0  0  0999 V2000
    0.1207    1.9246   -0.4344 O   0  0  0  0  0  0  0  0  0  0  0  0
    3.3077    1.1466   -1.1427 O   0  0  0  0  0  0  0  0  0  0  0  0
    3.1258    1.5353    1.0894 O   0  0  0  0  0  0  0  0  0  0  0  0
   -2.1689    0.2515   -0.5782 C   0  0  0  0  0  0  0  0  0  0  0  0
   -3.1598   -0.0286    0.5916 C   0  0  0  0  0  0  0  0  0  0  0  0
   -0.7700   -0.2859   -0.3034 C   0  0  0  0  0  0  0  0  0  0  0  0
   -2.6677   -0.3032   -1.9211 C   0  0  0  0  0  0  0  0  0  0  0  0
   -4.5664    0.5015    0.2756 C   0  0  0  0  0  0  0  0  0  0  0  0
   -2.6888    0.5936    1.9121 C   0  0  0  0  0  0  0  0  0  0  0  0
    0.2988    0.5847   -0.2472 C   0  0  0  0  0  0  0  0  0  0  0  0
   -0.6212   -1.6456   -0.1177 C   0  0  0  0  0  0  0  0  0  0  0  0
    1.5721    0.0741    0.0058 C   0  0  0  0  0  0  0  0  0  0  0  0
    1.7487   -1.2964    0.1968 C   0  0  0  0  0  0  0  0  0  0  0  0
    0.6521   -2.1563    0.1350 C   0  0  0  0  0  0  0  0  0  0  0  0
    3.1002   -1.8726    0.4688 C   0  0  0  0  0  0  0  0  0  0  0  0
    2.7166    0.9767    0.0697 C   0  0  0  0  0  0  0  0  0  0  0  0
  1 10  1  0
  2 16  1  0
  3 16  2  0
  4  5  1  0
  4  6  1  0
  4  7  1  0
  5  8  1  0
  5  9  1  0
  6 10  2  0
  6 11  1  0
 10 12  1  0
 11 14  2  0
 12 13  2  0
 12 16  1  0
 13 14  1  0
 13 15  1  0
M  END
>  <PUBCHEM_COMPOUND_CID>  (1) 
30236

>  <PUBCHEM_CONFORMER_RMSD>  (1) 
0.6

>  <PUBCHEM_CONFORMER_DIVERSEORDER>  (1) 
1
4
6
7
5
8
2
3

>  <PUBCHEM_MMFF94_PARTIAL_CHARGES>  (1) 
16
1 -0.53
10 0.08
11 -0.15
12 0.09
13 -0.14
14 -0.15
15 0.14
16 0.63
2 -0.65
28 0.15
29 0.15
3 -0.57
33 0.45
34 0.5
4 0.14
6 -0.14

>  <PUBCHEM_EFFECTIVE_ROTOR_COUNT>  (1) 
3

>  <PUBCHEM_PHARMACOPHORE_FEATURES>  (1) 
7
1 1 donor
1 2 acceptor
1 3 acceptor
1 7 hydrophobe
3 2 3 16 anion
3 5 8 9 hydrophobe
6 6 10 11 12 13 14 rings

>  <PUBCHEM_HEAVY_ATOM_COUNT>  (1) 
16

>  <PUBCHEM_ATOM_DEF_STEREO_COUNT>  (1) 
0

>  <PUBCHEM_ATOM_UDEF_STEREO_COUNT>  (1) 
1

>  <PUBCHEM_BOND_DEF_STEREO_COUNT>  (1) 
0

>  <PUBCHEM_BOND_UDEF_STEREO_COUNT>  (1) 
0

>  <PUBCHEM_ISOTOPIC_ATOM_COUNT>  (1) 
0

>  <PUBCHEM_COMPONENT_COUNT>  (1) 
1

>  <PUBCHEM_CACTVS_TAUTO_COUNT>  (1) 
13

>  <PUBCHEM_CONFORMER_ID>  (1) 
0000761C00000001

>  <PUBCHEM_MMFF94_ENERGY>  (1) 
50.056

>  <PUBCHEM_FEATURE_SELFOVERLAP>  (1) 
35.579

>  <PUBCHEM_SHAPE_FINGERPRINT>  (1) 
10219947 1 18335145271567742451
10980938 120 18409732850345674443
11471102 20 18335699416822415343
11471102 22 18261399884136800491
11543360 7 15912764024035465380
11578080 2 17412417487246256601
12236239 1 17917704674424406263
12491281 212 17489317398800241195
12644460 14 18113622266290029906
12932764 1 18201996625178464941
13140716 1 18408878555781786882
13296908 3 17821726104943046183
13380535 21 18335146439846774438
13538477 17 17632570557281285095
13581323 91 14273454777901353961
14178342 30 18194952165932778578
14289901 80 14707207763956824844
15219456 202 17894627020368209919
15309172 13 18335146426877060843
15342168 16 18335426828196746533
15653759 3 17095523946469119787
15775835 57 18130788966803671609
16945 1 18335133249864805228
17844478 74 17676771985316216335
1813 80 17840879473235737454
18175812 5 17749115461041465199
18186145 218 18343580758972378172
19049666 15 17242441725407243367
20510252 161 17621318374077947082
20645477 70 18262512598699980519
20715346 28 17603580811811879271
21029758 27 18044378219439395430
21730867 7 18113905952584073314
22112679 90 17703210859166230359
22854114 111 18342175553126378609
23048698 100 18272371941051405963
23236772 104 17988638644756224591
2334 1 18263920106669672878
23419403 2 15005220293366448482
23493267 7 17022896801081401164
23557571 272 15266477647902360347
23559900 14 16081373999037510466
2748010 2 18117262680179891780
276578 36 18410863178479791882
474 4 18128529564560834336
53812653 166 18340766060934796096
6049 1 17531243898854843359
63268167 104 18412536617928838927
7364860 26 18271804584604333846
77492 1 17917704687151072135
81228 2 17614560767050587906

>  <PUBCHEM_SHAPE_MULTIPOLES>  (1) 
311.66
6.45
1.9
1.29
2.68
0.39
-0.03
-1.33
0.84
-1.79
0.12
0.97
-0.21
-0.52

>  <PUBCHEM_SHAPE_SELFOVERLAP>  (1) 
644.585

>  <PUBCHEM_SHAPE_VOLUME>  (1) 
180.6

>  <PUBCHEM_COORDINATE_TYPE>  (1) 
2
5
10

$$$$
