30250
     RDKit          3D

 14 14  0  0  0  0  0  0  0  0999 V2000
   -3.1565    2.1885   -0.0417 Cl  0  0  0  0  0  0  0  0  0  0  0  0
   -3.6115   -0.7693   -0.3298 O   0  0  0  0  0  0  0  0  0  0  0  0
    2.8555   -1.3655   -0.0820 O   0  0  0  0  0  0  0  0  0  0  0  0
    1.7264    0.6932    0.0526 N   0  0  0  0  0  0  0  0  0  0  0  0
    4.0355    0.6084    0.1529 N   0  0  0  0  0  0  0  0  0  0  0  0
    0.3818    0.3332   -0.0430 C   0  0  0  0  0  0  0  0  0  0  0  0
   -0.6082    1.3149   -0.0009 C   0  0  0  0  0  0  0  0  0  0  0  0
    0.0278   -1.0090   -0.1806 C   0  0  0  0  0  0  0  0  0  0  0  0
   -2.3062   -0.3880   -0.2341 C   0  0  0  0  0  0  0  0  0  0  0  0
   -1.9524    0.9543   -0.0965 C   0  0  0  0  0  0  0  0  0  0  0  0
   -1.3162   -1.3696   -0.2761 C   0  0  0  0  0  0  0  0  0  0  0  0
    2.8617   -0.1420    0.0299 C   0  0  0  0  0  0  0  0  0  0  0  0
    5.3530    0.0155    0.1607 C   0  0  0  0  0  0  0  0  0  0  0  0
   -4.2906   -1.0644    0.8887 C   0  0  0  0  0  0  0  0  0  0  0  0
  1 10  1  0
  2  9  1  0
  2 14  1  0
  3 12  2  0
  4  6  1  0
  4 12  1  0
  5 12  1  0
  5 13  1  0
  6  7  2  0
  6  8  1  0
  7 10  1  0
  8 11  2  0
  9 10  2  0
  9 11  1  0
M  END
>  <PUBCHEM_COMPOUND_CID>  (1) 
30250

>  <PUBCHEM_CONFORMER_RMSD>  (1) 
0.6

>  <PUBCHEM_CONFORMER_DIVERSEORDER>  (1) 
1
10
12
5
9
11
2
6
4
3
7
8

>  <PUBCHEM_MMFF94_PARTIAL_CHARGES>  (1) 
19
1 -0.18
10 0.18
11 -0.15
12 0.69
13 0.3
14 0.28
15 0.15
16 0.15
17 0.15
18 0.37
19 0.37
2 -0.36
3 -0.57
4 -0.55
5 -0.73
6 0.12
7 -0.15
8 -0.15
9 0.08

>  <PUBCHEM_EFFECTIVE_ROTOR_COUNT>  (1) 
4

>  <PUBCHEM_PHARMACOPHORE_FEATURES>  (1) 
5
1 2 acceptor
1 3 acceptor
1 4 donor
1 5 donor
6 6 7 8 9 10 11 rings

>  <PUBCHEM_HEAVY_ATOM_COUNT>  (1) 
14

>  <PUBCHEM_ATOM_DEF_STEREO_COUNT>  (1) 
0

>  <PUBCHEM_ATOM_UDEF_STEREO_COUNT>  (1) 
0

>  <PUBCHEM_BOND_DEF_STEREO_COUNT>  (1) 
0

>  <PUBCHEM_BOND_UDEF_STEREO_COUNT>  (1) 
0

>  <PUBCHEM_ISOTOPIC_ATOM_COUNT>  (1) 
0

>  <PUBCHEM_COMPONENT_COUNT>  (1) 
1

>  <PUBCHEM_CACTVS_TAUTO_COUNT>  (1) 
3

>  <PUBCHEM_CONFORMER_ID>  (1) 
0000762A00000001

>  <PUBCHEM_MMFF94_ENERGY>  (1) 
43.5668

>  <PUBCHEM_FEATURE_SELFOVERLAP>  (1) 
25.419

>  <PUBCHEM_SHAPE_FINGERPRINT>  (1) 
10608611 8 18342731919064110352
12032990 46 18408890654667255299
12932764 1 17417798556949207526
13214271 11 18412542089901979037
13380535 76 18196368114056234245
14144814 61 18410290289935137362
14325111 11 18411698747055627108
15042514 8 18267305524430841327
15196674 1 18339360764942105422
15219456 202 18059299755451907095
16945 1 18340482378508302119
18522853 276 18411136952332357345
20510252 161 18272654519513153353
20645477 56 18131348626775188396
20645477 70 17488178193348642214
20871998 184 18272089383647984829
21029758 27 18261116321932701357
21267235 1 18409738373995552390
2297311 6 18272101495772517404
23402539 116 18341886424845091767
23463225 33 18409167688320559038
23557571 272 18271536333663018876
23559900 14 18200872856414028174
2748010 2 18197787609221439487
4214541 1 18410854326668492652
43471831 8 18261671471946282675
5104073 3 18338794516522230546
7364860 26 18196371644272022660
77779 3 18410856534402768252
9709674 26 18412267224906700358

>  <PUBCHEM_SHAPE_MULTIPOLES>  (1) 
268.28
8.81
1.71
0.68
8.64
0.47
0.05
-0.4
1.29
-1.68
-0.01
-0.3
-0.07
0.29

>  <PUBCHEM_SHAPE_SELFOVERLAP>  (1) 
540.316

>  <PUBCHEM_SHAPE_VOLUME>  (1) 
158.7

>  <PUBCHEM_COORDINATE_TYPE>  (1) 
2
5
10

$$$$
