3025
     RDKit          3D

 25 26  0  0  0  0  0  0  0  0999 V2000
    3.5524   -1.3311   -0.1336 O   0  0  0  0  0  0  0  0  0  0  0  0
   -1.6824    0.1783   -1.7485 O   0  0  0  0  0  0  0  0  0  0  0  0
   -5.3488   -1.4112    0.4884 N   0  0  0  0  0  0  0  0  0  0  0  0
   -1.6487   -1.1759    0.1335 N   0  0  0  0  0  0  0  0  0  0  0  0
    2.9167    0.8907    0.0711 N   0  0  0  0  0  0  0  0  0  0  0  0
   -4.0135   -0.8623    0.6866 C   0  0  0  0  0  0  0  0  0  0  0  0
   -2.9782   -1.7192   -0.0271 C   0  0  0  0  0  0  0  0  0  0  0  0
   -6.2640   -0.9305    1.5255 C   0  0  0  0  0  0  0  0  0  0  0  0
   -5.8588   -1.0619   -0.8390 C   0  0  0  0  0  0  0  0  0  0  0  0
    0.2796    0.1833   -0.4642 C   0  0  0  0  0  0  0  0  0  0  0  0
   -6.4232    0.5790    1.4605 C   0  0  0  0  0  0  0  0  0  0  0  0
   -7.2229   -1.6841   -1.0844 C   0  0  0  0  0  0  0  0  0  0  0  0
    0.6101    1.5235   -0.2225 C   0  0  0  0  0  0  0  0  0  0  0  0
   -1.0842   -0.2520   -0.7498 C   0  0  0  0  0  0  0  0  0  0  0  0
    1.9592    1.8371    0.0445 C   0  0  0  0  0  0  0  0  0  0  0  0
    1.2640   -0.7941   -0.4376 C   0  0  0  0  0  0  0  0  0  0  0  0
    5.8256   -2.0431    0.1224 C   0  0  0  0  0  0  0  0  0  0  0  0
    2.5560   -0.3911   -0.1674 C   0  0  0  0  0  0  0  0  0  0  0  0
    4.8654   -0.8622    0.1491 C   0  0  0  0  0  0  0  0  0  0  0  0
    7.2561   -1.6132    0.4346 C   0  0  0  0  0  0  0  0  0  0  0  0
   -0.3635    2.5367   -0.2423 C   0  0  0  0  0  0  0  0  0  0  0  0
    2.2870    3.1685    0.2846 C   0  0  0  0  0  0  0  0  0  0  0  0
   -0.0077    3.8601    0.0013 C   0  0  0  0  0  0  0  0  0  0  0  0
    1.3193    4.1761    0.2649 C   0  0  0  0  0  0  0  0  0  0  0  0
    8.2043   -2.8015    0.4494 C   0  0  0  0  0  0  0  0  0  0  0  0
  1 18  1  0
  1 19  1  0
  2 14  2  0
  3  6  1  0
  3  8  1  0
  3  9  1  0
  4  7  1  0
  4 14  1  0
  5 15  2  0
  5 18  1  0
  6  7  1  0
  8 11  1  0
  9 12  1  0
 10 13  2  0
 10 14  1  0
 10 16  1  0
 13 15  1  0
 13 21  1  0
 15 22  1  0
 16 18  2  0
 17 19  1  0
 17 20  1  0
 20 25  1  0
 21 23  2  0
 22 24  2  0
 23 24  1  0
M  END
>  <PUBCHEM_COMPOUND_CID>  (1) 
3025

>  <PUBCHEM_CONFORMER_RMSD>  (1) 
1

>  <PUBCHEM_CONFORMER_DIVERSEORDER>  (1) 
1
66
44
93
100
74
50
43
90
113
76
73
39
30
96
52
92
108
78
48
65
81
25
98
118
86
102
103
28
32
14
83
116
27
20
40
64
67
112
24
105
2
10
3
110
107
82
70
68
45
111
11
55
8
71
117
57
53
88
46
94
104
89
109
9
75
51
91
80
54
79
22
61
13
47
5
60
72
17
35
34
85
99
95
97
77
69
84
59
115
23
106
6
58
42
31
29
49
114
33
19
4
37
63
26
56
41
38
21
12
15
101
18
16
36
87
62
7

>  <PUBCHEM_MMFF94_PARTIAL_CHARGES>  (1) 
25
1 -0.36
10 0.09
14 0.54
15 0.31
16 -0.15
18 0.39
19 0.28
2 -0.57
21 -0.15
22 -0.15
23 -0.15
24 -0.15
3 -0.81
34 0.37
4 -0.73
43 0.15
48 0.15
49 0.15
5 -0.62
50 0.15
54 0.15
6 0.27
7 0.3
8 0.27
9 0.27

>  <PUBCHEM_EFFECTIVE_ROTOR_COUNT>  (1) 
11

>  <PUBCHEM_PHARMACOPHORE_FEATURES>  (1) 
6
1 2 acceptor
1 25 hydrophobe
1 3 cation
1 4 donor
6 13 15 21 22 23 24 rings
6 5 10 13 15 16 18 rings

>  <PUBCHEM_HEAVY_ATOM_COUNT>  (1) 
25

>  <PUBCHEM_ATOM_DEF_STEREO_COUNT>  (1) 
0

>  <PUBCHEM_ATOM_UDEF_STEREO_COUNT>  (1) 
0

>  <PUBCHEM_BOND_DEF_STEREO_COUNT>  (1) 
0

>  <PUBCHEM_BOND_UDEF_STEREO_COUNT>  (1) 
0

>  <PUBCHEM_ISOTOPIC_ATOM_COUNT>  (1) 
0

>  <PUBCHEM_COMPONENT_COUNT>  (1) 
1

>  <PUBCHEM_CACTVS_TAUTO_COUNT>  (1) 
2

>  <PUBCHEM_CONFORMER_ID>  (1) 
00000BD100000001

>  <PUBCHEM_MMFF94_ENERGY>  (1) 
56.9798

>  <PUBCHEM_FEATURE_SELFOVERLAP>  (1) 
30.477

>  <PUBCHEM_SHAPE_FINGERPRINT>  (1) 
10369192 42 10664100047449739763
10411042 1 18411133620028592412
12107183 9 18342465829045155315
12616971 3 17987533636187572971
12645989 146 18411415151008936815
12760667 363 18334575715791602762
13140716 1 18342174411251289880
13540713 4 18265309799315702860
13590594 115 18409735049738845001
13631057 29 18189332386727357098
13673619 4 18040152907294826214
13911852 28 18339077094841928967
14739800 52 17129858576564193193
14790565 3 17400369339324401549
15021287 119 18272365395616536959
15042514 8 18267306422389781252
15419008 145 18338530625764739225
15475509 84 18060147526257268817
15927050 60 17764312035177756414
16087824 20 18121780535332134541
16992752 21 18411147909843631550
17492 89 18050006885613128011
17980427 26 17767677626874683820
18006028 8 18409446977470555134
20157964 124 18196650912262615383
20832881 197 18333455356402849067
21033648 29 17532077462883562333
21267235 1 18410014296165345694
21304253 13 18342741801461903928
21792961 116 18114736024245692534
23559900 14 18265612259528170571
249057 25 17846221116088216995
3421961 26 18339079401550181008
437815 12 18335419062732175855
5104073 3 18197511808208016955
5219985 9 18409450271947438718
6371380 46 18187362143057138739
77188 2 18410572903453559396
8863177 126 17896611763421674707

>  <PUBCHEM_SHAPE_MULTIPOLES>  (1) 
487.81
18.8
4.14
1.06
0.75
5.48
0.04
-23.38
4.54
4.51
0.32
-1.86
-0.2
-0.94

>  <PUBCHEM_SHAPE_SELFOVERLAP>  (1) 
1004.049

>  <PUBCHEM_SHAPE_VOLUME>  (1) 
282.3

>  <PUBCHEM_COORDINATE_TYPE>  (1) 
2
5
10

$$$$
