30285
     RDKit          3D

 18 18  0  0  0  0  0  0  0  0999 V2000
    2.3594    0.2458    0.2664 O   0  0  0  0  0  0  0  0  0  0  0  0
   -1.8356   -1.7383   -0.8135 O   0  0  0  0  0  0  0  0  0  0  0  0
   -3.6864    1.7795   -0.5431 O   0  0  0  0  0  0  0  0  0  0  0  0
    5.1783    0.0025    0.3497 N   0  0  0  0  0  0  0  0  0  0  0  0
    4.4231   -0.1508   -0.8848 C   0  0  0  0  0  0  0  0  0  0  0  0
    3.0250   -0.6744   -0.5972 C   0  0  0  0  0  0  0  0  0  0  0  0
   -4.0742   -0.5404   -0.0160 C   0  0  0  0  0  0  0  0  0  0  0  0
   -1.7255    0.5537   -0.1174 C   0  0  0  0  0  0  0  0  0  0  0  0
   -5.4588   -0.1754    0.5194 C   0  0  0  0  0  0  0  0  0  0  0  0
   -3.2063    0.6871   -0.2496 C   0  0  0  0  0  0  0  0  0  0  0  0
    1.0081    0.3476    0.1398 C   0  0  0  0  0  0  0  0  0  0  0  0
   -1.1234   -0.6502   -0.4058 C   0  0  0  0  0  0  0  0  0  0  0  0
   -1.0147    1.6593    0.2949 C   0  0  0  0  0  0  0  0  0  0  0  0
    0.2614   -0.7548   -0.2757 C   0  0  0  0  0  0  0  0  0  0  0  0
    0.3701    1.5547    0.4252 C   0  0  0  0  0  0  0  0  0  0  0  0
    6.5110    0.5466    0.0777 C   0  0  0  0  0  0  0  0  0  0  0  0
    5.2891   -1.2782    1.0521 C   0  0  0  0  0  0  0  0  0  0  0  0
   -6.3007   -1.4141    0.7779 C   0  0  0  0  0  0  0  0  0  0  0  0
  1  6  1  0
  1 11  1  0
  2 12  1  0
  3 10  2  0
  4  5  1  0
  4 16  1  0
  4 17  1  0
  5  6  1  0
  7  9  1  0
  7 10  1  0
  8 10  1  0
  8 12  2  0
  8 13  1  0
  9 18  1  0
 11 14  2  0
 11 15  1  0
 12 14  1  0
 13 15  2  0
M  END
>  <PUBCHEM_COMPOUND_CID>  (1) 
30285

>  <PUBCHEM_CONFORMER_RMSD>  (1) 
0.8

>  <PUBCHEM_CONFORMER_DIVERSEORDER>  (1) 
196
70
193
91
17
189
55
53
109
154
194
108
184
121
104
122
23
190
116
60
36
47
107
59
115
158
106
86
147
192
110
57
143
20
65
2
45
181
129
32
29
54
19
88
191
197
159
135
198
182
74
62
174
119
169
153
112
168
166
185
111
41
162
188
66
8
186
83
24
199
187
77
144
63
58
171
61
157
46
26
97
123
151
89
12
96
133
156
10
39
48
98
84
136
100
148
103
27
124
75
141
30
93
18
25
9
82
79
128
114
28
118
15
43
175
127
51
56
11
73
142
34
6
3
177
42
125
130
139
113
172
155
179
140
72
44
52
90
95
138
120
78
7
80
4
117
21
126
1
81
173
14
176
64
195
13
68
67
99
85
131
49
37
102
33
40
163
101
16
71
161
180
165
35
105
183
160
94
167
76
5
31
149
178
152
134
170
50
22
38
132
164
145
69
92
150
146
87
137

>  <PUBCHEM_MMFF94_PARTIAL_CHARGES>  (1) 
20
1 -0.36
10 0.42
11 0.08
12 0.08
13 -0.15
14 -0.15
15 -0.15
16 0.27
17 0.27
2 -0.53
27 0.15
28 0.15
29 0.15
3 -0.57
39 0.45
4 -0.81
5 0.27
6 0.28
7 0.06
8 0.09

>  <PUBCHEM_EFFECTIVE_ROTOR_COUNT>  (1) 
7

>  <PUBCHEM_PHARMACOPHORE_FEATURES>  (1) 
6
1 1 acceptor
1 18 hydrophobe
1 2 donor
1 3 acceptor
1 4 cation
6 8 11 12 13 14 15 rings

>  <PUBCHEM_HEAVY_ATOM_COUNT>  (1) 
18

>  <PUBCHEM_ATOM_DEF_STEREO_COUNT>  (1) 
0

>  <PUBCHEM_ATOM_UDEF_STEREO_COUNT>  (1) 
0

>  <PUBCHEM_BOND_DEF_STEREO_COUNT>  (1) 
0

>  <PUBCHEM_BOND_UDEF_STEREO_COUNT>  (1) 
0

>  <PUBCHEM_ISOTOPIC_ATOM_COUNT>  (1) 
0

>  <PUBCHEM_COMPONENT_COUNT>  (1) 
1

>  <PUBCHEM_CACTVS_TAUTO_COUNT>  (1) 
9

>  <PUBCHEM_CONFORMER_ID>  (1) 
0000764D000000C4

>  <PUBCHEM_MMFF94_ENERGY>  (1) 
52.1354

>  <PUBCHEM_FEATURE_SELFOVERLAP>  (1) 
30.446

>  <PUBCHEM_SHAPE_FINGERPRINT>  (1) 
10968037 39 18342458162148567676
117890 112 12319740258486898619
12236239 1 18040433261854686936
12715332 25 17988643034323766143
12916748 109 18341616997346429092
13073987 5 18335416829718226424
13288520 33 18333733524908661189
13533116 47 18113333073463128666
13740256 8 18410295856444861659
13862211 1 18413385449759505135
1420 363 18413394232550686054
14251718 22 18186802482557529248
14251732 16 18260830431792647496
14251764 18 18131070480366542079
15048467 5 12463573967570521483
15375358 24 17847058857542828126
17492 89 18119806911812226442
17834076 25 15123792885746450046
19141452 34 17561362919727668807
200 152 14996280323165570335
20645477 56 18131064935458079694
20645477 70 16271653274549648782
21150785 3 17240776085940851974
21267235 1 18411989069548851542
21637258 2 17385998499010043451
22224240 67 17489590074196525663
2297311 6 18202292381359219764
23402539 116 18201991114629812477
23536379 177 17240481386036929188
23557571 272 17632305528051284188
23559900 14 18131071494690954806
34797466 226 17845946216633155636
3545911 37 18273216396315347342
4463277 17 18343023293681800033
465052 167 18263092149071181451
5104073 3 17986394395263249618
5374978 207 18272083886559292226
542803 24 13973964294400299030

>  <PUBCHEM_SHAPE_MULTIPOLES>  (1) 
347.84
14.7
1.56
0.86
6.24
0.21
0.03
-4.01
3
-1.04
0.07
0.26
-0.16
0.15

>  <PUBCHEM_SHAPE_SELFOVERLAP>  (1) 
703.863

>  <PUBCHEM_SHAPE_VOLUME>  (1) 
204.6

>  <PUBCHEM_COORDINATE_TYPE>  (1) 
2
5
10

$$$$
