30283
     RDKit          3D

 16 16  0  0  0  0  0  0  0  0999 V2000
   -1.4334    1.1044   -0.6167 O   0  0  0  0  0  0  0  0  0  0  0  0
    2.1114   -2.0767   -0.7376 O   0  0  0  0  0  0  0  0  0  0  0  0
    4.2862   -1.3535    0.6565 O   0  0  0  0  0  0  0  0  0  0  0  0
   -4.7206   -0.4330    0.0282 N   0  0  0  0  0  0  0  0  0  0  0  0
   -3.7085    0.6190   -0.0602 C   0  0  0  0  0  0  0  0  0  0  0  0
   -2.3799    0.0474   -0.5289 C   0  0  0  0  0  0  0  0  0  0  0  0
   -0.1231    0.7820   -0.3770 C   0  0  0  0  0  0  0  0  0  0  0  0
   -6.0070    0.1288    0.4390 C   0  0  0  0  0  0  0  0  0  0  0  0
   -4.2957   -1.4741    0.9633 C   0  0  0  0  0  0  0  0  0  0  0  0
    2.5359    0.1289    0.1056 C   0  0  0  0  0  0  0  0  0  0  0  0
    0.3380   -0.4939   -0.6808 C   0  0  0  0  0  0  0  0  0  0  0  0
    0.7320    1.7345    0.1655 C   0  0  0  0  0  0  0  0  0  0  0  0
    1.6721   -0.8217   -0.4385 C   0  0  0  0  0  0  0  0  0  0  0  0
    2.0658    1.4068    0.4077 C   0  0  0  0  0  0  0  0  0  0  0  0
    3.9311   -0.1935    0.3706 C   0  0  0  0  0  0  0  0  0  0  0  0
    4.9957    0.8947    0.3032 C   0  0  0  0  0  0  0  0  0  0  0  0
  1  6  1  0
  1  7  1  0
  2 13  1  0
  3 15  2  0
  4  5  1  0
  4  8  1  0
  4  9  1  0
  5  6  1  0
  7 11  2  0
  7 12  1  0
 10 13  2  0
 10 14  1  0
 10 15  1  0
 11 13  1  0
 12 14  2  0
 15 16  1  0
M  END
>  <PUBCHEM_COMPOUND_CID>  (1) 
30283

>  <PUBCHEM_CONFORMER_RMSD>  (1) 
0.6

>  <PUBCHEM_CONFORMER_DIVERSEORDER>  (1) 
8
13
50
127
84
90
17
119
101
95
96
6
59
40
16
31
66
10
30
87
29
107
3
34
28
112
69
23
77
126
118
32
116
12
83
64
128
27
4
65
61
100
14
63
22
45
39
115
117
37
35
108
72
103
68
74
44
85
111
102
48
26
49
94
2
104
110
19
36
76
46
62
125
97
75
33
58
92
9
51
79
71
109
18
5
53
91
57
7
55
20
106
52
56
1
15
82
86
41
88
122
67
93
43
60
89
11
47
78
81
24
98
42
120
25
73
123
54
38
124
21
121
70
114
80
113
105
99

>  <PUBCHEM_MMFF94_PARTIAL_CHARGES>  (1) 
20
1 -0.36
10 0.09
11 -0.15
12 -0.15
13 0.08
14 -0.15
15 0.42
16 0.06
2 -0.53
27 0.15
28 0.15
29 0.15
3 -0.57
33 0.45
4 -0.81
5 0.27
6 0.28
7 0.08
8 0.27
9 0.27

>  <PUBCHEM_EFFECTIVE_ROTOR_COUNT>  (1) 
5

>  <PUBCHEM_PHARMACOPHORE_FEATURES>  (1) 
5
1 1 acceptor
1 2 donor
1 3 acceptor
1 4 cation
6 7 10 11 12 13 14 rings

>  <PUBCHEM_HEAVY_ATOM_COUNT>  (1) 
16

>  <PUBCHEM_ATOM_DEF_STEREO_COUNT>  (1) 
0

>  <PUBCHEM_ATOM_UDEF_STEREO_COUNT>  (1) 
0

>  <PUBCHEM_BOND_DEF_STEREO_COUNT>  (1) 
0

>  <PUBCHEM_BOND_UDEF_STEREO_COUNT>  (1) 
0

>  <PUBCHEM_ISOTOPIC_ATOM_COUNT>  (1) 
0

>  <PUBCHEM_COMPONENT_COUNT>  (1) 
1

>  <PUBCHEM_CACTVS_TAUTO_COUNT>  (1) 
9

>  <PUBCHEM_CONFORMER_ID>  (1) 
0000764B00000008

>  <PUBCHEM_MMFF94_ENERGY>  (1) 
51.6229

>  <PUBCHEM_FEATURE_SELFOVERLAP>  (1) 
25.371

>  <PUBCHEM_SHAPE_FINGERPRINT>  (1) 
10354089 29 17561084713363150409
11796584 16 17385995122960092187
12032990 46 18339078190506313268
12236239 1 16917348138991227893
12251169 10 18131068251389162053
12596602 18 16630522972986030627
12670543 26 8862674537850581320
12815109 37 18260266352405141689
14252887 29 17917999343150292870
14341114 176 18411423907972219945
14386348 63 18260269646666338579
15048467 5 13398623979280052216
15375462 189 18271515434056633726
15527383 91 18342175583434112913
18186145 218 11025802011357049151
18785283 64 18118680161301561232
200 152 18130783473878038621
20261772 1 18202278130156623806
20279233 1 18335426768404489407
20645477 56 11024110950089884853
20645477 70 18058158441308379135
20724930 31 18260266351909483797
20871998 22 18200037226690520020
21267235 1 18340771447372476334
21503847 285 15123503740005719530
21637258 2 16371272352098791098
22224240 67 18201430419692496274
231179 274 10879994657284241892
23402539 116 14562803344419772343
23557571 272 17385436592528090133
26918003 58 18411982473159580025
2748010 2 17769646504549629340
29717793 49 13479124670977344090
33824 294 18411418384438899582
42 15 18410294714126109021
4340502 62 17458336473287933384
465052 167 18334858312097415802
4990 188 11602820181263636409
5104073 3 18268138778335133800
7495541 125 18040436637330067228

>  <PUBCHEM_SHAPE_MULTIPOLES>  (1) 
306.68
11.55
1.62
0.83
10.53
0.27
0.02
1.59
3.21
-0.79
0.04
0.13
0.14
0.57

>  <PUBCHEM_SHAPE_SELFOVERLAP>  (1) 
624.895

>  <PUBCHEM_SHAPE_VOLUME>  (1) 
180.2

>  <PUBCHEM_COORDINATE_TYPE>  (1) 
2
5
10

$$$$
