30301
     RDKit          3D

 19 19  0  0  0  0  0  0  0  0999 V2000
   -0.5483    1.0681   -0.9425 O   0  0  0  0  0  0  0  0  0  0  0  0
   -0.4230   -1.5554   -1.4942 O   0  0  0  0  0  0  0  0  0  0  0  0
    1.9939    0.0757   -0.1339 N   0  0  0  0  0  0  0  0  0  0  0  0
    1.7367   -0.1935    1.2803 C   0  0  0  0  0  0  0  0  0  0  0  0
    3.3647   -0.2950   -0.4838 C   0  0  0  0  0  0  0  0  0  0  0  0
    1.7524    1.4855   -0.4382 C   0  0  0  0  0  0  0  0  0  0  0  0
    2.6535    0.6563    2.1558 C   0  0  0  0  0  0  0  0  0  0  0  0
    1.9363   -1.6799    1.5588 C   0  0  0  0  0  0  0  0  0  0  0  0
    4.3595    0.5499    0.3070 C   0  0  0  0  0  0  0  0  0  0  0  0
    3.5702   -0.1214   -1.9853 C   0  0  0  0  0  0  0  0  0  0  0  0
    0.3109    1.8610   -0.1337 C   0  0  0  0  0  0  0  0  0  0  0  0
   -1.7763    0.7574   -0.4194 C   0  0  0  0  0  0  0  0  0  0  0  0
   -2.1486   -0.5686   -0.2245 C   0  0  0  0  0  0  0  0  0  0  0  0
   -2.6450    1.7918   -0.0866 C   0  0  0  0  0  0  0  0  0  0  0  0
   -3.4032   -0.8635    0.3090 C   0  0  0  0  0  0  0  0  0  0  0  0
   -3.8997    1.4968    0.4468 C   0  0  0  0  0  0  0  0  0  0  0  0
   -1.2499   -1.6618   -0.5680 C   0  0  0  0  0  0  0  0  0  0  0  0
   -4.2788    0.1690    0.6446 C   0  0  0  0  0  0  0  0  0  0  0  0
   -1.3051   -2.9722    0.2079 C   0  0  0  0  0  0  0  0  0  0  0  0
  1 11  1  0
  1 12  1  0
  2 17  2  0
  3  4  1  0
  3  5  1  0
  3  6  1  0
  4  7  1  0
  4  8  1  0
  5  9  1  0
  5 10  1  0
  6 11  1  0
 12 13  2  0
 12 14  1  0
 13 15  1  0
 13 17  1  0
 14 16  2  0
 15 18  2  0
 16 18  1  0
 17 19  1  0
M  END
>  <PUBCHEM_COMPOUND_CID>  (1) 
30301

>  <PUBCHEM_CONFORMER_RMSD>  (1) 
0.8

>  <PUBCHEM_CONFORMER_DIVERSEORDER>  (1) 
3
4
39
45
22
56
29
55
47
24
49
57
18
54
37
23
58
51
38
10
31
48
44
28
2
43
7
34
14
52
53
41
40
46
26
19
27
6
50
30
42
13
36
25
21
32
33
1
8
35
17
5
12
20
16
9
11
59
15

>  <PUBCHEM_MMFF94_PARTIAL_CHARGES>  (1) 
19
1 -0.36
11 0.28
12 0.08
13 0.09
14 -0.15
15 -0.15
16 -0.15
17 0.42
18 -0.15
19 0.06
2 -0.57
3 -0.81
38 0.15
39 0.15
4 0.27
40 0.15
41 0.15
5 0.27
6 0.27

>  <PUBCHEM_EFFECTIVE_ROTOR_COUNT>  (1) 
7

>  <PUBCHEM_PHARMACOPHORE_FEATURES>  (1) 
6
1 1 acceptor
1 2 acceptor
1 3 cation
3 4 7 8 hydrophobe
3 5 9 10 hydrophobe
6 12 13 14 15 16 18 rings

>  <PUBCHEM_HEAVY_ATOM_COUNT>  (1) 
19

>  <PUBCHEM_ATOM_DEF_STEREO_COUNT>  (1) 
0

>  <PUBCHEM_ATOM_UDEF_STEREO_COUNT>  (1) 
0

>  <PUBCHEM_BOND_DEF_STEREO_COUNT>  (1) 
0

>  <PUBCHEM_BOND_UDEF_STEREO_COUNT>  (1) 
0

>  <PUBCHEM_ISOTOPIC_ATOM_COUNT>  (1) 
0

>  <PUBCHEM_COMPONENT_COUNT>  (1) 
1

>  <PUBCHEM_CACTVS_TAUTO_COUNT>  (1) 
2

>  <PUBCHEM_CONFORMER_ID>  (1) 
0000765D00000003

>  <PUBCHEM_MMFF94_ENERGY>  (1) 
82.7359

>  <PUBCHEM_FEATURE_SELFOVERLAP>  (1) 
30.455

>  <PUBCHEM_SHAPE_FINGERPRINT>  (1) 
12011746 2 18408887321957159327
12251169 10 18408040723673426433
12500047 106 17703784855659420934
12553582 1 18187075174331582677
13134695 92 14692570988259100322
13140716 1 18119809368047423993
13221675 6 18260267459989791271
13538477 17 18187641461400772519
13544592 145 17988093201131771790
14178342 30 18193537064498343330
15295992 7 17203333333631323227
15309172 13 18409450254614640657
15375358 24 17847059987029685892
15375462 175 18268713801072416772
15375462 189 18040149608860370808
15775835 57 18335701619887417643
16752209 62 18409440384895852229
16945 1 18334846251681289109
17804303 29 18341342162136242981
17834072 14 8934710063792823014
1813 80 16951956251419062962
18186145 218 16917062235739685283
19422 9 17895197666554989240
20442098 301 18337947986678334065
20510252 161 18273217469667333489
20681677 155 18410859862807419288
22445834 79 18187077369249528289
2255824 54 17676777586006948076
23175994 123 16773250504399283564
23526113 38 17202773574933502780
23557571 272 17987229130557283498
23559900 14 18060703879493902196
23598288 3 17460852039211080404
2637199 183 18114479893606978414
2748010 2 18047738313487057903
465052 167 18041857198322083523
474 4 17170408561296893916
5161694 15 17489875937954209158
7495541 125 11383243333474745533
81228 2 17982993825005335463
9981440 41 12028353227850349454

>  <PUBCHEM_SHAPE_MULTIPOLES>  (1) 
374.29
7.56
2.29
1.52
0.13
1.05
0.2
-1.52
0.67
1.32
0.01
-1.69
0.2
-0.25

>  <PUBCHEM_SHAPE_SELFOVERLAP>  (1) 
760.071

>  <PUBCHEM_SHAPE_VOLUME>  (1) 
221.1

>  <PUBCHEM_COORDINATE_TYPE>  (1) 
2
5
10

$$$$
