30319
     RDKit          3D

 14 13  0  0  0  0  0  0  0  0999 V2000
   -1.3380   -2.7511    1.2184 S   0  0  0  0  0  0  0  0  0  0  0  0
   -0.2788   -1.6861   -0.2514 P   0  0  0  0  0  0  0  0  0  0  0  0
   -1.1043   -0.3624   -0.7089 O   0  0  0  0  0  0  0  0  0  0  0  0
    1.0685   -1.0600    0.4097 O   0  0  0  0  0  0  0  0  0  0  0  0
    0.0266   -2.5822   -1.4238 O   0  0  0  0  0  0  0  0  0  0  0  0
   -2.2386    1.7264   -0.4463 C   0  0  0  0  0  0  0  0  0  0  0  0
    3.0959    0.2084    0.4437 C   0  0  0  0  0  0  0  0  0  0  0  0
   -1.4854    0.6046    0.2544 C   0  0  0  0  0  0  0  0  0  0  0  0
    1.9126   -0.2540   -0.3947 C   0  0  0  0  0  0  0  0  0  0  0  0
   -2.6670    2.8153    0.5333 C   0  0  0  0  0  0  0  0  0  0  0  0
    4.0416    1.0976   -0.3585 C   0  0  0  0  0  0  0  0  0  0  0  0
   -3.3809    3.9542   -0.1769 C   0  0  0  0  0  0  0  0  0  0  0  0
    5.1989    1.5922    0.4943 C   0  0  0  0  0  0  0  0  0  0  0  0
   -2.8512   -3.3028    0.4066 C   0  0  0  0  0  0  0  0  0  0  0  0
  1  2  1  0
  1 14  1  0
  2  3  1  0
  2  4  1  0
  2  5  2  0
  3  8  1  0
  4  9  1  0
  6  8  1  0
  6 10  1  0
  7  9  1  0
  7 11  1  0
 10 12  1  0
 11 13  1  0
M  END
>  <PUBCHEM_COMPOUND_CID>  (1) 
30319

>  <PUBCHEM_CONFORMER_RMSD>  (1) 
0.8

>  <PUBCHEM_CONFORMER_DIVERSEORDER>  (1) 
1
358
340
363
375
43
274
339
80
359
105
281
311
224
157
54
254
63
131
229
371
79
353
38
159
370
356
373
226
361
298
7
208
242
56
276
171
185
239
111
337
116
31
293
332
352
77
256
278
268
355
374
260
26
328
325
106
123
66
343
186
204
240
270
300
344
366
133
70
213
222
243
341
92
379
161
387
94
75
110
194
195
330
345
360
145
390
236
58
155
296
5
303
210
146
190
255
290
364
160
147
109
245
323
55
202
354
272
4
2
318
172
310
119
372
152
326
277
65
37
143
253
203
313
295
329
162
287
51
68
225
76
331
262
101
265
248
206
62
228
383
386
259
112
348
44
232
114
151
136
52
71
174
368
347
250
182
252
191
198
192
205
181
3
102
211
291
74
321
35
137
297
246
20
342
16
93
156
215
138
384
199
49
201
301
351
170
121
334
115
148
122
319
167
180
223
12
107
275
305
314
132
216
169
257
6
271
385
197
128
235
100
95
285
220
378
53
338
154
264
9
8
292
59
178
184
286
163
57
304
218
200
315
382
238
176
309
263
175
196
187
61
269
46
149
369
283
87
273
280
307
72
21
221
183
336
127
189
214
98
10
320
158
266
89
78
261
64
126
350
282
308
108
84
377
227
322
90
144
244
333
88
389
36
39
302
45
327
247
349
82
219
142
357
153
164
324
284
60
258
231
249
233
40
113
120
41
367
209
150
104
289
237
380
207
86
14
85
11
365
251
241
48
288
140
335
129
388
50
117
279
312
42
30
13
234
83
124
141
103
306
130
34
376
23
346
17
81
362
212
47
19
317
267
69
32
73
67
29
134
188
217
33
99
18
168
316
177
230
25
173
28
96
166
135
24
125
27
139
165
22
294
118
97
91
193
15
179
381
299

>  <PUBCHEM_MMFF94_PARTIAL_CHARGES>  (1) 
8
1 -0.48
14 0.23
2 1.49
3 -0.55
4 -0.55
5 -0.7
8 0.28
9 0.28

>  <PUBCHEM_EFFECTIVE_ROTOR_COUNT>  (1) 
9

>  <PUBCHEM_PHARMACOPHORE_FEATURES>  (1) 
3
1 12 hydrophobe
1 13 hydrophobe
1 5 acceptor

>  <PUBCHEM_HEAVY_ATOM_COUNT>  (1) 
14

>  <PUBCHEM_ATOM_DEF_STEREO_COUNT>  (1) 
0

>  <PUBCHEM_ATOM_UDEF_STEREO_COUNT>  (1) 
0

>  <PUBCHEM_BOND_DEF_STEREO_COUNT>  (1) 
0

>  <PUBCHEM_BOND_UDEF_STEREO_COUNT>  (1) 
0

>  <PUBCHEM_ISOTOPIC_ATOM_COUNT>  (1) 
0

>  <PUBCHEM_COMPONENT_COUNT>  (1) 
1

>  <PUBCHEM_CACTVS_TAUTO_COUNT>  (1) 
1

>  <PUBCHEM_CONFORMER_ID>  (1) 
0000766F00000001

>  <PUBCHEM_MMFF94_ENERGY>  (1) 
-0.8204

>  <PUBCHEM_FEATURE_SELFOVERLAP>  (1) 
15.223

>  <PUBCHEM_SHAPE_FINGERPRINT>  (1) 
11357001 24 18263645232856827058
122479 349 18410573955551131104
12788726 201 18189604106989424091
13955234 65 17470736503401733841
14123255 52 18339922593735411380
1741750 31 18412823569263405576
17834072 32 18340205202805261656
20600515 1 17753341060120714399
20605781 55 18265338304685754089
20645477 56 17845376720959047080
20671657 1 17762904260276876845
21041028 32 17975417133159120796
21339142 126 18126284383687228390
21524375 3 18267852896231073982
22182937 141 18341618130865004344
2255824 54 17547569280469808863
23402539 116 18053943132602629566
23558518 356 18260835886095736434
31174 14 17181374699466944589
3250762 1 18269011798773062695
68521 5 18265617769623155331
81228 2 18115886229040036739

>  <PUBCHEM_SHAPE_MULTIPOLES>  (1) 
278.2
7.6
5.03
0.99
11.76
1.48
-0.05
6.62
1.18
-8.19
0.44
-0.09
-0.53
0.65

>  <PUBCHEM_SHAPE_SELFOVERLAP>  (1) 
474.733

>  <PUBCHEM_SHAPE_VOLUME>  (1) 
187.8

>  <PUBCHEM_COORDINATE_TYPE>  (1) 
2
5
10

$$$$
