30315
     RDKit          3D

  9  8  0  0  0  0  0  0  0  0999 V2000
   -0.2647   -0.1239   -0.2833 N   0  0  0  0  0  0  0  0  0  0  0  0
   -2.7532   -0.0701   -0.3288 C   0  0  0  0  0  0  0  0  0  0  0  0
   -1.4508    0.6352    0.0867 C   0  0  0  0  0  0  0  0  0  0  0  0
    0.9454    0.5412    0.1848 C   0  0  0  0  0  0  0  0  0  0  0  0
    2.1806   -0.2711   -0.2009 C   0  0  0  0  0  0  0  0  0  0  0  0
    3.4634    0.4202    0.2625 C   0  0  0  0  0  0  0  0  0  0  0  0
   -2.8144   -1.4601    0.3101 C   0  0  0  0  0  0  0  0  0  0  0  0
   -4.0018    0.7281    0.0553 C   0  0  0  0  0  0  0  0  0  0  0  0
    4.6955   -0.3995   -0.0865 C   0  0  0  0  0  0  0  0  0  0  0  0
  1  3  1  0
  1  4  1  0
  2  3  1  0
  2  7  1  0
  2  8  1  0
  4  5  1  0
  5  6  1  0
  6  9  1  0
M  END
>  <PUBCHEM_COMPOUND_CID>  (1) 
30315

>  <PUBCHEM_CONFORMER_RMSD>  (1) 
0.6

>  <PUBCHEM_CONFORMER_DIVERSEORDER>  (1) 
1
23
28
15
25
7
12
4
16
19
29
24
2
20
17
27
14
10
21
3
8
22
9
18
26
5
11
6
13

>  <PUBCHEM_MMFF94_PARTIAL_CHARGES>  (1) 
4
1 -0.9
17 0.36
3 0.27
4 0.27

>  <PUBCHEM_EFFECTIVE_ROTOR_COUNT>  (1) 
5

>  <PUBCHEM_PHARMACOPHORE_FEATURES>  (1) 
4
1 1 cation
1 1 donor
1 9 hydrophobe
3 2 7 8 hydrophobe

>  <PUBCHEM_HEAVY_ATOM_COUNT>  (1) 
9

>  <PUBCHEM_ATOM_DEF_STEREO_COUNT>  (1) 
0

>  <PUBCHEM_ATOM_UDEF_STEREO_COUNT>  (1) 
0

>  <PUBCHEM_BOND_DEF_STEREO_COUNT>  (1) 
0

>  <PUBCHEM_BOND_UDEF_STEREO_COUNT>  (1) 
0

>  <PUBCHEM_ISOTOPIC_ATOM_COUNT>  (1) 
0

>  <PUBCHEM_COMPONENT_COUNT>  (1) 
1

>  <PUBCHEM_CACTVS_TAUTO_COUNT>  (1) 
1

>  <PUBCHEM_CONFORMER_ID>  (1) 
0000766B00000001

>  <PUBCHEM_MMFF94_ENERGY>  (1) 
-3.3036

>  <PUBCHEM_FEATURE_SELFOVERLAP>  (1) 
20.297

>  <PUBCHEM_SHAPE_FINGERPRINT>  (1) 
11062470 55 18411981351471580020
124424 183 18060698386061646249
12932764 1 16950549013262020149
14123238 8 10809348836429566392
14325111 11 18410574011068960972
17834076 25 18411419492455669685
190213 19 17989489623695628536
20279233 1 17917717898153989735
20645464 45 18273221898041943807
20645477 70 17274545300111366414
20719005 15 18342457045172130015
20828058 44 18410291419569707906
21119208 17 17894911819301493364
21293036 1 12396300357019724524
22485316 2 18407755937255766658

>  <PUBCHEM_SHAPE_MULTIPOLES>  (1) 
180.23
8.98
1.04
0.66
5.07
0.27
-0.01
0.45
-0.1
-0.79
-0.09
-0.02
0.01
0.19

>  <PUBCHEM_SHAPE_SELFOVERLAP>  (1) 
314.34

>  <PUBCHEM_SHAPE_VOLUME>  (1) 
119.5

>  <PUBCHEM_COORDINATE_TYPE>  (1) 
2
5
10

$$$$
