30312
     RDKit          3D

 20 21  0  0  0  0  0  0  0  0999 V2000
   -4.5063    0.6963   -1.1381 O   0  0  0  0  0  0  0  0  0  0  0  0
    0.1333   -1.1251    0.9782 O   0  0  0  0  0  0  0  0  0  0  0  0
    4.6659   -1.1077   -0.4902 O   0  0  0  0  0  0  0  0  0  0  0  0
   -0.8290    1.2982    1.6071 O   0  0  0  0  0  0  0  0  0  0  0  0
   -2.5604   -0.9540    0.1236 N   0  0  0  0  0  0  0  0  0  0  0  0
   -2.3998   -0.5004   -1.2648 C   0  0  0  0  0  0  0  0  0  0  0  0
   -3.9879   -1.0561    0.4580 C   0  0  0  0  0  0  0  0  0  0  0  0
   -1.8858   -2.2334    0.3329 C   0  0  0  0  0  0  0  0  0  0  0  0
   -3.1218    0.8295   -1.4616 C   0  0  0  0  0  0  0  0  0  0  0  0
   -4.6730    0.2865    0.2198 C   0  0  0  0  0  0  0  0  0  0  0  0
   -0.3917   -2.0991    0.0857 C   0  0  0  0  0  0  0  0  0  0  0  0
    1.2322   -0.4254    0.5525 C   0  0  0  0  0  0  0  0  0  0  0  0
    1.1854    0.9592    0.4279 C   0  0  0  0  0  0  0  0  0  0  0  0
    2.3956   -1.1239    0.2465 C   0  0  0  0  0  0  0  0  0  0  0  0
    2.3144    1.6530   -0.0073 C   0  0  0  0  0  0  0  0  0  0  0  0
    3.5246   -0.4300   -0.1888 C   0  0  0  0  0  0  0  0  0  0  0  0
    3.4841    0.9585   -0.3157 C   0  0  0  0  0  0  0  0  0  0  0  0
   -0.0257    1.7033    0.7451 C   0  0  0  0  0  0  0  0  0  0  0  0
   -0.3366    3.0067    0.0195 C   0  0  0  0  0  0  0  0  0  0  0  0
    5.7825   -0.3359   -0.9299 C   0  0  0  0  0  0  0  0  0  0  0  0
  1  9  1  0
  1 10  1  0
  2 11  1  0
  2 12  1  0
  3 16  1  0
  3 20  1  0
  4 18  2  0
  5  6  1  0
  5  7  1  0
  5  8  1  0
  6  9  1  0
  7 10  1  0
  8 11  1  0
 12 13  2  0
 12 14  1  0
 13 15  1  0
 13 18  1  0
 14 16  2  0
 15 17  2  0
 16 17  1  0
 18 19  1  0
M  END
>  <PUBCHEM_COMPOUND_CID>  (1) 
30312

>  <PUBCHEM_CONFORMER_RMSD>  (1) 
0.8

>  <PUBCHEM_CONFORMER_DIVERSEORDER>  (1) 
3
102
37
156
36
87
28
133
106
132
78
89
122
59
95
97
126
155
9
136
46
140
15
21
139
67
138
26
42
110
24
124
75
98
107
57
16
145
45
150
123
79
47
4
11
103
88
91
119
6
117
1
121
55
34
149
120
13
135
154
32
43
35
52
39
20
56
83
27
71
134
2
100
148
61
101
116
86
18
137
105
68
44
19
125
33
131
111
152
141
23
96
70
85
109
64
146
104
93
73
14
81
12
147
22
29
128
129
80
112
53
113
7
51
54
115
90
92
127
17
157
153
151
72
48
108
63
40
65
50
69
142
25
118
82
144
31
94
60
74
49
10
62
66
84
130
77
8
143
114
41
58
30
76
5
99
38

>  <PUBCHEM_MMFF94_PARTIAL_CHARGES>  (1) 
23
1 -0.56
10 0.28
11 0.28
12 0.08
13 0.09
14 -0.15
15 -0.15
16 0.08
17 -0.15
18 0.42
19 0.06
2 -0.36
20 0.28
3 -0.36
33 0.15
34 0.15
35 0.15
4 -0.57
5 -0.81
6 0.27
7 0.27
8 0.27
9 0.28

>  <PUBCHEM_EFFECTIVE_ROTOR_COUNT>  (1) 
7.2

>  <PUBCHEM_PHARMACOPHORE_FEATURES>  (1) 
7
1 1 acceptor
1 2 acceptor
1 3 acceptor
1 4 acceptor
1 5 cation
6 1 5 6 7 9 10 rings
6 12 13 14 15 16 17 rings

>  <PUBCHEM_HEAVY_ATOM_COUNT>  (1) 
20

>  <PUBCHEM_ATOM_DEF_STEREO_COUNT>  (1) 
0

>  <PUBCHEM_ATOM_UDEF_STEREO_COUNT>  (1) 
0

>  <PUBCHEM_BOND_DEF_STEREO_COUNT>  (1) 
0

>  <PUBCHEM_BOND_UDEF_STEREO_COUNT>  (1) 
0

>  <PUBCHEM_ISOTOPIC_ATOM_COUNT>  (1) 
0

>  <PUBCHEM_COMPONENT_COUNT>  (1) 
1

>  <PUBCHEM_CACTVS_TAUTO_COUNT>  (1) 
2

>  <PUBCHEM_CONFORMER_ID>  (1) 
0000766800000003

>  <PUBCHEM_MMFF94_ENERGY>  (1) 
64.4614

>  <PUBCHEM_FEATURE_SELFOVERLAP>  (1) 
35.53

>  <PUBCHEM_SHAPE_FINGERPRINT>  (1) 
10165383 225 18040715836348410847
10366900 7 17603862356120237075
104564 63 18200591368003958441
10498660 4 17532351184911398063
10759866 29 17532082813352613810
116883 192 18271535204176017822
12011746 2 18259977194117216543
12035759 4 18334575690374856922
12623949 98 17621067646873549767
12788726 201 18270397166459845568
12954195 1 18199198282761240580
13134695 92 17489024976063098472
13583140 156 13829573047597164914
14251752 14 17894630323662569934
14341114 328 14129053686674241285
15099037 51 18412265038488648318
15196674 1 18339081596009261995
16752209 62 18341888533420689906
17357779 13 18202566159648794006
17834072 8 18411419509609165311
17959699 21 17822580516273632524
18186145 218 18335413595101469650
19862831 5 18411133640886068434
200 152 17846501422211331032
20233049 118 18333444348274847607
20775438 99 16763335344974900055
20871999 31 18340209583687221188
21634736 98 18411697703552933332
221357 26 18410287051846430935
22854114 59 7997974574188801438
23175994 123 18342462555768197093
23402539 116 18202848733936782686
23559900 14 18270680987079627920
23566358 2 18124597479320276526
238 59 17758629556921241389
24859131 72 10879724181818990093
25 1 18335975403000025467
2748010 2 18196090173616055762
3084891 72 18411132515737155530
3084891 8 18199753531247787998
3323516 105 18334292114964082825
3524813 1 18186791479257460221
5283173 99 18333445452767836220
6287921 2 17608937830289804581
7226269 152 18335686270291759944
9882013 296 10665223743985039735

>  <PUBCHEM_SHAPE_MULTIPOLES>  (1) 
383.13
9.44
2.41
1.12
3.54
0.74
-0.13
-1.61
-3.36
-0.37
0.33
-0.57
0.19
0.55

>  <PUBCHEM_SHAPE_SELFOVERLAP>  (1) 
792.059

>  <PUBCHEM_SHAPE_VOLUME>  (1) 
220.4

>  <PUBCHEM_COORDINATE_TYPE>  (1) 
2
5
10

$$$$
