30321
     RDKit          3D

 21 21  0  0  0  0  0  0  0  0999 V2000
   -0.5764    3.6342   -1.2230 O   0  0  0  0  0  0  0  0  0  0  0  0
   -0.0264    3.8931    0.9672 O   0  0  0  0  0  0  0  0  0  0  0  0
    4.3002   -1.9624    0.2586 O   0  0  0  0  0  0  0  0  0  0  0  0
   -3.4058   -1.5529   -1.4163 O   0  0  0  0  0  0  0  0  0  0  0  0
    2.2965   -0.9936   -0.5246 N   0  0  0  0  0  0  0  0  0  0  0  0
   -2.3883   -1.1898    0.6781 N   0  0  0  0  0  0  0  0  0  0  0  0
    1.0908   -0.3437   -0.2355 C   0  0  0  0  0  0  0  0  0  0  0  0
   -0.0461   -1.0895    0.0766 C   0  0  0  0  0  0  0  0  0  0  0  0
    1.0261    1.0495   -0.2591 C   0  0  0  0  0  0  0  0  0  0  0  0
   -1.2474   -0.4418    0.3650 C   0  0  0  0  0  0  0  0  0  0  0  0
   -1.3118    0.9514    0.3413 C   0  0  0  0  0  0  0  0  0  0  0  0
   -0.1751    1.6971    0.0294 C   0  0  0  0  0  0  0  0  0  0  0  0
    0.0229   -2.5859    0.1014 C   0  0  0  0  0  0  0  0  0  0  0  0
    2.2469    1.8508   -0.5938 C   0  0  0  0  0  0  0  0  0  0  0  0
   -2.6018    1.6474    0.6506 C   0  0  0  0  0  0  0  0  0  0  0  0
    2.5375   -1.4463   -1.9275 C   0  0  0  0  0  0  0  0  0  0  0  0
   -0.2426    3.1552    0.0044 C   0  0  0  0  0  0  0  0  0  0  0  0
    3.2683   -1.3234    0.4789 C   0  0  0  0  0  0  0  0  0  0  0  0
   -3.3626   -1.6805   -0.1970 C   0  0  0  0  0  0  0  0  0  0  0  0
    3.0319   -0.8270    1.8870 C   0  0  0  0  0  0  0  0  0  0  0  0
   -4.4368   -2.4419    0.5383 C   0  0  0  0  0  0  0  0  0  0  0  0
  1 17  1  0
  2 17  2  0
  3 18  2  0
  4 19  2  0
  5  7  1  0
  5 16  1  0
  5 18  1  0
  6 10  1  0
  6 19  1  0
  7  8  2  0
  7  9  1  0
  8 10  1  0
  8 13  1  0
  9 12  2  0
  9 14  1  0
 10 11  2  0
 11 12  1  0
 11 15  1  0
 12 17  1  0
 18 20  1  0
 19 21  1  0
M  END
>  <PUBCHEM_COMPOUND_CID>  (1) 
30321

>  <PUBCHEM_CONFORMER_RMSD>  (1) 
0.8

>  <PUBCHEM_CONFORMER_DIVERSEORDER>  (1) 
1
8
6
7
4
5
3
2

>  <PUBCHEM_MMFF94_PARTIAL_CHARGES>  (1) 
23
1 -0.65
10 0.12
11 -0.14
12 0.09
13 0.14
14 0.14
15 0.14
16 0.3
17 0.63
18 0.57
19 0.57
2 -0.57
20 0.06
21 0.06
3 -0.57
31 0.37
4 -0.57
41 0.5
5 -0.48
6 -0.55
7 0.12
8 -0.14
9 -0.14

>  <PUBCHEM_EFFECTIVE_ROTOR_COUNT>  (1) 
5

>  <PUBCHEM_PHARMACOPHORE_FEATURES>  (1) 
7
1 1 acceptor
1 2 acceptor
1 3 acceptor
1 4 acceptor
1 6 donor
3 1 2 17 anion
6 7 8 9 10 11 12 rings

>  <PUBCHEM_HEAVY_ATOM_COUNT>  (1) 
21

>  <PUBCHEM_ATOM_DEF_STEREO_COUNT>  (1) 
0

>  <PUBCHEM_ATOM_UDEF_STEREO_COUNT>  (1) 
0

>  <PUBCHEM_BOND_DEF_STEREO_COUNT>  (1) 
0

>  <PUBCHEM_BOND_UDEF_STEREO_COUNT>  (1) 
0

>  <PUBCHEM_ISOTOPIC_ATOM_COUNT>  (1) 
0

>  <PUBCHEM_COMPONENT_COUNT>  (1) 
1

>  <PUBCHEM_CACTVS_TAUTO_COUNT>  (1) 
2

>  <PUBCHEM_CONFORMER_ID>  (1) 
0000767100000001

>  <PUBCHEM_MMFF94_ENERGY>  (1) 
113.729

>  <PUBCHEM_FEATURE_SELFOVERLAP>  (1) 
35.58

>  <PUBCHEM_SHAPE_FINGERPRINT>  (1) 
10411042 1 18410296921106842163
10967382 1 18122914397331857401
10989021 7 18411421751830065523
1100329 8 18338521833386136017
11578080 2 17604408782849031412
12363563 72 18408887351600450251
12553582 1 18337971037858008643
12730499 353 17687188999555772851
13083527 12 18125416847110334587
13134695 92 18266728246354978151
13140716 1 18411424977202902953
14178342 30 18268147543952109722
14181834 199 18049711120999888895
15042514 8 18266184924576386995
16945 1 18121790425818000820
1813 80 18342751740280217719
20510252 161 17909830929681713608
20600515 1 18271811267109443922
20645477 70 17980485886506768823
20671657 53 18409167748809173995
20739085 24 18265920075438853523
20905425 154 18411143566914712052
21041028 32 18411987983486576115
21304303 282 17324319001668257109
21452121 199 18409161143043769936
21501502 16 18410584993158171888
21524375 3 17326060550761340305
22112679 90 18339935847893152137
23184049 29 18410014295405430508
2334 1 18338808904272488993
23402539 116 18341886381563589846
23419403 2 17830692716672834092
23526113 38 17751360801255856403
23557571 272 18200308801852132442
23559900 14 17983305833374279534
257057 1 18410007749627468529
2748010 2 18411144644703303949
3091708 16 9208987671789837929
458136 41 17542519670287505153
6442390 28 17406852686893584257
7364860 26 18053671557340328529
81228 2 18267311919472822329
9841814 1 18263365957104072659

>  <PUBCHEM_SHAPE_MULTIPOLES>  (1) 
398.73
6
4.15
1.25
2.09
4.12
0.13
-6.18
-0.48
0.68
0.09
-0.7
-0.25
-0.29

>  <PUBCHEM_SHAPE_SELFOVERLAP>  (1) 
829.532

>  <PUBCHEM_SHAPE_VOLUME>  (1) 
229.3

>  <PUBCHEM_COORDINATE_TYPE>  (1) 
2
5
10

$$$$
