30324
     RDKit          3D

 15 14  0  0  0  0  0  0  0  0999 V2000
   -5.1245   -0.0524    0.0015 Si  0  0  0  0  0  4  0  0  0  0  0  0
    5.1245   -0.0527   -0.0015 Si  0  0  0  0  0  4  0  0  0  0  0  0
   -3.5903    0.6270   -0.0149 O   0  0  0  0  0  0  0  0  0  0  0  0
    3.5916    0.6280    0.0149 O   0  0  0  0  0  0  0  0  0  0  0  0
   -0.0008   -0.1737    0.0000 N   0  0  0  0  0  0  0  0  0  0  0  0
   -2.4482   -0.2169   -0.0070 C   0  0  0  0  0  0  0  0  0  0  0  0
    2.4480   -0.2164    0.0070 C   0  0  0  0  0  0  0  0  0  0  0  0
   -1.1998    0.6506   -0.0250 C   0  0  0  0  0  0  0  0  0  0  0  0
    1.1998    0.6514    0.0248 C   0  0  0  0  0  0  0  0  0  0  0  0
   -6.4259    1.3101   -0.0136 C   0  0  0  0  0  0  0  0  0  0  0  0
   -5.3913   -1.0934    1.5454 C   0  0  0  0  0  0  0  0  0  0  0  0
   -5.4035   -1.1387   -1.5085 C   0  0  0  0  0  0  0  0  0  0  0  0
    6.4262    1.3096    0.0134 C   0  0  0  0  0  0  0  0  0  0  0  0
    5.3910   -1.0939   -1.5452 C   0  0  0  0  0  0  0  0  0  0  0  0
    5.4031   -1.1387    1.5087 C   0  0  0  0  0  0  0  0  0  0  0  0
  1  3  1  0
  1 10  1  0
  1 11  1  0
  1 12  1  0
  2  4  1  0
  2 13  1  0
  2 14  1  0
  2 15  1  0
  3  6  1  0
  4  7  1  0
  5  8  1  0
  5  9  1  0
  6  8  1  0
  7  9  1  0
M  END
>  <PUBCHEM_COMPOUND_CID>  (1) 
30324

>  <PUBCHEM_CONFORMER_RMSD>  (1) 
0.8

>  <PUBCHEM_CONFORMER_DIVERSEORDER>  (1) 
2
89
17
57
100
102
4
82
86
49
77
93
1
39
60
101
3
94
69
97
91
65
90
62
71
92
78
75
68
63
61
87
80
73
98
14
85
66
81
95
64
58
84
6
79
13
55
48
59
72
74
11
88
5
67
47
56
54
9
83
70
10
44
99
8
40
33
76
38
96
12
34
7
30
42
52
29
46
53
35
23
37
20
50
36
16
31
25
51
43
45
32
26
18
27
41
28
24
15
22
19
21

>  <PUBCHEM_MMFF94_PARTIAL_CHARGES>  (1) 
16
1 0.54
10 -0.08
11 -0.08
12 -0.08
13 -0.08
14 -0.08
15 -0.08
2 0.54
3 -0.58
4 -0.58
42 0.36
5 -0.9
6 0.28
7 0.28
8 0.27
9 0.27

>  <PUBCHEM_EFFECTIVE_ROTOR_COUNT>  (1) 
8

>  <PUBCHEM_PHARMACOPHORE_FEATURES>  (1) 
2
1 5 cation
1 5 donor

>  <PUBCHEM_HEAVY_ATOM_COUNT>  (1) 
15

>  <PUBCHEM_ATOM_DEF_STEREO_COUNT>  (1) 
0

>  <PUBCHEM_ATOM_UDEF_STEREO_COUNT>  (1) 
0

>  <PUBCHEM_BOND_DEF_STEREO_COUNT>  (1) 
0

>  <PUBCHEM_BOND_UDEF_STEREO_COUNT>  (1) 
0

>  <PUBCHEM_ISOTOPIC_ATOM_COUNT>  (1) 
0

>  <PUBCHEM_COMPONENT_COUNT>  (1) 
1

>  <PUBCHEM_CACTVS_TAUTO_COUNT>  (1) 
1

>  <PUBCHEM_CONFORMER_ID>  (1) 
0000767400000002

>  <PUBCHEM_MMFF94_ENERGY>  (1) 
4.3448

>  <PUBCHEM_FEATURE_SELFOVERLAP>  (1) 
10.148

>  <PUBCHEM_SHAPE_FINGERPRINT>  (1) 
11315181 36 18342457059064847361
12091667 2 18413108377282255433
12596602 18 15697999643181508434
13533116 47 17822567214876000466
1420 363 18334299772774558227
14251732 16 18113902705768230312
14251752 14 18188484684230834477
15183329 4 18334289864216577439
15716309 27 18272934929596398075
17093844 174 18342453747402267825
17834072 33 18202280324995480228
17834076 25 7925913681478827021
18927931 339 18334862727803714119
19489759 90 14261353544752893595
20281389 69 17822290150298290261
20645477 70 17846505782178396822
220451 1 16877664552246717835
23035841 295 17313104142532463593
23081809 10 18408602565293105421
23402539 116 18343578547633984829
23536379 177 17894348865074411801
23559900 14 17822290244782237425
42788 4 18410573985151620037
4463277 17 18410575084663533632
542803 24 14490474192205038486
57483677 66 17846778503046413398

>  <PUBCHEM_SHAPE_MULTIPOLES>  (1) 
328.4
21.45
1.3
1.26
0
0.01
0
-0.49
0
0
0
0
-0.65
0

>  <PUBCHEM_SHAPE_SELFOVERLAP>  (1) 
565.14

>  <PUBCHEM_SHAPE_VOLUME>  (1) 
219.3

>  <PUBCHEM_COORDINATE_TYPE>  (1) 
2
5
10

$$$$
