30331
     RDKit          3D

 17 17  0  0  1  0  0  0  0  0999 V2000
   -2.8826    1.7125   -1.8166 Cl  0  0  0  0  0  0  0  0  0  0  0  0
   -4.3017   -0.5935   -0.7865 Cl  0  0  0  0  0  0  0  0  0  0  0  0
   -3.6648    1.6235    0.9887 Cl  0  0  0  0  0  0  0  0  0  0  0  0
    3.1863   -2.0594   -1.1029 Cl  0  0  0  0  0  0  0  0  0  0  0  0
    5.1841    0.2453   -0.0226 Cl  0  0  0  0  0  0  0  0  0  0  0  0
   -1.2102   -2.9436    0.1175 O   0  0  0  0  0  0  0  0  0  0  0  0
   -0.6924    0.9763    0.2410 N   0  0  0  0  0  0  0  0  0  0  0  0
   -1.7984   -0.9118    1.1131 N   0  0  0  0  0  0  0  0  0  0  0  0
   -1.6999   -0.0366   -0.0522 C   0  0  0  0  0  0  0  0  0  0  0  0
    0.6795    0.7911    0.1732 C   0  0  0  0  0  0  0  0  0  0  0  0
   -3.0559    0.6379   -0.3834 C   0  0  0  0  0  0  0  0  0  0  0  0
    1.2229   -0.3914   -0.3622 C   0  0  0  0  0  0  0  0  0  0  0  0
    1.5648    1.7812    0.6379 C   0  0  0  0  0  0  0  0  0  0  0  0
    2.6036   -0.5772   -0.4304 C   0  0  0  0  0  0  0  0  0  0  0  0
    2.9455    1.5952    0.5699 C   0  0  0  0  0  0  0  0  0  0  0  0
    3.4650    0.4160    0.0357 C   0  0  0  0  0  0  0  0  0  0  0  0
   -1.5456   -2.2654    1.0798 C   0  0  0  0  0  0  0  0  0  0  0  0
  1 11  1  0
  2 11  1  0
  3 11  1  0
  4 14  1  0
  5 16  1  0
  6 17  2  0
  7  9  1  0
  7 10  1  0
  8  9  1  0
  8 17  1  0
  9 11  1  0
 10 12  2  0
 10 13  1  0
 12 14  1  0
 13 15  2  0
 14 16  2  0
 15 16  1  0
M  END
>  <PUBCHEM_COMPOUND_CID>  (1) 
30331

>  <PUBCHEM_CONFORMER_RMSD>  (1) 
0.6

>  <PUBCHEM_CONFORMER_DIVERSEORDER>  (1) 
1
67
34
5
52
47
43
64
33
56
44
51
15
62
70
49
68
61
31
38
60
35
12
54
11
57
2
6
69
41
66
65
59
42
28
19
29
4
55
24
32
40
48
50
58
7
53
71
39
73
20
17
27
45
14
3
30
23
63
36
25
21
16
13
8
37
26
10
72
18
9
22
46

>  <PUBCHEM_MMFF94_PARTIAL_CHARGES>  (1) 
23
1 -0.29
10 0.1
11 0.87
12 -0.15
13 -0.15
14 0.18
15 -0.15
16 0.18
17 0.57
19 0.4
2 -0.29
20 0.37
21 0.15
22 0.15
23 0.15
24 0.06
3 -0.29
4 -0.18
5 -0.18
6 -0.57
7 -0.87
8 -0.73
9 0.67

>  <PUBCHEM_EFFECTIVE_ROTOR_COUNT>  (1) 
5

>  <PUBCHEM_PHARMACOPHORE_FEATURES>  (1) 
5
1 6 acceptor
1 7 cation
1 7 donor
1 8 donor
6 10 12 13 14 15 16 rings

>  <PUBCHEM_HEAVY_ATOM_COUNT>  (1) 
17

>  <PUBCHEM_ATOM_DEF_STEREO_COUNT>  (1) 
0

>  <PUBCHEM_ATOM_UDEF_STEREO_COUNT>  (1) 
1

>  <PUBCHEM_BOND_DEF_STEREO_COUNT>  (1) 
0

>  <PUBCHEM_BOND_UDEF_STEREO_COUNT>  (1) 
0

>  <PUBCHEM_ISOTOPIC_ATOM_COUNT>  (1) 
0

>  <PUBCHEM_COMPONENT_COUNT>  (1) 
1

>  <PUBCHEM_CACTVS_TAUTO_COUNT>  (1) 
2

>  <PUBCHEM_CONFORMER_ID>  (1) 
0000767B00000001

>  <PUBCHEM_MMFF94_ENERGY>  (1) 
40.7779

>  <PUBCHEM_FEATURE_SELFOVERLAP>  (1) 
25.411

>  <PUBCHEM_SHAPE_FINGERPRINT>  (1) 
10366900 7 18201437008457242968
11322862 65 18334299781686609843
12236239 1 16271927120746822444
12500047 106 18333445448113529502
13583140 156 16225763034286168537
14115302 16 18260559926130756020
15375358 24 18342175562027484426
16945 1 18271537463318506296
18186145 218 18337669702999591325
200 152 17418091027015893608
20201158 50 18341897394038532602
20279233 1 18411986879474246130
20645476 183 16443061720764883707
20645477 56 18259988175451994693
20645477 70 17989209222766697526
23402539 116 18410284800877723653
23402655 69 18130503037671997173
23526113 38 18341891874636402794
23558518 356 18055366746804761424
23559900 14 18269265927803256376
25 1 18339359643765665645
2748010 2 18339370772020778230
633830 44 18269835303249227037
69090 78 18408880767736897043
81228 2 17971478648475762811
8809292 202 18336829787832398154
9709674 26 18342462555647137734

>  <PUBCHEM_SHAPE_MULTIPOLES>  (1) 
343.37
8.69
2.48
1.21
2.97
1.42
0.26
-1.25
1.36
-0.51
-0.27
-0.93
-0.08
1.17

>  <PUBCHEM_SHAPE_SELFOVERLAP>  (1) 
654.72

>  <PUBCHEM_SHAPE_VOLUME>  (1) 
212

>  <PUBCHEM_COORDINATE_TYPE>  (1) 
2
5
10

$$$$
