30348
     RDKit          3D

 26 29  0  0  1  0  0  0  0  0999 V2000
   -4.6096    0.0368   -0.1622 S   0  0  0  0  0  0  0  0  0  0  0  0
    2.7463    3.0798    1.0147 O   0  0  0  0  0  0  0  0  0  0  0  0
    4.5911    2.7292   -0.4943 O   0  0  0  0  0  0  0  0  0  0  0  0
   -4.9809   -0.2612   -1.5382 O   0  0  0  0  0  0  0  0  0  0  0  0
   -5.4079   -0.4963    0.9332 O   0  0  0  0  0  0  0  0  0  0  0  0
    1.4252   -2.8965   -0.1274 N   0  0  0  0  0  0  0  0  0  0  0  0
    1.1558   -1.6346    0.6199 C   0  0  0  0  0  0  0  0  0  0  0  0
    2.1134   -0.4803    0.2861 C   0  0  0  0  0  0  0  0  0  0  0  0
    2.8614   -3.1430   -0.2939 C   0  0  0  0  0  0  0  0  0  0  0  0
    3.4728   -2.0456   -1.1594 C   0  0  0  0  0  0  0  0  0  0  0  0
    3.2269   -0.6868   -0.5665 C   0  0  0  0  0  0  0  0  0  0  0  0
   -0.3014   -1.2119    0.4222 C   0  0  0  0  0  0  0  0  0  0  0  0
    1.9218    0.7869    0.8715 C   0  0  0  0  0  0  0  0  0  0  0  0
    4.0929    0.3726   -0.8832 C   0  0  0  0  0  0  0  0  0  0  0  0
    0.8001   -4.0545    0.5227 C   0  0  0  0  0  0  0  0  0  0  0  0
    2.7993    1.8019    0.5492 C   0  0  0  0  0  0  0  0  0  0  0  0
    3.8518    1.6020   -0.3091 C   0  0  0  0  0  0  0  0  0  0  0  0
   -1.1508   -1.1467    1.5188 C   0  0  0  0  0  0  0  0  0  0  0  0
   -0.7570   -0.8988   -0.8519 C   0  0  0  0  0  0  0  0  0  0  0  0
   -2.9468   -0.4453    0.0627 C   0  0  0  0  0  0  0  0  0  0  0  0
   -4.5862    1.8052    0.0267 C   0  0  0  0  0  0  0  0  0  0  0  0
   -2.4793   -0.7619    1.3383 C   0  0  0  0  0  0  0  0  0  0  0  0
   -2.0855   -0.5139   -1.0325 C   0  0  0  0  0  0  0  0  0  0  0  0
    3.8816    3.6638    0.3440 C   0  0  0  0  0  0  0  0  0  0  0  0
   -5.9939    2.3679   -0.1035 C   0  0  0  0  0  0  0  0  0  0  0  0
   -3.6411    2.4313   -0.9881 C   0  0  0  0  0  0  0  0  0  0  0  0
  1  4  2  0
  1  5  2  0
  1 20  1  0
  1 21  1  0
  2 16  1  0
  2 24  1  0
  3 17  1  0
  3 24  1  0
  6  7  1  0
  6  9  1  0
  6 15  1  0
  7  8  1  0
  7 12  1  0
  8 11  2  0
  8 13  1  0
  9 10  1  0
 10 11  1  0
 11 14  1  0
 12 18  2  0
 12 19  1  0
 13 16  2  0
 14 17  2  0
 16 17  1  0
 18 22  1  0
 19 23  2  0
 20 22  2  0
 20 23  1  0
 21 25  1  0
 21 26  1  0
M  END
>  <PUBCHEM_COMPOUND_CID>  (1) 
30348

>  <PUBCHEM_CONFORMER_RMSD>  (1) 
0.8

>  <PUBCHEM_CONFORMER_DIVERSEORDER>  (1) 
1
11
8
4
7
12
2
5
9
3
6
13
10

>  <PUBCHEM_MMFF94_PARTIAL_CHARGES>  (1) 
30
1 1.2
10 0.14
11 -0.14
12 -0.14
13 -0.15
14 -0.15
15 0.27
16 0.08
17 0.08
18 -0.15
19 -0.15
2 -0.36
20 -0.01
21 0.11
22 -0.15
23 -0.15
24 0.56
3 -0.36
32 0.15
33 0.15
37 0.15
38 0.15
4 -0.65
40 0.15
41 0.15
5 -0.65
6 -0.81
7 0.56
8 -0.14
9 0.27

>  <PUBCHEM_EFFECTIVE_ROTOR_COUNT>  (1) 
4.4

>  <PUBCHEM_PHARMACOPHORE_FEATURES>  (1) 
10
1 2 acceptor
1 3 acceptor
1 4 acceptor
1 5 acceptor
1 6 cation
3 21 25 26 hydrophobe
5 2 3 16 17 24 rings
6 12 18 19 20 22 23 rings
6 6 7 8 9 10 11 rings
6 8 11 13 14 16 17 rings

>  <PUBCHEM_HEAVY_ATOM_COUNT>  (1) 
26

>  <PUBCHEM_ATOM_DEF_STEREO_COUNT>  (1) 
0

>  <PUBCHEM_ATOM_UDEF_STEREO_COUNT>  (1) 
1

>  <PUBCHEM_BOND_DEF_STEREO_COUNT>  (1) 
0

>  <PUBCHEM_BOND_UDEF_STEREO_COUNT>  (1) 
0

>  <PUBCHEM_ISOTOPIC_ATOM_COUNT>  (1) 
0

>  <PUBCHEM_COMPONENT_COUNT>  (1) 
1

>  <PUBCHEM_CACTVS_TAUTO_COUNT>  (1) 
1

>  <PUBCHEM_CONFORMER_ID>  (1) 
0000768C00000001

>  <PUBCHEM_MMFF94_ENERGY>  (1) 
59.2243

>  <PUBCHEM_FEATURE_SELFOVERLAP>  (1) 
50.94

>  <PUBCHEM_SHAPE_FINGERPRINT>  (1) 
10165383 225 18188504565813529870
10411042 1 17979359655877492438
11273773 38 17258219566900919057
11595378 159 15792013312374370341
12549972 3 17604450499639550371
12596602 18 14346664634445474133
12730499 353 18337400429787864819
12769317 202 18342453759754595136
12788726 201 17110161517210964010
13583140 156 18265906765715504787
13590594 115 17907021673019139848
13878862 14 18046041806307312845
13965767 371 18041544936787777196
14251764 38 18269276768570067889
14466204 15 18265041445642442296
14468879 13 18189056554424712963
14848178 96 18409164411487807089
15163728 17 18189064247012028092
15210252 30 18114192908330120044
16752209 62 15625948603622084571
16992752 21 17400647026546469990
17844677 252 18340494370299767463
17868525 174 17975404716234406425
17980427 26 18188755193681667942
18681886 176 18198335170102311106
21033648 29 18338796848489641800
21120745 212 16817406659643897650
21388113 180 18337391672402600820
22122407 14 18126019178468752297
221357 26 18267866077828915205
22289505 5 18341052908994637412
22393880 68 18272090517197922406
22907989 373 17185025610667945166
23557571 272 17604446213694919427
23559900 14 18265610988102196195
238 59 18272094906976427306
2838139 119 18340763848847699708
341906 21 16587739828861219415
34797466 226 18273220781582607679
44317340 157 18410569549405010349
46194498 28 18272375243580810543
474 4 18342175617730411482
495365 180 18410568492110196210
5104073 3 18041000605601824859
5281201 14 18341050718461154631
543358 83 18269276768078931266
57724786 102 18199193897663253345
633830 44 18336820906162017167
6442390 28 18261958543259799638
7399639 24 18190471634838895475
7808743 9 17902514019307190500
9981440 41 18336821013024315521

>  <PUBCHEM_SHAPE_MULTIPOLES>  (1) 
510.46
11.6
4.3
1.2
13.36
0.55
-0.02
8.4
2.11
-5.01
-0.42
0.37
-0.16
1.2

>  <PUBCHEM_SHAPE_SELFOVERLAP>  (1) 
1098.574

>  <PUBCHEM_SHAPE_VOLUME>  (1) 
284.9

>  <PUBCHEM_COORDINATE_TYPE>  (1) 
2
5
10

$$$$
