3034
     RDKit          3D

 24 25  0  0  0  0  0  0  0  0999 V2000
    3.7177    0.5281    2.6709 Cl  0  0  0  0  0  0  0  0  0  0  0  0
    6.5906    2.1403   -1.5856 Cl  0  0  0  0  0  0  0  0  0  0  0  0
   -5.9418   -1.8421   -0.4200 Cl  0  0  0  0  0  0  0  0  0  0  0  0
   -0.7060    0.6440    1.0789 O   0  0  0  0  0  0  0  0  0  0  0  0
    1.3196   -1.2487    0.6378 N   0  0  0  0  0  0  0  0  0  0  0  0
   -0.9773   -1.3104   -0.1725 N   0  0  0  0  0  0  0  0  0  0  0  0
   -3.6214   -0.7919   -0.0062 N   0  0  0  0  0  0  0  0  0  0  0  0
   -4.5021    1.8663   -0.1638 N   0  0  0  0  0  0  0  0  0  0  0  0
   -2.2789    2.6033    0.2338 N   0  0  0  0  0  0  0  0  0  0  0  0
   -6.7100    1.0956   -0.5572 N   0  0  0  0  0  0  0  0  0  0  0  0
    2.6714   -1.7135    0.8323 C   0  0  0  0  0  0  0  0  0  0  0  0
    3.6542   -0.7326    0.2556 C   0  0  0  0  0  0  0  0  0  0  0  0
    4.1722    0.3065    1.0206 C   0  0  0  0  0  0  0  0  0  0  0  0
    4.0346   -0.8930   -1.0723 C   0  0  0  0  0  0  0  0  0  0  0  0
    0.2927   -1.8723   -0.0568 C   0  0  0  0  0  0  0  0  0  0  0  0
    5.0820    1.1969    0.4503 C   0  0  0  0  0  0  0  0  0  0  0  0
    4.9443   -0.0027   -1.6424 C   0  0  0  0  0  0  0  0  0  0  0  0
   -2.8082    0.2567    0.1387 C   0  0  0  0  0  0  0  0  0  0  0  0
   -1.3907   -0.1090    0.3922 C   0  0  0  0  0  0  0  0  0  0  0  0
    5.4681    1.0423   -0.8812 C   0  0  0  0  0  0  0  0  0  0  0  0
   -3.2113    1.5548    0.0666 C   0  0  0  0  0  0  0  0  0  0  0  0
    0.4574   -3.0636   -0.6686 C   0  0  0  0  0  0  0  0  0  0  0  0
   -5.3449    0.8253   -0.3143 C   0  0  0  0  0  0  0  0  0  0  0  0
   -4.9123   -0.4803   -0.2368 C   0  0  0  0  0  0  0  0  0  0  0  0
  1 13  1  0
  2 20  1  0
  3 24  1  0
  4 19  2  0
  5 11  1  0
  5 15  1  0
  6 15  1  0
  6 19  1  0
  7 18  2  0
  7 24  1  0
  8 21  2  0
  8 23  1  0
  9 21  1  0
 10 23  1  0
 11 12  1  0
 12 13  2  0
 12 14  1  0
 13 16  1  0
 14 17  2  0
 15 22  2  0
 16 20  2  0
 17 20  1  0
 18 19  1  0
 18 21  1  0
 23 24  2  0
M  END
>  <PUBCHEM_COMPOUND_CID>  (1) 
3034

>  <PUBCHEM_CONFORMER_RMSD>  (1) 
0.8

>  <PUBCHEM_CONFORMER_DIVERSEORDER>  (1) 
1
157
201
210
158
219
134
192
297
285
209
140
142
289
176
226
214
151
126
116
105
250
276
286
220
246
211
102
22
301
164
144
232
137
230
168
115
234
260
127
145
261
299
243
227
141
295
184
177
120
148
48
198
298
161
165
178
179
262
162
291
93
229
283
172
166
163
53
206
294
45
216
61
129
85
273
174
76
228
60
171
69
64
258
173
279
287
123
44
267
80
212
303
156
277
131
70
133
75
39
180
51
221
199
259
290
236
136
66
121
203
68
149
284
224
244
147
113
101
247
90
3
114
81
103
282
302
67
35
274
112
77
111
238
266
252
138
122
43
55
92
248
231
119
263
65
197
251
200
194
20
208
125
11
87
254
74
268
154
245
160
181
71
9
293
96
207
304
188
143
249
52
58
128
195
19
84
185
130
270
100
62
15
175
281
280
264
170
18
150
88
7
31
110
86
182
135
278
132
94
169
189
56
196
296
240
292
78
213
271
205
256
2
255
4
159
25
242
46
241
183
99
17
152
49
118
98
139
40
97
239
106
153
225
257
107
63
5
190
95
300
155
146
235
79
186
27
237
26
21
222
47
73
167
89
8
265
34
14
83
30
215
24
36
10
269
23
124
13
204
28
288
6
12
104
42
33
223
275
72
108
109
272
191
54
32
253
91
38
217
233
202
82
218
193
50
117
29
37
16
187
41
57
59

>  <PUBCHEM_MMFF94_PARTIAL_CHARGES>  (1) 
35
1 -0.18
10 -0.9
11 0.51
12 -0.14
13 0.18
14 -0.15
15 0.21
16 -0.15
17 -0.15
18 0.4
19 0.54
2 -0.18
20 0.18
21 0.41
22 -0.3
23 0.41
24 0.49
27 0.4
28 0.15
29 0.37
3 -0.18
30 0.15
31 0.15
32 0.15
33 0.15
34 0.4
35 0.4
36 0.4
37 0.4
4 -0.57
5 -0.87
6 -0.54
7 -0.62
8 -0.62
9 -0.9

>  <PUBCHEM_EFFECTIVE_ROTOR_COUNT>  (1) 
6

>  <PUBCHEM_PHARMACOPHORE_FEATURES>  (1) 
11
1 10 donor
1 4 acceptor
1 5 cation
1 5 donor
1 6 donor
1 7 acceptor
1 9 cation
1 9 donor
3 8 10 23 cation
6 12 13 14 16 17 20 rings
6 7 8 18 21 23 24 rings

>  <PUBCHEM_HEAVY_ATOM_COUNT>  (1) 
24

>  <PUBCHEM_ATOM_DEF_STEREO_COUNT>  (1) 
0

>  <PUBCHEM_ATOM_UDEF_STEREO_COUNT>  (1) 
0

>  <PUBCHEM_BOND_DEF_STEREO_COUNT>  (1) 
0

>  <PUBCHEM_BOND_UDEF_STEREO_COUNT>  (1) 
0

>  <PUBCHEM_ISOTOPIC_ATOM_COUNT>  (1) 
0

>  <PUBCHEM_COMPONENT_COUNT>  (1) 
1

>  <PUBCHEM_CACTVS_TAUTO_COUNT>  (1) 
21

>  <PUBCHEM_CONFORMER_ID>  (1) 
00000BDA00000001

>  <PUBCHEM_MMFF94_ENERGY>  (1) 
80.4206

>  <PUBCHEM_FEATURE_SELFOVERLAP>  (1) 
55.848

>  <PUBCHEM_SHAPE_FINGERPRINT>  (1) 
10498660 4 18413673500420602560
10591671 39 18336834185583769910
10670039 82 18337398145556190972
10906281 52 18339088095091268635
11488393 25 17130443293275097447
12596602 18 17385444349344235696
12633257 1 14418423251767790972
12730499 353 17703792543973264182
13533116 47 15358251585696644072
14251758 9 10881395418219099451
14257110 125 18334580165967987190
14528608 73 18412262826432472998
14840074 17 18343300358222859965
14931854 50 18201170905564454972
15142526 21 17024037154186444520
15183329 4 15985109604273103382
15575132 122 18409448059928784789
15885798 251 9151172056378120746
15961568 22 18186805759871258636
17980427 23 17967538986733969287
19784866 240 12607417589459859690
1979834 28 13334736804413419520
20567600 234 16081094791782108383
21049683 271 18337392742788330917
221357 26 17274824636474016080
23559900 14 17839733769287446555
245318 6 17460056164902551836
270888 7 18042129911676604964
3472631 163 18262525909246372588
34797466 226 18131635577729758677
351380 3 12103850038356242692
46194498 28 16415763046556186520
465052 167 10879988081984834256
53794403 172 18194963178477611600
5486654 2 18412824707556534391
59682541 52 17631745885364671222
67856867 119 18191017915639281306
6898599 12 18337948992487061685
7808743 9 18336829805513401094
7970288 3 10951777348326560660
8988823 20 14923940154739758026
960060 61 13901902341244983026

>  <PUBCHEM_SHAPE_MULTIPOLES>  (1) 
463.76
17.17
2.55
1.47
5.52
0.46
0.59
-7.75
-5.54
0.66
-0.51
-3.1
-0.29
-0.86

>  <PUBCHEM_SHAPE_SELFOVERLAP>  (1) 
960.602

>  <PUBCHEM_SHAPE_VOLUME>  (1) 
267.5

>  <PUBCHEM_COORDINATE_TYPE>  (1) 
2
5
10

$$$$
