30354
     RDKit          3D

 23 25  0  0  0  0  0  0  0  0999 V2000
    1.2333   -1.1414    0.3820 O   0  0  0  0  0  0  0  0  0  0  0  0
   -1.6411    0.1997   -0.4112 N   0  0  0  0  0  0  0  0  0  0  0  0
   -1.8365   -1.9536   -0.3255 N   0  0  0  0  0  0  0  0  0  0  0  0
    1.2898    3.3253   -0.3085 N   0  0  0  0  0  0  0  0  0  0  0  0
   -1.0499    1.5173   -0.5586 C   0  0  0  0  0  0  0  0  0  0  0  0
   -2.9689   -0.0540   -0.1349 C   0  0  0  0  0  0  0  0  0  0  0  0
   -0.5279    2.0802    0.7626 C   0  0  0  0  0  0  0  0  0  0  0  0
   -0.9724   -0.9528   -0.5233 C   0  0  0  0  0  0  0  0  0  0  0  0
   -3.0950   -1.4442   -0.0795 C   0  0  0  0  0  0  0  0  0  0  0  0
    0.1496    3.4396    0.5940 C   0  0  0  0  0  0  0  0  0  0  0  0
    0.4743   -1.1146   -0.8141 C   0  0  0  0  0  0  0  0  0  0  0  0
   -4.0448    0.8025    0.0665 C   0  0  0  0  0  0  0  0  0  0  0  0
   -4.3060   -2.0747    0.1810 C   0  0  0  0  0  0  0  0  0  0  0  0
   -5.2736    0.1809    0.3307 C   0  0  0  0  0  0  0  0  0  0  0  0
   -5.4011   -1.2234    0.3864 C   0  0  0  0  0  0  0  0  0  0  0  0
    2.2612    2.3602    0.2090 C   0  0  0  0  0  0  0  0  0  0  0  0
    1.9244    4.6297   -0.5041 C   0  0  0  0  0  0  0  0  0  0  0  0
    2.5924   -1.2848    0.2539 C   0  0  0  0  0  0  0  0  0  0  0  0
    3.1543   -1.3949   -1.0118 C   0  0  0  0  0  0  0  0  0  0  0  0
    3.3890   -1.3179    1.3915 C   0  0  0  0  0  0  0  0  0  0  0  0
    4.5354   -1.5405   -1.1420 C   0  0  0  0  0  0  0  0  0  0  0  0
    4.7700   -1.4636    1.2612 C   0  0  0  0  0  0  0  0  0  0  0  0
    5.3434   -1.5749   -0.0055 C   0  0  0  0  0  0  0  0  0  0  0  0
  1 11  1  0
  1 18  1  0
  2  5  1  0
  2  6  1  0
  2  8  2  0
  3  8  1  0
  3  9  1  0
  4 10  1  0
  4 16  1  0
  4 17  1  0
  5  7  1  0
  6  9  2  0
  6 12  1  0
  7 10  1  0
  8 11  1  0
  9 13  1  0
 12 14  2  0
 13 15  2  0
 14 15  1  0
 18 19  2  0
 18 20  1  0
 19 21  1  0
 20 22  2  0
 21 23  2  0
 22 23  1  0
M  CHG  1   2   1
M  END
>  <PUBCHEM_COMPOUND_CID>  (1) 
30354

>  <PUBCHEM_CONFORMER_RMSD>  (1) 
0.8

>  <PUBCHEM_CONFORMER_DIVERSEORDER>  (1) 
7
71
131
50
139
52
149
45
13
28
46
112
15
102
85
61
130
123
141
6
135
88
51
26
35
137
113
80
69
127
87
65
92
74
48
99
121
150
62
91
116
59
119
81
143
103
153
73
90
25
5
157
133
23
104
63
37
147
158
125
96
32
58
144
44
146
8
93
47
101
97
18
114
86
109
70
148
100
105
118
55
11
110
27
33
152
106
128
67
41
20
95
108
12
40
76
21
10
83
82
94
129
54
53
79
43
30
111
107
84
57
22
2
89
132
155
72
78
36
140
115
68
77
39
120
14
159
145
64
9
156
142
1
66
24
138
17
124
34
4
122
31
38
126
154
42
136
134
19
98
16
117
49
75
29
56
60
3
151

>  <PUBCHEM_MMFF94_PARTIAL_CHARGES>  (1) 
32
1 -0.36
10 0.27
11 0.42
12 -0.11
13 -0.11
14 -0.15
15 -0.15
16 0.27
17 0.27
18 0.08
19 -0.15
2 -0.76
20 -0.15
21 -0.15
22 -0.15
23 -0.15
3 -0.7
30 0.45
33 0.15
34 0.15
35 0.15
36 0.15
4 -0.81
43 0.15
44 0.15
45 0.15
46 0.15
47 0.15
5 0.51
6 0.31
8 0.66
9 0.31

>  <PUBCHEM_EFFECTIVE_ROTOR_COUNT>  (1) 
7

>  <PUBCHEM_PHARMACOPHORE_FEATURES>  (1) 
7
1 1 acceptor
1 3 donor
1 4 cation
3 2 3 8 cation
5 2 3 6 8 9 rings
6 18 19 20 21 22 23 rings
6 6 9 12 13 14 15 rings

>  <PUBCHEM_HEAVY_ATOM_COUNT>  (1) 
23

>  <PUBCHEM_ATOM_DEF_STEREO_COUNT>  (1) 
0

>  <PUBCHEM_ATOM_UDEF_STEREO_COUNT>  (1) 
0

>  <PUBCHEM_BOND_DEF_STEREO_COUNT>  (1) 
0

>  <PUBCHEM_BOND_UDEF_STEREO_COUNT>  (1) 
0

>  <PUBCHEM_ISOTOPIC_ATOM_COUNT>  (1) 
0

>  <PUBCHEM_COMPONENT_COUNT>  (1) 
1

>  <PUBCHEM_CACTVS_TAUTO_COUNT>  (1) 
2

>  <PUBCHEM_CONFORMER_ID>  (1) 
0000769200000007

>  <PUBCHEM_MMFF94_ENERGY>  (1) 
55.1112

>  <PUBCHEM_FEATURE_SELFOVERLAP>  (1) 
35.628

>  <PUBCHEM_SHAPE_FINGERPRINT>  (1) 
10006869 2 17692245241146001737
10050765 1 18265897055179472799
10675989 125 16388726802790597285
107951 10 17400378126985186668
1100329 8 18410576206093012275
11045515 52 18115026299241017140
11135609 187 18120665892508246588
11578080 2 17604968451552693453
11963148 33 17473821105832945127
12107183 9 18340776940630679105
12156800 1 15767563506551372136
12236239 1 17676492709162983102
12553582 1 18338506456954868654
12592029 89 18050290563670184721
12788726 201 18116435830218836466
13009979 54 17608069993820016010
13140716 1 18411136974144966403
13533116 47 18196650925000077299
13540713 5 18057326300591459087
138480 1 18411136974166318732
14020679 6 18115607950083049401
14787075 74 18040721354838372490
15042514 8 18122624946912075528
15475509 35 17530973518459511203
15664445 248 18341626901530867438
15927050 60 17835807769777865286
1813 80 18342178851650783662
18222031 100 18271800224875028935
18785283 64 18264489657660520709
200 152 16225768480141299495
20600515 1 18200887157932723261
21033648 29 17417232244115892139
21133665 82 17762064642323667228
21360443 120 18044943626388780692
2297311 6 18341340981099643878
23366157 5 18116432742037370437
23402539 116 18272080561558942127
23557571 272 18128825131741428918
23559900 14 18411131472481472059
25147074 1 17987235719991910511
314173 41 18409731759513697546
3187 122 18267856203778242392
335352 9 18411419476209503445
3411729 13 18194686088266345021
43471831 8 17618215552274905885
469060 322 18267032660873310400
5104073 3 18266193884595604755
5283268 108 18341611499740921648
59755656 215 17616813679609099015
69474 34 18412540998980142697
7495541 125 18261115192055687019
8863177 126 17897180215576388011

>  <PUBCHEM_SHAPE_MULTIPOLES>  (1) 
452.52
11
4.27
1.02
2.39
7.09
-0.09
-8.66
-1.42
-3.01
0.19
-1
-0.24
-0.25

>  <PUBCHEM_SHAPE_SELFOVERLAP>  (1) 
963.347

>  <PUBCHEM_SHAPE_VOLUME>  (1) 
256

>  <PUBCHEM_COORDINATE_TYPE>  (1) 
2
5
10

$$$$
