30356
     RDKit          3D

 25 28  0  0  1  0  0  0  0  0999 V2000
    0.5697   -0.9967    1.8390 S   0  0  0  0  0  0  0  0  0  0  0  0
   -5.7629    0.2783    0.1298 O   0  0  0  0  0  0  0  0  0  0  0  0
   -4.7566    1.1451   -1.6235 O   0  0  0  0  0  0  0  0  0  0  0  0
    1.1798    1.2722   -0.2690 N   0  0  0  0  0  0  0  0  0  0  0  0
    2.7552    3.6741    0.0583 N   0  0  0  0  0  0  0  0  0  0  0  0
   -4.7247    0.5528   -0.5183 N   0  0  0  0  0  0  0  0  0  0  0  0
    0.2056    0.4405   -0.9729 C   0  0  0  0  0  0  0  0  0  0  0  0
    2.3472    1.5398   -1.1178 C   0  0  0  0  0  0  0  0  0  0  0  0
    0.5678    2.5313    0.1730 C   0  0  0  0  0  0  0  0  0  0  0  0
    3.3680    2.4152   -0.3829 C   0  0  0  0  0  0  0  0  0  0  0  0
    1.5892    3.4056    0.9086 C   0  0  0  0  0  0  0  0  0  0  0  0
    0.8372   -0.8269   -1.5716 C   0  0  0  0  0  0  0  0  0  0  0  0
   -1.0312    0.1202   -0.1592 C   0  0  0  0  0  0  0  0  0  0  0  0
    1.3612   -1.9757   -0.7297 C   0  0  0  0  0  0  0  0  0  0  0  0
   -0.9734   -0.5499    1.0742 C   0  0  0  0  0  0  0  0  0  0  0  0
    3.7292    4.5073    0.7608 C   0  0  0  0  0  0  0  0  0  0  0  0
   -2.2910    0.4752   -0.6755 C   0  0  0  0  0  0  0  0  0  0  0  0
    1.2771   -2.1416    0.6648 C   0  0  0  0  0  0  0  0  0  0  0  0
    1.9855   -3.0016   -1.4812 C   0  0  0  0  0  0  0  0  0  0  0  0
   -2.1579   -0.8363    1.7700 C   0  0  0  0  0  0  0  0  0  0  0  0
   -3.4636    0.1806    0.0195 C   0  0  0  0  0  0  0  0  0  0  0  0
   -3.3968   -0.4755    1.2427 C   0  0  0  0  0  0  0  0  0  0  0  0
    1.8280   -3.3001    1.2549 C   0  0  0  0  0  0  0  0  0  0  0  0
    2.5178   -4.1426   -0.8839 C   0  0  0  0  0  0  0  0  0  0  0  0
    2.4396   -4.2913    0.4899 C   0  0  0  0  0  0  0  0  0  0  0  0
  1 15  1  0
  1 18  1  0
  2  6  1  0
  3  6  2  0
  4  7  1  0
  4  8  1  0
  4  9  1  0
  5 10  1  0
  5 11  1  0
  5 16  1  0
  6 21  1  0
  7 12  1  0
  7 13  1  0
  8 10  1  0
  9 11  1  0
 12 14  1  0
 13 15  2  0
 13 17  1  0
 14 18  2  0
 14 19  1  0
 15 20  1  0
 17 21  2  0
 18 23  1  0
 19 24  2  0
 20 22  2  0
 21 22  1  0
 23 25  2  0
 24 25  1  0
M  CHG  2   2  -1   6   1
M  END
>  <PUBCHEM_COMPOUND_CID>  (1) 
30356

>  <PUBCHEM_CONFORMER_RMSD>  (1) 
0.8

>  <PUBCHEM_CONFORMER_DIVERSEORDER>  (1) 
1
2
4
3

>  <PUBCHEM_MMFF94_PARTIAL_CHARGES>  (1) 
32
1 -0.2
10 0.27
11 0.27
12 0.14
13 -0.14
14 -0.14
15 0.1
16 0.27
17 -0.15
18 0.1
19 -0.15
2 -0.52
20 -0.15
21 0.13
22 -0.15
23 -0.15
24 -0.15
25 -0.15
3 -0.52
4 -0.81
40 0.15
41 0.15
42 0.15
43 0.15
44 0.15
45 0.15
46 0.15
5 -0.81
6 0.91
7 0.41
8 0.27
9 0.27

>  <PUBCHEM_EFFECTIVE_ROTOR_COUNT>  (1) 
3.8

>  <PUBCHEM_PHARMACOPHORE_FEATURES>  (1) 
9
1 2 acceptor
1 2 anion
1 3 acceptor
1 4 cation
1 5 cation
6 13 15 17 20 21 22 rings
6 14 18 19 23 24 25 rings
6 4 5 8 9 10 11 rings
7 1 7 12 13 14 15 18 rings

>  <PUBCHEM_HEAVY_ATOM_COUNT>  (1) 
25

>  <PUBCHEM_ATOM_DEF_STEREO_COUNT>  (1) 
0

>  <PUBCHEM_ATOM_UDEF_STEREO_COUNT>  (1) 
1

>  <PUBCHEM_BOND_DEF_STEREO_COUNT>  (1) 
0

>  <PUBCHEM_BOND_UDEF_STEREO_COUNT>  (1) 
0

>  <PUBCHEM_ISOTOPIC_ATOM_COUNT>  (1) 
0

>  <PUBCHEM_COMPONENT_COUNT>  (1) 
1

>  <PUBCHEM_CACTVS_TAUTO_COUNT>  (1) 
1

>  <PUBCHEM_CONFORMER_ID>  (1) 
0000769400000001

>  <PUBCHEM_MMFF94_ENERGY>  (1) 
84.647

>  <PUBCHEM_FEATURE_SELFOVERLAP>  (1) 
45.765

>  <PUBCHEM_SHAPE_FINGERPRINT>  (1) 
10764073 3 13629370697403843253
11115154 58 17977102358547164861
11445158 3 16126102042700142286
12160290 23 17189565467897492942
12363563 72 18050854312493090127
12549972 3 17896057472412082737
12553582 1 17904502709102615059
12643181 29 18053117396230691860
12730499 353 18337965592450822441
12788726 201 17328323345812641958
13004483 165 17834384627574171535
13134695 92 18266462001327154175
13140716 1 18338515369243668124
133893 2 18272102560354441611
13540713 4 17894917322114715179
13590594 115 17834403324089161169
13681431 1 18268712714429574322
13757389 114 16394958843349257926
13955234 65 18411143528307121931
15230672 131 18118694460181301988
15664445 248 18054235327738466471
15927050 60 18123468552073361158
17980427 26 18341322392164565724
1813 80 17984984787070736775
18915476 22 18338529615803254539
20567600 347 18118401980379708571
20600515 1 17104496902218726132
20832881 197 17899985924394364667
21033648 29 18052537965100463296
21120745 212 17691420611672658022
21304303 282 17407080702316830932
21731228 192 18049733111090097304
22182313 1 17676502670046334443
23557571 272 17831570982077838498
23558518 356 17691682703161223220
23559900 14 18337103450548778315
249057 25 11885466255078668536
3298306 158 18335710480953523622
35225 105 17620468447363359202
376196 1 18115577287721127193
394222 165 18131071562555850079
404807 78 16673268897357623295
4058900 60 18266479752543636860
495365 180 18338513144129238776
5265222 85 17898311634684712220
57527295 17 18264789670164129901
5895379 119 17485658052827336697
6004065 56 18264477408772923979
633830 44 17558021529581727961
6786 2 18194964282088163914
7364860 26 18408888412509645539
7399639 24 18119543265323389059
7471813 234 18196370312610134415
77188 2 18123185697731458478
81228 2 17400644818362067162
9981440 41 18193269913411560297

>  <PUBCHEM_SHAPE_MULTIPOLES>  (1) 
491.66
7.15
5.9
1.62
11.92
0.07
-0.16
3.65
1.05
-11.12
-0.76
0.2
-0.63
1.28

>  <PUBCHEM_SHAPE_SELFOVERLAP>  (1) 
1050.221

>  <PUBCHEM_SHAPE_VOLUME>  (1) 
273.2

>  <PUBCHEM_COORDINATE_TYPE>  (1) 
2
5
10

$$$$
