30367
     RDKit          3D

 18 19  0  0  1  0  0  0  0  0999 V2000
   -0.8411    0.2640    0.3736 O   0  0  0  0  0  0  0  0  0  0  0  0
    0.5715    1.9490   -0.2550 O   0  0  0  0  0  0  0  0  0  0  0  0
   -4.9413   -0.9628   -0.0798 N   0  0  0  0  0  0  0  0  0  0  0  0
    1.3535   -0.2031    0.2316 N   0  0  0  0  0  0  0  0  0  0  0  0
   -3.2126    0.3995    0.6278 C   0  0  0  0  0  0  0  0  0  0  0  0
   -4.4738    1.2644    0.5608 C   0  0  0  0  0  0  0  0  0  0  0  0
   -3.5119   -0.7583   -0.3175 C   0  0  0  0  0  0  0  0  0  0  0  0
   -5.5312    0.3776   -0.0934 C   0  0  0  0  0  0  0  0  0  0  0  0
   -1.9420    1.1513    0.2688 C   0  0  0  0  0  0  0  0  0  0  0  0
   -5.5486   -1.8487   -1.0617 C   0  0  0  0  0  0  0  0  0  0  0  0
    0.3988    0.7838    0.0811 C   0  0  0  0  0  0  0  0  0  0  0  0
    2.7493   -0.1015    0.0333 C   0  0  0  0  0  0  0  0  0  0  0  0
    3.5660   -1.2043    0.2322 C   0  0  0  0  0  0  0  0  0  0  0  0
    3.2756    1.1196   -0.3619 C   0  0  0  0  0  0  0  0  0  0  0  0
    4.9411   -1.0836    0.0313 C   0  0  0  0  0  0  0  0  0  0  0  0
    3.0129   -2.5257    0.6579 C   0  0  0  0  0  0  0  0  0  0  0  0
    4.6507    1.2401   -0.5629 C   0  0  0  0  0  0  0  0  0  0  0  0
    5.4833    0.1386   -0.3662 C   0  0  0  0  0  0  0  0  0  0  0  0
  1  9  1  0
  1 11  1  0
  2 11  2  0
  3  7  1  0
  3  8  1  0
  3 10  1  0
  4 11  1  0
  4 12  1  0
  5  6  1  0
  5  7  1  0
  5  9  1  0
  6  8  1  0
 12 13  2  0
 12 14  1  0
 13 15  1  0
 13 16  1  0
 14 17  2  0
 15 18  2  0
 17 18  1  0
M  END
>  <PUBCHEM_COMPOUND_CID>  (1) 
30367

>  <PUBCHEM_CONFORMER_RMSD>  (1) 
0.8

>  <PUBCHEM_CONFORMER_DIVERSEORDER>  (1) 
1
80
4
123
83
94
99
116
13
49
120
119
60
134
25
70
56
27
55
2
75
66
136
103
41
21
129
38
39
114
42
74
118
133
59
88
31
37
69
46
44
57
108
79
101
61
58
122
65
121
85
6
125
23
43
53
112
14
35
132
40
126
36
10
87
19
78
5
9
113
68
81
131
64
26
45
52
18
72
111
76
28
7
63
137
127
62
124
110
67
109
3
47
12
86
73
128
98
15
130
8
51
105
17
93
71
89
135
16
107
48
102
22
20
50
90
77
115
95
29
92
11
82
34
100
104
97
32
24
84
30
117
91
96
33
106
54

>  <PUBCHEM_MMFF94_PARTIAL_CHARGES>  (1) 
21
1 -0.43
10 0.27
11 0.78
12 0.12
13 -0.14
14 -0.15
15 -0.15
16 0.14
17 -0.15
18 -0.15
2 -0.57
3 -0.81
31 0.37
32 0.15
33 0.15
37 0.15
38 0.15
4 -0.55
7 0.27
8 0.27
9 0.28

>  <PUBCHEM_EFFECTIVE_ROTOR_COUNT>  (1) 
6

>  <PUBCHEM_PHARMACOPHORE_FEATURES>  (1) 
5
1 2 acceptor
1 3 cation
1 4 donor
5 3 5 6 7 8 rings
6 12 13 14 15 17 18 rings

>  <PUBCHEM_HEAVY_ATOM_COUNT>  (1) 
18

>  <PUBCHEM_ATOM_DEF_STEREO_COUNT>  (1) 
0

>  <PUBCHEM_ATOM_UDEF_STEREO_COUNT>  (1) 
1

>  <PUBCHEM_BOND_DEF_STEREO_COUNT>  (1) 
0

>  <PUBCHEM_BOND_UDEF_STEREO_COUNT>  (1) 
0

>  <PUBCHEM_ISOTOPIC_ATOM_COUNT>  (1) 
0

>  <PUBCHEM_COMPONENT_COUNT>  (1) 
1

>  <PUBCHEM_CACTVS_TAUTO_COUNT>  (1) 
2

>  <PUBCHEM_CONFORMER_ID>  (1) 
0000769F00000001

>  <PUBCHEM_MMFF94_ENERGY>  (1) 
46.2945

>  <PUBCHEM_FEATURE_SELFOVERLAP>  (1) 
25.371

>  <PUBCHEM_SHAPE_FINGERPRINT>  (1) 
10447042 23 18259979366932948030
10595046 47 18411139142813274529
10912923 1 18342181046268341553
11315181 36 17989490731892396673
11796584 16 18060422395916350271
12107183 9 17619070529723569425
12236239 1 18343866619057982756
12516196 113 18272368685018160024
12596602 18 17632858637669680250
13167823 11 18341894082413044999
13288520 33 18202003235707964357
13836976 161 18259993682501940614
14251718 22 18202003252323396104
14251764 18 18273219695172048961
14528608 73 18409172134086658980
14576447 43 18411134761972850414
15183329 4 18262226747673451501
15196674 1 18411138021958698539
15242433 33 18410294700734759467
15250474 111 18339349799785766379
17834072 33 18411982468168364745
17844677 252 18409737235455185813
17857418 61 18410289198850011411
19489759 90 16343423921643357769
200 152 18412546513602262281
20028762 73 18339637833631459066
20281475 54 18411696547905810153
20645477 70 18334859368685841754
21054139 6 18411134770832258710
21267235 1 18411709776452586874
220451 1 18341902874411527609
22485316 2 18410012109087748345
22646028 1 18413389825903677921
22950370 63 18413672396160449945
23402539 116 18410854348111752229
23559900 14 18200583822163313449
239999 70 18272939310858633790
2871803 45 18113902628801606330
2916195 48 12035739746532530734
29717793 49 18272092660602653524
300161 21 18408037399152468105
3004659 81 18334012766075259522
314194 84 18410578396309899715
33824 294 18259706671191137530
34797466 226 16988289775903518752
351380 3 18131067160425556711
4214541 1 18412265000155721985
465052 167 17918278662248463420
5104073 3 18342740715162070385
5283173 99 17822845360678563493
559249 180 18342454821228494215
573450 72 18202000989371432153
57483677 66 18413388730797689759
602551 16 16271634685177005934
6913067 236 17749659766615636308
7062679 117 18412829113960592111
7495541 125 17918270974146519648
960060 61 18186526501007527228

>  <PUBCHEM_SHAPE_MULTIPOLES>  (1) 
348.73
15.04
1.96
0.79
7.52
0.74
-0.04
3.35
-2.2
-0.35
-0.01
0.29
0.12
-1.65

>  <PUBCHEM_SHAPE_SELFOVERLAP>  (1) 
721.792

>  <PUBCHEM_SHAPE_VOLUME>  (1) 
202.3

>  <PUBCHEM_COORDINATE_TYPE>  (1) 
2
5
10

$$$$
