30360
     RDKit          3D

 10 10  0  0  0  0  0  0  0  0999 V2000
   -2.5123   -0.4002    0.9872 O   0  0  0  0  0  0  0  0  0  0  0  0
   -0.9449    0.3808   -0.1423 N   0  0  0  0  0  0  0  0  0  0  0  0
   -2.1858    0.5335    0.2479 N   0  0  0  0  0  0  0  0  0  0  0  0
    1.6675   -0.5122    1.0355 C   0  0  0  0  0  0  0  0  0  0  0  0
    2.0393    0.9074    0.5947 C   0  0  0  0  0  0  0  0  0  0  0  0
    1.5263   -1.5306   -0.0988 C   0  0  0  0  0  0  0  0  0  0  0  0
    1.2770    1.5051   -0.5892 C   0  0  0  0  0  0  0  0  0  0  0  0
    0.0807   -1.8402   -0.5087 C   0  0  0  0  0  0  0  0  0  0  0  0
   -0.2406    1.6356   -0.4014 C   0  0  0  0  0  0  0  0  0  0  0  0
   -0.7073   -0.6791   -1.1250 C   0  0  0  0  0  0  0  0  0  0  0  0
  1  3  2  0
  2  3  1  0
  2  9  1  0
  2 10  1  0
  4  5  1  0
  4  6  1  0
  5  7  1  0
  6  8  1  0
  7  9  1  0
  8 10  1  0
M  END
>  <PUBCHEM_COMPOUND_CID>  (1) 
30360

>  <PUBCHEM_CONFORMER_RMSD>  (1) 
0.6

>  <PUBCHEM_CONFORMER_DIVERSEORDER>  (1) 
1
9
11
6
8
7
2
5
4
3
10

>  <PUBCHEM_MMFF94_PARTIAL_CHARGES>  (1) 
5
1 -0.16
10 0.27
2 -0.36
3 -0.01
9 0.27

>  <PUBCHEM_EFFECTIVE_ROTOR_COUNT>  (1) 
2.6

>  <PUBCHEM_PHARMACOPHORE_FEATURES>  (1) 
0

>  <PUBCHEM_HEAVY_ATOM_COUNT>  (1) 
10

>  <PUBCHEM_ATOM_DEF_STEREO_COUNT>  (1) 
0

>  <PUBCHEM_ATOM_UDEF_STEREO_COUNT>  (1) 
0

>  <PUBCHEM_BOND_DEF_STEREO_COUNT>  (1) 
0

>  <PUBCHEM_BOND_UDEF_STEREO_COUNT>  (1) 
0

>  <PUBCHEM_ISOTOPIC_ATOM_COUNT>  (1) 
0

>  <PUBCHEM_COMPONENT_COUNT>  (1) 
1

>  <PUBCHEM_CACTVS_TAUTO_COUNT>  (1) 
1

>  <PUBCHEM_CONFORMER_ID>  (1) 
0000769800000001

>  <PUBCHEM_MMFF94_ENERGY>  (1) 
19.9975

>  <PUBCHEM_FEATURE_SELFOVERLAP>  (1) 
0

>  <PUBCHEM_SHAPE_FINGERPRINT>  (1) 
12423570 1 9238826179763538076
15775835 57 17917989507574932241
16945 1 18271232842536028150
18185500 45 17905018689335125196
21040471 1 18270680999194032524
21922407 69 15334559390703454942
2748010 2 18051678959214218788
29004967 10 18040709273100474592
5084963 1 17916282992440521486
528862 383 18260830457198447800
66348 1 17476910264916398406

>  <PUBCHEM_SHAPE_MULTIPOLES>  (1) 
189.96
2.77
1.96
1.04
0.87
0.18
0.04
-0.2
1.03
-0.57
-0.43
0.1
0.09
-0.09

>  <PUBCHEM_SHAPE_SELFOVERLAP>  (1) 
362.268

>  <PUBCHEM_SHAPE_VOLUME>  (1) 
114.7

>  <PUBCHEM_COORDINATE_TYPE>  (1) 
2
5
10

$$$$
