30366
     RDKit          3D

 20 21  0  0  1  0  0  0  0  0999 V2000
   -0.7081    0.0551   -0.2930 O   0  0  0  0  0  0  0  0  0  0  0  0
    0.5634   -0.7028    1.4502 O   0  0  0  0  0  0  0  0  0  0  0  0
   -4.3758   -0.1242    0.2553 N   0  0  0  0  0  0  0  0  0  0  0  0
    1.5293    0.1678   -0.4964 N   0  0  0  0  0  0  0  0  0  0  0  0
   -3.0930    0.0901   -0.4287 C   0  0  0  0  0  0  0  0  0  0  0  0
   -3.1291    1.5851   -0.7527 C   0  0  0  0  0  0  0  0  0  0  0  0
   -4.6085    1.9513   -0.8013 C   0  0  0  0  0  0  0  0  0  0  0  0
   -5.3483    0.6555   -0.5143 C   0  0  0  0  0  0  0  0  0  0  0  0
   -1.8844   -0.2746    0.4241 C   0  0  0  0  0  0  0  0  0  0  0  0
   -4.7603   -1.5284    0.3349 C   0  0  0  0  0  0  0  0  0  0  0  0
   -6.0965   -1.6926    1.0388 C   0  0  0  0  0  0  0  0  0  0  0  0
    0.4898   -0.2086    0.3318 C   0  0  0  0  0  0  0  0  0  0  0  0
    2.9176    0.0726   -0.2488 C   0  0  0  0  0  0  0  0  0  0  0  0
    3.5774    1.1314    0.3589 C   0  0  0  0  0  0  0  0  0  0  0  0
    3.5999   -1.0783   -0.6174 C   0  0  0  0  0  0  0  0  0  0  0  0
    4.9474    1.0374    0.6035 C   0  0  0  0  0  0  0  0  0  0  0  0
    4.9699   -1.1723   -0.3729 C   0  0  0  0  0  0  0  0  0  0  0  0
    2.8593    2.3785    0.7626 C   0  0  0  0  0  0  0  0  0  0  0  0
    2.9061   -2.2287   -1.2722 C   0  0  0  0  0  0  0  0  0  0  0  0
    5.6438   -0.1145    0.2375 C   0  0  0  0  0  0  0  0  0  0  0  0
  1  9  1  0
  1 12  1  0
  2 12  2  0
  3  5  1  0
  3  8  1  0
  3 10  1  0
  4 12  1  0
  4 13  1  0
  5  6  1  0
  5  9  1  0
  6  7  1  0
  7  8  1  0
 10 11  1  0
 13 14  2  0
 13 15  1  0
 14 16  1  0
 14 18  1  0
 15 17  2  0
 15 19  1  0
 16 20  2  0
 17 20  1  0
M  END
>  <PUBCHEM_COMPOUND_CID>  (1) 
30366

>  <PUBCHEM_CONFORMER_RMSD>  (1) 
0.8

>  <PUBCHEM_CONFORMER_DIVERSEORDER>  (1) 
1
57
90
81
98
19
68
97
64
71
60
6
92
48
70
95
94
32
15
50
12
76
85
65
40
47
45
101
87
44
100
79
74
62
42
80
36
82
102
9
31
54
69
17
14
56
96
41
38
63
39
83
55
27
52
73
29
84
91
11
22
10
49
2
4
66
51
75
77
37
16
13
89
18
59
72
99
93
25
23
7
34
46
30
78
5
67
33
21
61
20
86
43
28
53
24
3
35
8
88
26
58

>  <PUBCHEM_MMFF94_PARTIAL_CHARGES>  (1) 
21
1 -0.43
10 0.27
12 0.78
13 0.12
14 -0.14
15 -0.14
16 -0.15
17 -0.15
18 0.14
19 0.14
2 -0.57
20 -0.15
3 -0.81
35 0.37
36 0.15
37 0.15
4 -0.55
44 0.15
5 0.27
8 0.27
9 0.28

>  <PUBCHEM_EFFECTIVE_ROTOR_COUNT>  (1) 
7

>  <PUBCHEM_PHARMACOPHORE_FEATURES>  (1) 
5
1 2 acceptor
1 3 cation
1 4 donor
5 3 5 6 7 8 rings
6 13 14 15 16 17 20 rings

>  <PUBCHEM_HEAVY_ATOM_COUNT>  (1) 
20

>  <PUBCHEM_ATOM_DEF_STEREO_COUNT>  (1) 
0

>  <PUBCHEM_ATOM_UDEF_STEREO_COUNT>  (1) 
1

>  <PUBCHEM_BOND_DEF_STEREO_COUNT>  (1) 
0

>  <PUBCHEM_BOND_UDEF_STEREO_COUNT>  (1) 
0

>  <PUBCHEM_ISOTOPIC_ATOM_COUNT>  (1) 
0

>  <PUBCHEM_COMPONENT_COUNT>  (1) 
1

>  <PUBCHEM_CACTVS_TAUTO_COUNT>  (1) 
2

>  <PUBCHEM_CONFORMER_ID>  (1) 
0000769E00000001

>  <PUBCHEM_MMFF94_ENERGY>  (1) 
59.8099

>  <PUBCHEM_FEATURE_SELFOVERLAP>  (1) 
25.372

>  <PUBCHEM_SHAPE_FINGERPRINT>  (1) 
10366900 7 15719110271067170673
11287383 113 18411982472516053618
11545043 162 18333731316868430689
12166972 35 17749394788281651972
12236239 1 14996284712717111820
12616971 3 16128375999384469809
12730499 353 18342461473858444658
12916748 109 18187085074257398563
13073987 5 18186798058778313402
13533116 47 15985110670190092190
13583140 156 18272365369624829869
13760787 5 16702020872312498741
1420 363 18187650236535903619
14251764 18 17313097562964267688
14573314 32 18408603630281503700
14863182 85 15482676745697174220
15788980 27 18202278104444569357
15961568 22 17749955586804949564
17349148 13 16153427259695613987
17844677 252 18411425016137254601
18222031 100 16443061737775882783
19433438 28 18408039632672644561
19489759 90 17748825220263090417
200 152 17560798806027806024
20645477 56 18410007745685688901
20645477 70 18060144206700696342
21033648 29 18342161280961090929
21315763 129 18334292076130133068
21623969 137 18060708294541097047
221357 26 18342450405248376517
22289505 5 18341608171220791164
23402539 116 18040712571872500999
23557571 272 18333735727836597893
23559900 14 18412539907684130608
239999 70 18411984654903070814
2916195 48 18334851749197626424
351380 180 18410007736858721576
3545911 37 18272933847275026580
4073 2 18260271849562750419
4214541 1 18409729547742755157
4340502 62 18060419140516132886
4990 188 18335140860451907998
5104073 3 18340486668811379323
5281201 14 18413390925378596924
5283173 99 18409165472376254465
7495541 125 17632010965622972355
9995097 60 18342737412031499615

>  <PUBCHEM_SHAPE_MULTIPOLES>  (1) 
389.89
15.46
2.08
1.03
8.23
0.23
-0.04
-1.66
-0.8
0.21
0.15
0.2
-0.16
2.54

>  <PUBCHEM_SHAPE_SELFOVERLAP>  (1) 
802.527

>  <PUBCHEM_SHAPE_VOLUME>  (1) 
226.7

>  <PUBCHEM_COORDINATE_TYPE>  (1) 
2
5
10

$$$$
