3037
     RDKit          3D

 17 18  0  0  0  0  0  0  0  0999 V2000
   -4.8550    1.3401    0.2120 Cl  0  0  0  0  0  0  0  0  0  0  0  0
    4.8529   -1.3406    0.2121 Cl  0  0  0  0  0  0  0  0  0  0  0  0
   -0.1809   -2.1668   -0.3789 O   0  0  0  0  0  0  0  0  0  0  0  0
    0.1788    2.1664   -0.3787 O   0  0  0  0  0  0  0  0  0  0  0  0
   -0.0011   -0.0002    1.4744 C   0  0  0  0  0  0  0  0  0  0  0  0
   -1.2222   -0.2738    0.6597 C   0  0  0  0  0  0  0  0  0  0  0  0
    1.2377    0.2772    0.6480 C   0  0  0  0  0  0  0  0  0  0  0  0
   -1.2586   -1.3462   -0.2316 C   0  0  0  0  0  0  0  0  0  0  0  0
    1.2565    1.3457   -0.2314 C   0  0  0  0  0  0  0  0  0  0  0  0
   -2.3343    0.5568    0.7972 C   0  0  0  0  0  0  0  0  0  0  0  0
    2.3322   -0.5574    0.7972 C   0  0  0  0  0  0  0  0  0  0  0  0
   -2.4069   -1.5879   -0.9855 C   0  0  0  0  0  0  0  0  0  0  0  0
    2.4048    1.5875   -0.9852 C   0  0  0  0  0  0  0  0  0  0  0  0
   -3.4827    0.3152    0.0433 C   0  0  0  0  0  0  0  0  0  0  0  0
    3.4807   -0.3156    0.0435 C   0  0  0  0  0  0  0  0  0  0  0  0
   -3.5190   -0.7571   -0.8481 C   0  0  0  0  0  0  0  0  0  0  0  0
    3.5170    0.7568   -0.8478 C   0  0  0  0  0  0  0  0  0  0  0  0
  1 14  1  0
  2 15  1  0
  3  8  1  0
  4  9  1  0
  5  6  1  0
  5  7  1  0
  6  8  2  0
  6 10  1  0
  7  9  2  0
  7 11  1  0
  8 12  1  0
  9 13  1  0
 10 14  2  0
 11 15  2  0
 12 16  2  0
 13 17  2  0
 14 16  1  0
 15 17  1  0
M  END
>  <PUBCHEM_COMPOUND_CID>  (1) 
3037

>  <PUBCHEM_CONFORMER_RMSD>  (1) 
0.6

>  <PUBCHEM_CONFORMER_DIVERSEORDER>  (1) 
8
10
12
1
7
6
11
3
5
9
4
2

>  <PUBCHEM_MMFF94_PARTIAL_CHARGES>  (1) 
25
1 -0.18
10 -0.15
11 -0.15
12 -0.15
13 -0.15
14 0.18
15 0.18
16 -0.15
17 -0.15
2 -0.18
20 0.15
21 0.15
22 0.15
23 0.15
24 0.15
25 0.15
26 0.45
27 0.45
3 -0.53
4 -0.53
5 0.29
6 -0.14
7 -0.14
8 0.08
9 0.08

>  <PUBCHEM_EFFECTIVE_ROTOR_COUNT>  (1) 
2

>  <PUBCHEM_PHARMACOPHORE_FEATURES>  (1) 
4
1 3 donor
1 4 donor
6 6 8 10 12 14 16 rings
6 7 9 11 13 15 17 rings

>  <PUBCHEM_HEAVY_ATOM_COUNT>  (1) 
17

>  <PUBCHEM_ATOM_DEF_STEREO_COUNT>  (1) 
0

>  <PUBCHEM_ATOM_UDEF_STEREO_COUNT>  (1) 
0

>  <PUBCHEM_BOND_DEF_STEREO_COUNT>  (1) 
0

>  <PUBCHEM_BOND_UDEF_STEREO_COUNT>  (1) 
0

>  <PUBCHEM_ISOTOPIC_ATOM_COUNT>  (1) 
0

>  <PUBCHEM_COMPONENT_COUNT>  (1) 
1

>  <PUBCHEM_CACTVS_TAUTO_COUNT>  (1) 
5

>  <PUBCHEM_CONFORMER_ID>  (1) 
00000BDD00000008

>  <PUBCHEM_MMFF94_ENERGY>  (1) 
44.6858

>  <PUBCHEM_FEATURE_SELFOVERLAP>  (1) 
20.297

>  <PUBCHEM_SHAPE_FINGERPRINT>  (1) 
10062212 137 18272082803695283767
104564 63 17969776384879018284
11458722 120 18337955593112953081
11471102 22 12966862233951381392
11578080 2 18198880605226377728
116883 192 18267591204390784596
12236239 1 18410573972266549603
12592029 89 18339091410437106779
13549 16 18410855464428403858
13693222 15 11959741468360662022
13764800 53 14129601277845782367
14115302 16 18202847664315742410
14341114 328 8430317956551793015
14787075 74 9078814291064393807
14993402 34 18410575097547980823
15099037 51 18336547127165177815
15207287 21 15770057228628793966
15375358 24 15697999634596140578
15775835 57 18260550056296046125
16945 1 17906172102491242714
17834072 14 15985104119478423666
18186145 218 17095239246013973160
19422 9 18261674877928687935
20279233 1 15769779060845485846
20645476 183 18338234967961815479
23402539 116 18202275879598970245
23402655 69 18334579052991650492
23559900 14 17632572769384530832
25 1 17530964700342635768
26918003 58 12247682664596436373
296302 2 14979956990555998778
3082319 5 18338516455538032735
34934 24 18335422417602910844
57812782 119 15769777961265273209
633830 44 17676488358376293313
74978 22 18266458891564875790
7832392 63 18337109076544570173
81228 2 15768401338468957562
9981440 41 17400074674391991704

>  <PUBCHEM_SHAPE_MULTIPOLES>  (1) 
341.85
8.38
1.9
1.1
0.02
0
0.09
0
-0.72
0
-0.52
0
0
-1.07

>  <PUBCHEM_SHAPE_SELFOVERLAP>  (1) 
722.787

>  <PUBCHEM_SHAPE_VOLUME>  (1) 
193

>  <PUBCHEM_COORDINATE_TYPE>  (1) 
2
5
10

$$$$
