30371
     RDKit          3D

 20 21  0  0  1  0  0  0  0  0999 V2000
    2.4308   -2.6319   -0.7818 Cl  0  0  0  0  0  0  0  0  0  0  0  0
   -0.5748    0.5482    0.0454 O   0  0  0  0  0  0  0  0  0  0  0  0
    0.9493    1.0022   -1.5980 O   0  0  0  0  0  0  0  0  0  0  0  0
   -4.7662   -0.2983    0.5332 N   0  0  0  0  0  0  0  0  0  0  0  0
    1.5737    0.0066    0.4266 N   0  0  0  0  0  0  0  0  0  0  0  0
   -2.9227    0.9848   -0.0148 C   0  0  0  0  0  0  0  0  0  0  0  0
   -4.1147    1.5471   -0.7934 C   0  0  0  0  0  0  0  0  0  0  0  0
   -3.3308   -0.4513    0.2928 C   0  0  0  0  0  0  0  0  0  0  0  0
   -5.2513    0.5555   -0.5534 C   0  0  0  0  0  0  0  0  0  0  0  0
   -1.6061    1.0843   -0.7666 C   0  0  0  0  0  0  0  0  0  0  0  0
   -5.4612   -1.5755    0.5906 C   0  0  0  0  0  0  0  0  0  0  0  0
   -6.9464   -1.3814    0.8452 C   0  0  0  0  0  0  0  0  0  0  0  0
    0.6948    0.5587   -0.4848 C   0  0  0  0  0  0  0  0  0  0  0  0
    2.9685   -0.1768    0.2898 C   0  0  0  0  0  0  0  0  0  0  0  0
    3.8231    0.8353    0.7057 C   0  0  0  0  0  0  0  0  0  0  0  0
    3.4664   -1.3534   -0.2532 C   0  0  0  0  0  0  0  0  0  0  0  0
    5.2018    0.6675    0.5760 C   0  0  0  0  0  0  0  0  0  0  0  0
    3.3080    2.1103    1.2914 C   0  0  0  0  0  0  0  0  0  0  0  0
    4.8451   -1.5212   -0.3827 C   0  0  0  0  0  0  0  0  0  0  0  0
    5.7127   -0.5109    0.0319 C   0  0  0  0  0  0  0  0  0  0  0  0
  1 16  1  0
  2 10  1  0
  2 13  1  0
  3 13  2  0
  4  8  1  0
  4  9  1  0
  4 11  1  0
  5 13  1  0
  5 14  1  0
  6  7  1  0
  6  8  1  0
  6 10  1  0
  7  9  1  0
 11 12  1  0
 14 15  2  0
 14 16  1  0
 15 17  1  0
 15 18  1  0
 16 19  2  0
 17 20  2  0
 19 20  1  0
M  END
>  <PUBCHEM_COMPOUND_CID>  (1) 
30371

>  <PUBCHEM_CONFORMER_RMSD>  (1) 
0.8

>  <PUBCHEM_CONFORMER_DIVERSEORDER>  (1) 
1
15
209
197
146
219
47
54
55
243
135
37
122
212
203
210
142
188
29
205
128
174
179
194
39
190
78
83
49
145
244
134
246
224
159
177
223
149
13
245
74
8
2
153
26
251
124
107
215
208
121
200
144
216
185
176
17
64
110
202
137
53
226
30
228
178
105
249
45
221
255
125
38
100
119
28
36
247
20
231
186
250
82
152
48
62
140
168
240
123
58
87
207
109
103
165
50
214
237
242
93
156
21
12
233
71
61
112
181
89
139
5
220
101
66
229
222
3
232
136
41
4
171
46
91
96
106
84
193
95
206
198
141
154
236
189
14
225
256
44
196
9
164
130
113
217
195
16
162
238
111
65
166
191
97
138
241
227
114
94
24
158
6
117
88
201
43
161
68
42
19
98
79
132
104
118
230
184
23
129
102
86
157
199
85
213
148
7
22
172
253
75
254
92
81
150
31
163
40
80
131
77
34
218
155
67
169
52
76
180
143
56
239
192
234
33
59
175
170
204
126
133
108
167
120
70
252
211
73
35
235
160
151
127
10
173
115
25
60
147
69
187
57
183
51
99
72
116
182
32
11
248
18
63
90
27

>  <PUBCHEM_MMFF94_PARTIAL_CHARGES>  (1) 
21
1 -0.18
10 0.28
11 0.27
13 0.78
14 0.12
15 -0.14
16 0.18
17 -0.15
18 0.14
19 -0.15
2 -0.43
20 -0.15
3 -0.57
35 0.37
36 0.15
4 -0.81
40 0.15
41 0.15
5 -0.55
8 0.27
9 0.27

>  <PUBCHEM_EFFECTIVE_ROTOR_COUNT>  (1) 
7

>  <PUBCHEM_PHARMACOPHORE_FEATURES>  (1) 
5
1 3 acceptor
1 4 cation
1 5 donor
5 4 6 7 8 9 rings
6 14 15 16 17 19 20 rings

>  <PUBCHEM_HEAVY_ATOM_COUNT>  (1) 
20

>  <PUBCHEM_ATOM_DEF_STEREO_COUNT>  (1) 
0

>  <PUBCHEM_ATOM_UDEF_STEREO_COUNT>  (1) 
1

>  <PUBCHEM_BOND_DEF_STEREO_COUNT>  (1) 
0

>  <PUBCHEM_BOND_UDEF_STEREO_COUNT>  (1) 
0

>  <PUBCHEM_ISOTOPIC_ATOM_COUNT>  (1) 
0

>  <PUBCHEM_COMPONENT_COUNT>  (1) 
1

>  <PUBCHEM_CACTVS_TAUTO_COUNT>  (1) 
2

>  <PUBCHEM_CONFORMER_ID>  (1) 
000076A300000001

>  <PUBCHEM_MMFF94_ENERGY>  (1) 
61.5414

>  <PUBCHEM_FEATURE_SELFOVERLAP>  (1) 
25.371

>  <PUBCHEM_SHAPE_FINGERPRINT>  (1) 
10354089 29 17561082523204279120
10912923 1 16200141123524587957
11045977 3 18412259549388269952
11287383 113 18408039606902769288
11545043 162 18409163290633172897
12107183 9 17195458377707365691
12236239 1 14923944527111333000
12596602 18 17418098741199514603
12616971 3 16845287258976654049
12623949 98 18201168637352341830
12730499 353 18342457058795562322
13402501 40 18409168809318105531
13533116 47 18202005429961590163
13583140 156 18201428165019522845
13675066 3 18409445886659313557
13685833 64 18334861627975607771
13911882 115 18411991251371736455
13955234 65 18059848476985739970
1420 363 18409731768066650467
14341114 176 18131070441616994928
146900 427 17274538831732265336
14848160 23 18408319986757602533
15183329 4 16153698831073923903
15880784 105 18272653480516163659
17844677 252 18343868801060092529
18222031 100 17312820489363995980
193927 3 17749683960472122939
20281389 69 12463581664447444915
20645477 70 18130503020940196366
21033648 29 18199729415112227857
21033650 10 16155687696656916156
21054139 6 17240763994853624355
21150785 3 17023191556091567062
21197605 99 18270121356387470143
21623969 137 18272934912015953262
23402539 116 15213016025278858901
23557571 272 17895191035152170460
23559900 14 18335976524055360249
239999 70 18407760326933960754
300161 21 12035451657401408808
3004659 81 17240485840466563581
312425 54 18340779169691961771
4072396 5 8286200514572966732
4073 2 18334298643340629883
4325135 7 17894355509868652502
4340502 62 18130783482425944218
465052 167 18130791131736214438
5104073 3 18270677563120021633
59755656 215 18186234027036751099
7495541 125 18408601444828887072

>  <PUBCHEM_SHAPE_MULTIPOLES>  (1) 
391.76
16.42
2.09
1.05
14.71
0.7
-0.08
4.89
3.54
-0.8
-0.05
0.14
-0.21
2.28

>  <PUBCHEM_SHAPE_SELFOVERLAP>  (1) 
799.13

>  <PUBCHEM_SHAPE_VOLUME>  (1) 
230.2

>  <PUBCHEM_COORDINATE_TYPE>  (1) 
2
5
10

$$$$
