30393
     RDKit          3D

 31 34  0  0  0  0  0  0  0  0999 V2000
    3.6662    0.9681   -0.0598 O   0  0  0  0  0  0  0  0  0  0  0  0
   -5.2065   -1.0315    0.0776 O   0  0  0  0  0  0  0  0  0  0  0  0
   -5.9055    0.9539    1.0095 O   0  0  0  0  0  0  0  0  0  0  0  0
    5.0326   -2.4346    0.3165 N   0  0  0  0  0  0  0  0  0  0  0  0
    0.3770    1.8281    0.0110 N   0  0  0  0  0  0  0  0  0  0  0  0
    1.3495    0.9038    0.0805 N   0  0  0  0  0  0  0  0  0  0  0  0
    4.6508   -3.1352   -0.9177 C   0  0  0  0  0  0  0  0  0  0  0  0
    6.3463   -2.8844    0.7980 C   0  0  0  0  0  0  0  0  0  0  0  0
    4.5968   -4.6479   -0.6991 C   0  0  0  0  0  0  0  0  0  0  0  0
    6.3476   -4.3890    1.0729 C   0  0  0  0  0  0  0  0  0  0  0  0
    5.9205   -5.1780   -0.1596 C   0  0  0  0  0  0  0  0  0  0  0  0
    5.0338   -0.9874    0.1037 C   0  0  0  0  0  0  0  0  0  0  0  0
    3.6159   -0.4393    0.1335 C   0  0  0  0  0  0  0  0  0  0  0  0
    2.4657    1.6183   -0.0795 C   0  0  0  0  0  0  0  0  0  0  0  0
    2.2141    2.9965   -0.2516 C   0  0  0  0  0  0  0  0  0  0  0  0
    0.8294    3.1047   -0.1876 C   0  0  0  0  0  0  0  0  0  0  0  0
   -0.9559    1.4357    0.1405 C   0  0  0  0  0  0  0  0  0  0  0  0
    2.9862    4.1530   -0.4517 C   0  0  0  0  0  0  0  0  0  0  0  0
    0.1538    4.3204   -0.3136 C   0  0  0  0  0  0  0  0  0  0  0  0
    2.3282    5.3826   -0.5806 C   0  0  0  0  0  0  0  0  0  0  0  0
    0.9360    5.4627   -0.5129 C   0  0  0  0  0  0  0  0  0  0  0  0
   -1.3522    0.1642   -0.2745 C   0  0  0  0  0  0  0  0  0  0  0  0
   -1.8918    2.3147    0.6857 C   0  0  0  0  0  0  0  0  0  0  0  0
   -3.6203    0.6509    0.4007 C   0  0  0  0  0  0  0  0  0  0  0  0
   -2.6843   -0.2281   -0.1443 C   0  0  0  0  0  0  0  0  0  0  0  0
   -3.2240    1.9222    0.8157 C   0  0  0  0  0  0  0  0  0  0  0  0
   -6.5501   -2.9661   -0.3981 C   0  0  0  0  0  0  0  0  0  0  0  0
   -6.5388   -1.5493    0.1580 C   0  0  0  0  0  0  0  0  0  0  0  0
   -7.9483   -3.5763   -0.3577 C   0  0  0  0  0  0  0  0  0  0  0  0
   -5.0092    0.2419    0.5376 C   0  0  0  0  0  0  0  0  0  0  0  0
   -7.9633   -4.9748   -0.9535 C   0  0  0  0  0  0  0  0  0  0  0  0
  1 13  1  0
  1 14  1  0
  2 28  1  0
  2 30  1  0
  3 30  2  0
  4  7  1  0
  4  8  1  0
  4 12  1  0
  5  6  1  0
  5 16  1  0
  5 17  1  0
  6 14  2  0
  7  9  1  0
  8 10  1  0
  9 11  1  0
 10 11  1  0
 12 13  1  0
 14 15  1  0
 15 16  2  0
 15 18  1  0
 16 19  1  0
 17 22  2  0
 17 23  1  0
 18 20  2  0
 19 21  2  0
 20 21  1  0
 22 25  1  0
 23 26  2  0
 24 25  2  0
 24 26  1  0
 24 30  1  0
 27 28  1  0
 27 29  1  0
 29 31  1  0
M  END
>  <PUBCHEM_COMPOUND_CID>  (1) 
30393

>  <PUBCHEM_CONFORMER_RMSD>  (1) 
1

>  <PUBCHEM_CONFORMER_DIVERSEORDER>  (1) 
1
18
69
27
66
51
25
33
36
74
40
32
53
23
76
67
46
14
29
20
60
22
70
44
41
72
8
12
17
28
52
43
49
9
37
57
38
16
63
35
45
65
68
73
48
11
42
55
59
31
61
10
26
75
34
21
77
71
2
30
50
47
58
54
4
78
64
39
6
62
13
56
7
24
19
15
5
3

>  <PUBCHEM_MMFF94_PARTIAL_CHARGES>  (1) 
32
1 -0.34
12 0.27
13 0.28
14 0.35
16 -0.15
17 -0.02
18 -0.15
19 -0.15
2 -0.43
20 -0.15
21 -0.15
22 -0.15
23 -0.15
24 0.09
25 -0.15
26 -0.15
28 0.28
3 -0.57
30 0.63
4 -0.81
46 0.15
47 0.15
48 0.15
49 0.15
5 0.59
50 0.15
51 0.15
52 0.15
53 0.15
6 -0.71
7 0.27
8 0.27

>  <PUBCHEM_EFFECTIVE_ROTOR_COUNT>  (1) 
11.2

>  <PUBCHEM_PHARMACOPHORE_FEATURES>  (1) 
7
1 3 acceptor
1 31 hydrophobe
1 4 cation
5 5 6 14 15 16 rings
6 15 16 18 19 20 21 rings
6 17 22 23 24 25 26 rings
6 4 7 8 9 10 11 rings

>  <PUBCHEM_HEAVY_ATOM_COUNT>  (1) 
31

>  <PUBCHEM_ATOM_DEF_STEREO_COUNT>  (1) 
0

>  <PUBCHEM_ATOM_UDEF_STEREO_COUNT>  (1) 
0

>  <PUBCHEM_BOND_DEF_STEREO_COUNT>  (1) 
0

>  <PUBCHEM_BOND_UDEF_STEREO_COUNT>  (1) 
0

>  <PUBCHEM_ISOTOPIC_ATOM_COUNT>  (1) 
0

>  <PUBCHEM_COMPONENT_COUNT>  (1) 
1

>  <PUBCHEM_CACTVS_TAUTO_COUNT>  (1) 
1

>  <PUBCHEM_CONFORMER_ID>  (1) 
000076B900000001

>  <PUBCHEM_MMFF94_ENERGY>  (1) 
71.5371

>  <PUBCHEM_FEATURE_SELFOVERLAP>  (1) 
35.613

>  <PUBCHEM_SHAPE_FINGERPRINT>  (1) 
10319688 140 18265616665658025396
10411042 1 18336548196992180472
10595046 47 18124884710286932153
10622 236 18272080648032787703
11409948 35 18339919446759156487
11621639 307 8141798323354899155
117089 54 18411706460680728155
11761917 116 18339651032282049582
11963148 33 17838613715142428111
12107183 9 18269286685929214201
13533116 47 18194683889949867449
13692114 37 17835231625611441056
13782708 43 17967531290157835987
13785724 45 18339934696799984988
13911852 28 18409731720685100460
14347332 77 18047198449821719876
14866123 147 17834400025127120320
15042514 8 17977388235755142600
15467298 65 17983288528751318079
16992752 21 18193569878928972078
17492 89 18410856581616351273
19319366 153 17838899583253315437
21585483 132 18334845117895527907
23523788 1 18123717995178737290
23559900 14 18408881850222104505
23569914 152 18122311655561559149
24771750 20 17826243066805363572
255183 451 18410293613991891588
2748736 6 9510880536668980050
2835820 82 18337954606051930747
3103668 31 17754738221567185693
32027 91 18410569561768153253
3504750 166 17831579773986253842
3534868 343 18120664784390873213
4409770 3 17612592228804646204
45270241 37 17974007555754125229
4756088 132 17905037058611167986
50009960 94 18410565189317911959
6058803 2 18270141083652464913
6441014 3 18195244421420450386
70251023 43 18337389443541226441
7970288 3 18337672997324215226
9555976 147 17703523121101444203
9831232 110 18337951289967276887

>  <PUBCHEM_SHAPE_MULTIPOLES>  (1) 
605.41
20.07
9.88
0.87
27.49
0.83
0.03
43.68
0.18
-10.14
-2.35
-0.03
0.31
-3.33

>  <PUBCHEM_SHAPE_SELFOVERLAP>  (1) 
1287.473

>  <PUBCHEM_SHAPE_VOLUME>  (1) 
339.5

>  <PUBCHEM_COORDINATE_TYPE>  (1) 
2
5
10

$$$$
