30399
     RDKit          3D

 15 16  0  0  0  0  0  0  0  0999 V2000
   -4.1923   -1.4914   -0.1382 O   0  0  0  0  0  0  0  0  0  0  0  0
   -2.2009    2.6116    0.3294 O   0  0  0  0  0  0  0  0  0  0  0  0
    0.4344   -1.1631   -0.1392 N   0  0  0  0  0  0  0  0  0  0  0  0
   -1.8947   -1.3030   -0.1351 N   0  0  0  0  0  0  0  0  0  0  0  0
   -3.2153    0.5853    0.0985 N   0  0  0  0  0  0  0  0  0  0  0  0
   -0.8477    0.7841    0.1014 N   0  0  0  0  0  0  0  0  0  0  0  0
    1.7069   -0.5934   -0.0850 C   0  0  0  0  0  0  0  0  0  0  0  0
   -0.7645   -0.5072   -0.0514 C   0  0  0  0  0  0  0  0  0  0  0  0
    2.7917   -1.3205    0.4267 C   0  0  0  0  0  0  0  0  0  0  0  0
    1.9226    0.7150   -0.5418 C   0  0  0  0  0  0  0  0  0  0  0  0
   -3.1819   -0.7938   -0.0644 C   0  0  0  0  0  0  0  0  0  0  0  0
    4.0642   -0.7518    0.4802 C   0  0  0  0  0  0  0  0  0  0  0  0
    3.1952    1.2837   -0.4883 C   0  0  0  0  0  0  0  0  0  0  0  0
    4.2660    0.5504    0.0227 C   0  0  0  0  0  0  0  0  0  0  0  0
   -2.0837    1.3941    0.1844 C   0  0  0  0  0  0  0  0  0  0  0  0
  1 11  2  0
  2 15  2  0
  3  7  1  0
  3  8  1  0
  4  8  1  0
  4 11  1  0
  5 11  1  0
  5 15  1  0
  6  8  2  0
  6 15  1  0
  7  9  2  0
  7 10  1  0
  9 12  1  0
 10 13  2  0
 12 14  2  0
 13 14  1  0
M  END
>  <PUBCHEM_COMPOUND_CID>  (1) 
30399

>  <PUBCHEM_CONFORMER_RMSD>  (1) 
0.6

>  <PUBCHEM_CONFORMER_DIVERSEORDER>  (1) 
1
4
3
2

>  <PUBCHEM_MMFF94_PARTIAL_CHARGES>  (1) 
23
1 -0.57
10 -0.15
11 0.69
12 -0.15
13 -0.15
14 -0.15
15 0.84
16 0.4
17 0.37
18 0.15
19 0.15
2 -0.57
20 0.15
21 0.15
22 0.37
23 0.15
3 -0.55
4 -0.49
5 -0.49
6 -0.66
7 0.1
8 0.56
9 -0.15

>  <PUBCHEM_EFFECTIVE_ROTOR_COUNT>  (1) 
2

>  <PUBCHEM_PHARMACOPHORE_FEATURES>  (1) 
8
1 1 acceptor
1 2 acceptor
1 3 donor
1 4 donor
1 5 donor
1 6 donor
6 4 5 6 8 11 15 rings
6 7 9 10 12 13 14 rings

>  <PUBCHEM_HEAVY_ATOM_COUNT>  (1) 
15

>  <PUBCHEM_ATOM_DEF_STEREO_COUNT>  (1) 
0

>  <PUBCHEM_ATOM_UDEF_STEREO_COUNT>  (1) 
0

>  <PUBCHEM_BOND_DEF_STEREO_COUNT>  (1) 
0

>  <PUBCHEM_BOND_UDEF_STEREO_COUNT>  (1) 
0

>  <PUBCHEM_ISOTOPIC_ATOM_COUNT>  (1) 
0

>  <PUBCHEM_COMPONENT_COUNT>  (1) 
1

>  <PUBCHEM_CACTVS_TAUTO_COUNT>  (1) 
10

>  <PUBCHEM_CONFORMER_ID>  (1) 
000076BF00000001

>  <PUBCHEM_MMFF94_ENERGY>  (1) 
45.4098

>  <PUBCHEM_FEATURE_SELFOVERLAP>  (1) 
40.806

>  <PUBCHEM_SHAPE_FINGERPRINT>  (1) 
10608611 8 18341330003015217056
12162725 195 18407479955431327802
12251169 10 18335139756887750156
14144814 61 18408604742983877786
14325111 11 18410293588517519388
15196674 1 18410011031235592788
15375358 24 12035443947992822944
15375462 478 18411135861373643886
15442244 35 18192429671853167266
15536298 74 18411982447331747294
15669948 3 18272365416553413494
15775835 57 18410299090397246208
1741750 31 17986676956945917553
17492 89 18410010996544337699
17802600 8 18412821408657465800
17862501 102 18261384542693038690
18186145 218 18260266304970831238
18522853 276 18410290332921843976
19050596 39 18409168800701232027
19422 9 18334576811334895138
200 152 18336537296343928479
20510252 161 18272936007321816969
20559304 39 18410011057279527780
21267235 1 18409175415367969318
21501502 16 18408888399661627928
21652331 79 18340486767675007560
2255824 54 17822015307209695474
23048698 100 17603583054090541806
23402539 116 18341603845956446887
23463225 33 18335421249097155548
23557571 272 17917440816781084100
23559900 14 18128252277688634510
25610 137 18337112366647365159
26918003 58 17895191151232260115
474 4 17532096184208538956
5104073 3 18410011018287193458
5374978 207 18410570720981678690
57096353 35 18336829796258900230
7364860 26 18198063582234767646
9709674 26 18410299098887402186

>  <PUBCHEM_SHAPE_MULTIPOLES>  (1) 
277.03
8.08
1.88
0.66
0.79
0.73
-0.01
-0.68
0.33
-1.05
0.12
0.21
0.03
-0.67

>  <PUBCHEM_SHAPE_SELFOVERLAP>  (1) 
594.889

>  <PUBCHEM_SHAPE_VOLUME>  (1) 
150.2

>  <PUBCHEM_COORDINATE_TYPE>  (1) 
2
5
10

$$$$
