30398
     RDKit          3D

 18 17  0  0  1  0  0  0  0  0999 V2000
   -2.2458    2.2638   -0.6611 C   0  0  0  0  0  0  0  0  0  0  0  0
   -1.7114    2.5227    0.7623 C   0  0  0  0  0  0  0  0  0  0  0  0
   -2.6852    0.8086   -0.9254 C   0  0  0  0  0  0  0  0  0  0  0  0
   -0.6055    1.5771    1.2454 C   0  0  0  0  0  0  0  0  0  0  0  0
    0.6712    1.6531    0.4057 C   0  0  0  0  0  0  0  0  0  0  0  0
   -3.9316    0.3536   -0.1578 C   0  0  0  0  0  0  0  0  0  0  0  0
    1.7372    0.6869    0.9305 C   0  0  0  0  0  0  0  0  0  0  0  0
   -3.3757    3.2520   -0.9734 C   0  0  0  0  0  0  0  0  0  0  0  0
    3.0026    0.7399    0.0715 C   0  0  0  0  0  0  0  0  0  0  0  0
   -4.3252   -1.0737   -0.5494 C   0  0  0  0  0  0  0  0  0  0  0  0
    4.0953   -0.2309    0.5315 C   0  0  0  0  0  0  0  0  0  0  0  0
   -5.5830   -1.5774    0.1653 C   0  0  0  0  0  0  0  0  0  0  0  0
    5.3509   -0.1901   -0.3437 C   0  0  0  0  0  0  0  0  0  0  0  0
    6.4709   -1.1078    0.1578 C   0  0  0  0  0  0  0  0  0  0  0  0
   -6.0110   -3.0083   -0.1704 C   0  0  0  0  0  0  0  0  0  0  0  0
    7.6988   -1.1263   -0.7535 C   0  0  0  0  0  0  0  0  0  0  0  0
   -7.2992   -3.4355    0.5154 C   0  0  0  0  0  0  0  0  0  0  0  0
    8.7468   -2.1078   -0.2508 C   0  0  0  0  0  0  0  0  0  0  0  0
  1  2  1  0
  1  3  1  0
  1  8  1  0
  2  4  1  0
  3  6  1  0
  4  5  1  0
  5  7  1  0
  6 10  1  0
  7  9  1  0
  9 11  1  0
 10 12  1  0
 11 13  1  0
 12 15  1  0
 13 14  1  0
 14 16  1  0
 15 17  1  0
 16 18  1  0
M  END
>  <PUBCHEM_COMPOUND_CID>  (1) 
30398

>  <PUBCHEM_CONFORMER_RMSD>  (1) 
1.4

>  <PUBCHEM_CONFORMER_DIVERSEORDER>  (1) 
1
67
2
35
66
3
10
54
65
23
33
13
37
15
69
40
41
31
18
44
55
20
58
22
34
25
45
28
59
9
14
57
24
6
70
49
48
17
68
12
52
56
30
36
27
38
50
11
47
42
4
26
16
46
5
51
64
8
63
53
43
61
60
62
39
32
29
21
7
19

>  <PUBCHEM_MMFF94_PARTIAL_CHARGES>  (1) 
0

>  <PUBCHEM_EFFECTIVE_ROTOR_COUNT>  (1) 
14

>  <PUBCHEM_PHARMACOPHORE_FEATURES>  (1) 
3
1 17 hydrophobe
1 18 hydrophobe
1 8 hydrophobe

>  <PUBCHEM_HEAVY_ATOM_COUNT>  (1) 
18

>  <PUBCHEM_ATOM_DEF_STEREO_COUNT>  (1) 
0

>  <PUBCHEM_ATOM_UDEF_STEREO_COUNT>  (1) 
1

>  <PUBCHEM_BOND_DEF_STEREO_COUNT>  (1) 
0

>  <PUBCHEM_BOND_UDEF_STEREO_COUNT>  (1) 
0

>  <PUBCHEM_ISOTOPIC_ATOM_COUNT>  (1) 
0

>  <PUBCHEM_COMPONENT_COUNT>  (1) 
1

>  <PUBCHEM_CACTVS_TAUTO_COUNT>  (1) 
1

>  <PUBCHEM_CONFORMER_ID>  (1) 
000076BE00000001

>  <PUBCHEM_MMFF94_ENERGY>  (1) 
1.393

>  <PUBCHEM_FEATURE_SELFOVERLAP>  (1) 
15.223

>  <PUBCHEM_SHAPE_FINGERPRINT>  (1) 
11761917 87 17972046001605080795
11809386 21 18262226738418872241
12643181 29 18341327808571629133
13540713 4 18269534170276567049
13631057 29 18408321077273341426
13673619 4 18272370914422580817
13757389 114 17969211241152617765
14123256 34 18337672022640828739
14211702 104 18058454210443088038
14251764 30 18338796840263294459
14420673 8 18338799031103193659
14428016 167 18199744920545897535
14598715 104 11386661753801182774
14931854 50 17821999939458417459
15061688 2 9295025578409760593
1768 4 10665220420604045519
18335252 98 18271524295476258632
18643901 69 18408604747642887717
20281389 69 11891348530295288140
20621476 21 18343301478618551363
21054139 6 18260267413615836162
21095086 4 18263649635758202435
21150785 3 18040439880810772764
21307412 95 18337094775253054007
21344244 246 18188777283579537236
21401589 2 8934731049852215013
21585481 104 15431136021401591855
22288116 15 17749117673181594882
22765269 38 8790620203766638259
23424782 7 18341611547481550936
270888 7 9078849476037914859
393628 194 8862951584743481243
4107672 100 17821719513102151597
58260988 114 18271535234367753713
6327066 14 8430324523836369891
636775 8 18343310249917872326
8217 86 18409728503701789913
999808 66 17988641883066698550

>  <PUBCHEM_SHAPE_MULTIPOLES>  (1) 
370.43
23.8
3.98
1.01
36.38
0.74
-0.05
31.53
3.29
-8.89
0.13
-0.2
-0.41
1.79

>  <PUBCHEM_SHAPE_SELFOVERLAP>  (1) 
662.864

>  <PUBCHEM_SHAPE_VOLUME>  (1) 
241

>  <PUBCHEM_COORDINATE_TYPE>  (1) 
2
5
10

$$$$
