30403
     RDKit          3D

 19 21  0  0  0  0  0  0  0  0999 V2000
    5.4936    1.8773    0.3159 Cl  0  0  0  0  0  0  0  0  0  0  0  0
   -6.3465    0.5845   -0.0876 Cl  0  0  0  0  0  0  0  0  0  0  0  0
    1.1961   -2.0527   -0.4311 O   0  0  0  0  0  0  0  0  0  0  0  0
    0.2002    1.8445    0.1679 O   0  0  0  0  0  0  0  0  0  0  0  0
   -0.4860   -0.4068    0.0757 N   0  0  0  0  0  0  0  0  0  0  0  0
    0.0019   -1.7663    0.3068 C   0  0  0  0  0  0  0  0  0  0  0  0
    1.8608    0.2181    0.0470 C   0  0  0  0  0  0  0  0  0  0  0  0
    0.4443    0.6439    0.0975 C   0  0  0  0  0  0  0  0  0  0  0  0
    2.1653   -1.1118   -0.2343 C   0  0  0  0  0  0  0  0  0  0  0  0
   -1.9049   -0.1666    0.0367 C   0  0  0  0  0  0  0  0  0  0  0  0
    2.8920    1.1472    0.2195 C   0  0  0  0  0  0  0  0  0  0  0  0
    3.4931   -1.5163   -0.3730 C   0  0  0  0  0  0  0  0  0  0  0  0
   -2.3971    0.9786   -0.5844 C   0  0  0  0  0  0  0  0  0  0  0  0
   -2.7791   -1.0806    0.6196 C   0  0  0  0  0  0  0  0  0  0  0  0
    4.2213    0.7373    0.1027 C   0  0  0  0  0  0  0  0  0  0  0  0
    4.5214   -0.5913   -0.1972 C   0  0  0  0  0  0  0  0  0  0  0  0
   -3.7720    1.2112   -0.6229 C   0  0  0  0  0  0  0  0  0  0  0  0
   -4.1539   -0.8481    0.5812 C   0  0  0  0  0  0  0  0  0  0  0  0
   -4.6503    0.2979   -0.0399 C   0  0  0  0  0  0  0  0  0  0  0  0
  1 15  1  0
  2 19  1  0
  3  6  1  0
  3  9  1  0
  4  8  2  0
  5  6  1  0
  5  8  1  0
  5 10  1  0
  7  8  1  0
  7  9  2  0
  7 11  1  0
  9 12  1  0
 10 13  2  0
 10 14  1  0
 11 15  2  0
 12 16  2  0
 13 17  1  0
 14 18  2  0
 15 16  1  0
 17 19  2  0
 18 19  1  0
M  END
>  <PUBCHEM_COMPOUND_CID>  (1) 
30403

>  <PUBCHEM_CONFORMER_RMSD>  (1) 
0.6

>  <PUBCHEM_CONFORMER_DIVERSEORDER>  (1) 
1
2

>  <PUBCHEM_MMFF94_PARTIAL_CHARGES>  (1) 
26
1 -0.18
10 0.12
11 -0.15
12 -0.15
13 -0.15
14 -0.15
15 0.18
16 -0.15
17 -0.15
18 -0.15
19 0.18
2 -0.18
22 0.15
23 0.15
24 0.15
25 0.15
26 0.15
27 0.15
28 0.15
3 -0.36
4 -0.57
5 -0.48
6 0.58
7 0.09
8 0.54
9 0.08

>  <PUBCHEM_EFFECTIVE_ROTOR_COUNT>  (1) 
1.6

>  <PUBCHEM_PHARMACOPHORE_FEATURES>  (1) 
5
1 3 acceptor
1 4 acceptor
6 10 13 14 17 18 19 rings
6 3 5 6 7 8 9 rings
6 7 9 11 12 15 16 rings

>  <PUBCHEM_HEAVY_ATOM_COUNT>  (1) 
19

>  <PUBCHEM_ATOM_DEF_STEREO_COUNT>  (1) 
0

>  <PUBCHEM_ATOM_UDEF_STEREO_COUNT>  (1) 
0

>  <PUBCHEM_BOND_DEF_STEREO_COUNT>  (1) 
0

>  <PUBCHEM_BOND_UDEF_STEREO_COUNT>  (1) 
0

>  <PUBCHEM_ISOTOPIC_ATOM_COUNT>  (1) 
0

>  <PUBCHEM_COMPONENT_COUNT>  (1) 
1

>  <PUBCHEM_CACTVS_TAUTO_COUNT>  (1) 
1

>  <PUBCHEM_CONFORMER_ID>  (1) 
000076C300000001

>  <PUBCHEM_MMFF94_ENERGY>  (1) 
66.5308

>  <PUBCHEM_FEATURE_SELFOVERLAP>  (1) 
25.404

>  <PUBCHEM_SHAPE_FINGERPRINT>  (1) 
10 15 18041278863094610112
10411042 1 17908144270661510934
11471102 20 18341895181987911318
12236239 1 17346599660397420825
12403259 415 18260825964736678532
12730499 353 18411144623128487603
13081056 2 18408604738367170237
13402501 40 18407758144668730509
13675066 3 18334861644633159418
14341114 176 18408329877998888857
14386348 63 18334298656367871787
15196674 1 18410575097579863186
15219456 202 18409167701210833007
15375358 24 18408324384413996467
15961568 22 17458632263138103772
17834072 33 17988638610491457975
19141452 34 18412265060575252151
200 152 17988922267459169907
20279233 1 18334583429863790963
20645477 56 18334855056127083425
20645477 70 18201439121238417414
21267235 1 18340495464830853166
21279426 13 18194118516970103725
21452121 103 18341323449380251536
221357 26 18271525303828429789
22854114 59 18410577296692666187
23402539 116 18261667168372649527
23402655 69 18202001031730280702
23557571 272 17386288679679494861
23559900 14 18337110064946243394
2871803 45 18337111163755932902
29717793 49 17274829012813341604
335352 9 18412545414797412518
33824 294 18410573964167582402
34934 24 18411976983484779610
3545911 37 18408605855100891101
4072396 5 18337660954488813314
4073 2 18187370960477135635
4214541 1 18408886205207776197
42630746 31 18343864403224142734
4340502 62 16805321093680544530
495365 180 17632002144277065762
5104073 3 18261958449112995643
542803 24 16917071053449949265
69090 78 18342455962761717935
7495541 125 14346374419168001093
77779 3 18409731746528529895
9709674 26 18335990830232655699

>  <PUBCHEM_SHAPE_MULTIPOLES>  (1) 
378.03
12.34
1.89
0.72
5.45
0.18
0
-4.11
0.15
-1.41
-0.01
0.15
0.01
0.94

>  <PUBCHEM_SHAPE_SELFOVERLAP>  (1) 
815.27

>  <PUBCHEM_SHAPE_VOLUME>  (1) 
209.2

>  <PUBCHEM_COORDINATE_TYPE>  (1) 
2
5
10

$$$$
