30431
     RDKit          3D

 17 19  0  0  0  0  0  0  0  0999 V2000
    1.2555    1.8264   -0.4653 O   0  0  0  0  0  0  0  0  0  0  0  0
    0.0381   -1.9864    0.2563 O   0  0  0  0  0  0  0  0  0  0  0  0
   -0.5225    0.2937    0.0694 N   0  0  0  0  0  0  0  0  0  0  0  0
    0.0350    1.6327    0.2597 C   0  0  0  0  0  0  0  0  0  0  0  0
    1.7868   -0.4577    0.1063 C   0  0  0  0  0  0  0  0  0  0  0  0
    0.3485   -0.8042    0.1463 C   0  0  0  0  0  0  0  0  0  0  0  0
    2.1682    0.8425   -0.2166 C   0  0  0  0  0  0  0  0  0  0  0  0
   -1.9517    0.1292    0.0134 C   0  0  0  0  0  0  0  0  0  0  0  0
    2.7629   -1.4342    0.3307 C   0  0  0  0  0  0  0  0  0  0  0  0
    3.5184    1.1694   -0.3449 C   0  0  0  0  0  0  0  0  0  0  0  0
   -2.4955   -1.0102   -0.5746 C   0  0  0  0  0  0  0  0  0  0  0  0
   -2.7840    1.1103    0.5465 C   0  0  0  0  0  0  0  0  0  0  0  0
    4.1144   -1.1013    0.2241 C   0  0  0  0  0  0  0  0  0  0  0  0
    4.4915    0.1973   -0.1171 C   0  0  0  0  0  0  0  0  0  0  0  0
   -3.8801   -1.1695   -0.6294 C   0  0  0  0  0  0  0  0  0  0  0  0
   -4.1687    0.9509    0.4916 C   0  0  0  0  0  0  0  0  0  0  0  0
   -4.7168   -0.1890   -0.0964 C   0  0  0  0  0  0  0  0  0  0  0  0
  1  4  1  0
  1  7  1  0
  2  6  2  0
  3  4  1  0
  3  6  1  0
  3  8  1  0
  5  6  1  0
  5  7  2  0
  5  9  1  0
  7 10  1  0
  8 11  2  0
  8 12  1  0
  9 13  2  0
 10 14  2  0
 11 15  1  0
 12 16  2  0
 13 14  1  0
 15 17  2  0
 16 17  1  0
M  END
>  <PUBCHEM_COMPOUND_CID>  (1) 
30431

>  <PUBCHEM_CONFORMER_RMSD>  (1) 
0.6

>  <PUBCHEM_CONFORMER_DIVERSEORDER>  (1) 
2
1

>  <PUBCHEM_MMFF94_PARTIAL_CHARGES>  (1) 
26
1 -0.36
10 -0.15
11 -0.15
12 -0.15
13 -0.15
14 -0.15
15 -0.15
16 -0.15
17 -0.15
2 -0.57
20 0.15
21 0.15
22 0.15
23 0.15
24 0.15
25 0.15
26 0.15
27 0.15
28 0.15
3 -0.48
4 0.58
5 0.09
6 0.54
7 0.08
8 0.12
9 -0.15

>  <PUBCHEM_EFFECTIVE_ROTOR_COUNT>  (1) 
1.6

>  <PUBCHEM_PHARMACOPHORE_FEATURES>  (1) 
5
1 1 acceptor
1 2 acceptor
6 1 3 4 5 6 7 rings
6 5 7 9 10 13 14 rings
6 8 11 12 15 16 17 rings

>  <PUBCHEM_HEAVY_ATOM_COUNT>  (1) 
17

>  <PUBCHEM_ATOM_DEF_STEREO_COUNT>  (1) 
0

>  <PUBCHEM_ATOM_UDEF_STEREO_COUNT>  (1) 
0

>  <PUBCHEM_BOND_DEF_STEREO_COUNT>  (1) 
0

>  <PUBCHEM_BOND_UDEF_STEREO_COUNT>  (1) 
0

>  <PUBCHEM_ISOTOPIC_ATOM_COUNT>  (1) 
0

>  <PUBCHEM_COMPONENT_COUNT>  (1) 
1

>  <PUBCHEM_CACTVS_TAUTO_COUNT>  (1) 
1

>  <PUBCHEM_CONFORMER_ID>  (1) 
000076DF00000002

>  <PUBCHEM_MMFF94_ENERGY>  (1) 
64.978

>  <PUBCHEM_FEATURE_SELFOVERLAP>  (1) 
25.404

>  <PUBCHEM_SHAPE_FINGERPRINT>  (1) 
10062212 137 18343015601601075271
10616163 171 18271526498046012479
11132069 177 18342171142131597072
11401426 45 18412259545219864112
11471102 20 18334294275422102132
11806522 49 18411416245602740759
12107183 9 17692535511535058347
12236239 1 18272652346634033185
13167823 11 18413388743624757799
13690532 89 18408602556771690570
13760787 5 18113622278789790132
13862211 1 18335698309027275786
14251717 144 18407758140310284318
14576447 43 18341042038195352831
15196674 1 18410856559639789569
15375462 189 18335417933034269667
15442244 35 18339361859826333152
15536298 74 18342737433775380808
16945 1 18261680367318885380
17862501 102 18412540985889532162
18186145 218 18260264140075199022
18522853 276 18342737420705921161
19422 9 18413671313934063031
200 152 18343295986046151589
20612939 158 18187649132386475820
20645477 70 18335700516186778694
21267235 1 18411708672577556447
221490 88 18191310587769370563
2255824 54 18260550047742846222
22646028 1 18342173371330399837
22646028 28 18413386540390859511
23402539 116 18343577434915513390
23402655 69 18410573968024563533
23463225 33 18410575063188242460
23557571 272 15769790017439265105
23559900 14 18131068268912156448
2748010 2 17760095403410680496
29717793 49 18059853944078168133
4214541 1 18412826859102885105
474 4 17968943140170724852
4990 188 18060429001560097526
5104073 3 18412263947756431307
537710 114 18410015442235610020
602551 16 16056304141654559927
633830 44 17385444310557751633
69090 78 18410572907273194738
77779 3 18412265038519893983
9709674 26 18413396444475187614
9981440 41 17402603550887924256

>  <PUBCHEM_SHAPE_MULTIPOLES>  (1) 
333.13
9.18
1.76
0.72
1.98
0.01
0.01
-0.57
0.24
-0.32
-0.01
0.15
0
-0.83

>  <PUBCHEM_SHAPE_SELFOVERLAP>  (1) 
737.386

>  <PUBCHEM_SHAPE_VOLUME>  (1) 
177.4

>  <PUBCHEM_COORDINATE_TYPE>  (1) 
2
5
10

$$$$
