30434
     RDKit          3D

 20 22  0  0  0  0  0  0  0  0999 V2000
    2.4689   -1.7927   -0.4282 O   0  0  0  0  0  0  0  0  0  0  0  0
   -5.0298   -0.3237   -0.1970 O   0  0  0  0  0  0  0  0  0  0  0  0
    0.8890    1.8984    0.2165 O   0  0  0  0  0  0  0  0  0  0  0  0
    0.5491   -0.4275    0.0673 N   0  0  0  0  0  0  0  0  0  0  0  0
    1.2297   -1.7037    0.2852 C   0  0  0  0  0  0  0  0  0  0  0  0
   -0.8888   -0.4006   -0.0014 C   0  0  0  0  0  0  0  0  0  0  0  0
    2.7762    0.5405    0.1082 C   0  0  0  0  0  0  0  0  0  0  0  0
    1.3112    0.7494    0.1308 C   0  0  0  0  0  0  0  0  0  0  0  0
    3.2821   -0.7227   -0.1898 C   0  0  0  0  0  0  0  0  0  0  0  0
   -1.5338    0.6714   -0.6130 C   0  0  0  0  0  0  0  0  0  0  0  0
   -1.6279   -1.4467    0.5453 C   0  0  0  0  0  0  0  0  0  0  0  0
    3.6532    1.6087    0.3238 C   0  0  0  0  0  0  0  0  0  0  0  0
    4.6582   -0.9219   -0.3025 C   0  0  0  0  0  0  0  0  0  0  0  0
   -3.6707   -0.3484   -0.1316 C   0  0  0  0  0  0  0  0  0  0  0  0
   -2.9269    0.6977   -0.6781 C   0  0  0  0  0  0  0  0  0  0  0  0
   -3.0211   -1.4206    0.4803 C   0  0  0  0  0  0  0  0  0  0  0  0
    5.0310    1.4040    0.2334 C   0  0  0  0  0  0  0  0  0  0  0  0
    5.5328    0.1419   -0.0834 C   0  0  0  0  0  0  0  0  0  0  0  0
   -5.6567    0.9580   -0.2002 C   0  0  0  0  0  0  0  0  0  0  0  0
   -7.0260    0.8387    0.4344 C   0  0  0  0  0  0  0  0  0  0  0  0
  1  5  1  0
  1  9  1  0
  2 14  1  0
  2 19  1  0
  3  8  2  0
  4  5  1  0
  4  6  1  0
  4  8  1  0
  6 10  2  0
  6 11  1  0
  7  8  1  0
  7  9  2  0
  7 12  1  0
  9 13  1  0
 10 15  1  0
 11 16  2  0
 12 17  2  0
 13 18  2  0
 14 15  2  0
 14 16  1  0
 17 18  1  0
 19 20  1  0
M  END
>  <PUBCHEM_COMPOUND_CID>  (1) 
30434

>  <PUBCHEM_CONFORMER_RMSD>  (1) 
0.6

>  <PUBCHEM_CONFORMER_DIVERSEORDER>  (1) 
2
5
1
6
10
3
4
7
8
9

>  <PUBCHEM_MMFF94_PARTIAL_CHARGES>  (1) 
27
1 -0.36
10 -0.15
11 -0.15
12 -0.15
13 -0.15
14 0.08
15 -0.15
16 -0.15
17 -0.15
18 -0.15
19 0.28
2 -0.36
23 0.15
24 0.15
25 0.15
26 0.15
27 0.15
28 0.15
29 0.15
3 -0.57
30 0.15
4 -0.48
5 0.58
6 0.12
7 0.09
8 0.54
9 0.08

>  <PUBCHEM_EFFECTIVE_ROTOR_COUNT>  (1) 
3.6

>  <PUBCHEM_PHARMACOPHORE_FEATURES>  (1) 
6
1 1 acceptor
1 2 acceptor
1 3 acceptor
6 1 4 5 7 8 9 rings
6 6 10 11 14 15 16 rings
6 7 9 12 13 17 18 rings

>  <PUBCHEM_HEAVY_ATOM_COUNT>  (1) 
20

>  <PUBCHEM_ATOM_DEF_STEREO_COUNT>  (1) 
0

>  <PUBCHEM_ATOM_UDEF_STEREO_COUNT>  (1) 
0

>  <PUBCHEM_BOND_DEF_STEREO_COUNT>  (1) 
0

>  <PUBCHEM_BOND_UDEF_STEREO_COUNT>  (1) 
0

>  <PUBCHEM_ISOTOPIC_ATOM_COUNT>  (1) 
0

>  <PUBCHEM_COMPONENT_COUNT>  (1) 
1

>  <PUBCHEM_CACTVS_TAUTO_COUNT>  (1) 
1

>  <PUBCHEM_CONFORMER_ID>  (1) 
000076E200000002

>  <PUBCHEM_MMFF94_ENERGY>  (1) 
77.3589

>  <PUBCHEM_FEATURE_SELFOVERLAP>  (1) 
30.48

>  <PUBCHEM_SHAPE_FINGERPRINT>  (1) 
10 15 17967250931345413520
10411042 1 17908144270698505630
11089746 13 17275100643540646897
11471102 20 18342175583576173866
12107183 9 17480309972154937619
12236239 1 17346597478142649431
12403259 415 18113890542304894700
12730499 353 18335425642532662563
12788726 201 17346321436747870867
12916748 109 16877661240526381957
13167372 99 18201160940844481609
13533116 47 17988361472867596978
14251764 18 18272653459489550721
14341114 176 18409735053901508005
15048467 5 18342739611555980033
15196674 1 18410011082537868970
15375358 24 18408322211297785634
17834072 33 18059852896016548239
18222031 100 13470689252144674362
19141452 34 18410011074301407999
200 152 17989486342266904243
20281389 69 18187362117260759477
20645477 56 18186798080711832205
20645477 70 18202003196926905478
21033648 29 18269828869198073696
21150785 3 15697994158998362273
21267235 1 18339648845631245430
21279426 13 18193555567349089325
221357 26 18343582910804046052
22224240 67 18040157306470134251
23402539 116 18272927245984165485
23402655 69 18343861130216411623
23536379 177 17846779598837768111
23557571 272 17458341897108870404
23559900 14 18412258475746770280
2871803 45 18410293584517931682
29717793 49 17203615860938214276
300161 21 17704066313324484463
3004659 81 18187646861055715994
335352 9 18410856564446616086
34934 24 18411132558602217834
3545911 37 18408041805904808885
4072396 5 18411125927911087538
4073 2 18115029713566002794
4214541 1 18409729586233787535
4340502 62 16587743118389632107
4463277 17 18411138022206566421
5104073 3 18335136539677840403
542803 24 17632859720180792793
59755656 215 18409170974234492574
633830 44 18114456881203809398
7495541 125 13623824846731788997
8272917 22 18130509643215537310

>  <PUBCHEM_SHAPE_MULTIPOLES>  (1) 
389
14.05
1.75
0.71
11.84
0.13
-0.01
-4.21
0.38
-0.78
0.15
0.14
0
0.55

>  <PUBCHEM_SHAPE_SELFOVERLAP>  (1) 
847.468

>  <PUBCHEM_SHAPE_VOLUME>  (1) 
211.1

>  <PUBCHEM_COORDINATE_TYPE>  (1) 
2
5
10

$$$$
