30445
     RDKit          3D

 21 22  0  0  0  0  0  0  0  0999 V2000
    0.7773    0.9582    0.7960 N   0  0  0  0  0  0  0  0  0  0  0  0
    4.0260   -0.7113    0.0751 N   0  0  0  0  0  0  0  0  0  0  0  0
   -0.6006    0.7075    0.3503 C   0  0  0  0  0  0  0  0  0  0  0  0
   -0.6878    0.7701   -1.1899 C   0  0  0  0  0  0  0  0  0  0  0  0
   -1.5469    1.7529    0.9775 C   0  0  0  0  0  0  0  0  0  0  0  0
   -0.4959    2.1798   -1.7522 C   0  0  0  0  0  0  0  0  0  0  0  0
   -1.3568    3.1622    0.4128 C   0  0  0  0  0  0  0  0  0  0  0  0
   -0.9849   -0.6975    0.8361 C   0  0  0  0  0  0  0  0  0  0  0  0
   -1.4553    3.1765   -1.1094 C   0  0  0  0  0  0  0  0  0  0  0  0
    1.6848   -0.0102    0.2076 C   0  0  0  0  0  0  0  0  0  0  0  0
   -2.3940   -1.0427    0.4505 C   0  0  0  0  0  0  0  0  0  0  0  0
    3.1166    0.2727    0.6522 C   0  0  0  0  0  0  0  0  0  0  0  0
   -3.4388   -0.7318    1.3130 C   0  0  0  0  0  0  0  0  0  0  0  0
   -2.6405   -1.6695   -0.7656 C   0  0  0  0  0  0  0  0  0  0  0  0
    5.3979   -0.4704    0.5251 C   0  0  0  0  0  0  0  0  0  0  0  0
    3.9580   -0.6801   -1.3867 C   0  0  0  0  0  0  0  0  0  0  0  0
   -4.7482   -1.0523    0.9547 C   0  0  0  0  0  0  0  0  0  0  0  0
   -3.9500   -1.9899   -1.1239 C   0  0  0  0  0  0  0  0  0  0  0  0
   -5.0038   -1.6812   -0.2636 C   0  0  0  0  0  0  0  0  0  0  0  0
    5.4912   -0.4985    2.0412 C   0  0  0  0  0  0  0  0  0  0  0  0
    4.8516   -1.7443   -2.0008 C   0  0  0  0  0  0  0  0  0  0  0  0
  1  3  1  0
  1 10  1  0
  2 12  1  0
  2 15  1  0
  2 16  1  0
  3  4  1  0
  3  5  1  0
  3  8  1  0
  4  6  1  0
  5  7  1  0
  6  9  1  0
  7  9  1  0
  8 11  1  0
 10 12  1  0
 11 13  2  0
 11 14  1  0
 13 17  1  0
 14 18  2  0
 15 20  1  0
 16 21  1  0
 17 19  2  0
 18 19  1  0
M  END
>  <PUBCHEM_COMPOUND_CID>  (1) 
30445

>  <PUBCHEM_CONFORMER_RMSD>  (1) 
0.8

>  <PUBCHEM_CONFORMER_DIVERSEORDER>  (1) 
1
43
47
27
35
36
17
29
6
40
45
44
38
22
20
23
37
26
21
39
5
32
8
46
28
10
14
13
16
15
2
4
19
18
33
34
30
11
3
24
25
12
31
7
9
41
42

>  <PUBCHEM_MMFF94_PARTIAL_CHARGES>  (1) 
20
1 -0.9
10 0.27
11 -0.14
12 0.27
13 -0.15
14 -0.15
15 0.27
16 0.27
17 -0.15
18 -0.15
19 -0.15
2 -0.81
3 0.27
34 0.36
39 0.15
40 0.15
45 0.15
46 0.15
47 0.15
8 0.14

>  <PUBCHEM_EFFECTIVE_ROTOR_COUNT>  (1) 
9.2

>  <PUBCHEM_PHARMACOPHORE_FEATURES>  (1) 
5
1 1 cation
1 1 donor
1 2 cation
6 11 13 14 17 18 19 rings
6 3 4 5 6 7 9 rings

>  <PUBCHEM_HEAVY_ATOM_COUNT>  (1) 
21

>  <PUBCHEM_ATOM_DEF_STEREO_COUNT>  (1) 
0

>  <PUBCHEM_ATOM_UDEF_STEREO_COUNT>  (1) 
0

>  <PUBCHEM_BOND_DEF_STEREO_COUNT>  (1) 
0

>  <PUBCHEM_BOND_UDEF_STEREO_COUNT>  (1) 
0

>  <PUBCHEM_ISOTOPIC_ATOM_COUNT>  (1) 
0

>  <PUBCHEM_COMPONENT_COUNT>  (1) 
1

>  <PUBCHEM_CACTVS_TAUTO_COUNT>  (1) 
1

>  <PUBCHEM_CONFORMER_ID>  (1) 
000076ED00000001

>  <PUBCHEM_MMFF94_ENERGY>  (1) 
45.5014

>  <PUBCHEM_FEATURE_SELFOVERLAP>  (1) 
25.371

>  <PUBCHEM_SHAPE_FINGERPRINT>  (1) 
10764073 3 16627741066823137413
12553582 1 18334021613449667002
12596602 18 15051735330353392806
12760667 363 18261383451549910106
12788726 201 18186810170786365932
12892183 10 16343710949332462370
13004483 165 18336260236314140077
13134695 92 18194680604268354389
13544653 18 18337109085176443033
13583140 156 16128367177415954163
14251764 30 17604150440935623747
14910302 57 18200880574043160318
14955137 171 18267041599154206587
15849732 13 18272376382585945819
16752209 62 18040703758251521586
17357779 13 18338222843411102741
17539 30 18262787493844991509
1813 80 18336552710759767469
19141452 34 17918279774714058103
200 152 17240478109272301034
20600515 1 18262522614241552043
20671657 53 17676768772517376069
22224240 67 10087645936009377991
22620623 9 18337110060076101189
23175994 123 18113901619584505539
23352939 185 16370732555976530423
23402539 116 18187078451380917883
23419403 2 17986649636838620649
23557571 272 18410291402727591720
3027735 51 18261388884704742451
312423 11 17240772727297226418
314173 85 18411421730218072523
4325135 7 18341050822205085716
57262259 84 18409729534858106981
621550 34 18059284474712706736
7615 1 17095528345101076444

>  <PUBCHEM_SHAPE_MULTIPOLES>  (1) 
422.21
11.32
2.9
1.77
11.73
2.72
-0.3
-9.39
1.37
-2.85
-1.09
1.46
-0.13
0.58

>  <PUBCHEM_SHAPE_SELFOVERLAP>  (1) 
853.289

>  <PUBCHEM_SHAPE_VOLUME>  (1) 
245.2

>  <PUBCHEM_COORDINATE_TYPE>  (1) 
2
5
10

$$$$
