30449
     RDKit          3D

 16 17  0  0  0  0  0  0  0  0999 V2000
   -2.0957    1.1022   -0.8598 O   0  0  0  0  0  0  0  0  0  0  0  0
   -4.3224   -1.1515    0.7135 O   0  0  0  0  0  0  0  0  0  0  0  0
    4.7338   -0.5872    0.2683 O   0  0  0  0  0  0  0  0  0  0  0  0
    4.1431    1.5265    0.3219 O   0  0  0  0  0  0  0  0  0  0  0  0
   -2.5140   -0.0714   -0.2035 N   0  0  0  0  0  0  0  0  0  0  0  0
    3.8567    0.3088    0.2233 N   0  0  0  0  0  0  0  0  0  0  0  0
   -0.1793   -0.8116   -0.2611 C   0  0  0  0  0  0  0  0  0  0  0  0
    0.1671    0.5480   -0.1692 C   0  0  0  0  0  0  0  0  0  0  0  0
   -1.6205   -1.1983   -0.4463 C   0  0  0  0  0  0  0  0  0  0  0  0
   -0.9202    1.5899   -0.2006 C   0  0  0  0  0  0  0  0  0  0  0  0
    0.8219   -1.7876   -0.2162 C   0  0  0  0  0  0  0  0  0  0  0  0
    1.5062    0.9133    0.0028 C   0  0  0  0  0  0  0  0  0  0  0  0
    2.4975   -0.0668    0.0550 C   0  0  0  0  0  0  0  0  0  0  0  0
    2.1564   -1.4142   -0.0571 C   0  0  0  0  0  0  0  0  0  0  0  0
   -3.7681   -0.1158    0.3431 C   0  0  0  0  0  0  0  0  0  0  0  0
   -4.4626    1.2156    0.4858 C   0  0  0  0  0  0  0  0  0  0  0  0
  1  5  1  0
  1 10  1  0
  2 15  2  0
  3  6  1  0
  4  6  2  0
  5  9  1  0
  5 15  1  0
  6 13  1  0
  7  8  2  0
  7  9  1  0
  7 11  1  0
  8 10  1  0
  8 12  1  0
 11 14  2  0
 12 13  2  0
 13 14  1  0
 15 16  1  0
M  CHG  2   3  -1   6   1
M  END
>  <PUBCHEM_COMPOUND_CID>  (1) 
30449

>  <PUBCHEM_CONFORMER_RMSD>  (1) 
0.6

>  <PUBCHEM_CONFORMER_DIVERSEORDER>  (1) 
1
2
3
4

>  <PUBCHEM_MMFF94_PARTIAL_CHARGES>  (1) 
19
1 -0.32
10 0.42
11 -0.15
12 -0.15
13 0.13
14 -0.15
15 0.57
16 0.06
2 -0.57
21 0.15
22 0.15
23 0.15
3 -0.52
4 -0.52
5 -0.32
6 0.91
7 -0.14
8 -0.14
9 0.44

>  <PUBCHEM_EFFECTIVE_ROTOR_COUNT>  (1) 
2.8

>  <PUBCHEM_PHARMACOPHORE_FEATURES>  (1) 
6
1 2 acceptor
1 3 acceptor
1 3 anion
1 4 acceptor
6 1 5 7 8 9 10 rings
6 7 8 11 12 13 14 rings

>  <PUBCHEM_HEAVY_ATOM_COUNT>  (1) 
16

>  <PUBCHEM_ATOM_DEF_STEREO_COUNT>  (1) 
0

>  <PUBCHEM_ATOM_UDEF_STEREO_COUNT>  (1) 
0

>  <PUBCHEM_BOND_DEF_STEREO_COUNT>  (1) 
0

>  <PUBCHEM_BOND_UDEF_STEREO_COUNT>  (1) 
0

>  <PUBCHEM_ISOTOPIC_ATOM_COUNT>  (1) 
0

>  <PUBCHEM_COMPONENT_COUNT>  (1) 
1

>  <PUBCHEM_CACTVS_TAUTO_COUNT>  (1) 
1

>  <PUBCHEM_CONFORMER_ID>  (1) 
000076F100000001

>  <PUBCHEM_MMFF94_ENERGY>  (1) 
44.6879

>  <PUBCHEM_FEATURE_SELFOVERLAP>  (1) 
30.552

>  <PUBCHEM_SHAPE_FINGERPRINT>  (1) 
10608611 8 18337104545195739581
11132069 177 18411978087280506887
11471102 20 18341327803917874789
12032990 46 18409169879102143534
12119455 92 17275102816725247548
12251169 10 18412830213656803711
12346645 44 18273216382839634083
13214271 11 18410291411306730143
13221675 6 18410854360674699343
13583140 156 16806981373597982204
13675066 3 18411139151308003699
14252887 29 18341907272242046579
14943859 89 16773795896157179062
14993402 34 8646772196504524976
15196674 1 18411136943694813539
15209294 21 18059862735918570329
15219456 202 18337389327507959407
15309172 13 18272370867019775831
15375358 24 18334294236925593499
15536298 74 18272374122494157974
15775835 57 18273214209401669911
16945 1 18341035367989491414
17844478 74 18187647977229949701
18186145 218 18201995551937664324
19784866 170 18408609132403531005
200 152 18201428204259381695
20510252 161 18271526399087294985
20645477 70 18128528272028574239
21267235 1 18410582785587309726
22854114 59 18412263938839422296
23402539 116 17603861204614924407
23402655 69 18200582606597625069
23463225 33 18335138700009368820
23557571 272 17168141170345157525
23559900 14 18192426377444764346
2748010 2 18122619461906497062
42 15 18187364311730273114
4990 188 17775293754930332830
5104073 3 18409729547336450707
53655031 270 18342176648300801992
53812653 166 18271802445367384888
7364860 26 18198904700066520526

>  <PUBCHEM_SHAPE_MULTIPOLES>  (1) 
295.83
8.39
1.71
0.71
0.2
0.07
-0.02
-1.24
2.09
-0.06
-0.04
0.27
-0.01
0.22

>  <PUBCHEM_SHAPE_SELFOVERLAP>  (1) 
629.682

>  <PUBCHEM_SHAPE_VOLUME>  (1) 
164.4

>  <PUBCHEM_COORDINATE_TYPE>  (1) 
2
5
10

$$$$
