30453
     RDKit          3D

 21 23  0  0  1  0  0  0  0  0999 V2000
    0.1863   -1.0140   -0.4456 O   0  0  0  0  0  0  0  0  0  0  0  0
   -6.7476    0.5288    0.0375 O   0  0  0  0  0  0  0  0  0  0  0  0
   -6.1138   -1.5463    0.3710 O   0  0  0  0  0  0  0  0  0  0  0  0
    0.5120    0.2404    0.2322 N   0  0  0  0  0  0  0  0  0  0  0  0
   -5.8493   -0.3405    0.1465 N   0  0  0  0  0  0  0  0  0  0  0  0
    6.9529    0.2062   -0.2656 N   0  0  0  0  0  0  0  0  0  0  0  0
   -0.3690    1.2353   -0.3967 C   0  0  0  0  0  0  0  0  0  0  0  0
   -1.8200    0.8389   -0.2381 C   0  0  0  0  0  0  0  0  0  0  0  0
    1.9121    0.4866   -0.0901 C   0  0  0  0  0  0  0  0  0  0  0  0
   -2.1402   -0.5139   -0.0094 C   0  0  0  0  0  0  0  0  0  0  0  0
   -1.0243   -1.5179    0.1340 C   0  0  0  0  0  0  0  0  0  0  0  0
    2.8210   -0.5259    0.6078 C   0  0  0  0  0  0  0  0  0  0  0  0
   -2.8439    1.7827   -0.3668 C   0  0  0  0  0  0  0  0  0  0  0  0
   -3.4772   -0.8980    0.1283 C   0  0  0  0  0  0  0  0  0  0  0  0
    4.2747   -0.2684    0.3005 C   0  0  0  0  0  0  0  0  0  0  0  0
   -4.4916    0.0526    0.0112 C   0  0  0  0  0  0  0  0  0  0  0  0
   -4.1759    1.3884   -0.2390 C   0  0  0  0  0  0  0  0  0  0  0  0
    4.8574   -0.8771   -0.7949 C   0  0  0  0  0  0  0  0  0  0  0  0
    5.0047    0.5731    1.1183 C   0  0  0  0  0  0  0  0  0  0  0  0
    6.1953   -0.6081   -1.0342 C   0  0  0  0  0  0  0  0  0  0  0  0
    6.3362    0.7772    0.7933 C   0  0  0  0  0  0  0  0  0  0  0  0
  1  4  1  0
  1 11  1  0
  2  5  1  0
  3  5  2  0
  4  7  1  0
  4  9  1  0
  5 16  1  0
  6 20  2  0
  6 21  1  0
  7  8  1  0
  8 10  2  0
  8 13  1  0
  9 12  1  0
 10 11  1  0
 10 14  1  0
 12 15  1  0
 13 17  2  0
 14 16  2  0
 15 18  2  0
 15 19  1  0
 16 17  1  0
 18 20  1  0
 19 21  2  0
M  CHG  2   2  -1   5   1
M  END
>  <PUBCHEM_COMPOUND_CID>  (1) 
30453

>  <PUBCHEM_CONFORMER_RMSD>  (1) 
0.8

>  <PUBCHEM_CONFORMER_DIVERSEORDER>  (1) 
1
14
15
7
5
8
10
12
4
9
11
6
13
16
2
3

>  <PUBCHEM_MMFF94_PARTIAL_CHARGES>  (1) 
28
1 -0.18
10 -0.14
11 0.42
12 0.14
13 -0.15
14 -0.15
15 -0.14
16 0.13
17 -0.15
18 -0.15
19 -0.15
2 -0.52
20 0.16
21 0.16
3 -0.52
30 0.15
31 0.15
32 0.15
33 0.15
34 0.15
35 0.15
36 0.15
4 -0.64
5 0.91
6 -0.62
7 0.41
8 -0.14
9 0.27

>  <PUBCHEM_EFFECTIVE_ROTOR_COUNT>  (1) 
4.8

>  <PUBCHEM_PHARMACOPHORE_FEATURES>  (1) 
7
1 2 acceptor
1 2 anion
1 3 acceptor
1 6 acceptor
6 1 4 7 8 10 11 rings
6 6 15 18 19 20 21 rings
6 8 10 13 14 16 17 rings

>  <PUBCHEM_HEAVY_ATOM_COUNT>  (1) 
21

>  <PUBCHEM_ATOM_DEF_STEREO_COUNT>  (1) 
0

>  <PUBCHEM_ATOM_UDEF_STEREO_COUNT>  (1) 
0

>  <PUBCHEM_BOND_DEF_STEREO_COUNT>  (1) 
0

>  <PUBCHEM_BOND_UDEF_STEREO_COUNT>  (1) 
0

>  <PUBCHEM_ISOTOPIC_ATOM_COUNT>  (1) 
0

>  <PUBCHEM_COMPONENT_COUNT>  (1) 
1

>  <PUBCHEM_CACTVS_TAUTO_COUNT>  (1) 
1

>  <PUBCHEM_CONFORMER_ID>  (1) 
000076F500000001

>  <PUBCHEM_MMFF94_ENERGY>  (1) 
55.4579

>  <PUBCHEM_FEATURE_SELFOVERLAP>  (1) 
35.629

>  <PUBCHEM_SHAPE_FINGERPRINT>  (1) 
10 15 18338508738436889776
10968037 39 18113900468258911495
11315181 36 18408608067626558393
11524674 6 16702301269527264935
12166972 35 18060702809946955696
12236239 1 17385721374840257272
12390115 104 18198629839265514729
12403259 415 18201428168992743160
12516196 113 18342738528881544456
12730499 353 18060138726712771142
12916748 109 18411981343451383728
13073987 5 18337105662382718976
13288520 33 18408886239883915325
13533116 47 15410901721810672446
1420 363 18342739615597622684
14251718 22 18335139782689247908
14251764 18 18040716982492631890
14251764 46 17346880048420403474
14341114 176 17917993888805759304
14617045 38 18411139126060835666
14933364 13 18202002127279412960
15042514 8 18266179616398144767
17844677 252 18131637764206086224
18927931 339 18408886265780605583
19489759 90 18040154006975245609
20281389 69 18260543412277103160
20645477 70 17346322553866979774
21033648 29 17774424024021608344
21150785 3 17749395883898615356
21267235 1 18335145310570607747
221357 26 17632857508541921088
2297311 6 18341336621275113588
23035841 295 18407759222795017418
23081809 10 16805602525876724328
23198884 109 16487536948928631403
23402539 116 18408316710035321935
23536379 177 16128375960724300738
23559900 14 18339917220535996161
3004659 81 18113623400130046292
3009799 131 12107786311047080023
335352 9 18334292077258741981
34797466 226 18272658969837984180
3545911 37 18343019991347542154
4073 2 18336548321968472274
4325135 7 17676489441172295166
4463277 17 18409729564590308409
5104073 3 18265050236823416562
542803 24 15051731993184194736
59755656 215 18341896268435796159
59755656 520 15339114645992458125

>  <PUBCHEM_SHAPE_MULTIPOLES>  (1) 
399.62
18.38
1.42
0.84
7.52
0.07
0.01
-0.54
0.5
-1.29
-0.06
1.04
0
1.04

>  <PUBCHEM_SHAPE_SELFOVERLAP>  (1) 
859.267

>  <PUBCHEM_SHAPE_VOLUME>  (1) 
218.5

>  <PUBCHEM_COORDINATE_TYPE>  (1) 
2
5
10

$$$$
