3045
     RDKit          3D

 12 12  0  0  0  0  0  0  0  0999 V2000
   -2.6659    1.7845    0.2426 O   0  0  0  0  0  0  0  0  0  0  0  0
   -3.5411   -0.8437    0.0115 O   0  0  0  0  0  0  0  0  0  0  0  0
    2.3537    1.4194   -0.5039 O   0  0  0  0  0  0  0  0  0  0  0  0
    4.1784   -0.3939    0.2817 O   0  0  0  0  0  0  0  0  0  0  0  0
    2.8067   -0.6829    0.3258 N   0  0  0  0  0  0  0  0  0  0  0  0
    0.5193    0.0189   -0.0709 C   0  0  0  0  0  0  0  0  0  0  0  0
   -0.4065    1.0522    0.0733 C   0  0  0  0  0  0  0  0  0  0  0  0
    0.0800   -1.2999   -0.1871 C   0  0  0  0  0  0  0  0  0  0  0  0
   -1.7715    0.7668    0.1012 C   0  0  0  0  0  0  0  0  0  0  0  0
   -2.2108   -0.5520   -0.0150 C   0  0  0  0  0  0  0  0  0  0  0  0
   -1.2850   -1.5854   -0.1591 C   0  0  0  0  0  0  0  0  0  0  0  0
    1.9426    0.3161   -0.1001 C   0  0  0  0  0  0  0  0  0  0  0  0
  1  9  1  0
  2 10  1  0
  3 12  2  0
  4  5  1  0
  5 12  1  0
  6  7  2  0
  6  8  1  0
  6 12  1  0
  7  9  1  0
  8 11  2  0
  9 10  2  0
 10 11  1  0
M  END
>  <PUBCHEM_COMPOUND_CID>  (1) 
3045

>  <PUBCHEM_CONFORMER_RMSD>  (1) 
0.6

>  <PUBCHEM_CONFORMER_DIVERSEORDER>  (1) 
1
2

>  <PUBCHEM_MMFF94_PARTIAL_CHARGES>  (1) 
19
1 -0.53
10 0.08
11 -0.15
12 0.54
13 0.15
14 0.15
15 0.15
16 0.37
17 0.45
18 0.45
19 0.4
2 -0.53
3 -0.57
4 -0.44
5 -0.39
6 0.09
7 -0.15
8 -0.15
9 0.08

>  <PUBCHEM_EFFECTIVE_ROTOR_COUNT>  (1) 
2

>  <PUBCHEM_PHARMACOPHORE_FEATURES>  (1) 
5
1 1 donor
1 2 donor
1 3 acceptor
1 5 donor
6 6 7 8 9 10 11 rings

>  <PUBCHEM_HEAVY_ATOM_COUNT>  (1) 
12

>  <PUBCHEM_ATOM_DEF_STEREO_COUNT>  (1) 
0

>  <PUBCHEM_ATOM_UDEF_STEREO_COUNT>  (1) 
0

>  <PUBCHEM_BOND_DEF_STEREO_COUNT>  (1) 
0

>  <PUBCHEM_BOND_UDEF_STEREO_COUNT>  (1) 
0

>  <PUBCHEM_ISOTOPIC_ATOM_COUNT>  (1) 
0

>  <PUBCHEM_COMPONENT_COUNT>  (1) 
1

>  <PUBCHEM_CACTVS_TAUTO_COUNT>  (1) 
57

>  <PUBCHEM_CONFORMER_ID>  (1) 
00000BE500000001

>  <PUBCHEM_MMFF94_ENERGY>  (1) 
31.2711

>  <PUBCHEM_FEATURE_SELFOVERLAP>  (1) 
25.376

>  <PUBCHEM_SHAPE_FINGERPRINT>  (1) 
12932764 1 17561079250117270590
13024252 1 14056716838152419423
13380535 76 18340205164207746815
14144814 61 18408602548303101354
14325111 11 18411138026195546092
15219456 202 17916874503942318190
16945 1 18341899635911299319
20510252 161 18202566167827447737
20871998 184 18130509746484662871
21040471 1 18341052925989877101
22445834 79 18187357706065576762
23402539 116 18272358789888062495
23402655 69 18125986193367773653
23463225 33 18408322164121587166
23552423 10 18188489202319807654
23559900 14 18130785613125173490
2748010 2 18197227944744062631
369184 2 18340768229650518379
5084963 1 18408601465591541112
6333449 129 18343016662468423341
7364860 26 18269838782447121108

>  <PUBCHEM_SHAPE_MULTIPOLES>  (1) 
218.5
5.31
1.61
0.62
3.01
0.16
-0.01
-0.2
0.45
-0.71
-0.05
0.06
0.01
-0.31

>  <PUBCHEM_SHAPE_SELFOVERLAP>  (1) 
460.197

>  <PUBCHEM_SHAPE_VOLUME>  (1) 
122.9

>  <PUBCHEM_COORDINATE_TYPE>  (1) 
2
5
10

$$$$
