30463
     RDKit          3D

 17 18  0  0  0  0  0  0  0  0999 V2000
   -0.8606   -2.2268    0.0948 O   0  0  0  0  0  0  0  0  0  0  0  0
   -1.1885    1.7663    0.8055 O   0  0  0  0  0  0  0  0  0  0  0  0
   -2.2210   -0.2661    0.3213 N   0  0  0  0  0  0  0  0  0  0  0  0
    3.7463    0.8873   -0.1467 N   0  0  0  0  0  0  0  0  0  0  0  0
   -3.5783    0.2034    0.5444 C   0  0  0  0  0  0  0  0  0  0  0  0
    0.1729   -0.0376    0.1765 C   0  0  0  0  0  0  0  0  0  0  0  0
   -2.0503   -1.5558   -0.3280 C   0  0  0  0  0  0  0  0  0  0  0  0
   -1.1348    0.5908    0.4600 C   0  0  0  0  0  0  0  0  0  0  0  0
    0.2443   -1.4232    0.0234 C   0  0  0  0  0  0  0  0  0  0  0  0
   -4.2301    0.7222   -0.7318 C   0  0  0  0  0  0  0  0  0  0  0  0
    1.3365    0.7348    0.1200 C   0  0  0  0  0  0  0  0  0  0  0  0
    2.5687    0.1124   -0.0854 C   0  0  0  0  0  0  0  0  0  0  0  0
    1.4794   -2.0448   -0.1597 C   0  0  0  0  0  0  0  0  0  0  0  0
    2.6407   -1.2746   -0.2211 C   0  0  0  0  0  0  0  0  0  0  0  0
   -5.6444    1.2362   -0.5030 C   0  0  0  0  0  0  0  0  0  0  0  0
    5.0119    0.3340    0.2914 C   0  0  0  0  0  0  0  0  0  0  0  0
    3.7072    2.2413   -0.6616 C   0  0  0  0  0  0  0  0  0  0  0  0
  1  7  1  0
  1  9  1  0
  2  8  2  0
  3  5  1  0
  3  7  1  0
  3  8  1  0
  4 12  1  0
  4 16  1  0
  4 17  1  0
  5 10  1  0
  6  8  1  0
  6  9  2  0
  6 11  1  0
  9 13  1  0
 10 15  1  0
 11 12  2  0
 12 14  1  0
 13 14  2  0
M  END
>  <PUBCHEM_COMPOUND_CID>  (1) 
30463

>  <PUBCHEM_CONFORMER_RMSD>  (1) 
0.6

>  <PUBCHEM_CONFORMER_DIVERSEORDER>  (1) 
1
5
9
12
2
10
4
11
7
6
3
8

>  <PUBCHEM_MMFF94_PARTIAL_CHARGES>  (1) 
18
1 -0.36
11 -0.15
12 0.1
13 -0.15
14 -0.15
16 0.37
17 0.37
2 -0.57
24 0.15
25 0.15
26 0.15
3 -0.66
4 -0.84
5 0.3
6 0.09
7 0.58
8 0.54
9 0.08

>  <PUBCHEM_EFFECTIVE_ROTOR_COUNT>  (1) 
3.6

>  <PUBCHEM_PHARMACOPHORE_FEATURES>  (1) 
6
1 1 acceptor
1 15 hydrophobe
1 2 acceptor
1 4 cation
6 1 3 6 7 8 9 rings
6 6 9 11 12 13 14 rings

>  <PUBCHEM_HEAVY_ATOM_COUNT>  (1) 
17

>  <PUBCHEM_ATOM_DEF_STEREO_COUNT>  (1) 
0

>  <PUBCHEM_ATOM_UDEF_STEREO_COUNT>  (1) 
0

>  <PUBCHEM_BOND_DEF_STEREO_COUNT>  (1) 
0

>  <PUBCHEM_BOND_UDEF_STEREO_COUNT>  (1) 
0

>  <PUBCHEM_ISOTOPIC_ATOM_COUNT>  (1) 
0

>  <PUBCHEM_COMPONENT_COUNT>  (1) 
1

>  <PUBCHEM_CACTVS_TAUTO_COUNT>  (1) 
1

>  <PUBCHEM_CONFORMER_ID>  (1) 
000076FF00000001

>  <PUBCHEM_MMFF94_ENERGY>  (1) 
57.055

>  <PUBCHEM_FEATURE_SELFOVERLAP>  (1) 
30.479

>  <PUBCHEM_SHAPE_FINGERPRINT>  (1) 
10014705 185 18336545010031247877
10411042 1 17473260977345807819
10498660 4 18341339993130337572
10967382 1 18412549794951780696
11132069 177 18341894125684374024
11401426 45 18343578551248346544
11471102 20 18412544271412977823
11543360 7 15267340755602373040
13380535 76 18413393141966869314
13583140 156 17385729101286242625
13760787 5 18200880574153559643
14897335 6 18412826888940796366
14911166 2 18201998837329143905
14993402 34 17131827668940173157
15196674 1 18411419539763782318
15375358 24 18261114067053447131
15536298 74 18200881686529347502
16945 1 18341343201328515378
17834072 32 18335423525082124196
17959699 21 18335699412659849501
18186145 218 18341061726219682623
200 152 17989202625217051289
20645477 56 17967814938245456797
20645477 70 18270119007039813711
20871999 31 18271516611347379479
21524375 3 18413392033959960234
231179 274 18040994020762916111
23227448 37 18335985384345551909
23402539 116 18343293795259480828
23402655 69 18201433649950767757
23493267 7 18041275564538277291
23559900 14 18130511933414053592
25 1 18410285909163583935
2748010 2 17911796091624645673
335352 9 18410012122542310822
34934 24 18341606027393514538
3759504 43 18114463444051189315
4072396 5 18337939113629348226
4340502 62 17313108527678320467
474 4 18334580143949987520
5104073 3 18409449227969875194
537710 114 18343582928083953801
57005193 9 18412259532350702034
58051976 378 18342741793009112692
59755656 215 18341335492510838526
633830 44 18058182635022485783
69090 78 18343300357653218670
7364860 26 18200037235929885454

>  <PUBCHEM_SHAPE_MULTIPOLES>  (1) 
328.15
9.4
2.15
0.76
4.48
0.38
-0.01
-5.38
-1.41
-0.76
-0.24
0.21
-0.14
-0.08

>  <PUBCHEM_SHAPE_SELFOVERLAP>  (1) 
685.514

>  <PUBCHEM_SHAPE_VOLUME>  (1) 
185.9

>  <PUBCHEM_COORDINATE_TYPE>  (1) 
2
5
10

$$$$
