30461
     RDKit          3D

 15 16  0  0  0  0  0  0  0  0999 V2000
    0.0123   -2.0673    0.2470 O   0  0  0  0  0  0  0  0  0  0  0  0
   -0.8783    1.8838    0.6393 O   0  0  0  0  0  0  0  0  0  0  0  0
   -1.6133   -0.3083    0.3451 N   0  0  0  0  0  0  0  0  0  0  0  0
    4.1206    1.6393   -0.3537 N   0  0  0  0  0  0  0  0  0  0  0  0
   -3.0214   -0.0202    0.5617 C   0  0  0  0  0  0  0  0  0  0  0  0
   -1.2662   -1.6104   -0.2011 C   0  0  0  0  0  0  0  0  0  0  0  0
    0.7210    0.2460    0.1266 C   0  0  0  0  0  0  0  0  0  0  0  0
   -0.6600    0.7031    0.3888 C   0  0  0  0  0  0  0  0  0  0  0  0
   -3.6975    0.3401   -0.7588 C   0  0  0  0  0  0  0  0  0  0  0  0
    0.9893   -1.1233    0.0850 C   0  0  0  0  0  0  0  0  0  0  0  0
    1.7605    1.1686   -0.0196 C   0  0  0  0  0  0  0  0  0  0  0  0
   -5.1689    0.6674   -0.5561 C   0  0  0  0  0  0  0  0  0  0  0  0
    2.2987   -1.5759   -0.0756 C   0  0  0  0  0  0  0  0  0  0  0  0
    3.0671    0.7131   -0.2023 C   0  0  0  0  0  0  0  0  0  0  0  0
    3.3362   -0.6560   -0.2264 C   0  0  0  0  0  0  0  0  0  0  0  0
  1  6  1  0
  1 10  1  0
  2  8  2  0
  3  5  1  0
  3  6  1  0
  3  8  1  0
  4 14  1  0
  5  9  1  0
  7  8  1  0
  7 10  2  0
  7 11  1  0
  9 12  1  0
 10 13  1  0
 11 14  2  0
 13 15  2  0
 14 15  1  0
M  END
>  <PUBCHEM_COMPOUND_CID>  (1) 
30461

>  <PUBCHEM_CONFORMER_RMSD>  (1) 
0.6

>  <PUBCHEM_CONFORMER_DIVERSEORDER>  (1) 
1
2
6
5
3
4

>  <PUBCHEM_MMFF94_PARTIAL_CHARGES>  (1) 
18
1 -0.36
10 0.08
11 -0.15
13 -0.15
14 0.1
15 -0.15
2 -0.57
22 0.15
26 0.15
27 0.15
28 0.4
29 0.4
3 -0.66
4 -0.9
5 0.3
6 0.58
7 0.09
8 0.54

>  <PUBCHEM_EFFECTIVE_ROTOR_COUNT>  (1) 
2.6

>  <PUBCHEM_PHARMACOPHORE_FEATURES>  (1) 
7
1 1 acceptor
1 12 hydrophobe
1 2 acceptor
1 4 cation
1 4 donor
6 1 3 6 7 8 10 rings
6 7 10 11 13 14 15 rings

>  <PUBCHEM_HEAVY_ATOM_COUNT>  (1) 
15

>  <PUBCHEM_ATOM_DEF_STEREO_COUNT>  (1) 
0

>  <PUBCHEM_ATOM_UDEF_STEREO_COUNT>  (1) 
0

>  <PUBCHEM_BOND_DEF_STEREO_COUNT>  (1) 
0

>  <PUBCHEM_BOND_UDEF_STEREO_COUNT>  (1) 
0

>  <PUBCHEM_ISOTOPIC_ATOM_COUNT>  (1) 
0

>  <PUBCHEM_COMPONENT_COUNT>  (1) 
1

>  <PUBCHEM_CACTVS_TAUTO_COUNT>  (1) 
1

>  <PUBCHEM_CONFORMER_ID>  (1) 
000076FD00000001

>  <PUBCHEM_MMFF94_ENERGY>  (1) 
46.1232

>  <PUBCHEM_FEATURE_SELFOVERLAP>  (1) 
35.553

>  <PUBCHEM_SHAPE_FINGERPRINT>  (1) 
10967382 1 18411704279094719738
11132069 177 18342172302062904378
11401426 45 18343293773473388297
11471102 20 18410854347742188221
11543360 7 15697718211238392672
13380535 76 18412266155459609602
13571099 22 18412546496147988935
13760787 5 18343026562478674113
14251717 144 18340765957797552119
14576447 43 17987501758486803575
14897335 6 18411698815901697838
14911166 2 18412267211757684126
14993402 34 17632574963806889653
15196674 1 18410575114786151599
15219456 202 18187370930470068171
15775835 57 18410295838843038310
16945 1 18341341011053346034
18186145 218 18410301284893231079
200 152 18130783417468528789
20645477 70 18339643347756868399
20871999 31 18270392931775163551
21501502 16 18197784292974157737
231179 274 17748818601512765565
23402539 116 18343012320261677692
23402655 69 18343298154804338541
23493267 7 17822009843351737169
23559900 14 18129106783434667168
25 1 18408316688101549407
2748010 2 17981610682205674000
34934 24 18341324591414296968
353137 74 18411139112674540209
4047638 21 17967813829880059173
4072396 5 18263343846358815978
449060 62 18412829074915372960
528886 8 18411979199840696986
537710 114 18342176665544169561
57005193 9 18411412925756499282
69090 78 18343580746003177543
7364860 26 18343024350961296478

>  <PUBCHEM_SHAPE_MULTIPOLES>  (1) 
286.99
7.58
1.84
0.74
5.69
0.29
-0.02
-2.54
-1.88
-0.98
0.06
0.3
-0.06
-0.04

>  <PUBCHEM_SHAPE_SELFOVERLAP>  (1) 
607.358

>  <PUBCHEM_SHAPE_VOLUME>  (1) 
160.1

>  <PUBCHEM_COORDINATE_TYPE>  (1) 
2
5
10

$$$$
