30478
     RDKit          3D

 13 13  0  0  0  0  0  0  0  0999 V2000
   -3.2663    0.3547    0.4970 S   0  0  0  0  0  0  0  0  0  0  0  0
    1.0164   -2.1760   -0.3074 O   0  0  0  0  0  0  0  0  0  0  0  0
   -0.9683   -1.0013    0.0669 N   0  0  0  0  0  0  0  0  0  0  0  0
    0.5460    1.2776    0.2592 N   0  0  0  0  0  0  0  0  0  0  0  0
   -0.8401    1.3314    0.4038 N   0  0  0  0  0  0  0  0  0  0  0  0
   -1.7964   -2.1179   -0.0186 N   0  0  0  0  0  0  0  0  0  0  0  0
    2.6240    0.0953   -0.1223 C   0  0  0  0  0  0  0  0  0  0  0  0
    1.1300    0.1461    0.0319 C   0  0  0  0  0  0  0  0  0  0  0  0
    3.0241    0.9438   -1.3189 C   0  0  0  0  0  0  0  0  0  0  0  0
    3.2829    0.5809    1.1584 C   0  0  0  0  0  0  0  0  0  0  0  0
    0.3869   -1.1522   -0.0897 C   0  0  0  0  0  0  0  0  0  0  0  0
   -1.5229    0.2377    0.3073 C   0  0  0  0  0  0  0  0  0  0  0  0
   -3.6162    1.4799   -0.8677 C   0  0  0  0  0  0  0  0  0  0  0  0
  1 12  1  0
  1 13  1  0
  2 11  2  0
  3  6  1  0
  3 11  1  0
  3 12  1  0
  4  5  1  0
  4  8  2  0
  5 12  2  0
  7  8  1  0
  7  9  1  0
  7 10  1  0
  8 11  1  0
M  END
>  <PUBCHEM_COMPOUND_CID>  (1) 
30478

>  <PUBCHEM_CONFORMER_RMSD>  (1) 
0.6

>  <PUBCHEM_CONFORMER_DIVERSEORDER>  (1) 
1
3
2

>  <PUBCHEM_MMFF94_PARTIAL_CHARGES>  (1) 
13
1 -0.37
11 0.63
12 0.65
13 0.23
2 -0.57
21 0.36
22 0.36
3 -0.11
4 -0.45
5 -0.45
6 -0.73
7 0.06
8 0.39

>  <PUBCHEM_EFFECTIVE_ROTOR_COUNT>  (1) 
2

>  <PUBCHEM_PHARMACOPHORE_FEATURES>  (1) 
6
1 13 hydrophobe
1 2 acceptor
1 4 acceptor
1 6 donor
3 7 9 10 hydrophobe
6 3 4 5 8 11 12 rings

>  <PUBCHEM_HEAVY_ATOM_COUNT>  (1) 
13

>  <PUBCHEM_ATOM_DEF_STEREO_COUNT>  (1) 
0

>  <PUBCHEM_ATOM_UDEF_STEREO_COUNT>  (1) 
0

>  <PUBCHEM_BOND_DEF_STEREO_COUNT>  (1) 
0

>  <PUBCHEM_BOND_UDEF_STEREO_COUNT>  (1) 
0

>  <PUBCHEM_ISOTOPIC_ATOM_COUNT>  (1) 
0

>  <PUBCHEM_COMPONENT_COUNT>  (1) 
1

>  <PUBCHEM_CACTVS_TAUTO_COUNT>  (1) 
1

>  <PUBCHEM_CONFORMER_ID>  (1) 
0000770E00000001

>  <PUBCHEM_MMFF94_ENERGY>  (1) 
35.1521

>  <PUBCHEM_FEATURE_SELFOVERLAP>  (1) 
30.446

>  <PUBCHEM_SHAPE_FINGERPRINT>  (1) 
11132069 177 18411415128795238368
11206711 2 18268430316235465807
12138202 97 18408042918364830567
12932764 1 18187651361448199792
13380535 21 18340785779071934899
13380535 76 18412258415685910123
13705890 14 14764343834228274572
14897335 6 18340760473040009967
15775835 57 18041287659451252948
16945 1 18342182158649072681
18186145 218 18060706082453338049
19026448 5 16587745351804241489
20645476 183 18041290975181732174
20715346 28 17631740507421998498
21040471 1 18413113840153549946
23235685 24 18412261726984194193
2334 1 17981043334074184617
23402539 116 18201142287463872220
23402655 69 18197483053560433373
23463225 33 18334856095825608906
23493267 7 17822588130580592288
23552423 10 18334301963545833454
23559900 14 18202012049439908980
2748010 2 18126846238112467065
3071541 236 18335413603881509987
528886 8 18413388752135408834
53812653 166 18273492390143687688
6333449 129 18201998871456702299
7364860 26 18057605356884656766

>  <PUBCHEM_SHAPE_MULTIPOLES>  (1) 
245.59
5.7
1.85
0.97
1.12
0.95
-0.06
-2.49
-0.32
0.59
-0.29
-0.49
-0.3
0.18

>  <PUBCHEM_SHAPE_SELFOVERLAP>  (1) 
481.62

>  <PUBCHEM_SHAPE_VOLUME>  (1) 
150.1

>  <PUBCHEM_COORDINATE_TYPE>  (1) 
2
5
10

$$$$
