30487
     RDKit          3D

 14 15  0  0  1  0  0  0  0  0999 V2000
    0.7090   -1.5937    0.3547 O   0  0  0  0  0  0  0  0  0  0  0  0
    2.7111    0.3546   -0.2279 N   0  0  0  0  0  0  0  0  0  0  0  0
    1.2917    0.7623   -0.0625 C   0  0  0  0  0  0  0  0  0  0  0  0
    0.3666   -0.4375   -0.4220 C   0  0  0  0  0  0  0  0  0  0  0  0
    2.9913   -0.8585    0.5569 C   0  0  0  0  0  0  0  0  0  0  0  0
    2.0599   -1.9825    0.1347 C   0  0  0  0  0  0  0  0  0  0  0  0
    0.9502    1.9738   -0.9463 C   0  0  0  0  0  0  0  0  0  0  0  0
   -1.1040   -0.1770   -0.1627 C   0  0  0  0  0  0  0  0  0  0  0  0
    3.6544    1.4072    0.1596 C   0  0  0  0  0  0  0  0  0  0  0  0
   -2.0702   -0.8032   -0.9483 C   0  0  0  0  0  0  0  0  0  0  0  0
   -1.4873    0.6882    0.8607 C   0  0  0  0  0  0  0  0  0  0  0  0
   -3.4234   -0.5636   -0.7098 C   0  0  0  0  0  0  0  0  0  0  0  0
   -2.8405    0.9279    1.0991 C   0  0  0  0  0  0  0  0  0  0  0  0
   -3.8087    0.3020    0.3140 C   0  0  0  0  0  0  0  0  0  0  0  0
  1  4  1  0
  1  6  1  0
  2  3  1  0
  2  5  1  0
  2  9  1  0
  3  4  1  0
  3  7  1  0
  4  8  1  0
  5  6  1  0
  8 10  2  0
  8 11  1  0
 10 12  1  0
 11 13  2  0
 12 14  2  0
 13 14  1  0
M  END
>  <PUBCHEM_COMPOUND_CID>  (1) 
30487

>  <PUBCHEM_CONFORMER_RMSD>  (1) 
0.6

>  <PUBCHEM_CONFORMER_DIVERSEORDER>  (1) 
1
2
4
3

>  <PUBCHEM_MMFF94_PARTIAL_CHARGES>  (1) 
18
1 -0.56
10 -0.15
11 -0.15
12 -0.15
13 -0.15
14 -0.15
2 -0.81
27 0.15
28 0.15
29 0.15
3 0.27
30 0.15
31 0.15
4 0.42
5 0.27
6 0.28
8 -0.14
9 0.27

>  <PUBCHEM_EFFECTIVE_ROTOR_COUNT>  (1) 
2.2

>  <PUBCHEM_PHARMACOPHORE_FEATURES>  (1) 
4
1 1 acceptor
1 2 cation
6 1 2 3 4 5 6 rings
6 8 10 11 12 13 14 rings

>  <PUBCHEM_HEAVY_ATOM_COUNT>  (1) 
14

>  <PUBCHEM_ATOM_DEF_STEREO_COUNT>  (1) 
2

>  <PUBCHEM_ATOM_UDEF_STEREO_COUNT>  (1) 
0

>  <PUBCHEM_BOND_DEF_STEREO_COUNT>  (1) 
0

>  <PUBCHEM_BOND_UDEF_STEREO_COUNT>  (1) 
0

>  <PUBCHEM_ISOTOPIC_ATOM_COUNT>  (1) 
0

>  <PUBCHEM_COMPONENT_COUNT>  (1) 
1

>  <PUBCHEM_CACTVS_TAUTO_COUNT>  (1) 
1

>  <PUBCHEM_CONFORMER_ID>  (1) 
0000771700000001

>  <PUBCHEM_MMFF94_ENERGY>  (1) 
35.4929

>  <PUBCHEM_FEATURE_SELFOVERLAP>  (1) 
20.297

>  <PUBCHEM_SHAPE_FINGERPRINT>  (1) 
10219947 1 18187363237935662612
10980938 120 18408041805867885620
11471102 20 18334288768910005990
11578080 2 17769050701975227089
12251169 10 18271804554001382186
12346645 44 18343582971028182952
124424 183 16443333299794227989
12932764 1 18338522945318117069
13296908 3 17240766151058815363
13538477 17 18060129973062831375
14144814 61 18411700976169910531
14251717 144 18335696148152037790
14993402 34 18409168848309953660
15219456 202 17895184472536749597
15279307 12 18343300392060741839
15442244 35 18126005966368010170
15501101 241 18333731286829871028
15536298 74 18201720635275703382
15669948 3 17561356314278749591
15775835 57 18202007637442917929
16945 1 18260271866673774836
18186145 218 18410013234305785598
19049666 15 16879335728216299149
19422 9 18202282480963847111
200 152 18341322388486522975
20279233 1 16732982028939825651
204376 136 18116716407885232196
20559304 39 18272936002910811369
20645464 45 16660362606251464601
20645477 70 18261944159562161575
20871998 22 18123188996578097862
21639500 275 18261667194179526197
22445834 79 18341895139038426851
2255824 54 18337675217991248610
22854114 111 18411420617716041328
23048698 100 18412825763764632643
23236772 104 18343864437436097131
23388829 49 18411419509656975701
23402539 116 16917343732186308453
23463225 33 18341612564328425343
23557571 272 15841559608535118869
23559900 14 16773525373737444108
2748010 2 18044644318116259980
474 4 18264771132858952816
57096353 35 18201432635963998293
581208 293 18408318895777926064
63268167 104 18409162212221445229
7364860 26 18131074783918660518
77492 1 18273493464096540351
81228 2 17024304107092893868

>  <PUBCHEM_SHAPE_MULTIPOLES>  (1) 
277.26
6.33
1.76
0.98
1.12
0.08
0
-0.63
0.62
-1.33
-0.09
0.44
-0.15
-0.81

>  <PUBCHEM_SHAPE_SELFOVERLAP>  (1) 
573.987

>  <PUBCHEM_SHAPE_VOLUME>  (1) 
158.4

>  <PUBCHEM_COORDINATE_TYPE>  (1) 
2
5
10

$$$$
