30486
     RDKit          3D

  6  5  0  0  0  0  0  0  0  0999 V2000
   -3.3662    0.3035    0.0037 S   0  0  0  0  0  0  0  0  0  0  0  0
    3.1565   -0.1941    0.0026 N   0  0  0  0  0  0  0  0  0  0  0  0
    0.7151   -0.4078   -0.0087 C   0  0  0  0  0  0  0  0  0  0  0  0
   -0.6130    0.3552   -0.0124 C   0  0  0  0  0  0  0  0  0  0  0  0
    1.9037    0.5518    0.0080 C   0  0  0  0  0  0  0  0  0  0  0  0
   -1.7962   -0.6085    0.0069 C   0  0  0  0  0  0  0  0  0  0  0  0
  1  6  1  0
  2  5  1  0
  3  4  1  0
  3  5  1  0
  4  6  1  0
M  END
>  <PUBCHEM_COMPOUND_CID>  (1) 
30486

>  <PUBCHEM_CONFORMER_RMSD>  (1) 
0.4

>  <PUBCHEM_CONFORMER_DIVERSEORDER>  (1) 
1
18
12
16
11
13
7
3
14
17
5
4
10
6
9
15
8
2

>  <PUBCHEM_MMFF94_PARTIAL_CHARGES>  (1) 
7
1 -0.41
15 0.36
16 0.36
17 0.18
2 -0.99
5 0.27
6 0.23

>  <PUBCHEM_EFFECTIVE_ROTOR_COUNT>  (1) 
3

>  <PUBCHEM_PHARMACOPHORE_FEATURES>  (1) 
2
1 2 cation
1 2 donor

>  <PUBCHEM_HEAVY_ATOM_COUNT>  (1) 
6

>  <PUBCHEM_ATOM_DEF_STEREO_COUNT>  (1) 
0

>  <PUBCHEM_ATOM_UDEF_STEREO_COUNT>  (1) 
0

>  <PUBCHEM_BOND_DEF_STEREO_COUNT>  (1) 
0

>  <PUBCHEM_BOND_UDEF_STEREO_COUNT>  (1) 
0

>  <PUBCHEM_ISOTOPIC_ATOM_COUNT>  (1) 
0

>  <PUBCHEM_COMPONENT_COUNT>  (1) 
1

>  <PUBCHEM_CACTVS_TAUTO_COUNT>  (1) 
1

>  <PUBCHEM_CONFORMER_ID>  (1) 
0000771600000001

>  <PUBCHEM_MMFF94_ENERGY>  (1) 
-2.7303

>  <PUBCHEM_FEATURE_SELFOVERLAP>  (1) 
10.148

>  <PUBCHEM_SHAPE_FINGERPRINT>  (1) 
11062470 55 15697999630601860185
12932764 1 15647324286180718179
14325111 11 18410855494509057635
14390081 3 18272367581522671257
16714656 1 18410009944592847845
5460574 1 9295291638104721895

>  <PUBCHEM_SHAPE_MULTIPOLES>  (1) 
122.35
5.4
0.8
0.62
0.3
0
0
0.35
-0.02
0.1
0
0.09
0.01
0

>  <PUBCHEM_SHAPE_SELFOVERLAP>  (1) 
198.752

>  <PUBCHEM_SHAPE_VOLUME>  (1) 
86.3

>  <PUBCHEM_COORDINATE_TYPE>  (1) 
2
5
10

$$$$
