30494
     RDKit          3D

 17 17  0  0  1  0  0  0  0  0999 V2000
   -1.1398   -1.5468    0.4686 O   0  0  0  0  0  0  0  0  0  0  0  0
   -0.0834    1.3625   -1.5272 O   0  0  0  0  0  0  0  0  0  0  0  0
   -1.9117   -0.3558    0.2615 C   0  0  0  0  0  0  0  0  0  0  0  0
   -1.0407    0.8875    0.6383 C   0  0  0  0  0  0  0  0  0  0  0  0
    0.2730    1.1877   -0.1498 C   0  0  0  0  0  0  0  0  0  0  0  0
   -2.3402   -0.3521   -1.2226 C   0  0  0  0  0  0  0  0  0  0  0  0
   -3.1174   -0.4605    1.2357 C   0  0  0  0  0  0  0  0  0  0  0  0
    0.8891    2.5444    0.3153 C   0  0  0  0  0  0  0  0  0  0  0  0
    1.3284    0.0884    0.0146 C   0  0  0  0  0  0  0  0  0  0  0  0
   -3.0996   -1.5970   -1.6749 C   0  0  0  0  0  0  0  0  0  0  0  0
   -4.1454    0.6590    1.1476 C   0  0  0  0  0  0  0  0  0  0  0  0
    2.1258    2.9967   -0.4572 C   0  0  0  0  0  0  0  0  0  0  0  0
    1.8334   -0.1541    1.2701 C   0  0  0  0  0  0  0  0  0  0  0  0
    1.7270   -0.6108   -1.1000 C   0  0  0  0  0  0  0  0  0  0  0  0
    2.7937   -1.1545    1.4199 C   0  0  0  0  0  0  0  0  0  0  0  0
    2.6873   -1.6114   -0.9501 C   0  0  0  0  0  0  0  0  0  0  0  0
    3.2206   -1.8832    0.3100 C   0  0  0  0  0  0  0  0  0  0  0  0
  1  3  1  0
  2  5  1  0
  3  4  1  0
  3  6  1  0
  3  7  1  0
  4  5  1  0
  5  8  1  0
  5  9  1  0
  6 10  1  0
  7 11  1  0
  8 12  1  0
  9 13  2  0
  9 14  1  0
 13 15  1  0
 14 16  2  0
 15 17  2  0
 16 17  1  0
M  END
>  <PUBCHEM_COMPOUND_CID>  (1) 
30494

>  <PUBCHEM_CONFORMER_RMSD>  (1) 
0.8

>  <PUBCHEM_CONFORMER_DIVERSEORDER>  (1) 
10
16
13
7
15
2
18
11
6
12
17
3
4
14
9
8
5
1

>  <PUBCHEM_MMFF94_PARTIAL_CHARGES>  (1) 
17
1 -0.68
13 -0.15
14 -0.15
15 -0.15
16 -0.15
17 -0.15
2 -0.68
26 0.4
3 0.28
36 0.4
37 0.15
38 0.15
39 0.15
40 0.15
41 0.15
5 0.42
9 -0.14

>  <PUBCHEM_EFFECTIVE_ROTOR_COUNT>  (1) 
6

>  <PUBCHEM_PHARMACOPHORE_FEATURES>  (1) 
8
1 1 acceptor
1 1 donor
1 10 hydrophobe
1 11 hydrophobe
1 12 hydrophobe
1 2 acceptor
1 2 donor
6 9 13 14 15 16 17 rings

>  <PUBCHEM_HEAVY_ATOM_COUNT>  (1) 
17

>  <PUBCHEM_ATOM_DEF_STEREO_COUNT>  (1) 
0

>  <PUBCHEM_ATOM_UDEF_STEREO_COUNT>  (1) 
1

>  <PUBCHEM_BOND_DEF_STEREO_COUNT>  (1) 
0

>  <PUBCHEM_BOND_UDEF_STEREO_COUNT>  (1) 
0

>  <PUBCHEM_ISOTOPIC_ATOM_COUNT>  (1) 
0

>  <PUBCHEM_COMPONENT_COUNT>  (1) 
1

>  <PUBCHEM_CACTVS_TAUTO_COUNT>  (1) 
1

>  <PUBCHEM_CONFORMER_ID>  (1) 
0000771E0000000A

>  <PUBCHEM_MMFF94_ENERGY>  (1) 
51.621

>  <PUBCHEM_FEATURE_SELFOVERLAP>  (1) 
40.596

>  <PUBCHEM_SHAPE_FINGERPRINT>  (1) 
10618630 7 18190187788765755066
12251169 10 17131549440420902042
12553582 1 18336827485719904058
12633257 1 17345741972281939802
12707595 3 18187645777863978114
14178342 30 17989199343941671839
14181834 199 18263349455696926204
15852999 172 17612284739294230683
15906896 17 17613710419080902028
16945 1 18263638627339628448
1813 80 18339932506593342086
18511873 20 18201727206607217577
18981168 100 15647322078884169447
20361792 2 18335138657038668167
20645477 70 18263910206980831687
21296965 67 18336271119708364744
21501502 16 18272087266255650221
21524375 3 17689150536414815060
21731516 1 18408321064367392310
22802520 49 16515676719816349183
23402539 116 18338229359050953650
23419403 2 14573699491623693024
23557571 272 18194968440249392114
23598291 2 18272373109187597493
2748010 2 18265316327607255664
31174 14 18115036323910483041
3286 77 18041006158931403579
576247 118 18338522928391358012
6049 1 17240479234701419149
6992083 37 18131351869591482891
7364860 26 18339655541237483024
74978 22 18409169943563693219
7615 1 17988076807246877253
81228 2 17978223860006699768
81539 233 17971468757013307004
88987 49 16558758952926573413

>  <PUBCHEM_SHAPE_MULTIPOLES>  (1) 
338.11
5.87
2.56
1.55
3.58
1.69
0.14
-2.4
-1.12
-1.91
0.56
0.49
-0.36
-0.97

>  <PUBCHEM_SHAPE_SELFOVERLAP>  (1) 
678.787

>  <PUBCHEM_SHAPE_VOLUME>  (1) 
199.6

>  <PUBCHEM_COORDINATE_TYPE>  (1) 
2
5
10

$$$$
