30515
     RDKit          3D

 18 19  0  0  0  0  0  0  0  0999 V2000
    0.5829    1.2686    0.2997 O   0  0  0  0  0  0  0  0  0  0  0  0
    2.1112    2.2924   -1.0843 O   0  0  0  0  0  0  0  0  0  0  0  0
    4.7533   -0.8460   -0.0343 N   0  0  0  0  0  0  0  0  0  0  0  0
   -1.5617    2.1257    1.0009 C   0  0  0  0  0  0  0  0  0  0  0  0
   -2.3250    0.9292    0.5426 C   0  0  0  0  0  0  0  0  0  0  0  0
   -0.2961    2.3794    0.1762 C   0  0  0  0  0  0  0  0  0  0  0  0
   -3.3155    1.0639   -0.4305 C   0  0  0  0  0  0  0  0  0  0  0  0
   -2.0482   -0.3249    1.0870 C   0  0  0  0  0  0  0  0  0  0  0  0
   -3.7524   -1.3093   -0.3143 C   0  0  0  0  0  0  0  0  0  0  0  0
   -4.0292   -0.0555   -0.8588 C   0  0  0  0  0  0  0  0  0  0  0  0
   -2.7619   -1.4441    0.6585 C   0  0  0  0  0  0  0  0  0  0  0  0
   -4.5149   -2.5061   -0.7731 C   0  0  0  0  0  0  0  0  0  0  0  0
    1.7566    1.3561   -0.3851 C   0  0  0  0  0  0  0  0  0  0  0  0
    2.5800    0.1385   -0.1754 C   0  0  0  0  0  0  0  0  0  0  0  0
    1.9685   -1.0695    0.0595 C   0  0  0  0  0  0  0  0  0  0  0  0
    3.9460    0.2229   -0.2169 C   0  0  0  0  0  0  0  0  0  0  0  0
    2.7658   -2.1923    0.2523 C   0  0  0  0  0  0  0  0  0  0  0  0
    4.1406   -2.0289    0.1960 C   0  0  0  0  0  0  0  0  0  0  0  0
  1  6  1  0
  1 13  1  0
  2 13  2  0
  3 16  2  0
  3 18  1  0
  4  5  1  0
  4  6  1  0
  5  7  2  0
  5  8  1  0
  7 10  1  0
  8 11  2  0
  9 10  2  0
  9 11  1  0
  9 12  1  0
 13 14  1  0
 14 15  2  0
 14 16  1  0
 15 17  1  0
 17 18  2  0
M  END
>  <PUBCHEM_COMPOUND_CID>  (1) 
30515

>  <PUBCHEM_CONFORMER_RMSD>  (1) 
0.6

>  <PUBCHEM_CONFORMER_DIVERSEORDER>  (1) 
1
222
46
161
16
9
216
157
221
11
41
15
77
49
8
195
169
91
73
187
27
209
122
68
197
110
30
176
152
119
105
18
145
98
51
80
132
166
70
184
31
81
72
163
36
172
118
14
142
189
194
226
137
168
120
128
33
55
22
215
64
185
206
97
10
131
7
196
229
138
17
93
162
149
134
218
165
198
154
35
25
6
62
181
54
146
96
108
106
211
160
140
63
28
52
71
32
123
94
127
100
5
217
75
174
190
155
170
109
29
79
95
78
191
99
107
76
225
179
223
151
112
12
37
220
38
60
53
26
124
13
47
89
69
24
130
207
214
65
59
57
219
224
43
48
201
42
144
167
121
212
58
199
74
111
171
200
202
148
2
178
180
192
40
87
213
136
84
129
203
173
45
67
133
113
153
86
135
66
117
177
193
204
4
228
126
90
3
158
227
39
61
103
83
104
101
56
125
34
156
205
102
182
208
147
88
92
150
82
50
210
21
159
143
114
139
141
23
164
115
186
85
183
116
175
20
19
44
188

>  <PUBCHEM_MMFF94_PARTIAL_CHARGES>  (1) 
26
1 -0.43
10 -0.15
11 -0.15
12 0.14
13 0.63
14 0.09
15 -0.15
16 0.16
17 -0.15
18 0.16
2 -0.57
23 0.15
24 0.15
25 0.15
26 0.15
3 -0.62
30 0.15
31 0.15
32 0.15
33 0.15
4 0.14
5 -0.14
6 0.28
7 -0.15
8 -0.15
9 -0.14

>  <PUBCHEM_EFFECTIVE_ROTOR_COUNT>  (1) 
5

>  <PUBCHEM_PHARMACOPHORE_FEATURES>  (1) 
4
1 2 acceptor
1 3 acceptor
6 3 14 15 16 17 18 rings
6 5 7 8 9 10 11 rings

>  <PUBCHEM_HEAVY_ATOM_COUNT>  (1) 
18

>  <PUBCHEM_ATOM_DEF_STEREO_COUNT>  (1) 
0

>  <PUBCHEM_ATOM_UDEF_STEREO_COUNT>  (1) 
0

>  <PUBCHEM_BOND_DEF_STEREO_COUNT>  (1) 
0

>  <PUBCHEM_BOND_UDEF_STEREO_COUNT>  (1) 
0

>  <PUBCHEM_ISOTOPIC_ATOM_COUNT>  (1) 
0

>  <PUBCHEM_COMPONENT_COUNT>  (1) 
1

>  <PUBCHEM_CACTVS_TAUTO_COUNT>  (1) 
1

>  <PUBCHEM_CONFORMER_ID>  (1) 
0000773300000001

>  <PUBCHEM_MMFF94_ENERGY>  (1) 
47.0978

>  <PUBCHEM_FEATURE_SELFOVERLAP>  (1) 
20.298

>  <PUBCHEM_SHAPE_FINGERPRINT>  (1) 
10062212 137 18343581837557749927
10616163 171 18270684160147784470
11806522 49 18410856564520514240
12553582 1 18264508216509424008
12596599 1 18058466338565379807
13257819 101 14419851560469710502
13911882 115 17632017443083014734
13911987 19 17468495045152535229
14576447 43 18410576218998694902
14787075 74 18059012921163496392
15099037 8 18411424994393522841
15196674 1 18411136939410415242
15352361 1 18412260644779146575
15415430 10 18410572843222952442
15842332 3 18196118635958969232
17492 89 18412265021309337807
1798214 20 18411414020778136935
19141452 34 18195531385090792401
200 152 18413668028357824181
20261772 1 17703784838511622942
20281475 54 18341335582394168457
20291156 8 18341893008745028583
20621476 51 17976243656703097354
20626108 58 18115569522498948712
20645477 70 18114743857685317305
21250096 35 18343861121684330297
21503847 285 9439134164635202508
21634736 98 18409173229197622982
21673915 165 18341048528355063010
221490 88 18261682583126260978
22646028 28 18342459244205954567
23402539 116 18335698296195023946
23403322 49 18412261748807027839
23557571 272 17632298913099599817
23559900 14 18340757204565104048
23728640 28 18127138463798605865
27216 239 9799688212581128205
3004659 81 18334006211933884911
339767 52 18340472396709238326
46194498 28 17459185347397904941
463206 1 18197212770730626903
556388 4 18339637974916311255
85463 6 17632284683994254541
88748 71 18408606985099731355
9709674 26 18260551177187441411

>  <PUBCHEM_SHAPE_MULTIPOLES>  (1) 
353.71
9.66
2.91
0.94
1.81
0.04
0.03
-6.29
-1.63
-0.36
-0.08
-0.52
0.13
-1.04

>  <PUBCHEM_SHAPE_SELFOVERLAP>  (1) 
751.006

>  <PUBCHEM_SHAPE_VOLUME>  (1) 
196.9

>  <PUBCHEM_COORDINATE_TYPE>  (1) 
2
5
10

$$$$
