30517
     RDKit          3D

 20 22  0  0  0  0  0  0  0  0999 V2000
   -1.1999   -1.7247    0.0765 S   0  0  0  0  0  0  0  0  0  0  0  0
   -1.2137    0.7806   -0.0235 N   0  0  0  0  0  0  0  0  0  0  0  0
    5.2662    0.0050   -0.0088 N   0  0  0  0  0  0  0  0  0  0  0  0
   -2.5438    0.4253   -0.0031 C   0  0  0  0  0  0  0  0  0  0  0  0
   -3.5440    1.5191   -0.0354 C   0  0  0  0  0  0  0  0  0  0  0  0
   -4.8290    1.1629    0.7142 C   0  0  0  0  0  0  0  0  0  0  0  0
   -5.7583    0.1890   -0.0206 C   0  0  0  0  0  0  0  0  0  0  0  0
   -5.1140   -1.0104   -0.7276 C   0  0  0  0  0  0  0  0  0  0  0  0
   -4.0081   -1.7129    0.0633 C   0  0  0  0  0  0  0  0  0  0  0  0
   -2.7282   -0.9390    0.0394 C   0  0  0  0  0  0  0  0  0  0  0  0
   -0.3716   -0.2295    0.0133 C   0  0  0  0  0  0  0  0  0  0  0  0
   -0.7322    2.1464   -0.0689 C   0  0  0  0  0  0  0  0  0  0  0  0
    1.0666   -0.1703    0.0072 C   0  0  0  0  0  0  0  0  0  0  0  0
    1.7693   -0.0949    1.2115 C   0  0  0  0  0  0  0  0  0  0  0  0
    1.7639   -0.1869   -1.2025 C   0  0  0  0  0  0  0  0  0  0  0  0
    3.8571   -0.0530   -0.0035 C   0  0  0  0  0  0  0  0  0  0  0  0
    3.1628   -0.0364    1.2063 C   0  0  0  0  0  0  0  0  0  0  0  0
    3.1575   -0.1284   -1.2078 C   0  0  0  0  0  0  0  0  0  0  0  0
    6.0278   -0.5479    1.0933 C   0  0  0  0  0  0  0  0  0  0  0  0
    5.9717    0.6061   -1.1232 C   0  0  0  0  0  0  0  0  0  0  0  0
  1 10  1  0
  1 11  1  0
  2  4  1  0
  2 11  2  0
  2 12  1  0
  3 16  1  0
  3 19  1  0
  3 20  1  0
  4  5  1  0
  4 10  2  0
  5  6  1  0
  6  7  1  0
  7  8  1  0
  8  9  1  0
  9 10  1  0
 11 13  1  0
 13 14  2  0
 13 15  1  0
 14 17  1  0
 15 18  2  0
 16 17  2  0
 16 18  1  0
M  CHG  1   2   1
M  END
>  <PUBCHEM_COMPOUND_CID>  (1) 
30517

>  <PUBCHEM_CONFORMER_RMSD>  (1) 
0.6

>  <PUBCHEM_CONFORMER_DIVERSEORDER>  (1) 
1
2
3
4

>  <PUBCHEM_MMFF94_PARTIAL_CHARGES>  (1) 
21
1 -0.08
10 -0.14
11 0.32
12 0.51
13 0.05
14 -0.15
15 -0.15
16 0.1
17 -0.15
18 -0.15
19 0.37
2 -0.18
20 0.37
3 -0.84
34 0.15
35 0.15
36 0.15
37 0.15
4 0.15
5 0.18
9 0.18

>  <PUBCHEM_EFFECTIVE_ROTOR_COUNT>  (1) 
3

>  <PUBCHEM_PHARMACOPHORE_FEATURES>  (1) 
4
1 3 cation
5 1 2 4 10 11 rings
6 13 14 15 16 17 18 rings
7 4 5 6 7 8 9 10 rings

>  <PUBCHEM_HEAVY_ATOM_COUNT>  (1) 
20

>  <PUBCHEM_ATOM_DEF_STEREO_COUNT>  (1) 
0

>  <PUBCHEM_ATOM_UDEF_STEREO_COUNT>  (1) 
0

>  <PUBCHEM_BOND_DEF_STEREO_COUNT>  (1) 
0

>  <PUBCHEM_BOND_UDEF_STEREO_COUNT>  (1) 
0

>  <PUBCHEM_ISOTOPIC_ATOM_COUNT>  (1) 
0

>  <PUBCHEM_COMPONENT_COUNT>  (1) 
1

>  <PUBCHEM_CACTVS_TAUTO_COUNT>  (1) 
1

>  <PUBCHEM_CONFORMER_ID>  (1) 
0000773500000001

>  <PUBCHEM_MMFF94_ENERGY>  (1) 
62.382

>  <PUBCHEM_FEATURE_SELFOVERLAP>  (1) 
20.319

>  <PUBCHEM_SHAPE_FINGERPRINT>  (1) 
11315181 36 18333732446106972472
12107183 9 17467620508432440080
12236239 1 17748826319268354890
12390115 104 18058178211359905609
12403259 415 17561078128993682602
12403814 3 17458343014486227725
12596602 18 17313390049303682497
12616971 3 17676214567048739117
13140716 1 18338240496291159249
13288520 33 18411417319460635287
13533116 47 17822286856606526506
13590594 115 17095522885491314796
13760787 5 17240485814095392479
14386348 63 17775852315047447110
14573314 32 17632582625901944973
15788980 27 16515402971380282703
17834072 33 18113617898113006716
17844677 252 17418096537395839337
17980427 23 18335147513599012437
19489759 90 18341891896580665971
200 152 16515681143516482813
20279233 1 17846785108663903407
21033648 29 16773784871192259265
21267235 1 18339646745909306227
2297311 6 18201727253372082473
23035841 295 18407759226820939874
23175994 123 16917068875421664728
23402539 116 18411978065816252647
23536379 177 18408323268276303058
23557571 272 18201443562223928228
23559900 14 18272088331017201480
26918003 58 16343704356742318079
29717793 49 17967812735091011078
300161 21 17748823029260063671
3004659 81 18338519643411893526
335352 9 18411134758717009693
34797466 226 18130800001018020444
3545911 37 18272936002958264531
474 4 17096658793273148412
5104073 3 18338239374350095216
542803 24 18187083962066584038
59755656 215 18059582356369835302
67856867 119 18116438218295064820
7495541 125 18273212036691654272

>  <PUBCHEM_SHAPE_MULTIPOLES>  (1) 
405.48
14
1.53
1.09
6.89
0.18
-0.01
-0.11
-0.15
-1.93
0.01
1.22
-0.03
-0.71

>  <PUBCHEM_SHAPE_SELFOVERLAP>  (1) 
849.581

>  <PUBCHEM_SHAPE_VOLUME>  (1) 
233.5

>  <PUBCHEM_COORDINATE_TYPE>  (1) 
2
5
10

$$$$
