30522
     RDKit          3D

 25 28  0  0  1  0  0  0  0  0999 V2000
   -1.5562    0.0636    2.1448 O   0  0  0  0  0  0  0  0  0  0  0  0
    2.5299    0.7130    0.6799 N   0  0  0  0  0  0  0  0  0  0  0  0
    2.6774    1.0596   -0.7467 C   0  0  0  0  0  0  0  0  0  0  0  0
    4.8365   -0.0258    0.1368 C   0  0  0  0  0  0  0  0  0  0  0  0
    3.7018   -0.0284    1.1817 C   0  0  0  0  0  0  0  0  0  0  0  0
    3.0349   -0.1734   -1.5997 C   0  0  0  0  0  0  0  0  0  0  0  0
    3.8457    2.0646   -0.8293 C   0  0  0  0  0  0  0  0  0  0  0  0
    4.3433   -0.7978   -1.0984 C   0  0  0  0  0  0  0  0  0  0  0  0
    5.1277    1.4269   -0.2737 C   0  0  0  0  0  0  0  0  0  0  0  0
    1.2773    0.0359    0.9884 C   0  0  0  0  0  0  0  0  0  0  0  0
    0.0320    0.8231    0.5073 C   0  0  0  0  0  0  0  0  0  0  0  0
    1.2135   -0.1756    2.5024 C   0  0  0  0  0  0  0  0  0  0  0  0
   -1.3583    0.1395    0.7226 C   0  0  0  0  0  0  0  0  0  0  0  0
   -2.5522    0.9483    0.1846 C   0  0  0  0  0  0  0  0  0  0  0  0
   -1.3527   -1.2693    0.1106 C   0  0  0  0  0  0  0  0  0  0  0  0
   -3.8172    0.4701    0.4143 C   0  0  0  0  0  0  0  0  0  0  0  0
   -1.2579   -1.3879   -1.2542 C   0  0  0  0  0  0  0  0  0  0  0  0
   -2.2954    2.1094   -0.4990 C   0  0  0  0  0  0  0  0  0  0  0  0
   -1.4423   -2.3486    0.9550 C   0  0  0  0  0  0  0  0  0  0  0  0
   -4.8993    1.2031   -0.0731 C   0  0  0  0  0  0  0  0  0  0  0  0
   -1.2526   -2.6671   -1.8101 C   0  0  0  0  0  0  0  0  0  0  0  0
   -3.3776    2.8425   -0.9862 C   0  0  0  0  0  0  0  0  0  0  0  0
   -1.4368   -3.6278    0.3989 C   0  0  0  0  0  0  0  0  0  0  0  0
   -4.6796    2.3892   -0.7732 C   0  0  0  0  0  0  0  0  0  0  0  0
   -1.3419   -3.7870   -0.9836 C   0  0  0  0  0  0  0  0  0  0  0  0
  1 13  1  0
  2  3  1  0
  2  5  1  0
  2 10  1  0
  3  6  1  0
  3  7  1  0
  4  5  1  0
  4  8  1  0
  4  9  1  0
  6  8  1  0
  7  9  1  0
 10 11  1  0
 10 12  1  0
 11 13  1  0
 13 14  1  0
 13 15  1  0
 14 16  2  0
 14 18  1  0
 15 17  2  0
 15 19  1  0
 16 20  1  0
 17 21  1  0
 18 22  2  0
 19 23  2  0
 20 24  2  0
 21 25  2  0
 22 24  1  0
 23 25  1  0
M  END
>  <PUBCHEM_COMPOUND_CID>  (1) 
30522

>  <PUBCHEM_CONFORMER_RMSD>  (1) 
0.8

>  <PUBCHEM_CONFORMER_DIVERSEORDER>  (1) 
1
6
7
12
4
9
10
5
8
11
3
13
2

>  <PUBCHEM_MMFF94_PARTIAL_CHARGES>  (1) 
29
1 -0.68
10 0.27
13 0.57
14 -0.14
15 -0.14
16 -0.15
17 -0.15
18 -0.15
19 -0.15
2 -0.81
20 -0.15
21 -0.15
22 -0.15
23 -0.15
24 -0.15
25 -0.15
3 0.27
44 0.4
45 0.15
46 0.15
47 0.15
48 0.15
49 0.15
5 0.27
50 0.15
51 0.15
52 0.15
53 0.15
54 0.15

>  <PUBCHEM_EFFECTIVE_ROTOR_COUNT>  (1) 
6.2

>  <PUBCHEM_PHARMACOPHORE_FEATURES>  (1) 
6
1 1 acceptor
1 1 donor
1 2 cation
6 14 16 18 20 22 24 rings
6 15 17 19 21 23 25 rings
8 2 3 4 5 6 7 8 9 rings

>  <PUBCHEM_HEAVY_ATOM_COUNT>  (1) 
25

>  <PUBCHEM_ATOM_DEF_STEREO_COUNT>  (1) 
0

>  <PUBCHEM_ATOM_UDEF_STEREO_COUNT>  (1) 
1

>  <PUBCHEM_BOND_DEF_STEREO_COUNT>  (1) 
0

>  <PUBCHEM_BOND_UDEF_STEREO_COUNT>  (1) 
0

>  <PUBCHEM_ISOTOPIC_ATOM_COUNT>  (1) 
0

>  <PUBCHEM_COMPONENT_COUNT>  (1) 
1

>  <PUBCHEM_CACTVS_TAUTO_COUNT>  (1) 
1

>  <PUBCHEM_CONFORMER_ID>  (1) 
0000773A00000001

>  <PUBCHEM_MMFF94_ENERGY>  (1) 
83.0496

>  <PUBCHEM_FEATURE_SELFOVERLAP>  (1) 
30.446

>  <PUBCHEM_SHAPE_FINGERPRINT>  (1) 
10366900 7 16630532825946735432
105312 117 18410294683697257053
10721379 63 17479177466825939005
107951 10 18334303053998470082
11370993 70 18341615871627213158
11488393 25 18055927489646392611
11578080 2 17629759238671309640
12156800 1 15764933478974943222
12160290 23 18199733903764288091
12173636 292 17895478127977570562
12516196 113 8862645907525103069
12592029 89 18264774268269195955
12714826 92 17915752083143685890
12788726 201 18192137412113680835
12895837 130 18116160046454413132
12969540 114 18335969896878495045
13149001 5 17774143730092332313
13257819 37 18410296900185361359
133893 2 17693948397262812827
14251751 93 18409164394492073789
14251757 17 16414897721950760247
14251757 5 18341334491076725768
15131766 46 14853034939282279966
15163728 17 18118980087446823445
15463212 79 18334566984233515858
15664445 248 17185867840600645967
15775530 1 17627207289832362137
15849732 13 17973706005556986634
16752209 62 18268694151903129187
167882 2 18122624955133290630
17349148 13 13614521865985542148
17899979 19 17759527664807107994
17980427 23 17678172905582024396
1813 80 17692263249401061495
200 152 12895346703008631601
20101258 96 17903087963954253577
20197701 30 18338795611643964543
20600515 1 17035239064000640691
20602899 9 18131354085715532131
20645476 183 18335135384484676299
21033648 29 18341602694526014137
21250096 35 10447631509803916989
21344244 246 17984981484135690663
21756936 100 17749389291044928696
22907989 373 18198907092151684373
23227448 37 18335424624593622060
23366157 5 17614560342254552979
23557571 272 18128526249262469040
23558518 356 17753614847295674140
23559900 14 17988927778187177400
23598288 3 17897746454920304031
25265897 201 18050607102633371644
26353 1 17549524658646793367
298252 57 18334854979018041841
3027735 51 17988919032864416071
3298306 158 18340206267634852151
340366 18 18409175398388294460
3729539 64 17984151352882911470
3759504 43 18408603656462887243
4015057 19 16988837302660678624
44802255 64 18336278872609819630
559249 180 18411132516227564426
6138700 20 17908145374125039406
633830 44 17458068205319813664
7399639 24 17337017661111239072
81228 2 17910368900395264155

>  <PUBCHEM_SHAPE_MULTIPOLES>  (1) 
503.64
9.58
3.62
1.72
5.73
3.09
-0.49
-7.12
2.01
-4.04
1.47
0.44
0.5
0.21

>  <PUBCHEM_SHAPE_SELFOVERLAP>  (1) 
1090.521

>  <PUBCHEM_SHAPE_VOLUME>  (1) 
274.7

>  <PUBCHEM_COORDINATE_TYPE>  (1) 
2
5
10

$$$$
