30529
     RDKit          3D

 12 12  0  0  0  0  0  0  0  0999 V2000
   -2.5481   -0.8661    1.4650 Cl  0  0  0  0  0  0  0  0  0  0  0  0
   -2.7203    1.6067   -0.0055 Cl  0  0  0  0  0  0  0  0  0  0  0  0
   -2.5401   -0.8781   -1.4616 Cl  0  0  0  0  0  0  0  0  0  0  0  0
    0.1944   -1.1855    0.0006 N   0  0  0  0  0  0  0  0  0  0  0  0
    0.1641    1.2138   -0.0001 N   0  0  0  0  0  0  0  0  0  0  0  0
    2.2572    0.0404    0.0006 N   0  0  0  0  0  0  0  0  0  0  0  0
    2.1958    2.3845   -0.0005 N   0  0  0  0  0  0  0  0  0  0  0  0
   -0.4237    0.0066    0.0001 C   0  0  0  0  0  0  0  0  0  0  0  0
    1.5340   -1.0909    0.0008 C   0  0  0  0  0  0  0  0  0  0  0  0
   -1.9142   -0.0123   -0.0006 C   0  0  0  0  0  0  0  0  0  0  0  0
    1.5055    1.1531    0.0000 C   0  0  0  0  0  0  0  0  0  0  0  0
    2.2955   -2.3723    0.0012 C   0  0  0  0  0  0  0  0  0  0  0  0
  1 10  1  0
  2 10  1  0
  3 10  1  0
  4  8  2  0
  4  9  1  0
  5  8  1  0
  5 11  2  0
  6  9  2  0
  6 11  1  0
  7 11  1  0
  8 10  1  0
  9 12  1  0
M  END
>  <PUBCHEM_COMPOUND_CID>  (1) 
30529

>  <PUBCHEM_CONFORMER_RMSD>  (1) 
0.4

>  <PUBCHEM_CONFORMER_DIVERSEORDER>  (1) 
1
2

>  <PUBCHEM_MMFF94_PARTIAL_CHARGES>  (1) 
14
1 -0.29
10 1.01
11 0.72
12 0.14
16 0.4
17 0.4
2 -0.29
3 -0.29
4 -0.62
5 -0.62
6 -0.62
7 -0.9
8 0.48
9 0.48

>  <PUBCHEM_EFFECTIVE_ROTOR_COUNT>  (1) 
1

>  <PUBCHEM_PHARMACOPHORE_FEATURES>  (1) 
3
1 7 donor
4 5 6 7 11 cation
6 4 5 6 8 9 11 rings

>  <PUBCHEM_HEAVY_ATOM_COUNT>  (1) 
12

>  <PUBCHEM_ATOM_DEF_STEREO_COUNT>  (1) 
0

>  <PUBCHEM_ATOM_UDEF_STEREO_COUNT>  (1) 
0

>  <PUBCHEM_BOND_DEF_STEREO_COUNT>  (1) 
0

>  <PUBCHEM_BOND_UDEF_STEREO_COUNT>  (1) 
0

>  <PUBCHEM_ISOTOPIC_ATOM_COUNT>  (1) 
0

>  <PUBCHEM_COMPONENT_COUNT>  (1) 
1

>  <PUBCHEM_CACTVS_TAUTO_COUNT>  (1) 
4

>  <PUBCHEM_CONFORMER_ID>  (1) 
0000774100000001

>  <PUBCHEM_MMFF94_ENERGY>  (1) 
25.8457

>  <PUBCHEM_FEATURE_SELFOVERLAP>  (1) 
15.223

>  <PUBCHEM_SHAPE_FINGERPRINT>  (1) 
10130415 120 17972882458056373338
12423570 1 10774399175697935759
12932741 1 17821444664458137607
12932764 1 18060423538145555297
14648413 74 18335986384883235337
15775835 57 18059300984181922441
16945 1 18338797922072625190
17841504 4 18335992973399938859
17990270 104 18409165476486397554
18380122 1 17897173630921361571
18511873 20 18054223233357980249
19973954 147 18408326575068895937
20082192 1 17489318477021668437
20711985 344 17188992124366139486
21040471 1 18050568748817873824
21501502 16 18410853248568306981
21524375 3 17841711017606005280
23552423 10 18412539920616284439
2748010 2 18408605837873497220
3248919 1 18040992955732358885
5084963 1 17988638657261253385
63268167 104 18340771442217627128
8030462 33 18409731785241323093
81228 2 17474394573954318522
9939556 21 18200584818194338069

>  <PUBCHEM_SHAPE_MULTIPOLES>  (1) 
232.64
4.43
2.28
1.01
0.82
0.5
0
-0.33
0
-1.46
0
1.03
-0.42
0

>  <PUBCHEM_SHAPE_SELFOVERLAP>  (1) 
447.881

>  <PUBCHEM_SHAPE_VOLUME>  (1) 
139.6

>  <PUBCHEM_COORDINATE_TYPE>  (1) 
2
5
10

$$$$
