30544
     RDKit          3D

 22 26  0  0  0  0  0  0  0  0999 V2000
   -2.3754   -3.1750    1.0195 O   0  0  0  0  0  0  0  0  0  0  0  0
    0.4983    0.0438   -0.0483 C   0  0  0  0  0  0  0  0  0  0  0  0
    1.9196    0.1154   -0.0148 C   0  0  0  0  0  0  0  0  0  0  0  0
   -0.1174   -1.2227   -0.1472 C   0  0  0  0  0  0  0  0  0  0  0  0
   -0.2952    1.2202    0.0162 C   0  0  0  0  0  0  0  0  0  0  0  0
   -1.5116   -1.3129   -0.1815 C   0  0  0  0  0  0  0  0  0  0  0  0
   -1.7288    1.1106   -0.0201 C   0  0  0  0  0  0  0  0  0  0  0  0
   -2.3202   -0.1733   -0.1198 C   0  0  0  0  0  0  0  0  0  0  0  0
    2.7007   -1.0642   -0.0796 C   0  0  0  0  0  0  0  0  0  0  0  0
    2.5656    1.3666    0.0837 C   0  0  0  0  0  0  0  0  0  0  0  0
    0.6701   -2.3803   -0.2102 C   0  0  0  0  0  0  0  0  0  0  0  0
    0.3954    2.4499    0.1142 C   0  0  0  0  0  0  0  0  0  0  0  0
    2.0610   -2.3030   -0.1771 C   0  0  0  0  0  0  0  0  0  0  0  0
    1.7903    2.5239    0.1472 C   0  0  0  0  0  0  0  0  0  0  0  0
   -2.1544   -2.6724   -0.2868 C   0  0  0  0  0  0  0  0  0  0  0  0
   -2.6155    2.2160    0.0380 C   0  0  0  0  0  0  0  0  0  0  0  0
   -3.7185   -0.3157   -0.1575 C   0  0  0  0  0  0  0  0  0  0  0  0
    4.1001   -0.9747   -0.0454 C   0  0  0  0  0  0  0  0  0  0  0  0
    3.9669    1.4283    0.1161 C   0  0  0  0  0  0  0  0  0  0  0  0
    4.7282    0.2643    0.0519 C   0  0  0  0  0  0  0  0  0  0  0  0
   -4.0037    2.0611   -0.0003 C   0  0  0  0  0  0  0  0  0  0  0  0
   -4.5557    0.7938   -0.0982 C   0  0  0  0  0  0  0  0  0  0  0  0
  1 15  1  0
  2  3  2  0
  2  4  1  0
  2  5  1  0
  3  9  1  0
  3 10  1  0
  4  6  2  0
  4 11  1  0
  5  7  1  0
  5 12  2  0
  6  8  1  0
  6 15  1  0
  7  8  2  0
  7 16  1  0
  8 17  1  0
  9 13  1  0
  9 18  2  0
 10 14  2  0
 10 19  1  0
 11 13  2  0
 12 14  1  0
 16 21  2  0
 17 22  2  0
 18 20  1  0
 19 20  2  0
 21 22  1  0
M  END
>  <PUBCHEM_COMPOUND_CID>  (1) 
30544

>  <PUBCHEM_CONFORMER_RMSD>  (1) 
0.6

>  <PUBCHEM_CONFORMER_DIVERSEORDER>  (1) 
1

>  <PUBCHEM_MMFF94_PARTIAL_CHARGES>  (1) 
26
1 -0.68
11 -0.15
12 -0.15
13 -0.15
14 -0.15
15 0.42
16 -0.15
17 -0.15
18 -0.15
19 -0.15
20 -0.15
21 -0.15
22 -0.15
23 0.15
24 0.15
25 0.15
26 0.15
29 0.15
30 0.15
31 0.15
32 0.15
33 0.15
34 0.15
35 0.15
36 0.4
6 -0.14

>  <PUBCHEM_EFFECTIVE_ROTOR_COUNT>  (1) 
1

>  <PUBCHEM_PHARMACOPHORE_FEATURES>  (1) 
7
1 1 acceptor
1 1 donor
6 2 3 4 9 11 13 rings
6 2 3 5 10 12 14 rings
6 2 4 5 6 7 8 rings
6 3 9 10 18 19 20 rings
6 7 8 16 17 21 22 rings

>  <PUBCHEM_HEAVY_ATOM_COUNT>  (1) 
22

>  <PUBCHEM_ATOM_DEF_STEREO_COUNT>  (1) 
0

>  <PUBCHEM_ATOM_UDEF_STEREO_COUNT>  (1) 
0

>  <PUBCHEM_BOND_DEF_STEREO_COUNT>  (1) 
0

>  <PUBCHEM_BOND_UDEF_STEREO_COUNT>  (1) 
0

>  <PUBCHEM_ISOTOPIC_ATOM_COUNT>  (1) 
0

>  <PUBCHEM_COMPONENT_COUNT>  (1) 
1

>  <PUBCHEM_CACTVS_TAUTO_COUNT>  (1) 
1

>  <PUBCHEM_CONFORMER_ID>  (1) 
0000775000000001

>  <PUBCHEM_MMFF94_ENERGY>  (1) 
90.0222

>  <PUBCHEM_FEATURE_SELFOVERLAP>  (1) 
35.673

>  <PUBCHEM_SHAPE_FINGERPRINT>  (1) 
10411042 1 17042322217198066814
10616163 171 18339081604525486478
10863032 1 18411136961201756320
10906281 52 18270416996075846620
10967382 1 18339642235370446332
1100329 8 18120087286776162442
11112241 14 16556751309140162800
11370993 70 18411132507146668549
11680986 33 18411704313185445722
12011746 2 18411699842129850148
12403814 3 17749105560994051365
12788726 201 17631459977085633152
12838862 33 18267283396637785584
13132413 78 18341612594461969796
13140716 1 18195532708256737137
133893 2 16054937302873085855
138480 1 17474389071864406991
14178342 30 18266442369152911504
14223421 5 18267025152948807339
14790565 3 18267594498140914872
15196674 1 18411981334355020900
15442244 35 18411134736266272212
15536298 74 18272087150075248940
1601671 61 18411700950632462212
16945 1 18411423920582652703
19591789 44 18194402186601028405
20739085 24 17833579819596470857
20905425 154 18053954136176252174
21267235 1 18340494382493566462
21279426 13 18196655081884718620
21421861 104 17897437294932544266
221490 88 18265619968909849760
22182313 1 18200050515541471086
23227448 37 18413106173563314247
2334 1 18051412065203065486
23402539 116 18272078366714096116
23558518 356 18044094789555687377
23559900 14 18343019961641499790
2748010 2 18195523924695097782
335352 9 18339642227075956734
34934 24 18411131416409695610
350125 39 18266465501693799577
3680242 22 18264205803646273658
5104073 3 18411417302022252170
7364860 26 18270399378330865158
7832392 63 18412259541025097638
8809292 202 18335139829617572083
9709674 26 18341617013904313063

>  <PUBCHEM_SHAPE_MULTIPOLES>  (1) 
446.88
7.87
3.35
0.66
0.47
1.02
-0.03
-1.89
-0.02
-0.98
-0.27
-0.09
0.13
0.31

>  <PUBCHEM_SHAPE_SELFOVERLAP>  (1) 
1046.834

>  <PUBCHEM_SHAPE_VOLUME>  (1) 
228.4

>  <PUBCHEM_COORDINATE_TYPE>  (1) 
2
5
10

$$$$
