30552
     RDKit          3D

 33 36  0  0  1  0  0  0  0  0999 V2000
    2.0126    2.0175    2.3350 O   0  0  0  0  0  0  0  0  0  0  0  0
    1.7677    2.4676   -0.6637 O   0  0  0  0  0  0  0  0  0  0  0  0
    4.0168   -1.2548    0.2675 O   0  0  0  0  0  0  0  0  0  0  0  0
    3.7433    1.1066   -2.1283 O   0  0  0  0  0  0  0  0  0  0  0  0
   -0.7613   -1.5918    0.3416 O   0  0  0  0  0  0  0  0  0  0  0  0
   -2.6888    0.3434    0.1253 O   0  0  0  0  0  0  0  0  0  0  0  0
    4.4721   -2.1620   -1.8078 O   0  0  0  0  0  0  0  0  0  0  0  0
   -1.3674   -3.2181   -1.1833 O   0  0  0  0  0  0  0  0  0  0  0  0
   -4.2143    1.3003    1.5664 O   0  0  0  0  0  0  0  0  0  0  0  0
    1.9301    0.0029    0.7596 C   0  0  0  0  0  0  0  0  0  0  0  0
    2.5567    1.2949    1.2417 C   0  0  0  0  0  0  0  0  0  0  0  0
    0.5569    0.3733    0.0131 C   0  0  0  0  0  0  0  0  0  0  0  0
    2.9502    2.0298    0.0127 C   0  0  0  0  0  0  0  0  0  0  0  0
    3.0330   -0.3989   -0.3142 C   0  0  0  0  0  0  0  0  0  0  0  0
    3.3270    1.4688    2.5331 C   0  0  0  0  0  0  0  0  0  0  0  0
    3.7289    0.9289   -0.7257 C   0  0  0  0  0  0  0  0  0  0  0  0
    0.8481    1.4475   -1.0886 C   0  0  0  0  0  0  0  0  0  0  0  0
    1.7492   -1.0585    1.8493 C   0  0  0  0  0  0  0  0  0  0  0  0
   -0.5153    0.9554    0.9930 C   0  0  0  0  0  0  0  0  0  0  0  0
   -0.0553   -0.8926   -0.6538 C   0  0  0  0  0  0  0  0  0  0  0  0
   -1.8077    1.4478    0.3172 C   0  0  0  0  0  0  0  0  0  0  0  0
   -0.3722    2.1740   -1.5900 C   0  0  0  0  0  0  0  0  0  0  0  0
   -1.5738    2.1636   -0.9890 C   0  0  0  0  0  0  0  0  0  0  0  0
    4.6609   -2.0876   -0.6011 C   0  0  0  0  0  0  0  0  0  0  0  0
   -2.7435    2.9043   -1.5726 C   0  0  0  0  0  0  0  0  0  0  0  0
   -1.3819   -2.7532   -0.0516 C   0  0  0  0  0  0  0  0  0  0  0  0
    5.6587   -2.9205    0.1450 C   0  0  0  0  0  0  0  0  0  0  0  0
   -3.8691    0.3977    0.8162 C   0  0  0  0  0  0  0  0  0  0  0  0
   -2.0904   -3.3869    1.1070 C   0  0  0  0  0  0  0  0  0  0  0  0
   -4.6684   -0.8572    0.5367 C   0  0  0  0  0  0  0  0  0  0  0  0
   -6.0709   -0.5684   -0.0208 C   0  0  0  0  0  0  0  0  0  0  0  0
   -6.8316   -1.8791   -0.2302 C   0  0  0  0  0  0  0  0  0  0  0  0
   -6.0002    0.2052   -1.3398 C   0  0  0  0  0  0  0  0  0  0  0  0
  1 11  1  0
  1 15  1  0
  2 13  1  0
  2 17  1  0
  3 14  1  0
  3 24  1  0
  4 16  1  0
  5 20  1  0
  5 26  1  0
  6 21  1  0
  6 28  1  0
  7 24  2  0
  8 26  2  0
  9 28  2  0
 10 11  1  0
 10 12  1  0
 10 14  1  0
 10 18  1  0
 11 13  1  0
 11 15  1  0
 12 17  1  0
 12 19  1  0
 12 20  1  0
 13 16  1  0
 14 16  1  0
 17 22  1  0
 19 21  1  0
 21 23  1  0
 22 23  2  0
 23 25  1  0
 24 27  1  0
 26 29  1  0
 28 30  1  0
 30 31  1  0
 31 32  1  0
 31 33  1  0
M  END
>  <PUBCHEM_COMPOUND_CID>  (1) 
30552

>  <PUBCHEM_CONFORMER_RMSD>  (1) 
1

>  <PUBCHEM_CONFORMER_DIVERSEORDER>  (1) 
1
85
2
63
110
50
74
17
34
86
11
22
51
112
47
79
71
68
6
57
115
83
30
29
38
67
12
62
88
102
32
109
116
53
18
75
70
36
8
76
101
72
108
39
21
45
54
90
35
117
40
37
19
31
15
4
107
33
66
99
16
65
91
80
118
23
13
92
41
93
49
25
52
73
42
95
26
20
105
87
78
111
89
28
64
69
103
14
113
104
3
60
61
82
77
96
44
24
9
10
59
98
100
46
106
48
56
97
94
81
55
114
27
58
7
43
84
5

>  <PUBCHEM_MMFF94_PARTIAL_CHARGES>  (1) 
31
1 -0.3
10 0.09
11 -0.04
13 0.38
14 0.28
15 -0.05
16 0.28
17 0.42
2 -0.56
20 0.28
21 0.42
22 -0.29
23 -0.28
24 0.66
25 0.14
26 0.66
27 0.06
28 0.66
29 0.06
3 -0.43
30 0.06
36 0.1
37 0.1
4 -0.68
48 0.15
49 0.4
5 -0.43
6 -0.43
7 -0.57
8 -0.57
9 -0.57

>  <PUBCHEM_EFFECTIVE_ROTOR_COUNT>  (1) 
10.4

>  <PUBCHEM_PHARMACOPHORE_FEATURES>  (1) 
10
1 1 acceptor
1 2 acceptor
1 4 acceptor
1 4 donor
1 7 acceptor
1 8 acceptor
1 9 acceptor
3 31 32 33 hydrophobe
6 12 17 19 21 22 23 rings
8 2 10 11 12 13 14 16 17 rings

>  <PUBCHEM_HEAVY_ATOM_COUNT>  (1) 
33

>  <PUBCHEM_ATOM_DEF_STEREO_COUNT>  (1) 
3

>  <PUBCHEM_ATOM_UDEF_STEREO_COUNT>  (1) 
5

>  <PUBCHEM_BOND_DEF_STEREO_COUNT>  (1) 
0

>  <PUBCHEM_BOND_UDEF_STEREO_COUNT>  (1) 
0

>  <PUBCHEM_ISOTOPIC_ATOM_COUNT>  (1) 
0

>  <PUBCHEM_COMPONENT_COUNT>  (1) 
1

>  <PUBCHEM_CACTVS_TAUTO_COUNT>  (1) 
1

>  <PUBCHEM_CONFORMER_ID>  (1) 
0000775800000001

>  <PUBCHEM_MMFF94_ENERGY>  (1) 
105.3536

>  <PUBCHEM_FEATURE_SELFOVERLAP>  (1) 
50.76

>  <PUBCHEM_SHAPE_FINGERPRINT>  (1) 
11135609 12 18260536858220001170
11578080 2 17415833854203273056
12788726 201 17822007635971343769
13140716 1 17901374912022316153
13533116 47 18131350843015320923
13583140 156 17201926053126118106
13782708 43 18342740676333537463
14117953 113 18336824192281341703
15664445 248 17972323086148566828
16945 1 18261660571456279256
17349148 13 18341056306751566249
18222031 100 18260265274447777001
19591789 44 18262802856663005390
20028762 73 18273495650483639463
21033648 29 18339906152637707929
22182313 1 18263060172285418740
22393880 68 18188483571918395717
23559900 14 18410295847480517098
3286 77 18131634456527237416
350125 39 18339081484445574761
437815 12 18059304149821038414
484989 97 18335139756587414487
5104073 3 17418380190442949065
563151 74 17059474362272784658
9981440 41 16623149699634195152

>  <PUBCHEM_SHAPE_MULTIPOLES>  (1) 
626.3
12.02
3.68
1.84
11.68
1.72
0.49
6.54
-1.56
-0.66
-0.77
-1.29
-0.74
1.28

>  <PUBCHEM_SHAPE_SELFOVERLAP>  (1) 
1321.032

>  <PUBCHEM_SHAPE_VOLUME>  (1) 
345.7

>  <PUBCHEM_COORDINATE_TYPE>  (1) 
2
5
10

$$$$
