30560
     RDKit          3D

 14 14  0  0  1  0  0  0  0  0999 V2000
   -0.1043   -4.1559   -0.1044 Br  0  0  0  0  0  0  0  0  0  0  0  0
    0.8215   -1.1253   -0.2350 O   0  0  0  0  0  0  0  0  0  0  0  0
   -0.4778   -1.3505    0.2950 C   0  0  0  0  0  0  0  0  0  0  0  0
    2.8611    0.1279   -0.1793 C   0  0  0  0  0  0  0  0  0  0  0  0
    1.4810   -0.0597    0.4347 C   0  0  0  0  0  0  0  0  0  0  0  0
   -1.2837   -0.0830    0.1221 C   0  0  0  0  0  0  0  0  0  0  0  0
    3.6347    1.2509    0.5056 C   0  0  0  0  0  0  0  0  0  0  0  0
   -1.1350   -2.5263   -0.4190 C   0  0  0  0  0  0  0  0  0  0  0  0
   -1.0212    0.7441   -0.9573 C   0  0  0  0  0  0  0  0  0  0  0  0
   -2.2681    0.2251    1.0460 C   0  0  0  0  0  0  0  0  0  0  0  0
    5.0282    1.4064   -0.0819 C   0  0  0  0  0  0  0  0  0  0  0  0
   -1.7647    1.9134   -1.1171 C   0  0  0  0  0  0  0  0  0  0  0  0
   -3.0116    1.3944    0.8860 C   0  0  0  0  0  0  0  0  0  0  0  0
   -2.7598    2.2385   -0.1955 C   0  0  0  0  0  0  0  0  0  0  0  0
  1  8  1  0
  2  3  1  0
  2  5  1  0
  3  6  1  0
  3  8  1  0
  4  5  1  0
  4  7  1  0
  6  9  2  0
  6 10  1  0
  7 11  1  0
  9 12  1  0
 10 13  2  0
 12 14  2  0
 13 14  1  0
M  END
>  <PUBCHEM_COMPOUND_CID>  (1) 
30560

>  <PUBCHEM_CONFORMER_RMSD>  (1) 
0.6

>  <PUBCHEM_CONFORMER_DIVERSEORDER>  (1) 
1
94
74
85
83
46
102
50
4
86
78
105
42
51
39
82
35
3
101
89
76
80
99
9
70
41
96
65
93
55
69
5
77
104
88
22
66
63
34
87
95
49
79
61
103
24
32
62
59
37
27
100
33
16
56
20
90
26
64
91
18
6
47
84
38
54
10
60
68
40
57
98
31
45
29
81
52
43
97
8
92
7
53
25
44
19
67
106
11
30
23
17
36
48
15
72
21
2
13
58
12
14
71
73
75
28

>  <PUBCHEM_MMFF94_PARTIAL_CHARGES>  (1) 
16
1 -0.23
10 -0.15
12 -0.15
13 -0.15
14 -0.15
2 -0.56
24 0.15
25 0.15
29 0.15
3 0.42
30 0.15
31 0.15
5 0.28
6 -0.14
8 0.23
9 -0.15

>  <PUBCHEM_EFFECTIVE_ROTOR_COUNT>  (1) 
6

>  <PUBCHEM_PHARMACOPHORE_FEATURES>  (1) 
4
1 1 hydrophobe
1 11 hydrophobe
1 2 acceptor
6 6 9 10 12 13 14 rings

>  <PUBCHEM_HEAVY_ATOM_COUNT>  (1) 
14

>  <PUBCHEM_ATOM_DEF_STEREO_COUNT>  (1) 
0

>  <PUBCHEM_ATOM_UDEF_STEREO_COUNT>  (1) 
1

>  <PUBCHEM_BOND_DEF_STEREO_COUNT>  (1) 
0

>  <PUBCHEM_BOND_UDEF_STEREO_COUNT>  (1) 
0

>  <PUBCHEM_ISOTOPIC_ATOM_COUNT>  (1) 
0

>  <PUBCHEM_COMPONENT_COUNT>  (1) 
1

>  <PUBCHEM_CACTVS_TAUTO_COUNT>  (1) 
1

>  <PUBCHEM_CONFORMER_ID>  (1) 
0000776000000001

>  <PUBCHEM_MMFF94_ENERGY>  (1) 
32.6452

>  <PUBCHEM_FEATURE_SELFOVERLAP>  (1) 
20.297

>  <PUBCHEM_SHAPE_FINGERPRINT>  (1) 
1 1 18122626058966090703
11265709 11 17762059147830756662
12173636 292 18412544301462132676
14648413 74 17687462360795357689
15309172 13 18410295770144835913
15490181 7 18339084765801180255
1741750 31 18341890797116420240
18186145 218 18201163139878026444
18380122 1 18043266643131966329
18785283 64 18048606923388797522
204376 136 18410856529738789217
20510252 161 18343023332325794067
20645477 56 18340774827258517736
20671657 1 17980202989304883631
20871998 184 18334869341536424267
21041028 32 16827285732378357865
21426921 1 18195245748960191054
21524375 3 18335697209040602090
22112679 90 17760106389457047375
23402539 116 18126278877354662287
23419403 2 17197470677550335511
23557571 272 18053950825178499102
23598294 1 18336254760436494978
25 1 17988646246674460304
257057 1 17545880893928189671
27216 239 18260550047484948792
2748010 2 18189625938254993575
3071541 12 17836087775369449115
458136 41 18196947586321542939
7364860 26 17834114147834674567
81228 2 18122907791662100466

>  <PUBCHEM_SHAPE_MULTIPOLES>  (1) 
288.19
6.23
3.91
0.97
9.94
5.58
0.02
-6.33
-0.77
-1.64
0.56
-0.5
-0.29
0.14

>  <PUBCHEM_SHAPE_SELFOVERLAP>  (1) 
559.765

>  <PUBCHEM_SHAPE_VOLUME>  (1) 
178.8

>  <PUBCHEM_COORDINATE_TYPE>  (1) 
2
5
10

$$$$
