30574
     RDKit          3D

 23 24  0  0  1  0  0  0  0  0999 V2000
   -1.3879   -5.0782   -0.3208 Br  0  0  0  0  0  0  0  0  0  0  0  0
   -1.4319   -1.7281   -0.5246 O   0  0  0  0  0  0  0  0  0  0  0  0
    4.1634    1.1059    0.7507 C   0  0  0  0  0  0  0  0  0  0  0  0
    5.4549    0.5034    0.1693 C   0  0  0  0  0  0  0  0  0  0  0  0
    4.0000    2.4798    0.0680 C   0  0  0  0  0  0  0  0  0  0  0  0
    6.2089    1.6910   -0.4093 C   0  0  0  0  0  0  0  0  0  0  0  0
    5.0992    2.5524   -0.9859 C   0  0  0  0  0  0  0  0  0  0  0  0
    2.9743    0.1839    0.5979 C   0  0  0  0  0  0  0  0  0  0  0  0
   -3.2345   -0.1040   -0.4250 C   0  0  0  0  0  0  0  0  0  0  0  0
    2.5529   -0.2055   -0.6735 C   0  0  0  0  0  0  0  0  0  0  0  0
    2.2988   -0.2767    1.7280 C   0  0  0  0  0  0  0  0  0  0  0  0
   -4.1351    0.6549    0.5723 C   0  0  0  0  0  0  0  0  0  0  0  0
   -2.1439   -0.8626    0.3490 C   0  0  0  0  0  0  0  0  0  0  0  0
    0.7807   -1.5162    0.3155 C   0  0  0  0  0  0  0  0  0  0  0  0
   -2.6503    0.7809   -1.5490 C   0  0  0  0  0  0  0  0  0  0  0  0
   -0.4089   -2.4366    0.1621 C   0  0  0  0  0  0  0  0  0  0  0  0
   -5.3461    1.3265   -0.0834 C   0  0  0  0  0  0  0  0  0  0  0  0
    1.4561   -1.0556   -0.8146 C   0  0  0  0  0  0  0  0  0  0  0  0
    1.2020   -1.1266    1.5869 C   0  0  0  0  0  0  0  0  0  0  0  0
   -6.2235    2.0907    0.9119 C   0  0  0  0  0  0  0  0  0  0  0  0
   -1.7776    1.9353   -1.0761 C   0  0  0  0  0  0  0  0  0  0  0  0
   -0.0383   -3.6961   -0.6128 C   0  0  0  0  0  0  0  0  0  0  0  0
   -7.4132    2.7815    0.2635 C   0  0  0  0  0  0  0  0  0  0  0  0
  1 22  1  0
  2 13  1  0
  2 16  1  0
  3  4  1  0
  3  5  1  0
  3  8  1  0
  4  6  1  0
  5  7  1  0
  6  7  1  0
  8 10  2  0
  8 11  1  0
  9 12  1  0
  9 13  1  0
  9 15  1  0
 10 18  1  0
 11 19  2  0
 12 17  1  0
 14 16  1  0
 14 18  2  0
 14 19  1  0
 15 21  1  0
 16 22  1  0
 17 20  1  0
 20 23  1  0
M  END
>  <PUBCHEM_COMPOUND_CID>  (1) 
30574

>  <PUBCHEM_CONFORMER_RMSD>  (1) 
1

>  <PUBCHEM_CONFORMER_DIVERSEORDER>  (1) 
1
23
130
95
119
40
153
113
122
88
134
19
6
69
112
24
166
131
129
27
104
89
48
94
38
133
53
100
46
20
21
61
163
16
15
52
80
107
152
135
101
121
93
127
164
97
59
8
117
141
150
105
11
157
98
128
159
170
102
45
63
81
76
13
144
26
146
79
64
87
49
82
55
78
155
41
31
138
99
86
162
96
67
126
29
70
84
73
108
65
120
35
37
25
140
56
33
139
54
114
145
3
22
77
168
14
72
83
158
57
39
92
85
51
149
9
44
74
68
71
148
123
154
156
109
34
75
60
17
91
136
62
43
90
106
116
4
167
36
42
58
118
103
169
110
147
111
137
32
18
10
115
124
165
143
5
28
47
160
30
66
142
132
7
50
2
12
125
161
151

>  <PUBCHEM_MMFF94_PARTIAL_CHARGES>  (1) 
16
1 -0.23
10 -0.15
11 -0.15
13 0.28
14 -0.14
16 0.42
18 -0.15
19 -0.15
2 -0.56
22 0.23
3 0.14
36 0.15
37 0.15
45 0.15
46 0.15
8 -0.14

>  <PUBCHEM_EFFECTIVE_ROTOR_COUNT>  (1) 
11

>  <PUBCHEM_PHARMACOPHORE_FEATURES>  (1) 
7
1 1 hydrophobe
1 2 acceptor
1 21 hydrophobe
1 23 hydrophobe
5 3 4 5 6 7 rings
5 9 12 15 17 20 hydrophobe
6 8 10 11 14 18 19 rings

>  <PUBCHEM_HEAVY_ATOM_COUNT>  (1) 
23

>  <PUBCHEM_ATOM_DEF_STEREO_COUNT>  (1) 
0

>  <PUBCHEM_ATOM_UDEF_STEREO_COUNT>  (1) 
2

>  <PUBCHEM_BOND_DEF_STEREO_COUNT>  (1) 
0

>  <PUBCHEM_BOND_UDEF_STEREO_COUNT>  (1) 
0

>  <PUBCHEM_ISOTOPIC_ATOM_COUNT>  (1) 
0

>  <PUBCHEM_COMPONENT_COUNT>  (1) 
1

>  <PUBCHEM_CACTVS_TAUTO_COUNT>  (1) 
1

>  <PUBCHEM_CONFORMER_ID>  (1) 
0000776E00000001

>  <PUBCHEM_MMFF94_ENERGY>  (1) 
44.4301

>  <PUBCHEM_FEATURE_SELFOVERLAP>  (1) 
35.525

>  <PUBCHEM_SHAPE_FINGERPRINT>  (1) 
10165383 225 18413389813108472849
105312 117 18271246131328612926
11823591 26 18341885277856604379
12107183 9 18336254662243318234
12293681 160 17703792500627485587
12363563 72 8718543951947788299
12390115 104 18342747346686663043
12516196 113 8862936173887989648
12760667 363 10447936091604187269
12788726 201 18052800723158265503
12892183 10 15936959739471789987
13944108 23 18051694348056595745
13955234 65 18121787119474444195
14251764 75 18409449189389333481
1454969 45 18337103566924300039
14790565 3 18411700993661652681
14840074 17 17967814972236528037
15183329 4 14979961337321689921
15188451 53 12973892511737517025
15342168 16 18341326704886268757
15842332 3 17825636063293077514
17980427 23 17748831856035282847
18785283 64 18193552264182121955
21033648 29 18341887532651365688
21120745 212 17759807335390573967
21796203 349 16663145358807837642
23557571 272 18055923327485037710
23845131 108 18408887309389405115
270888 7 18411136943890499193
2838139 119 18342453793956097200
3004659 81 12031785855490381156
3472631 163 18342176665802730093
4058900 60 18270127816455211291
5104073 3 17823405175875077400
5252454 2 18337095843565455256
5718773 13 9079114445144700809
57724786 102 18335697200540234258
59682541 52 16486981635279623236
59755656 520 18411415115905302334
621550 34 18117839902794739431
6442390 28 18412267225107355183
77188 2 17258782521238835535
7808743 9 18337669818773641896
7970288 3 9079113350001964809

>  <PUBCHEM_SHAPE_MULTIPOLES>  (1) 
473.4
14.58
4.8
1.26
8.98
6.67
0.15
-21.16
1.07
3.36
-0.94
-0.21
-0.12
-1.25

>  <PUBCHEM_SHAPE_SELFOVERLAP>  (1) 
933.89

>  <PUBCHEM_SHAPE_VOLUME>  (1) 
288.4

>  <PUBCHEM_COORDINATE_TYPE>  (1) 
2
5
10

$$$$
