30578
     RDKit          3D

 24 25  0  0  1  0  0  0  0  0999 V2000
    2.0645   -5.0868    0.1601 Br  0  0  0  0  0  0  0  0  0  0  0  0
    1.8648   -1.7522    0.4882 O   0  0  0  0  0  0  0  0  0  0  0  0
   -3.9638    0.6985   -0.5389 C   0  0  0  0  0  0  0  0  0  0  0  0
   -3.7952    2.0625    0.1530 C   0  0  0  0  0  0  0  0  0  0  0  0
   -5.1888   -0.0514    0.0128 C   0  0  0  0  0  0  0  0  0  0  0  0
   -5.0676    2.9019    0.0500 C   0  0  0  0  0  0  0  0  0  0  0  0
   -6.4555    0.7968   -0.0895 C   0  0  0  0  0  0  0  0  0  0  0  0
   -6.2821    2.1521    0.5897 C   0  0  0  0  0  0  0  0  0  0  0  0
   -2.7010   -0.1391   -0.4506 C   0  0  0  0  0  0  0  0  0  0  0  0
    3.5381    0.0056    0.4042 C   0  0  0  0  0  0  0  0  0  0  0  0
    4.3516    0.8651   -0.5863 C   0  0  0  0  0  0  0  0  0  0  0  0
   -2.2164   -0.5406    0.7943 C   0  0  0  0  0  0  0  0  0  0  0  0
   -2.0249   -0.5070   -1.6138 C   0  0  0  0  0  0  0  0  0  0  0  0
    2.4858   -0.8051   -0.3701 C   0  0  0  0  0  0  0  0  0  0  0  0
   -0.3799   -1.6780   -0.2874 C   0  0  0  0  0  0  0  0  0  0  0  0
    2.9213    0.8034    1.5750 C   0  0  0  0  0  0  0  0  0  0  0  0
    0.8786   -2.5110   -0.1986 C   0  0  0  0  0  0  0  0  0  0  0  0
    5.5271    1.6025    0.0635 C   0  0  0  0  0  0  0  0  0  0  0  0
   -1.0560   -1.3100    0.8759 C   0  0  0  0  0  0  0  0  0  0  0  0
   -0.8644   -1.2764   -1.5323 C   0  0  0  0  0  0  0  0  0  0  0  0
    6.3171    2.4654   -0.9243 C   0  0  0  0  0  0  0  0  0  0  0  0
    1.9523    1.9050    1.1678 C   0  0  0  0  0  0  0  0  0  0  0  0
    0.6245   -3.8215    0.5377 C   0  0  0  0  0  0  0  0  0  0  0  0
    7.4698    3.2204   -0.2806 C   0  0  0  0  0  0  0  0  0  0  0  0
  1 23  1  0
  2 14  1  0
  2 17  1  0
  3  4  1  0
  3  5  1  0
  3  9  1  0
  4  6  1  0
  5  7  1  0
  6  8  1  0
  7  8  1  0
  9 12  2  0
  9 13  1  0
 10 11  1  0
 10 14  1  0
 10 16  1  0
 11 18  1  0
 12 19  1  0
 13 20  2  0
 15 17  1  0
 15 19  2  0
 15 20  1  0
 16 22  1  0
 17 23  1  0
 18 21  1  0
 21 24  1  0
M  END
>  <PUBCHEM_COMPOUND_CID>  (1) 
30578

>  <PUBCHEM_CONFORMER_RMSD>  (1) 
1

>  <PUBCHEM_CONFORMER_DIVERSEORDER>  (1) 
1
102
31
173
181
133
165
40
72
52
187
50
15
54
53
161
131
171
27
55
156
37
101
81
7
155
43
134
62
46
116
176
105
183
11
85
90
112
169
137
93
111
145
67
140
174
164
106
146
186
20
25
26
86
113
65
63
69
148
10
91
64
68
88
19
75
172
58
179
118
168
162
123
83
175
141
48
74
71
59
28
89
99
115
66
184
77
163
185
104
138
100
126
97
127
149
29
60
110
73
142
158
18
61
159
5
132
180
114
51
32
108
30
152
6
22
130
92
87
33
47
80
39
12
44
57
34
157
119
167
96
78
124
95
166
49
151
23
16
103
79
136
84
98
122
109
45
14
42
150
17
121
35
94
154
120
139
24
178
160
153
135
41
182
3
125
36
21
188
8
117
56
76
170
147
38
9
2
128
143
144
70
107
177
13
129
82
4

>  <PUBCHEM_MMFF94_PARTIAL_CHARGES>  (1) 
16
1 -0.23
12 -0.15
13 -0.15
14 0.28
15 -0.14
17 0.42
19 -0.15
2 -0.56
20 -0.15
23 0.23
3 0.14
39 0.15
40 0.15
48 0.15
49 0.15
9 -0.14

>  <PUBCHEM_EFFECTIVE_ROTOR_COUNT>  (1) 
11.2

>  <PUBCHEM_PHARMACOPHORE_FEATURES>  (1) 
7
1 1 hydrophobe
1 2 acceptor
1 22 hydrophobe
1 24 hydrophobe
5 10 11 16 18 21 hydrophobe
6 3 4 5 6 7 8 rings
6 9 12 13 15 19 20 rings

>  <PUBCHEM_HEAVY_ATOM_COUNT>  (1) 
24

>  <PUBCHEM_ATOM_DEF_STEREO_COUNT>  (1) 
0

>  <PUBCHEM_ATOM_UDEF_STEREO_COUNT>  (1) 
2

>  <PUBCHEM_BOND_DEF_STEREO_COUNT>  (1) 
0

>  <PUBCHEM_BOND_UDEF_STEREO_COUNT>  (1) 
0

>  <PUBCHEM_ISOTOPIC_ATOM_COUNT>  (1) 
0

>  <PUBCHEM_COMPONENT_COUNT>  (1) 
1

>  <PUBCHEM_CACTVS_TAUTO_COUNT>  (1) 
1

>  <PUBCHEM_CONFORMER_ID>  (1) 
0000777200000001

>  <PUBCHEM_MMFF94_ENERGY>  (1) 
39.575

>  <PUBCHEM_FEATURE_SELFOVERLAP>  (1) 
35.525

>  <PUBCHEM_SHAPE_FINGERPRINT>  (1) 
10165383 225 18335983151052189452
10369192 42 18335703879109001733
10675989 125 18339929217355158022
11823591 26 18336537304928477750
12293681 160 17988931093527462168
12633257 1 16081375193117137388
12895836 83 18337389456526043232
12895837 130 18198907105316765444
13878862 14 17903895796280339557
13885169 86 18261961859365371412
13944108 23 18198063577702871912
13955234 65 18117560630414507011
14114211 80 18410859897182917092
14251751 18 9367340431950053665
14251764 75 18408604773112199224
14257110 125 18410293627067015980
14790565 3 18409731781210749292
14849402 71 18192151495390721674
14931854 50 17917997161217924176
15183329 4 16630536132760472764
15238133 3 18342163497854896480
15439362 3 18412547609668567286
16126227 98 18337957912511720700
17844677 252 18052542067742692187
18608769 82 18268715094100218051
18785283 64 18189890920869296874
19438510 23 18187081806357447232
20691028 202 18265052625527677548
21033648 29 18268705177247565776
21365058 113 17551805724115114934
21424621 283 18411418453780725600
21756936 100 18267019634453921766
23559900 14 17981316803807271355
270888 7 18410293627257043452
2838139 119 18130494293218633812
3411729 13 18338796710844673886
34797466 226 18059298639693924423
38570 142 18341622498978080526
4058900 60 18409737244129062170
474 4 18408039589828226231
5219985 13 18410575119613654870
5265222 85 18268431407252851320
5718773 13 9583526399650866164
57724786 102 18260542321502791156
5776283 40 18198905992836307528
59682541 52 16773807957084872876
7288768 16 18114180873567492634
77188 2 17616814332333741206
7808743 9 18336263552355706196
960060 61 12247382523697242651

>  <PUBCHEM_SHAPE_MULTIPOLES>  (1) 
493.98
15.93
5.05
1.17
2.86
5.66
0.08
-23.04
1.18
5.9
-0.45
0.23
-0.03
-1.15

>  <PUBCHEM_SHAPE_SELFOVERLAP>  (1) 
971.147

>  <PUBCHEM_SHAPE_VOLUME>  (1) 
300.8

>  <PUBCHEM_COORDINATE_TYPE>  (1) 
2
5
10

$$$$
