30596
     RDKit          3D

 28 30  0  0  1  0  0  0  0  0999 V2000
   -2.7430   -0.9921   -1.1045 O   0  0  0  0  0  0  0  0  0  0  0  0
    0.6188    0.5321   -0.0734 O   0  0  0  0  0  0  0  0  0  0  0  0
    2.8883   -3.5022    0.3700 O   0  0  0  0  0  0  0  0  0  0  0  0
    5.1285    0.4434    0.9897 O   0  0  0  0  0  0  0  0  0  0  0  0
   -4.7188   -1.3776    0.0121 O   0  0  0  0  0  0  0  0  0  0  0  0
    1.6451   -1.5273    0.2929 N   0  0  0  0  0  0  0  0  0  0  0  0
    3.9698   -1.5213    0.7287 N   0  0  0  0  0  0  0  0  0  0  0  0
    0.4721   -2.2484   -0.1384 C   0  0  0  0  0  0  0  0  0  0  0  0
    0.0879   -1.8542   -1.5667 C   0  0  0  0  0  0  0  0  0  0  0  0
   -0.6863   -2.0186    0.8347 C   0  0  0  0  0  0  0  0  0  0  0  0
   -2.3451   -2.3606   -1.0546 C   0  0  0  0  0  0  0  0  0  0  0  0
   -1.1836   -2.5692   -2.0259 C   0  0  0  0  0  0  0  0  0  0  0  0
   -1.9568   -2.7352    0.3763 C   0  0  0  0  0  0  0  0  0  0  0  0
    2.7173    0.5225    1.1029 C   0  0  0  0  0  0  0  0  0  0  0  0
    1.5626   -0.1278    0.3631 C   0  0  0  0  0  0  0  0  0  0  0  0
    2.8256   -2.2742    0.4739 C   0  0  0  0  0  0  0  0  0  0  0  0
    2.8098    2.0140    0.7848 C   0  0  0  0  0  0  0  0  0  0  0  0
    4.0555   -0.1519    0.9138 C   0  0  0  0  0  0  0  0  0  0  0  0
    3.2130    2.2449   -0.6684 C   0  0  0  0  0  0  0  0  0  0  0  0
   -3.7950   -0.6479   -0.3128 C   0  0  0  0  0  0  0  0  0  0  0  0
    3.2733    3.7377   -0.9911 C   0  0  0  0  0  0  0  0  0  0  0  0
   -3.6834    0.7673    0.1219 C   0  0  0  0  0  0  0  0  0  0  0  0
    3.6415    3.9787   -2.4464 C   0  0  0  0  0  0  0  0  0  0  0  0
   -4.2184    1.1350    1.3395 C   0  0  0  0  0  0  0  0  0  0  0  0
   -3.0475    1.6709   -0.7048 C   0  0  0  0  0  0  0  0  0  0  0  0
   -4.1133    2.4645    1.7482 C   0  0  0  0  0  0  0  0  0  0  0  0
   -2.9425    3.0004   -0.2960 C   0  0  0  0  0  0  0  0  0  0  0  0
   -3.4754    3.3971    0.9306 C   0  0  0  0  0  0  0  0  0  0  0  0
  1 11  1  0
  1 20  1  0
  2 15  2  0
  3 16  2  0
  4 18  2  0
  5 20  2  0
  6  8  1  0
  6 15  1  0
  6 16  1  0
  7 16  1  0
  7 18  1  0
  8  9  1  0
  8 10  1  0
  9 12  1  0
 10 13  1  0
 11 12  1  0
 11 13  1  0
 14 15  1  0
 14 17  1  0
 14 18  1  0
 17 19  1  0
 19 21  1  0
 20 22  1  0
 21 23  1  0
 22 24  2  0
 22 25  1  0
 24 26  1  0
 25 27  2  0
 26 28  2  0
 27 28  1  0
M  END
>  <PUBCHEM_COMPOUND_CID>  (1) 
30596

>  <PUBCHEM_CONFORMER_RMSD>  (1) 
1

>  <PUBCHEM_CONFORMER_DIVERSEORDER>  (1) 
1
99
75
28
69
11
65
27
31
107
68
117
120
97
116
104
113
20
87
103
118
57
32
91
110
46
119
14
19
92
63
29
54
96
111
114
64
16
79
47
67
2
81
94
5
56
17
98
30
35
82
62
90
70
18
12
40
101
73
93
36
26
9
95
7
66
10
86
80
89
112
44
13
3
6
61
51
71
15
45
83
38
121
105
4
58
24
52
100
48
84
25
77
78
23
53
41
50
115
85
34
102
8
88
106
21
59
33
76
55
108
39
109
72
37
74
60
43
22
42
49

>  <PUBCHEM_MMFF94_PARTIAL_CHARGES>  (1) 
26
1 -0.43
11 0.28
14 0.12
15 0.57
16 0.69
18 0.57
2 -0.57
20 0.63
22 0.09
24 -0.15
25 -0.15
26 -0.15
27 -0.15
28 -0.15
3 -0.57
4 -0.57
42 0.37
5 -0.57
50 0.15
51 0.15
52 0.15
53 0.15
54 0.15
6 -0.42
7 -0.49
8 0.3

>  <PUBCHEM_EFFECTIVE_ROTOR_COUNT>  (1) 
8.8

>  <PUBCHEM_PHARMACOPHORE_FEATURES>  (1) 
10
1 14 anion
1 2 acceptor
1 23 hydrophobe
1 3 acceptor
1 4 acceptor
1 5 acceptor
1 7 donor
6 22 24 25 26 27 28 rings
6 6 7 14 15 16 18 rings
6 8 9 10 11 12 13 rings

>  <PUBCHEM_HEAVY_ATOM_COUNT>  (1) 
28

>  <PUBCHEM_ATOM_DEF_STEREO_COUNT>  (1) 
0

>  <PUBCHEM_ATOM_UDEF_STEREO_COUNT>  (1) 
1

>  <PUBCHEM_BOND_DEF_STEREO_COUNT>  (1) 
0

>  <PUBCHEM_BOND_UDEF_STEREO_COUNT>  (1) 
0

>  <PUBCHEM_ISOTOPIC_ATOM_COUNT>  (1) 
0

>  <PUBCHEM_COMPONENT_COUNT>  (1) 
1

>  <PUBCHEM_CACTVS_TAUTO_COUNT>  (1) 
3

>  <PUBCHEM_CONFORMER_ID>  (1) 
0000778400000001

>  <PUBCHEM_MMFF94_ENERGY>  (1) 
65.9569

>  <PUBCHEM_FEATURE_SELFOVERLAP>  (1) 
50.747

>  <PUBCHEM_SHAPE_FINGERPRINT>  (1) 
10006869 2 18268156525451327339
10670039 82 18340495585364504260
10871710 139 17906744943976178557
11059048 146 18192162692364869372
12422481 6 17981013385889878474
12633257 1 18051123692909934275
12788726 201 17979922936009950724
12978246 48 18411980230744079137
13140716 1 17909541002319744235
13583140 156 17385995114470332241
14251764 38 18411703158203389577
14790565 3 18338232782482630568
15021287 119 18113328709676219744
15475509 8 18339373989858339342
1601671 61 18127410043118067846
16991981 162 16165572722998188196
20739085 24 18123475973317743800
23558518 356 18410854326837453655
245318 6 18334867159477137261
338550 245 18411138013458597304
350125 39 18271802389954842275
38570 142 18043833076420312596
392239 28 18261119599520503427
5081480 168 16554832382012911967
5895379 119 18342740762681399644
6287921 2 18339090285002778749
6608658 132 17983575488194257647
6700243 42 16983515833464124119

>  <PUBCHEM_SHAPE_MULTIPOLES>  (1) 
536.92
9.83
5.3
1.65
0.33
2.51
-0.65
5.99
2.03
1.26
-1.6
0.37
0.68
-3.63

>  <PUBCHEM_SHAPE_SELFOVERLAP>  (1) 
1134.841

>  <PUBCHEM_SHAPE_VOLUME>  (1) 
294.9

>  <PUBCHEM_COORDINATE_TYPE>  (1) 
2
5
10

$$$$
