30605
     RDKit          3D

 28 33  0  0  1  0  0  0  0  0999 V2000
    7.0265    1.7937    0.7332 S   0  0  0  0  0  0  0  0  0  0  0  0
   -3.4670    0.4020   -0.5818 O   0  0  0  0  0  0  0  0  0  0  0  0
   -5.0354   -1.2522   -0.0465 O   0  0  0  0  0  0  0  0  0  0  0  0
    3.4414    0.2830   -0.3504 C   0  0  0  0  0  0  0  0  0  0  0  0
    1.9202    0.2840    0.0258 C   0  0  0  0  0  0  0  0  0  0  0  0
    1.2550   -1.1123   -0.2367 C   0  0  0  0  0  0  0  0  0  0  0  0
   -0.2030   -1.0378    0.2296 C   0  0  0  0  0  0  0  0  0  0  0  0
   -1.0116    0.0374   -0.5259 C   0  0  0  0  0  0  0  0  0  0  0  0
    4.1091   -0.8902    0.4955 C   0  0  0  0  0  0  0  0  0  0  0  0
    4.1431    1.6678    0.0206 C   0  0  0  0  0  0  0  0  0  0  0  0
    1.1092    1.4413   -0.6091 C   0  0  0  0  0  0  0  0  0  0  0  0
    2.0170   -2.2636    0.4451 C   0  0  0  0  0  0  0  0  0  0  0  0
   -0.3845    1.4078   -0.2340 C   0  0  0  0  0  0  0  0  0  0  0  0
    5.6050    1.4490   -0.1012 C   0  0  0  0  0  0  0  0  0  0  0  0
    3.5215   -2.2562    0.1504 C   0  0  0  0  0  0  0  0  0  0  0  0
    5.9820    0.5069    1.0209 C   0  0  0  0  0  0  0  0  0  0  0  0
    5.6761   -0.8486    0.5116 C   0  0  0  0  0  0  0  0  0  0  0  0
   -2.3920   -0.1920    0.1198 C   0  0  0  0  0  0  0  0  0  0  0  0
   -1.0832   -2.2807    0.1303 C   0  0  0  0  0  0  0  0  0  0  0  0
   -2.5180   -1.7264    0.1973 C   0  0  0  0  0  0  0  0  0  0  0  0
    3.6233    0.0447   -1.8768 C   0  0  0  0  0  0  0  0  0  0  0  0
   -1.0864   -0.1720   -2.0604 C   0  0  0  0  0  0  0  0  0  0  0  0
   -4.7179    0.1246    0.0356 C   0  0  0  0  0  0  0  0  0  0  0  0
   -4.7685    0.6523    1.4664 C   0  0  0  0  0  0  0  0  0  0  0  0
   -5.7984    0.9504   -0.6543 C   0  0  0  0  0  0  0  0  0  0  0  0
   -4.9623    2.1565    1.3012 C   0  0  0  0  0  0  0  0  0  0  0  0
   -5.6579    2.3456   -0.0485 C   0  0  0  0  0  0  0  0  0  0  0  0
   -6.3433   -1.5149    0.4423 C   0  0  0  0  0  0  0  0  0  0  0  0
  1 14  1  0
  1 16  1  0
  2 18  1  0
  2 23  1  0
  3 23  1  0
  3 28  1  0
  4  5  1  0
  4  9  1  0
  4 10  1  0
  4 21  1  0
  5  6  1  0
  5 11  1  0
  6  7  1  0
  6 12  1  0
  7  8  1  0
  7 19  1  0
  8 13  1  0
  8 18  1  0
  8 22  1  0
  9 15  1  0
  9 17  1  0
 10 14  1  0
 11 13  1  0
 12 15  1  0
 14 16  1  0
 16 17  1  0
 18 20  1  0
 19 20  1  0
 23 24  1  0
 23 25  1  0
 24 26  1  0
 25 27  1  0
 26 27  1  0
M  END
>  <PUBCHEM_COMPOUND_CID>  (1) 
30605

>  <PUBCHEM_CONFORMER_RMSD>  (1) 
0.8

>  <PUBCHEM_CONFORMER_DIVERSEORDER>  (1) 
1
2

>  <PUBCHEM_MMFF94_PARTIAL_CHARGES>  (1) 
12
1 -0.28
10 0.09
14 -0.05
16 -0.05
17 0.09
18 0.28
2 -0.56
23 0.56
28 0.28
3 -0.56
41 0.1
44 0.1

>  <PUBCHEM_EFFECTIVE_ROTOR_COUNT>  (1) 
6

>  <PUBCHEM_PHARMACOPHORE_FEATURES>  (1) 
7
1 2 acceptor
1 3 acceptor
5 23 24 25 26 27 rings
5 7 8 18 19 20 rings
6 4 5 6 9 12 15 rings
6 5 6 7 8 11 13 rings
7 1 4 9 10 14 16 17 rings

>  <PUBCHEM_HEAVY_ATOM_COUNT>  (1) 
28

>  <PUBCHEM_ATOM_DEF_STEREO_COUNT>  (1) 
8

>  <PUBCHEM_ATOM_UDEF_STEREO_COUNT>  (1) 
1

>  <PUBCHEM_BOND_DEF_STEREO_COUNT>  (1) 
0

>  <PUBCHEM_BOND_UDEF_STEREO_COUNT>  (1) 
0

>  <PUBCHEM_ISOTOPIC_ATOM_COUNT>  (1) 
0

>  <PUBCHEM_COMPONENT_COUNT>  (1) 
1

>  <PUBCHEM_CACTVS_TAUTO_COUNT>  (1) 
1

>  <PUBCHEM_CONFORMER_ID>  (1) 
0000778D00000001

>  <PUBCHEM_MMFF94_ENERGY>  (1) 
156.761

>  <PUBCHEM_FEATURE_SELFOVERLAP>  (1) 
35.644

>  <PUBCHEM_SHAPE_FINGERPRINT>  (1) 
10 15 17967247633427513744
10366900 7 13254801252480611270
10595046 47 18342453742785865215
10906281 52 18041854994935178046
11089746 13 17918267662615996784
12107183 9 17835524817311358059
12236239 1 18131067121575470566
12422481 6 17530964661461129102
12516196 113 18412544327347987352
12596602 18 18272653437044108459
12616971 3 16660367008392580678
12788726 201 17489311845618849648
13073987 5 18410577275597787379
13140716 1 18118123795421565836
13167372 99 18341331111359366376
13533116 47 17168416057570257458
13782708 43 12324237269988079368
13785724 45 17764025766654735146
14251764 18 18335984250526841847
14347332 77 9367356924597986090
14394314 77 18341618087931643169
14466204 15 18410293605671489225
14790565 3 18410013234221285384
14849402 71 18268432506384729720
15021287 119 17022620905219755373
15142383 8 16805595941512408044
15183329 4 18408888421052237349
15196674 1 18408604738778769623
15238133 3 18334303058720107964
15788980 27 17240487992260989983
15840311 113 18267592299813575893
1601671 61 18408606950328172564
17349148 13 11025803067507638093
1813 80 16660648444408604975
18608769 82 18267868461958082659
20511986 3 18341320137179744299
20775438 99 8428020965203586672
21033648 144 18335695019155738791
21033648 29 17386283182659555933
21130935 74 18335136475575714178
21150785 3 16988836198906928109
21236236 1 18410291428613355559
21267235 1 18335702711832802274
21279426 13 18339928104161985141
21421861 104 17896025578079901202
21859007 373 17315057879625694381
22149856 69 18263664930162351003
22182313 1 17532360981352362502
23559900 14 18196959715214670838
23569943 247 17097476623539112994
24771293 8 18410011065764636684
2838139 119 17917987308620677008
3004659 81 18113339696054538422
32027 91 17629500595883526807
335352 9 18408603643947348318
34797466 226 17418102043474989839
34934 24 18412822499695249070
350125 39 18261956246111315670
3633792 109 18260535716064811895
3680242 22 18187359901199735258
4073 2 18114186353787766827
4093350 32 17632860811719983078
4144715 1 18335713731986180923
4169191 19 18335699489995842636
4340502 62 18408603673732388350
465052 167 10881404214575625872
5104073 3 18261115145111662819
59755656 215 18334298639652655174
6328613 192 18342737407721091584
7226269 152 18202003213859023713
7495541 125 13334743444285081334

>  <PUBCHEM_SHAPE_MULTIPOLES>  (1) 
568.34
17.17
2.44
1.19
0.92
0.23
-0.33
-7.14
4.43
0.41
0.45
0.06
-0.2
-0.16

>  <PUBCHEM_SHAPE_SELFOVERLAP>  (1) 
1212.724

>  <PUBCHEM_SHAPE_VOLUME>  (1) 
320.8

>  <PUBCHEM_COORDINATE_TYPE>  (1) 
2
5
10

$$$$
