30604
     RDKit          3D

 30 32  0  0  1  0  0  0  0  0999 V2000
    8.5076    1.7677    0.5720 O   0  0  0  0  0  0  0  0  0  0  0  0
   -7.7214   -0.0793    1.2673 O   0  0  0  0  0  0  0  0  0  0  0  0
    0.5072   -1.4688   -0.1289 C   0  0  0  0  0  0  0  0  0  0  0  0
    1.7804   -0.8304    0.4833 C   0  0  0  0  0  0  0  0  0  0  0  0
   -0.5738   -0.6699    0.6409 C   0  0  0  0  0  0  0  0  0  0  0  0
    1.4488    0.6748    0.5564 C   0  0  0  0  0  0  0  0  0  0  0  0
   -0.0853    0.7793    0.5538 C   0  0  0  0  0  0  0  0  0  0  0  0
    0.3571   -2.9792    0.1708 C   0  0  0  0  0  0  0  0  0  0  0  0
    3.0933   -1.1138   -0.2324 C   0  0  0  0  0  0  0  0  0  0  0  0
   -1.9665   -1.0445    0.2058 C   0  0  0  0  0  0  0  0  0  0  0  0
    0.4480   -1.2480   -1.6628 C   0  0  0  0  0  0  0  0  0  0  0  0
   -1.0680   -3.3856    0.5938 C   0  0  0  0  0  0  0  0  0  0  0  0
   -2.1790   -2.5271   -0.0252 C   0  0  0  0  0  0  0  0  0  0  0  0
    3.3778   -2.6170   -0.2742 C   0  0  0  0  0  0  0  0  0  0  0  0
    4.2314   -0.3940    0.4498 C   0  0  0  0  0  0  0  0  0  0  0  0
   -2.9670   -0.1680    0.0361 C   0  0  0  0  0  0  0  0  0  0  0  0
    4.9970    0.5305   -0.1504 C   0  0  0  0  0  0  0  0  0  0  0  0
   -4.2955   -0.5538   -0.3703 C   0  0  0  0  0  0  0  0  0  0  0  0
    6.1339    1.2527    0.5363 C   0  0  0  0  0  0  0  0  0  0  0  0
   -5.2976    0.3233   -0.5404 C   0  0  0  0  0  0  0  0  0  0  0  0
    7.5191    1.0041   -0.1348 C   0  0  0  0  0  0  0  0  0  0  0  0
   -6.6907   -0.1223   -0.9256 C   0  0  0  0  0  0  0  0  0  0  0  0
    5.7809    2.7433    0.6471 C   0  0  0  0  0  0  0  0  0  0  0  0
   -5.1379    1.7586   -0.3293 C   0  0  0  0  0  0  0  0  0  0  0  0
   -7.7754    0.4970   -0.0361 C   0  0  0  0  0  0  0  0  0  0  0  0
   -6.1991    2.4003    0.5302 C   0  0  0  0  0  0  0  0  0  0  0  0
    7.5904    1.4532   -1.5984 C   0  0  0  0  0  0  0  0  0  0  0  0
    7.9390   -0.4697   -0.0330 C   0  0  0  0  0  0  0  0  0  0  0  0
   -7.6109    2.0138    0.0793 C   0  0  0  0  0  0  0  0  0  0  0  0
   -4.1439    2.4724   -0.8809 C   0  0  0  0  0  0  0  0  0  0  0  0
  1 21  1  0
  2 25  1  0
  3  4  1  0
  3  5  1  0
  3  8  1  0
  3 11  1  0
  4  6  1  0
  4  9  1  0
  5  7  1  0
  5 10  1  0
  6  7  1  0
  8 12  1  0
  9 14  1  0
  9 15  1  0
 10 13  1  0
 10 16  2  0
 12 13  1  0
 15 17  2  0
 16 18  1  0
 17 19  1  0
 18 20  2  0
 19 21  1  0
 19 23  1  0
 20 22  1  0
 20 24  1  0
 21 27  1  0
 21 28  1  0
 22 25  1  0
 24 26  1  0
 24 30  2  0
 25 29  1  0
 26 29  1  0
M  END
>  <PUBCHEM_COMPOUND_CID>  (1) 
30604

>  <PUBCHEM_CONFORMER_RMSD>  (1) 
0.8

>  <PUBCHEM_CONFORMER_DIVERSEORDER>  (1) 
1
25
18
32
3
27
19
22
13
21
28
10
16
29
31
30
20
23
11
9
2
15
6
17
5
8
7
4
24
26
14
12

>  <PUBCHEM_MMFF94_PARTIAL_CHARGES>  (1) 
26
1 -0.68
10 -0.28
13 0.14
15 -0.29
16 -0.15
17 -0.29
18 -0.15
19 0.14
2 -0.68
20 -0.14
21 0.28
22 0.14
24 -0.14
25 0.28
26 0.14
30 -0.3
5 0.14
50 0.15
51 0.15
52 0.15
53 0.15
71 0.4
72 0.15
73 0.15
74 0.4
9 0.14

>  <PUBCHEM_EFFECTIVE_ROTOR_COUNT>  (1) 
7

>  <PUBCHEM_PHARMACOPHORE_FEATURES>  (1) 
10
1 1 acceptor
1 1 donor
1 14 hydrophobe
1 2 acceptor
1 2 donor
1 23 hydrophobe
3 21 27 28 hydrophobe
5 3 4 5 6 7 rings
6 20 22 24 25 26 29 rings
6 3 5 8 10 12 13 rings

>  <PUBCHEM_HEAVY_ATOM_COUNT>  (1) 
30

>  <PUBCHEM_ATOM_DEF_STEREO_COUNT>  (1) 
6

>  <PUBCHEM_ATOM_UDEF_STEREO_COUNT>  (1) 
0

>  <PUBCHEM_BOND_DEF_STEREO_COUNT>  (1) 
0

>  <PUBCHEM_BOND_UDEF_STEREO_COUNT>  (1) 
3

>  <PUBCHEM_ISOTOPIC_ATOM_COUNT>  (1) 
0

>  <PUBCHEM_COMPONENT_COUNT>  (1) 
1

>  <PUBCHEM_CACTVS_TAUTO_COUNT>  (1) 
1

>  <PUBCHEM_CONFORMER_ID>  (1) 
0000778C00000001

>  <PUBCHEM_MMFF94_ENERGY>  (1) 
90.2718

>  <PUBCHEM_FEATURE_SELFOVERLAP>  (1) 
50.813

>  <PUBCHEM_SHAPE_FINGERPRINT>  (1) 
10 15 18186521003686745819
10165383 225 18410572877904587041
10369192 42 18342737408390608685
10625338 131 18338508647778879128
106641 1 17312825987776371713
10674148 151 12031791362171536471
10906281 52 18130235877894864387
11135609 187 18341612590509712147
12539765 74 18202007594509472614
13248334 5 18049440348887761107
13540713 4 15839557479265480994
13540713 5 15215015066130771210
14117953 113 18408890642373321292
14251764 18 18261108573658530005
14347332 77 10519995867760003082
14394314 77 18340773629153618305
14790565 3 18339078177399949737
14849402 71 18410575093781203425
15131766 46 14709211134778773038
15183329 4 18272368659200916105
15604295 49 18198334256018088856
15927050 60 18409162229724412810
16126227 98 18409450297537920315
16989713 51 17416113104957507655
16992610 120 18334307470104961646
18608769 82 18338518642578979867
19611394 137 17823711943903644777
20105231 36 12391219544992552765
21033648 29 18041572372437958082
21033650 10 14261366730266102211
21150785 3 17346878957287765805
21298829 104 18410294700671871844
21424621 283 18335138674498248835
21521721 280 18412547587634295267
21585482 111 18263924341681942165
22224240 67 15068340124743004744
23559900 14 18200026378404977248
23576562 1 17630594824827758261
23729398 52 18050575045267446862
24771293 8 18334576832984065397
25019877 29 18412546500865288303
255183 313 13695870358879014320
2838139 119 18341607148659612332
3633792 109 18201162057704783314
4073 2 18334298648216489067
4093350 32 17703793583228204262
4169191 19 18411135814741257685
4258327 124 17968674812194441444
4340502 62 16805321072153363330
504579 68 16917071053344421792
5219985 9 10447929472854089562
5470011 282 14189570867155543080
5758199 1 18409448072823936849
5776283 40 18341330071671839217
5937810 71 17632303328980842529
59682541 35 12540698141386004580
636775 72 18340200903701195736
9962374 69 8430303611561367376

>  <PUBCHEM_SHAPE_MULTIPOLES>  (1) 
605.65
25.17
3.21
1.02
8.5
1.04
0.24
-20.88
0.78
0.07
-0.2
0.22
-0.11
0.3

>  <PUBCHEM_SHAPE_SELFOVERLAP>  (1) 
1248.329

>  <PUBCHEM_SHAPE_VOLUME>  (1) 
348.5

>  <PUBCHEM_COORDINATE_TYPE>  (1) 
2
5
10

$$$$
