30608
     RDKit          3D

  6  5  0  0  0  0  0  0  0  0999 V2000
   -1.4678   -1.4928    0.0007 Cl  0  0  0  0  0  0  0  0  0  0  0  0
    1.7220   -1.2648   -0.0008 Cl  0  0  0  0  0  0  0  0  0  0  0  0
    1.2564    1.3209    0.0006 O   0  0  0  0  0  0  0  0  0  0  0  0
   -0.7454    0.0719   -0.0003 C   0  0  0  0  0  0  0  0  0  0  0  0
    0.7505    0.1984    0.0005 C   0  0  0  0  0  0  0  0  0  0  0  0
   -1.5157    1.1664   -0.0007 C   0  0  0  0  0  0  0  0  0  0  0  0
  1  4  1  0
  2  5  1  0
  3  5  2  0
  4  5  1  0
  4  6  2  0
M  END
>  <PUBCHEM_COMPOUND_CID>  (1) 
30608

>  <PUBCHEM_CONFORMER_RMSD>  (1) 
0.4

>  <PUBCHEM_CONFORMER_DIVERSEORDER>  (1) 
1
3
2
4

>  <PUBCHEM_MMFF94_PARTIAL_CHARGES>  (1) 
8
1 -0.14
2 -0.21
3 -0.57
4 0.15
5 0.76
6 -0.3
7 0.15
8 0.15

>  <PUBCHEM_EFFECTIVE_ROTOR_COUNT>  (1) 
1

>  <PUBCHEM_PHARMACOPHORE_FEATURES>  (1) 
0

>  <PUBCHEM_HEAVY_ATOM_COUNT>  (1) 
6

>  <PUBCHEM_ATOM_DEF_STEREO_COUNT>  (1) 
0

>  <PUBCHEM_ATOM_UDEF_STEREO_COUNT>  (1) 
0

>  <PUBCHEM_BOND_DEF_STEREO_COUNT>  (1) 
0

>  <PUBCHEM_BOND_UDEF_STEREO_COUNT>  (1) 
0

>  <PUBCHEM_ISOTOPIC_ATOM_COUNT>  (1) 
0

>  <PUBCHEM_COMPONENT_COUNT>  (1) 
1

>  <PUBCHEM_CACTVS_TAUTO_COUNT>  (1) 
1

>  <PUBCHEM_CONFORMER_ID>  (1) 
0000779000000001

>  <PUBCHEM_MMFF94_ENERGY>  (1) 
9.4116

>  <PUBCHEM_FEATURE_SELFOVERLAP>  (1) 
0

>  <PUBCHEM_SHAPE_FINGERPRINT>  (1) 
139733 1 9222641407357535906
16714656 1 17905613202913754814
20096714 4 18337955580164838465
21040471 1 18194682566371686501
23552423 10 18261115213598880902
24536 1 18338781390606261897
29004967 10 17902515127118173979

>  <PUBCHEM_SHAPE_MULTIPOLES>  (1) 
121.35
2.34
1.75
0.62
0.42
0.27
0
0.32
0
-0.22
0
-0.01
0.04
0

>  <PUBCHEM_SHAPE_SELFOVERLAP>  (1) 
208.09

>  <PUBCHEM_SHAPE_VOLUME>  (1) 
80.9

>  <PUBCHEM_COORDINATE_TYPE>  (1) 
2
5
10

$$$$
