30615
     RDKit          3D

 11 13  0  0  1  0  0  0  0  0999 V2000
    2.6044   -0.0925   -0.8697 O   0  0  0  0  0  0  0  0  0  0  0  0
   -0.2726    0.7259    0.3713 C   0  0  0  0  0  0  0  0  0  0  0  0
   -0.2098   -0.7072   -0.2034 C   0  0  0  0  0  0  0  0  0  0  0  0
    2.2485    0.7882    0.2150 C   0  0  0  0  0  0  0  0  0  0  0  0
    2.2618   -0.7060    0.3736 C   0  0  0  0  0  0  0  0  0  0  0  0
    0.9755    1.5347   -0.0225 C   0  0  0  0  0  0  0  0  0  0  0  0
    0.9848   -1.4787    0.3849 C   0  0  0  0  0  0  0  0  0  0  0  0
   -1.5370    1.4658   -0.0921 C   0  0  0  0  0  0  0  0  0  0  0  0
   -1.5101   -1.4812    0.0642 C   0  0  0  0  0  0  0  0  0  0  0  0
   -2.8058    0.6714    0.1974 C   0  0  0  0  0  0  0  0  0  0  0  0
   -2.7397   -0.7205   -0.4187 C   0  0  0  0  0  0  0  0  0  0  0  0
  1  4  1  0
  1  5  1  0
  2  3  1  0
  2  6  1  0
  2  8  1  0
  3  7  1  0
  3  9  1  0
  4  5  1  0
  4  6  1  0
  5  7  1  0
  8 10  1  0
  9 11  1  0
 10 11  1  0
M  END
>  <PUBCHEM_COMPOUND_CID>  (1) 
30615

>  <PUBCHEM_CONFORMER_RMSD>  (1) 
0.4

>  <PUBCHEM_CONFORMER_DIVERSEORDER>  (1) 
1
3
4
5
7
2
10
12
11
8
6
9

>  <PUBCHEM_MMFF94_PARTIAL_CHARGES>  (1) 
7
1 -0.3
14 0.1
15 0.1
4 -0.05
5 -0.05
6 0.09
7 0.09

>  <PUBCHEM_EFFECTIVE_ROTOR_COUNT>  (1) 
1.4

>  <PUBCHEM_PHARMACOPHORE_FEATURES>  (1) 
3
1 1 acceptor
6 2 3 8 9 10 11 rings
7 1 2 3 4 5 6 7 rings

>  <PUBCHEM_HEAVY_ATOM_COUNT>  (1) 
11

>  <PUBCHEM_ATOM_DEF_STEREO_COUNT>  (1) 
0

>  <PUBCHEM_ATOM_UDEF_STEREO_COUNT>  (1) 
4

>  <PUBCHEM_BOND_DEF_STEREO_COUNT>  (1) 
0

>  <PUBCHEM_BOND_UDEF_STEREO_COUNT>  (1) 
0

>  <PUBCHEM_ISOTOPIC_ATOM_COUNT>  (1) 
0

>  <PUBCHEM_COMPONENT_COUNT>  (1) 
1

>  <PUBCHEM_CACTVS_TAUTO_COUNT>  (1) 
1

>  <PUBCHEM_CONFORMER_ID>  (1) 
0000779700000001

>  <PUBCHEM_MMFF94_ENERGY>  (1) 
16.769

>  <PUBCHEM_FEATURE_SELFOVERLAP>  (1) 
15.228

>  <PUBCHEM_SHAPE_FINGERPRINT>  (1) 
11206711 2 18409164411461044021
12423570 1 11542118244854800154
12524768 44 18341616949658917663
12897270 3 18409728486579767503
12932764 1 18334858290300708881
14128692 85 18342740753553063525
14325111 11 18411418410208450033
15775835 57 18335990787198216413
16945 1 18409446990143992665
17844478 74 18040726874329880905
18185500 45 18337105670598236954
193761 8 16824743176152942843
19973954 147 18338800129638290617
20201158 50 18413103965749592255
21040471 1 18338515218761622240
23402655 69 18341036442506983653
23463225 33 18263359196777900226
23552423 10 18262798600318662597
23559900 14 18343025450852485838
2748010 2 18049722124537217843
369184 2 18410289207576978995
5084963 1 18272934942074994825
528886 8 18410006645794220539
63268167 104 18337108973354228185
66348 1 18337951293771438443

>  <PUBCHEM_SHAPE_MULTIPOLES>  (1) 
220.51
4.07
1.73
0.73
0.51
0.03
0.03
-0.02
0.29
0.18
-0.08
-0.12
-0.03
-0.15

>  <PUBCHEM_SHAPE_SELFOVERLAP>  (1) 
457.742

>  <PUBCHEM_SHAPE_VOLUME>  (1) 
124.3

>  <PUBCHEM_COORDINATE_TYPE>  (1) 
2
5
10

$$$$
