30613
     RDKit          3D

 15 16  0  0  1  0  0  0  0  0999 V2000
    0.6438   -1.1572    0.0889 O   0  0  0  0  0  0  0  0  0  0  0  0
    1.0938    1.6885    0.0259 O   0  0  0  0  0  0  0  0  0  0  0  0
   -2.7970    0.0731   -0.2570 N   0  0  0  0  0  0  0  0  0  0  0  0
   -0.3770   -0.2152   -0.2686 C   0  0  0  0  0  0  0  0  0  0  0  0
   -1.7201   -0.8213    0.1111 C   0  0  0  0  0  0  0  0  0  0  0  0
   -0.1380    1.1018    0.4580 C   0  0  0  0  0  0  0  0  0  0  0  0
   -4.0966   -0.4828    0.1081 C   0  0  0  0  0  0  0  0  0  0  0  0
    1.8963   -0.6043    0.0385 C   0  0  0  0  0  0  0  0  0  0  0  0
    2.1139    0.7746   -0.0030 C   0  0  0  0  0  0  0  0  0  0  0  0
   -5.2121    0.4929   -0.2580 C   0  0  0  0  0  0  0  0  0  0  0  0
    2.9798   -1.4832    0.0405 C   0  0  0  0  0  0  0  0  0  0  0  0
    3.4136    1.2745   -0.0873 C   0  0  0  0  0  0  0  0  0  0  0  0
   -6.5766   -0.0543    0.1321 C   0  0  0  0  0  0  0  0  0  0  0  0
    4.2798   -0.9819   -0.0300 C   0  0  0  0  0  0  0  0  0  0  0  0
    4.4962    0.3947   -0.0992 C   0  0  0  0  0  0  0  0  0  0  0  0
  1  4  1  0
  1  8  1  0
  2  6  1  0
  2  9  1  0
  3  5  1  0
  3  7  1  0
  4  5  1  0
  4  6  1  0
  7 10  1  0
  8  9  2  0
  8 11  1  0
  9 12  1  0
 10 13  1  0
 11 14  2  0
 12 15  2  0
 14 15  1  0
M  END
>  <PUBCHEM_COMPOUND_CID>  (1) 
30613

>  <PUBCHEM_CONFORMER_RMSD>  (1) 
0.6

>  <PUBCHEM_CONFORMER_DIVERSEORDER>  (1) 
1
26
33
35
6
10
27
32
13
8
34
43
12
18
41
36
24
2
23
39
15
38
30
44
17
9
20
19
42
29
21
31
4
40
37
11
14
28
25
3
22
7
16
5

>  <PUBCHEM_MMFF94_PARTIAL_CHARGES>  (1) 
18
1 -0.36
11 -0.15
12 -0.15
14 -0.15
15 -0.15
2 -0.36
21 0.36
26 0.15
27 0.15
3 -0.9
31 0.15
32 0.15
4 0.28
5 0.27
6 0.28
7 0.27
8 0.08
9 0.08

>  <PUBCHEM_EFFECTIVE_ROTOR_COUNT>  (1) 
4.8

>  <PUBCHEM_PHARMACOPHORE_FEATURES>  (1) 
7
1 1 acceptor
1 13 hydrophobe
1 2 acceptor
1 3 cation
1 3 donor
6 1 2 4 6 8 9 rings
6 8 9 11 12 14 15 rings

>  <PUBCHEM_HEAVY_ATOM_COUNT>  (1) 
15

>  <PUBCHEM_ATOM_DEF_STEREO_COUNT>  (1) 
0

>  <PUBCHEM_ATOM_UDEF_STEREO_COUNT>  (1) 
1

>  <PUBCHEM_BOND_DEF_STEREO_COUNT>  (1) 
0

>  <PUBCHEM_BOND_UDEF_STEREO_COUNT>  (1) 
0

>  <PUBCHEM_ISOTOPIC_ATOM_COUNT>  (1) 
0

>  <PUBCHEM_COMPONENT_COUNT>  (1) 
1

>  <PUBCHEM_CACTVS_TAUTO_COUNT>  (1) 
1

>  <PUBCHEM_CONFORMER_ID>  (1) 
0000779500000001

>  <PUBCHEM_MMFF94_ENERGY>  (1) 
29.7941

>  <PUBCHEM_FEATURE_SELFOVERLAP>  (1) 
35.562

>  <PUBCHEM_SHAPE_FINGERPRINT>  (1) 
10354089 29 18411984667602914579
11287383 113 17749113317963255497
11401426 45 18273210919477709728
11471102 20 18410855468728645902
12236239 1 17775567537778858427
13167372 99 18272093734877584865
13533116 47 14189304716247300028
1420 363 17821734940439893043
15048467 5 17821733866260258380
15196674 1 18338797917888603079
15242433 33 18412826901730759383
17834072 33 18272086128242271719
17834072 8 18413112757547523982
18186145 218 17822282504944922479
18522853 276 18344146981859781425
200 152 18131349700796522361
20645477 70 18411982420924120934
21267235 1 18340211799895562198
212847 35 18343301474555686321
23402539 116 16917345931657774901
23402655 69 18342174479532208663
23557571 272 17022899008715515591
2871803 45 18334859381486107242
29717793 49 17632865204421610861
34934 24 18270394009874933102
3545911 37 18410013251928701219
4047638 21 17967250914376060026
4072396 5 18337941342886264346
4214541 1 18410292511034557565
42788 4 18409448081566865199
5104073 3 18338796818551043043
522135 26 18409729556153270182
5374978 207 18341887485633305672
542803 24 17489872635604276563
602551 16 16009326416879060489
8272917 22 18342742883809772647

>  <PUBCHEM_SHAPE_MULTIPOLES>  (1) 
291.97
12.2
1.4
0.63
19.01
0.11
-0.01
-0.26
0.31
-1.27
-0.05
0.04
0.01
0.02

>  <PUBCHEM_SHAPE_SELFOVERLAP>  (1) 
602.48

>  <PUBCHEM_SHAPE_VOLUME>  (1) 
167.5

>  <PUBCHEM_COORDINATE_TYPE>  (1) 
2
5
10

$$$$
