30620
     RDKit          3D

 18 19  0  0  0  0  0  0  0  0999 V2000
   -0.0030    1.3160   -1.4894 O   0  0  0  0  0  0  0  0  0  0  0  0
    1.3436    2.4771    0.7493 O   0  0  0  0  0  0  0  0  0  0  0  0
   -0.6745    2.0589    1.6849 O   0  0  0  0  0  0  0  0  0  0  0  0
    0.0174    0.6483   -0.2073 C   0  0  0  0  0  0  0  0  0  0  0  0
   -1.2461   -0.1361   -0.0934 C   0  0  0  0  0  0  0  0  0  0  0  0
    1.3349   -0.1702   -0.1021 C   0  0  0  0  0  0  0  0  0  0  0  0
    0.1672    1.8004    0.8325 C   0  0  0  0  0  0  0  0  0  0  0  0
   -1.8307   -0.3390    1.1568 C   0  0  0  0  0  0  0  0  0  0  0  0
    1.5572   -0.8693    1.0485 C   0  0  0  0  0  0  0  0  0  0  0  0
   -1.8435   -0.6664   -1.2370 C   0  0  0  0  0  0  0  0  0  0  0  0
    2.1876   -0.1397   -1.1668 C   0  0  0  0  0  0  0  0  0  0  0  0
   -3.0124   -1.0724    1.2634 C   0  0  0  0  0  0  0  0  0  0  0  0
    2.7391   -1.6038    1.1430 C   0  0  0  0  0  0  0  0  0  0  0  0
   -3.0253   -1.3997   -1.1302 C   0  0  0  0  0  0  0  0  0  0  0  0
    3.3696   -0.8745   -1.0722 C   0  0  0  0  0  0  0  0  0  0  0  0
   -1.1168    2.1795   -1.5827 C   0  0  0  0  0  0  0  0  0  0  0  0
   -3.6097   -1.6026    0.1201 C   0  0  0  0  0  0  0  0  0  0  0  0
    3.6453   -1.6065    0.0827 C   0  0  0  0  0  0  0  0  0  0  0  0
  1  4  1  0
  1 16  1  0
  2  7  1  0
  3  7  2  0
  4  5  1  0
  4  6  1  0
  4  7  1  0
  5  8  2  0
  5 10  1  0
  6  9  2  0
  6 11  1  0
  8 12  1  0
  9 13  1  0
 10 14  2  0
 11 15  2  0
 12 17  2  0
 13 18  2  0
 14 17  1  0
 15 18  1  0
M  END
>  <PUBCHEM_COMPOUND_CID>  (1) 
30620

>  <PUBCHEM_CONFORMER_RMSD>  (1) 
0.6

>  <PUBCHEM_CONFORMER_DIVERSEORDER>  (1) 
1
6
2
5
9
3
8
11
10
7
4

>  <PUBCHEM_MMFF94_PARTIAL_CHARGES>  (1) 
29
1 -0.56
10 -0.15
11 -0.15
12 -0.15
13 -0.15
14 -0.15
15 -0.15
16 0.28
17 -0.15
18 -0.15
19 0.15
2 -0.65
20 0.15
21 0.15
22 0.15
23 0.15
24 0.15
25 0.15
26 0.15
3 -0.57
30 0.15
31 0.15
32 0.5
4 0.63
5 -0.14
6 -0.14
7 0.66
8 -0.15
9 -0.15

>  <PUBCHEM_EFFECTIVE_ROTOR_COUNT>  (1) 
4

>  <PUBCHEM_PHARMACOPHORE_FEATURES>  (1) 
6
1 1 acceptor
1 2 acceptor
1 3 acceptor
3 2 3 7 anion
6 5 8 10 12 14 17 rings
6 6 9 11 13 15 18 rings

>  <PUBCHEM_HEAVY_ATOM_COUNT>  (1) 
18

>  <PUBCHEM_ATOM_DEF_STEREO_COUNT>  (1) 
0

>  <PUBCHEM_ATOM_UDEF_STEREO_COUNT>  (1) 
0

>  <PUBCHEM_BOND_DEF_STEREO_COUNT>  (1) 
0

>  <PUBCHEM_BOND_UDEF_STEREO_COUNT>  (1) 
0

>  <PUBCHEM_ISOTOPIC_ATOM_COUNT>  (1) 
0

>  <PUBCHEM_COMPONENT_COUNT>  (1) 
1

>  <PUBCHEM_CACTVS_TAUTO_COUNT>  (1) 
1

>  <PUBCHEM_CONFORMER_ID>  (1) 
0000779C00000001

>  <PUBCHEM_MMFF94_ENERGY>  (1) 
76.008

>  <PUBCHEM_FEATURE_SELFOVERLAP>  (1) 
30.509

>  <PUBCHEM_SHAPE_FINGERPRINT>  (1) 
11578080 2 18409721872320498157
12202030 40 17824263915514702459
12251169 10 15195566814132104063
12423570 1 14432711030986184649
12553582 1 18343589542133532262
12633257 1 15554179072714021999
12714826 92 18336828589235939727
12892183 10 15769780147420126911
13299463 15 16950572094252790514
13538477 17 18122355579527449584
14787075 74 18337387270830502346
14817 1 12040818618327404829
15375462 189 18340215175354760994
15906896 17 17976824181546142265
16945 1 18124596637290447160
17980427 23 15841551899211222041
1813 80 18266763357565105382
18186145 218 13551191065356015974
19765921 60 13623523537311203813
200 152 17676211251761546486
20361792 2 18412260653305810271
20645477 70 18126271168236408767
20671657 53 17675925370090355174
21296965 67 18343018891371801219
21731516 1 18412826880277041242
22112679 90 18126313919844792776
22802520 49 18114728387550805285
23419403 2 17840827959038935905
23559900 14 17976231579887680586
2748010 2 18198879488486783736
298252 57 16449239635830435652
5845 1 13508949576731556389
7364860 26 17842840189829177267
81228 2 17986108500543592992

>  <PUBCHEM_SHAPE_MULTIPOLES>  (1) 
352.82
5.48
2.35
1.64
0.74
1.35
0.01
-4.58
-0.54
-0.12
0.29
-0.31
0.39
0.01

>  <PUBCHEM_SHAPE_SELFOVERLAP>  (1) 
766.847

>  <PUBCHEM_SHAPE_VOLUME>  (1) 
191

>  <PUBCHEM_COORDINATE_TYPE>  (1) 
2
5
10

$$$$
