30631
     RDKit          3D

 14 15  0  0  0  0  0  0  0  0999 V2000
    4.2469    0.6210   -0.0315 Cl  0  0  0  0  0  0  0  0  0  0  0  0
   -2.2327    0.5628   -0.1505 O   0  0  0  0  0  0  0  0  0  0  0  0
   -3.5093   -1.2924   -0.0505 O   0  0  0  0  0  0  0  0  0  0  0  0
   -1.2392   -1.5490    0.0321 N   0  0  0  0  0  0  0  0  0  0  0  0
   -0.9665    1.2699    0.0154 C   0  0  0  0  0  0  0  0  0  0  0  0
    0.2393    0.3587   -0.0153 C   0  0  0  0  0  0  0  0  0  0  0  0
    0.0545   -1.0225    0.0128 C   0  0  0  0  0  0  0  0  0  0  0  0
   -0.9339    2.2949   -1.1265 C   0  0  0  0  0  0  0  0  0  0  0  0
   -1.0601    1.9880    1.3681 C   0  0  0  0  0  0  0  0  0  0  0  0
    1.5524    0.8559   -0.0252 C   0  0  0  0  0  0  0  0  0  0  0  0
    1.1461   -1.8972    0.0268 C   0  0  0  0  0  0  0  0  0  0  0  0
   -2.3867   -0.7888   -0.0465 C   0  0  0  0  0  0  0  0  0  0  0  0
    2.6463   -0.0122   -0.0177 C   0  0  0  0  0  0  0  0  0  0  0  0
    2.4428   -1.3890    0.0084 C   0  0  0  0  0  0  0  0  0  0  0  0
  1 13  1  0
  2  5  1  0
  2 12  1  0
  3 12  2  0
  4  7  1  0
  4 12  1  0
  5  6  1  0
  5  8  1  0
  5  9  1  0
  6  7  2  0
  6 10  1  0
  7 11  1  0
 10 13  2  0
 11 14  2  0
 13 14  1  0
M  END
>  <PUBCHEM_COMPOUND_CID>  (1) 
30631

>  <PUBCHEM_CONFORMER_RMSD>  (1) 
0.4

>  <PUBCHEM_CONFORMER_DIVERSEORDER>  (1) 
1

>  <PUBCHEM_MMFF94_PARTIAL_CHARGES>  (1) 
16
1 -0.18
10 -0.15
11 -0.15
12 0.78
13 0.18
14 -0.15
2 -0.43
21 0.15
22 0.37
23 0.15
24 0.15
3 -0.57
4 -0.55
5 0.42
6 -0.14
7 0.12

>  <PUBCHEM_EFFECTIVE_ROTOR_COUNT>  (1) 
0.6

>  <PUBCHEM_PHARMACOPHORE_FEATURES>  (1) 
5
1 3 acceptor
1 4 donor
3 5 8 9 hydrophobe
6 2 4 5 6 7 12 rings
6 6 7 10 11 13 14 rings

>  <PUBCHEM_HEAVY_ATOM_COUNT>  (1) 
14

>  <PUBCHEM_ATOM_DEF_STEREO_COUNT>  (1) 
0

>  <PUBCHEM_ATOM_UDEF_STEREO_COUNT>  (1) 
0

>  <PUBCHEM_BOND_DEF_STEREO_COUNT>  (1) 
0

>  <PUBCHEM_BOND_UDEF_STEREO_COUNT>  (1) 
0

>  <PUBCHEM_ISOTOPIC_ATOM_COUNT>  (1) 
0

>  <PUBCHEM_COMPONENT_COUNT>  (1) 
1

>  <PUBCHEM_CACTVS_TAUTO_COUNT>  (1) 
2

>  <PUBCHEM_CONFORMER_ID>  (1) 
000077A700000001

>  <PUBCHEM_MMFF94_ENERGY>  (1) 
40.4744

>  <PUBCHEM_FEATURE_SELFOVERLAP>  (1) 
25.396

>  <PUBCHEM_SHAPE_FINGERPRINT>  (1) 
108231 29 18199468955262082400
10967382 1 18337953518749282982
11132069 177 18412823607749072320
11206711 2 18409451358231267078
12932764 1 17898582968752635930
13024252 1 15213022639280769361
13140716 1 18050846920991075578
13380535 21 18197227953275708342
14325111 11 18410573946987355892
14614273 12 18335135350082720516
15490181 7 17756429257437980801
15775835 57 18264496100375085336
15906896 17 17486770767094610441
16945 1 18408600391897176846
193761 8 18121779430743999046
20201158 50 18408882970659675867
20510252 161 18343584036232865696
20525323 117 18342455907011136290
20588541 1 18338800129548925186
21501502 16 18339081463144987082
23402539 116 18340477975929817398
23463225 33 18334290942822983466
23552423 10 18261958423143088170
23559900 14 17694789515686195318
25610 137 18411421734391551466
2748010 2 18267021648529826454
3312278 4 18411982468305443419
353137 74 18335415755512315034
5084963 1 18337110055875851672
528886 8 18338512053365710218
537710 114 18265059204720404717
74978 22 17907297654869828494

>  <PUBCHEM_SHAPE_MULTIPOLES>  (1) 
273.26
4.99
2.29
0.84
2.85
0.29
0.08
-0.52
-0.1
-0.83
-0.05
-0.24
0.5
-0.06

>  <PUBCHEM_SHAPE_SELFOVERLAP>  (1) 
577.383

>  <PUBCHEM_SHAPE_VOLUME>  (1) 
154.6

>  <PUBCHEM_COORDINATE_TYPE>  (1) 
2
5
10

$$$$
