30657
     RDKit          3D

 15 16  0  0  1  0  0  0  0  0999 V2000
    1.6198   -1.7415   -0.1908 O   0  0  0  0  0  0  0  0  0  0  0  0
    3.2768    0.4216    0.1871 O   0  0  0  0  0  0  0  0  0  0  0  0
   -4.5795    0.1948   -0.0624 N   0  0  0  0  0  0  0  0  0  0  0  0
   -3.1729   -0.0615    0.2437 C   0  0  0  0  0  0  0  0  0  0  0  0
   -2.6355   -1.1784   -0.6529 C   0  0  0  0  0  0  0  0  0  0  0  0
   -2.3414    1.2139    0.0478 C   0  0  0  0  0  0  0  0  0  0  0  0
   -1.1996   -1.5288   -0.2620 C   0  0  0  0  0  0  0  0  0  0  0  0
   -0.3149   -0.3212   -0.0816 C   0  0  0  0  0  0  0  0  0  0  0  0
   -0.8535    0.9648    0.1060 C   0  0  0  0  0  0  0  0  0  0  0  0
    1.0768   -0.4971   -0.0426 C   0  0  0  0  0  0  0  0  0  0  0  0
    0.0119    2.0537    0.2920 C   0  0  0  0  0  0  0  0  0  0  0  0
    1.9256    0.5916    0.1536 C   0  0  0  0  0  0  0  0  0  0  0  0
    1.3935    1.8668    0.3185 C   0  0  0  0  0  0  0  0  0  0  0  0
    1.8189   -2.5035    0.9963 C   0  0  0  0  0  0  0  0  0  0  0  0
    3.9740    0.5247   -1.0529 C   0  0  0  0  0  0  0  0  0  0  0  0
  1 10  1  0
  1 14  1  0
  2 12  1  0
  2 15  1  0
  3  4  1  0
  4  5  1  0
  4  6  1  0
  5  7  1  0
  6  9  1  0
  7  8  1  0
  8  9  2  0
  8 10  1  0
  9 11  1  0
 10 12  2  0
 11 13  2  0
 12 13  1  0
M  END
>  <PUBCHEM_COMPOUND_CID>  (1) 
30657

>  <PUBCHEM_CONFORMER_RMSD>  (1) 
0.6

>  <PUBCHEM_CONFORMER_DIVERSEORDER>  (1) 
1
5
3
4
2

>  <PUBCHEM_MMFF94_PARTIAL_CHARGES>  (1) 
18
1 -0.36
10 0.08
11 -0.15
12 0.08
13 -0.15
14 0.28
15 0.28
2 -0.36
23 0.15
24 0.36
25 0.36
26 0.15
3 -0.99
4 0.27
6 0.14
7 0.14
8 -0.14
9 -0.14

>  <PUBCHEM_EFFECTIVE_ROTOR_COUNT>  (1) 
2.8

>  <PUBCHEM_PHARMACOPHORE_FEATURES>  (1) 
6
1 1 acceptor
1 2 acceptor
1 3 cation
1 3 donor
6 4 5 6 7 8 9 rings
6 8 9 10 11 12 13 rings

>  <PUBCHEM_HEAVY_ATOM_COUNT>  (1) 
15

>  <PUBCHEM_ATOM_DEF_STEREO_COUNT>  (1) 
0

>  <PUBCHEM_ATOM_UDEF_STEREO_COUNT>  (1) 
1

>  <PUBCHEM_BOND_DEF_STEREO_COUNT>  (1) 
0

>  <PUBCHEM_BOND_UDEF_STEREO_COUNT>  (1) 
0

>  <PUBCHEM_ISOTOPIC_ATOM_COUNT>  (1) 
0

>  <PUBCHEM_COMPONENT_COUNT>  (1) 
1

>  <PUBCHEM_CACTVS_TAUTO_COUNT>  (1) 
1

>  <PUBCHEM_CONFORMER_ID>  (1) 
000077C100000001

>  <PUBCHEM_MMFF94_ENERGY>  (1) 
50.4671

>  <PUBCHEM_FEATURE_SELFOVERLAP>  (1) 
30.472

>  <PUBCHEM_SHAPE_FINGERPRINT>  (1) 
10967382 1 18411980252091775579
10980938 120 18411138000372981907
11132069 177 18342734165083884968
11471102 20 18411414020915254525
12644460 14 18335147449137280587
13140716 1 18195520621886658337
13221675 6 18341896302889947127
13380535 76 18410292527360287227
14144814 61 18342455924454691217
14911166 2 18341618139238323212
14993402 34 18272933825731702941
15375462 189 18410293601323404243
15442244 35 18196651800592838745
15536298 74 18272087158818255186
15775835 57 18410859862770307639
16945 1 18338505426162431705
18186145 218 18263075673122914564
193761 8 17979355257260418112
20201158 50 18409728478158586043
20559304 39 18339073796338265482
20588541 1 18408888451037614217
20645476 183 17679314211161355046
20645477 70 18337667504351070631
21267235 1 18340214007113210838
21501502 16 18194403294771409497
22445834 79 18411981356140957443
2334 1 17835236027578138705
23402539 116 18341891944189277468
23402655 69 18342448211184343589
23463225 33 18338513032459712283
23552423 10 18338230595695183405
23559900 14 17911236118822714390
25 1 18334011726334451711
2748010 2 18123746461346299997
3312278 4 18410578417858504523
34934 24 18342168973125659205
5255222 1 18411407419323985421
528886 8 18341045306517395088
53655031 270 18412261727168628664
53812653 166 18342734152161982000
53812654 25 18129082468574687227
63268167 104 18411417289469691457
7364860 26 18342736269871262350
8809292 202 18262803002744725619

>  <PUBCHEM_SHAPE_MULTIPOLES>  (1) 
291.97
5.96
2.25
0.81
1.8
0.59
-0.03
-0.26
-1.03
-0.82
0.48
-0.35
0.15
-0.53

>  <PUBCHEM_SHAPE_SELFOVERLAP>  (1) 
612.695

>  <PUBCHEM_SHAPE_VOLUME>  (1) 
165.6

>  <PUBCHEM_COORDINATE_TYPE>  (1) 
2
5
10

$$$$
