30659
     RDKit          3D

 17 18  0  0  1  0  0  0  0  0999 V2000
    2.1409   -1.8836    0.4562 O   0  0  0  0  0  0  0  0  0  0  0  0
    3.8812    0.2354    0.2363 O   0  0  0  0  0  0  0  0  0  0  0  0
   -3.9527    0.2237   -0.2258 N   0  0  0  0  0  0  0  0  0  0  0  0
   -2.5846    0.0140    0.1804 C   0  0  0  0  0  0  0  0  0  0  0  0
   -2.0684   -1.3372   -0.3114 C   0  0  0  0  0  0  0  0  0  0  0  0
   -1.6906    1.1434   -0.3405 C   0  0  0  0  0  0  0  0  0  0  0  0
   -0.6652   -1.6027    0.2307 C   0  0  0  0  0  0  0  0  0  0  0  0
   -0.2180    0.8717   -0.1571 C   0  0  0  0  0  0  0  0  0  0  0  0
    0.2677   -0.4286    0.0721 C   0  0  0  0  0  0  0  0  0  0  0  0
    1.6487   -0.6327    0.2145 C   0  0  0  0  0  0  0  0  0  0  0  0
    0.6899    1.9351   -0.2751 C   0  0  0  0  0  0  0  0  0  0  0  0
   -4.4513    1.4912    0.3036 C   0  0  0  0  0  0  0  0  0  0  0  0
   -4.7914   -0.8859    0.2226 C   0  0  0  0  0  0  0  0  0  0  0  0
    2.5397    0.4343    0.1053 C   0  0  0  0  0  0  0  0  0  0  0  0
    2.0607    1.7173   -0.1419 C   0  0  0  0  0  0  0  0  0  0  0  0
    2.4721   -2.6763   -0.6801 C   0  0  0  0  0  0  0  0  0  0  0  0
    4.7215    1.3809    0.1104 C   0  0  0  0  0  0  0  0  0  0  0  0
  1 10  1  0
  1 16  1  0
  2 14  1  0
  2 17  1  0
  3  4  1  0
  3 12  1  0
  3 13  1  0
  4  5  1  0
  4  6  1  0
  5  7  1  0
  6  8  1  0
  7  9  1  0
  8  9  2  0
  8 11  1  0
  9 10  1  0
 10 14  2  0
 11 15  2  0
 14 15  1  0
M  END
>  <PUBCHEM_COMPOUND_CID>  (1) 
30659

>  <PUBCHEM_CONFORMER_RMSD>  (1) 
0.6

>  <PUBCHEM_CONFORMER_DIVERSEORDER>  (1) 
12
7
9
8
10
3
13
6
4
1
5
2
11

>  <PUBCHEM_MMFF94_PARTIAL_CHARGES>  (1) 
18
1 -0.36
10 0.08
11 -0.15
12 0.27
13 0.27
14 0.08
15 -0.15
16 0.28
17 0.28
2 -0.36
25 0.15
3 -0.81
32 0.15
4 0.27
6 0.14
7 0.14
8 -0.14
9 -0.14

>  <PUBCHEM_EFFECTIVE_ROTOR_COUNT>  (1) 
3.8

>  <PUBCHEM_PHARMACOPHORE_FEATURES>  (1) 
5
1 1 acceptor
1 2 acceptor
1 3 cation
6 4 5 6 7 8 9 rings
6 8 9 10 11 14 15 rings

>  <PUBCHEM_HEAVY_ATOM_COUNT>  (1) 
17

>  <PUBCHEM_ATOM_DEF_STEREO_COUNT>  (1) 
0

>  <PUBCHEM_ATOM_UDEF_STEREO_COUNT>  (1) 
1

>  <PUBCHEM_BOND_DEF_STEREO_COUNT>  (1) 
0

>  <PUBCHEM_BOND_UDEF_STEREO_COUNT>  (1) 
0

>  <PUBCHEM_ISOTOPIC_ATOM_COUNT>  (1) 
0

>  <PUBCHEM_COMPONENT_COUNT>  (1) 
1

>  <PUBCHEM_CACTVS_TAUTO_COUNT>  (1) 
1

>  <PUBCHEM_CONFORMER_ID>  (1) 
000077C30000000C

>  <PUBCHEM_MMFF94_ENERGY>  (1) 
66.2024

>  <PUBCHEM_FEATURE_SELFOVERLAP>  (1) 
25.398

>  <PUBCHEM_SHAPE_FINGERPRINT>  (1) 
10616163 171 18268711778380489631
10967382 1 18410011039519390406
10980938 120 18409449184756242795
11132069 177 18336822091351431760
11471102 20 18409443687229785028
11680986 33 18336839631597162922
116883 192 17982737376422971150
12236239 1 17989207049539683881
12251169 10 18410575123755673493
12346645 6 18342457032456280166
13140716 1 18120371214178770288
13221675 6 18408321103048244333
13380535 76 18335983163784357322
14144814 61 18410855447670631873
14178342 30 18196914772555500538
14252887 29 18409173194484476362
14576447 43 18128520743246329367
14790565 3 18265059200811332332
15196674 1 18410011009760580931
15219456 202 18410009897095097535
15375358 24 18334295383212454242
15442244 35 18268149756097176017
15536298 74 18341895151696429879
16945 1 18409729590428677548
18186145 218 18113899304407345807
19784866 170 18335142011772097224
200 152 18201434818065924957
20588541 1 18335702762649430984
20645477 70 18339919312538380271
21267235 1 18337399330560819995
21421861 104 17823689768433458066
221490 88 18336554819673586267
22182313 1 18115859698905542076
2334 1 17760369185747555684
23402539 116 18271800246233736405
23402655 69 18341607110236976285
23463225 33 18409448059849338189
23559900 14 18341328877913295954
2748010 2 18119799219087403676
335352 9 18409729547863951364
33824 294 18408884035990854978
34934 24 18411412916850066614
3545911 37 18411702106020596523
4072396 5 18262782039425832056
5104073 3 18409449146565716267
53812653 166 18412539946634202936
57005193 9 18410847785032172846
69090 78 18340764927100340135
7364860 26 18342458106467168390
7832392 63 18341327872647907405
9709674 26 18408890650404261411

>  <PUBCHEM_SHAPE_MULTIPOLES>  (1) 
333.13
8.34
2.36
0.68
3.67
0.84
-0.02
-1.68
0.66
-1.29
-0.26
-0.03
0.07
0.13

>  <PUBCHEM_SHAPE_SELFOVERLAP>  (1) 
694.86

>  <PUBCHEM_SHAPE_VOLUME>  (1) 
190.9

>  <PUBCHEM_COORDINATE_TYPE>  (1) 
2
5
10

$$$$
