30663
     RDKit          3D

 15 16  0  0  0  0  0  0  0  0999 V2000
   -2.6341   -2.0129   -0.0026 O   0  0  0  0  0  0  0  0  0  0  0  0
   -4.3464    0.1292    0.0004 O   0  0  0  0  0  0  0  0  0  0  0  0
    3.4362    0.1392    0.0033 N   0  0  0  0  0  0  0  0  0  0  0  0
   -0.2271    0.7849    0.0013 C   0  0  0  0  0  0  0  0  0  0  0  0
   -0.7280   -0.5385   -0.0005 C   0  0  0  0  0  0  0  0  0  0  0  0
    2.0439   -0.0874    0.0023 C   0  0  0  0  0  0  0  0  0  0  0  0
    1.1617    0.9935    0.0026 C   0  0  0  0  0  0  0  0  0  0  0  0
    0.1745   -1.6145   -0.0010 C   0  0  0  0  0  0  0  0  0  0  0  0
    1.5513   -1.3888    0.0005 C   0  0  0  0  0  0  0  0  0  0  0  0
   -2.1167   -0.7474   -0.0014 C   0  0  0  0  0  0  0  0  0  0  0  0
   -1.1301    1.8606    0.0017 C   0  0  0  0  0  0  0  0  0  0  0  0
   -2.9993    0.3330   -0.0006 C   0  0  0  0  0  0  0  0  0  0  0  0
   -2.5068    1.6346    0.0007 C   0  0  0  0  0  0  0  0  0  0  0  0
    4.3613   -0.9764    0.0023 C   0  0  0  0  0  0  0  0  0  0  0  0
    3.9596    1.4908   -0.0090 C   0  0  0  0  0  0  0  0  0  0  0  0
  1 10  1  0
  2 12  1  0
  3  6  1  0
  3 14  1  0
  3 15  1  0
  4  5  2  0
  4  7  1  0
  4 11  1  0
  5  8  1  0
  5 10  1  0
  6  7  2  0
  6  9  1  0
  8  9  2  0
 10 12  2  0
 11 13  2  0
 12 13  1  0
M  END
>  <PUBCHEM_COMPOUND_CID>  (1) 
30663

>  <PUBCHEM_CONFORMER_RMSD>  (1) 
0.4

>  <PUBCHEM_CONFORMER_DIVERSEORDER>  (1) 
1
2
3

>  <PUBCHEM_MMFF94_PARTIAL_CHARGES>  (1) 
20
1 -0.53
10 0.08
11 -0.15
12 0.08
13 -0.15
14 0.37
15 0.37
16 0.15
17 0.15
18 0.15
19 0.15
2 -0.53
20 0.15
27 0.45
28 0.45
3 -0.84
6 0.1
7 -0.15
8 -0.15
9 -0.15

>  <PUBCHEM_EFFECTIVE_ROTOR_COUNT>  (1) 
1

>  <PUBCHEM_PHARMACOPHORE_FEATURES>  (1) 
5
1 1 donor
1 2 donor
1 3 cation
6 4 5 10 11 12 13 rings
6 4 5 6 7 8 9 rings

>  <PUBCHEM_HEAVY_ATOM_COUNT>  (1) 
15

>  <PUBCHEM_ATOM_DEF_STEREO_COUNT>  (1) 
0

>  <PUBCHEM_ATOM_UDEF_STEREO_COUNT>  (1) 
0

>  <PUBCHEM_BOND_DEF_STEREO_COUNT>  (1) 
0

>  <PUBCHEM_BOND_UDEF_STEREO_COUNT>  (1) 
0

>  <PUBCHEM_ISOTOPIC_ATOM_COUNT>  (1) 
0

>  <PUBCHEM_COMPONENT_COUNT>  (1) 
1

>  <PUBCHEM_CACTVS_TAUTO_COUNT>  (1) 
13

>  <PUBCHEM_CONFORMER_ID>  (1) 
000077C700000001

>  <PUBCHEM_MMFF94_ENERGY>  (1) 
59.4536

>  <PUBCHEM_FEATURE_SELFOVERLAP>  (1) 
25.403

>  <PUBCHEM_SHAPE_FINGERPRINT>  (1) 
10608611 8 18411416181331523884
10967382 1 18410855442958848614
11132069 177 18410851075209340744
11471102 20 18410851062102860292
12032990 46 18410579512837898514
13140716 1 18267029525663345353
13214271 11 18341328993476298159
13221675 6 18411136930825761915
13380535 76 18410856525322664991
14144814 61 18337108973317311344
14325111 11 18410855460576704100
14614273 12 18188485770614642693
15196674 1 18410574010926529671
15219456 202 18058172726100625302
15442244 35 18121779435445096394
15536298 74 18413671310029401340
15775835 57 18413392037753728616
16945 1 18410855430337762273
17804303 29 18412547574601479076
18186145 218 18335136480033535772
200 152 18060410309883693061
20510252 161 18342741848891063176
20871998 184 18201159948506478719
21267235 1 18410302380078535258
21501502 16 18267019453595692891
2334 1 18050569843876161829
23402539 116 18341602711715581703
23402655 69 18270105822165227525
23463225 33 18335137553711997562
23559900 14 18342174467174846776
2748010 2 18122901194918952557
3312278 4 18410013255996906299
335352 9 18338798892724600564
43471831 8 18261670376877276330
474 4 17241335823258976324
5104073 3 18411138043275020568
528886 8 18411412921319237243
53655031 270 18410011009444095899
53812653 166 18343298184568474744
54173680 148 18265054806706009787
6333449 129 18412261705604205781
69090 78 18272928323509455119
7364860 26 18124877863444216134
8809292 202 18334298690406136379
9709674 26 18341899541369654750

>  <PUBCHEM_SHAPE_MULTIPOLES>  (1) 
291.97
7.06
1.96
0.6
2.97
0.03
0
-0.4
0
-0.24
0
0.03
-0.01
-0.01

>  <PUBCHEM_SHAPE_SELFOVERLAP>  (1) 
634.078

>  <PUBCHEM_SHAPE_VOLUME>  (1) 
161.3

>  <PUBCHEM_COORDINATE_TYPE>  (1) 
2
5
10

$$$$
