30666
     RDKit          3D

 26 28  0  0  1  0  0  0  0  0999 V2000
   -8.5168   -0.9449   -1.7974 F   0  0  0  0  0  0  0  0  0  0  0  0
    3.4367   -0.3100   -0.3690 O   0  0  0  0  0  0  0  0  0  0  0  0
    5.7129   -1.8784   -0.6644 O   0  0  0  0  0  0  0  0  0  0  0  0
   -3.8246    0.5113    2.1042 O   0  0  0  0  0  0  0  0  0  0  0  0
    0.3618   -0.2275    1.1913 N   0  0  0  0  0  0  0  0  0  0  0  0
    2.6868   -0.0751    0.8146 C   0  0  0  0  0  0  0  0  0  0  0  0
    1.3471    0.5614    0.4485 C   0  0  0  0  0  0  0  0  0  0  0  0
    2.3371   -1.3980    1.4919 C   0  0  0  0  0  0  0  0  0  0  0  0
    0.8645   -1.6000    1.1720 C   0  0  0  0  0  0  0  0  0  0  0  0
   -0.9775   -0.1156    0.6340 C   0  0  0  0  0  0  0  0  0  0  0  0
   -1.4577    1.3357    0.6985 C   0  0  0  0  0  0  0  0  0  0  0  0
   -2.8673    1.5072    0.1253 C   0  0  0  0  0  0  0  0  0  0  0  0
    4.6772    0.2686   -0.4402 C   0  0  0  0  0  0  0  0  0  0  0  0
   -3.9326    0.7478    0.9033 C   0  0  0  0  0  0  0  0  0  0  0  0
    5.8115   -0.5218   -0.5883 C   0  0  0  0  0  0  0  0  0  0  0  0
    4.7840    1.6530   -0.3633 C   0  0  0  0  0  0  0  0  0  0  0  0
   -5.1572    0.2963    0.1828 C   0  0  0  0  0  0  0  0  0  0  0  0
    7.0682    0.0793   -0.6604 C   0  0  0  0  0  0  0  0  0  0  0  0
    6.0407    2.2542   -0.4354 C   0  0  0  0  0  0  0  0  0  0  0  0
    7.1827    1.4675   -0.5838 C   0  0  0  0  0  0  0  0  0  0  0  0
   -5.6071    1.0395   -0.8854 C   0  0  0  0  0  0  0  0  0  0  0  0
   -5.7923   -0.8479    0.6113 C   0  0  0  0  0  0  0  0  0  0  0  0
   -6.7521    0.6165   -1.5605 C   0  0  0  0  0  0  0  0  0  0  0  0
   -6.9371   -1.2711   -0.0639 C   0  0  0  0  0  0  0  0  0  0  0  0
    6.9283   -2.6092   -0.8159 C   0  0  0  0  0  0  0  0  0  0  0  0
   -7.4171   -0.5388   -1.1497 C   0  0  0  0  0  0  0  0  0  0  0  0
  1 26  1  0
  2  6  1  0
  2 13  1  0
  3 15  1  0
  3 25  1  0
  4 14  2  0
  5  7  1  0
  5  9  1  0
  5 10  1  0
  6  7  1  0
  6  8  1  0
  8  9  1  0
 10 11  1  0
 11 12  1  0
 12 14  1  0
 13 15  2  0
 13 16  1  0
 14 17  1  0
 15 18  1  0
 16 19  2  0
 17 21  2  0
 17 22  1  0
 18 20  2  0
 19 20  1  0
 21 23  1  0
 22 24  2  0
 23 26  2  0
 24 26  1  0
M  END
>  <PUBCHEM_COMPOUND_CID>  (1) 
30666

>  <PUBCHEM_CONFORMER_RMSD>  (1) 
1.2

>  <PUBCHEM_CONFORMER_DIVERSEORDER>  (1) 
1
117
7
35
41
165
6
52
8
14
48
43
77
137
197
186
132
205
115
134
136
179
180
37
139
17
36
142
196
114
89
157
34
98
146
130
193
138
64
63
70
62
156
16
174
143
201
118
80
164
29
51
21
149
171
104
159
163
113
172
86
144
100
185
202
151
9
208
44
207
152
154
69
42
73
20
147
189
3
206
12
83
120
24
72
177
81
178
90
102
175
23
111
28
184
194
78
161
68
91
93
195
176
121
87
88
105
182
166
106
187
183
124
122
198
192
47
131
65
31
57
53
203
22
158
145
135
71
129
10
39
99
97
45
15
155
60
140
107
32
108
38
67
96
162
2
103
190
141
169
160
18
209
210
58
199
11
4
82
167
127
181
101
116
66
54
55
46
85
125
40
95
33
188
204
5
168
112
56
109
19
25
148
75
110
74
76
153
150
26
50
13
173
123
49
59
79
92
191
126
170
200
119
27
133
84
61
128
30
94

>  <PUBCHEM_MMFF94_PARTIAL_CHARGES>  (1) 
32
1 -0.19
10 0.27
12 0.06
13 0.08
14 0.42
15 0.08
16 -0.15
17 0.09
18 -0.15
19 -0.15
2 -0.36
20 -0.15
21 -0.15
22 -0.15
23 -0.15
24 -0.15
25 0.28
26 0.19
3 -0.36
4 -0.57
40 0.15
41 0.15
42 0.15
43 0.15
44 0.15
45 0.15
46 0.15
47 0.15
5 -0.81
6 0.28
7 0.27
9 0.27

>  <PUBCHEM_EFFECTIVE_ROTOR_COUNT>  (1) 
9

>  <PUBCHEM_PHARMACOPHORE_FEATURES>  (1) 
7
1 2 acceptor
1 3 acceptor
1 4 acceptor
1 5 cation
5 5 6 7 8 9 rings
6 13 15 16 18 19 20 rings
6 17 21 22 23 24 26 rings

>  <PUBCHEM_HEAVY_ATOM_COUNT>  (1) 
26

>  <PUBCHEM_ATOM_DEF_STEREO_COUNT>  (1) 
0

>  <PUBCHEM_ATOM_UDEF_STEREO_COUNT>  (1) 
1

>  <PUBCHEM_BOND_DEF_STEREO_COUNT>  (1) 
0

>  <PUBCHEM_BOND_UDEF_STEREO_COUNT>  (1) 
0

>  <PUBCHEM_ISOTOPIC_ATOM_COUNT>  (1) 
0

>  <PUBCHEM_COMPONENT_COUNT>  (1) 
1

>  <PUBCHEM_CACTVS_TAUTO_COUNT>  (1) 
2

>  <PUBCHEM_CONFORMER_ID>  (1) 
000077CA00000001

>  <PUBCHEM_MMFF94_ENERGY>  (1) 
78.7786

>  <PUBCHEM_FEATURE_SELFOVERLAP>  (1) 
35.527

>  <PUBCHEM_SHAPE_FINGERPRINT>  (1) 
10 15 8502652623604747947
10066227 49 18271810060577269630
10087517 78 14707198899845647623
10162869 55 18413668024833009804
10299344 5 17489874838426750653
10693767 8 18194683666738798658
11297750 10 15505224585504975217
11386260 185 18261402157076911988
11408170 132 17822843161886987701
12082328 90 18413107247964553645
12373685 5 15068611734543853553
13673619 4 15626502800574315817
13685833 64 13254799036024265608
13690498 29 17989200435496458785
13782708 43 16056593240409080307
14251757 52 14707504611438951470
14347424 109 8142088641932197508
14767858 380 18341895203315288865
14849402 71 10735574925989592698
150020 25 18186800288119300735
15003188 100 18187086182897544332
15021287 119 12679452085190148209
15183329 4 17346882260175755814
15348495 7 10375573920097438197
15352257 5 16630526241360957463
15461852 350 13768217116549640369
1577012 14 18130518448262530000
18335252 114 18040995155209581244
20105231 36 12751245821775248988
20157964 124 18411143541819589124
2026 5 17702672025534305110
20554085 129 15719385161590251784
20567600 254 17603587443605283976
21150785 3 18272651268185934681
21267235 1 12175630577229009808
21315759 40 17775289347961512416
21521239 73 18412266108415410090
21774942 28 14924489867682861189
22956985 138 15982037432190014638
23081809 10 17918003745623744264
23522609 53 17487929815031842440
23559900 14 18187361099717754393
23576562 1 17823139098134349327
246663 6 15985106336224964869
3103668 31 17826240871882247451
3178227 256 12535630491840014676
335352 9 18334585634194753438
3383291 50 13901901224532582717
4093350 32 8070028870409550052
4325135 7 18410293631235285301
445580 167 18201720690730892480
504579 68 18261108539604564825
5104073 3 10159394545303774349
5470011 282 18341894108478319741
59755656 215 17603307029532948426
7226269 152 11674876697934660087
999808 66 14189577451213800813

>  <PUBCHEM_SHAPE_MULTIPOLES>  (1) 
505.21
26.51
1.99
1.42
12.56
0.31
0.07
1.87
-14.29
-3.49
-0.22
1.81
0.25
0.16

>  <PUBCHEM_SHAPE_SELFOVERLAP>  (1) 
1071.546

>  <PUBCHEM_SHAPE_VOLUME>  (1) 
284.8

>  <PUBCHEM_COORDINATE_TYPE>  (1) 
2
5
10

$$$$
