30672
     RDKit          3D

 37 42  0  0  1  0  0  0  0  0999 V2000
    3.6458   -1.4783    0.3849 O   0  0  0  0  0  0  0  0  0  0  0  0
   -0.5961    1.8357    1.9030 O   0  0  0  0  0  0  0  0  0  0  0  0
   -4.6553   -0.4728    0.8971 O   0  0  0  0  0  0  0  0  0  0  0  0
   -1.9186    2.9722   -0.1378 O   0  0  0  0  0  0  0  0  0  0  0  0
    8.1618   -0.3374    0.7583 O   0  0  0  0  0  0  0  0  0  0  0  0
    8.1276   -2.6374    0.6882 O   0  0  0  0  0  0  0  0  0  0  0  0
   -5.0673   -2.5179   -0.0759 O   0  0  0  0  0  0  0  0  0  0  0  0
   -8.3017    0.9774    0.1397 N   0  0  0  0  0  0  0  0  0  0  0  0
    3.0239   -0.4273   -0.3675 C   0  0  0  0  0  0  0  0  0  0  0  0
    1.5019   -0.3881   -0.0362 C   0  0  0  0  0  0  0  0  0  0  0  0
    3.7978    0.9124   -0.2048 C   0  0  0  0  0  0  0  0  0  0  0  0
    0.7750    0.8310   -0.6677 C   0  0  0  0  0  0  0  0  0  0  0  0
   -0.7641    0.8542   -0.3342 C   0  0  0  0  0  0  0  0  0  0  0  0
   -1.0565    0.6820    1.1878 C   0  0  0  0  0  0  0  0  0  0  0  0
    5.0768    0.6826   -1.0770 C   0  0  0  0  0  0  0  0  0  0  0  0
    2.9798    2.0873   -0.8037 C   0  0  0  0  0  0  0  0  0  0  0  0
    1.5301    2.1335   -0.3171 C   0  0  0  0  0  0  0  0  0  0  0  0
    3.2739   -0.8137   -1.8465 C   0  0  0  0  0  0  0  0  0  0  0  0
    1.2010   -0.4930    1.4721 C   0  0  0  0  0  0  0  0  0  0  0  0
   -0.2998   -0.5367    1.7572 C   0  0  0  0  0  0  0  0  0  0  0  0
    4.5768   -0.1318   -2.2784 C   0  0  0  0  0  0  0  0  0  0  0  0
   -1.4905   -0.2620   -1.1447 C   0  0  0  0  0  0  0  0  0  0  0  0
    4.1900    1.2900    1.2393 C   0  0  0  0  0  0  0  0  0  0  0  0
   -2.5651    0.5395    1.4838 C   0  0  0  0  0  0  0  0  0  0  0  0
   -2.9855   -0.3586   -0.8342 C   0  0  0  0  0  0  0  0  0  0  0  0
   -3.2527   -0.5419    0.6542 C   0  0  0  0  0  0  0  0  0  0  0  0
   -1.3305    2.1641   -0.8489 C   0  0  0  0  0  0  0  0  0  0  0  0
    6.2147   -0.0347   -0.4070 C   0  0  0  0  0  0  0  0  0  0  0  0
    7.3062    0.6990    0.2652 C   0  0  0  0  0  0  0  0  0  0  0  0
    6.3973   -1.3499   -0.3253 C   0  0  0  0  0  0  0  0  0  0  0  0
    7.6415   -1.5526    0.4186 C   0  0  0  0  0  0  0  0  0  0  0  0
   -5.4172   -1.3935    0.2476 C   0  0  0  0  0  0  0  0  0  0  0  0
   -6.7702   -0.8495   -0.0316 C   0  0  0  0  0  0  0  0  0  0  0  0
   -7.6982   -1.6243   -0.6849 C   0  0  0  0  0  0  0  0  0  0  0  0
   -7.0893    0.4222    0.3626 C   0  0  0  0  0  0  0  0  0  0  0  0
   -8.9569   -1.0879   -0.9326 C   0  0  0  0  0  0  0  0  0  0  0  0
   -9.2063    0.2058   -0.5037 C   0  0  0  0  0  0  0  0  0  0  0  0
  1  9  1  0
  2 14  1  0
  3 26  1  0
  3 32  1  0
  4 27  2  0
  5 29  1  0
  5 31  1  0
  6 31  2  0
  7 32  2  0
  8 35  2  0
  8 37  1  0
  9 10  1  0
  9 11  1  0
  9 18  1  0
 10 12  1  0
 10 19  1  0
 11 15  1  0
 11 16  1  0
 11 23  1  0
 12 13  1  0
 12 17  1  0
 13 14  1  0
 13 22  1  0
 13 27  1  0
 14 20  1  0
 14 24  1  0
 15 21  1  0
 15 28  1  0
 16 17  1  0
 18 21  1  0
 19 20  1  0
 22 25  1  0
 24 26  1  0
 25 26  1  0
 28 29  1  0
 28 30  2  0
 30 31  1  0
 32 33  1  0
 33 34  2  0
 33 35  1  0
 34 36  1  0
 36 37  2  0
M  END
>  <PUBCHEM_COMPOUND_CID>  (1) 
30672

>  <PUBCHEM_CONFORMER_RMSD>  (1) 
1

>  <PUBCHEM_CONFORMER_DIVERSEORDER>  (1) 
11
126
43
143
12
87
159
75
144
165
1
36
22
96
35
148
80
19
89
160
46
50
82
45
142
152
37
54
68
88
10
59
162
161
157
85
93
73
60
95
65
94
69
164
77
28
137
25
48
155
44
53
40
145
134
109
117
13
100
110
16
175
32
123
168
33
14
130
91
81
3
112
103
17
105
129
170
56
147
30
64
58
39
38
146
4
113
51
140
61
156
107
98
79
119
18
151
42
9
15
70
104
158
176
52
141
118
132
84
128
6
34
72
92
125
55
78
86
74
154
27
57
121
139
5
102
106
66
20
173
136
116
63
71
83
8
62
29
97
133
167
31
7
122
124
138
108
131
111
26
47
2
135
41
149
127
67
166
120
171
153
169
76
21
101
114
24
99
163
172
174
150
23
49
115
90

>  <PUBCHEM_MMFF94_PARTIAL_CHARGES>  (1) 
32
1 -0.68
13 0.06
14 0.28
15 0.14
2 -0.68
26 0.28
27 0.45
28 -0.28
29 0.42
3 -0.43
30 -0.14
31 0.71
32 0.63
33 0.09
34 -0.15
35 0.16
36 -0.15
37 0.16
4 -0.57
5 -0.43
6 -0.57
63 0.4
64 0.06
65 0.4
68 0.15
69 0.15
7 -0.57
70 0.15
71 0.15
72 0.15
8 -0.62
9 0.28

>  <PUBCHEM_EFFECTIVE_ROTOR_COUNT>  (1) 
7.6

>  <PUBCHEM_PHARMACOPHORE_FEATURES>  (1) 
14
1 1 acceptor
1 1 donor
1 2 acceptor
1 2 donor
1 4 acceptor
1 6 acceptor
1 7 acceptor
1 8 acceptor
5 5 28 29 30 31 rings
5 9 11 15 18 21 rings
6 10 12 13 14 19 20 rings
6 13 14 22 24 25 26 rings
6 8 33 34 35 36 37 rings
6 9 10 11 12 16 17 rings

>  <PUBCHEM_HEAVY_ATOM_COUNT>  (1) 
37

>  <PUBCHEM_ATOM_DEF_STEREO_COUNT>  (1) 
6

>  <PUBCHEM_ATOM_UDEF_STEREO_COUNT>  (1) 
2

>  <PUBCHEM_BOND_DEF_STEREO_COUNT>  (1) 
0

>  <PUBCHEM_BOND_UDEF_STEREO_COUNT>  (1) 
0

>  <PUBCHEM_ISOTOPIC_ATOM_COUNT>  (1) 
0

>  <PUBCHEM_COMPONENT_COUNT>  (1) 
1

>  <PUBCHEM_CACTVS_TAUTO_COUNT>  (1) 
1

>  <PUBCHEM_CONFORMER_ID>  (1) 
000077D00000000B

>  <PUBCHEM_MMFF94_ENERGY>  (1) 
134.4307

>  <PUBCHEM_FEATURE_SELFOVERLAP>  (1) 
71.329

>  <PUBCHEM_SHAPE_FINGERPRINT>  (1) 
10 15 12247681573748570327
10162869 55 15697709376896950765
10165383 225 10303813186010021036
106641 1 13902188192487471287
10674148 151 17603581937520805977
10930396 42 16056588833678131290
11135926 11 17967530173561856539
11181472 205 12685081549784373870
11828532 37 17896332474187425258
12107698 1 18335424573286207580
12166972 35 17530687623992932124
12202916 173 18410014338171175770
12539765 74 11242239745608616681
12741549 16 18342171168746524408
13383668 251 13829545649710919683
13811026 1 18335140877552584519
13914758 101 17167861937531265796
14068700 675 18411703183625566433
14251764 18 12967131614147290131
14294032 229 16661757770707228557
14856354 85 14779552318773341451
15064981 194 12108089759192417647
15131766 46 17127592513069718128
15183329 4 18259984890793393697
15188451 53 18272091591314065080
15198563 99 16878215382140255517
15849732 13 17846499262270205357
18603816 31 17774712161131100247
19841028 212 18041555837642395010
20105231 36 14706929541008738329
21033648 29 10809920651670435844
21792934 111 17489863839005132089
21792961 116 17385999547018746477
22149856 69 15840731632818456674
22224240 67 13110964223170841276
23559900 14 15792305924222332948
23576562 1 14635725271268806351
24771293 8 11527953361335307411
249057 25 18200611257665632465
249057 3 18259986002725972567
3092352 35 7853574599621887673
3633792 109 16443066110474647900
4112364 45 13901896848198051056
4258327 124 10879698931695915274
439807 62 18333731312620767302
45266715 3 16660642904428801554
474113 269 18260264102217455394
5104073 3 16199603351239382246
5283156 175 18259704484572761654
5758199 1 10087644797442169821
58083652 198 17846502581926582409
59682541 35 13542463181104977255
6009941 240 17967536805154618979
6081469 158 18259983769131696655
6126387 218 17989207036823502955
6703917 75 8286202777556618341
99344 41 18343865511516233135
9962374 69 15913033361993519977

>  <PUBCHEM_SHAPE_MULTIPOLES>  (1) 
715.38
25.92
2.12
1.49
25.01
0.36
0
-12.3
2.4
-0.71
-0.01
-0.82
0.06
-0.86

>  <PUBCHEM_SHAPE_SELFOVERLAP>  (1) 
1574.359

>  <PUBCHEM_SHAPE_VOLUME>  (1) 
380.7

>  <PUBCHEM_COORDINATE_TYPE>  (1) 
2
5
10

$$$$
