30685
     RDKit          3D

 16 17  0  0  0  0  0  0  0  0999 V2000
   -2.9014    0.0508   -0.8889 O   0  0  0  0  0  0  0  0  0  0  0  0
   -0.6255    0.0169   -0.7104 N   0  0  0  0  0  0  0  0  0  0  0  0
   -2.0337    0.0532    1.2226 N   0  0  0  0  0  0  0  0  0  0  0  0
    0.6682   -0.0027   -0.1398 C   0  0  0  0  0  0  0  0  0  0  0  0
    1.3275    1.1954    0.1354 C   0  0  0  0  0  0  0  0  0  0  0  0
    1.2858   -1.2202    0.1470 C   0  0  0  0  0  0  0  0  0  0  0  0
    0.6917    2.5150   -0.1607 C   0  0  0  0  0  0  0  0  0  0  0  0
    0.6047   -2.5198   -0.1364 C   0  0  0  0  0  0  0  0  0  0  0  0
    2.6041    1.1761    0.6970 C   0  0  0  0  0  0  0  0  0  0  0  0
    2.5624   -1.2394    0.7087 C   0  0  0  0  0  0  0  0  0  0  0  0
   -1.8203    0.0425   -0.0568 C   0  0  0  0  0  0  0  0  0  0  0  0
    3.2215   -0.0412    0.9837 C   0  0  0  0  0  0  0  0  0  0  0  0
   -4.0180   -0.1524   -0.0376 C   0  0  0  0  0  0  0  0  0  0  0  0
   -3.4910    0.1553    1.3418 C   0  0  0  0  0  0  0  0  0  0  0  0
    1.0142    3.0089   -1.5674 C   0  0  0  0  0  0  0  0  0  0  0  0
    0.9098   -3.0384   -1.5381 C   0  0  0  0  0  0  0  0  0  0  0  0
  1 11  1  0
  1 13  1  0
  2  4  1  0
  2 11  1  0
  3 11  2  0
  3 14  1  0
  4  5  2  0
  4  6  1  0
  5  7  1  0
  5  9  1  0
  6  8  1  0
  6 10  2  0
  7 15  1  0
  8 16  1  0
  9 12  2  0
 10 12  1  0
 13 14  1  0
M  END
>  <PUBCHEM_COMPOUND_CID>  (1) 
30685

>  <PUBCHEM_CONFORMER_RMSD>  (1) 
0.6

>  <PUBCHEM_CONFORMER_DIVERSEORDER>  (1) 
1
23
24
10
15
19
22
11
21
12
9
5
20
18
8
13
4
14
6
17
7
2
16
3

>  <PUBCHEM_MMFF94_PARTIAL_CHARGES>  (1) 
18
1 -0.43
10 -0.15
11 0.65
12 -0.15
13 0.28
14 0.25
2 -0.55
21 0.4
22 0.15
23 0.15
24 0.15
3 -0.7
4 0.1
5 -0.14
6 -0.14
7 0.14
8 0.14
9 -0.15

>  <PUBCHEM_EFFECTIVE_ROTOR_COUNT>  (1) 
4.6

>  <PUBCHEM_PHARMACOPHORE_FEATURES>  (1) 
6
1 15 hydrophobe
1 16 hydrophobe
1 2 donor
3 2 3 11 cation
5 1 3 11 13 14 rings
6 4 5 6 9 10 12 rings

>  <PUBCHEM_HEAVY_ATOM_COUNT>  (1) 
16

>  <PUBCHEM_ATOM_DEF_STEREO_COUNT>  (1) 
0

>  <PUBCHEM_ATOM_UDEF_STEREO_COUNT>  (1) 
0

>  <PUBCHEM_BOND_DEF_STEREO_COUNT>  (1) 
0

>  <PUBCHEM_BOND_UDEF_STEREO_COUNT>  (1) 
0

>  <PUBCHEM_ISOTOPIC_ATOM_COUNT>  (1) 
0

>  <PUBCHEM_COMPONENT_COUNT>  (1) 
1

>  <PUBCHEM_CACTVS_TAUTO_COUNT>  (1) 
2

>  <PUBCHEM_CONFORMER_ID>  (1) 
000077DD00000001

>  <PUBCHEM_MMFF94_ENERGY>  (1) 
45.5717

>  <PUBCHEM_FEATURE_SELFOVERLAP>  (1) 
30.446

>  <PUBCHEM_SHAPE_FINGERPRINT>  (1) 
10219947 1 18410005533524271912
108634 29 17682096804392785533
11471102 22 18335416850802679392
12759256 9 18408042931033422085
13134695 92 18041264522182789500
13836976 161 18339919437181946879
14617773 55 17402323171469920286
15309172 13 18412538842658685826
15490181 7 17614858734480052116
15775835 57 17632295700527418081
16945 1 18114177583601230176
20511035 2 18119249712413046514
20559304 39 18272101478239265809
20645477 70 18339913832355198455
20671657 1 18120096344946423108
21524375 3 17759257570717596221
22182313 1 17838593597678623794
23184049 59 18411129251682706232
23419403 2 14931755367125264715
2748010 2 18122615055438849716
3060560 45 18341896307279964334
3250762 1 17619057340253354214
394222 165 15370878733543860960
576247 118 17903106363541603219
6992083 37 18268131223344916170
7364860 26 17917154883765795031
77492 1 17775557659048083521
81228 2 17685218274479588137
8272917 22 18412832365493311373

>  <PUBCHEM_SHAPE_MULTIPOLES>  (1) 
313.44
5.28
3.02
1.31
5.38
0.09
-0.2
-0.06
1.97
-2.23
-1.83
0.02
-0.03
-0.11

>  <PUBCHEM_SHAPE_SELFOVERLAP>  (1) 
653.813

>  <PUBCHEM_SHAPE_VOLUME>  (1) 
178.8

>  <PUBCHEM_COORDINATE_TYPE>  (1) 
2
5
10

$$$$
