30682
     RDKit          3D

 13 14  0  0  0  0  0  0  0  0999 V2000
   -1.9057   -2.0594   -0.0004 O   0  0  0  0  0  0  0  0  0  0  0  0
   -3.7101    0.0057    0.0002 O   0  0  0  0  0  0  0  0  0  0  0  0
    4.0642    0.3590   -0.0005 N   0  0  0  0  0  0  0  0  0  0  0  0
   -0.0659   -0.5027    0.0001 C   0  0  0  0  0  0  0  0  0  0  0  0
    0.3762    0.8417    0.0000 C   0  0  0  0  0  0  0  0  0  0  0  0
   -1.4441   -0.7725    0.0000 C   0  0  0  0  0  0  0  0  0  0  0  0
    1.7544    1.1115    0.0002 C   0  0  0  0  0  0  0  0  0  0  0  0
    0.8833   -1.5378    0.0002 C   0  0  0  0  0  0  0  0  0  0  0  0
   -0.5731    1.8769    0.0000 C   0  0  0  0  0  0  0  0  0  0  0  0
    2.6835    0.0706    0.0002 C   0  0  0  0  0  0  0  0  0  0  0  0
   -2.3731    0.2682   -0.0001 C   0  0  0  0  0  0  0  0  0  0  0  0
    2.2488   -1.2514    0.0002 C   0  0  0  0  0  0  0  0  0  0  0  0
   -1.9385    1.5903   -0.0002 C   0  0  0  0  0  0  0  0  0  0  0  0
  1  6  1  0
  2 11  1  0
  3 10  1  0
  4  5  1  0
  4  6  2  0
  4  8  1  0
  5  7  1  0
  5  9  2  0
  6 11  1  0
  7 10  2  0
  8 12  2  0
  9 13  1  0
 10 12  1  0
 11 13  2  0
M  END
>  <PUBCHEM_COMPOUND_CID>  (1) 
30682

>  <PUBCHEM_CONFORMER_RMSD>  (1) 
0.4

>  <PUBCHEM_CONFORMER_DIVERSEORDER>  (1) 
1

>  <PUBCHEM_MMFF94_PARTIAL_CHARGES>  (1) 
20
1 -0.53
10 0.1
11 0.08
12 -0.15
13 -0.15
14 0.15
15 0.15
16 0.15
17 0.15
18 0.15
19 0.4
2 -0.53
20 0.4
21 0.45
22 0.45
3 -0.9
6 0.08
7 -0.15
8 -0.15
9 -0.15

>  <PUBCHEM_EFFECTIVE_ROTOR_COUNT>  (1) 
0

>  <PUBCHEM_PHARMACOPHORE_FEATURES>  (1) 
6
1 1 donor
1 2 donor
1 3 cation
1 3 donor
6 4 5 6 9 11 13 rings
6 4 5 7 8 10 12 rings

>  <PUBCHEM_HEAVY_ATOM_COUNT>  (1) 
13

>  <PUBCHEM_ATOM_DEF_STEREO_COUNT>  (1) 
0

>  <PUBCHEM_ATOM_UDEF_STEREO_COUNT>  (1) 
0

>  <PUBCHEM_BOND_DEF_STEREO_COUNT>  (1) 
0

>  <PUBCHEM_BOND_UDEF_STEREO_COUNT>  (1) 
0

>  <PUBCHEM_ISOTOPIC_ATOM_COUNT>  (1) 
0

>  <PUBCHEM_COMPONENT_COUNT>  (1) 
1

>  <PUBCHEM_CACTVS_TAUTO_COUNT>  (1) 
48

>  <PUBCHEM_CONFORMER_ID>  (1) 
000077DA00000001

>  <PUBCHEM_MMFF94_ENERGY>  (1) 
49.6747

>  <PUBCHEM_FEATURE_SELFOVERLAP>  (1) 
30.478

>  <PUBCHEM_SHAPE_FINGERPRINT>  (1) 
10608611 8 18411978023141275784
10967382 1 18410855460170392294
11132069 177 18411695517445922976
11471102 20 18410569548824884861
12032990 46 18410301310694813179
12382932 28 18412826897403961794
12524768 44 18340773632745984511
13380535 76 18410854347784782430
14144814 61 18410293566768382960
14325111 11 18338798901325363556
15775835 57 18413112736120225016
16945 1 18410573972298327684
17844478 74 18041289789797099609
193761 8 17689998259689549516
20201158 50 18410573980856587786
20510252 161 18200876162705695473
20588541 1 18412547608549695819
20871998 184 18201441410566690919
21501502 16 18267021648413619376
2334 1 17978511167248025445
23402539 116 18343010091294976949
23402655 69 18269542876374917741
23463225 33 18334854983529130482
23552423 10 18261394515316748076
23559900 14 18199190586681305150
2748010 2 18122621927260052461
3312278 4 18409451413907689986
353137 74 18335697191881799273
528886 8 18411695504281452722
53812653 166 18271801350261637288
6333449 129 18412823581657489052
7364860 26 18198059175719608630
8809292 202 18261396688586336146

>  <PUBCHEM_SHAPE_MULTIPOLES>  (1) 
250.81
4.95
1.9
0.6
1.22
0.16
0
-0.12
0
-0.46
0
0.01
-0.01
0

>  <PUBCHEM_SHAPE_SELFOVERLAP>  (1) 
555.1

>  <PUBCHEM_SHAPE_VOLUME>  (1) 
135.3

>  <PUBCHEM_COORDINATE_TYPE>  (1) 
2
5
10

$$$$
