30692
     RDKit          3D

 14 15  0  0  0  0  0  0  0  0999 V2000
    1.4072   -2.1260    0.0064 S   0  0  0  0  0  0  0  0  0  0  0  0
   -1.6139   -1.8661   -0.0041 S   0  0  0  0  0  0  0  0  0  0  0  0
   -4.4001   -0.7619    0.0005 S   0  0  0  0  0  0  0  0  0  0  0  0
    0.1643    0.1339   -0.0061 N   0  0  0  0  0  0  0  0  0  0  0  0
   -5.4478    1.8903    0.0086 N   0  0  0  0  0  0  0  0  0  0  0  0
    2.3657   -0.6926    0.0038 C   0  0  0  0  0  0  0  0  0  0  0  0
    1.5213    0.4218   -0.0030 C   0  0  0  0  0  0  0  0  0  0  0  0
    3.7638   -0.5637    0.0075 C   0  0  0  0  0  0  0  0  0  0  0  0
    2.0995    1.7098   -0.0061 C   0  0  0  0  0  0  0  0  0  0  0  0
   -0.0092   -1.1672   -0.0018 C   0  0  0  0  0  0  0  0  0  0  0  0
    4.3102    0.7222    0.0042 C   0  0  0  0  0  0  0  0  0  0  0  0
    3.4907    1.8456   -0.0025 C   0  0  0  0  0  0  0  0  0  0  0  0
   -2.6312   -0.3579   -0.0129 C   0  0  0  0  0  0  0  0  0  0  0  0
   -5.0207    0.8117    0.0055 C   0  0  0  0  0  0  0  0  0  0  0  0
  1  6  1  0
  1 10  1  0
  2 10  1  0
  2 13  1  0
  3 13  1  0
  3 14  1  0
  4  7  1  0
  4 10  2  0
  5 14  3  0
  6  7  2  0
  6  8  1  0
  7  9  1  0
  8 11  2  0
  9 12  2  0
 11 12  1  0
M  END
>  <PUBCHEM_COMPOUND_CID>  (1) 
30692

>  <PUBCHEM_CONFORMER_RMSD>  (1) 
0.6

>  <PUBCHEM_CONFORMER_DIVERSEORDER>  (1) 
1
34
24
28
8
21
20
4
6
12
26
33
7
3
15
10
5
11
22
27
2
19
13
18
25
9
23
16
30
17
29
14
32
31

>  <PUBCHEM_MMFF94_PARTIAL_CHARGES>  (1) 
18
1 -0.08
10 0.43
11 -0.15
12 -0.15
13 0.46
14 0.59
15 0.15
16 0.15
17 0.15
18 0.15
2 -0.29
3 -0.27
4 -0.57
5 -0.56
6 0.04
7 0.23
8 -0.15
9 -0.15

>  <PUBCHEM_EFFECTIVE_ROTOR_COUNT>  (1) 
3

>  <PUBCHEM_PHARMACOPHORE_FEATURES>  (1) 
4
1 4 acceptor
1 5 acceptor
5 1 4 6 7 10 rings
6 6 7 8 9 11 12 rings

>  <PUBCHEM_HEAVY_ATOM_COUNT>  (1) 
14

>  <PUBCHEM_ATOM_DEF_STEREO_COUNT>  (1) 
0

>  <PUBCHEM_ATOM_UDEF_STEREO_COUNT>  (1) 
0

>  <PUBCHEM_BOND_DEF_STEREO_COUNT>  (1) 
0

>  <PUBCHEM_BOND_UDEF_STEREO_COUNT>  (1) 
0

>  <PUBCHEM_ISOTOPIC_ATOM_COUNT>  (1) 
0

>  <PUBCHEM_COMPONENT_COUNT>  (1) 
1

>  <PUBCHEM_CACTVS_TAUTO_COUNT>  (1) 
1

>  <PUBCHEM_CONFORMER_ID>  (1) 
000077E400000001

>  <PUBCHEM_MMFF94_ENERGY>  (1) 
17.5343

>  <PUBCHEM_FEATURE_SELFOVERLAP>  (1) 
20.369

>  <PUBCHEM_SHAPE_FINGERPRINT>  (1) 
11471102 20 18411699898233553942
122479 349 18335142033278842155
12596602 18 14129069105754884197
13922767 16 18340767134745146354
14123255 352 18408319974205211581
14123255 52 18411418432026197327
14252887 29 12757141360151838626
14415576 193 18411140259578540191
15196674 1 18410855477672066823
17834072 32 18412546492538693825
17834072 33 18272083929303522759
17834072 8 18273224092569739790
18186145 218 18334850671334824078
19784866 9 18410008827595681922
20645477 70 18272655618866934855
212847 35 18334859424361985660
231179 274 18409168809454891663
23402539 116 18201995543046900149
23402655 69 18272087201709730687
23559900 14 18271807887175987878
25 1 18409163342025015750
335352 9 18410573968615569854
5104073 3 18334292089162631395
543358 83 18412264995406944130
602551 16 15936989538208156507
633830 44 18408881866884859590
6430166 295 18410854382286601299
77779 3 18410293644442018375
8272917 22 18342178817222902543

>  <PUBCHEM_SHAPE_MULTIPOLES>  (1) 
289.7
10.6
2.23
0.62
12.37
0.04
0
5.86
-0.03
0.14
0
0
-0.04
-0.01

>  <PUBCHEM_SHAPE_SELFOVERLAP>  (1) 
572.894

>  <PUBCHEM_SHAPE_VOLUME>  (1) 
172.4

>  <PUBCHEM_COORDINATE_TYPE>  (1) 
2
5
10

$$$$
