30693
     RDKit          3D

 12 13  0  0  1  0  0  0  0  0999 V2000
    2.0626    0.7709    0.0380 C   0  0  0  0  0  0  0  0  0  0  0  0
    2.0630   -0.7706   -0.0375 C   0  0  0  0  0  0  0  0  0  0  0  0
    0.8067    1.3641   -0.6221 C   0  0  0  0  0  0  0  0  0  0  0  0
    0.8068   -1.3644    0.6216 C   0  0  0  0  0  0  0  0  0  0  0  0
   -0.4748    0.6482   -0.2723 C   0  0  0  0  0  0  0  0  0  0  0  0
   -0.4747   -0.6484    0.2719 C   0  0  0  0  0  0  0  0  0  0  0  0
    2.2093    1.2691    1.4826 C   0  0  0  0  0  0  0  0  0  0  0  0
    2.2109   -1.2685   -1.4820 C   0  0  0  0  0  0  0  0  0  0  0  0
   -1.6983    1.2757   -0.5547 C   0  0  0  0  0  0  0  0  0  0  0  0
   -1.6982   -1.2760    0.5546 C   0  0  0  0  0  0  0  0  0  0  0  0
   -2.9067    0.6375   -0.2783 C   0  0  0  0  0  0  0  0  0  0  0  0
   -2.9066   -0.6376    0.2783 C   0  0  0  0  0  0  0  0  0  0  0  0
  1  2  1  0
  1  3  1  0
  1  7  1  0
  2  4  1  0
  2  8  1  0
  3  5  1  0
  4  6  1  0
  5  6  2  0
  5  9  1  0
  6 10  1  0
  9 11  2  0
 10 12  2  0
 11 12  1  0
M  END
>  <PUBCHEM_COMPOUND_CID>  (1) 
30693

>  <PUBCHEM_CONFORMER_RMSD>  (1) 
0.4

>  <PUBCHEM_CONFORMER_DIVERSEORDER>  (1) 
2
4
3
5
1

>  <PUBCHEM_MMFF94_PARTIAL_CHARGES>  (1) 
12
10 -0.15
11 -0.15
12 -0.15
25 0.15
26 0.15
27 0.15
28 0.15
3 0.14
4 0.14
5 -0.14
6 -0.14
9 -0.15

>  <PUBCHEM_EFFECTIVE_ROTOR_COUNT>  (1) 
0.8

>  <PUBCHEM_PHARMACOPHORE_FEATURES>  (1) 
2
6 1 2 3 4 5 6 rings
6 5 6 9 10 11 12 rings

>  <PUBCHEM_HEAVY_ATOM_COUNT>  (1) 
12

>  <PUBCHEM_ATOM_DEF_STEREO_COUNT>  (1) 
0

>  <PUBCHEM_ATOM_UDEF_STEREO_COUNT>  (1) 
2

>  <PUBCHEM_BOND_DEF_STEREO_COUNT>  (1) 
0

>  <PUBCHEM_BOND_UDEF_STEREO_COUNT>  (1) 
0

>  <PUBCHEM_ISOTOPIC_ATOM_COUNT>  (1) 
0

>  <PUBCHEM_COMPONENT_COUNT>  (1) 
1

>  <PUBCHEM_CACTVS_TAUTO_COUNT>  (1) 
1

>  <PUBCHEM_CONFORMER_ID>  (1) 
000077E500000002

>  <PUBCHEM_MMFF94_ENERGY>  (1) 
27.4962

>  <PUBCHEM_FEATURE_SELFOVERLAP>  (1) 
10.169

>  <PUBCHEM_SHAPE_FINGERPRINT>  (1) 
107287 299 18201725106099268724
10857977 72 18187079602669478017
11206711 2 18114184086408570079
12326174 3 16917079879592119684
12382932 28 18336822104041220049
12423570 1 8861783902866177444
12524768 44 18412261722810487807
12696612 119 18187361085998986572
12897270 3 18261115145011259983
12932764 1 17703795859439622677
15219456 202 18342174483869419280
15775835 57 17968664800229548037
161256 15 18410016519913490943
16945 1 18113617885059293189
17990270 104 18261960750862148044
18186145 218 18266453218609806517
19973954 147 18407763646526949061
20201158 50 18341333297054718646
20645464 45 18411689998112189345
20715346 28 18411983580817991579
20871998 184 17835805574532735378
21040471 1 18114177471800198637
22802520 49 18265630804722324214
230 275 18333725831846800152
23552423 10 18040441018143649887
23559900 14 18121217572730876374
241688 4 18189338970020593816
2748010 2 18335139795479217375
369184 2 17632577175678149633
4663303 62 18060420214104475782
5084963 1 18410022034672591489
528886 8 18186525384073326407
53812653 166 18335979766290906088

>  <PUBCHEM_SHAPE_MULTIPOLES>  (1) 
246.95
4.17
1.7
1.12
1.58
0
0
0
0
-0.36
0
-0.73
0
0.89

>  <PUBCHEM_SHAPE_SELFOVERLAP>  (1) 
517.448

>  <PUBCHEM_SHAPE_VOLUME>  (1) 
135.4

>  <PUBCHEM_COORDINATE_TYPE>  (1) 
2
5
10

$$$$
