30706
     RDKit          3D

 17 18  0  0  1  0  0  0  0  0999 V2000
    1.2960   -2.3990    0.4012 S   0  0  0  0  0  0  0  0  0  0  0  0
   -0.2781    1.1623   -1.7610 O   0  0  0  0  0  0  0  0  0  0  0  0
   -2.3716    0.2336   -0.2469 N   0  0  0  0  0  0  0  0  0  0  0  0
   -1.0797   -0.4494   -0.1538 C   0  0  0  0  0  0  0  0  0  0  0  0
   -1.1317   -1.8099   -0.8492 C   0  0  0  0  0  0  0  0  0  0  0  0
   -0.0325    0.4339   -0.8018 C   0  0  0  0  0  0  0  0  0  0  0  0
    0.2323   -2.4611   -1.0703 C   0  0  0  0  0  0  0  0  0  0  0  0
   -2.3170    1.5211    0.4426 C   0  0  0  0  0  0  0  0  0  0  0  0
   -3.4309   -0.6038    0.3123 C   0  0  0  0  0  0  0  0  0  0  0  0
    1.3511    0.4040   -0.2490 C   0  0  0  0  0  0  0  0  0  0  0  0
    1.9696   -0.7355    0.3016 C   0  0  0  0  0  0  0  0  0  0  0  0
   -3.6302    2.2676    0.3286 C   0  0  0  0  0  0  0  0  0  0  0  0
   -3.1548   -0.9550    1.7597 C   0  0  0  0  0  0  0  0  0  0  0  0
    2.0422    1.6285   -0.2852 C   0  0  0  0  0  0  0  0  0  0  0  0
    3.2662   -0.5976    0.8339 C   0  0  0  0  0  0  0  0  0  0  0  0
    3.3294    1.7361    0.2366 C   0  0  0  0  0  0  0  0  0  0  0  0
    3.9397    0.6242    0.8007 C   0  0  0  0  0  0  0  0  0  0  0  0
  1  7  1  0
  1 11  1  0
  2  6  2  0
  3  4  1  0
  3  8  1  0
  3  9  1  0
  4  5  1  0
  4  6  1  0
  5  7  1  0
  6 10  1  0
  8 12  1  0
  9 13  1  0
 10 11  2  0
 10 14  1  0
 11 15  1  0
 14 16  2  0
 15 17  2  0
 16 17  1  0
M  END
>  <PUBCHEM_COMPOUND_CID>  (1) 
30706

>  <PUBCHEM_CONFORMER_RMSD>  (1) 
0.6

>  <PUBCHEM_CONFORMER_DIVERSEORDER>  (1) 
1
7
15
6
18
19
8
17
5
13
16
12
9
4
10
14
11
3
2

>  <PUBCHEM_MMFF94_PARTIAL_CHARGES>  (1) 
18
1 -0.33
10 0.09
11 0.1
14 -0.15
15 -0.15
16 -0.15
17 -0.15
2 -0.57
3 -0.81
33 0.15
34 0.15
35 0.15
36 0.15
4 0.33
6 0.42
7 0.23
8 0.27
9 0.27

>  <PUBCHEM_EFFECTIVE_ROTOR_COUNT>  (1) 
3.8

>  <PUBCHEM_PHARMACOPHORE_FEATURES>  (1) 
4
1 2 acceptor
1 3 cation
6 10 11 14 15 16 17 rings
7 1 4 5 6 7 10 11 rings

>  <PUBCHEM_HEAVY_ATOM_COUNT>  (1) 
17

>  <PUBCHEM_ATOM_DEF_STEREO_COUNT>  (1) 
0

>  <PUBCHEM_ATOM_UDEF_STEREO_COUNT>  (1) 
1

>  <PUBCHEM_BOND_DEF_STEREO_COUNT>  (1) 
0

>  <PUBCHEM_BOND_UDEF_STEREO_COUNT>  (1) 
0

>  <PUBCHEM_ISOTOPIC_ATOM_COUNT>  (1) 
0

>  <PUBCHEM_COMPONENT_COUNT>  (1) 
1

>  <PUBCHEM_CACTVS_TAUTO_COUNT>  (1) 
2

>  <PUBCHEM_CONFORMER_ID>  (1) 
000077F200000001

>  <PUBCHEM_MMFF94_ENERGY>  (1) 
51.632

>  <PUBCHEM_FEATURE_SELFOVERLAP>  (1) 
20.301

>  <PUBCHEM_SHAPE_FINGERPRINT>  (1) 
10465860 228 18127977412149387432
10980938 120 18411982446951926250
11132069 177 18266726047685072106
11471102 22 18260838106572313954
11680986 33 18195255416520208703
12173636 292 18129086978511829308
12202030 40 14997379792144536042
12251169 10 18336823182125217434
12382932 28 18336826390244410521
12400797 245 17822294625405980946
12491281 212 18265611160048015706
12507560 40 18410300176949943849
12633257 1 17970340412847651512
12892183 10 18260832630462482065
13140716 1 18337388223548370536
14178342 30 18041009418658476939
14223421 5 18336835203791446051
14617773 55 17912065459310530326
15209294 21 18271229634591363776
15309172 13 18409440419065718758
15375462 478 18188776170681054667
15775835 57 18200597015532355938
15906896 17 17916572275673103646
16945 1 18412266172238513406
18186145 218 17632309964150646486
18981168 100 16699237910031010001
200 152 18339066199131891247
20157964 124 18124871266954815261
20261772 1 18267027330624015458
20361792 2 13118283698005044187
20510252 161 18057885938143653450
20871999 31 9367344817254269721
21524375 3 18131351959337819054
21731228 192 18342460378109320106
23388829 49 18337107990239403095
23402539 116 17916857058328175695
23419403 2 17394438109467063679
23557571 272 13900461980817482541
2748010 2 17905587927411065270
276578 36 18131361820777773082
305870 269 18342458101670794318
6992083 37 18262227945267869588
7364860 26 18056764225914482814
81228 2 17481980542286729782
84936 31 17273694243725790750

>  <PUBCHEM_SHAPE_MULTIPOLES>  (1) 
342.85
6.39
2.62
1.22
0.38
0.54
0.01
-2.84
2.72
0.22
-0.26
0.39
0.23
0

>  <PUBCHEM_SHAPE_SELFOVERLAP>  (1) 
699.371

>  <PUBCHEM_SHAPE_VOLUME>  (1) 
199.2

>  <PUBCHEM_COORDINATE_TYPE>  (1) 
2
5
10

$$$$
