30702
     RDKit          3D

 19 20  0  0  0  0  0  0  0  0999 V2000
    2.8271    1.9157    0.5022 N   0  0  0  0  0  0  0  0  0  0  0  0
   -2.2814    0.7093   -0.0670 C   0  0  0  0  0  0  0  0  0  0  0  0
    0.7280    0.9401   -0.3528 C   0  0  0  0  0  0  0  0  0  0  0  0
   -1.5612    0.2719   -1.3474 C   0  0  0  0  0  0  0  0  0  0  0  0
   -1.3434    0.6451    1.1432 C   0  0  0  0  0  0  0  0  0  0  0  0
   -0.2542    1.0438   -1.5577 C   0  0  0  0  0  0  0  0  0  0  0  0
   -0.0583    1.4387    0.8957 C   0  0  0  0  0  0  0  0  0  0  0  0
   -3.5291   -0.1398    0.1693 C   0  0  0  0  0  0  0  0  0  0  0  0
    1.8991    1.9152   -0.6155 C   0  0  0  0  0  0  0  0  0  0  0  0
    1.3531   -0.4570   -0.1474 C   0  0  0  0  0  0  0  0  0  0  0  0
   -4.4740   -0.0220   -1.0384 C   0  0  0  0  0  0  0  0  0  0  0  0
   -3.1275   -1.6128    0.3555 C   0  0  0  0  0  0  0  0  0  0  0  0
   -4.2587    0.3490    1.4318 C   0  0  0  0  0  0  0  0  0  0  0  0
    1.5606   -1.2878   -1.2439 C   0  0  0  0  0  0  0  0  0  0  0  0
    1.7046   -0.8743    1.1322 C   0  0  0  0  0  0  0  0  0  0  0  0
    3.9407    2.8248    0.2594 C   0  0  0  0  0  0  0  0  0  0  0  0
    2.1253   -2.5497   -1.0585 C   0  0  0  0  0  0  0  0  0  0  0  0
    2.2695   -2.1362    1.3174 C   0  0  0  0  0  0  0  0  0  0  0  0
    2.4798   -2.9739    0.2220 C   0  0  0  0  0  0  0  0  0  0  0  0
  1  9  1  0
  1 16  1  0
  2  4  1  0
  2  5  1  0
  2  8  1  0
  3  6  1  0
  3  7  1  0
  3  9  1  0
  3 10  1  0
  4  6  1  0
  5  7  1  0
  8 11  1  0
  8 12  1  0
  8 13  1  0
 10 14  2  0
 10 15  1  0
 14 17  1  0
 15 18  2  0
 17 19  2  0
 18 19  1  0
M  END
>  <PUBCHEM_COMPOUND_CID>  (1) 
30702

>  <PUBCHEM_CONFORMER_RMSD>  (1) 
0.8

>  <PUBCHEM_CONFORMER_DIVERSEORDER>  (1) 
1
3
6
4
2
5

>  <PUBCHEM_MMFF94_PARTIAL_CHARGES>  (1) 
16
1 -0.9
10 -0.14
14 -0.15
15 -0.15
16 0.27
17 -0.15
18 -0.15
19 -0.15
3 0.14
40 0.36
41 0.15
42 0.15
46 0.15
47 0.15
48 0.15
9 0.27

>  <PUBCHEM_EFFECTIVE_ROTOR_COUNT>  (1) 
5.2

>  <PUBCHEM_PHARMACOPHORE_FEATURES>  (1) 
5
1 1 cation
1 1 donor
4 8 11 12 13 hydrophobe
6 10 14 15 17 18 19 rings
6 2 3 4 5 6 7 rings

>  <PUBCHEM_HEAVY_ATOM_COUNT>  (1) 
19

>  <PUBCHEM_ATOM_DEF_STEREO_COUNT>  (1) 
0

>  <PUBCHEM_ATOM_UDEF_STEREO_COUNT>  (1) 
0

>  <PUBCHEM_BOND_DEF_STEREO_COUNT>  (1) 
0

>  <PUBCHEM_BOND_UDEF_STEREO_COUNT>  (1) 
0

>  <PUBCHEM_ISOTOPIC_ATOM_COUNT>  (1) 
0

>  <PUBCHEM_COMPONENT_COUNT>  (1) 
1

>  <PUBCHEM_CACTVS_TAUTO_COUNT>  (1) 
1

>  <PUBCHEM_CONFORMER_ID>  (1) 
000077EE00000001

>  <PUBCHEM_MMFF94_ENERGY>  (1) 
66.3151

>  <PUBCHEM_FEATURE_SELFOVERLAP>  (1) 
25.371

>  <PUBCHEM_SHAPE_FINGERPRINT>  (1) 
10922049 32 18267870673707665892
11578080 2 17750515070629715292
12553582 1 18194130611724901775
12592029 89 18334566984655684368
12644460 14 18343310248931103520
12707595 3 18191589657395746239
12714826 92 17608099671621621871
12839892 36 18118951723382158506
13083527 12 18264751221532480392
13533116 47 18272086107184277019
13764800 53 11526788999769514543
14178342 30 18118698835860620473
14223421 5 18410577275265490773
14787075 74 17482273016859061385
14955137 171 18270951385377516666
15375358 24 17749378313235068365
15422964 175 17839740370203586542
16945 1 18115034111812830661
1813 80 17914903028507867102
18915476 22 18336246986318829428
18981168 100 11815601034562076727
20197701 30 18195239151716611072
20361792 2 18191029993160631271
204376 136 18193556898699539700
20600515 1 17479736014401166504
20645477 70 18336537257900147943
21054139 6 17983283017980125295
21421861 104 18341345391724913665
21524375 3 18195245752960162020
21731516 1 18045514018607266107
23402539 116 16879332605854689893
23419403 2 17460847671608811094
23493267 7 17060072492007726153
23557571 272 16878214277916934565
23559900 14 18200029525882853151
2748010 2 17822000965823219165
298252 57 16700624608805252972
3250762 1 18044076970095819684
394222 165 18059580234159800320
4340502 62 18338523061762171571
458136 41 18337679719016338756
5902787 121 18118397346057034370
59755656 520 18124310760711145756
6138700 20 18411146819011589588
633830 44 17986685954697005628
7364860 26 18413110550198019160
81228 2 17190365410278867576
81539 233 18335419127330771772
84936 31 18411134740608732028

>  <PUBCHEM_SHAPE_MULTIPOLES>  (1) 
386.03
6.94
3
1.47
6.11
0.62
-0.09
-0.36
0.93
-4.7
0.15
0.32
0.15
0.1

>  <PUBCHEM_SHAPE_SELFOVERLAP>  (1) 
794.33

>  <PUBCHEM_SHAPE_VOLUME>  (1) 
218

>  <PUBCHEM_COORDINATE_TYPE>  (1) 
2
5
10

$$$$
