30708
     RDKit          3D

 19 21  0  0  1  0  0  0  0  0999 V2000
    1.6961   -2.2685    0.6260 S   0  0  0  0  0  0  0  0  0  0  0  0
    1.0522    2.0887    1.1748 O   0  0  0  0  0  0  0  0  0  0  0  0
   -2.6923    0.3291    0.1648 N   0  0  0  0  0  0  0  0  0  0  0  0
   -1.4630    1.1089    0.3066 C   0  0  0  0  0  0  0  0  0  0  0  0
   -0.2468    0.1927    0.4437 C   0  0  0  0  0  0  0  0  0  0  0  0
   -2.6325   -0.5103   -1.0400 C   0  0  0  0  0  0  0  0  0  0  0  0
   -3.8635    1.2165    0.1365 C   0  0  0  0  0  0  0  0  0  0  0  0
   -3.8905   -1.3696   -1.1769 C   0  0  0  0  0  0  0  0  0  0  0  0
   -5.1616    0.4138    0.0379 C   0  0  0  0  0  0  0  0  0  0  0  0
   -5.1507   -0.5120   -1.1732 C   0  0  0  0  0  0  0  0  0  0  0  0
   -0.4018   -0.7387    1.6491 C   0  0  0  0  0  0  0  0  0  0  0  0
    1.0251    1.0104    0.5864 C   0  0  0  0  0  0  0  0  0  0  0  0
    0.8651   -1.4944    2.0439 C   0  0  0  0  0  0  0  0  0  0  0  0
    2.2797    0.4749   -0.0100 C   0  0  0  0  0  0  0  0  0  0  0  0
    2.6213   -0.8903   -0.0614 C   0  0  0  0  0  0  0  0  0  0  0  0
    3.1438    1.4367   -0.5627 C   0  0  0  0  0  0  0  0  0  0  0  0
    3.8206   -1.2520   -0.7044 C   0  0  0  0  0  0  0  0  0  0  0  0
    4.3312    1.0544   -1.1828 C   0  0  0  0  0  0  0  0  0  0  0  0
    4.6675   -0.2905   -1.2582 C   0  0  0  0  0  0  0  0  0  0  0  0
  1 13  1  0
  1 15  1  0
  2 12  2  0
  3  4  1  0
  3  6  1  0
  3  7  1  0
  4  5  1  0
  5 11  1  0
  5 12  1  0
  6  8  1  0
  7  9  1  0
  8 10  1  0
  9 10  1  0
 11 13  1  0
 12 14  1  0
 14 15  2  0
 14 16  1  0
 15 17  1  0
 16 18  2  0
 17 19  2  0
 18 19  1  0
M  END
>  <PUBCHEM_COMPOUND_CID>  (1) 
30708

>  <PUBCHEM_CONFORMER_RMSD>  (1) 
0.6

>  <PUBCHEM_CONFORMER_DIVERSEORDER>  (1) 
1
11
31
12
30
2
16
21
3
9
25
15
24
4
8
27
32
7
5
36
14
10
17
19
6
13
18
26
34
22
35
33
29
23
28
20

>  <PUBCHEM_MMFF94_PARTIAL_CHARGES>  (1) 
19
1 -0.33
12 0.42
13 0.23
14 0.09
15 0.1
16 -0.15
17 -0.15
18 -0.15
19 -0.15
2 -0.57
3 -0.81
37 0.15
38 0.15
39 0.15
4 0.27
40 0.15
5 0.06
6 0.27
7 0.27

>  <PUBCHEM_EFFECTIVE_ROTOR_COUNT>  (1) 
4

>  <PUBCHEM_PHARMACOPHORE_FEATURES>  (1) 
5
1 2 acceptor
1 3 cation
6 14 15 16 17 18 19 rings
6 3 6 7 8 9 10 rings
7 1 5 11 12 13 14 15 rings

>  <PUBCHEM_HEAVY_ATOM_COUNT>  (1) 
19

>  <PUBCHEM_ATOM_DEF_STEREO_COUNT>  (1) 
0

>  <PUBCHEM_ATOM_UDEF_STEREO_COUNT>  (1) 
1

>  <PUBCHEM_BOND_DEF_STEREO_COUNT>  (1) 
0

>  <PUBCHEM_BOND_UDEF_STEREO_COUNT>  (1) 
0

>  <PUBCHEM_ISOTOPIC_ATOM_COUNT>  (1) 
0

>  <PUBCHEM_COMPONENT_COUNT>  (1) 
1

>  <PUBCHEM_CACTVS_TAUTO_COUNT>  (1) 
2

>  <PUBCHEM_CONFORMER_ID>  (1) 
000077F400000001

>  <PUBCHEM_MMFF94_ENERGY>  (1) 
43.6773

>  <PUBCHEM_FEATURE_SELFOVERLAP>  (1) 
25.375

>  <PUBCHEM_SHAPE_FINGERPRINT>  (1) 
10498660 4 16950561108000494341
11128504 68 18334859424134976695
11796584 16 16630530617811163263
11961588 58 17968942040885618980
12363563 72 14333414466667958355
12553582 1 18272077276288144849
12596602 18 10015577298940489653
12670546 177 18408605859353680207
12730499 353 17676215654002532323
12788726 201 17916030066475327409
12824470 246 15840165294747352926
128620 24 16732980921175853887
12892183 10 8286197236573799644
12969540 114 16805601507731832319
13167823 11 18272370875804597117
13544653 18 14189581814557487020
14252887 29 12607406572615440710
14576447 43 18272931622334456342
15209294 21 11386369261436447316
15527383 91 11671780472795457026
15885798 251 13614526250846458051
16752209 62 17489020453778585241
1813 80 13038914347463275586
18186145 218 17894631461095433372
18915474 69 18272931626402537919
192875 21 18260832541112038002
193927 3 15984836946906469172
19784866 140 18342177752423973121
19784866 240 17346048762101302470
19862831 5 18411134736440378121
200 152 18272095976433365772
20645477 70 18410015394669268566
20871999 31 18273498961702093639
21637258 2 16271928169140582878
221490 88 18129099107452006727
22182313 1 17975704097140797216
231179 274 15647053767823919708
23227448 37 15069488087812379286
23382010 3 18187367666157643314
23402539 116 18186523198373134692
23402655 69 18337112271889377717
23557571 272 17703215214315784088
23559900 14 17275092960371668537
238 59 18334860553832824690
25 1 18040722454639767282
2637199 183 18410855468950737831
2748010 2 18046655510010037586
2838139 119 16443631311048884142
2871803 45 18334574629090699284
3004659 81 18343587309240616446
3060560 45 17822008727024100286
314173 85 13326580648206164706
3323516 105 18340484560019476467
3472631 163 15068633728739111774
465052 167 17418096567813648695
474 4 17822296815765351613
4990 188 18411983554773887725
633830 44 18113904844566991485
6786 2 15188491680314074666
7164475 11 18195530286069573516
81539 233 16226042280084740538
960060 61 18412826893082698877
9981440 41 17262988659646609032

>  <PUBCHEM_SHAPE_MULTIPOLES>  (1) 
384.01
10.32
1.92
1.5
7.38
0.42
0.2
-0.97
-5.78
-1.21
0.47
-0.04
0.38
-0.85

>  <PUBCHEM_SHAPE_SELFOVERLAP>  (1) 
793.655

>  <PUBCHEM_SHAPE_VOLUME>  (1) 
219

>  <PUBCHEM_COORDINATE_TYPE>  (1) 
2
5
10

$$$$
