30717
     RDKit          3D

 20 23  0  0  0  0  0  0  0  0999 V2000
    1.0836    2.6355    0.0612 O   0  0  0  0  0  0  0  0  0  0  0  0
   -1.0837   -2.6356    0.0616 O   0  0  0  0  0  0  0  0  0  0  0  0
   -0.0029    0.6990    0.7257 N   0  0  0  0  0  0  0  0  0  0  0  0
    0.0029   -0.6990    0.7257 N   0  0  0  0  0  0  0  0  0  0  0  0
   -1.2692    1.2813    1.1380 C   0  0  0  0  0  0  0  0  0  0  0  0
    1.2692   -1.2813    1.1379 C   0  0  0  0  0  0  0  0  0  0  0  0
   -2.3965    0.6887    0.3480 C   0  0  0  0  0  0  0  0  0  0  0  0
    2.3964   -0.6887    0.3478 C   0  0  0  0  0  0  0  0  0  0  0  0
   -2.2983   -0.6371   -0.0948 C   0  0  0  0  0  0  0  0  0  0  0  0
    2.2983    0.6371   -0.0948 C   0  0  0  0  0  0  0  0  0  0  0  0
    1.0765    1.4181    0.2268 C   0  0  0  0  0  0  0  0  0  0  0  0
   -1.0765   -1.4182    0.2270 C   0  0  0  0  0  0  0  0  0  0  0  0
   -3.5628    1.4157    0.0897 C   0  0  0  0  0  0  0  0  0  0  0  0
    3.5627   -1.4157    0.0893 C   0  0  0  0  0  0  0  0  0  0  0  0
   -3.3496   -1.2262   -0.8035 C   0  0  0  0  0  0  0  0  0  0  0  0
    3.3497    1.2263   -0.8031 C   0  0  0  0  0  0  0  0  0  0  0  0
   -4.6101    0.8298   -0.6222 C   0  0  0  0  0  0  0  0  0  0  0  0
    4.6101   -0.8297   -0.6222 C   0  0  0  0  0  0  0  0  0  0  0  0
   -4.5025   -0.4871   -1.0692 C   0  0  0  0  0  0  0  0  0  0  0  0
    4.5026    0.4872   -1.0688 C   0  0  0  0  0  0  0  0  0  0  0  0
  1 11  2  0
  2 12  2  0
  3  4  1  0
  3  5  1  0
  3 11  1  0
  4  6  1  0
  4 12  1  0
  5  7  1  0
  6  8  1  0
  7  9  2  0
  7 13  1  0
  8 10  2  0
  8 14  1  0
  9 12  1  0
  9 15  1  0
 10 11  1  0
 10 16  1  0
 13 17  2  0
 14 18  2  0
 15 19  2  0
 16 20  2  0
 17 19  1  0
 18 20  1  0
M  END
>  <PUBCHEM_COMPOUND_CID>  (1) 
30717

>  <PUBCHEM_CONFORMER_RMSD>  (1) 
0.6

>  <PUBCHEM_CONFORMER_DIVERSEORDER>  (1) 
1
2

>  <PUBCHEM_MMFF94_PARTIAL_CHARGES>  (1) 
28
1 -0.57
10 0.09
11 0.54
12 0.54
13 -0.15
14 -0.15
15 -0.15
16 -0.15
17 -0.15
18 -0.15
19 -0.15
2 -0.57
20 -0.15
25 0.15
26 0.15
27 0.15
28 0.15
29 0.15
3 -0.36
30 0.15
31 0.15
32 0.15
4 -0.36
5 0.44
6 0.44
7 -0.14
8 -0.14
9 0.09

>  <PUBCHEM_EFFECTIVE_ROTOR_COUNT>  (1) 
0.4

>  <PUBCHEM_PHARMACOPHORE_FEATURES>  (1) 
6
1 1 acceptor
1 2 acceptor
6 3 4 5 7 9 12 rings
6 3 4 6 8 10 11 rings
6 7 9 13 15 17 19 rings
6 8 10 14 16 18 20 rings

>  <PUBCHEM_HEAVY_ATOM_COUNT>  (1) 
20

>  <PUBCHEM_ATOM_DEF_STEREO_COUNT>  (1) 
0

>  <PUBCHEM_ATOM_UDEF_STEREO_COUNT>  (1) 
0

>  <PUBCHEM_BOND_DEF_STEREO_COUNT>  (1) 
0

>  <PUBCHEM_BOND_UDEF_STEREO_COUNT>  (1) 
0

>  <PUBCHEM_ISOTOPIC_ATOM_COUNT>  (1) 
0

>  <PUBCHEM_COMPONENT_COUNT>  (1) 
1

>  <PUBCHEM_CACTVS_TAUTO_COUNT>  (1) 
1

>  <PUBCHEM_CONFORMER_ID>  (1) 
000077FD00000001

>  <PUBCHEM_MMFF94_ENERGY>  (1) 
57.1325

>  <PUBCHEM_FEATURE_SELFOVERLAP>  (1) 
30.539

>  <PUBCHEM_SHAPE_FINGERPRINT>  (1) 
10062212 137 18202276988117296631
10498660 4 17458609130295845909
10756046 5 18266741470358763716
116883 192 18126292935146138214
11796584 16 15697997427389133047
12035759 4 18338516318099079411
12236239 1 18410855425768423489
12363563 72 16200437982804945808
12670546 177 18410856551049855479
12788726 201 17987812808007324032
14576447 43 18341890809758793862
14790565 3 18124324813390717737
14911166 2 18410856559639789575
14993402 34 18410573963676614755
15099037 51 18409730638316243303
15196674 1 18410573993741385757
15209294 21 11602539823104906213
15536298 74 18272643588689587592
16752209 62 18272081661180761419
16945 1 18338517572229529979
17870717 6 17917725581739576327
1813 80 13183027349284882808
18186145 218 18411125953385381421
19784866 170 8718833110499542145
19862831 5 18410575088958046234
200 152 18060137639194209212
20645476 183 18261108591065570779
20775438 99 16907738600723222519
20871999 31 18341615910102589781
21267235 1 18412553097555154699
21634736 98 18270958063228956069
221357 26 18411130355848218469
221490 88 18266180719565884419
22854114 59 8862944974302229654
231179 274 16877939438680273108
23379529 103 17773315862119163079
23402539 116 18272649004922630196
23402655 69 18408324358707541692
23559900 14 18201716297554218912
25 1 17894630348730669450
26918003 58 12463568474270322717
2748010 2 17762055840673563066
3004659 81 18335139744425270326
34934 24 18410008862677801170
3759504 43 17530972401108702139
4280585 95 17480592538249592414
474 4 17458348584499556876
633830 44 17603869970506018953
74978 22 18338799030026371208
9709674 26 18198054996320316515
9981440 41 17545313541950373272

>  <PUBCHEM_SHAPE_MULTIPOLES>  (1) 
389.89
9.05
2.11
1.03
0
0
0.01
0
3.95
0
-0.15
0
0
-0.67

>  <PUBCHEM_SHAPE_SELFOVERLAP>  (1) 
877.832

>  <PUBCHEM_SHAPE_VOLUME>  (1) 
202.1

>  <PUBCHEM_COORDINATE_TYPE>  (1) 
2
5
10

$$$$
