3072
     RDKit          3D

 10  9  0  0  0  0  0  0  0  0999 V2000
   -0.0041   -1.0972    0.3558 P   0  0  0  0  0  0  0  0  0  0  0  0
   -0.8665   -0.0257   -0.5136 O   0  0  0  0  0  0  0  0  0  0  0  0
    1.5077   -0.7781   -0.1529 O   0  0  0  0  0  0  0  0  0  0  0  0
   -0.3994   -2.5172    0.0433 O   0  0  0  0  0  0  0  0  0  0  0  0
   -2.2175    0.1806   -0.1407 C   0  0  0  0  0  0  0  0  0  0  0  0
    1.9273    0.5747   -0.2026 C   0  0  0  0  0  0  0  0  0  0  0  0
   -2.2697    0.6846    1.2934 C   0  0  0  0  0  0  0  0  0  0  0  0
   -2.8604    1.1611   -1.1098 C   0  0  0  0  0  0  0  0  0  0  0  0
    1.8437    1.1764    1.1920 C   0  0  0  0  0  0  0  0  0  0  0  0
    3.3390    0.6409   -0.7648 C   0  0  0  0  0  0  0  0  0  0  0  0
  1  2  1  0
  1  3  1  0
  1  4  2  0
  2  5  1  0
  3  6  1  0
  5  7  1  0
  5  8  1  0
  6  9  1  0
  6 10  1  0
M  END
>  <PUBCHEM_COMPOUND_CID>  (1) 
3072

>  <PUBCHEM_CONFORMER_RMSD>  (1) 
0.6

>  <PUBCHEM_CONFORMER_DIVERSEORDER>  (1) 
1
11
26
35
14
29
30
4
33
3
34
13
22
7
28
32
2
10
8
25
31
6
21
9
5
27
15
16
19
18
12
20
17
24
23

>  <PUBCHEM_MMFF94_PARTIAL_CHARGES>  (1) 
7
1 1.28
13 -0.04
2 -0.55
3 -0.55
4 -0.7
5 0.28
6 0.28

>  <PUBCHEM_EFFECTIVE_ROTOR_COUNT>  (1) 
4

>  <PUBCHEM_PHARMACOPHORE_FEATURES>  (1) 
3
1 4 acceptor
3 5 7 8 hydrophobe
3 6 9 10 hydrophobe

>  <PUBCHEM_HEAVY_ATOM_COUNT>  (1) 
10

>  <PUBCHEM_ATOM_DEF_STEREO_COUNT>  (1) 
0

>  <PUBCHEM_ATOM_UDEF_STEREO_COUNT>  (1) 
0

>  <PUBCHEM_BOND_DEF_STEREO_COUNT>  (1) 
0

>  <PUBCHEM_BOND_UDEF_STEREO_COUNT>  (1) 
0

>  <PUBCHEM_ISOTOPIC_ATOM_COUNT>  (1) 
0

>  <PUBCHEM_COMPONENT_COUNT>  (1) 
1

>  <PUBCHEM_CACTVS_TAUTO_COUNT>  (1) 
2

>  <PUBCHEM_CONFORMER_ID>  (1) 
00000C0000000001

>  <PUBCHEM_MMFF94_ENERGY>  (1) 
8.4377

>  <PUBCHEM_FEATURE_SELFOVERLAP>  (1) 
15.223

>  <PUBCHEM_SHAPE_FINGERPRINT>  (1) 
10857977 72 17096103436557733001
12897270 3 17131825491012108373
12932741 1 17987801963578274288
14390081 3 18337662040883540797
15775835 57 18411698764240849149
19973954 147 17912647096756145256
20653085 51 16988576713677255385
21028194 46 18410571803313378507
21040471 1 18336539503782928074
21930827 45 18267867357692057746
23211744 41 17749958756463633883
23235685 24 18409171021299803980
5084963 1 18412263964709504781
81228 2 17905888432860681555

>  <PUBCHEM_SHAPE_MULTIPOLES>  (1) 
192.04
4.75
1.7
1.17
0.81
1.2
-0.22
-2.46
1
-0.19
-0.05
-0.3
-0.46
0.29

>  <PUBCHEM_SHAPE_SELFOVERLAP>  (1) 
337.609

>  <PUBCHEM_SHAPE_VOLUME>  (1) 
127.9

>  <PUBCHEM_COORDINATE_TYPE>  (1) 
2
5
10

$$$$
