30721
     RDKit          3D

 25 28  0  0  0  0  0  0  0  0999 V2000
    2.2496   -0.5368    1.4281 O   0  0  0  0  0  0  0  0  0  0  0  0
   -2.0610   -4.5657   -0.6912 O   0  0  0  0  0  0  0  0  0  0  0  0
   -2.9781   -2.6809   -1.3434 O   0  0  0  0  0  0  0  0  0  0  0  0
   -1.0853    1.6161    0.3990 N   0  0  0  0  0  0  0  0  0  0  0  0
   -3.7976    2.4648    0.2382 N   0  0  0  0  0  0  0  0  0  0  0  0
    1.1695    1.7550    0.0183 N   0  0  0  0  0  0  0  0  0  0  0  0
   -2.0570   -3.3137   -0.7729 N   0  0  0  0  0  0  0  0  0  0  0  0
   -2.0576    1.1258    1.3719 C   0  0  0  0  0  0  0  0  0  0  0  0
   -1.4075    2.9029   -0.2117 C   0  0  0  0  0  0  0  0  0  0  0  0
   -3.4605    1.1332    0.7626 C   0  0  0  0  0  0  0  0  0  0  0  0
   -2.8247    2.8717   -0.7863 C   0  0  0  0  0  0  0  0  0  0  0  0
    0.1111    1.0131    0.2135 C   0  0  0  0  0  0  0  0  0  0  0  0
   -5.1537    2.4733   -0.3088 C   0  0  0  0  0  0  0  0  0  0  0  0
    0.1256   -0.4790    0.2543 C   0  0  0  0  0  0  0  0  0  0  0  0
    1.1689   -1.1748    0.8704 C   0  0  0  0  0  0  0  0  0  0  0  0
   -0.9471   -1.1969   -0.2898 C   0  0  0  0  0  0  0  0  0  0  0  0
    2.4580    1.2439   -0.1962 C   0  0  0  0  0  0  0  0  0  0  0  0
    2.9950    0.1617    0.5088 C   0  0  0  0  0  0  0  0  0  0  0  0
    1.1281   -2.5676    0.9782 C   0  0  0  0  0  0  0  0  0  0  0  0
   -0.9765   -2.5903   -0.2017 C   0  0  0  0  0  0  0  0  0  0  0  0
    0.0565   -3.2744    0.4366 C   0  0  0  0  0  0  0  0  0  0  0  0
    3.2863    1.9126   -1.1076 C   0  0  0  0  0  0  0  0  0  0  0  0
    4.3231   -0.2365    0.3282 C   0  0  0  0  0  0  0  0  0  0  0  0
    4.6079    1.5074   -1.3097 C   0  0  0  0  0  0  0  0  0  0  0  0
    5.1271    0.4350   -0.5889 C   0  0  0  0  0  0  0  0  0  0  0  0
  1 15  1  0
  1 18  1  0
  2  7  1  0
  3  7  2  0
  4  8  1  0
  4  9  1  0
  4 12  1  0
  5 10  1  0
  5 11  1  0
  5 13  1  0
  6 12  2  0
  6 17  1  0
  7 20  1  0
  8 10  1  0
  9 11  1  0
 12 14  1  0
 14 15  2  0
 14 16  1  0
 15 19  1  0
 16 20  2  0
 17 18  2  0
 17 22  1  0
 18 23  1  0
 19 21  2  0
 20 21  1  0
 22 24  2  0
 23 25  2  0
 24 25  1  0
M  CHG  2   2  -1   7   1
M  END
>  <PUBCHEM_COMPOUND_CID>  (1) 
30721

>  <PUBCHEM_CONFORMER_RMSD>  (1) 
0.6

>  <PUBCHEM_CONFORMER_DIVERSEORDER>  (1) 
1
7
3
8
2
4
5
6

>  <PUBCHEM_MMFF94_PARTIAL_CHARGES>  (1) 
32
1 -0.17
10 0.27
11 0.27
12 0.41
13 0.27
14 0.09
15 0.08
16 -0.15
17 0.18
18 0.08
19 -0.15
2 -0.52
20 0.13
21 -0.15
22 -0.15
23 -0.15
24 -0.15
25 -0.15
3 -0.52
37 0.15
38 0.15
39 0.15
4 -0.79
40 0.15
41 0.15
42 0.15
43 0.15
5 -0.81
6 -0.63
7 0.91
8 0.37
9 0.37

>  <PUBCHEM_EFFECTIVE_ROTOR_COUNT>  (1) 
3.4

>  <PUBCHEM_PHARMACOPHORE_FEATURES>  (1) 
10
1 1 acceptor
1 2 acceptor
1 2 anion
1 3 acceptor
1 5 cation
3 4 6 12 cation
6 14 15 16 19 20 21 rings
6 17 18 22 23 24 25 rings
6 4 5 8 9 10 11 rings
7 1 6 12 14 15 17 18 rings

>  <PUBCHEM_HEAVY_ATOM_COUNT>  (1) 
25

>  <PUBCHEM_ATOM_DEF_STEREO_COUNT>  (1) 
0

>  <PUBCHEM_ATOM_UDEF_STEREO_COUNT>  (1) 
0

>  <PUBCHEM_BOND_DEF_STEREO_COUNT>  (1) 
0

>  <PUBCHEM_BOND_UDEF_STEREO_COUNT>  (1) 
0

>  <PUBCHEM_ISOTOPIC_ATOM_COUNT>  (1) 
0

>  <PUBCHEM_COMPONENT_COUNT>  (1) 
1

>  <PUBCHEM_CACTVS_TAUTO_COUNT>  (1) 
1

>  <PUBCHEM_CONFORMER_ID>  (1) 
0000780100000001

>  <PUBCHEM_MMFF94_ENERGY>  (1) 
99.1653

>  <PUBCHEM_FEATURE_SELFOVERLAP>  (1) 
50.858

>  <PUBCHEM_SHAPE_FINGERPRINT>  (1) 
104564 63 18267022932487813907
10871710 139 18262808504529097453
1100329 8 18411412908666788408
12035759 4 18335126639746651798
12553582 1 17904771329400048690
12788726 201 18193555790566121106
13052359 8 18412543223504209139
13149001 5 17846490469829085688
133893 2 17694522346152543465
13540713 5 18187358887888152880
13583140 156 16662880332891088027
13681431 1 17331128191268996122
13836976 161 18262799545196033244
138480 1 17257371838870884619
140371 6 17399797593150727120
14251751 93 18335991925448874552
14251757 5 18267581493396317167
14289585 56 17459183002229937988
14790565 3 18338522949687723233
14866123 147 18410854356696795354
15210252 30 17465365813610557997
16752209 62 18340480179142447538
17138139 8 17914298434851854133
17980427 26 16878777189083573641
18681886 176 18263078834556883360
19591789 44 18410016511291946856
20739085 24 17617941327160832232
21285901 2 17772210831379030526
21344244 181 17845106081668295679
21524375 3 18262245421616598856
221357 26 17761201516166606591
2255824 54 17835805192459870811
22620623 9 18128554819447920078
23536364 44 18194946651516803823
23557571 272 17986668371754335200
23558518 356 18118968229047328736
23559900 14 17617366291296475641
25147074 1 18114172065296183864
2748010 2 17182760088423212306
3060560 45 18190748518590044052
3729539 64 17692564138094116238
38695281 34 18265899046925933837
46194498 28 17466768400349920949
53917941 68 18337104665903313988
59025328 239 16623177315904649887
59755656 520 17916046597408882041
6438718 38 18058740228629780895
6669772 16 18127981814934374406
7164475 11 18266739267620841518
81228 2 18051129499383991328
8272917 22 18048601417394087897
9709674 26 17827926122675227249

>  <PUBCHEM_SHAPE_MULTIPOLES>  (1) 
476.96
8.29
4.84
1.14
1.89
5.13
-0.01
-7.19
1.72
-4.6
1.51
0.09
0.19
-1.7

>  <PUBCHEM_SHAPE_SELFOVERLAP>  (1) 
1049.026

>  <PUBCHEM_SHAPE_VOLUME>  (1) 
256.1

>  <PUBCHEM_COORDINATE_TYPE>  (1) 
2
5
10

$$$$
