30729
     RDKit          3D

 32 35  0  0  1  0  0  0  0  0999 V2000
   -3.1362   -0.6715    2.1612 S   0  0  0  0  0  0  0  0  0  0  0  0
   -2.9411   -2.6266   -1.7806 O   0  0  0  0  0  0  0  0  0  0  0  0
   -6.5631    0.3561   -0.9521 O   0  0  0  0  0  0  0  0  0  0  0  0
   -4.6287    0.8015   -2.0727 O   0  0  0  0  0  0  0  0  0  0  0  0
    0.9822   -1.0609    1.4826 O   0  0  0  0  0  0  0  0  0  0  0  0
    1.6085    1.4023   -0.2455 O   0  0  0  0  0  0  0  0  0  0  0  0
    3.8630    0.9451   -0.6508 O   0  0  0  0  0  0  0  0  0  0  0  0
   -3.1871   -0.7056   -0.4318 N   0  0  0  0  0  0  0  0  0  0  0  0
   -0.1435   -1.4501   -0.5066 N   0  0  0  0  0  0  0  0  0  0  0  0
   -2.1823   -0.4797    0.6112 C   0  0  0  0  0  0  0  0  0  0  0  0
   -4.6753   -0.0183    1.3402 C   0  0  0  0  0  0  0  0  0  0  0  0
   -4.5907   -0.5822   -0.0945 C   0  0  0  0  0  0  0  0  0  0  0  0
   -1.4542   -1.7260    0.0891 C   0  0  0  0  0  0  0  0  0  0  0  0
   -2.5961   -1.8251   -0.9421 C   0  0  0  0  0  0  0  0  0  0  0  0
   -4.6418    1.5137    1.4253 C   0  0  0  0  0  0  0  0  0  0  0  0
   -5.9008   -0.5578    2.0799 C   0  0  0  0  0  0  0  0  0  0  0  0
   -5.2257    0.2630   -1.1524 C   0  0  0  0  0  0  0  0  0  0  0  0
    0.9828   -1.1354    0.2548 C   0  0  0  0  0  0  0  0  0  0  0  0
    2.2312   -0.8675   -0.5859 C   0  0  0  0  0  0  0  0  0  0  0  0
    3.3159   -1.8639   -0.2145 C   0  0  0  0  0  0  0  0  0  0  0  0
    2.7058    0.5772   -0.4920 C   0  0  0  0  0  0  0  0  0  0  0  0
    4.2014   -1.5445    0.7964 C   0  0  0  0  0  0  0  0  0  0  0  0
    3.3872   -3.0625   -0.8976 C   0  0  0  0  0  0  0  0  0  0  0  0
    5.1975   -2.4593    1.1376 C   0  0  0  0  0  0  0  0  0  0  0  0
    4.3832   -3.9774   -0.5562 C   0  0  0  0  0  0  0  0  0  0  0  0
    5.2883   -3.6758    0.4614 C   0  0  0  0  0  0  0  0  0  0  0  0
    1.9511    2.7523   -0.1437 C   0  0  0  0  0  0  0  0  0  0  0  0
    1.9458    3.5245   -1.2843 C   0  0  0  0  0  0  0  0  0  0  0  0
    2.2816    3.2595    1.0936 C   0  0  0  0  0  0  0  0  0  0  0  0
    2.2887    4.8728   -1.1825 C   0  0  0  0  0  0  0  0  0  0  0  0
    2.6244    4.6079    1.1953 C   0  0  0  0  0  0  0  0  0  0  0  0
    2.6280    5.4144    0.0572 C   0  0  0  0  0  0  0  0  0  0  0  0
  1 10  1  0
  1 11  1  0
  2 14  2  0
  3 17  1  0
  4 17  2  0
  5 18  2  0
  6 21  1  0
  6 27  1  0
  7 21  2  0
  8 10  1  0
  8 12  1  0
  8 14  1  0
  9 13  1  0
  9 18  1  0
 10 13  1  0
 11 12  1  0
 11 15  1  0
 11 16  1  0
 12 17  1  0
 13 14  1  0
 18 19  1  0
 19 20  1  0
 19 21  1  0
 20 22  2  0
 20 23  1  0
 22 24  1  0
 23 25  2  0
 24 26  2  0
 25 26  1  0
 27 28  2  0
 27 29  1  0
 28 30  1  0
 29 31  2  0
 30 32  2  0
 31 32  1  0
M  END
>  <PUBCHEM_COMPOUND_CID>  (1) 
30729

>  <PUBCHEM_CONFORMER_RMSD>  (1) 
1.2

>  <PUBCHEM_CONFORMER_DIVERSEORDER>  (1) 
1
117
106
224
61
316
3
37
271
190
273
214
43
259
213
217
287
260
62
304
215
237
100
241
305
206
96
202
115
67
283
55
129
311
16
120
30
136
168
143
196
60
27
79
94
301
189
303
17
212
146
32
281
89
228
286
75
236
48
160
19
309
282
255
57
22
145
307
313
191
98
186
235
310
178
51
263
44
20
197
220
116
231
187
210
221
14
211
65
323
274
233
13
69
2
158
131
302
223
155
298
26
265
247
225
258
113
59
290
50
4
194
300
179
314
175
257
321
252
21
270
272
38
317
229
125
292
278
112
31
114
156
245
284
218
261
291
36
293
320
135
70
45
203
188
9
322
53
250
289
253
82
312
35
104
295
40
315
185
110
243
87
157
222
180
264
42
169
88
24
83
234
23
276
308
139
277
239
148
86
242
288
144
161
137
124
68
77
318
294
184
183
177
153
170
150
6
107
269
238
165
219
193
119
128
66
200
275
111
140
25
280
10
216
108
240
15
296
33
162
201
126
56
159
91
54
123
205
11
204
138
195
227
172
95
52
93
152
34
266
7
133
18
76
127
5
90
80
63
254
319
232
151
132
71
230
47
299
171
181
102
268
149
167
73
64
92
154
192
166
248
142
208
182
74
72
246
97
78
41
39
109
58
134
209
81
49
118
267
279
122
8
85
262
99
173
12
121
198
141
101
176
174
306
29
46
28
244
147
164
199
251
207
285
103
226
249
256
105
84
297
163
130

>  <PUBCHEM_MMFF94_PARTIAL_CHARGES>  (1) 
42
1 -0.45
10 0.44
11 0.23
12 0.36
13 0.28
14 0.58
17 0.66
18 0.57
19 0.27
2 -0.57
20 -0.14
21 0.66
22 -0.15
23 -0.15
24 -0.15
25 -0.15
26 -0.15
27 0.08
28 -0.15
29 -0.15
3 -0.65
30 -0.15
31 -0.15
32 -0.15
4 -0.57
42 0.37
44 0.5
45 0.15
46 0.15
47 0.15
48 0.15
49 0.15
5 -0.57
50 0.15
51 0.15
52 0.15
53 0.15
54 0.15
6 -0.23
7 -0.57
8 -0.59
9 -0.65

>  <PUBCHEM_EFFECTIVE_ROTOR_COUNT>  (1) 
8.8

>  <PUBCHEM_PHARMACOPHORE_FEATURES>  (1) 
13
1 19 anion
1 2 acceptor
1 3 acceptor
1 4 acceptor
1 5 acceptor
1 7 acceptor
1 9 donor
3 11 15 16 hydrophobe
3 3 4 17 anion
4 8 10 13 14 rings
6 20 22 23 24 25 26 rings
6 27 28 29 30 31 32 rings
7 1 8 10 11 12 13 14 rings

>  <PUBCHEM_HEAVY_ATOM_COUNT>  (1) 
32

>  <PUBCHEM_ATOM_DEF_STEREO_COUNT>  (1) 
0

>  <PUBCHEM_ATOM_UDEF_STEREO_COUNT>  (1) 
4

>  <PUBCHEM_BOND_DEF_STEREO_COUNT>  (1) 
0

>  <PUBCHEM_BOND_UDEF_STEREO_COUNT>  (1) 
0

>  <PUBCHEM_ISOTOPIC_ATOM_COUNT>  (1) 
0

>  <PUBCHEM_COMPONENT_COUNT>  (1) 
1

>  <PUBCHEM_CACTVS_TAUTO_COUNT>  (1) 
2

>  <PUBCHEM_CONFORMER_ID>  (1) 
0000780900000001

>  <PUBCHEM_MMFF94_ENERGY>  (1) 
95.269

>  <PUBCHEM_FEATURE_SELFOVERLAP>  (1) 
69.762

>  <PUBCHEM_SHAPE_FINGERPRINT>  (1) 
102385 1 18121502620450717698
10439779 11 18343018878687859920
10815517 723 17693393148048784848
10937287 8 17835523000508763612
10940486 97 18131062749499931942
11331351 85 17701833076575860416
11456790 92 18116157675837785073
11545043 162 17313111821865819715
12166972 35 18201148880591969731
12342043 65 17605301590934016491
12616971 3 18131361787014062539
12788726 201 18045782278729626298
13540713 5 18059011830062474327
13583140 156 18114181900682276915
13590594 115 18337392617421610456
13757389 114 17040379921728590766
13782708 43 17531826692011723819
14849402 71 18337121154087376968
15021287 119 18341048528302562407
15081414 286 18409452479555393016
15082195 135 18270104855344145663
15131766 46 18053956319001437777
16993438 75 17687180894140225493
17980427 23 17560794416339153294
17980427 26 18125432266797470812
1813 80 18340493244834206806
18335252 114 18265600006382042909
19301679 30 17904205832700729042
20238998 120 18340196385553348968
20642791 268 18200867478877460314
21033648 29 17749103426922786581
21033650 10 15697461969495519123
2132832 1 18131070385592575057
22122407 14 18268451087409797641
23559900 14 18412536639187871954
24771293 8 18201710791922869738
249057 25 17918275360083263739
3103668 31 17758676650674035844
340366 18 18342734104886375687
345986 75 17752191791861096386
376196 1 17974281324915720408
4015057 19 18409450280516580083
44317340 157 18338517543172392153
508180 173 18044366133285509889
513202 73 17836370341764615318
5912855 24 17983021351736364511
6058803 2 18129943519740382503
6673363 416 14661062751373288276
6697151 62 18263066761002627547
6823239 73 16515691047748107903
7399639 24 17613733929906239874
79837 15 17329431061381815496
9981440 41 17762049243941419832

>  <PUBCHEM_SHAPE_MULTIPOLES>  (1) 
617.22
13.42
6.54
1.73
14.8
9.56
-0.23
-7.24
-1.37
-13.9
0.61
2.14
0.1
-0.52

>  <PUBCHEM_SHAPE_SELFOVERLAP>  (1) 
1323.193

>  <PUBCHEM_SHAPE_VOLUME>  (1) 
342.3

>  <PUBCHEM_COORDINATE_TYPE>  (1) 
2
5
10

$$$$
