30733
     RDKit          3D

 14 13  0  0  0  0  0  0  0  0999 V2000
    1.2551    0.0080    0.0011 Si  0  0  0  0  0  4  0  0  0  0  0  0
   -3.0626    2.2356   -0.4435 O   0  0  0  0  0  0  0  0  0  0  0  0
   -1.5098   -1.1107    0.1294 N   0  0  0  0  0  0  0  0  0  0  0  0
   -0.2391   -0.6758    0.9015 C   0  0  0  0  0  0  0  0  0  0  0  0
    0.7996    1.5167   -1.0228 C   0  0  0  0  0  0  0  0  0  0  0  0
    2.4815    0.5847    1.3304 C   0  0  0  0  0  0  0  0  0  0  0  0
    2.1383   -1.2383   -1.0746 C   0  0  0  0  0  0  0  0  0  0  0  0
   -2.1454    0.0280   -0.6585 C   0  0  0  0  0  0  0  0  0  0  0  0
   -1.2411   -2.2916   -0.7985 C   0  0  0  0  0  0  0  0  0  0  0  0
   -2.5335   -1.5779    1.1795 C   0  0  0  0  0  0  0  0  0  0  0  0
    1.9586    2.2063   -1.7307 C   0  0  0  0  0  0  0  0  0  0  0  0
    1.9637    1.6525    2.2850 C   0  0  0  0  0  0  0  0  0  0  0  0
    2.5711   -2.5210   -0.3767 C   0  0  0  0  0  0  0  0  0  0  0  0
   -2.4363    1.1835    0.2785 C   0  0  0  0  0  0  0  0  0  0  0  0
  1  4  1  0
  1  5  1  0
  1  6  1  0
  1  7  1  0
  2 14  1  0
  3  4  1  0
  3  8  1  0
  3  9  1  0
  3 10  1  0
  5 11  1  0
  6 12  1  0
  7 13  1  0
  8 14  1  0
M  CHG  1   3   1
M  END
>  <PUBCHEM_COMPOUND_CID>  (1) 
30733

>  <PUBCHEM_CONFORMER_RMSD>  (1) 
0.8

>  <PUBCHEM_CONFORMER_DIVERSEORDER>  (1) 
1
11
35
31
7
28
13
38
39
19
26
36
30
21
9
23
20
10
22
16
4
14
32
3
24
37
6
33
27
17
5
18
29
2
25
15
12
34
8

>  <PUBCHEM_MMFF94_PARTIAL_CHARGES>  (1) 
12
1 0.32
10 0.5
14 0.28
2 -0.68
3 -1.01
4 0.42
42 0.4
5 -0.08
6 -0.08
7 -0.08
8 0.5
9 0.5

>  <PUBCHEM_EFFECTIVE_ROTOR_COUNT>  (1) 
7

>  <PUBCHEM_PHARMACOPHORE_FEATURES>  (1) 
3
1 2 acceptor
1 2 donor
1 3 cation

>  <PUBCHEM_HEAVY_ATOM_COUNT>  (1) 
14

>  <PUBCHEM_ATOM_DEF_STEREO_COUNT>  (1) 
0

>  <PUBCHEM_ATOM_UDEF_STEREO_COUNT>  (1) 
0

>  <PUBCHEM_BOND_DEF_STEREO_COUNT>  (1) 
0

>  <PUBCHEM_BOND_UDEF_STEREO_COUNT>  (1) 
0

>  <PUBCHEM_ISOTOPIC_ATOM_COUNT>  (1) 
0

>  <PUBCHEM_COMPONENT_COUNT>  (1) 
1

>  <PUBCHEM_CACTVS_TAUTO_COUNT>  (1) 
1

>  <PUBCHEM_CONFORMER_ID>  (1) 
0000780D00000001

>  <PUBCHEM_MMFF94_ENERGY>  (1) 
30.7316

>  <PUBCHEM_FEATURE_SELFOVERLAP>  (1) 
15.223

>  <PUBCHEM_SHAPE_FINGERPRINT>  (1) 
10922523 26 18411422795364752011
11833330 49 17535478015782083518
12654903 92 18188783725243516572
12716301 132 17321237045154066768
12932764 1 17845664762228863175
13380536 127 17969506094155005521
13839132 238 18271225188588016745
14251745 187 17470724407987766548
14648413 74 18187944875149344756
15775835 57 17771922780981033362
15852999 172 18052221198455628031
16945 1 18196653114605067335
18981168 100 18335990838922440317
19973954 147 18261685851675494519
20082192 1 17968370246950872581
20511035 2 18341614789147949703
21069387 34 16414627142958095295
22802520 49 18338242561194612195
23419403 2 17479420501929674912
23557571 272 18125710429964083331
2748010 2 18410855430295694311
3060560 45 17979620248569144805
74978 22 18113624460527713903
81228 2 18335137652717980179

>  <PUBCHEM_SHAPE_MULTIPOLES>  (1) 
295.48
4.5
2.88
1.75
1.89
0.42
0.54
-0.48
0.35
-0.26
-0.76
-1.19
-0.85
0.64

>  <PUBCHEM_SHAPE_SELFOVERLAP>  (1) 
521.253

>  <PUBCHEM_SHAPE_VOLUME>  (1) 
195.2

>  <PUBCHEM_COORDINATE_TYPE>  (1) 
2
5
10

$$$$
