30737
     RDKit          3D

 11 10  0  0  0  0  0  0  0  0999 V2000
    2.9420    2.2725    0.2934 Cl  0  0  0  0  0  0  0  0  0  0  0  0
   -1.8137    0.3847   -0.0478 Si  0  0  0  0  0  4  0  0  0  0  0  0
    0.7381   -1.1648   -0.0478 N   0  0  0  0  0  0  0  0  0  0  0  0
   -0.4614   -0.6226   -0.8647 C   0  0  0  0  0  0  0  0  0  0  0  0
    1.5585   -0.0609    0.6076 C   0  0  0  0  0  0  0  0  0  0  0  0
    0.3029   -2.1779    1.0066 C   0  0  0  0  0  0  0  0  0  0  0  0
    1.6574   -1.9017   -1.0383 C   0  0  0  0  0  0  0  0  0  0  0  0
   -1.1089    1.9064    0.8006 C   0  0  0  0  0  0  0  0  0  0  0  0
   -2.9566    0.9972   -1.4341 C   0  0  0  0  0  0  0  0  0  0  0  0
   -2.8633   -0.5788    1.1605 C   0  0  0  0  0  0  0  0  0  0  0  0
    2.0049    0.9458   -0.4359 C   0  0  0  0  0  0  0  0  0  0  0  0
  1 11  1  0
  2  4  1  0
  2  8  1  0
  2  9  1  0
  2 10  1  0
  3  4  1  0
  3  5  1  0
  3  6  1  0
  3  7  1  0
  5 11  1  0
M  CHG  1   3   1
M  END
>  <PUBCHEM_COMPOUND_CID>  (1) 
30737

>  <PUBCHEM_CONFORMER_RMSD>  (1) 
0.6

>  <PUBCHEM_CONFORMER_DIVERSEORDER>  (1) 
1
6
7
5
3
4
2

>  <PUBCHEM_MMFF94_PARTIAL_CHARGES>  (1) 
11
1 -0.29
10 -0.08
11 0.29
2 0.32
3 -1.01
4 0.42
5 0.5
6 0.5
7 0.5
8 -0.08
9 -0.08

>  <PUBCHEM_EFFECTIVE_ROTOR_COUNT>  (1) 
4

>  <PUBCHEM_PHARMACOPHORE_FEATURES>  (1) 
1
1 3 cation

>  <PUBCHEM_HEAVY_ATOM_COUNT>  (1) 
11

>  <PUBCHEM_ATOM_DEF_STEREO_COUNT>  (1) 
0

>  <PUBCHEM_ATOM_UDEF_STEREO_COUNT>  (1) 
0

>  <PUBCHEM_BOND_DEF_STEREO_COUNT>  (1) 
0

>  <PUBCHEM_BOND_UDEF_STEREO_COUNT>  (1) 
0

>  <PUBCHEM_ISOTOPIC_ATOM_COUNT>  (1) 
0

>  <PUBCHEM_COMPONENT_COUNT>  (1) 
1

>  <PUBCHEM_CACTVS_TAUTO_COUNT>  (1) 
1

>  <PUBCHEM_CONFORMER_ID>  (1) 
0000781100000001

>  <PUBCHEM_MMFF94_ENERGY>  (1) 
32.3102

>  <PUBCHEM_FEATURE_SELFOVERLAP>  (1) 
5.074

>  <PUBCHEM_SHAPE_FINGERPRINT>  (1) 
11132069 177 18121790692343285307
12423570 1 10300489456252728006
12932741 1 18187933807293013959
12932764 1 17749964228346797411
14250199 8 18272089336071281941
14648413 74 18055081964539260569
14817 1 10744969071763801210
15775835 57 18270959162661559925
16945 1 18201160966355542990
18380122 1 18187939429420911667
19973954 147 18269282257231725921
20645477 56 17908994545352612316
20653091 64 18195245512114718594
20711985 344 16827847582920735694
21028194 46 18335987574826429652
21041028 32 17840892697249572496
21524375 3 18267295611671903316
21947302 44 17972011696613882669
230 275 18343294851768707464
23211744 41 18334859454110297563
23552423 10 18197773311048476981
23557571 272 17603592937068973717
2748010 2 18260838089539890783
305870 269 18187914097746036840
5084963 1 17824569433475528399
81228 2 17403169799744765802

>  <PUBCHEM_SHAPE_MULTIPOLES>  (1) 
241.48
4.38
2.5
1.31
0.21
0.12
-0.12
-2.2
-0.23
-1.62
0.29
0.66
0.17
0.69

>  <PUBCHEM_SHAPE_SELFOVERLAP>  (1) 
409.289

>  <PUBCHEM_SHAPE_VOLUME>  (1) 
166.4

>  <PUBCHEM_COORDINATE_TYPE>  (1) 
2
5
10

$$$$
