30739
     RDKit          3D

 13 12  0  0  0  0  0  0  0  0999 V2000
   -3.4554    2.3381   -0.5573 Cl  0  0  0  0  0  0  0  0  0  0  0  0
    1.2393    0.3333   -0.0706 Si  0  0  0  0  0  4  0  0  0  0  0  0
   -1.3642   -1.0975    0.2253 N   0  0  0  0  0  0  0  0  0  0  0  0
   -0.1206   -0.4900    0.9213 C   0  0  0  0  0  0  0  0  0  0  0  0
    2.4473    1.0954    1.1797 C   0  0  0  0  0  0  0  0  0  0  0  0
    2.2147   -0.8367   -1.1522 C   0  0  0  0  0  0  0  0  0  0  0  0
   -2.1659   -0.0691   -0.5628 C   0  0  0  0  0  0  0  0  0  0  0  0
    0.5615    1.7420   -1.1138 C   0  0  0  0  0  0  0  0  0  0  0  0
   -0.9993   -2.2697   -0.6804 C   0  0  0  0  0  0  0  0  0  0  0  0
   -2.2764   -1.6453    1.3375 C   0  0  0  0  0  0  0  0  0  0  0  0
    3.6334    1.8390    0.5799 C   0  0  0  0  0  0  0  0  0  0  0  0
    2.8283   -2.0350   -0.4398 C   0  0  0  0  0  0  0  0  0  0  0  0
   -2.5426    1.0956    0.3333 C   0  0  0  0  0  0  0  0  0  0  0  0
  1 13  1  0
  2  4  1  0
  2  5  1  0
  2  6  1  0
  2  8  1  0
  3  4  1  0
  3  7  1  0
  3  9  1  0
  3 10  1  0
  5 11  1  0
  6 12  1  0
  7 13  1  0
M  CHG  1   3   1
M  END
>  <PUBCHEM_COMPOUND_CID>  (1) 
30739

>  <PUBCHEM_CONFORMER_RMSD>  (1) 
0.6

>  <PUBCHEM_CONFORMER_DIVERSEORDER>  (1) 
3
27
22
25
23
17
21
20
16
18
28
2
11
31
29
13
15
8
5
12
30
24
19
6
26
14
7
4
1
10
9

>  <PUBCHEM_MMFF94_PARTIAL_CHARGES>  (1) 
11
1 -0.29
10 0.5
13 0.29
2 0.32
3 -1.01
4 0.42
5 -0.08
6 -0.08
7 0.5
8 -0.08
9 0.5

>  <PUBCHEM_EFFECTIVE_ROTOR_COUNT>  (1) 
6

>  <PUBCHEM_PHARMACOPHORE_FEATURES>  (1) 
1
1 3 cation

>  <PUBCHEM_HEAVY_ATOM_COUNT>  (1) 
13

>  <PUBCHEM_ATOM_DEF_STEREO_COUNT>  (1) 
0

>  <PUBCHEM_ATOM_UDEF_STEREO_COUNT>  (1) 
0

>  <PUBCHEM_BOND_DEF_STEREO_COUNT>  (1) 
0

>  <PUBCHEM_BOND_UDEF_STEREO_COUNT>  (1) 
0

>  <PUBCHEM_ISOTOPIC_ATOM_COUNT>  (1) 
0

>  <PUBCHEM_COMPONENT_COUNT>  (1) 
1

>  <PUBCHEM_CACTVS_TAUTO_COUNT>  (1) 
1

>  <PUBCHEM_CONFORMER_ID>  (1) 
0000781300000003

>  <PUBCHEM_MMFF94_ENERGY>  (1) 
29.661

>  <PUBCHEM_FEATURE_SELFOVERLAP>  (1) 
5.074

>  <PUBCHEM_SHAPE_FINGERPRINT>  (1) 
10922523 26 18410301319157952331
11132069 177 18336839671127172433
12138202 97 18271515485448645601
12382932 28 18335414694729590216
12500047 106 18413385445321989516
12932764 1 18130240353261271254
13839132 238 18412256255222336768
14178342 30 18114461253280024594
14614273 12 17914615200841807011
14648413 74 18411703175245959104
15219456 202 18341614832545839872
15279308 100 18337395937230545301
15279308 16 18339077193783912720
16945 1 18195251250132821902
18186145 218 18130228138458703369
19049666 15 18410862040055047730
20233049 118 17974290923977592764
20511035 2 18411147917341731390
20653085 51 18271242721097894217
20715346 28 18411428327177010875
21028194 46 18337961078171181905
21069387 34 16486409850446345239
21501502 16 18342444955160971142
21524375 3 18118966884864502807
21947302 44 18202275866814314572
22802520 49 18338243677917647218
23402539 116 18122607616677111127
23526113 38 17913221861974668134
23557571 272 18193554695359945155
23559900 14 18265339400799622838
25 1 17978234863828501765
2748010 2 18410866451028710663
3060560 45 17982155735209688847
81228 2 18188214329055971355

>  <PUBCHEM_SHAPE_MULTIPOLES>  (1) 
282.64
5.54
2.75
1.27
0.2
0.17
0.1
-2.47
0.29
0.44
-0.29
-0.15
0.07
1.33

>  <PUBCHEM_SHAPE_SELFOVERLAP>  (1) 
487.594

>  <PUBCHEM_SHAPE_VOLUME>  (1) 
191.2

>  <PUBCHEM_COORDINATE_TYPE>  (1) 
2
5
10

$$$$
