30744
     RDKit          3D

 22 23  0  0  0  0  0  0  0  0999 V2000
   -0.6731    0.1156    0.4955 O   0  0  0  0  0  0  0  0  0  0  0  0
   -0.6027   -1.0307   -1.5336 O   0  0  0  0  0  0  0  0  0  0  0  0
   -6.8977   -0.6864    0.5137 O   0  0  0  0  0  0  0  0  0  0  0  0
   -6.7585    1.2206   -0.5648 O   0  0  0  0  0  0  0  0  0  0  0  0
    5.5664   -0.5164    0.1832 N   0  0  0  0  0  0  0  0  0  0  0  0
   -6.2224    0.2520    0.0260 N   0  0  0  0  0  0  0  0  0  0  0  0
    7.5535    0.6794    0.4598 N   0  0  0  0  0  0  0  0  0  0  0  0
    5.6357    1.8930    0.2208 N   0  0  0  0  0  0  0  0  0  0  0  0
    1.4143   -0.5249   -0.3668 C   0  0  0  0  0  0  0  0  0  0  0  0
   -2.0652    0.1500    0.3776 C   0  0  0  0  0  0  0  0  0  0  0  0
    2.2643   -0.5087   -1.4726 C   0  0  0  0  0  0  0  0  0  0  0  0
    1.9470   -0.5379    0.9224 C   0  0  0  0  0  0  0  0  0  0  0  0
    4.1799   -0.5187   -0.0002 C   0  0  0  0  0  0  0  0  0  0  0  0
    3.6470   -0.5057   -1.2893 C   0  0  0  0  0  0  0  0  0  0  0  0
    3.3298   -0.5348    1.1057 C   0  0  0  0  0  0  0  0  0  0  0  0
   -0.0273   -0.5283   -0.5579 C   0  0  0  0  0  0  0  0  0  0  0  0
   -2.7996   -0.8829    0.9165 C   0  0  0  0  0  0  0  0  0  0  0  0
   -2.6480    1.2151   -0.2721 C   0  0  0  0  0  0  0  0  0  0  0  0
   -4.8080    0.2168    0.1466 C   0  0  0  0  0  0  0  0  0  0  0  0
   -4.1890   -0.8490    0.7993 C   0  0  0  0  0  0  0  0  0  0  0  0
   -4.0376    1.2490   -0.3892 C   0  0  0  0  0  0  0  0  0  0  0  0
    6.1913    0.6330    0.2793 C   0  0  0  0  0  0  0  0  0  0  0  0
  1 10  1  0
  1 16  1  0
  2 16  2  0
  3  6  1  0
  4  6  2  0
  5 13  1  0
  5 22  2  3
  6 19  1  0
  7 22  1  0
  8 22  1  0
  9 11  2  0
  9 12  1  0
  9 16  1  0
 10 17  2  0
 10 18  1  0
 11 14  1  0
 12 15  2  0
 13 14  2  0
 13 15  1  0
 17 20  1  0
 18 21  2  0
 19 20  2  0
 19 21  1  0
M  CHG  2   3  -1   6   1
M  END
>  <PUBCHEM_COMPOUND_CID>  (1) 
30744

>  <PUBCHEM_CONFORMER_RMSD>  (1) 
0.8

>  <PUBCHEM_CONFORMER_DIVERSEORDER>  (1) 
1
27
12
24
23
4
28
16
20
21
25
2
6
17
29
8
22
19
5
18
14
3
30
26
9
11
15
13
7
10

>  <PUBCHEM_MMFF94_PARTIAL_CHARGES>  (1) 
34
1 -0.23
10 0.08
11 -0.15
12 -0.15
13 0.18
14 -0.15
15 -0.15
16 0.63
17 -0.15
18 -0.15
19 0.13
2 -0.57
20 -0.15
21 -0.15
22 0.55
23 0.15
24 0.15
25 0.15
26 0.15
27 0.15
28 0.15
29 0.15
3 -0.52
30 0.15
31 0.4
32 0.4
33 0.4
34 0.4
4 -0.52
5 -0.63
6 0.91
7 -0.85
8 -0.85
9 0.09

>  <PUBCHEM_EFFECTIVE_ROTOR_COUNT>  (1) 
5

>  <PUBCHEM_PHARMACOPHORE_FEATURES>  (1) 
9
1 2 acceptor
1 3 acceptor
1 3 anion
1 4 acceptor
1 7 donor
1 8 donor
4 5 7 8 22 cation
6 10 17 18 19 20 21 rings
6 9 11 12 13 14 15 rings

>  <PUBCHEM_HEAVY_ATOM_COUNT>  (1) 
22

>  <PUBCHEM_ATOM_DEF_STEREO_COUNT>  (1) 
0

>  <PUBCHEM_ATOM_UDEF_STEREO_COUNT>  (1) 
0

>  <PUBCHEM_BOND_DEF_STEREO_COUNT>  (1) 
0

>  <PUBCHEM_BOND_UDEF_STEREO_COUNT>  (1) 
0

>  <PUBCHEM_ISOTOPIC_ATOM_COUNT>  (1) 
0

>  <PUBCHEM_COMPONENT_COUNT>  (1) 
1

>  <PUBCHEM_CACTVS_TAUTO_COUNT>  (1) 
3

>  <PUBCHEM_CONFORMER_ID>  (1) 
0000781800000001

>  <PUBCHEM_MMFF94_ENERGY>  (1) 
81.4177

>  <PUBCHEM_FEATURE_SELFOVERLAP>  (1) 
45.806

>  <PUBCHEM_SHAPE_FINGERPRINT>  (1) 
10 15 18410290346381694056
10638233 991 16271927146685458136
106641 1 18410012173448804890
11089746 13 17167865274847332095
11315181 36 17240208746108620217
12236239 1 17022906740041815099
12516196 113 17894349977623844213
12596602 18 18259983751799067648
12616971 3 15430043192046381326
12730499 353 17203612575378241670
13288520 33 10879990264118247619
13403585 85 18113335302060518469
13533116 47 17749947757010418666
13668630 136 8935005888893631624
14123256 10 16200433572174135048
14251752 14 8502383221485837231
14251764 18 15864076481052838958
15183329 4 11527956655543366788
18006028 8 13695868129817497302
18335252 98 17489871570336895415
19489759 90 18040718052361527297
20511986 3 17458612415993455571
21033648 29 17845920845290537104
21150785 3 17489867159035833437
21267235 1 13767920197092085330
21641784 216 17203066122695255464
22079108 93 18113896087587526570
221357 26 14261351345371124394
22224240 67 16950280728688824330
23035841 295 11743840252712951156
23402539 116 18113336402104694951
23559900 14 18113898303595725897
23569943 247 13684923535588200772
26918003 58 14201404875749069401
28498 318 11314299551353832305
300161 21 17894346666272650299
34797466 226 18343309166921130884
4073 2 17313393365598716706
4325135 7 17632577158160891428
4340502 62 18333734602545136610
5104073 3 17749955436243041481
542803 24 16988844964486591219
559249 180 14851892482429485137
59755656 520 18341323457432882678
67856867 119 17459198523999112965

>  <PUBCHEM_SHAPE_MULTIPOLES>  (1) 
409.35
18.41
1.21
1.12
0.3
0.35
-0.37
4.67
3.31
-0.3
0.14
0.79
-0.19
0.78

>  <PUBCHEM_SHAPE_SELFOVERLAP>  (1) 
884.147

>  <PUBCHEM_SHAPE_VOLUME>  (1) 
221.9

>  <PUBCHEM_COORDINATE_TYPE>  (1) 
2
5
10

$$$$
