30746
     RDKit          3D

 13 13  0  0  1  0  0  0  0  0999 V2000
    4.4952    1.9088   -0.3901 Cl  0  0  0  0  0  0  0  0  0  0  0  0
    1.2708   -0.4730    0.0281 N   0  0  0  0  0  0  0  0  0  0  0  0
   -1.0970    0.0273    0.4480 C   0  0  0  0  0  0  0  0  0  0  0  0
   -2.0645    1.0470    1.0641 C   0  0  0  0  0  0  0  0  0  0  0  0
   -1.4111   -0.1956   -1.0374 C   0  0  0  0  0  0  0  0  0  0  0  0
   -3.5214    0.6444    0.8466 C   0  0  0  0  0  0  0  0  0  0  0  0
   -2.8690   -0.5960   -1.2514 C   0  0  0  0  0  0  0  0  0  0  0  0
    0.3508    0.4785    0.6315 C   0  0  0  0  0  0  0  0  0  0  0  0
   -3.8276    0.4152   -0.6302 C   0  0  0  0  0  0  0  0  0  0  0  0
    2.6546   -0.0080    0.1538 C   0  0  0  0  0  0  0  0  0  0  0  0
    1.1252   -1.7958    0.6409 C   0  0  0  0  0  0  0  0  0  0  0  0
    2.8119    1.3455   -0.5215 C   0  0  0  0  0  0  0  0  0  0  0  0
    2.0820   -2.7980    0.0176 C   0  0  0  0  0  0  0  0  0  0  0  0
  1 12  1  0
  2  8  1  0
  2 10  1  0
  2 11  1  0
  3  4  1  0
  3  5  1  0
  3  8  1  0
  4  6  1  0
  5  7  1  0
  6  9  1  0
  7  9  1  0
 10 12  1  0
 11 13  1  0
M  END
>  <PUBCHEM_COMPOUND_CID>  (1) 
30746

>  <PUBCHEM_CONFORMER_RMSD>  (1) 
0.6

>  <PUBCHEM_CONFORMER_DIVERSEORDER>  (1) 
1
43
14
41
21
13
36
23
47
34
18
45
46
48
16
39
27
30
29
50
11
17
25
24
38
42
20
52
37
35
31
40
32
28
44
33
49
51
19
3
5
15
22
10
9
7
4
26
6
12
8
2

>  <PUBCHEM_MMFF94_PARTIAL_CHARGES>  (1) 
6
1 -0.29
10 0.27
11 0.27
12 0.29
2 -0.81
8 0.27

>  <PUBCHEM_EFFECTIVE_ROTOR_COUNT>  (1) 
6.2

>  <PUBCHEM_PHARMACOPHORE_FEATURES>  (1) 
2
1 2 cation
6 3 4 5 6 7 9 rings

>  <PUBCHEM_HEAVY_ATOM_COUNT>  (1) 
13

>  <PUBCHEM_ATOM_DEF_STEREO_COUNT>  (1) 
0

>  <PUBCHEM_ATOM_UDEF_STEREO_COUNT>  (1) 
0

>  <PUBCHEM_BOND_DEF_STEREO_COUNT>  (1) 
0

>  <PUBCHEM_BOND_UDEF_STEREO_COUNT>  (1) 
0

>  <PUBCHEM_ISOTOPIC_ATOM_COUNT>  (1) 
0

>  <PUBCHEM_COMPONENT_COUNT>  (1) 
1

>  <PUBCHEM_CACTVS_TAUTO_COUNT>  (1) 
1

>  <PUBCHEM_CONFORMER_ID>  (1) 
0000781A00000001

>  <PUBCHEM_MMFF94_ENERGY>  (1) 
14.2021

>  <PUBCHEM_FEATURE_SELFOVERLAP>  (1) 
10.148

>  <PUBCHEM_SHAPE_FINGERPRINT>  (1) 
10465860 71 16773801428054256232
11031198 65 18335707143247086548
12119455 92 17894904179029628764
12932764 1 17846772988651160273
13296909 8 13262664980647705623
13760787 19 18272649065331831791
14144814 61 17560794399523138163
15219456 202 17458061551576669648
15279307 12 18272366468889096167
15279308 16 17240473702451369093
15342168 16 18042700553114827508
15375462 175 16702300144198041583
15669948 3 17489579061477885463
15775835 57 18343587351705200156
1813 80 17838904737646730342
18186145 218 18409455812439582356
18342897 55 18335701680238590140
19422 9 18201436926847595899
19786989 88 18114178640041878626
201361 129 18341057323999536520
20279233 1 16805323271471621099
204376 136 18188494695809858516
20645464 45 16660081118331933689
20645476 183 18201715184977938631
20645477 70 18264198132961529991
20671657 53 17975973168278921410
20871999 31 16773521061273988437
21499 59 18335985371560889332
21524375 3 18189332528059974320
2255824 54 18338798888667672338
228727 97 17988647410341481352
232386 152 17130687414751863483
23402539 116 18201440324515146636
23463225 33 17915736475290547935
23532345 1 18334293145698088109
23532345 88 18266455408536354782
23552423 10 18269832021625193799
23557571 272 16660940914844341099
23598291 2 18058172730268751414
25 1 18408324410479173312
3248919 1 18336257964466104403
449060 50 18260555528210884233
474 4 18336550511932138612
53748568 43 18202566185054594445
57096353 35 18130776893502864333
603831 33 18131343116158041981
6049 1 17386575622244531439
633830 44 18342190976660101660
7364860 26 18340489954888842346
77492 1 18131065992046466619
8030462 33 18131343107657732627
81539 233 18113901567876144770
88987 49 16773221899674349499

>  <PUBCHEM_SHAPE_MULTIPOLES>  (1) 
264.42
7.36
2.12
1.11
1.26
1.47
0.09
-3.9
1.28
2.81
-0.09
-0.82
-0.07
-0.94

>  <PUBCHEM_SHAPE_SELFOVERLAP>  (1) 
495.082

>  <PUBCHEM_SHAPE_VOLUME>  (1) 
165.2

>  <PUBCHEM_COORDINATE_TYPE>  (1) 
2
5
10

$$$$
