30755
     RDKit          3D

 13 14  0  0  1  0  0  0  0  0999 V2000
    1.8220   -0.5094   -0.2391 C   0  0  0  0  0  0  0  0  0  0  0  0
    2.4360    0.8355   -0.6615 C   0  0  0  0  0  0  0  0  0  0  0  0
    0.3093   -0.4420   -0.1355 C   0  0  0  0  0  0  0  0  0  0  0  0
    1.8574    1.9938    0.1421 C   0  0  0  0  0  0  0  0  0  0  0  0
   -0.3707    0.7864   -0.0267 C   0  0  0  0  0  0  0  0  0  0  0  0
    0.3539    2.1075   -0.0914 C   0  0  0  0  0  0  0  0  0  0  0  0
   -0.4312   -1.6366   -0.1256 C   0  0  0  0  0  0  0  0  0  0  0  0
    2.4286   -1.0061    1.0795 C   0  0  0  0  0  0  0  0  0  0  0  0
   -1.7710    0.7929    0.0786 C   0  0  0  0  0  0  0  0  0  0  0  0
   -1.8208   -1.6159   -0.0114 C   0  0  0  0  0  0  0  0  0  0  0  0
   -2.4906   -0.4012    0.0915 C   0  0  0  0  0  0  0  0  0  0  0  0
    0.2212   -2.9762   -0.2666 C   0  0  0  0  0  0  0  0  0  0  0  0
   -2.5440    2.0711    0.1663 C   0  0  0  0  0  0  0  0  0  0  0  0
  1  2  1  0
  1  3  1  0
  1  8  1  0
  2  4  1  0
  3  5  2  0
  3  7  1  0
  4  6  1  0
  5  6  1  0
  5  9  1  0
  7 10  2  0
  7 12  1  0
  9 11  2  0
  9 13  1  0
 10 11  1  0
M  END
>  <PUBCHEM_COMPOUND_CID>  (1) 
30755

>  <PUBCHEM_CONFORMER_RMSD>  (1) 
0.4

>  <PUBCHEM_CONFORMER_DIVERSEORDER>  (1) 
1
2

>  <PUBCHEM_MMFF94_PARTIAL_CHARGES>  (1) 
12
1 0.14
10 -0.15
11 -0.15
12 0.14
13 0.14
24 0.15
25 0.15
3 -0.14
5 -0.14
6 0.14
7 -0.14
9 -0.14

>  <PUBCHEM_EFFECTIVE_ROTOR_COUNT>  (1) 
0.8

>  <PUBCHEM_PHARMACOPHORE_FEATURES>  (1) 
2
6 1 2 3 4 5 6 rings
6 3 5 7 9 10 11 rings

>  <PUBCHEM_HEAVY_ATOM_COUNT>  (1) 
13

>  <PUBCHEM_ATOM_DEF_STEREO_COUNT>  (1) 
0

>  <PUBCHEM_ATOM_UDEF_STEREO_COUNT>  (1) 
1

>  <PUBCHEM_BOND_DEF_STEREO_COUNT>  (1) 
0

>  <PUBCHEM_BOND_UDEF_STEREO_COUNT>  (1) 
0

>  <PUBCHEM_ISOTOPIC_ATOM_COUNT>  (1) 
0

>  <PUBCHEM_COMPONENT_COUNT>  (1) 
1

>  <PUBCHEM_CACTVS_TAUTO_COUNT>  (1) 
1

>  <PUBCHEM_CONFORMER_ID>  (1) 
0000782300000001

>  <PUBCHEM_MMFF94_ENERGY>  (1) 
34.5475

>  <PUBCHEM_FEATURE_SELFOVERLAP>  (1) 
10.17

>  <PUBCHEM_SHAPE_FINGERPRINT>  (1) 
10967382 1 17978513031363915829
12382932 28 18194677055923299923
12423570 1 10437332414340059988
12524768 44 18054236701979892206
13140716 1 18410575041724235232
13172582 1 18265329508513513272
13380535 76 18265329517535905871
14251711 518 18049437338251823098
15775835 57 18333741216493773772
16945 1 18122627420533728076
193761 8 18338797947694657965
20588541 1 18050007692506978829
21501502 16 18409166618995248845
2334 1 18410293644056909517
23419403 2 15170694860405341602
23463225 33 18262798445699898482
23552423 10 17901947774533019908
23559900 14 18200043833484533670
241688 4 16825032837326763898
2748010 2 18410295817310250997
2897 32 18264489666271255532
353137 74 18121498226360680093
5084963 1 17989213658856211403
528886 8 18339360747324412392
66348 1 18337955704634299165

>  <PUBCHEM_SHAPE_MULTIPOLES>  (1) 
267.53
3.56
2.96
0.76
0.18
0.66
0.07
-0.93
0.3
0.23
-0.1
-0.3
0.07
-0.32

>  <PUBCHEM_SHAPE_SELFOVERLAP>  (1) 
563.537

>  <PUBCHEM_SHAPE_VOLUME>  (1) 
147.2

>  <PUBCHEM_COORDINATE_TYPE>  (1) 
2
5
10

$$$$
