30753
     RDKit          3D

 12 11  0  0  0  0  0  0  0  0999 V2000
   -2.3934   -1.0769    0.0272 S   0  0  0  0  0  0  0  0  0  0  0  0
   -4.0211    0.2415   -0.0063 S   0  0  0  0  0  0  0  0  0  0  0  0
   -5.3267   -0.7343    0.0126 O   0  0  0  0  0  0  0  0  0  0  0  0
   -4.0021    0.9858    1.2384 O   0  0  0  0  0  0  0  0  0  0  0  0
   -3.9960    0.9287   -1.2832 O   0  0  0  0  0  0  0  0  0  0  0  0
    6.5266    0.5922    0.0198 N   0  0  0  0  0  0  0  0  0  0  0  0
    1.5373    0.2218    0.0037 C   0  0  0  0  0  0  0  0  0  0  0  0
    2.8567   -0.5533   -0.0123 C   0  0  0  0  0  0  0  0  0  0  0  0
    0.3345   -0.7255    0.0259 C   0  0  0  0  0  0  0  0  0  0  0  0
    4.0580    0.3971   -0.0003 C   0  0  0  0  0  0  0  0  0  0  0  0
   -0.9754    0.0563    0.0052 C   0  0  0  0  0  0  0  0  0  0  0  0
    5.4016   -0.3335   -0.0308 C   0  0  0  0  0  0  0  0  0  0  0  0
  1  2  1  0
  1 11  1  0
  2  3  1  0
  2  4  2  0
  2  5  2  0
  6 12  1  0
  7  8  1  0
  7  9  1  0
  8 10  1  0
  9 11  1  0
 10 12  1  0
M  END
>  <PUBCHEM_COMPOUND_CID>  (1) 
30753

>  <PUBCHEM_CONFORMER_RMSD>  (1) 
0.8

>  <PUBCHEM_CONFORMER_DIVERSEORDER>  (1) 
1
46
62
9
49
54
16
61
51
6
32
41
4
48
73
67
15
53
75
7
58
25
24
55
37
19
2
27
22
18
47
60
11
64
57
63
71
13
5
52
17
12
21
8
56
50
65
23
70
42
29
30
28
14
38
10
33
76
3
77
31
40
43
78
35
34
68
69
20
44
72
36
66
26
45
74
59
39

>  <PUBCHEM_MMFF94_PARTIAL_CHARGES>  (1) 
11
1 -0.35
11 0.23
12 0.27
2 1.6
25 0.36
26 0.36
27 0.5
3 -0.68
4 -0.65
5 -0.65
6 -0.99

>  <PUBCHEM_EFFECTIVE_ROTOR_COUNT>  (1) 
7

>  <PUBCHEM_PHARMACOPHORE_FEATURES>  (1) 
7
1 3 acceptor
1 4 acceptor
1 5 acceptor
1 6 cation
1 6 donor
4 2 3 4 5 anion
5 7 8 9 10 11 hydrophobe

>  <PUBCHEM_HEAVY_ATOM_COUNT>  (1) 
12

>  <PUBCHEM_ATOM_DEF_STEREO_COUNT>  (1) 
0

>  <PUBCHEM_ATOM_UDEF_STEREO_COUNT>  (1) 
0

>  <PUBCHEM_BOND_DEF_STEREO_COUNT>  (1) 
0

>  <PUBCHEM_BOND_UDEF_STEREO_COUNT>  (1) 
0

>  <PUBCHEM_ISOTOPIC_ATOM_COUNT>  (1) 
0

>  <PUBCHEM_COMPONENT_COUNT>  (1) 
1

>  <PUBCHEM_CACTVS_TAUTO_COUNT>  (1) 
1

>  <PUBCHEM_CONFORMER_ID>  (1) 
0000782100000001

>  <PUBCHEM_MMFF94_ENERGY>  (1) 
-1.6292

>  <PUBCHEM_FEATURE_SELFOVERLAP>  (1) 
35.578

>  <PUBCHEM_SHAPE_FINGERPRINT>  (1) 
12091667 2 17458344143529739754
14123238 8 16081087078142098878
14251718 22 18412825806450808195
15501527 16 18333731338495929558
17834072 33 18272930561466867646
17834076 25 18273496780001203362
187816 3 15554450708236759310
20281389 69 18187079564289345148
20621476 66 17488757683311057625
20645477 56 18186516609513312630
20645477 70 18059581230956710246
20767249 213 18410293626866243942
20828058 44 13839988815292989457
23402539 116 16774076258805990248
23402655 69 16702025218914432481
42788 4 18413389843600414266

>  <PUBCHEM_SHAPE_MULTIPOLES>  (1) 
232.06
14.66
1
0.8
11.15
0.06
0.01
-2.16
0.03
-0.64
-0.01
-0.81
-0.19
0.02

>  <PUBCHEM_SHAPE_SELFOVERLAP>  (1) 
397.929

>  <PUBCHEM_SHAPE_VOLUME>  (1) 
155.6

>  <PUBCHEM_COORDINATE_TYPE>  (1) 
2
5
10

$$$$
