30750
     RDKit          3D

 11 11  0  0  0  0  0  0  0  0999 V2000
    2.7447    0.8153   -0.0003 O   0  0  0  0  0  0  0  0  0  0  0  0
    2.6167   -1.3763    0.0005 O   0  0  0  0  0  0  0  0  0  0  0  0
   -1.4237    0.4657    0.0001 N   0  0  0  0  0  0  0  0  0  0  0  0
   -0.0927   -1.3122   -0.0005 N   0  0  0  0  0  0  0  0  0  0  0  0
    0.1142    2.2771    0.0000 N   0  0  0  0  0  0  0  0  0  0  0  0
    2.0553   -0.2440    0.0000 N   0  0  0  0  0  0  0  0  0  0  0  0
   -1.3407   -0.8990    0.0000 C   0  0  0  0  0  0  0  0  0  0  0  0
   -0.1474    0.9537    0.0000 C   0  0  0  0  0  0  0  0  0  0  0  0
    0.6562   -0.1621    0.0001 C   0  0  0  0  0  0  0  0  0  0  0  0
   -2.6428    1.2437    0.0002 C   0  0  0  0  0  0  0  0  0  0  0  0
   -2.5399   -1.7619    0.0000 C   0  0  0  0  0  0  0  0  0  0  0  0
  1  6  1  0
  2  6  2  0
  3  7  1  0
  3  8  1  0
  3 10  1  0
  4  7  2  0
  4  9  1  0
  5  8  1  0
  6  9  1  0
  7 11  1  0
  8  9  2  0
M  CHG  2   1  -1   6   1
M  END
>  <PUBCHEM_COMPOUND_CID>  (1) 
30750

>  <PUBCHEM_CONFORMER_RMSD>  (1) 
0.4

>  <PUBCHEM_CONFORMER_DIVERSEORDER>  (1) 
1

>  <PUBCHEM_MMFF94_PARTIAL_CHARGES>  (1) 
13
1 -0.52
10 0.26
11 0.18
18 0.4
19 0.4
2 -0.52
3 0.05
4 -0.57
5 -0.88
6 0.96
7 0.01
8 -0.07
9 0.31

>  <PUBCHEM_EFFECTIVE_ROTOR_COUNT>  (1) 
1

>  <PUBCHEM_PHARMACOPHORE_FEATURES>  (1) 
7
1 1 acceptor
1 1 anion
1 2 acceptor
1 5 cation
1 5 donor
3 3 4 7 cation
5 3 4 7 8 9 rings

>  <PUBCHEM_HEAVY_ATOM_COUNT>  (1) 
11

>  <PUBCHEM_ATOM_DEF_STEREO_COUNT>  (1) 
0

>  <PUBCHEM_ATOM_UDEF_STEREO_COUNT>  (1) 
0

>  <PUBCHEM_BOND_DEF_STEREO_COUNT>  (1) 
0

>  <PUBCHEM_BOND_UDEF_STEREO_COUNT>  (1) 
0

>  <PUBCHEM_ISOTOPIC_ATOM_COUNT>  (1) 
0

>  <PUBCHEM_COMPONENT_COUNT>  (1) 
1

>  <PUBCHEM_CACTVS_TAUTO_COUNT>  (1) 
1

>  <PUBCHEM_CONFORMER_ID>  (1) 
0000781E00000001

>  <PUBCHEM_MMFF94_ENERGY>  (1) 
17.3916

>  <PUBCHEM_FEATURE_SELFOVERLAP>  (1) 
35.603

>  <PUBCHEM_SHAPE_FINGERPRINT>  (1) 
10857977 72 18340194306076781098
11206711 2 18337106886269070007
12423570 1 12243964043410010243
12524768 44 18341900632143187038
14128692 85 18126288777137643583
14325111 11 18410573963708308641
161256 15 18050848011738565101
16945 1 18194682553518446118
193761 8 18194683889575294885
20871998 184 18273496784032673791
21040471 1 18266740173495002373
23552423 10 18260269642118293582
241688 4 18409444795447541593
2748010 2 18412263938850049790
29004967 10 18337674246964194794
369184 2 18409446968611231322
5084963 1 18057890327843011475

>  <PUBCHEM_SHAPE_MULTIPOLES>  (1) 
194.71
3.78
2.01
0.56
0.93
0.36
0
-0.73
0
-0.61
0
-0.06
0
0

>  <PUBCHEM_SHAPE_SELFOVERLAP>  (1) 
403.708

>  <PUBCHEM_SHAPE_VOLUME>  (1) 
112.8

>  <PUBCHEM_COORDINATE_TYPE>  (1) 
2
5
10

$$$$
