30767
     RDKit          3D

 12 13  0  0  0  0  0  0  0  0999 V2000
   -2.4845   -1.8103    0.6870 O   0  0  0  0  0  0  0  0  0  0  0  0
   -2.1129   -1.3068   -0.3808 N   0  0  0  0  0  0  0  0  0  0  0  0
    0.0816   -0.2800   -0.1153 C   0  0  0  0  0  0  0  0  0  0  0  0
    0.8382    0.9038    0.0539 C   0  0  0  0  0  0  0  0  0  0  0  0
   -1.3165   -0.1934   -0.2148 C   0  0  0  0  0  0  0  0  0  0  0  0
    0.1740    2.1396    0.1183 C   0  0  0  0  0  0  0  0  0  0  0  0
    0.7453   -1.5160   -0.1799 C   0  0  0  0  0  0  0  0  0  0  0  0
    2.2363    0.8169    0.1536 C   0  0  0  0  0  0  0  0  0  0  0  0
   -1.9599    1.0427   -0.1484 C   0  0  0  0  0  0  0  0  0  0  0  0
   -1.2159    2.2070    0.0176 C   0  0  0  0  0  0  0  0  0  0  0  0
    2.1351   -1.5838   -0.0788 C   0  0  0  0  0  0  0  0  0  0  0  0
    2.8792   -0.4197    0.0877 C   0  0  0  0  0  0  0  0  0  0  0  0
  1  2  2  0
  2  5  1  0
  3  4  1  0
  3  5  2  0
  3  7  1  0
  4  6  2  0
  4  8  1  0
  5  9  1  0
  6 10  1  0
  7 11  2  0
  8 12  2  0
  9 10  2  0
 11 12  1  0
M  END
>  <PUBCHEM_COMPOUND_CID>  (1) 
30767

>  <PUBCHEM_CONFORMER_RMSD>  (1) 
0.4

>  <PUBCHEM_CONFORMER_DIVERSEORDER>  (1) 
1
2

>  <PUBCHEM_MMFF94_PARTIAL_CHARGES>  (1) 
17
1 -0.16
10 -0.15
11 -0.15
12 -0.15
13 0.15
14 0.15
15 0.15
16 0.15
17 0.15
18 0.15
19 0.15
2 -0.14
5 0.3
6 -0.15
7 -0.15
8 -0.15
9 -0.15

>  <PUBCHEM_EFFECTIVE_ROTOR_COUNT>  (1) 
1

>  <PUBCHEM_PHARMACOPHORE_FEATURES>  (1) 
2
6 3 4 5 6 9 10 rings
6 3 4 7 8 11 12 rings

>  <PUBCHEM_HEAVY_ATOM_COUNT>  (1) 
12

>  <PUBCHEM_ATOM_DEF_STEREO_COUNT>  (1) 
0

>  <PUBCHEM_ATOM_UDEF_STEREO_COUNT>  (1) 
0

>  <PUBCHEM_BOND_DEF_STEREO_COUNT>  (1) 
0

>  <PUBCHEM_BOND_UDEF_STEREO_COUNT>  (1) 
0

>  <PUBCHEM_ISOTOPIC_ATOM_COUNT>  (1) 
0

>  <PUBCHEM_COMPONENT_COUNT>  (1) 
1

>  <PUBCHEM_CACTVS_TAUTO_COUNT>  (1) 
1

>  <PUBCHEM_CONFORMER_ID>  (1) 
0000782F00000001

>  <PUBCHEM_MMFF94_ENERGY>  (1) 
37.9935

>  <PUBCHEM_FEATURE_SELFOVERLAP>  (1) 
10.175

>  <PUBCHEM_SHAPE_FINGERPRINT>  (1) 
10967382 1 18051129194372617580
12524768 44 18127129667183071054
13380535 21 18197512739656412452
13380535 76 18052810356257246078
16945 1 18194682570893585092
193761 8 18411136952343277117
19973954 147 18411418367432590564
20588541 1 18269274556186598093
20645476 183 17538875497457572286
20645477 70 17688016936017057495
20871998 184 18201436939347298343
21040471 1 17979354153596228380
21501502 16 18339078190247824268
22802520 49 17985842431957471030
2334 1 18411416254224349836
23552423 10 18333734593886058596
23559900 14 17767406774101292614
241688 4 18410291410668608672
2748010 2 18412819209591940852
528886 8 18340478963729759408
66348 1 18340200795793444628
8809292 202 18264492788902728090

>  <PUBCHEM_SHAPE_MULTIPOLES>  (1) 
236.1
3.58
2.38
0.65
1.04
0.13
0.01
-0.84
0.13
-1.02
0.17
-0.06
-0.06
0.22

>  <PUBCHEM_SHAPE_SELFOVERLAP>  (1) 
521.008

>  <PUBCHEM_SHAPE_VOLUME>  (1) 
127.7

>  <PUBCHEM_COORDINATE_TYPE>  (1) 
2
5
10

$$$$
