30762
     RDKit          3D

 23 24  0  0  0  0  0  0  0  0999 V2000
    0.3259    1.2467   -0.6261 O   0  0  0  0  0  0  0  0  0  0  0  0
    4.1563   -0.4792    1.0326 O   0  0  0  0  0  0  0  0  0  0  0  0
   -0.1140   -1.3882   -0.5294 O   0  0  0  0  0  0  0  0  0  0  0  0
    2.1499    1.8979   -1.8529 O   0  0  0  0  0  0  0  0  0  0  0  0
   -3.2933   -2.7943   -0.8867 O   0  0  0  0  0  0  0  0  0  0  0  0
   -2.0873   -1.5403   -2.2324 O   0  0  0  0  0  0  0  0  0  0  0  0
   -3.4375    2.2374    0.9963 N   0  0  0  0  0  0  0  0  0  0  0  0
    3.0920   -1.3484    1.2390 N   0  0  0  0  0  0  0  0  0  0  0  0
   -2.2328   -2.1483   -1.1318 N   0  0  0  0  0  0  0  0  0  0  0  0
   -1.9378    1.9714   -0.9210 C   0  0  0  0  0  0  0  0  0  0  0  0
   -2.0589    2.3788    0.5439 C   0  0  0  0  0  0  0  0  0  0  0  0
   -0.5028    2.0877   -1.4166 C   0  0  0  0  0  0  0  0  0  0  0  0
    2.4563    0.3467   -0.0898 C   0  0  0  0  0  0  0  0  0  0  0  0
    2.0771   -0.8224    0.5474 C   0  0  0  0  0  0  0  0  0  0  0  0
   -3.5551    2.5944    2.4113 C   0  0  0  0  0  0  0  0  0  0  0  0
   -3.9150    0.8711    0.7763 C   0  0  0  0  0  0  0  0  0  0  0  0
    1.6622    1.2338   -0.9440 C   0  0  0  0  0  0  0  0  0  0  0  0
    3.7547    0.5381    0.2284 C   0  0  0  0  0  0  0  0  0  0  0  0
    0.7511   -1.4661    0.5159 C   0  0  0  0  0  0  0  0  0  0  0  0
    0.2155   -2.2253    1.5304 C   0  0  0  0  0  0  0  0  0  0  0  0
    4.7674    1.5535   -0.0918 C   0  0  0  0  0  0  0  0  0  0  0  0
   -1.0602   -2.6401    1.0795 C   0  0  0  0  0  0  0  0  0  0  0  0
   -1.2136   -2.1051   -0.1785 C   0  0  0  0  0  0  0  0  0  0  0  0
  1 12  1  0
  1 17  1  0
  2  8  1  0
  2 18  1  0
  3 19  1  0
  3 23  1  0
  4 17  2  0
  5  9  1  0
  6  9  2  0
  7 11  1  0
  7 15  1  0
  7 16  1  0
  8 14  2  0
  9 23  1  0
 10 11  1  0
 10 12  1  0
 13 14  1  0
 13 17  1  0
 13 18  2  0
 14 19  1  0
 18 21  1  0
 19 20  2  0
 20 22  1  0
 22 23  2  0
M  CHG  2   5  -1   9   1
M  END
>  <PUBCHEM_COMPOUND_CID>  (1) 
30762

>  <PUBCHEM_CONFORMER_RMSD>  (1) 
0.8

>  <PUBCHEM_CONFORMER_DIVERSEORDER>  (1) 
1
47
112
154
290
88
302
106
61
330
248
239
278
110
21
230
247
18
140
207
214
341
175
241
12
325
256
322
99
37
194
44
218
46
45
263
157
145
10
63
183
246
266
163
155
317
5
26
227
102
186
267
58
335
282
67
222
38
185
279
39
321
120
172
90
75
131
187
15
337
226
115
170
252
139
168
220
3
74
35
144
199
156
275
164
338
234
250
92
2
342
109
285
219
7
64
95
178
143
208
17
132
179
280
42
251
4
41
193
85
130
24
190
200
34
171
176
77
166
258
308
161
29
277
345
82
113
346
268
9
329
228
289
53
98
191
240
229
264
195
25
152
124
237
180
141
274
13
81
273
8
177
304
323
129
50
49
326
111
204
276
86
65
96
51
309
138
318
198
270
56
27
20
316
89
108
70
30
303
324
62
136
122
167
60
147
162
43
287
334
104
97
211
203
59
40
32
202
272
148
123
127
103
87
57
192
313
260
100
153
150
54
213
232
244
101
23
52
209
283
66
159
173
225
107
76
142
231
347
328
72
117
22
105
332
261
91
344
314
19
215
80
135
121
236
33
181
182
294
116
174
14
224
151
235
126
295
336
184
16
253
134
83
284
73
320
118
36
114
291
6
160
149
242
319
271
146
201
249
292
297
31
311
55
79
233
217
216
48
223
165
259
265
11
238
128
78
28
306
262
169
301
93
300
158
296
305
340
125
293
333
245
210
286
119
212
331
281
133
343
71
288
298
68
205
312
254
94
221
327
188
196
189
257
307
255
269
84
339
299
197
315
243
137
310
69
206

>  <PUBCHEM_MMFF94_PARTIAL_CHARGES>  (1) 
24
1 -0.43
11 0.27
12 0.28
13 -0.09
14 0.29
15 0.27
16 0.27
17 0.81
18 -0.04
19 0.14
2 -0.02
20 -0.15
21 0.18
22 -0.15
23 0.22
3 -0.28
36 0.15
4 -0.57
40 0.15
5 -0.52
6 -0.52
7 -0.81
8 -0.41
9 0.96

>  <PUBCHEM_EFFECTIVE_ROTOR_COUNT>  (1) 
8

>  <PUBCHEM_PHARMACOPHORE_FEATURES>  (1) 
9
1 3 acceptor
1 4 acceptor
1 5 acceptor
1 5 anion
1 6 acceptor
1 7 cation
1 8 acceptor
5 2 8 13 14 18 rings
5 3 19 20 22 23 rings

>  <PUBCHEM_HEAVY_ATOM_COUNT>  (1) 
23

>  <PUBCHEM_ATOM_DEF_STEREO_COUNT>  (1) 
0

>  <PUBCHEM_ATOM_UDEF_STEREO_COUNT>  (1) 
0

>  <PUBCHEM_BOND_DEF_STEREO_COUNT>  (1) 
0

>  <PUBCHEM_BOND_UDEF_STEREO_COUNT>  (1) 
0

>  <PUBCHEM_ISOTOPIC_ATOM_COUNT>  (1) 
0

>  <PUBCHEM_COMPONENT_COUNT>  (1) 
1

>  <PUBCHEM_CACTVS_TAUTO_COUNT>  (1) 
1

>  <PUBCHEM_CONFORMER_ID>  (1) 
0000782A00000001

>  <PUBCHEM_MMFF94_ENERGY>  (1) 
34.1006

>  <PUBCHEM_FEATURE_SELFOVERLAP>  (1) 
45.764

>  <PUBCHEM_SHAPE_FINGERPRINT>  (1) 
10064457 181 18199468762015324192
104564 63 18339086019888808950
11578080 2 17201953438059351388
12035758 1 17908702835395034698
12400797 245 17533792506799999817
12788726 201 18053402151712239221
13583140 156 15068887694935795660
14251757 17 11958572649099065529
14464042 87 18339637962316051207
15475509 84 17174928705006303251
17138139 8 17840545368188282845
19591789 44 17326597113011253594
20261772 1 18261678082027044936
20775438 99 16036296607843523750
21041028 32 17830188152451970106
21236236 1 18337105778727020596
23419403 2 17693331888592742293
25147074 1 18260261967734136456
2748010 2 16533384080094339838
2803657 2 18187920745965092524
427121 178 18128831737032040321
469060 322 17458337576630174663
6287921 2 17767982939156340979
6438718 38 18272090521403056399
7064713 232 18269274569361910617
7471813 234 17838603806087893031
81228 2 18262227936820235992

>  <PUBCHEM_SHAPE_MULTIPOLES>  (1) 
423.17
7.2
3.79
1.8
2.83
1.03
0.03
-3.87
-2.5
-3.13
-0.04
-1.36
-0.25
-2.63

>  <PUBCHEM_SHAPE_SELFOVERLAP>  (1) 
888.477

>  <PUBCHEM_SHAPE_VOLUME>  (1) 
240.7

>  <PUBCHEM_COORDINATE_TYPE>  (1) 
2
5
10

$$$$
