30781
     RDKit          3D

 26 28  0  0  1  0  0  0  0  0999 V2000
    1.2922    2.1994    0.9528 I   0  0  0  0  0  0  0  0  0  0  0  0
    3.8535   -3.1426   -0.6213 I   0  0  0  0  0  0  0  0  0  0  0  0
   -2.0197   -2.8721    0.3850 I   0  0  0  0  0  0  0  0  0  0  0  0
    3.7195    0.7953   -2.1425 O   0  0  0  0  0  0  0  0  0  0  0  0
   -1.2002    0.2051    0.9203 O   0  0  0  0  0  0  0  0  0  0  0  0
   -1.9574    2.9635   -1.1741 O   0  0  0  0  0  0  0  0  0  0  0  0
   -1.9169    2.9068    1.0909 O   0  0  0  0  0  0  0  0  0  0  0  0
    3.5833    0.0428    0.1189 N   0  0  0  0  0  0  0  0  0  0  0  0
    4.5002    0.0564    1.2423 C   0  0  0  0  0  0  0  0  0  0  0  0
    5.4895    1.1493    0.8952 C   0  0  0  0  0  0  0  0  0  0  0  0
    5.5504    1.1006   -0.6184 C   0  0  0  0  0  0  0  0  0  0  0  0
    4.1588    0.6578   -1.0101 C   0  0  0  0  0  0  0  0  0  0  0  0
    2.3103   -0.5976    0.1827 C   0  0  0  0  0  0  0  0  0  0  0  0
    1.1612    0.1276    0.5253 C   0  0  0  0  0  0  0  0  0  0  0  0
    2.1947   -1.9657   -0.0969 C   0  0  0  0  0  0  0  0  0  0  0  0
   -0.0810   -0.5042    0.5873 C   0  0  0  0  0  0  0  0  0  0  0  0
    0.9528   -2.5974   -0.0349 C   0  0  0  0  0  0  0  0  0  0  0  0
   -1.9237    0.8066   -0.1491 C   0  0  0  0  0  0  0  0  0  0  0  0
   -0.1851   -1.8667    0.3072 C   0  0  0  0  0  0  0  0  0  0  0  0
   -3.3208    0.2290   -0.1916 C   0  0  0  0  0  0  0  0  0  0  0  0
   -3.9270   -0.1629    0.9900 C   0  0  0  0  0  0  0  0  0  0  0  0
   -3.9648    0.1046   -1.4109 C   0  0  0  0  0  0  0  0  0  0  0  0
   -1.9217    2.3151    0.0193 C   0  0  0  0  0  0  0  0  0  0  0  0
   -5.2156   -0.6953    0.9511 C   0  0  0  0  0  0  0  0  0  0  0  0
   -5.2536   -0.4277   -1.4497 C   0  0  0  0  0  0  0  0  0  0  0  0
   -5.8789   -0.8277   -0.2688 C   0  0  0  0  0  0  0  0  0  0  0  0
  1 14  1  0
  2 15  1  0
  3 19  1  0
  4 12  2  0
  5 16  1  0
  5 18  1  0
  6 23  1  0
  7 23  2  0
  8  9  1  0
  8 12  1  0
  8 13  1  0
  9 10  1  0
 10 11  1  0
 11 12  1  0
 13 14  2  0
 13 15  1  0
 14 16  1  0
 15 17  2  0
 16 19  2  0
 17 19  1  0
 18 20  1  0
 18 23  1  0
 20 21  2  0
 20 22  1  0
 21 24  1  0
 22 25  2  0
 24 26  2  0
 25 26  1  0
M  END
>  <PUBCHEM_COMPOUND_CID>  (1) 
30781

>  <PUBCHEM_CONFORMER_RMSD>  (1) 
0.8

>  <PUBCHEM_CONFORMER_DIVERSEORDER>  (1) 
1
33
22
17
30
18
29
24
31
10
11
32
26
38
12
16
4
25
35
37
20
7
5
14
27
21
8
36
6
34
19
3
9
13
23
15
2
28

>  <PUBCHEM_MMFF94_PARTIAL_CHARGES>  (1) 
32
1 -0.08
11 0.06
12 0.57
13 0.12
14 0.08
15 0.08
16 0.08
17 -0.15
18 0.48
19 0.08
2 -0.08
20 -0.14
21 -0.15
22 -0.15
23 0.66
24 -0.15
25 -0.15
26 -0.15
3 -0.08
34 0.15
35 0.15
36 0.15
37 0.15
38 0.15
39 0.15
4 -0.57
40 0.5
5 -0.36
6 -0.65
7 -0.57
8 -0.48
9 0.3

>  <PUBCHEM_EFFECTIVE_ROTOR_COUNT>  (1) 
5.8

>  <PUBCHEM_PHARMACOPHORE_FEATURES>  (1) 
11
1 1 hydrophobe
1 2 hydrophobe
1 3 hydrophobe
1 4 acceptor
1 5 acceptor
1 6 acceptor
1 7 acceptor
3 6 7 23 anion
5 8 9 10 11 12 rings
6 13 14 15 16 17 19 rings
6 20 21 22 24 25 26 rings

>  <PUBCHEM_HEAVY_ATOM_COUNT>  (1) 
26

>  <PUBCHEM_ATOM_DEF_STEREO_COUNT>  (1) 
0

>  <PUBCHEM_ATOM_UDEF_STEREO_COUNT>  (1) 
1

>  <PUBCHEM_BOND_DEF_STEREO_COUNT>  (1) 
0

>  <PUBCHEM_BOND_UDEF_STEREO_COUNT>  (1) 
0

>  <PUBCHEM_ISOTOPIC_ATOM_COUNT>  (1) 
0

>  <PUBCHEM_COMPONENT_COUNT>  (1) 
1

>  <PUBCHEM_CACTVS_TAUTO_COUNT>  (1) 
2

>  <PUBCHEM_CONFORMER_ID>  (1) 
0000783D00000001

>  <PUBCHEM_MMFF94_ENERGY>  (1) 
110.2057

>  <PUBCHEM_FEATURE_SELFOVERLAP>  (1) 
55.885

>  <PUBCHEM_SHAPE_FINGERPRINT>  (1) 
10090160 65 18187362134129437811
10366900 7 18343016718028581585
10498660 4 18337115673793444542
10670039 82 18261970561327237972
11963148 33 18337383950004443242
12236239 1 17385718127844929760
12403260 363 18265046929941704370
12553582 1 18343015610322703297
12596602 18 16660359320448522384
12788726 201 18340197519039470361
13140716 1 18195806499157075864
13402501 40 18339357564843135177
13533116 47 18271807891766282842
13911987 19 18261115214031384943
14787075 74 18412822495062431379
14790565 3 18340776918886739049
14840074 17 18202003239944793031
15196674 1 18340486656090104603
15537594 2 18060134358372296303
1601671 61 18411138082293988618
17349148 13 17967819327401287804
173720 79 18041266743176597994
17492 54 18410846681827269943
17492 89 18198060266377739670
17909252 39 18058457504414049854
19319366 153 18334286578530458707
20691752 17 17460046088940403144
21641784 216 18262249845201279741
22149856 69 18337974332794088811
22393880 68 18119526531429261806
23559900 14 18268705193905279856
24771750 20 17756156935643772773
312423 11 18268155257639266642
3380486 145 18265071287007390491
350125 39 18266750068925865042
469060 322 18120395381833398266
5104073 3 18267586814496371755
5486654 2 18410012160980842215
58051976 378 18411421721796975414
59755656 215 18411141316858283614
6913067 236 18337378409500840776
77296 10 16009019575603959769

>  <PUBCHEM_SHAPE_MULTIPOLES>  (1) 
542.42
12.34
3.43
1.34
1.63
0.78
-0.37
-0.11
-2.04
-1.2
0.08
-0.03
-0.35
0.56

>  <PUBCHEM_SHAPE_SELFOVERLAP>  (1) 
1105.796

>  <PUBCHEM_SHAPE_VOLUME>  (1) 
322.2

>  <PUBCHEM_COORDINATE_TYPE>  (1) 
2
5
10

$$$$
