30798
     RDKit          3D

 19 21  0  0  0  0  0  0  0  0999 V2000
    0.3504   -0.0197   -1.2177 O   0  0  0  0  0  0  0  0  0  0  0  0
    0.3545   -0.0854    1.1851 O   0  0  0  0  0  0  0  0  0  0  0  0
    1.5097   -2.7904    1.1751 O   0  0  0  0  0  0  0  0  0  0  0  0
    1.7469   -2.8089   -1.0885 O   0  0  0  0  0  0  0  0  0  0  0  0
   -0.3355   -0.4968   -0.0272 C   0  0  0  0  0  0  0  0  0  0  0  0
   -0.3256   -2.0295   -0.0692 C   0  0  0  0  0  0  0  0  0  0  0  0
   -1.7770    0.0067   -0.0107 C   0  0  0  0  0  0  0  0  0  0  0  0
    1.3866    0.6833   -0.6852 C   0  0  0  0  0  0  0  0  0  0  0  0
    1.3889    0.6458    0.6884 C   0  0  0  0  0  0  0  0  0  0  0  0
   -2.4294    0.2022    1.2043 C   0  0  0  0  0  0  0  0  0  0  0  0
   -2.4338    0.2690   -1.2108 C   0  0  0  0  0  0  0  0  0  0  0  0
    2.3508    1.3683   -1.3950 C   0  0  0  0  0  0  0  0  0  0  0  0
    2.3554    1.2912    1.4313 C   0  0  0  0  0  0  0  0  0  0  0  0
    1.0757   -2.5785   -0.0939 C   0  0  0  0  0  0  0  0  0  0  0  0
   -3.7460    0.6624    1.2196 C   0  0  0  0  0  0  0  0  0  0  0  0
   -3.7505    0.7293   -1.1955 C   0  0  0  0  0  0  0  0  0  0  0  0
    3.3415    2.0319   -0.6675 C   0  0  0  0  0  0  0  0  0  0  0  0
    3.3437    1.9935    0.7379 C   0  0  0  0  0  0  0  0  0  0  0  0
   -4.4065    0.9259    0.0198 C   0  0  0  0  0  0  0  0  0  0  0  0
  1  5  1  0
  1  8  1  0
  2  5  1  0
  2  9  1  0
  3 14  1  0
  4 14  2  0
  5  6  1  0
  5  7  1  0
  6 14  1  0
  7 10  2  0
  7 11  1  0
  8  9  2  0
  8 12  1  0
  9 13  1  0
 10 15  1  0
 11 16  2  0
 12 17  2  0
 13 18  2  0
 15 19  2  0
 16 19  1  0
 17 18  1  0
M  END
>  <PUBCHEM_COMPOUND_CID>  (1) 
30798

>  <PUBCHEM_CONFORMER_RMSD>  (1) 
0.6

>  <PUBCHEM_CONFORMER_DIVERSEORDER>  (1) 
1
3
5
6
4
2

>  <PUBCHEM_MMFF94_PARTIAL_CHARGES>  (1) 
29
1 -0.36
10 -0.15
11 -0.15
12 -0.15
13 -0.15
14 0.66
15 -0.15
16 -0.15
17 -0.15
18 -0.15
19 -0.15
2 -0.36
22 0.15
23 0.15
24 0.15
25 0.15
26 0.15
27 0.15
28 0.15
29 0.15
3 -0.65
30 0.15
31 0.5
4 -0.57
5 0.7
6 0.06
7 -0.14
8 0.08
9 0.08

>  <PUBCHEM_EFFECTIVE_ROTOR_COUNT>  (1) 
3.6

>  <PUBCHEM_PHARMACOPHORE_FEATURES>  (1) 
8
1 1 acceptor
1 2 acceptor
1 3 acceptor
1 4 acceptor
3 3 4 14 anion
5 1 2 5 8 9 rings
6 7 10 11 15 16 19 rings
6 8 9 12 13 17 18 rings

>  <PUBCHEM_HEAVY_ATOM_COUNT>  (1) 
19

>  <PUBCHEM_ATOM_DEF_STEREO_COUNT>  (1) 
0

>  <PUBCHEM_ATOM_UDEF_STEREO_COUNT>  (1) 
0

>  <PUBCHEM_BOND_DEF_STEREO_COUNT>  (1) 
0

>  <PUBCHEM_BOND_UDEF_STEREO_COUNT>  (1) 
0

>  <PUBCHEM_ISOTOPIC_ATOM_COUNT>  (1) 
0

>  <PUBCHEM_COMPONENT_COUNT>  (1) 
1

>  <PUBCHEM_CACTVS_TAUTO_COUNT>  (1) 
1

>  <PUBCHEM_CONFORMER_ID>  (1) 
0000784E00000001

>  <PUBCHEM_MMFF94_ENERGY>  (1) 
48.3086

>  <PUBCHEM_FEATURE_SELFOVERLAP>  (1) 
40.809

>  <PUBCHEM_SHAPE_FINGERPRINT>  (1) 
10498660 4 17847059965819334241
11101153 10 17619088140082364358
11582403 64 16053742301537617360
121448 382 18057594576379249599
12251169 10 15647327576321332977
12500047 106 18125159583613623916
12788726 201 17471849681267045058
13132413 78 17694795020962836224
13134695 92 17973998458053263575
13149001 5 18194428639305533695
13294875 104 17988634203707261008
13681431 1 18051134696363179190
14181834 199 18268134388467197310
14955137 171 17985842431699436598
15309172 13 18262236736971128013
15906896 17 17681556162320040778
16752209 62 17977651340702586478
16945 1 18339924801295470766
1813 80 17626958473391682038
18186145 218 18200887260890508628
19765921 60 18060421347807154145
200 152 12319192732040917204
204376 136 18336546135138800941
20510252 161 17837488922566176147
21524375 3 18337667645456944934
21731228 192 18188770690044296256
22112679 90 17055021124941127658
2255824 54 18268147565696016719
23419403 2 17614337338593864754
23559900 14 16733556996591841495
25 1 18059026063130139584
276578 36 18411138056244428080
305870 269 18411979169633455489
3082319 5 15625951962202217905
312423 11 17987522516269362577
3729539 64 18045812038647613726
4340502 62 18412271657750468483
458136 41 18338248119056282019
474 4 18272090547510898929
495365 180 18263074423698615053
5895379 119 16411555017465985681
6049 1 17677903318752476613
633830 44 18059868293237304097
6442390 28 18125177153929303603
7364860 26 18270962332331392278
7615 1 17702939211444087889
81228 2 17474105878779114466
81539 233 18407759239695162163
84936 182 18201439138460510537
84936 31 18269826541115101110
9981440 41 16123279935231766152

>  <PUBCHEM_SHAPE_MULTIPOLES>  (1) 
367.53
6.49
2.64
1.47
4.64
2.7
0.03
-4.89
0.05
-2.57
-0.03
-0.03
-0.25
0.04

>  <PUBCHEM_SHAPE_SELFOVERLAP>  (1) 
814.186

>  <PUBCHEM_SHAPE_VOLUME>  (1) 
195.7

>  <PUBCHEM_COORDINATE_TYPE>  (1) 
2
5
10

$$$$
