308
     RDKit          3D

 10 10  0  0  0  0  0  0  0  0999 V2000
    4.1841    0.5608   -0.4777 O   0  0  0  0  0  0  0  0  0  0  0  0
   -0.4236   -0.2998   -0.0425 C   0  0  0  0  0  0  0  0  0  0  0  0
    0.9810   -0.6775   -0.0640 C   0  0  0  0  0  0  0  0  0  0  0  0
   -0.7828    1.0460    0.0303 C   0  0  0  0  0  0  0  0  0  0  0  0
   -1.4111   -1.2833   -0.0952 C   0  0  0  0  0  0  0  0  0  0  0  0
   -2.1297    1.4084    0.0505 C   0  0  0  0  0  0  0  0  0  0  0  0
   -2.7581   -0.9211   -0.0752 C   0  0  0  0  0  0  0  0  0  0  0  0
    2.0141    0.0900    0.3518 C   0  0  0  0  0  0  0  0  0  0  0  0
   -3.1172    0.4248   -0.0024 C   0  0  0  0  0  0  0  0  0  0  0  0
    3.4433   -0.3483    0.3244 C   0  0  0  0  0  0  0  0  0  0  0  0
  1 10  1  0
  2  3  1  0
  2  4  2  0
  2  5  1  0
  3  8  2  0
  4  6  1  0
  5  7  2  0
  6  9  2  0
  7  9  1  0
  8 10  1  0
M  END
>  <PUBCHEM_COMPOUND_CID>  (1) 
308

>  <PUBCHEM_CONFORMER_RMSD>  (1) 
0.4

>  <PUBCHEM_CONFORMER_DIVERSEORDER>  (1) 
1
2

>  <PUBCHEM_MMFF94_PARTIAL_CHARGES>  (1) 
18
1 -0.68
10 0.42
11 0.15
12 0.15
13 0.15
14 0.15
15 0.15
16 0.15
17 0.15
2 0.03
20 0.4
3 -0.18
4 -0.15
5 -0.15
6 -0.15
7 -0.15
8 -0.29
9 -0.15

>  <PUBCHEM_EFFECTIVE_ROTOR_COUNT>  (1) 
2

>  <PUBCHEM_PHARMACOPHORE_FEATURES>  (1) 
3
1 1 acceptor
1 1 donor
6 2 4 5 6 7 9 rings

>  <PUBCHEM_HEAVY_ATOM_COUNT>  (1) 
10

>  <PUBCHEM_ATOM_DEF_STEREO_COUNT>  (1) 
0

>  <PUBCHEM_ATOM_UDEF_STEREO_COUNT>  (1) 
0

>  <PUBCHEM_BOND_DEF_STEREO_COUNT>  (1) 
0

>  <PUBCHEM_BOND_UDEF_STEREO_COUNT>  (1) 
1

>  <PUBCHEM_ISOTOPIC_ATOM_COUNT>  (1) 
0

>  <PUBCHEM_COMPONENT_COUNT>  (1) 
1

>  <PUBCHEM_CACTVS_TAUTO_COUNT>  (1) 
1

>  <PUBCHEM_CONFORMER_ID>  (1) 
0000013400000001

>  <PUBCHEM_MMFF94_ENERGY>  (1) 
22.5158

>  <PUBCHEM_FEATURE_SELFOVERLAP>  (1) 
15.223

>  <PUBCHEM_SHAPE_FINGERPRINT>  (1) 
10857977 72 18341038696837007291
11062470 55 16443061694678529423
12932764 1 17560790039967997162
13024252 1 15864070962357337003
14144814 61 18335698325964051666
14325111 11 18410572855891621914
15669948 3 18340477950123161502
15775835 57 18334859372542738416
20645464 45 17989491805449415647
20871998 184 18201159952965210143
23402539 116 18272358777187705455
23552423 10 18116710905620487485
369184 2 16805318873229879107
6333449 129 18343579638191551031
75552 356 18409448102603936215

>  <PUBCHEM_SHAPE_MULTIPOLES>  (1) 
199.93
6.16
1.29
0.65
5.81
0.07
0.01
0.6
-0.26
-0.82
-0.02
0.1
0.01
-0.16

>  <PUBCHEM_SHAPE_SELFOVERLAP>  (1) 
406.664

>  <PUBCHEM_SHAPE_VOLUME>  (1) 
116.6

>  <PUBCHEM_COORDINATE_TYPE>  (1) 
2
5
10

$$$$
