30806
     RDKit          3D

 18 19  0  0  0  0  0  0  0  0999 V2000
    1.3929   -0.0334   -0.2505 O   0  0  0  0  0  0  0  0  0  0  0  0
   -2.7337    2.0786   -0.3627 O   0  0  0  0  0  0  0  0  0  0  0  0
   -0.5612   -1.6264    1.0384 O   0  0  0  0  0  0  0  0  0  0  0  0
    4.8394   -0.5954   -0.0631 O   0  0  0  0  0  0  0  0  0  0  0  0
    3.1838   -1.8857   -0.7054 O   0  0  0  0  0  0  0  0  0  0  0  0
   -1.3743    2.3635   -0.3197 N   0  0  0  0  0  0  0  0  0  0  0  0
   -2.4437   -2.1106   -0.2015 N   0  0  0  0  0  0  0  0  0  0  0  0
    3.6021   -0.7744   -0.2652 N   0  0  0  0  0  0  0  0  0  0  0  0
   -1.7167    0.1814    0.0629 C   0  0  0  0  0  0  0  0  0  0  0  0
   -0.7840    1.1934   -0.0598 C   0  0  0  0  0  0  0  0  0  0  0  0
    0.6807    1.0805    0.0644 C   0  0  0  0  0  0  0  0  0  0  0  0
   -2.9218    0.7545   -0.1291 C   0  0  0  0  0  0  0  0  0  0  0  0
   -1.5021   -1.2452    0.3431 C   0  0  0  0  0  0  0  0  0  0  0  0
    1.5164    2.0777    0.5110 C   0  0  0  0  0  0  0  0  0  0  0  0
   -4.3133    0.2829   -0.1397 C   0  0  0  0  0  0  0  0  0  0  0  0
    2.6971    0.2557   -0.0019 C   0  0  0  0  0  0  0  0  0  0  0  0
    2.8257    1.5420    0.4682 C   0  0  0  0  0  0  0  0  0  0  0  0
   -2.3875   -3.5392    0.0105 C   0  0  0  0  0  0  0  0  0  0  0  0
  1 11  1  0
  1 16  1  0
  2  6  1  0
  2 12  1  0
  3 13  2  0
  4  8  1  0
  5  8  2  0
  6 10  2  0
  7 13  1  0
  7 18  1  0
  8 16  1  0
  9 10  1  0
  9 12  2  0
  9 13  1  0
 10 11  1  0
 11 14  2  0
 12 15  1  0
 14 17  1  0
 16 17  2  0
M  CHG  2   4  -1   8   1
M  END
>  <PUBCHEM_COMPOUND_CID>  (1) 
30806

>  <PUBCHEM_CONFORMER_RMSD>  (1) 
0.6

>  <PUBCHEM_CONFORMER_DIVERSEORDER>  (1) 
3
8
11
6
7
5
9
2
12
1
10
13
15
14
4

>  <PUBCHEM_MMFF94_PARTIAL_CHARGES>  (1) 
21
1 -0.28
10 0.29
11 0.14
12 -0.04
13 0.72
14 -0.15
15 0.18
16 0.22
17 -0.15
18 0.3
19 0.15
2 -0.02
23 0.15
24 0.37
3 -0.57
4 -0.52
5 -0.52
6 -0.41
7 -0.73
8 0.96
9 -0.09

>  <PUBCHEM_EFFECTIVE_ROTOR_COUNT>  (1) 
4

>  <PUBCHEM_PHARMACOPHORE_FEATURES>  (1) 
9
1 1 acceptor
1 3 acceptor
1 4 acceptor
1 4 anion
1 5 acceptor
1 6 acceptor
1 7 donor
5 1 11 14 16 17 rings
5 2 6 9 10 12 rings

>  <PUBCHEM_HEAVY_ATOM_COUNT>  (1) 
18

>  <PUBCHEM_ATOM_DEF_STEREO_COUNT>  (1) 
0

>  <PUBCHEM_ATOM_UDEF_STEREO_COUNT>  (1) 
0

>  <PUBCHEM_BOND_DEF_STEREO_COUNT>  (1) 
0

>  <PUBCHEM_BOND_UDEF_STEREO_COUNT>  (1) 
0

>  <PUBCHEM_ISOTOPIC_ATOM_COUNT>  (1) 
0

>  <PUBCHEM_COMPONENT_COUNT>  (1) 
1

>  <PUBCHEM_CACTVS_TAUTO_COUNT>  (1) 
2

>  <PUBCHEM_CONFORMER_ID>  (1) 
0000785600000003

>  <PUBCHEM_MMFF94_ENERGY>  (1) 
23.579

>  <PUBCHEM_FEATURE_SELFOVERLAP>  (1) 
45.768

>  <PUBCHEM_SHAPE_FINGERPRINT>  (1) 
10616163 171 18267588094560116566
10967382 1 18410572855590889585
11322862 65 18335417976421948303
11458722 379 18335421222974118723
11578080 2 16843304947202305779
12500047 106 18336541621249433900
12555020 224 18338226086021993871
12715332 25 18413673521995678555
13140716 1 18339927120450976539
14115302 16 18333741207998752572
15042514 8 18335706091692431147
15279308 132 18335702698061521368
16945 1 18337379479153477641
17804303 29 18411423907676905189
19141452 34 18342744069806074643
19591789 44 18337392639302466323
19930381 70 17908426848901302935
200 152 17561359582458776125
20201158 50 18342740680796958918
20510252 161 18342172233354789377
20645476 183 16805328777435117433
21478907 32 18122905593393355199
21501502 16 18337676441813912584
221490 88 18339646771272635800
22802520 49 18339924921433002105
23184049 29 18337103574722735890
2334 1 18120655987716426051
23402539 116 18342730793961942717
23559900 14 18340762741125997560
2748010 2 18265330797167180241
3084891 72 18051406267129532968
54173680 148 18337673130531089067
69090 78 18342452647473759103
7364860 26 18340768251664178608
81228 2 18116431647105481697
8809292 202 18410013247354139680
9709674 26 18342176665623258526

>  <PUBCHEM_SHAPE_MULTIPOLES>  (1) 
326.14
7.11
3.08
0.7
3.67
1.77
-0.06
1.81
0.65
-1.84
0.06
0.05
0.06
0.75

>  <PUBCHEM_SHAPE_SELFOVERLAP>  (1) 
702.57

>  <PUBCHEM_SHAPE_VOLUME>  (1) 
181.3

>  <PUBCHEM_COORDINATE_TYPE>  (1) 
2
5
10

$$$$
