3081
     RDKit          3D

  9  9  0  0  0  0  0  0  0  0999 V2000
    0.5907    1.0741    0.0020 O   0  0  0  0  0  0  0  0  0  0  0  0
   -1.4021   -1.7971    0.0004 O   0  0  0  0  0  0  0  0  0  0  0  0
    2.7044    0.2038    0.0005 O   0  0  0  0  0  0  0  0  0  0  0  0
    0.8216   -1.1344   -0.0009 N   0  0  0  0  0  0  0  0  0  0  0  0
   -0.7510    0.5493    0.0000 C   0  0  0  0  0  0  0  0  0  0  0  0
   -0.5291   -0.9433    0.0001 C   0  0  0  0  0  0  0  0  0  0  0  0
   -1.4652    1.0008    1.2646 C   0  0  0  0  0  0  0  0  0  0  0  0
   -1.4611    1.0008   -1.2671 C   0  0  0  0  0  0  0  0  0  0  0  0
    1.4918    0.0459    0.0004 C   0  0  0  0  0  0  0  0  0  0  0  0
  1  5  1  0
  1  9  1  0
  2  6  2  0
  3  9  2  0
  4  6  1  0
  4  9  1  0
  5  6  1  0
  5  7  1  0
  5  8  1  0
M  END
>  <PUBCHEM_COMPOUND_CID>  (1) 
3081

>  <PUBCHEM_CONFORMER_RMSD>  (1) 
0.4

>  <PUBCHEM_CONFORMER_DIVERSEORDER>  (1) 
1

>  <PUBCHEM_MMFF94_PARTIAL_CHARGES>  (1) 
8
1 -0.43
16 0.37
2 -0.57
3 -0.57
4 -0.49
5 0.34
6 0.57
9 0.78

>  <PUBCHEM_EFFECTIVE_ROTOR_COUNT>  (1) 
0.6

>  <PUBCHEM_PHARMACOPHORE_FEATURES>  (1) 
5
1 2 acceptor
1 3 acceptor
1 4 donor
3 5 7 8 hydrophobe
5 1 4 5 6 9 rings

>  <PUBCHEM_HEAVY_ATOM_COUNT>  (1) 
9

>  <PUBCHEM_ATOM_DEF_STEREO_COUNT>  (1) 
0

>  <PUBCHEM_ATOM_UDEF_STEREO_COUNT>  (1) 
0

>  <PUBCHEM_BOND_DEF_STEREO_COUNT>  (1) 
0

>  <PUBCHEM_BOND_UDEF_STEREO_COUNT>  (1) 
0

>  <PUBCHEM_ISOTOPIC_ATOM_COUNT>  (1) 
0

>  <PUBCHEM_COMPONENT_COUNT>  (1) 
1

>  <PUBCHEM_CACTVS_TAUTO_COUNT>  (1) 
3

>  <PUBCHEM_CONFORMER_ID>  (1) 
00000C0900000001

>  <PUBCHEM_MMFF94_ENERGY>  (1) 
15.3257

>  <PUBCHEM_FEATURE_SELFOVERLAP>  (1) 
25.371

>  <PUBCHEM_SHAPE_FINGERPRINT>  (1) 
12423570 1 12199710877729305489
13024252 1 15646770098018680984
137420 1 14684757733640261099
21040471 1 18338798888445522048
23552423 10 18260271854348308398
24536 1 18131348600910341600
29004967 10 16950863430653735016
369184 2 18113328717838451008
5084963 1 18334575793279900928
5943 1 16548027410006629453

>  <PUBCHEM_SHAPE_MULTIPOLES>  (1) 
162.63
2.44
1.49
0.98
1.47
0.65
0
-0.52
0
-0.49
0
-0.63
-0.34
0

>  <PUBCHEM_SHAPE_SELFOVERLAP>  (1) 
335.475

>  <PUBCHEM_SHAPE_VOLUME>  (1) 
95.8

>  <PUBCHEM_COORDINATE_TYPE>  (1) 
2
5
10

$$$$
