30814
     RDKit          3D

 12 12  0  0  0  0  0  0  0  0999 V2000
    3.9420   -1.4069    0.2527 Cl  0  0  0  0  0  0  0  0  0  0  0  0
   -1.4365    0.9822   -0.4150 N   0  0  0  0  0  0  0  0  0  0  0  0
   -2.9593   -0.7799    0.2670 N   0  0  0  0  0  0  0  0  0  0  0  0
    0.9443    1.2349    0.0592 C   0  0  0  0  0  0  0  0  0  0  0  0
   -0.1484    0.4261   -0.2531 C   0  0  0  0  0  0  0  0  0  0  0  0
    2.2094    0.6684    0.2152 C   0  0  0  0  0  0  0  0  0  0  0  0
    0.0241   -0.9492   -0.4095 C   0  0  0  0  0  0  0  0  0  0  0  0
    0.7879    2.7106    0.2336 C   0  0  0  0  0  0  0  0  0  0  0  0
    2.3818   -0.7069    0.0591 C   0  0  0  0  0  0  0  0  0  0  0  0
    1.2892   -1.5157   -0.2534 C   0  0  0  0  0  0  0  0  0  0  0  0
   -2.6523    0.3962   -0.1667 C   0  0  0  0  0  0  0  0  0  0  0  0
   -4.3823   -1.0600    0.4111 C   0  0  0  0  0  0  0  0  0  0  0  0
  1  9  1  0
  2  5  1  0
  2 11  1  0
  3 11  2  0
  3 12  1  0
  4  5  2  0
  4  6  1  0
  4  8  1  0
  5  7  1  0
  6  9  2  0
  7 10  2  0
  9 10  1  0
M  END
>  <PUBCHEM_COMPOUND_CID>  (1) 
30814

>  <PUBCHEM_CONFORMER_RMSD>  (1) 
0.6

>  <PUBCHEM_CONFORMER_DIVERSEORDER>  (1) 
1
3
2
4

>  <PUBCHEM_MMFF94_PARTIAL_CHARGES>  (1) 
17
1 -0.18
10 -0.15
11 0.44
12 0.25
13 0.15
14 0.15
18 0.15
19 0.4
2 -0.55
20 0.06
3 -0.7
4 -0.14
5 0.1
6 -0.15
7 -0.15
8 0.14
9 0.18

>  <PUBCHEM_EFFECTIVE_ROTOR_COUNT>  (1) 
2

>  <PUBCHEM_PHARMACOPHORE_FEATURES>  (1) 
3
1 2 donor
3 2 3 11 cation
6 4 5 6 7 9 10 rings

>  <PUBCHEM_HEAVY_ATOM_COUNT>  (1) 
12

>  <PUBCHEM_ATOM_DEF_STEREO_COUNT>  (1) 
0

>  <PUBCHEM_ATOM_UDEF_STEREO_COUNT>  (1) 
0

>  <PUBCHEM_BOND_DEF_STEREO_COUNT>  (1) 
0

>  <PUBCHEM_BOND_UDEF_STEREO_COUNT>  (1) 
0

>  <PUBCHEM_ISOTOPIC_ATOM_COUNT>  (1) 
0

>  <PUBCHEM_COMPONENT_COUNT>  (1) 
1

>  <PUBCHEM_CACTVS_TAUTO_COUNT>  (1) 
2

>  <PUBCHEM_CONFORMER_ID>  (1) 
0000785E00000001

>  <PUBCHEM_MMFF94_ENERGY>  (1) 
37.7761

>  <PUBCHEM_FEATURE_SELFOVERLAP>  (1) 
15.223

>  <PUBCHEM_SHAPE_FINGERPRINT>  (1) 
10219947 1 18272086089128604062
108231 29 18409448068297023610
11471102 22 18337398243886433289
11543360 7 16153723015380945022
11769659 78 17677607567035663090
12032990 46 18340207388879766206
12251169 10 18272091617152570479
14251717 144 18340483482404866799
14252887 29 18059580148455879806
15375462 189 18042129764803522811
15501101 241 18334296508773623125
16945 1 18268418204258859836
17841504 4 18410856585668329209
193761 8 17907572885111816366
20201158 50 18408041793078254131
20645477 70 18337102480023319487
20708731 107 18262243334056732124
20871998 184 17986382296566859534
20871998 22 18200603471026600374
21061003 4 18343016657909770497
21501925 9 18410567388087056810
22959321 4 18339923848139798135
2748010 2 18268974432831335372
3312278 4 18192147092737357120
5493415 88 18408880720149293961
58734985 188 18343016701028313624
7364860 26 18268712882070760588
8809292 202 18187089481105354163

>  <PUBCHEM_SHAPE_MULTIPOLES>  (1) 
238.86
6.2
2.14
0.68
4.34
1.27
0
-3.91
-1.14
-0.86
-0.14
0.03
-0.03
0.25

>  <PUBCHEM_SHAPE_SELFOVERLAP>  (1) 
477.687

>  <PUBCHEM_SHAPE_VOLUME>  (1) 
142.1

>  <PUBCHEM_COORDINATE_TYPE>  (1) 
2
5
10

$$$$
