30813
     RDKit          3D

 24 26  0  0  1  0  0  0  0  0999 V2000
    7.2986   -0.9447    0.6163 Cl  0  0  0  0  0  0  0  0  0  0  0  0
   -0.1595    2.6089   -0.0082 O   0  0  0  0  0  0  0  0  0  0  0  0
    2.0332    1.3775   -0.5510 O   0  0  0  0  0  0  0  0  0  0  0  0
   -5.0774    0.8952    0.6162 N   0  0  0  0  0  0  0  0  0  0  0  0
   -1.5446    0.6758    0.0688 N   0  0  0  0  0  0  0  0  0  0  0  0
   -2.8067    1.3195    0.3100 C   0  0  0  0  0  0  0  0  0  0  0  0
   -3.5501    1.6752   -0.9798 C   0  0  0  0  0  0  0  0  0  0  0  0
   -3.7722    0.4282    1.0848 C   0  0  0  0  0  0  0  0  0  0  0  0
   -4.9271    1.0386   -0.8322 C   0  0  0  0  0  0  0  0  0  0  0  0
   -6.1543   -0.0161    0.9746 C   0  0  0  0  0  0  0  0  0  0  0  0
   -1.5196   -0.7841   -0.0390 C   0  0  0  0  0  0  0  0  0  0  0  0
   -0.3144    1.3857   -0.0712 C   0  0  0  0  0  0  0  0  0  0  0  0
    0.9085    0.5414   -0.3803 C   0  0  0  0  0  0  0  0  0  0  0  0
   -1.3245   -1.4955    1.1057 C   0  0  0  0  0  0  0  0  0  0  0  0
   -1.6925   -1.3263   -1.2761 C   0  0  0  0  0  0  0  0  0  0  0  0
   -1.3000   -2.8863    1.0030 C   0  0  0  0  0  0  0  0  0  0  0  0
   -1.6681   -2.7172   -1.3786 C   0  0  0  0  0  0  0  0  0  0  0  0
   -1.4718   -3.4973   -0.2390 C   0  0  0  0  0  0  0  0  0  0  0  0
    3.2665    0.8340   -0.2790 C   0  0  0  0  0  0  0  0  0  0  0  0
    3.4718   -0.5254   -0.4698 C   0  0  0  0  0  0  0  0  0  0  0  0
    4.2875    1.6527    0.1837 C   0  0  0  0  0  0  0  0  0  0  0  0
    4.7225   -1.0771   -0.1926 C   0  0  0  0  0  0  0  0  0  0  0  0
    5.5384    1.1010    0.4609 C   0  0  0  0  0  0  0  0  0  0  0  0
    5.7558   -0.2639    0.2728 C   0  0  0  0  0  0  0  0  0  0  0  0
  1 24  1  0
  2 12  2  0
  3 13  1  0
  3 19  1  0
  4  8  1  0
  4  9  1  0
  4 10  1  0
  5  6  1  0
  5 11  1  0
  5 12  1  0
  6  7  1  0
  6  8  1  0
  7  9  1  0
 11 14  2  0
 11 15  1  0
 12 13  1  0
 14 16  1  0
 15 17  2  0
 16 18  2  0
 17 18  1  0
 19 20  2  0
 19 21  1  0
 20 22  1  0
 21 23  2  0
 22 24  2  0
 23 24  1  0
M  END
>  <PUBCHEM_COMPOUND_CID>  (1) 
30813

>  <PUBCHEM_CONFORMER_RMSD>  (1) 
0.8

>  <PUBCHEM_CONFORMER_DIVERSEORDER>  (1) 
3
184
405
417
6
14
22
112
416
117
479
430
254
159
106
171
404
388
158
61
422
412
462
180
107
454
382
365
374
277
307
327
455
152
179
196
225
206
408
21
118
343
356
209
473
308
20
464
232
313
129
355
103
314
360
97
253
149
192
18
414
98
397
188
340
351
1
320
113
32
217
194
155
233
287
67
170
187
410
329
133
457
214
73
339
319
437
183
270
419
377
250
70
259
483
19
476
463
231
57
428
456
119
315
190
395
122
484
436
347
139
62
371
322
269
2
302
475
420
389
140
69
280
311
136
378
400
236
268
145
248
165
211
80
9
424
35
290
58
49
100
304
144
208
8
154
160
30
172
383
51
477
134
229
433
251
241
349
344
115
130
489
425
447
56
435
151
17
92
173
96
191
143
352
131
5
59
279
357
381
370
379
7
317
77
89
86
212
40
324
386
460
23
291
167
392
384
341
135
102
84
95
398
461
452
137
157
297
79
91
418
423
443
407
220
142
16
372
390
221
15
413
237
431
39
406
46
346
380
458
121
127
486
63
441
474
285
434
264
409
331
4
366
215
243
490
164
309
81
396
466
202
350
338
249
375
265
148
68
364
345
296
204
64
305
256
261
48
266
348
169
337
31
50
153
197
491
90
65
227
480
394
316
132
239
11
29
393
330
223
282
439
226
367
391
303
146
482
199
465
286
332
335
459
353
278
478
471
263
403
182
399
470
272
274
281
358
28
74
468
288
492
299
240
444
421
260
376
472
176
230
25
368
10
247
321
93
78
105
488
41
44
162
373
246
228
205
289
369
467
224
27
101
323
312
198
298
362
245
440
326
235
36
186
301
88
166
52
262
451
450
295
485
487
333
24
53
255
108
201
385
257
359
177
222
401
99
354
42
361
411
210
325
292
37
85
124
429
200
453
300
116
363
219
178
207
189
276
114
120
138
38
111
446
310
481
432
334
294
195
193
123
45
445
147
402
125
426
293
174
76
175
244
213
275
94
71
387
342
318
469
168
110
438
283
43
306
234
104
82
258
34
163
47
242
60
66
181
271
55
185
141
216
203
336
252
442
54
109
156
238
328
128
13
161
12
75
273
83
26
87
427
126
415
72
284
267
150
449
33
218
448

>  <PUBCHEM_MMFF94_PARTIAL_CHARGES>  (1) 
32
1 -0.18
10 0.27
11 0.12
12 0.57
13 0.34
14 -0.15
15 -0.15
16 -0.15
17 -0.15
18 -0.15
19 0.08
2 -0.57
20 -0.15
21 -0.15
22 -0.15
23 -0.15
24 0.18
3 -0.36
37 0.15
38 0.15
39 0.15
4 -0.81
40 0.15
41 0.15
42 0.15
43 0.15
44 0.15
45 0.15
5 -0.48
6 0.3
8 0.27
9 0.27

>  <PUBCHEM_EFFECTIVE_ROTOR_COUNT>  (1) 
7

>  <PUBCHEM_PHARMACOPHORE_FEATURES>  (1) 
6
1 2 acceptor
1 3 acceptor
1 4 cation
5 4 6 7 8 9 rings
6 11 14 15 16 17 18 rings
6 19 20 21 22 23 24 rings

>  <PUBCHEM_HEAVY_ATOM_COUNT>  (1) 
24

>  <PUBCHEM_ATOM_DEF_STEREO_COUNT>  (1) 
0

>  <PUBCHEM_ATOM_UDEF_STEREO_COUNT>  (1) 
1

>  <PUBCHEM_BOND_DEF_STEREO_COUNT>  (1) 
0

>  <PUBCHEM_BOND_UDEF_STEREO_COUNT>  (1) 
0

>  <PUBCHEM_ISOTOPIC_ATOM_COUNT>  (1) 
0

>  <PUBCHEM_COMPONENT_COUNT>  (1) 
1

>  <PUBCHEM_CACTVS_TAUTO_COUNT>  (1) 
1

>  <PUBCHEM_CONFORMER_ID>  (1) 
0000785D00000003

>  <PUBCHEM_MMFF94_ENERGY>  (1) 
98.7531

>  <PUBCHEM_FEATURE_SELFOVERLAP>  (1) 
30.46

>  <PUBCHEM_SHAPE_FINGERPRINT>  (1) 
10366900 7 17275103929760314544
10906281 52 17916884481199137612
11315181 36 17632293502047565616
11405975 8 18341328985572217808
11524674 6 18060418006301804462
11578080 2 17272284923321798657
12035758 1 18340223950537293643
12422481 6 18052291589455968747
12616971 3 17385719236526974660
12633257 1 18411979157465861390
12715332 25 18341334465749903805
12788726 201 18270676446940532824
13140716 1 18268995452280008032
13533116 47 17059779906167054806
13551218 46 18336829697511757106
14341114 176 18411138027076761056
14617045 38 18336836308041425582
14866123 147 18337673126368789803
15042514 8 18262806297411844571
15537594 2 17676202456116768378
15849732 13 17967533471558091581
16994733 274 15266516041005507875
19141452 34 18410855486267328292
20197701 30 18336263457966607143
21033648 29 18338781352068640329
21033650 10 16557375702669191600
21236236 1 18342737468473145295
21304303 64 11527954452615826635
21403212 168 18409449142439553273
21478907 32 17979635963981834551
21859007 373 17896863401107852644
23402539 116 18202278091903078573
23419403 2 13325139304954132983
23559900 14 18341324591873785256
23728640 28 18340771528238630003
283562 15 18198624341828961577
3178227 256 18338531811101443689
3383291 50 18412265029798773075
38695281 34 18199749155403684935
4015057 19 17916851526062859624
4073 2 18261954172106283704
46194498 28 12035735280658229490
5104073 3 18270111440045494600
5281201 14 11242239733293205768
5364581 5 18127111195547505896
559249 180 18408879642350106838
58260988 521 17968392182103415995
5924683 9 18128813221602262878
6138700 20 18337111163956392959
6669772 16 18271247114618258919
70251023 43 17691677209772015715
7226269 152 18201717331987332904
81228 2 17761199322033462057
9709674 26 18342461448141557622

>  <PUBCHEM_SHAPE_MULTIPOLES>  (1) 
474.08
14.53
2.98
1.1
16.81
2.29
0.05
-2.52
-3.23
-1.73
0.3
-0.96
0.37
-0.03

>  <PUBCHEM_SHAPE_SELFOVERLAP>  (1) 
1002.588

>  <PUBCHEM_SHAPE_VOLUME>  (1) 
267.8

>  <PUBCHEM_COORDINATE_TYPE>  (1) 
2
5
10

$$$$
