30829
     RDKit          3D

 11 10  0  0  1  0  0  0  0  0999 V2000
    3.5295   -1.0499    0.6993 O   0  0  0  0  0  0  0  0  0  0  0  0
   -3.5295   -1.0499   -0.6993 O   0  0  0  0  0  0  0  0  0  0  0  0
    0.0000   -0.1736    0.0000 N   0  0  0  0  0  0  0  0  0  0  0  0
    2.4372   -0.1595    0.4669 C   0  0  0  0  0  0  0  0  0  0  0  0
   -2.4373   -0.1596   -0.4669 C   0  0  0  0  0  0  0  0  0  0  0  0
    1.1837   -0.9992    0.1971 C   0  0  0  0  0  0  0  0  0  0  0  0
   -1.1838   -0.9991   -0.1970 C   0  0  0  0  0  0  0  0  0  0  0  0
    2.7997    0.7605   -0.7058 C   0  0  0  0  0  0  0  0  0  0  0  0
   -2.7996    0.7606    0.7058 C   0  0  0  0  0  0  0  0  0  0  0  0
    4.0880    1.5348   -0.4559 C   0  0  0  0  0  0  0  0  0  0  0  0
   -4.0880    1.5349    0.4558 C   0  0  0  0  0  0  0  0  0  0  0  0
  1  4  1  0
  2  5  1  0
  3  6  1  0
  3  7  1  0
  4  6  1  0
  4  8  1  0
  5  7  1  0
  5  9  1  0
  8 10  1  0
  9 11  1  0
M  END
>  <PUBCHEM_COMPOUND_CID>  (1) 
30829

>  <PUBCHEM_CONFORMER_RMSD>  (1) 
0.6

>  <PUBCHEM_CONFORMER_DIVERSEORDER>  (1) 
1
130
73
241
98
178
3
111
13
210
180
113
188
177
9
197
28
40
240
229
5
70
187
215
74
172
25
30
228
109
221
142
19
206
165
128
143
222
23
237
195
157
7
189
62
168
219
47
147
185
22
225
138
236
108
181
14
159
39
201
12
216
211
84
200
90
174
44
10
161
6
230
196
163
114
217
122
158
51
148
166
184
193
220
46
78
192
76
213
112
144
202
24
238
198
227
124
119
194
21
204
97
232
105
234
15
35
65
132
183
176
38
26
208
95
133
186
131
218
52
169
32
126
146
175
37
239
191
125
101
110
42
235
140
224
129
83
137
162
85
145
63
223
55
36
199
43
77
242
182
164
16
156
45
155
87
212
82
170
121
68
54
226
139
116
92
2
123
209
81
167
207
4
160
151
135
56
57
190
99
214
69
120
231
8
173
31
67
134
20
150
233
118
58
153
93
61
149
41
205
179
115
171
48
34
141
18
88
80
117
49
152
136
17
102
60
154
89
96
203
104
79
106
71
103
11
94
66
50
29
64
53
27
72
59
127
33
107
75
86
91
100

>  <PUBCHEM_MMFF94_PARTIAL_CHARGES>  (1) 
10
1 -0.68
18 0.36
2 -0.68
29 0.4
3 -0.9
30 0.4
4 0.28
5 0.28
6 0.27
7 0.27

>  <PUBCHEM_EFFECTIVE_ROTOR_COUNT>  (1) 
6

>  <PUBCHEM_PHARMACOPHORE_FEATURES>  (1) 
8
1 1 acceptor
1 1 donor
1 10 hydrophobe
1 11 hydrophobe
1 2 acceptor
1 2 donor
1 3 cation
1 3 donor

>  <PUBCHEM_HEAVY_ATOM_COUNT>  (1) 
11

>  <PUBCHEM_ATOM_DEF_STEREO_COUNT>  (1) 
0

>  <PUBCHEM_ATOM_UDEF_STEREO_COUNT>  (1) 
2

>  <PUBCHEM_BOND_DEF_STEREO_COUNT>  (1) 
0

>  <PUBCHEM_BOND_UDEF_STEREO_COUNT>  (1) 
0

>  <PUBCHEM_ISOTOPIC_ATOM_COUNT>  (1) 
0

>  <PUBCHEM_COMPONENT_COUNT>  (1) 
1

>  <PUBCHEM_CACTVS_TAUTO_COUNT>  (1) 
1

>  <PUBCHEM_CONFORMER_ID>  (1) 
0000786D00000001

>  <PUBCHEM_MMFF94_ENERGY>  (1) 
4.6072

>  <PUBCHEM_FEATURE_SELFOVERLAP>  (1) 
40.596

>  <PUBCHEM_SHAPE_FINGERPRINT>  (1) 
10149128 111 18410863156709770597
12162725 195 18410571790423286307
14123260 362 17988937638794045657
14325111 11 18410573993746855374
15775835 57 18410862061493259524
17834072 32 18340210683220376613
18186145 218 17967251983743983794
19422 9 18410852161593642247
1986462 14 17131836477691302415
20279233 1 15357690911775234659
20645477 70 17241025644461983802
20711983 171 18272371966325447981
23048698 100 18186514410468899451
23380061 81 18260832566444173610
23557571 272 17059787701469283061
3248919 1 18410848863058823879

>  <PUBCHEM_SHAPE_MULTIPOLES>  (1) 
209.66
8.6
1.52
0.85
0
0.32
0
3.47
0
0
0
0
0.01
-1.23

>  <PUBCHEM_SHAPE_SELFOVERLAP>  (1) 
376.681

>  <PUBCHEM_SHAPE_VOLUME>  (1) 
136.2

>  <PUBCHEM_COORDINATE_TYPE>  (1) 
2
5
10

$$$$
