30821
     RDKit          3D

 23 25  0  0  1  0  0  0  0  0999 V2000
    0.2443    2.5610   -0.0199 O   0  0  0  0  0  0  0  0  0  0  0  0
    2.4035    1.2477   -0.5011 O   0  0  0  0  0  0  0  0  0  0  0  0
   -4.7394    1.0241    0.5396 N   0  0  0  0  0  0  0  0  0  0  0  0
   -1.2067    0.6770    0.0624 N   0  0  0  0  0  0  0  0  0  0  0  0
   -2.4505    1.3667    0.2693 C   0  0  0  0  0  0  0  0  0  0  0  0
   -3.1577    1.7253   -1.0398 C   0  0  0  0  0  0  0  0  0  0  0  0
   -3.4596    0.5215    1.0402 C   0  0  0  0  0  0  0  0  0  0  0  0
   -4.5580    1.1379   -0.9079 C   0  0  0  0  0  0  0  0  0  0  0  0
   -5.8529    0.1556    0.8923 C   0  0  0  0  0  0  0  0  0  0  0  0
   -1.2292   -0.7845   -0.0211 C   0  0  0  0  0  0  0  0  0  0  0  0
    0.0492    1.3428   -0.0659 C   0  0  0  0  0  0  0  0  0  0  0  0
    1.2483    0.4527   -0.3381 C   0  0  0  0  0  0  0  0  0  0  0  0
   -1.0792   -1.4826    1.1385 C   0  0  0  0  0  0  0  0  0  0  0  0
   -1.3977   -1.3414   -1.2522 C   0  0  0  0  0  0  0  0  0  0  0  0
   -1.1000   -2.8750    1.0589 C   0  0  0  0  0  0  0  0  0  0  0  0
   -1.4185   -2.7339   -1.3317 C   0  0  0  0  0  0  0  0  0  0  0  0
   -1.2697   -3.5008   -0.1760 C   0  0  0  0  0  0  0  0  0  0  0  0
    3.6126    0.6678   -0.1972 C   0  0  0  0  0  0  0  0  0  0  0  0
    3.7750   -0.7008   -0.3619 C   0  0  0  0  0  0  0  0  0  0  0  0
    4.6523    1.4597    0.2701 C   0  0  0  0  0  0  0  0  0  0  0  0
    5.0016   -1.2890   -0.0536 C   0  0  0  0  0  0  0  0  0  0  0  0
    5.8789    0.8713    0.5784 C   0  0  0  0  0  0  0  0  0  0  0  0
    6.0536   -0.5030    0.4166 C   0  0  0  0  0  0  0  0  0  0  0  0
  1 11  2  0
  2 12  1  0
  2 18  1  0
  3  7  1  0
  3  8  1  0
  3  9  1  0
  4  5  1  0
  4 10  1  0
  4 11  1  0
  5  6  1  0
  5  7  1  0
  6  8  1  0
 10 13  2  0
 10 14  1  0
 11 12  1  0
 13 15  1  0
 14 16  2  0
 15 17  2  0
 16 17  1  0
 18 19  2  0
 18 20  1  0
 19 21  1  0
 20 22  2  0
 21 23  2  0
 22 23  1  0
M  END
>  <PUBCHEM_COMPOUND_CID>  (1) 
30821

>  <PUBCHEM_CONFORMER_RMSD>  (1) 
0.8

>  <PUBCHEM_CONFORMER_DIVERSEORDER>  (1) 
2
259
96
56
133
113
230
165
403
150
225
166
199
319
32
358
183
274
47
301
305
188
362
241
170
231
74
310
146
330
268
351
326
372
22
237
373
337
404
232
126
193
10
425
158
290
7
410
208
190
238
1
239
366
97
322
69
61
283
42
219
378
294
94
286
120
255
66
54
327
407
297
360
40
340
427
163
152
377
287
243
18
324
339
123
240
177
328
334
111
210
144
60
182
422
416
254
28
343
191
264
332
272
313
72
21
235
345
68
325
58
355
368
98
263
161
433
386
70
173
280
323
229
129
11
365
27
256
354
52
318
39
260
439
335
17
279
50
187
398
250
101
376
184
293
203
24
164
178
73
429
117
23
67
438
393
342
209
205
86
75
389
128
91
251
46
329
6
112
277
288
417
428
299
176
216
278
302
285
312
257
41
442
80
388
282
281
162
63
130
401
406
419
3
307
116
396
391
234
346
89
83
379
245
157
15
289
426
236
92
107
131
196
395
361
413
418
409
82
341
141
405
214
124
13
367
109
284
206
215
145
37
65
397
140
304
9
421
211
77
212
315
201
381
308
213
306
384
189
220
380
224
246
269
84
160
270
76
221
441
125
435
49
233
55
261
437
44
314
135
138
204
172
321
387
359
85
78
248
174
303
95
29
36
399
331
432
51
142
202
5
292
34
226
266
102
262
59
4
349
348
291
104
147
115
33
412
153
114
415
100
309
207
64
356
353
338
19
371
79
249
192
20
81
296
149
180
127
71
411
169
275
383
43
424
375
400
420
14
48
298
223
197
156
136
265
316
103
217
222
57
344
30
121
320
26
181
198
87
258
273
118
311
357
108
105
227
252
374
168
352
390
382
436
333
244
300
143
45
336
363
392
408
12
267
394
276
175
195
122
247
185
431
200
154
16
434
271
90
25
134
159
62
414
370
423
99
194
430
350
347
110
167
119
171
242
385
402
38
364
186
8
228
88
139
155
93
218
151
317
132
106
53
440
179
295
137
35
148
369
253
31

>  <PUBCHEM_MMFF94_PARTIAL_CHARGES>  (1) 
32
1 -0.57
10 0.12
11 0.57
12 0.34
13 -0.15
14 -0.15
15 -0.15
16 -0.15
17 -0.15
18 0.08
19 -0.15
2 -0.36
20 -0.15
21 -0.15
22 -0.15
23 -0.15
3 -0.81
36 0.15
37 0.15
38 0.15
39 0.15
4 -0.48
40 0.15
41 0.15
42 0.15
43 0.15
44 0.15
45 0.15
5 0.3
7 0.27
8 0.27
9 0.27

>  <PUBCHEM_EFFECTIVE_ROTOR_COUNT>  (1) 
7

>  <PUBCHEM_PHARMACOPHORE_FEATURES>  (1) 
6
1 1 acceptor
1 2 acceptor
1 3 cation
5 3 5 6 7 8 rings
6 10 13 14 15 16 17 rings
6 18 19 20 21 22 23 rings

>  <PUBCHEM_HEAVY_ATOM_COUNT>  (1) 
23

>  <PUBCHEM_ATOM_DEF_STEREO_COUNT>  (1) 
0

>  <PUBCHEM_ATOM_UDEF_STEREO_COUNT>  (1) 
1

>  <PUBCHEM_BOND_DEF_STEREO_COUNT>  (1) 
0

>  <PUBCHEM_BOND_UDEF_STEREO_COUNT>  (1) 
0

>  <PUBCHEM_ISOTOPIC_ATOM_COUNT>  (1) 
0

>  <PUBCHEM_COMPONENT_COUNT>  (1) 
1

>  <PUBCHEM_CACTVS_TAUTO_COUNT>  (1) 
1

>  <PUBCHEM_CONFORMER_ID>  (1) 
0000786500000002

>  <PUBCHEM_MMFF94_ENERGY>  (1) 
97.974

>  <PUBCHEM_FEATURE_SELFOVERLAP>  (1) 
30.46

>  <PUBCHEM_SHAPE_FINGERPRINT>  (1) 
10366900 7 17346597470148989424
10906281 52 17988660596150016820
11405975 8 18341046419673911472
11578080 2 17344340313819931697
12035758 1 18339095855807087363
12422481 6 18051728626491051595
12592029 89 18262524684637575491
12616971 3 17240758524088532172
12715332 25 18413390955849328869
12969540 114 18262502715858582069
13140716 1 18268713990204134016
13533116 47 17417813881904333126
13551218 46 18336547114560084666
14251751 93 18260825990864970173
14617045 38 18337399258063379710
14790565 3 18268432343239106881
14866123 147 18337389447968374315
15042514 8 18262524818061097339
15849732 13 18040154019749475581
19141452 34 18410855486346436532
20197701 30 18335980874724823295
21033648 29 18338217298303336208
21033650 10 16629149618596789376
21236236 1 18342454889626555471
21304303 64 11383834870704037371
21478907 32 17979353385119407511
21859007 373 17823396241747808228
22224240 67 18341901784154401529
23227448 37 18410292531892644422
23402539 116 18202558462946593589
23419403 2 15839851062002672187
23558518 356 17755021135483546672
23559900 14 18342735252549588896
23728640 28 18412546547735491522
283562 15 18270117890617718921
3178227 256 18338249227944075361
3298306 158 18189049802678198319
3383291 50 18412263913260328370
34934 24 18409164420425375210
3545911 37 18412265034874020004
38695281 34 18199466572219923351
4015057 19 17917133005408377680
404807 14 15260910562748556542
5104073 3 18340196514576208032
532947 4 18195530281363396702
5364581 5 18053927718761622440
559249 180 18408315588758888994
58260988 521 18041297495195379875
5924683 9 18200025291288108270
6138700 20 18337956662428064310
6669772 16 18342177713337472359
69090 78 18411700975995902189
7226269 152 18202562860718811232
81228 2 17760916738839131505
9709674 26 18342459244918338726
9953998 17 18341315770464062336

>  <PUBCHEM_SHAPE_MULTIPOLES>  (1) 
451.63
12.51
3.05
1.1
12.04
2.54
0.06
-4.15
-2.27
-1.64
0.28
-0.92
0.35
0.2

>  <PUBCHEM_SHAPE_SELFOVERLAP>  (1) 
963.6

>  <PUBCHEM_SHAPE_VOLUME>  (1) 
250.9

>  <PUBCHEM_COORDINATE_TYPE>  (1) 
2
5
10

$$$$
