30826
     RDKit          3D

 20 21  0  0  0  0  0  0  0  0999 V2000
   -0.1883    2.3860   -0.9276 I   0  0  0  0  0  0  0  0  0  0  0  0
    1.8684   -3.1820    0.5804 I   0  0  0  0  0  0  0  0  0  0  0  0
   -3.9698   -2.3723   -0.2737 I   0  0  0  0  0  0  0  0  0  0  0  0
    4.5957    0.7935   -0.2130 O   0  0  0  0  0  0  0  0  0  0  0  0
    1.9291    0.5360    2.1483 O   0  0  0  0  0  0  0  0  0  0  0  0
   -4.6192    2.2034   -0.0007 O   0  0  0  0  0  0  0  0  0  0  0  0
   -3.2454    1.2019    1.5039 O   0  0  0  0  0  0  0  0  0  0  0  0
    1.8904    0.0172   -0.1474 N   0  0  0  0  0  0  0  0  0  0  0  0
    2.7469   -0.1970   -1.3209 C   0  0  0  0  0  0  0  0  0  0  0  0
    0.5444   -0.5031   -0.1838 C   0  0  0  0  0  0  0  0  0  0  0  0
    3.8531    0.8332   -1.4213 C   0  0  0  0  0  0  0  0  0  0  0  0
    2.4460    0.5479    1.0295 C   0  0  0  0  0  0  0  0  0  0  0  0
    3.7992    1.2304    0.8630 C   0  0  0  0  0  0  0  0  0  0  0  0
   -0.5275    0.3331   -0.4979 C   0  0  0  0  0  0  0  0  0  0  0  0
   -1.8251   -0.1780   -0.5305 C   0  0  0  0  0  0  0  0  0  0  0  0
    0.3173   -1.8506    0.0976 C   0  0  0  0  0  0  0  0  0  0  0  0
   -2.0514   -1.5252   -0.2490 C   0  0  0  0  0  0  0  0  0  0  0  0
   -2.9840    0.7129   -0.8676 C   0  0  0  0  0  0  0  0  0  0  0  0
   -0.9803   -2.3615    0.0650 C   0  0  0  0  0  0  0  0  0  0  0  0
   -3.5995    1.3741    0.3456 C   0  0  0  0  0  0  0  0  0  0  0  0
  1 14  1  0
  2 16  1  0
  3 17  1  0
  4 11  1  0
  4 13  1  0
  5 12  2  0
  6 20  1  0
  7 20  2  0
  8  9  1  0
  8 10  1  0
  8 12  1  0
  9 11  1  0
 10 14  2  0
 10 16  1  0
 12 13  1  0
 14 15  1  0
 15 17  2  0
 15 18  1  0
 16 19  2  0
 17 19  1  0
 18 20  1  0
M  END
>  <PUBCHEM_COMPOUND_CID>  (1) 
30826

>  <PUBCHEM_CONFORMER_RMSD>  (1) 
0.6

>  <PUBCHEM_CONFORMER_DIVERSEORDER>  (1) 
1
8
9
4
12
5
2
3
10
11
7
6

>  <PUBCHEM_MMFF94_PARTIAL_CHARGES>  (1) 
22
1 -0.08
10 0.12
11 0.28
12 0.57
13 0.34
14 0.08
15 -0.14
16 0.08
17 0.08
18 0.2
19 -0.15
2 -0.08
20 0.66
29 0.15
3 -0.08
30 0.5
4 -0.56
5 -0.57
6 -0.65
7 -0.57
8 -0.48
9 0.3

>  <PUBCHEM_EFFECTIVE_ROTOR_COUNT>  (1) 
4

>  <PUBCHEM_PHARMACOPHORE_FEATURES>  (1) 
10
1 1 hydrophobe
1 2 hydrophobe
1 3 hydrophobe
1 4 acceptor
1 5 acceptor
1 6 acceptor
1 7 acceptor
3 6 7 20 anion
6 10 14 15 16 17 19 rings
6 4 8 9 11 12 13 rings

>  <PUBCHEM_HEAVY_ATOM_COUNT>  (1) 
20

>  <PUBCHEM_ATOM_DEF_STEREO_COUNT>  (1) 
0

>  <PUBCHEM_ATOM_UDEF_STEREO_COUNT>  (1) 
0

>  <PUBCHEM_BOND_DEF_STEREO_COUNT>  (1) 
0

>  <PUBCHEM_BOND_UDEF_STEREO_COUNT>  (1) 
0

>  <PUBCHEM_ISOTOPIC_ATOM_COUNT>  (1) 
0

>  <PUBCHEM_COMPONENT_COUNT>  (1) 
1

>  <PUBCHEM_CACTVS_TAUTO_COUNT>  (1) 
1

>  <PUBCHEM_CONFORMER_ID>  (1) 
0000786A00000001

>  <PUBCHEM_MMFF94_ENERGY>  (1) 
83.0564

>  <PUBCHEM_FEATURE_SELFOVERLAP>  (1) 
50.805

>  <PUBCHEM_SHAPE_FINGERPRINT>  (1) 
10382601 240 18190471466949464152
10498660 4 18409443687372599773
11132069 177 18334575741445180445
12236239 1 17241313811435065158
12403814 3 17240478117946788077
12788726 201 17976829996958156951
13140716 1 18263639568117243187
13380535 21 18410013200051892895
13965767 371 18114730539240184868
14178342 30 18337662092317523347
14787075 74 17841985886801331667
14790565 3 18261967360917634965
14955137 171 18042995166354207437
15238133 3 17558548002387954201
15309172 13 18333450953945130813
16752209 62 18264481957063753391
16945 1 18334849502802889853
18186145 218 18131920351061913304
20028762 73 17908710879537022735
20510252 161 18198339761352791443
20600515 1 17255362412651744930
20671657 1 18268146457325338027
20691752 17 17458345199981567974
20739085 24 17830476993704073933
20871999 31 18264784327293346612
21501502 16 18409725128090090927
2334 1 18408317779129276879
23402539 116 18195516215503602166
23557571 272 18270972361554711020
23558518 356 18045790253971789029
23559900 14 18342464742745204372
25147074 1 18337376163629064471
2748010 2 18336824204502144151
283562 15 18193832867639076659
350125 39 18409446951574436483
352729 6 17828771972943988799
44154327 71 18261959539723724709
469060 322 18262247745594573051
5104073 3 18408315593053818114
59554788 170 18047478824453268869
6049 1 17703512211051087795
633830 44 18272082821080621788
7364860 26 18267297630496956326
77492 1 17241033435938314310
7808743 9 18409450279984167469
81228 2 18121212344731991807

>  <PUBCHEM_SHAPE_MULTIPOLES>  (1) 
418.94
7.9
3.36
1.32
0.52
1.64
0.33
-2.26
0.17
1.56
0.05
-0.74
-0.41
-0.72

>  <PUBCHEM_SHAPE_SELFOVERLAP>  (1) 
819.002

>  <PUBCHEM_SHAPE_VOLUME>  (1) 
260.4

>  <PUBCHEM_COORDINATE_TYPE>  (1) 
2
5
10

$$$$
