30824
     RDKit          3D

 19 19  0  0  1  0  0  0  0  0999 V2000
   -2.3833    3.4922    1.3962 Br  0  0  0  0  0  0  0  0  0  0  0  0
   -2.3318   -3.5016   -1.4064 Br  0  0  0  0  0  0  0  0  0  0  0  0
   -2.5925    3.8659   -1.9734 Br  0  0  0  0  0  0  0  0  0  0  0  0
   -2.5355   -3.9163    1.9587 Br  0  0  0  0  0  0  0  0  0  0  0  0
   -0.4977    0.0091    0.0198 N   0  0  0  0  0  0  0  0  0  0  0  0
    1.5220    0.9043    0.8052 N   0  0  0  0  0  0  0  0  0  0  0  0
    1.5116   -0.8837   -0.7948 N   0  0  0  0  0  0  0  0  0  0  0  0
    3.5948    0.0124   -0.0106 N   0  0  0  0  0  0  0  0  0  0  0  0
    3.5734    1.7599    1.5529 N   0  0  0  0  0  0  0  0  0  0  0  0
    3.5529   -1.7341   -1.5747 N   0  0  0  0  0  0  0  0  0  0  0  0
   -1.2447    0.9286    0.8480 C   0  0  0  0  0  0  0  0  0  0  0  0
   -1.2375   -0.9251   -0.8291 C   0  0  0  0  0  0  0  0  0  0  0  0
   -1.4896    2.2645    0.1445 C   0  0  0  0  0  0  0  0  0  0  0  0
   -1.4596   -2.2728   -0.1408 C   0  0  0  0  0  0  0  0  0  0  0  0
    0.9032    0.0098    0.0098 C   0  0  0  0  0  0  0  0  0  0  0  0
   -2.3138    2.1275   -1.1272 C   0  0  0  0  0  0  0  0  0  0  0  0
   -2.2864   -2.1640    1.1321 C   0  0  0  0  0  0  0  0  0  0  0  0
    2.8621    0.8479    0.7432 C   0  0  0  0  0  0  0  0  0  0  0  0
    2.8524   -0.8244   -0.7533 C   0  0  0  0  0  0  0  0  0  0  0  0
  1 13  1  0
  2 14  1  0
  3 16  1  0
  4 17  1  0
  5 11  1  0
  5 12  1  0
  5 15  1  0
  6 15  2  0
  6 18  1  0
  7 15  1  0
  7 19  2  0
  8 18  2  0
  8 19  1  0
  9 18  1  0
 10 19  1  0
 11 13  1  0
 12 14  1  0
 13 16  1  0
 14 17  1  0
M  END
>  <PUBCHEM_COMPOUND_CID>  (1) 
30824

>  <PUBCHEM_CONFORMER_RMSD>  (1) 
0.8

>  <PUBCHEM_CONFORMER_DIVERSEORDER>  (1) 
1
58
128
130
133
122
163
121
193
114
72
115
23
37
84
143
172
170
55
184
99
113
101
165
86
70
164
158
45
68
97
75
17
118
167
22
44
146
162
198
150
30
177
117
6
175
71
123
174
166
160
151
107
94
85
154
27
141
161
93
206
35
61
168
187
191
2
207
134
105
103
131
26
196
21
116
39
111
67
77
91
49
142
157
10
126
208
195
200
125
106
201
199
79
69
173
80
197
169
87
28
100
120
156
179
98
159
109
104
205
78
124
178
66
41
88
147
74
112
83
176
188
64
90
202
140
148
119
137
95
48
65
132
144
89
171
180
110
56
12
54
139
15
60
192
34
46
96
73
16
181
59
182
76
38
108
62
82
135
136
129
8
47
42
153
9
57
81
29
33
194
92
203
190
3
20
155
185
145
24
127
204
36
209
19
31
152
14
149
25
186
63
50
51
13
189
102
11
40
53
7
18
138
5
183
32
4
43
52

>  <PUBCHEM_MMFF94_PARTIAL_CHARGES>  (1) 
23
1 -0.23
10 -0.9
11 0.37
12 0.37
13 0.23
14 0.23
15 0.72
16 0.23
17 0.23
18 0.72
19 0.72
2 -0.23
3 -0.23
30 0.4
31 0.4
32 0.4
33 0.4
4 -0.23
5 -0.84
6 -0.62
7 -0.62
8 -0.62
9 -0.9

>  <PUBCHEM_EFFECTIVE_ROTOR_COUNT>  (1) 
7

>  <PUBCHEM_PHARMACOPHORE_FEATURES>  (1) 
10
1 1 hydrophobe
1 10 donor
1 2 hydrophobe
1 3 hydrophobe
1 4 hydrophobe
1 9 donor
4 5 6 7 15 cation
4 6 8 9 18 cation
4 7 8 10 19 cation
6 6 7 8 15 18 19 rings

>  <PUBCHEM_HEAVY_ATOM_COUNT>  (1) 
19

>  <PUBCHEM_ATOM_DEF_STEREO_COUNT>  (1) 
0

>  <PUBCHEM_ATOM_UDEF_STEREO_COUNT>  (1) 
2

>  <PUBCHEM_BOND_DEF_STEREO_COUNT>  (1) 
0

>  <PUBCHEM_BOND_UDEF_STEREO_COUNT>  (1) 
0

>  <PUBCHEM_ISOTOPIC_ATOM_COUNT>  (1) 
0

>  <PUBCHEM_COMPONENT_COUNT>  (1) 
1

>  <PUBCHEM_CACTVS_TAUTO_COUNT>  (1) 
5

>  <PUBCHEM_CONFORMER_ID>  (1) 
0000786800000001

>  <PUBCHEM_MMFF94_ENERGY>  (1) 
58.8312

>  <PUBCHEM_FEATURE_SELFOVERLAP>  (1) 
50.876

>  <PUBCHEM_SHAPE_FINGERPRINT>  (1) 
12160290 23 18409727348656027185
12532896 13 18191850263242215349
12553582 1 17835814362067841902
12730499 353 17687184193445508573
12759256 9 17404300093255660467
12788726 201 18336809975206400931
13294875 104 17690534430579805344
13681431 1 17687466080342427247
14955137 171 17259087592479994496
15422964 175 18121796181069468147
1813 80 17907029713113878919
18186145 218 17983006756804100244
20600515 1 17534042336336348039
20739085 24 17618794994618037529
21285901 2 18271230729612819783
21304303 282 17611415931856066453
21524375 3 18049722923622674655
22182313 1 17917714621874742252
23557571 272 18337668732289451268
23558518 356 18412545379440570193
25 1 17694509147723635557
2748010 2 18202565081733328508
3084891 72 17623862223310167830
3380486 145 18056756765841262571
59554788 62 18056479680009996115
6049 1 18272944838212394678
633830 44 17699283265924602061
81228 2 18336831978318473081
9981440 41 17128130028479201592

>  <PUBCHEM_SHAPE_MULTIPOLES>  (1) 
384.89
5.92
5.82
1.94
1.63
6.93
0.02
-8.67
0.27
-1.51
-0.27
0.06
-0.95
-2.21

>  <PUBCHEM_SHAPE_SELFOVERLAP>  (1) 
711.153

>  <PUBCHEM_SHAPE_VOLUME>  (1) 
251.6

>  <PUBCHEM_COORDINATE_TYPE>  (1) 
2
5
10

$$$$
