30834
     RDKit          3D

 15 17  0  0  1  0  0  0  0  0999 V2000
    0.3014    1.6185   -0.3107 C   0  0  0  0  0  0  0  0  0  0  0  0
   -0.8628    0.6496   -0.1612 C   0  0  0  0  0  0  0  0  0  0  0  0
    1.4954    0.6839   -0.1771 C   0  0  0  0  0  0  0  0  0  0  0  0
   -0.3867   -0.6688    0.0182 C   0  0  0  0  0  0  0  0  0  0  0  0
    1.0602   -0.6478    0.0084 C   0  0  0  0  0  0  0  0  0  0  0  0
    0.2927    2.7153    0.7464 C   0  0  0  0  0  0  0  0  0  0  0  0
   -2.2201    0.9245   -0.2016 C   0  0  0  0  0  0  0  0  0  0  0  0
   -1.2720   -1.7239    0.1687 C   0  0  0  0  0  0  0  0  0  0  0  0
    2.8434    0.9980   -0.2353 C   0  0  0  0  0  0  0  0  0  0  0  0
    1.9777   -1.6767    0.1466 C   0  0  0  0  0  0  0  0  0  0  0  0
   -3.1118   -0.1390   -0.0499 C   0  0  0  0  0  0  0  0  0  0  0  0
   -2.6423   -1.4500    0.1344 C   0  0  0  0  0  0  0  0  0  0  0  0
    3.7675   -0.0390   -0.0957 C   0  0  0  0  0  0  0  0  0  0  0  0
    3.3389   -1.3633    0.0941 C   0  0  0  0  0  0  0  0  0  0  0  0
   -4.5817    0.1186   -0.0854 C   0  0  0  0  0  0  0  0  0  0  0  0
  1  2  1  0
  1  3  1  0
  1  6  1  0
  2  4  2  0
  2  7  1  0
  3  5  2  0
  3  9  1  0
  4  5  1  0
  4  8  1  0
  5 10  1  0
  7 11  2  0
  8 12  2  0
  9 13  2  0
 10 14  2  0
 11 12  1  0
 11 15  1  0
 13 14  1  0
M  END
>  <PUBCHEM_COMPOUND_CID>  (1) 
30834

>  <PUBCHEM_CONFORMER_RMSD>  (1) 
0.4

>  <PUBCHEM_CONFORMER_DIVERSEORDER>  (1) 
1
2

>  <PUBCHEM_MMFF94_PARTIAL_CHARGES>  (1) 
19
1 0.29
10 -0.15
11 -0.14
12 -0.15
13 -0.15
14 -0.15
15 0.14
2 -0.14
20 0.15
21 0.15
22 0.15
23 0.15
24 0.15
25 0.15
26 0.15
3 -0.14
7 -0.15
8 -0.15
9 -0.15

>  <PUBCHEM_EFFECTIVE_ROTOR_COUNT>  (1) 
0.2

>  <PUBCHEM_PHARMACOPHORE_FEATURES>  (1) 
3
5 1 2 3 4 5 rings
6 2 4 7 8 11 12 rings
6 3 5 9 10 13 14 rings

>  <PUBCHEM_HEAVY_ATOM_COUNT>  (1) 
15

>  <PUBCHEM_ATOM_DEF_STEREO_COUNT>  (1) 
0

>  <PUBCHEM_ATOM_UDEF_STEREO_COUNT>  (1) 
1

>  <PUBCHEM_BOND_DEF_STEREO_COUNT>  (1) 
0

>  <PUBCHEM_BOND_UDEF_STEREO_COUNT>  (1) 
0

>  <PUBCHEM_ISOTOPIC_ATOM_COUNT>  (1) 
0

>  <PUBCHEM_COMPONENT_COUNT>  (1) 
1

>  <PUBCHEM_CACTVS_TAUTO_COUNT>  (1) 
1

>  <PUBCHEM_CONFORMER_ID>  (1) 
0000787200000001

>  <PUBCHEM_MMFF94_ENERGY>  (1) 
50.2548

>  <PUBCHEM_FEATURE_SELFOVERLAP>  (1) 
15.385

>  <PUBCHEM_SHAPE_FINGERPRINT>  (1) 
10130415 120 18408601452727738307
10608611 8 18408318912599359053
10967382 1 18410011043798546422
11132069 177 18410287029975883962
11471102 20 18409726274682153175
11680986 33 18266738180777870313
116883 192 18055642719901654470
12032990 46 18410297990605998110
12382932 28 18411981364567472194
13140716 1 18194117657908118217
13221675 6 18408886247819800043
13380535 76 18409167718422746935
13571099 22 18410856559750669895
14115302 16 18114191851282166743
14144814 61 18410576184264539995
14648413 74 18120373408907026025
14993402 34 18343584044690970295
15196674 1 18409167739907834127
15375462 189 18260548904959922467
15442244 35 18193557757676862922
15536298 74 18413388743914739166
16945 1 18338793545384854077
18186145 218 17603862308210841118
193761 8 17762618790774845918
200 152 18131344228939732511
20201158 50 18408604759863313410
20510252 161 18198903617407383104
20588541 1 18408324401556740959
20645477 70 18410291385104877487
21029758 11 18341887481349225249
21267235 1 18409457959490927786
21501502 16 18265334104323685759
221490 88 18192435401255377915
22721475 48 18408044030376049879
2334 1 18409730698583130254
23402539 116 18201710718000927951
23402655 69 18411973638359111373
23463225 33 18408323276496965942
23559900 14 18411699911751484492
2748010 2 18410574015490678350
3071541 12 18195529422232754688
3071541 158 18261110811194339597
3312278 4 18408890637450287530
335352 9 18049159969031388479
34934 24 18411974797615243430
5104073 3 18336265729534809091
528886 8 18410288133750960426
537710 114 18408890632949773916
53812653 166 18341046431920418816
63268167 104 18409733988575298665
69090 78 18412258441708941111
7364860 26 18197777906378887456
74978 22 18269835479284675311
81228 2 18195823868258262056
8809292 202 18187651335594039163
9709674 26 18409453608578573047

>  <PUBCHEM_SHAPE_MULTIPOLES>  (1) 
308.69
6.35
2.18
0.68
2.16
0.71
-0.02
-1.33
0.28
-0.45
-0.37
-0.02
0.11
0.01

>  <PUBCHEM_SHAPE_SELFOVERLAP>  (1) 
687.798

>  <PUBCHEM_SHAPE_VOLUME>  (1) 
156.8

>  <PUBCHEM_COORDINATE_TYPE>  (1) 
2
5
10

$$$$
