30837
     RDKit          3D

 11 10  0  0  0  0  0  0  0  0999 V2000
    2.6741   -0.0893    0.0004 S   0  0  0  0  0  0  0  0  0  0  0  0
    2.5432   -0.8584   -1.2361 O   0  0  0  0  0  0  0  0  0  0  0  0
    3.7612    0.8886    0.0067 O   0  0  0  0  0  0  0  0  0  0  0  0
    2.5379   -0.8689    1.2297 O   0  0  0  0  0  0  0  0  0  0  0  0
   -2.5406   -0.0126    0.0005 N   0  0  0  0  0  0  0  0  0  0  0  0
   -1.3189    0.8948    0.0204 C   0  0  0  0  0  0  0  0  0  0  0  0
   -0.0386    0.0709   -0.0046 C   0  0  0  0  0  0  0  0  0  0  0  0
   -2.4845   -0.9652    1.1860 C   0  0  0  0  0  0  0  0  0  0  0  0
   -3.8024    0.8337    0.0889 C   0  0  0  0  0  0  0  0  0  0  0  0
   -2.5566   -0.8138   -1.2935 C   0  0  0  0  0  0  0  0  0  0  0  0
    1.2252    0.9201    0.0017 C   0  0  0  0  0  0  0  0  0  0  0  0
  1  2  1  0
  1  3  2  0
  1  4  2  0
  1 11  1  0
  5  6  1  0
  5  8  1  0
  5  9  1  0
  5 10  1  0
  6  7  1  0
  7 11  1  0
M  CHG  2   2  -1   5   1
M  END
>  <PUBCHEM_COMPOUND_CID>  (1) 
30837

>  <PUBCHEM_CONFORMER_RMSD>  (1) 
0.6

>  <PUBCHEM_CONFORMER_DIVERSEORDER>  (1) 
1
2
3

>  <PUBCHEM_MMFF94_PARTIAL_CHARGES>  (1) 
10
1 1.34
10 0.5
11 0.11
2 -0.82
3 -0.82
4 -0.82
5 -1.01
6 0.5
8 0.5
9 0.5

>  <PUBCHEM_EFFECTIVE_ROTOR_COUNT>  (1) 
4

>  <PUBCHEM_PHARMACOPHORE_FEATURES>  (1) 
5
1 2 acceptor
1 3 acceptor
1 4 acceptor
1 5 cation
4 1 2 3 4 anion

>  <PUBCHEM_HEAVY_ATOM_COUNT>  (1) 
11

>  <PUBCHEM_ATOM_DEF_STEREO_COUNT>  (1) 
0

>  <PUBCHEM_ATOM_UDEF_STEREO_COUNT>  (1) 
0

>  <PUBCHEM_BOND_DEF_STEREO_COUNT>  (1) 
0

>  <PUBCHEM_BOND_UDEF_STEREO_COUNT>  (1) 
0

>  <PUBCHEM_ISOTOPIC_ATOM_COUNT>  (1) 
0

>  <PUBCHEM_COMPONENT_COUNT>  (1) 
1

>  <PUBCHEM_CACTVS_TAUTO_COUNT>  (1) 
1

>  <PUBCHEM_CONFORMER_ID>  (1) 
0000787500000001

>  <PUBCHEM_MMFF94_ENERGY>  (1) 
29.8378

>  <PUBCHEM_FEATURE_SELFOVERLAP>  (1) 
25.441

>  <PUBCHEM_SHAPE_FINGERPRINT>  (1) 
11062470 55 18410854360637860393
12500047 106 17274818043371908933
12932764 1 18410849962586087525
13296908 3 18411145735519365650
14144814 61 18114180809079588529
14325111 11 18413108363759128061
15310529 11 14562522969033901465
15775835 57 17704073997010473127
18186145 218 17603586318123255462
20201158 50 18410013229979228098
20279233 1 18410859862490882130
20281407 28 17703791422458817977
20528008 55 16271920506802946781
20645477 56 16515675641964206837
20645477 70 17988364754338571846
21028194 46 9079116652456690785
22169311 21 17385995187394897466
3248919 1 18259983790300694596

>  <PUBCHEM_SHAPE_MULTIPOLES>  (1) 
207.64
6.83
1.14
1.11
0.94
0.01
-0.05
0.26
0.02
-0.14
0.03
-0.19
-0.46
-0.01

>  <PUBCHEM_SHAPE_SELFOVERLAP>  (1) 
373.513

>  <PUBCHEM_SHAPE_VOLUME>  (1) 
136.9

>  <PUBCHEM_COORDINATE_TYPE>  (1) 
2
5
10

$$$$
