3084
     RDKit          3D

 33 33  0  0  1  0  0  0  0  0999 V2000
    1.5484    2.1934    2.5814 O   0  0  0  0  0  0  0  0  0  0  0  0
    2.9308    3.3262    0.4536 O   0  0  0  0  0  0  0  0  0  0  0  0
   -2.2275    2.8201   -2.0116 O   0  0  0  0  0  0  0  0  0  0  0  0
   -5.6113   -1.5657    0.3824 O   0  0  0  0  0  0  0  0  0  0  0  0
   -1.8294    2.5405    0.2078 O   0  0  0  0  0  0  0  0  0  0  0  0
   -4.6878    0.2582    1.3739 O   0  0  0  0  0  0  0  0  0  0  0  0
    2.8931   -3.7248   -2.3287 O   0  0  0  0  0  0  0  0  0  0  0  0
    0.4212   -2.9225    3.4416 O   0  0  0  0  0  0  0  0  0  0  0  0
    1.1010   -0.3394   -3.1442 O   0  0  0  0  0  0  0  0  0  0  0  0
   -0.4239    1.2323   -3.2991 O   0  0  0  0  0  0  0  0  0  0  0  0
    3.1050   -1.8331   -1.0882 O   0  0  0  0  0  0  0  0  0  0  0  0
    2.0464   -1.5838    2.5880 O   0  0  0  0  0  0  0  0  0  0  0  0
   -2.3562   -0.1465   -0.0227 N   0  0  0  0  0  0  0  0  0  0  0  0
    0.6778   -2.3254    0.1046 N   0  0  0  0  0  0  0  0  0  0  0  0
    0.4535    0.6142   -2.6511 N   0  0  0  0  0  0  0  0  0  0  0  0
   -1.0385   -0.6184   -0.4674 C   0  0  0  0  0  0  0  0  0  0  0  0
   -0.7346   -1.9641    0.2200 C   0  0  0  0  0  0  0  0  0  0  0  0
    0.0290    0.4395   -0.2427 C   0  0  0  0  0  0  0  0  0  0  0  0
   -2.9234    0.7698   -1.0080 C   0  0  0  0  0  0  0  0  0  0  0  0
   -3.2488   -1.2802    0.2021 C   0  0  0  0  0  0  0  0  0  0  0  0
    0.7229    1.0076   -1.3110 C   0  0  0  0  0  0  0  0  0  0  0  0
    0.3093    0.8408    1.0634 C   0  0  0  0  0  0  0  0  0  0  0  0
    0.9506   -2.9076   -1.2089 C   0  0  0  0  0  0  0  0  0  0  0  0
    1.0552   -3.2584    1.1656 C   0  0  0  0  0  0  0  0  0  0  0  0
    1.2834    1.8105    1.3011 C   0  0  0  0  0  0  0  0  0  0  0  0
    1.6971    1.9771   -1.0733 C   0  0  0  0  0  0  0  0  0  0  0  0
    1.9772    2.3787    0.2328 C   0  0  0  0  0  0  0  0  0  0  0  0
   -2.2615    2.1113   -0.8546 C   0  0  0  0  0  0  0  0  0  0  0  0
   -4.5670   -0.7618    0.7073 C   0  0  0  0  0  0  0  0  0  0  0  0
    2.4164   -2.7546   -1.5080 C   0  0  0  0  0  0  0  0  0  0  0  0
    1.2322   -2.4869    2.4441 C   0  0  0  0  0  0  0  0  0  0  0  0
    0.7921    3.2852    3.1010 C   0  0  0  0  0  0  0  0  0  0  0  0
    4.2672    2.8677    0.6485 C   0  0  0  0  0  0  0  0  0  0  0  0
  1 25  1  0
  1 32  1  0
  2 27  1  0
  2 33  1  0
  3 28  1  0
  4 29  1  0
  5 28  2  0
  6 29  2  0
  7 30  1  0
  8 31  1  0
  9 15  1  0
 10 15  2  0
 11 30  2  0
 12 31  2  0
 13 16  1  0
 13 19  1  0
 13 20  1  0
 14 17  1  0
 14 23  1  0
 14 24  1  0
 15 21  1  0
 16 17  1  0
 16 18  1  0
 18 21  2  0
 18 22  1  0
 19 28  1  0
 20 29  1  0
 21 26  1  0
 22 25  2  0
 23 30  1  0
 24 31  1  0
 25 27  1  0
 26 27  2  0
M  CHG  2   9  -1  15   1
M  END
>  <PUBCHEM_COMPOUND_CID>  (1) 
3084

>  <PUBCHEM_CONFORMER_RMSD>  (1) 
1.2

>  <PUBCHEM_CONFORMER_DIVERSEORDER>  (1) 
1
2
5
3
4

>  <PUBCHEM_MMFF94_PARTIAL_CHARGES>  (1) 
39
1 -0.36
10 -0.52
11 -0.57
12 -0.57
13 -0.81
14 -0.81
15 0.91
16 0.41
17 0.27
18 -0.14
19 0.33
2 -0.36
20 0.33
21 0.13
22 -0.15
23 0.33
24 0.33
25 0.08
26 -0.15
27 0.08
28 0.66
29 0.66
3 -0.65
30 0.66
31 0.66
32 0.28
33 0.28
4 -0.65
41 0.15
46 0.15
47 0.5
48 0.5
5 -0.57
52 0.5
53 0.5
6 -0.57
7 -0.65
8 -0.65
9 -0.52

>  <PUBCHEM_EFFECTIVE_ROTOR_COUNT>  (1) 
15

>  <PUBCHEM_PHARMACOPHORE_FEATURES>  (1) 
20
1 1 acceptor
1 10 acceptor
1 11 acceptor
1 12 acceptor
1 13 cation
1 14 cation
1 2 acceptor
1 3 acceptor
1 4 acceptor
1 5 acceptor
1 6 acceptor
1 7 acceptor
1 8 acceptor
1 9 acceptor
1 9 anion
3 3 5 28 anion
3 4 6 29 anion
3 7 11 30 anion
3 8 12 31 anion
6 18 21 22 25 26 27 rings

>  <PUBCHEM_HEAVY_ATOM_COUNT>  (1) 
33

>  <PUBCHEM_ATOM_DEF_STEREO_COUNT>  (1) 
0

>  <PUBCHEM_ATOM_UDEF_STEREO_COUNT>  (1) 
1

>  <PUBCHEM_BOND_DEF_STEREO_COUNT>  (1) 
0

>  <PUBCHEM_BOND_UDEF_STEREO_COUNT>  (1) 
0

>  <PUBCHEM_ISOTOPIC_ATOM_COUNT>  (1) 
0

>  <PUBCHEM_COMPONENT_COUNT>  (1) 
1

>  <PUBCHEM_CACTVS_TAUTO_COUNT>  (1) 
1

>  <PUBCHEM_CONFORMER_ID>  (1) 
00000C0C00000001

>  <PUBCHEM_MMFF94_ENERGY>  (1) 
122.2174

>  <PUBCHEM_FEATURE_SELFOVERLAP>  (1) 
101.842

>  <PUBCHEM_SHAPE_FINGERPRINT>  (1) 
11578080 2 17242435136537028583
12160290 23 17258187083719218497
133893 2 17905000938013985286
14787075 74 18263949681867091254
14955137 171 18201716241197560674
16945 1 17325202927560101727
17980427 26 17560233764599722549
20600515 1 17468181259183555890
20642791 239 17757568360380623692
23419403 2 18338514145067284804
35225 105 17620159445862314744
469060 322 16667172856298013746
5265222 85 17835253616345442340
5845 1 15889940645481838848
70251023 43 18265068972257368227
81228 2 17040888423231535225

>  <PUBCHEM_SHAPE_MULTIPOLES>  (1) 
593.75
6.05
4.97
3.23
7.18
2.29
0.35
-2.02
1.41
-4.2
0.74
-1.54
0.56
1.99

>  <PUBCHEM_SHAPE_SELFOVERLAP>  (1) 
1232.386

>  <PUBCHEM_SHAPE_VOLUME>  (1) 
337.4

>  <PUBCHEM_COORDINATE_TYPE>  (1) 
2
5
10

$$$$
