30844
     RDKit          3D

 27 30  0  0  1  0  0  0  0  0999 V2000
    2.7414    1.4431    2.0893 O   0  0  0  0  0  0  0  0  0  0  0  0
    5.1216    2.3160   -1.7442 O   0  0  0  0  0  0  0  0  0  0  0  0
   -2.3053    1.0862    0.5880 N   0  0  0  0  0  0  0  0  0  0  0  0
    3.8847    1.8588    0.1441 N   0  0  0  0  0  0  0  0  0  0  0  0
    0.5443    0.4152    0.7442 C   0  0  0  0  0  0  0  0  0  0  0  0
    1.9188    0.3367    0.0857 C   0  0  0  0  0  0  0  0  0  0  0  0
   -0.4697   -0.4684    0.0097 C   0  0  0  0  0  0  0  0  0  0  0  0
    0.0359    1.8601    0.7878 C   0  0  0  0  0  0  0  0  0  0  0  0
    1.8055    0.8982   -1.3497 C   0  0  0  0  0  0  0  0  0  0  0  0
   -1.8721   -0.3174    0.6026 C   0  0  0  0  0  0  0  0  0  0  0  0
   -1.3831    1.9338    1.3555 C   0  0  0  0  0  0  0  0  0  0  0  0
    2.3852   -1.1298    0.1005 C   0  0  0  0  0  0  0  0  0  0  0  0
    2.8547    1.2670    0.8746 C   0  0  0  0  0  0  0  0  0  0  0  0
    3.1657    0.9701   -2.0264 C   0  0  0  0  0  0  0  0  0  0  0  0
   -3.6664    1.2072    1.1100 C   0  0  0  0  0  0  0  0  0  0  0  0
    4.1414    1.7876   -1.2199 C   0  0  0  0  0  0  0  0  0  0  0  0
    3.0938   -1.6167    1.1936 C   0  0  0  0  0  0  0  0  0  0  0  0
    2.0943   -1.9565   -0.9795 C   0  0  0  0  0  0  0  0  0  0  0  0
   -4.6528    0.4147    0.2940 C   0  0  0  0  0  0  0  0  0  0  0  0
    3.5165   -2.9459    1.2070 C   0  0  0  0  0  0  0  0  0  0  0  0
    2.5171   -3.2858   -0.9661 C   0  0  0  0  0  0  0  0  0  0  0  0
    3.2282   -3.7804    0.1272 C   0  0  0  0  0  0  0  0  0  0  0  0
   -5.2864    1.0160   -0.7843 C   0  0  0  0  0  0  0  0  0  0  0  0
   -4.9141   -0.9057    0.6317 C   0  0  0  0  0  0  0  0  0  0  0  0
   -6.2002    0.2819   -1.5405 C   0  0  0  0  0  0  0  0  0  0  0  0
   -5.8279   -1.6399   -0.1244 C   0  0  0  0  0  0  0  0  0  0  0  0
   -6.4710   -1.0460   -1.2105 C   0  0  0  0  0  0  0  0  0  0  0  0
  1 13  2  0
  2 16  2  0
  3 10  1  0
  3 11  1  0
  3 15  1  0
  4 13  1  0
  4 16  1  0
  5  6  1  0
  5  7  1  0
  5  8  1  0
  6  9  1  0
  6 12  1  0
  6 13  1  0
  7 10  1  0
  8 11  1  0
  9 14  1  0
 12 17  2  0
 12 18  1  0
 14 16  1  0
 15 19  1  0
 17 20  1  0
 18 21  2  0
 19 23  2  0
 19 24  1  0
 20 22  2  0
 21 22  1  0
 23 25  1  0
 24 26  2  0
 25 27  2  0
 26 27  1  0
M  END
>  <PUBCHEM_COMPOUND_CID>  (1) 
30844

>  <PUBCHEM_CONFORMER_RMSD>  (1) 
0.8

>  <PUBCHEM_CONFORMER_DIVERSEORDER>  (1) 
1
11
17
2
9
8
10
13
16
20
12
4
3
15
6
7
19
5
18
14

>  <PUBCHEM_MMFF94_PARTIAL_CHARGES>  (1) 
34
1 -0.57
10 0.27
11 0.27
12 -0.14
13 0.57
14 0.06
15 0.41
16 0.57
17 -0.15
18 -0.15
19 -0.14
2 -0.57
20 -0.15
21 -0.15
22 -0.15
23 -0.15
24 -0.15
25 -0.15
26 -0.15
27 -0.15
3 -0.81
4 -0.49
43 0.37
44 0.15
45 0.15
46 0.15
47 0.15
48 0.15
49 0.15
50 0.15
51 0.15
52 0.15
53 0.15
6 0.2

>  <PUBCHEM_EFFECTIVE_ROTOR_COUNT>  (1) 
6

>  <PUBCHEM_PHARMACOPHORE_FEATURES>  (1) 
8
1 1 acceptor
1 2 acceptor
1 3 cation
1 4 donor
6 12 17 18 20 21 22 rings
6 19 23 24 25 26 27 rings
6 3 5 7 8 10 11 rings
6 4 6 9 13 14 16 rings

>  <PUBCHEM_HEAVY_ATOM_COUNT>  (1) 
27

>  <PUBCHEM_ATOM_DEF_STEREO_COUNT>  (1) 
1

>  <PUBCHEM_ATOM_UDEF_STEREO_COUNT>  (1) 
0

>  <PUBCHEM_BOND_DEF_STEREO_COUNT>  (1) 
0

>  <PUBCHEM_BOND_UDEF_STEREO_COUNT>  (1) 
0

>  <PUBCHEM_ISOTOPIC_ATOM_COUNT>  (1) 
0

>  <PUBCHEM_COMPONENT_COUNT>  (1) 
1

>  <PUBCHEM_CACTVS_TAUTO_COUNT>  (1) 
3

>  <PUBCHEM_CONFORMER_ID>  (1) 
0000787C00000001

>  <PUBCHEM_MMFF94_ENERGY>  (1) 
87.6262

>  <PUBCHEM_FEATURE_SELFOVERLAP>  (1) 
40.597

>  <PUBCHEM_SHAPE_FINGERPRINT>  (1) 
10366900 7 18272379710278291537
10447042 23 18272077301978833879
10940486 97 17548719386854867724
11069576 57 18340770338548604702
11315621 136 18341623572351282582
11545043 162 13758088359230753433
11823591 26 18189339142637223260
11963148 33 18192988438609676171
12616971 3 18267311937275164633
12788726 201 17703798007208127041
13150687 139 18269855258300385108
13533116 47 18342173350267396955
13540713 5 18127145086131936512
13968360 50 18334015025665764270
14848178 5 18199458888476386443
15003188 33 18188486874890924565
15183329 4 17775003467514505005
15250474 111 18273211968151817639
15348495 7 10807933787003971037
15537594 2 18060142085245217591
15961568 22 17458345268637735765
16989378 47 18127150596991904158
17134984 74 18058436772849382159
17349148 13 18130788915491092851
17492 89 18200031725165058691
17857418 61 18272364227422329403
1813 80 17974294218750726402
20645477 70 18408886209223272803
20721686 146 14490761217002599030
21033650 10 16879067439259095141
21054139 6 18270405013164388452
21304303 282 17543353113092107828
23559900 14 18334856078376831667
25147074 1 18200044918972088289
25222932 49 17915732275039366903
3004659 81 18337105675130866891
3103668 31 17689728875315673254
312423 11 18199760158487450561
312425 83 17895193260499020221
32027 91 17531526456158681611
34797466 226 17458065984895490173
376196 1 16663200557290136100
404807 78 17900830658214885627
5104073 3 18059856134980909987
59755656 215 17894354376118670572
633830 44 17604440591804223073
7164475 11 18339362933573971129
960060 61 18408606942160075237

>  <PUBCHEM_SHAPE_MULTIPOLES>  (1) 
533.95
13.63
3.37
1.69
23.18
2.68
-0.3
1.85
-4.8
-5.34
-0.02
-0.89
-0.59
-1.65

>  <PUBCHEM_SHAPE_SELFOVERLAP>  (1) 
1158.952

>  <PUBCHEM_SHAPE_VOLUME>  (1) 
286.7

>  <PUBCHEM_COORDINATE_TYPE>  (1) 
2
5
10

$$$$
