30850
     RDKit          3D

 23 25  0  0  0  0  0  0  0  0999 V2000
   -4.7475    1.9027   -0.3116 O   0  0  0  0  0  0  0  0  0  0  0  0
   -5.7917   -0.6280    0.1309 O   0  0  0  0  0  0  0  0  0  0  0  0
    6.2717   -0.0131   -0.0204 N   0  0  0  0  0  0  0  0  0  0  0  0
   -1.7049   -0.0458    0.0142 C   0  0  0  0  0  0  0  0  0  0  0  0
   -0.2518   -0.2173    0.0387 C   0  0  0  0  0  0  0  0  0  0  0  0
   -2.2319   -1.3309    0.2394 C   0  0  0  0  0  0  0  0  0  0  0  0
    0.0182   -1.6229    0.2819 C   0  0  0  0  0  0  0  0  0  0  0  0
   -1.1404   -2.2916    0.4025 C   0  0  0  0  0  0  0  0  0  0  0  0
   -2.5299    1.0488   -0.1729 C   0  0  0  0  0  0  0  0  0  0  0  0
    0.6682    0.7370   -0.1302 C   0  0  0  0  0  0  0  0  0  0  0  0
   -3.5993   -1.5432    0.2805 C   0  0  0  0  0  0  0  0  0  0  0  0
    2.1284    0.5416   -0.1016 C   0  0  0  0  0  0  0  0  0  0  0  0
   -3.9110    0.8398   -0.1317 C   0  0  0  0  0  0  0  0  0  0  0  0
   -4.4405   -0.4432    0.0926 C   0  0  0  0  0  0  0  0  0  0  0  0
    4.8741    0.1739   -0.0478 C   0  0  0  0  0  0  0  0  0  0  0  0
    2.8079    0.6803    1.0976 C   0  0  0  0  0  0  0  0  0  0  0  0
    2.7933    0.2228   -1.2746 C   0  0  0  0  0  0  0  0  0  0  0  0
    4.1902    0.4954    1.1247 C   0  0  0  0  0  0  0  0  0  0  0  0
    4.1756    0.0377   -1.2476 C   0  0  0  0  0  0  0  0  0  0  0  0
    6.9220   -0.5133    1.1745 C   0  0  0  0  0  0  0  0  0  0  0  0
    7.0745    0.2792   -1.1913 C   0  0  0  0  0  0  0  0  0  0  0  0
   -5.1379    2.6222    0.8551 C   0  0  0  0  0  0  0  0  0  0  0  0
   -6.4376   -0.9318   -1.1029 C   0  0  0  0  0  0  0  0  0  0  0  0
  1 13  1  0
  1 22  1  0
  2 14  1  0
  2 23  1  0
  3 15  1  0
  3 20  1  0
  3 21  1  0
  4  5  1  0
  4  6  2  0
  4  9  1  0
  5  7  1  0
  5 10  2  0
  6  8  1  0
  6 11  1  0
  7  8  2  0
  9 13  2  0
 10 12  1  0
 11 14  2  0
 12 16  2  0
 12 17  1  0
 13 14  1  0
 15 18  2  0
 15 19  1  0
 16 18  1  0
 17 19  2  0
M  END
>  <PUBCHEM_COMPOUND_CID>  (1) 
30850

>  <PUBCHEM_CONFORMER_RMSD>  (1) 
0.6

>  <PUBCHEM_CONFORMER_DIVERSEORDER>  (1) 
1
2

>  <PUBCHEM_MMFF94_PARTIAL_CHARGES>  (1) 
32
1 -0.36
10 -0.18
11 -0.15
12 0.03
13 0.08
14 0.08
15 0.1
16 -0.15
17 -0.15
18 -0.15
19 -0.15
2 -0.36
20 0.37
21 0.37
22 0.28
23 0.28
24 0.15
25 0.15
26 0.15
27 0.15
28 0.15
29 0.15
3 -0.84
30 0.15
31 0.15
32 0.15
4 0.03
5 -0.03
6 0.03
7 -0.15
8 -0.18
9 -0.15

>  <PUBCHEM_EFFECTIVE_ROTOR_COUNT>  (1) 
4

>  <PUBCHEM_PHARMACOPHORE_FEATURES>  (1) 
6
1 1 acceptor
1 2 acceptor
1 3 cation
5 4 5 6 7 8 rings
6 12 15 16 17 18 19 rings
6 4 6 9 11 13 14 rings

>  <PUBCHEM_HEAVY_ATOM_COUNT>  (1) 
23

>  <PUBCHEM_ATOM_DEF_STEREO_COUNT>  (1) 
0

>  <PUBCHEM_ATOM_UDEF_STEREO_COUNT>  (1) 
0

>  <PUBCHEM_BOND_DEF_STEREO_COUNT>  (1) 
0

>  <PUBCHEM_BOND_UDEF_STEREO_COUNT>  (1) 
1

>  <PUBCHEM_ISOTOPIC_ATOM_COUNT>  (1) 
0

>  <PUBCHEM_COMPONENT_COUNT>  (1) 
1

>  <PUBCHEM_CACTVS_TAUTO_COUNT>  (1) 
1

>  <PUBCHEM_CONFORMER_ID>  (1) 
0000788200000001

>  <PUBCHEM_MMFF94_ENERGY>  (1) 
116.9305

>  <PUBCHEM_FEATURE_SELFOVERLAP>  (1) 
30.535

>  <PUBCHEM_SHAPE_FINGERPRINT>  (1) 
10299344 5 17967533463685522986
10411042 1 17977668933785891003
10670039 82 18335980896089234189
11315181 36 18041001773215918981
11578080 2 16734931356209678983
11796584 16 18411423913032519798
12166972 35 18342458179023125040
12236239 1 17603304856390298708
12390115 104 18270689667118674065
12403259 415 18131066056286567944
12516196 113 17132115749682164704
13533116 47 18202003184258592734
13590594 115 16805324379589697396
13914758 101 15697728008396242898
14251752 14 18334575737730253666
14251764 18 18259703397988012898
14294032 229 18189327980218064661
15042514 8 18119813762459227787
15183329 4 18113338605111746222
17844677 252 18343305898182480552
19489759 90 18413388744020156281
200 152 15123515795773151570
20281389 69 18040432196508002148
20645477 70 16773527607004348302
20681677 155 18113339734793497378
21033648 29 17703496753490423640
21236236 1 18411419501684018121
21267235 1 18335425711863646675
21279426 13 18198628735242226142
22122407 14 15647060352309680349
22224240 67 16487252197614683918
23402539 116 18413666911381763685
23522609 53 17750538229425866412
23536379 177 18186239528973778912
23559900 14 18268427017605818688
25147074 1 18263068947610453835
2916195 48 18131062753414636217
3004659 81 18259990358450532350
335352 9 18334856156292767903
3545911 37 18413389843036230187
4073 2 17604999290103511482
5104073 3 18263932047021323155
5265222 85 18267877266925505846
5385378 56 18265621974675661467
542803 24 17603868914418869668
559249 180 18260544511625272194
59755656 215 18410856555683049734
59755656 520 18334287691280085103
6328613 192 18187653548140656132
7226269 152 18343586213586547792

>  <PUBCHEM_SHAPE_MULTIPOLES>  (1) 
456.61
17.67
1.81
1.1
12.13
0.2
-0.09
1.95
-1.41
-3.41
0.39
1.2
0.07
-0.6

>  <PUBCHEM_SHAPE_SELFOVERLAP>  (1) 
991.935

>  <PUBCHEM_SHAPE_VOLUME>  (1) 
253.1

>  <PUBCHEM_COORDINATE_TYPE>  (1) 
2
5
10

$$$$
