30859
     RDKit          3D

 19 19  0  0  0  0  0  0  0  0999 V2000
   -0.8117   -3.1357    0.7418 Cl  0  0  0  0  0  0  0  0  0  0  0  0
   -2.7427    2.7311   -0.1765 Cl  0  0  0  0  0  0  0  0  0  0  0  0
    1.7799    0.3138   -2.4199 S   0  0  0  0  0  0  0  0  0  0  0  0
   -4.9428    0.3122    0.2544 S   0  0  0  0  0  0  0  0  0  0  0  0
    2.0417    0.1187   -0.4971 P   0  0  0  0  0  0  0  0  0  0  0  0
    0.9119   -0.7104    0.3180 O   0  0  0  0  0  0  0  0  0  0  0  0
    3.3943   -0.6644   -0.0394 O   0  0  0  0  0  0  0  0  0  0  0  0
    2.1622    1.4826    0.3819 O   0  0  0  0  0  0  0  0  0  0  0  0
   -0.4370   -0.4776    0.3041 C   0  0  0  0  0  0  0  0  0  0  0  0
    3.5371   -2.0473   -0.3169 C   0  0  0  0  0  0  0  0  0  0  0  0
    3.0714    2.4962   -0.0118 C   0  0  0  0  0  0  0  0  0  0  0  0
   -1.3465   -1.5151    0.4884 C   0  0  0  0  0  0  0  0  0  0  0  0
   -0.8854    0.8245    0.1004 C   0  0  0  0  0  0  0  0  0  0  0  0
   -3.1694    0.0547    0.2653 C   0  0  0  0  0  0  0  0  0  0  0  0
   -2.2544    1.0912    0.0810 C   0  0  0  0  0  0  0  0  0  0  0  0
   -2.7155   -1.2485    0.4689 C   0  0  0  0  0  0  0  0  0  0  0  0
    4.8746   -2.5206    0.2112 C   0  0  0  0  0  0  0  0  0  0  0  0
    2.9842    3.6452    0.9698 C   0  0  0  0  0  0  0  0  0  0  0  0
   -5.4518   -0.7507   -1.1235 C   0  0  0  0  0  0  0  0  0  0  0  0
  1 12  1  0
  2 15  1  0
  3  5  2  0
  4 14  1  0
  4 19  1  0
  5  6  1  0
  5  7  1  0
  5  8  1  0
  6  9  1  0
  7 10  1  0
  8 11  1  0
  9 12  2  0
  9 13  1  0
 10 17  1  0
 11 18  1  0
 12 16  1  0
 13 15  2  0
 14 15  1  0
 14 16  2  0
M  END
>  <PUBCHEM_COMPOUND_CID>  (1) 
30859

>  <PUBCHEM_CONFORMER_RMSD>  (1) 
0.8

>  <PUBCHEM_CONFORMER_DIVERSEORDER>  (1) 
1
31
19
53
39
14
27
13
40
41
20
49
54
12
47
35
55
36
11
8
30
15
24
21
38
7
58
44
4
50
34
6
46
51
5
37
42
16
43
45
32
48
25
59
33
29
57
52
17
23
3
56
10
26
9
28
18
2
22

>  <PUBCHEM_MMFF94_PARTIAL_CHARGES>  (1) 
19
1 -0.18
10 0.28
11 0.28
12 0.18
13 -0.15
14 0.1
15 0.18
16 -0.15
19 0.23
2 -0.18
24 0.15
25 0.15
3 -0.68
4 -0.33
5 1.49
6 -0.35
7 -0.55
8 -0.55
9 0.08

>  <PUBCHEM_EFFECTIVE_ROTOR_COUNT>  (1) 
7

>  <PUBCHEM_PHARMACOPHORE_FEATURES>  (1) 
2
1 19 hydrophobe
6 9 12 13 14 15 16 rings

>  <PUBCHEM_HEAVY_ATOM_COUNT>  (1) 
19

>  <PUBCHEM_ATOM_DEF_STEREO_COUNT>  (1) 
0

>  <PUBCHEM_ATOM_UDEF_STEREO_COUNT>  (1) 
0

>  <PUBCHEM_BOND_DEF_STEREO_COUNT>  (1) 
0

>  <PUBCHEM_BOND_UDEF_STEREO_COUNT>  (1) 
0

>  <PUBCHEM_ISOTOPIC_ATOM_COUNT>  (1) 
0

>  <PUBCHEM_COMPONENT_COUNT>  (1) 
1

>  <PUBCHEM_CACTVS_TAUTO_COUNT>  (1) 
1

>  <PUBCHEM_CONFORMER_ID>  (1) 
0000788B00000001

>  <PUBCHEM_MMFF94_ENERGY>  (1) 
32.2586

>  <PUBCHEM_FEATURE_SELFOVERLAP>  (1) 
10.148

>  <PUBCHEM_SHAPE_FINGERPRINT>  (1) 
10608611 8 18410857697959506728
12403259 226 18336543807176972789
12403259 415 18113333090342291277
12403260 363 18341047432779427049
12616999 72 16415208917653104029
12930653 34 17978510063942486546
13140716 1 18337404806923827715
13533116 47 18409729573317373751
14178342 30 17899981835205963522
14466204 15 18120933906523655888
14866123 147 16683168332843250818
15295992 7 18336846216040159793
17802600 8 18335984177364737237
17804303 29 18262525784175440230
18186145 218 18040150721657567095
20369508 70 18411984641843913734
20600515 1 17912371927182159464
20645477 56 18261110841543635177
20645477 70 17988934404414477500
21524375 3 18188217489993885835
21859007 373 17605528016771627005
23402539 116 18340763737610709679
23419403 2 16459357861662230453
23559900 14 18412543240979653034
2748010 2 18120663689167846299
3286 77 18409449146186148004
350125 39 18262525792733869125
351380 180 18412542089754168831
5104073 3 18410864282608186731
59755656 215 18338236072222084724
633830 44 18272376360878805949
67856867 119 18200867478360554176
7364860 26 18411984689315140944
77188 2 18268431236044262496
9709674 26 18338519741425904290
9981440 41 17905885134826581928

>  <PUBCHEM_SHAPE_MULTIPOLES>  (1) 
388.69
9.52
3.69
1.21
3.43
1.36
0.85
-1.54
0.87
-3.7
-1.27
-0.43
0.16
0.53

>  <PUBCHEM_SHAPE_SELFOVERLAP>  (1) 
720.658

>  <PUBCHEM_SHAPE_VOLUME>  (1) 
249.5

>  <PUBCHEM_COORDINATE_TYPE>  (1) 
2
5
10

$$$$
