30880
     RDKit          3D

 11 12  0  0  0  0  0  0  0  0999 V2000
   -3.7615   -0.7721    0.0497 Cl  0  0  0  0  0  0  0  0  0  0  0  0
    2.6009   -0.9179   -0.4044 O   0  0  0  0  0  0  0  0  0  0  0  0
    2.8351    0.2505    0.4415 N   0  0  0  0  0  0  0  0  0  0  0  0
    0.4827    0.7729   -0.0268 C   0  0  0  0  0  0  0  0  0  0  0  0
    0.2375   -0.6136    0.0102 C   0  0  0  0  0  0  0  0  0  0  0  0
    1.9092    1.2640   -0.0752 C   0  0  0  0  0  0  0  0  0  0  0  0
    1.4086   -1.5621    0.0630 C   0  0  0  0  0  0  0  0  0  0  0  0
   -0.5915    1.6669   -0.0699 C   0  0  0  0  0  0  0  0  0  0  0  0
   -1.0772   -1.0869    0.0446 C   0  0  0  0  0  0  0  0  0  0  0  0
   -1.9007    1.1856   -0.0467 C   0  0  0  0  0  0  0  0  0  0  0  0
   -2.1429   -0.1871    0.0138 C   0  0  0  0  0  0  0  0  0  0  0  0
  1 11  1  0
  2  3  1  0
  2  7  1  0
  3  6  1  0
  4  5  2  0
  4  6  1  0
  4  8  1  0
  5  7  1  0
  5  9  1  0
  8 10  2  0
  9 11  2  0
 10 11  1  0
M  END
>  <PUBCHEM_COMPOUND_CID>  (1) 
30880

>  <PUBCHEM_CONFORMER_RMSD>  (1) 
0.4

>  <PUBCHEM_CONFORMER_DIVERSEORDER>  (1) 
1

>  <PUBCHEM_MMFF94_PARTIAL_CHARGES>  (1) 
15
1 -0.18
10 -0.15
11 0.18
16 0.15
17 0.15
18 0.36
19 0.15
2 -0.18
3 -0.73
4 -0.14
5 -0.14
6 0.41
7 0.42
8 -0.15
9 -0.15

>  <PUBCHEM_EFFECTIVE_ROTOR_COUNT>  (1) 
0.8

>  <PUBCHEM_PHARMACOPHORE_FEATURES>  (1) 
2
6 2 3 4 5 6 7 rings
6 4 5 8 9 10 11 rings

>  <PUBCHEM_HEAVY_ATOM_COUNT>  (1) 
11

>  <PUBCHEM_ATOM_DEF_STEREO_COUNT>  (1) 
0

>  <PUBCHEM_ATOM_UDEF_STEREO_COUNT>  (1) 
0

>  <PUBCHEM_BOND_DEF_STEREO_COUNT>  (1) 
0

>  <PUBCHEM_BOND_UDEF_STEREO_COUNT>  (1) 
0

>  <PUBCHEM_ISOTOPIC_ATOM_COUNT>  (1) 
0

>  <PUBCHEM_COMPONENT_COUNT>  (1) 
1

>  <PUBCHEM_CACTVS_TAUTO_COUNT>  (1) 
1

>  <PUBCHEM_CONFORMER_ID>  (1) 
000078A000000001

>  <PUBCHEM_MMFF94_ENERGY>  (1) 
23.6268

>  <PUBCHEM_FEATURE_SELFOVERLAP>  (1) 
10.174

>  <PUBCHEM_SHAPE_FINGERPRINT>  (1) 
10219947 1 18341053007805330219
10857977 72 18410002243489717425
11206711 2 18334860459296032677
11471102 20 18410006667749065917
12032990 46 18409455803670370923
12897270 3 18409448063817264407
14251717 144 18340199808378552887
14325111 11 18411136926647085993
161256 15 18411700980333113036
16945 1 18410012151889533293
17844478 74 18113907065397340865
193761 8 17905888076652150123
19973954 147 18339644429988127140
20201158 50 18335137613614933347
20645477 70 18412539912696782735
21040471 1 18337672992955018012
21501502 16 18338520720445936337
23402655 69 18267284471323667541
23552423 10 18261116240053678198
23559900 14 17550388433043598854
241688 4 18263647259965437184
2748010 2 18339075960980488773
369184 2 16917342623767942553
5084963 1 18342740697607628072
528886 8 18339356491022215738

>  <PUBCHEM_SHAPE_MULTIPOLES>  (1) 
217.39
4.55
1.71
0.63
1.72
0.18
0
-0.95
-0.11
-0.22
0.04
-0.02
0
0.09

>  <PUBCHEM_SHAPE_SELFOVERLAP>  (1) 
452.74

>  <PUBCHEM_SHAPE_VOLUME>  (1) 
124.9

>  <PUBCHEM_COORDINATE_TYPE>  (1) 
2
5
10

$$$$
