30889
     RDKit          3D

  9  8  0  0  0  0  0  0  0  0999 V2000
    0.0072    0.0082   -0.9270 N   0  0  0  0  0  0  0  0  0  0  0  0
   -1.2019    0.0002   -0.0969 C   0  0  0  0  0  0  0  0  0  0  0  0
    1.1983    0.0002   -0.0947 C   0  0  0  0  0  0  0  0  0  0  0  0
   -1.1989   -1.2714    0.7584 C   0  0  0  0  0  0  0  0  0  0  0  0
   -1.1837    1.2397    0.8039 C   0  0  0  0  0  0  0  0  0  0  0  0
   -2.4399    0.0239   -1.0011 C   0  0  0  0  0  0  0  0  0  0  0  0
    2.3180   -0.7224   -0.8511 C   0  0  0  0  0  0  0  0  0  0  0  0
    1.6055    1.4500    0.1884 C   0  0  0  0  0  0  0  0  0  0  0  0
    0.8953   -0.7284    1.2200 C   0  0  0  0  0  0  0  0  0  0  0  0
  1  2  1  0
  1  3  1  0
  2  4  1  0
  2  5  1  0
  2  6  1  0
  3  7  1  0
  3  8  1  0
  3  9  1  0
M  END
>  <PUBCHEM_COMPOUND_CID>  (1) 
30889

>  <PUBCHEM_CONFORMER_RMSD>  (1) 
0.4

>  <PUBCHEM_CONFORMER_DIVERSEORDER>  (1) 
1

>  <PUBCHEM_MMFF94_PARTIAL_CHARGES>  (1) 
4
1 -0.9
10 0.36
2 0.27
3 0.27

>  <PUBCHEM_EFFECTIVE_ROTOR_COUNT>  (1) 
2

>  <PUBCHEM_PHARMACOPHORE_FEATURES>  (1) 
4
1 1 cation
1 1 donor
4 2 4 5 6 hydrophobe
4 3 7 8 9 hydrophobe

>  <PUBCHEM_HEAVY_ATOM_COUNT>  (1) 
9

>  <PUBCHEM_ATOM_DEF_STEREO_COUNT>  (1) 
0

>  <PUBCHEM_ATOM_UDEF_STEREO_COUNT>  (1) 
0

>  <PUBCHEM_BOND_DEF_STEREO_COUNT>  (1) 
0

>  <PUBCHEM_BOND_UDEF_STEREO_COUNT>  (1) 
0

>  <PUBCHEM_ISOTOPIC_ATOM_COUNT>  (1) 
0

>  <PUBCHEM_COMPONENT_COUNT>  (1) 
1

>  <PUBCHEM_CACTVS_TAUTO_COUNT>  (1) 
1

>  <PUBCHEM_CONFORMER_ID>  (1) 
000078A900000001

>  <PUBCHEM_MMFF94_ENERGY>  (1) 
78.865

>  <PUBCHEM_FEATURE_SELFOVERLAP>  (1) 
20.298

>  <PUBCHEM_SHAPE_FINGERPRINT>  (1) 
12423570 1 12787808465737304618
12897270 3 17917146233617070076
12932741 1 18334579082961105718
14128692 85 16988848271901449300
16945 1 18408325458155651554
21040471 1 17312811680496685503
23235685 24 15357696370573133902
23552423 10 18060419088369493847
24536 1 18343018908456646976
29004967 10 18202015312929192886
369184 2 17749942383663205504
5084963 1 17749689470240092650

>  <PUBCHEM_SHAPE_MULTIPOLES>  (1) 
180.23
2.94
1.33
1.19
0.07
0.25
-0.04
-0.08
0.86
-0.15
-0.34
0.09
-0.17
0.13

>  <PUBCHEM_SHAPE_SELFOVERLAP>  (1) 
341.197

>  <PUBCHEM_SHAPE_VOLUME>  (1) 
114.9

>  <PUBCHEM_COORDINATE_TYPE>  (1) 
2
5
10

$$$$
