30887
     RDKit          3D

 12 13  0  0  1  0  0  0  0  0999 V2000
   -3.9541    1.1835    0.0257 Cl  0  0  0  0  0  0  0  0  0  0  0  0
    2.4032   -0.7468    0.4505 O   0  0  0  0  0  0  0  0  0  0  0  0
    2.4024    0.4581   -0.3786 N   0  0  0  0  0  0  0  0  0  0  0  0
   -0.0143    0.4743    0.0420 C   0  0  0  0  0  0  0  0  0  0  0  0
    1.2781    1.2545    0.1351 C   0  0  0  0  0  0  0  0  0  0  0  0
    0.0365   -0.9323   -0.0170 C   0  0  0  0  0  0  0  0  0  0  0  0
    1.3796   -1.6175   -0.0489 C   0  0  0  0  0  0  0  0  0  0  0  0
   -1.2524    1.1239    0.0662 C   0  0  0  0  0  0  0  0  0  0  0  0
   -1.1496   -1.6683   -0.0921 C   0  0  0  0  0  0  0  0  0  0  0  0
    3.6819    1.1007   -0.1046 C   0  0  0  0  0  0  0  0  0  0  0  0
   -2.4313    0.3809    0.0020 C   0  0  0  0  0  0  0  0  0  0  0  0
   -2.3800   -1.0108   -0.0804 C   0  0  0  0  0  0  0  0  0  0  0  0
  1 11  1  0
  2  3  1  0
  2  7  1  0
  3  5  1  0
  3 10  1  0
  4  5  1  0
  4  6  2  0
  4  8  1  0
  6  7  1  0
  6  9  1  0
  8 11  2  0
  9 12  2  0
 11 12  1  0
M  END
>  <PUBCHEM_COMPOUND_CID>  (1) 
30887

>  <PUBCHEM_CONFORMER_RMSD>  (1) 
0.4

>  <PUBCHEM_CONFORMER_DIVERSEORDER>  (1) 
1
3
2

>  <PUBCHEM_MMFF94_PARTIAL_CHARGES>  (1) 
15
1 -0.18
10 0.27
11 0.18
12 -0.15
17 0.15
18 0.15
2 -0.18
22 0.15
3 -0.64
4 -0.14
5 0.41
6 -0.14
7 0.42
8 -0.15
9 -0.15

>  <PUBCHEM_EFFECTIVE_ROTOR_COUNT>  (1) 
0.8

>  <PUBCHEM_PHARMACOPHORE_FEATURES>  (1) 
2
6 2 3 4 5 6 7 rings
6 4 6 8 9 11 12 rings

>  <PUBCHEM_HEAVY_ATOM_COUNT>  (1) 
12

>  <PUBCHEM_ATOM_DEF_STEREO_COUNT>  (1) 
0

>  <PUBCHEM_ATOM_UDEF_STEREO_COUNT>  (1) 
0

>  <PUBCHEM_BOND_DEF_STEREO_COUNT>  (1) 
0

>  <PUBCHEM_BOND_UDEF_STEREO_COUNT>  (1) 
0

>  <PUBCHEM_ISOTOPIC_ATOM_COUNT>  (1) 
0

>  <PUBCHEM_COMPONENT_COUNT>  (1) 
1

>  <PUBCHEM_CACTVS_TAUTO_COUNT>  (1) 
1

>  <PUBCHEM_CONFORMER_ID>  (1) 
000078A700000001

>  <PUBCHEM_MMFF94_ENERGY>  (1) 
28.1557

>  <PUBCHEM_FEATURE_SELFOVERLAP>  (1) 
10.174

>  <PUBCHEM_SHAPE_FINGERPRINT>  (1) 
10608611 8 18411979199714343105
11132069 177 18411976975190055856
11471102 20 18338794516416799685
11543360 7 15625929984791169793
12491281 212 18341623594025981409
12932764 1 17560515209105187899
13380535 21 18410303505449494667
13380535 76 18411135831446275783
13897977 150 18411415124679768405
14325111 11 18410293614097548993
14897335 6 18411415107446924349
15775835 57 18409171012620114181
16945 1 18340201985473037819
18186145 218 18269840817929128341
193761 8 17186440140618729913
20871998 184 18057048114810844871
21501502 16 18410285921885124327
23235685 24 18411412908355278861
23402539 116 18201712986055162924
23402655 69 18270669880267742437
23463225 33 18334852797353957554
23552423 10 18262236754034673343
23559900 14 18201161035993209740
2748010 2 18411144631839553167
3312278 4 18340772627744567401
369184 2 16733258014826999579
528886 8 18411414024956929801
53812653 166 18343016713760293232
63268167 104 18412548678107348601
6333449 129 18341330093114363901
7364860 26 18270400473795802694

>  <PUBCHEM_SHAPE_MULTIPOLES>  (1) 
237.97
5.53
1.8
0.63
0.15
0.41
0
-2.43
-0.11
0.05
-0.01
-0.01
0
-0.13

>  <PUBCHEM_SHAPE_SELFOVERLAP>  (1) 
492.339

>  <PUBCHEM_SHAPE_VOLUME>  (1) 
138.5

>  <PUBCHEM_COORDINATE_TYPE>  (1) 
2
5
10

$$$$
