30899
     RDKit          3D

 13 14  0  0  1  0  0  0  0  0999 V2000
   -0.6516   -2.7587    0.2011 Cl  0  0  0  0  0  0  0  0  0  0  0  0
   -0.6465    2.7599    0.2017 Cl  0  0  0  0  0  0  0  0  0  0  0  0
   -2.7890    0.0026    0.1667 Cl  0  0  0  0  0  0  0  0  0  0  0  0
   -0.8296    0.0005    2.2854 Cl  0  0  0  0  0  0  0  0  0  0  0  0
    2.4993   -1.7179    0.2451 Cl  0  0  0  0  0  0  0  0  0  0  0  0
    2.5027    1.7132    0.2446 Cl  0  0  0  0  0  0  0  0  0  0  0  0
   -0.2344   -1.1187   -0.2389 C   0  0  0  0  0  0  0  0  0  0  0  0
   -0.2323    1.1192   -0.2388 C   0  0  0  0  0  0  0  0  0  0  0  0
   -1.0279    0.0010    0.4966 C   0  0  0  0  0  0  0  0  0  0  0  0
   -0.4806   -0.7793   -1.7367 C   0  0  0  0  0  0  0  0  0  0  0  0
   -0.4791    0.7805   -1.7366 C   0  0  0  0  0  0  0  0  0  0  0  0
    1.1839   -0.6706    0.0548 C   0  0  0  0  0  0  0  0  0  0  0  0
    1.1852    0.6684    0.0549 C   0  0  0  0  0  0  0  0  0  0  0  0
  1  7  1  0
  2  8  1  0
  3  9  1  0
  4  9  1  0
  5 12  1  0
  6 13  1  0
  7  9  1  0
  7 10  1  0
  7 12  1  0
  8  9  1  0
  8 11  1  0
  8 13  1  0
 10 11  1  0
 12 13  2  0
M  END
>  <PUBCHEM_COMPOUND_CID>  (1) 
30899

>  <PUBCHEM_CONFORMER_RMSD>  (1) 
0.4

>  <PUBCHEM_CONFORMER_DIVERSEORDER>  (1) 
1

>  <PUBCHEM_MMFF94_PARTIAL_CHARGES>  (1) 
9
1 -0.29
2 -0.29
3 -0.29
4 -0.29
5 -0.14
6 -0.14
7 0.43
8 0.43
9 0.58

>  <PUBCHEM_EFFECTIVE_ROTOR_COUNT>  (1) 
0.6

>  <PUBCHEM_PHARMACOPHORE_FEATURES>  (1) 
1
7 7 8 9 10 11 12 13 rings

>  <PUBCHEM_HEAVY_ATOM_COUNT>  (1) 
13

>  <PUBCHEM_ATOM_DEF_STEREO_COUNT>  (1) 
0

>  <PUBCHEM_ATOM_UDEF_STEREO_COUNT>  (1) 
2

>  <PUBCHEM_BOND_DEF_STEREO_COUNT>  (1) 
0

>  <PUBCHEM_BOND_UDEF_STEREO_COUNT>  (1) 
0

>  <PUBCHEM_ISOTOPIC_ATOM_COUNT>  (1) 
0

>  <PUBCHEM_COMPONENT_COUNT>  (1) 
1

>  <PUBCHEM_CACTVS_TAUTO_COUNT>  (1) 
1

>  <PUBCHEM_CONFORMER_ID>  (1) 
000078B300000001

>  <PUBCHEM_MMFF94_ENERGY>  (1) 
56.6233

>  <PUBCHEM_FEATURE_SELFOVERLAP>  (1) 
5.074

>  <PUBCHEM_SHAPE_FINGERPRINT>  (1) 
10702982 57 18056198213665138717
12423570 1 12624029384113914045
13024252 1 15070834981198701836
137420 1 13887286902111523206
14817 1 8275561351397846915
15557651 10 17461688930884444437
16945 1 18410577288002400808
20511035 2 17825421602273730779
22344851 262 17972037212908793859
23419403 2 17677879141896361711
2748010 2 18335980887340875205
369184 2 18047454897496709824
5084963 1 17845093969680899282
528886 8 18122890195222903432
54276843 12 17559668439080805290
68250623 7 17330266170010846183

>  <PUBCHEM_SHAPE_MULTIPOLES>  (1) 
278.75
2.72
2.68
1.55
0.82
0
-0.15
0
-0.46
0.38
-0.13
-0.56
0
0

>  <PUBCHEM_SHAPE_SELFOVERLAP>  (1) 
547.654

>  <PUBCHEM_SHAPE_VOLUME>  (1) 
170

>  <PUBCHEM_COORDINATE_TYPE>  (1) 
2
5
10

$$$$
