30920
     RDKit          3D

 25 27  0  0  1  0  0  0  0  0999 V2000
   -0.0305    1.4217   -2.1020 O   0  0  0  0  0  0  0  0  0  0  0  0
    1.8993   -0.1283   -2.6493 O   0  0  0  0  0  0  0  0  0  0  0  0
   -3.2102   -1.4105    0.8607 N   0  0  0  0  0  0  0  0  0  0  0  0
    0.2673    0.4884   -1.0358 C   0  0  0  0  0  0  0  0  0  0  0  0
   -3.4648   -0.4805   -0.2461 C   0  0  0  0  0  0  0  0  0  0  0  0
   -0.9300   -0.4315   -0.8464 C   0  0  0  0  0  0  0  0  0  0  0  0
   -2.1994    0.3676   -0.5243 C   0  0  0  0  0  0  0  0  0  0  0  0
    0.5656    1.3504    0.1424 C   0  0  0  0  0  0  0  0  0  0  0  0
    0.6301    2.6758   -0.2672 C   0  0  0  0  0  0  0  0  0  0  0  0
    0.3817    2.7573   -1.7259 C   0  0  0  0  0  0  0  0  0  0  0  0
   -4.6689    0.3953    0.1256 C   0  0  0  0  0  0  0  0  0  0  0  0
   -3.8055   -1.2996   -1.5027 C   0  0  0  0  0  0  0  0  0  0  0  0
    1.4661   -0.2769   -1.5090 C   0  0  0  0  0  0  0  0  0  0  0  0
    0.7743    1.0049    1.4681 C   0  0  0  0  0  0  0  0  0  0  0  0
    0.9097    3.6949    0.6264 C   0  0  0  0  0  0  0  0  0  0  0  0
   -4.3793   -2.2553    1.0905 C   0  0  0  0  0  0  0  0  0  0  0  0
   -2.8615   -0.6722    2.0717 C   0  0  0  0  0  0  0  0  0  0  0  0
    2.1339   -1.2271   -0.5753 C   0  0  0  0  0  0  0  0  0  0  0  0
    1.0520    2.0222    2.3839 C   0  0  0  0  0  0  0  0  0  0  0  0
    1.1196    3.3597    1.9652 C   0  0  0  0  0  0  0  0  0  0  0  0
    1.7108   -2.5376   -0.5489 C   0  0  0  0  0  0  0  0  0  0  0  0
    3.1517   -0.7602    0.2264 C   0  0  0  0  0  0  0  0  0  0  0  0
    2.3378   -3.4266    0.3242 C   0  0  0  0  0  0  0  0  0  0  0  0
    3.7786   -1.6492    1.0995 C   0  0  0  0  0  0  0  0  0  0  0  0
    3.3716   -2.9825    1.1483 C   0  0  0  0  0  0  0  0  0  0  0  0
  1  4  1  0
  1 10  1  0
  2 13  2  0
  3  5  1  0
  3 16  1  0
  3 17  1  0
  4  6  1  0
  4  8  1  0
  4 13  1  0
  5  7  1  0
  5 11  1  0
  5 12  1  0
  6  7  1  0
  8  9  2  0
  8 14  1  0
  9 10  1  0
  9 15  1  0
 13 18  1  0
 14 19  2  0
 15 20  2  0
 18 21  2  0
 18 22  1  0
 19 20  1  0
 21 23  1  0
 22 24  2  0
 23 25  2  0
 24 25  1  0
M  END
>  <PUBCHEM_COMPOUND_CID>  (1) 
30920

>  <PUBCHEM_CONFORMER_RMSD>  (1) 
0.8

>  <PUBCHEM_CONFORMER_DIVERSEORDER>  (1) 
1
41
7
56
86
9
88
57
75
38
72
65
26
36
76
21
10
28
37
17
59
82
46
70
11
42
87
14
81
49
34
35
62
64
13
16
6
84
23
18
44
29
48
79
8
40
63
85
5
80
30
51
19
71
47
33
67
83
25
20
50
3
74
54
66
12
45
43
53
78
68
15
27
31
73
77
69
61
2
52
39
22
60
32
55
24
58
4

>  <PUBCHEM_MMFF94_PARTIAL_CHARGES>  (1) 
30
1 -0.56
10 0.42
13 0.42
14 -0.15
15 -0.15
16 0.27
17 0.27
18 0.09
19 -0.15
2 -0.57
20 -0.15
21 -0.15
22 -0.15
23 -0.15
24 -0.15
25 -0.15
3 -0.81
38 0.15
39 0.15
4 0.48
46 0.15
47 0.15
48 0.15
49 0.15
5 0.27
50 0.15
51 0.15
52 0.15
8 -0.14
9 -0.14

>  <PUBCHEM_EFFECTIVE_ROTOR_COUNT>  (1) 
6.6

>  <PUBCHEM_PHARMACOPHORE_FEATURES>  (1) 
7
1 1 acceptor
1 2 acceptor
1 3 cation
3 5 11 12 hydrophobe
5 1 4 8 9 10 rings
6 18 21 22 23 24 25 rings
6 8 9 14 15 19 20 rings

>  <PUBCHEM_HEAVY_ATOM_COUNT>  (1) 
25

>  <PUBCHEM_ATOM_DEF_STEREO_COUNT>  (1) 
0

>  <PUBCHEM_ATOM_UDEF_STEREO_COUNT>  (1) 
1

>  <PUBCHEM_BOND_DEF_STEREO_COUNT>  (1) 
0

>  <PUBCHEM_BOND_UDEF_STEREO_COUNT>  (1) 
0

>  <PUBCHEM_ISOTOPIC_ATOM_COUNT>  (1) 
0

>  <PUBCHEM_COMPONENT_COUNT>  (1) 
1

>  <PUBCHEM_CACTVS_TAUTO_COUNT>  (1) 
1

>  <PUBCHEM_CONFORMER_ID>  (1) 
000078C800000001

>  <PUBCHEM_MMFF94_ENERGY>  (1) 
92.1374

>  <PUBCHEM_FEATURE_SELFOVERLAP>  (1) 
35.619

>  <PUBCHEM_SHAPE_FINGERPRINT>  (1) 
11578080 2 18263067856072004708
12160290 23 17692825782668412997
12506688 2 18336826394650348810
12549972 3 18260548953016920177
12553582 1 18268447766677280007
12788726 201 18050577235245690508
13004483 165 18052531080456979835
13134695 92 18412256229610502965
13275264 69 18056473942123222522
133893 2 17984955319004428004
13533116 47 18337675338767239291
13544653 18 18336259042450485694
13583140 156 18199752608568011603
14251757 17 15647638707872682018
14787075 74 18340203089923302326
14955137 171 17916324872935708902
17980427 23 16701438131619516269
19078846 21 18128276544216634977
20600515 1 18266465299772139295
21033648 29 16271090289793792723
21421861 104 18129963250724785849
21452121 199 17966968318260079894
21524375 3 17268906192651233589
23419403 2 18124846050320819972
23559900 14 18114463487243150159
3027735 51 17467347829591611995
35225 105 17192378650101769914
392239 28 18341881975496662098
427121 178 17480033320299840795
539174 4 17056073602487624768
5845 1 12573341013352570549
5895379 119 16054949466505044777
81228 2 17762916371815476855
8509985 295 18126309466633652817

>  <PUBCHEM_SHAPE_MULTIPOLES>  (1) 
497.77
6.69
4.32
2.23
7.13
1.79
0.1
-6.8
-1.83
-3.29
-1.5
-0.21
0.88
0.36

>  <PUBCHEM_SHAPE_SELFOVERLAP>  (1) 
1072.654

>  <PUBCHEM_SHAPE_VOLUME>  (1) 
276.9

>  <PUBCHEM_COORDINATE_TYPE>  (1) 
2
5
10

$$$$
