30925
     RDKit          3D

 13 14  0  0  0  0  0  0  0  0999 V2000
    0.1340   -2.3373   -0.0290 O   0  0  0  0  0  0  0  0  0  0  0  0
   -2.3266   -1.5829    0.0344 O   0  0  0  0  0  0  0  0  0  0  0  0
    0.2446    2.2323   -0.0471 N   0  0  0  0  0  0  0  0  0  0  0  0
    2.5341    1.1486   -0.1063 C   0  0  0  0  0  0  0  0  0  0  0  0
    3.0592   -0.1930    0.4312 C   0  0  0  0  0  0  0  0  0  0  0  0
    1.0497    1.1280   -0.0676 C   0  0  0  0  0  0  0  0  0  0  0  0
    0.2479    0.0060   -0.0474 C   0  0  0  0  0  0  0  0  0  0  0  0
    2.3467   -1.3985   -0.2033 C   0  0  0  0  0  0  0  0  0  0  0  0
    0.8262   -1.3238   -0.0640 C   0  0  0  0  0  0  0  0  0  0  0  0
   -1.0949    0.4497   -0.0040 C   0  0  0  0  0  0  0  0  0  0  0  0
   -1.0676    1.8294   -0.0057 C   0  0  0  0  0  0  0  0  0  0  0  0
   -2.2982   -0.3307    0.0336 C   0  0  0  0  0  0  0  0  0  0  0  0
   -3.6552    0.3722    0.0752 C   0  0  0  0  0  0  0  0  0  0  0  0
  1  9  2  0
  2 12  2  0
  3  6  1  0
  3 11  1  0
  4  5  1  0
  4  6  1  0
  5  8  1  0
  6  7  2  0
  7  9  1  0
  7 10  1  0
  8  9  1  0
 10 11  2  0
 10 12  1  0
 12 13  1  0
M  END
>  <PUBCHEM_COMPOUND_CID>  (1) 
30925

>  <PUBCHEM_CONFORMER_RMSD>  (1) 
0.6

>  <PUBCHEM_CONFORMER_DIVERSEORDER>  (1) 
1
3
2
4

>  <PUBCHEM_MMFF94_PARTIAL_CHARGES>  (1) 
14
1 -0.57
10 -0.09
11 -0.3
12 0.6
13 0.06
2 -0.57
20 0.27
21 0.15
3 0.03
4 0.18
6 -0.33
7 -0.09
8 0.06
9 0.6

>  <PUBCHEM_EFFECTIVE_ROTOR_COUNT>  (1) 
1.6

>  <PUBCHEM_PHARMACOPHORE_FEATURES>  (1) 
6
1 1 acceptor
1 2 acceptor
1 3 cation
1 3 donor
5 3 6 7 10 11 rings
6 4 5 6 7 8 9 rings

>  <PUBCHEM_HEAVY_ATOM_COUNT>  (1) 
13

>  <PUBCHEM_ATOM_DEF_STEREO_COUNT>  (1) 
0

>  <PUBCHEM_ATOM_UDEF_STEREO_COUNT>  (1) 
0

>  <PUBCHEM_BOND_DEF_STEREO_COUNT>  (1) 
0

>  <PUBCHEM_BOND_UDEF_STEREO_COUNT>  (1) 
0

>  <PUBCHEM_ISOTOPIC_ATOM_COUNT>  (1) 
0

>  <PUBCHEM_COMPONENT_COUNT>  (1) 
1

>  <PUBCHEM_CACTVS_TAUTO_COUNT>  (1) 
31

>  <PUBCHEM_CONFORMER_ID>  (1) 
000078CD00000001

>  <PUBCHEM_MMFF94_ENERGY>  (1) 
15.6591

>  <PUBCHEM_FEATURE_SELFOVERLAP>  (1) 
30.545

>  <PUBCHEM_SHAPE_FINGERPRINT>  (1) 
10219947 1 18410294717925184697
10967382 1 18410575076088981583
11132069 177 18341325656465933802
11471102 20 18410006620504601069
12382932 28 18412827988510284299
12423570 1 12823287983963280154
13380535 76 18410008828028211219
14251717 144 18411974776351462199
14325111 11 18338516446974653705
161256 15 18268717116734090524
16945 1 18265896856497601764
17990270 104 18336266854858528795
193761 8 17834394523178106828
20201158 50 18335980887530662203
20645477 70 18412540982190878351
21501502 16 18194685860711959336
2334 1 18266461086425214751
23402655 69 18341036446944408277
23463225 33 18408039606733892728
23552423 10 18261961726036021532
23559900 14 17623012292923800022
2748010 2 18410293618292140254
5084963 1 18202002080076769362
528886 8 18411414029251864641
53812653 166 18271240624753245552
63268167 104 18341055198022302137
66348 1 17690279309385292190
8809292 202 18260272936189541275

>  <PUBCHEM_SHAPE_MULTIPOLES>  (1) 
250.81
4.54
2.2
0.62
1.52
0.11
0.01
0.41
0.28
-0.22
-0.08
-0.07
-0.01
0.02

>  <PUBCHEM_SHAPE_SELFOVERLAP>  (1) 
540.155

>  <PUBCHEM_SHAPE_VOLUME>  (1) 
138.5

>  <PUBCHEM_COORDINATE_TYPE>  (1) 
2
5
10

$$$$
