30927
     RDKit          3D

 13 12  0  0  0  0  0  0  0  0999 V2000
    2.3120   -0.6267   -0.7402 S   0  0  0  0  0  0  0  0  0  0  0  0
    4.1897   -0.1553    0.0602 S   0  0  0  0  0  0  0  0  0  0  0  0
    5.2174   -1.1552   -0.7152 O   0  0  0  0  0  0  0  0  0  0  0  0
    4.5026    1.2035   -0.3388 O   0  0  0  0  0  0  0  0  0  0  0  0
    4.1712   -0.5327    1.4604 O   0  0  0  0  0  0  0  0  0  0  0  0
   -3.1014   -0.2115    0.2827 N   0  0  0  0  0  0  0  0  0  0  0  0
   -4.8701   -1.7084    0.2260 N   0  0  0  0  0  0  0  0  0  0  0  0
   -5.2726    0.3988   -0.5439 N   0  0  0  0  0  0  0  0  0  0  0  0
   -0.2332    0.3189   -0.2964 C   0  0  0  0  0  0  0  0  0  0  0  0
   -1.1677    1.2773    0.4510 C   0  0  0  0  0  0  0  0  0  0  0  0
    1.2130    0.5091    0.1532 C   0  0  0  0  0  0  0  0  0  0  0  0
   -2.6197    1.1425    0.0055 C   0  0  0  0  0  0  0  0  0  0  0  0
   -4.3411   -0.4603   -0.0046 C   0  0  0  0  0  0  0  0  0  0  0  0
  1  2  1  0
  1 11  1  0
  2  3  1  0
  2  4  2  0
  2  5  2  0
  6 12  1  0
  6 13  2  3
  7 13  1  0
  8 13  1  0
  9 10  1  0
  9 11  1  0
 10 12  1  0
M  END
>  <PUBCHEM_COMPOUND_CID>  (1) 
30927

>  <PUBCHEM_CONFORMER_RMSD>  (1) 
0.6

>  <PUBCHEM_CONFORMER_DIVERSEORDER>  (1) 
1
169
135
13
141
181
238
2
221
194
16
182
164
122
11
33
203
108
173
14
242
5
84
40
106
119
180
162
222
78
151
9
54
129
31
167
24
3
131
15
228
45
241
55
132
230
223
52
32
12
207
149
183
100
170
62
44
97
92
227
42
63
7
142
26
154
80
94
220
41
19
43
104
198
168
231
17
116
22
81
93
137
140
18
148
65
157
211
175
35
123
159
133
240
89
234
10
125
145
101
59
144
187
121
179
115
47
130
155
216
124
87
8
200
67
127
128
64
79
150
36
226
166
86
165
50
68
4
58
239
184
76
49
153
6
71
232
172
120
217
192
21
195
111
20
57
112
113
188
206
185
208
202
191
34
105
199
213
85
70
176
178
143
74
72
186
95
30
236
96
48
156
46
114
229
138
146
60
163
237
98
197
110
37
90
29
243
189
134
102
109
193
91
23
126
205
99
69
51
158
225
204
66
190
209
118
196
39
212
61
235
215
201
56
171
82
214
75
38
139
224
53
161
218
28
136
27
177
147
88
174
25
219
160
83
233
73
77
210
107
152
117
103

>  <PUBCHEM_MMFF94_PARTIAL_CHARGES>  (1) 
16
1 -0.35
11 0.23
12 0.25
13 0.55
2 1.6
22 0.4
23 0.4
24 0.4
25 0.4
26 0.5
3 -0.68
4 -0.65
5 -0.65
6 -0.7
7 -0.85
8 -0.85

>  <PUBCHEM_EFFECTIVE_ROTOR_COUNT>  (1) 
6

>  <PUBCHEM_PHARMACOPHORE_FEATURES>  (1) 
7
1 3 acceptor
1 4 acceptor
1 5 acceptor
1 7 donor
1 8 donor
4 2 3 4 5 anion
4 6 7 8 13 cation

>  <PUBCHEM_HEAVY_ATOM_COUNT>  (1) 
13

>  <PUBCHEM_ATOM_DEF_STEREO_COUNT>  (1) 
0

>  <PUBCHEM_ATOM_UDEF_STEREO_COUNT>  (1) 
0

>  <PUBCHEM_BOND_DEF_STEREO_COUNT>  (1) 
0

>  <PUBCHEM_BOND_UDEF_STEREO_COUNT>  (1) 
0

>  <PUBCHEM_ISOTOPIC_ATOM_COUNT>  (1) 
0

>  <PUBCHEM_COMPONENT_COUNT>  (1) 
1

>  <PUBCHEM_CACTVS_TAUTO_COUNT>  (1) 
2

>  <PUBCHEM_CONFORMER_ID>  (1) 
000078CF00000001

>  <PUBCHEM_MMFF94_ENERGY>  (1) 
16.752

>  <PUBCHEM_FEATURE_SELFOVERLAP>  (1) 
35.634

>  <PUBCHEM_SHAPE_FINGERPRINT>  (1) 
10014705 185 11314319359658631141
100836 57 9295293854545392383
11987891 27 17603585214290299704
12815109 37 18411135831751990541
13167823 11 18334293154245857250
13237642 15 17775281668644467802
14123238 8 17704072897446026204
1420 363 18202569470826064126
14251718 22 18334297595563820644
14251752 14 17604138252129251485
14251764 18 17918279749619124073
14252887 29 16917077641613328884
17834072 33 18040151820704984160
17834072 8 11963389622588511642
17834076 25 14273739546891276740
200 152 16950564372175801541
20374829 77 18408037425439035081
20645477 56 11097863990488209073
20724930 31 18272091616867493553
20767249 13 18272368672549671109
212847 35 9295290538883303014
21354914 41 13912324568909470885
22485316 2 18259702294091682079
23402539 116 16660360372810390221
23402655 69 13479136795844041802
23557571 272 18199755747419517668
23559900 14 18335418010407328656
522135 26 10015866479478977132
573450 72 18114737140488549753
57483677 66 18259984872627301842
6430166 295 8862943866089897345

>  <PUBCHEM_SHAPE_MULTIPOLES>  (1) 
242.68
13.18
1.32
0.86
1.28
0.08
0.14
3.88
-0.25
0.52
0.01
-0.7
0.09
0.27

>  <PUBCHEM_SHAPE_SELFOVERLAP>  (1) 
429.831

>  <PUBCHEM_SHAPE_VOLUME>  (1) 
158.8

>  <PUBCHEM_COORDINATE_TYPE>  (1) 
2
5
10

$$$$
