30939
     RDKit          3D

 17 20  0  0  0  0  0  0  0  0999 V2000
   -4.2942    1.3561    0.0015 S   0  0  0  0  0  0  0  0  0  0  0  0
   -0.2692   -0.6980   -0.0008 C   0  0  0  0  0  0  0  0  0  0  0  0
   -0.2682    0.7077   -0.0009 C   0  0  0  0  0  0  0  0  0  0  0  0
    2.1824   -0.7043    0.0000 C   0  0  0  0  0  0  0  0  0  0  0  0
    2.1841    0.7065   -0.0005 C   0  0  0  0  0  0  0  0  0  0  0  0
   -2.7285   -0.6992   -0.0005 C   0  0  0  0  0  0  0  0  0  0  0  0
    0.9552   -1.3877   -0.0004 C   0  0  0  0  0  0  0  0  0  0  0  0
    0.9584    1.3932   -0.0009 C   0  0  0  0  0  0  0  0  0  0  0  0
   -1.4933   -1.3911   -0.0009 C   0  0  0  0  0  0  0  0  0  0  0  0
   -2.7012    0.6956    0.0002 C   0  0  0  0  0  0  0  0  0  0  0  0
   -1.4860    1.4087   -0.0005 C   0  0  0  0  0  0  0  0  0  0  0  0
    3.4068   -1.3933    0.0009 C   0  0  0  0  0  0  0  0  0  0  0  0
    3.4103    1.3923   -0.0001 C   0  0  0  0  0  0  0  0  0  0  0  0
   -4.0759   -1.1936   -0.0001 C   0  0  0  0  0  0  0  0  0  0  0  0
   -5.0142   -0.1890    0.0012 C   0  0  0  0  0  0  0  0  0  0  0  0
    4.6159   -0.6976    0.0012 C   0  0  0  0  0  0  0  0  0  0  0  0
    4.6177    0.6936    0.0005 C   0  0  0  0  0  0  0  0  0  0  0  0
  1 10  1  0
  1 15  1  0
  2  3  1  0
  2  7  1  0
  2  9  2  0
  3  8  1  0
  3 11  2  0
  4  5  1  0
  4  7  2  0
  4 12  1  0
  5  8  2  0
  5 13  1  0
  6  9  1  0
  6 10  2  0
  6 14  1  0
 10 11  1  0
 12 16  2  0
 13 17  2  0
 14 15  2  0
 16 17  1  0
M  END
>  <PUBCHEM_COMPOUND_CID>  (1) 
30939

>  <PUBCHEM_CONFORMER_RMSD>  (1) 
0.4

>  <PUBCHEM_CONFORMER_DIVERSEORDER>  (1) 
1

>  <PUBCHEM_MMFF94_PARTIAL_CHARGES>  (1) 
22
1 -0.08
10 0.04
11 -0.15
12 -0.15
13 -0.15
14 -0.15
15 -0.11
16 -0.15
17 -0.15
18 0.15
19 0.15
20 0.15
21 0.15
22 0.15
23 0.15
24 0.15
25 0.15
26 0.15
27 0.15
7 -0.15
8 -0.15
9 -0.15

>  <PUBCHEM_EFFECTIVE_ROTOR_COUNT>  (1) 
0

>  <PUBCHEM_PHARMACOPHORE_FEATURES>  (1) 
4
5 1 6 10 14 15 rings
6 2 3 4 5 7 8 rings
6 2 3 6 9 10 11 rings
6 4 5 12 13 16 17 rings

>  <PUBCHEM_HEAVY_ATOM_COUNT>  (1) 
17

>  <PUBCHEM_ATOM_DEF_STEREO_COUNT>  (1) 
0

>  <PUBCHEM_ATOM_UDEF_STEREO_COUNT>  (1) 
0

>  <PUBCHEM_BOND_DEF_STEREO_COUNT>  (1) 
0

>  <PUBCHEM_BOND_UDEF_STEREO_COUNT>  (1) 
0

>  <PUBCHEM_ISOTOPIC_ATOM_COUNT>  (1) 
0

>  <PUBCHEM_COMPONENT_COUNT>  (1) 
1

>  <PUBCHEM_CACTVS_TAUTO_COUNT>  (1) 
1

>  <PUBCHEM_CONFORMER_ID>  (1) 
000078DB00000001

>  <PUBCHEM_MMFF94_ENERGY>  (1) 
48.5891

>  <PUBCHEM_FEATURE_SELFOVERLAP>  (1) 
20.408

>  <PUBCHEM_SHAPE_FINGERPRINT>  (1) 
10062212 137 18341324544154020879
10608611 8 18410570686632755860
10616163 171 18341051920931262871
10967382 1 18410855477619384262
11132069 177 18411415111583707608
11401426 45 18411978066027203479
11471102 20 18410853265653074718
11806522 49 18410011056672866325
12107183 9 17690562983353493649
12236239 1 18411981355740037130
12403259 415 18410848867354025045
13167823 11 18411698794252931007
13288520 33 18412829062120245854
13675066 3 18409167744260615921
13862211 1 18410849966933951751
14115302 16 17822302317792615406
15196674 1 18410573980877615333
15375358 24 18410576188491071827
15442244 35 18194965141192412434
15536298 74 18413389838740977028
16945 1 18266741461779352420
17802600 8 18410570686637842208
17804303 29 18412827992657649197
17834072 33 18343299296832992583
1813 80 17095526188278473228
18186145 218 17894343376016452063
18522853 276 18413951684882652073
200 152 18131910464416365577
20510252 161 18272653407116760129
20645477 70 18341613681294553966
21267235 1 18410865355743699078
21421861 104 17751918012816602282
21452121 103 18272077349492876800
221490 88 18263650734825919307
23402539 116 18272081699956766989
23402655 69 18342174453446030189
23463225 33 18409167705869680284
23559900 14 18341331107196300046
26918003 58 18187082870865394187
2871803 45 18333446530118370366
296302 2 18410858771558503021
3004659 81 18261115132864953310
335352 9 18338797801676280862
34934 24 18340481261827497446
3545911 37 18410857667741351948
42 15 18407760334943477630
4214541 1 18410856534207933701
474 4 17314236738272631084
4990 188 18131359596100472756
5104073 3 18410575080399780585
537710 114 18412267254907888364
542803 24 17167866361046861420
633830 44 17748827427332909587
69090 78 18341891904748730871
7364860 26 18268992158251244464
77779 3 18410576184195812205
8809292 202 18260833743059815907
9709674 26 18411144631734343878
9981440 41 17253432812769258208

>  <PUBCHEM_SHAPE_MULTIPOLES>  (1) 
353.7
9.94
1.74
0.62
0.85
0.05
0
0.15
-0.01
0
0
0.02
0.01
0

>  <PUBCHEM_SHAPE_SELFOVERLAP>  (1) 
801.839

>  <PUBCHEM_SHAPE_VOLUME>  (1) 
186.3

>  <PUBCHEM_COORDINATE_TYPE>  (1) 
2
5
10

$$$$
