30947
     RDKit          3D

 15 15  0  0  0  0  0  0  0  0999 V2000
   -4.0286   -0.4925   -0.4348 O   0  0  0  0  0  0  0  0  0  0  0  0
    4.8588   -0.3565   -0.1656 N   0  0  0  0  0  0  0  0  0  0  0  0
    1.3450    0.8516    0.0560 N   0  0  0  0  0  0  0  0  0  0  0  0
    3.7751    0.6086    0.0167 C   0  0  0  0  0  0  0  0  0  0  0  0
    2.4255   -0.0746   -0.1472 C   0  0  0  0  0  0  0  0  0  0  0  0
    0.0026    0.5162   -0.0676 C   0  0  0  0  0  0  0  0  0  0  0  0
    4.7366   -1.4502    0.7976 C   0  0  0  0  0  0  0  0  0  0  0  0
    6.1576    0.3017   -0.0295 C   0  0  0  0  0  0  0  0  0  0  0  0
   -0.3827   -0.7914   -0.4098 C   0  0  0  0  0  0  0  0  0  0  0  0
   -1.0009    1.4764    0.1481 C   0  0  0  0  0  0  0  0  0  0  0  0
   -2.7136   -0.1634   -0.3148 C   0  0  0  0  0  0  0  0  0  0  0  0
   -1.7306   -1.1288   -0.5323 C   0  0  0  0  0  0  0  0  0  0  0  0
   -2.3488    1.1392    0.0254 C   0  0  0  0  0  0  0  0  0  0  0  0
   -4.9550    0.2271    0.3776 C   0  0  0  0  0  0  0  0  0  0  0  0
   -6.1411   -0.6636    0.6803 C   0  0  0  0  0  0  0  0  0  0  0  0
  1 11  1  0
  1 14  1  0
  2  4  1  0
  2  7  1  0
  2  8  1  0
  3  5  1  0
  3  6  1  0
  4  5  1  0
  6  9  2  0
  6 10  1  0
  9 12  1  0
 10 13  2  0
 11 12  2  0
 11 13  1  0
 14 15  1  0
M  END
>  <PUBCHEM_COMPOUND_CID>  (1) 
30947

>  <PUBCHEM_CONFORMER_RMSD>  (1) 
0.8

>  <PUBCHEM_CONFORMER_DIVERSEORDER>  (1) 
1
13
7
19
14
2
4
20
8
15
11
18
5
10
9
16
12
3
6
17

>  <PUBCHEM_MMFF94_PARTIAL_CHARGES>  (1) 
19
1 -0.36
10 -0.15
11 0.08
12 -0.15
13 -0.15
14 0.28
2 -0.81
20 0.4
27 0.15
28 0.15
29 0.15
3 -0.87
30 0.15
4 0.27
5 0.37
6 0.1
7 0.27
8 0.27
9 -0.15

>  <PUBCHEM_EFFECTIVE_ROTOR_COUNT>  (1) 
6

>  <PUBCHEM_PHARMACOPHORE_FEATURES>  (1) 
5
1 1 acceptor
1 2 cation
1 3 cation
1 3 donor
6 6 9 10 11 12 13 rings

>  <PUBCHEM_HEAVY_ATOM_COUNT>  (1) 
15

>  <PUBCHEM_ATOM_DEF_STEREO_COUNT>  (1) 
0

>  <PUBCHEM_ATOM_UDEF_STEREO_COUNT>  (1) 
0

>  <PUBCHEM_BOND_DEF_STEREO_COUNT>  (1) 
0

>  <PUBCHEM_BOND_UDEF_STEREO_COUNT>  (1) 
0

>  <PUBCHEM_ISOTOPIC_ATOM_COUNT>  (1) 
0

>  <PUBCHEM_COMPONENT_COUNT>  (1) 
1

>  <PUBCHEM_CACTVS_TAUTO_COUNT>  (1) 
1

>  <PUBCHEM_CONFORMER_ID>  (1) 
000078E300000001

>  <PUBCHEM_MMFF94_ENERGY>  (1) 
50.0312

>  <PUBCHEM_FEATURE_SELFOVERLAP>  (1) 
25.371

>  <PUBCHEM_SHAPE_FINGERPRINT>  (1) 
10968037 39 18409449210879526620
11287383 113 16371011831824411868
117890 112 13901915496576901275
12236239 1 18113900442288842556
12714333 28 11024112036231288123
13073987 5 18336541617402742656
13288520 33 18413389830156512229
13533116 47 18334290934196476858
13551218 46 18270680866024211902
13690532 89 18335138687150925044
13760787 5 18337950190360619093
13862211 1 18341890814391462255
14123238 8 18413388731124730892
1420 363 18260553324465341522
14251718 22 16877943845253395720
14251764 18 18059576935930644343
15042514 8 18270399524703138479
15048467 5 11887958739851237099
15242433 33 18408602570068237558
17834072 33 18333731342885978948
17834076 25 16128658552566523190
187816 3 12396298162549951317
19141452 34 17704070728714544975
200 152 18259701190032074289
20645477 70 17604142620111322962
20767249 213 10879991363223615451
21267235 1 18411143515685859966
2297311 6 18060147518220688660
23402539 116 17703783726436703485
23559900 14 18200304546046197904
3545911 37 18410011044600334788
42 15 18410573981088618494
42788 4 18411700988907229812
4463277 17 18411982468263531145
465052 167 18335145301369133211
5104073 3 18059287794031492923
5374978 207 18202278113572704160

>  <PUBCHEM_SHAPE_MULTIPOLES>  (1) 
292.86
14
1.27
0.74
5.01
0.01
0.04
-2.86
2.61
0.12
0.09
-0.13
-0.12
-0.35

>  <PUBCHEM_SHAPE_SELFOVERLAP>  (1) 
580.213

>  <PUBCHEM_SHAPE_VOLUME>  (1) 
176.7

>  <PUBCHEM_COORDINATE_TYPE>  (1) 
2
5
10

$$$$
