30942
     RDKit          3D

 17 16  0  0  0  0  0  0  0  0999 V2000
   -4.6462   -0.1464   -1.2390 O   0  0  0  0  0  0  0  0  0  0  0  0
   -4.4148    0.9003    0.7653 O   0  0  0  0  0  0  0  0  0  0  0  0
   -0.4189    2.1453   -0.1484 C   0  0  0  0  0  0  0  0  0  0  0  0
   -1.8136    1.6945    0.2927 C   0  0  0  0  0  0  0  0  0  0  0  0
    0.3012    2.9941    0.9069 C   0  0  0  0  0  0  0  0  0  0  0  0
   -2.5647    0.9225   -0.7873 C   0  0  0  0  0  0  0  0  0  0  0  0
    1.6666    3.4970    0.4290 C   0  0  0  0  0  0  0  0  0  0  0  0
    0.4073   -2.8149    0.2234 C   0  0  0  0  0  0  0  0  0  0  0  0
   -0.4554   -4.0584    0.4338 C   0  0  0  0  0  0  0  0  0  0  0  0
    1.8571   -3.1855   -0.0911 C   0  0  0  0  0  0  0  0  0  0  0  0
   -3.9567    0.5788   -0.3233 C   0  0  0  0  0  0  0  0  0  0  0  0
   -1.8870   -3.6878    0.7871 C   0  0  0  0  0  0  0  0  0  0  0  0
    2.5657    2.3874    0.0845 C   0  0  0  0  0  0  0  0  0  0  0  0
    2.6798   -1.9795   -0.2526 C   0  0  0  0  0  0  0  0  0  0  0  0
    3.2688    1.4531   -0.1896 C   0  0  0  0  0  0  0  0  0  0  0  0
    4.0828    0.2758   -0.5147 C   0  0  0  0  0  0  0  0  0  0  0  0
    3.3282   -0.9762   -0.3766 C   0  0  0  0  0  0  0  0  0  0  0  0
  1 11  1  0
  2 11  2  0
  3  4  1  0
  3  5  1  0
  4  6  1  0
  5  7  1  0
  6 11  1  0
  7 13  1  0
  8  9  1  0
  8 10  1  0
  9 12  1  0
 10 14  1  0
 13 15  3  0
 14 17  3  0
 15 16  1  0
 16 17  1  0
M  END
>  <PUBCHEM_COMPOUND_CID>  (1) 
30942

>  <PUBCHEM_CONFORMER_RMSD>  (1) 
0.8

>  <PUBCHEM_CONFORMER_DIVERSEORDER>  (1) 
1
112
63
83
32
9
64
10
53
45
105
54
8
39
62
90
110
98
68
55
80
3
40
22
69
97
52
113
7
104
50
47
56
82
20
15
107
99
4
6
78
41
109
72
71
5
51
17
49
101
14
48
66
114
43
34
35
111
74
31
87
18
88
11
61
21
75
76
38
25
102
115
28
27
100
84
89
65
58
16
59
91
2
70
93
79
85
33
73
44
106
81
94
103
26
92
46
19
30
42
29
96
77
57
12
13
23
36
108
37
95
24
60
67
86

>  <PUBCHEM_MMFF94_PARTIAL_CHARGES>  (1) 
12
1 -0.65
10 0.2
11 0.66
13 -0.2
14 -0.2
15 -0.2
16 0.4
17 -0.2
2 -0.57
39 0.5
6 0.06
7 0.2

>  <PUBCHEM_EFFECTIVE_ROTOR_COUNT>  (1) 
7

>  <PUBCHEM_PHARMACOPHORE_FEATURES>  (1) 
7
1 1 acceptor
1 12 hydrophobe
1 2 acceptor
3 1 2 11 anion
3 3 4 6 hydrophobe
3 5 7 13 hydrophobe
4 8 9 10 14 hydrophobe

>  <PUBCHEM_HEAVY_ATOM_COUNT>  (1) 
17

>  <PUBCHEM_ATOM_DEF_STEREO_COUNT>  (1) 
0

>  <PUBCHEM_ATOM_UDEF_STEREO_COUNT>  (1) 
0

>  <PUBCHEM_BOND_DEF_STEREO_COUNT>  (1) 
0

>  <PUBCHEM_BOND_UDEF_STEREO_COUNT>  (1) 
0

>  <PUBCHEM_ISOTOPIC_ATOM_COUNT>  (1) 
0

>  <PUBCHEM_COMPONENT_COUNT>  (1) 
1

>  <PUBCHEM_CACTVS_TAUTO_COUNT>  (1) 
1

>  <PUBCHEM_CONFORMER_ID>  (1) 
000078DE00000001

>  <PUBCHEM_MMFF94_ENERGY>  (1) 
0.3926

>  <PUBCHEM_FEATURE_SELFOVERLAP>  (1) 
35.58

>  <PUBCHEM_SHAPE_FINGERPRINT>  (1) 
10316853 100 18335988674644246539
108634 29 18341059579395671350
11014199 57 17257651115099269995
12038231 1 17834116342531216914
14251705 54 18050284769764323476
15110567 62 18410013208852453713
152267 14 17113811891493773919
17093844 170 17546722016017778553
19930381 70 18265336097215008395
20398071 114 18264200486440090791
20621476 13 18410008802010565519
3014063 31 17906452486694518319
4283 87 18272639147841012413
5047190 48 16322027807287025841
59682541 52 18051095205004238893
6433294 58 18338518663204126267
8199 65 18410856512975631964

>  <PUBCHEM_SHAPE_MULTIPOLES>  (1) 
338.11
7.74
6.16
0.89
5.27
4.67
-0.03
-1.98
-1.83
-0.93
1.76
0.49
-0.09
0.8

>  <PUBCHEM_SHAPE_SELFOVERLAP>  (1) 
632.568

>  <PUBCHEM_SHAPE_VOLUME>  (1) 
206.6

>  <PUBCHEM_COORDINATE_TYPE>  (1) 
2
5
10

$$$$
