30957
     RDKit          3D

 30 35  0  0  1  0  0  0  0  0999 V2000
    0.7259    0.7990    2.1515 O   0  0  0  0  0  0  0  0  0  0  0  0
   -1.6083    1.3723    0.9544 O   0  0  0  0  0  0  0  0  0  0  0  0
    1.8385   -2.9629    0.1971 O   0  0  0  0  0  0  0  0  0  0  0  0
   -0.6246   -3.0788   -0.6038 O   0  0  0  0  0  0  0  0  0  0  0  0
    5.7188    1.2364   -1.5404 O   0  0  0  0  0  0  0  0  0  0  0  0
   -5.9172   -0.0165    0.0598 O   0  0  0  0  0  0  0  0  0  0  0  0
   -5.9967    2.2653   -0.2284 O   0  0  0  0  0  0  0  0  0  0  0  0
    0.6641    0.5507    0.7391 C   0  0  0  0  0  0  0  0  0  0  0  0
    1.6273   -0.5262    0.2421 C   0  0  0  0  0  0  0  0  0  0  0  0
   -0.7627    0.4805    0.2079 C   0  0  0  0  0  0  0  0  0  0  0  0
    1.2056    1.8527    1.3017 C   0  0  0  0  0  0  0  0  0  0  0  0
    3.1483   -0.2802    0.6138 C   0  0  0  0  0  0  0  0  0  0  0  0
   -1.3843   -0.9488    0.2862 C   0  0  0  0  0  0  0  0  0  0  0  0
    3.5106    1.2402    0.5200 C   0  0  0  0  0  0  0  0  0  0  0  0
    2.6624    2.1090    1.4526 C   0  0  0  0  0  0  0  0  0  0  0  0
    1.0387   -1.8881    0.6529 C   0  0  0  0  0  0  0  0  0  0  0  0
   -0.8543    0.8904   -1.2812 C   0  0  0  0  0  0  0  0  0  0  0  0
   -2.4247   -0.9379   -0.8747 C   0  0  0  0  0  0  0  0  0  0  0  0
   -0.3372   -2.0545    0.0200 C   0  0  0  0  0  0  0  0  0  0  0  0
    4.1192   -1.0269   -0.3582 C   0  0  0  0  0  0  0  0  0  0  0  0
   -1.6700   -0.1970   -1.9844 C   0  0  0  0  0  0  0  0  0  0  0  0
    3.4432    1.7718   -0.9296 C   0  0  0  0  0  0  0  0  0  0  0  0
    3.4718   -0.8018    2.0372 C   0  0  0  0  0  0  0  0  0  0  0  0
   -2.0076   -1.2916    1.6502 C   0  0  0  0  0  0  0  0  0  0  0  0
    4.0993   -0.5107   -1.7996 C   0  0  0  0  0  0  0  0  0  0  0  0
    4.3535    0.9903   -1.8753 C   0  0  0  0  0  0  0  0  0  0  0  0
   -3.7299   -0.2600   -0.5707 C   0  0  0  0  0  0  0  0  0  0  0  0
   -4.9097   -1.0193   -0.1092 C   0  0  0  0  0  0  0  0  0  0  0  0
   -4.0009    1.0389   -0.6662 C   0  0  0  0  0  0  0  0  0  0  0  0
   -5.3989    1.2037   -0.2648 C   0  0  0  0  0  0  0  0  0  0  0  0
  1  8  1  0
  1 11  1  0
  2 10  1  0
  3 16  1  0
  4 19  2  0
  5 26  1  0
  6 28  1  0
  6 30  1  0
  7 30  2  0
  8  9  1  0
  8 10  1  0
  8 11  1  0
  9 12  1  0
  9 16  1  0
 10 13  1  0
 10 17  1  0
 11 15  1  0
 12 14  1  0
 12 20  1  0
 12 23  1  0
 13 18  1  0
 13 19  1  0
 13 24  1  0
 14 15  1  0
 14 22  1  0
 16 19  1  0
 17 21  1  0
 18 21  1  0
 18 27  1  0
 20 25  1  0
 22 26  1  0
 25 26  1  0
 27 28  1  0
 27 29  2  0
 29 30  1  0
M  END
>  <PUBCHEM_COMPOUND_CID>  (1) 
30957

>  <PUBCHEM_CONFORMER_RMSD>  (1) 
0.8

>  <PUBCHEM_CONFORMER_DIVERSEORDER>  (1) 
8
10
4
1
18
5
2
17
7
16
12
6
13
3
11
9
14
15

>  <PUBCHEM_MMFF94_PARTIAL_CHARGES>  (1) 
26
1 -0.3
10 0.38
11 -0.05
13 0.06
15 0.09
16 0.34
18 0.14
19 0.45
2 -0.68
26 0.28
27 -0.28
28 0.42
29 -0.14
3 -0.68
30 0.71
32 0.1
4 -0.57
5 -0.68
54 0.4
56 0.4
59 0.15
6 -0.43
60 0.4
7 -0.57
8 -0.04
9 0.09

>  <PUBCHEM_EFFECTIVE_ROTOR_COUNT>  (1) 
3.4

>  <PUBCHEM_PHARMACOPHORE_FEATURES>  (1) 
14
1 1 acceptor
1 2 acceptor
1 2 donor
1 3 acceptor
1 3 donor
1 4 acceptor
1 5 acceptor
1 5 donor
1 7 acceptor
5 10 13 17 18 21 rings
5 6 27 28 29 30 rings
6 12 14 20 22 25 26 rings
6 8 9 10 13 16 19 rings
7 1 8 9 11 12 14 15 rings

>  <PUBCHEM_HEAVY_ATOM_COUNT>  (1) 
30

>  <PUBCHEM_ATOM_DEF_STEREO_COUNT>  (1) 
8

>  <PUBCHEM_ATOM_UDEF_STEREO_COUNT>  (1) 
2

>  <PUBCHEM_BOND_DEF_STEREO_COUNT>  (1) 
0

>  <PUBCHEM_BOND_UDEF_STEREO_COUNT>  (1) 
0

>  <PUBCHEM_ISOTOPIC_ATOM_COUNT>  (1) 
0

>  <PUBCHEM_COMPONENT_COUNT>  (1) 
1

>  <PUBCHEM_CACTVS_TAUTO_COUNT>  (1) 
4

>  <PUBCHEM_CONFORMER_ID>  (1) 
000078ED00000008

>  <PUBCHEM_MMFF94_ENERGY>  (1) 
91.6833

>  <PUBCHEM_FEATURE_SELFOVERLAP>  (1) 
71.306

>  <PUBCHEM_SHAPE_FINGERPRINT>  (1) 
10165383 225 18334298681952981726
10863032 1 17312824909033043210
11578080 2 18122628516157070808
11595378 159 15719666555426287765
11796584 16 14045741534485099405
12166972 35 18115864101922493722
12596599 1 17346321552343196174
12788726 201 18272657809574614448
12895836 83 18188498002882046364
12895837 130 17462022156481651572
13140716 1 18195225918558577090
13224815 77 18041549338617591518
13583140 156 11311186894239155637
13782708 43 16987994042252467247
14341114 328 15936689367017369924
14790565 3 18409451392697006893
14931854 50 18200333051954839844
15183329 4 17346324778164237781
15210252 30 18261396676081742644
15238133 3 18339071605899611520
15475509 8 17273719592611942241
15788980 27 12607406607217849981
1601671 61 18409163286300892321
16752209 62 17988649549330172920
16945 1 18272088340018716450
18608769 82 18194409020158318691
19862831 5 17917711322511463010
20691752 17 17677873781687661198
20832881 197 18059857238054248784
21033648 29 18340484573157781313
22149856 69 13624106219358025205
22182313 1 17912083055970786194
22393880 68 18131063870638649087
23559900 14 17703790374908979464
3004659 81 18410295766593810110
345986 75 12534801352914806814
350125 39 18336540508815772904
3633792 109 14836124333950295041
376196 1 17127020771639293808
392239 28 14346084147882192069
4058900 60 18263090929126337827
4098825 35 18335145259184274044
463206 1 12391510888754375437
513532 50 17704065201471436198
633830 44 18130211740400194037

>  <PUBCHEM_SHAPE_MULTIPOLES>  (1) 
576.3
10.94
2.44
1.79
8.29
0.83
0.01
-4.59
-3.35
-0.21
0.22
-1.75
-0.31
-0.17

>  <PUBCHEM_SHAPE_SELFOVERLAP>  (1) 
1275.988

>  <PUBCHEM_SHAPE_VOLUME>  (1) 
307.1

>  <PUBCHEM_COORDINATE_TYPE>  (1) 
2
5
10

$$$$
