30962
     RDKit          3D

 15 15  0  0  0  0  0  0  0  0999 V2000
    1.7513   -2.8395    0.0074 Cl  0  0  0  0  0  0  0  0  0  0  0  0
    3.8747   -0.8719    0.7065 S   0  0  0  0  0  0  0  0  0  0  0  0
   -0.4744    0.7506    0.1620 O   0  0  0  0  0  0  0  0  0  0  0  0
   -0.0253   -0.4778   -1.7323 O   0  0  0  0  0  0  0  0  0  0  0  0
   -4.0450   -0.1421   -0.0392 N   0  0  0  0  0  0  0  0  0  0  0  0
    3.7425    0.7794    0.5707 N   0  0  0  0  0  0  0  0  0  0  0  0
   -2.6352   -0.2613    0.3314 C   0  0  0  0  0  0  0  0  0  0  0  0
   -1.8312    0.8977   -0.2360 C   0  0  0  0  0  0  0  0  0  0  0  0
   -4.5947    1.1243    0.4432 C   0  0  0  0  0  0  0  0  0  0  0  0
   -4.8107   -1.2680    0.4943 C   0  0  0  0  0  0  0  0  0  0  0  0
    1.7076   -0.0440   -0.1532 C   0  0  0  0  0  0  0  0  0  0  0  0
    0.3223    0.0373   -0.6810 C   0  0  0  0  0  0  0  0  0  0  0  0
    2.5296    1.0584    0.0991 C   0  0  0  0  0  0  0  0  0  0  0  0
    2.3006   -1.2269    0.1317 C   0  0  0  0  0  0  0  0  0  0  0  0
    2.1880    2.4836   -0.1048 C   0  0  0  0  0  0  0  0  0  0  0  0
  1 14  1  0
  2  6  1  0
  2 14  1  0
  3  8  1  0
  3 12  1  0
  4 12  2  0
  5  7  1  0
  5  9  1  0
  5 10  1  0
  6 13  2  0
  7  8  1  0
 11 12  1  0
 11 13  1  0
 11 14  2  0
 13 15  1  0
M  END
>  <PUBCHEM_COMPOUND_CID>  (1) 
30962

>  <PUBCHEM_CONFORMER_RMSD>  (1) 
0.6

>  <PUBCHEM_CONFORMER_DIVERSEORDER>  (1) 
14
96
119
44
35
63
97
123
20
57
103
50
52
65
46
112
110
51
36
74
38
62
121
42
24
105
75
66
70
40
29
6
69
45
2
83
73
68
55
80
28
10
99
109
43
12
115
30
37
67
61
17
27
11
100
41
94
21
102
108
39
23
1
107
89
31
13
101
98
64
72
71
54
104
85
25
95
47
5
86
9
34
4
7
58
53
16
3
114
81
56
88
33
8
49
32
15
19
87
84
118
26
106
79
77
48
93
60
122
82
18
59
116
22
117
76
78
120
92
111
113
91
90

>  <PUBCHEM_MMFF94_PARTIAL_CHARGES>  (1) 
15
1 -0.12
10 0.27
11 -0.09
12 0.81
13 0.11
14 0.16
15 0.18
2 0.18
3 -0.43
4 -0.57
5 -0.81
6 -0.51
7 0.27
8 0.28
9 0.27

>  <PUBCHEM_EFFECTIVE_ROTOR_COUNT>  (1) 
5

>  <PUBCHEM_PHARMACOPHORE_FEATURES>  (1) 
4
1 4 acceptor
1 5 cation
1 6 acceptor
5 2 6 11 13 14 rings

>  <PUBCHEM_HEAVY_ATOM_COUNT>  (1) 
15

>  <PUBCHEM_ATOM_DEF_STEREO_COUNT>  (1) 
0

>  <PUBCHEM_ATOM_UDEF_STEREO_COUNT>  (1) 
0

>  <PUBCHEM_BOND_DEF_STEREO_COUNT>  (1) 
0

>  <PUBCHEM_BOND_UDEF_STEREO_COUNT>  (1) 
0

>  <PUBCHEM_ISOTOPIC_ATOM_COUNT>  (1) 
0

>  <PUBCHEM_COMPONENT_COUNT>  (1) 
1

>  <PUBCHEM_CACTVS_TAUTO_COUNT>  (1) 
1

>  <PUBCHEM_CONFORMER_ID>  (1) 
000078F20000000E

>  <PUBCHEM_MMFF94_ENERGY>  (1) 
27.0605

>  <PUBCHEM_FEATURE_SELFOVERLAP>  (1) 
20.297

>  <PUBCHEM_SHAPE_FINGERPRINT>  (1) 
10366900 7 18187373146251141321
10498660 4 13613969846882229779
12251169 10 18342454837537847447
14251717 144 18408884035816794658
14252887 29 18186807941408332147
14289901 80 18413109485304638417
15422964 175 18122054300483164038
15501101 241 18113900442299366420
19050596 39 18413109459429482313
20233049 118 16988560186769857080
20559304 39 18341896268820599368
20645477 70 18408037390710362919
20871998 22 18196089928950840086
21637258 2 15575260001464764002
22485316 2 18410292502270601667
2255824 54 18336270119313339564
23402539 116 17531238461800773221
23557571 272 17458338629266609429
23559900 14 18409445851935467809
26918003 58 18408317766206808665
2748010 2 17837474273118343524
276578 36 16056881316724294542
31174 14 18040987467107253964
3286 77 18040709247636301040
33824 294 18408321090274534714
42 15 18260831479769857993
5104073 3 18409731768299006777
8272917 22 18411986827544222486
9709674 26 18335427859120935235

>  <PUBCHEM_SHAPE_MULTIPOLES>  (1) 
292.71
8.92
2.24
0.89
10.56
0.48
-0.23
0.7
2.6
-1.64
0.06
-0.09
0.09
0.02

>  <PUBCHEM_SHAPE_SELFOVERLAP>  (1) 
569.924

>  <PUBCHEM_SHAPE_VOLUME>  (1) 
180.6

>  <PUBCHEM_COORDINATE_TYPE>  (1) 
2
5
10

$$$$
