30963
     RDKit          3D

 20 20  0  0  1  0  0  0  0  0999 V2000
    5.8294    1.0213   -0.5156 O   0  0  0  0  0  0  0  0  0  0  0  0
    0.2366   -0.3316    1.5222 O   0  0  0  0  0  0  0  0  0  0  0  0
    2.6927   -0.7214    0.3268 N   0  0  0  0  0  0  0  0  0  0  0  0
   -0.6352    0.3114   -0.5607 N   0  0  0  0  0  0  0  0  0  0  0  0
    1.7368    0.1961   -0.2923 C   0  0  0  0  0  0  0  0  0  0  0  0
    4.0274   -0.5270   -0.2385 C   0  0  0  0  0  0  0  0  0  0  0  0
    2.2594   -2.1069    0.1499 C   0  0  0  0  0  0  0  0  0  0  0  0
   -2.0337    0.2660   -0.3478 C   0  0  0  0  0  0  0  0  0  0  0  0
    0.3739    0.0179    0.3542 C   0  0  0  0  0  0  0  0  0  0  0  0
    4.5261    0.8829    0.0350 C   0  0  0  0  0  0  0  0  0  0  0  0
   -2.7236   -0.9107   -0.5978 C   0  0  0  0  0  0  0  0  0  0  0  0
   -2.6903    1.4000    0.1065 C   0  0  0  0  0  0  0  0  0  0  0  0
    3.2416   -3.0749    0.7876 C   0  0  0  0  0  0  0  0  0  0  0  0
   -4.7746    0.1789    0.0685 C   0  0  0  0  0  0  0  0  0  0  0  0
   -4.1020   -0.9545   -0.3886 C   0  0  0  0  0  0  0  0  0  0  0  0
   -4.0687    1.3562    0.3159 C   0  0  0  0  0  0  0  0  0  0  0  0
   -2.0315   -2.1416   -1.0872 C   0  0  0  0  0  0  0  0  0  0  0  0
   -1.9618    2.6762    0.3805 C   0  0  0  0  0  0  0  0  0  0  0  0
   -6.2481    0.1324    0.2922 C   0  0  0  0  0  0  0  0  0  0  0  0
    6.3456    2.3294   -0.3109 C   0  0  0  0  0  0  0  0  0  0  0  0
  1 10  1  0
  1 20  1  0
  2  9  2  0
  3  5  1  0
  3  6  1  0
  3  7  1  0
  4  8  1  0
  4  9  1  0
  5  9  1  0
  6 10  1  0
  7 13  1  0
  8 11  2  0
  8 12  1  0
 11 15  1  0
 11 17  1  0
 12 16  2  0
 12 18  1  0
 14 15  2  0
 14 16  1  0
 14 19  1  0
M  END
>  <PUBCHEM_COMPOUND_CID>  (1) 
30963

>  <PUBCHEM_CONFORMER_RMSD>  (1) 
0.8

>  <PUBCHEM_CONFORMER_DIVERSEORDER>  (1) 
1
32
4
24
16
28
31
14
27
19
38
6
30
15
29
33
26
35
23
7
17
25
21
22
8
5
36
3
20
34
37
12
10
9
11
18
13
2

>  <PUBCHEM_MMFF94_PARTIAL_CHARGES>  (1) 
22
1 -0.56
10 0.28
11 -0.14
12 -0.14
14 -0.14
15 -0.15
16 -0.15
17 0.14
18 0.14
19 0.14
2 -0.57
20 0.28
29 0.37
3 -0.81
33 0.15
34 0.15
4 -0.55
5 0.33
6 0.27
7 0.27
8 0.12
9 0.57

>  <PUBCHEM_EFFECTIVE_ROTOR_COUNT>  (1) 
8

>  <PUBCHEM_PHARMACOPHORE_FEATURES>  (1) 
5
1 1 acceptor
1 2 acceptor
1 3 cation
1 4 donor
6 8 11 12 14 15 16 rings

>  <PUBCHEM_HEAVY_ATOM_COUNT>  (1) 
20

>  <PUBCHEM_ATOM_DEF_STEREO_COUNT>  (1) 
0

>  <PUBCHEM_ATOM_UDEF_STEREO_COUNT>  (1) 
0

>  <PUBCHEM_BOND_DEF_STEREO_COUNT>  (1) 
0

>  <PUBCHEM_BOND_UDEF_STEREO_COUNT>  (1) 
0

>  <PUBCHEM_ISOTOPIC_ATOM_COUNT>  (1) 
0

>  <PUBCHEM_COMPONENT_COUNT>  (1) 
1

>  <PUBCHEM_CACTVS_TAUTO_COUNT>  (1) 
2

>  <PUBCHEM_CONFORMER_ID>  (1) 
000078F300000001

>  <PUBCHEM_MMFF94_ENERGY>  (1) 
72.6382

>  <PUBCHEM_FEATURE_SELFOVERLAP>  (1) 
25.372

>  <PUBCHEM_SHAPE_FINGERPRINT>  (1) 
10595046 47 18410854352100478498
10616163 171 18342174500838974319
10759866 29 18342455907328056646
10968037 39 18411138065309116397
12107183 9 17618504276924401648
12236239 1 18260547801638532661
12390115 104 17702961223072742265
12788726 201 17489312923428618657
13167823 11 18338796693717584682
13533116 47 18338511946118219483
13631057 29 18197212757476362479
13760787 19 18272647961156218366
13897977 58 18342740719399287365
14251764 18 18059857273295033035
14528608 73 18410857689965437316
15048467 5 18342458157510884277
15196674 1 18339078173358267831
17834072 33 18410009914280208846
17844677 252 18338524010649510284
17980427 23 16734115729050999934
1813 80 17168433661907675215
18335252 98 18261398879763520747
19377110 9 18409160000745759664
20645477 70 18338517413696223414
21065198 48 18339643330597792785
21267235 1 18339648819466205414
2297311 6 17989214741346388077
23175994 123 15913328009450285545
23557571 272 17918000464153081236
23559900 14 18271237339309226249
300161 21 18333444339901191015
3004659 81 18200314312844260782
335352 9 18272082834819806279
34797466 226 17703800249228996076
3545911 37 18410856568372408924
4214541 1 18267583498702432065
4325135 7 18410576201734748004
474 4 18040721402536550460
5104073 3 18264490589984650033
543368 44 18341612658865522924
67856867 119 18336256852581277682
77779 3 18338797806029393435

>  <PUBCHEM_SHAPE_MULTIPOLES>  (1) 
389.89
13.67
2.66
0.88
7.96
0.55
-0.08
-5.51
0.68
2.49
-0.21
-0.01
0.24
-1.48

>  <PUBCHEM_SHAPE_SELFOVERLAP>  (1) 
781.842

>  <PUBCHEM_SHAPE_VOLUME>  (1) 
233.3

>  <PUBCHEM_COORDINATE_TYPE>  (1) 
2
5
10

$$$$
