30961
     RDKit          3D

 15 15  0  0  0  0  0  0  0  0999 V2000
    4.6298    1.2653   -0.9190 Cl  0  0  0  0  0  0  0  0  0  0  0  0
    0.0633   -2.6980   -0.4126 O   0  0  0  0  0  0  0  0  0  0  0  0
   -2.6806    2.0523    0.1412 O   0  0  0  0  0  0  0  0  0  0  0  0
    1.9983    1.9389    0.4531 O   0  0  0  0  0  0  0  0  0  0  0  0
    1.4843   -0.3260    0.0729 N   0  0  0  0  0  0  0  0  0  0  0  0
    0.0914   -0.3294   -0.0317 C   0  0  0  0  0  0  0  0  0  0  0  0
   -0.6011   -1.5162   -0.2721 C   0  0  0  0  0  0  0  0  0  0  0  0
   -0.6074    0.8699    0.1072 C   0  0  0  0  0  0  0  0  0  0  0  0
   -1.9986    0.8823    0.0056 C   0  0  0  0  0  0  0  0  0  0  0  0
   -1.9923   -1.5036   -0.3736 C   0  0  0  0  0  0  0  0  0  0  0  0
   -2.6910   -0.3044   -0.2348 C   0  0  0  0  0  0  0  0  0  0  0  0
    2.3302    0.7650    0.3100 C   0  0  0  0  0  0  0  0  0  0  0  0
    3.7876    0.3708    0.3559 C   0  0  0  0  0  0  0  0  0  0  0  0
    0.2875   -3.4595    0.7719 C   0  0  0  0  0  0  0  0  0  0  0  0
   -4.1015    1.9928    0.0261 C   0  0  0  0  0  0  0  0  0  0  0  0
  1 13  1  0
  2  7  1  0
  2 14  1  0
  3  9  1  0
  3 15  1  0
  4 12  2  0
  5  6  1  0
  5 12  1  0
  6  7  2  0
  6  8  1  0
  7 10  1  0
  8  9  2  0
  9 11  1  0
 10 11  2  0
 12 13  1  0
M  END
>  <PUBCHEM_COMPOUND_CID>  (1) 
30961

>  <PUBCHEM_CONFORMER_RMSD>  (1) 
0.6

>  <PUBCHEM_CONFORMER_DIVERSEORDER>  (1) 
1
18
13
40
31
7
11
29
19
8
27
12
14
17
4
36
33
3
24
23
32
30
5
15
20
37
26
16
2
25
39
10
9
28
21
6
35
34
22
38

>  <PUBCHEM_MMFF94_PARTIAL_CHARGES>  (1) 
19
1 -0.29
10 -0.15
11 -0.15
12 0.57
13 0.35
14 0.28
15 0.28
16 0.15
17 0.15
18 0.15
19 0.37
2 -0.36
3 -0.36
4 -0.57
5 -0.55
6 0.12
7 0.08
8 -0.15
9 0.08

>  <PUBCHEM_EFFECTIVE_ROTOR_COUNT>  (1) 
5

>  <PUBCHEM_PHARMACOPHORE_FEATURES>  (1) 
5
1 2 acceptor
1 3 acceptor
1 4 acceptor
1 5 donor
6 6 7 8 9 10 11 rings

>  <PUBCHEM_HEAVY_ATOM_COUNT>  (1) 
15

>  <PUBCHEM_ATOM_DEF_STEREO_COUNT>  (1) 
0

>  <PUBCHEM_ATOM_UDEF_STEREO_COUNT>  (1) 
0

>  <PUBCHEM_BOND_DEF_STEREO_COUNT>  (1) 
0

>  <PUBCHEM_BOND_UDEF_STEREO_COUNT>  (1) 
0

>  <PUBCHEM_ISOTOPIC_ATOM_COUNT>  (1) 
0

>  <PUBCHEM_COMPONENT_COUNT>  (1) 
1

>  <PUBCHEM_CACTVS_TAUTO_COUNT>  (1) 
2

>  <PUBCHEM_CONFORMER_ID>  (1) 
000078F100000001

>  <PUBCHEM_MMFF94_ENERGY>  (1) 
60.1326

>  <PUBCHEM_FEATURE_SELFOVERLAP>  (1) 
25.373

>  <PUBCHEM_SHAPE_FINGERPRINT>  (1) 
10608611 8 18128530655867421792
10967382 1 18196086647089248289
12173636 292 18338512057734452892
12500047 106 18341048609980436756
12592029 89 18337393716859171179
12644460 14 18048888394318305107
13380535 76 18338793421273836211
15775835 57 18335139773883360304
16752209 62 18340474681510371114
16945 1 18195802092584050170
17834072 32 18410579500106523236
18186145 218 17846501456450055688
193761 8 18339919299790745111
20510252 161 18199466743507029257
20645476 183 18261399996032524132
20645477 56 18340487867503380336
20671657 1 18125718985332929235
20871999 31 18340773753432401884
212916 134 18127666328058483456
21501502 16 18196922297981560199
21524375 3 18341608192267937421
23366157 5 17971192525785710035
23402539 116 18199176476853784431
23419403 2 17337368121757783543
23559900 14 18131070438218865296
23598294 1 18335412525760179920
25 1 18271243820156159541
2748010 2 18412269410844217167
305870 269 18336825290727514347
3071541 12 18052259488115503991
3071541 37 18265896848129310765
3091708 16 9338492536582018475
43471831 8 18336256886229359579
559249 180 18411138027097652254
7364860 26 18125437501756000775
81228 2 17907282600772066403
81539 233 18190177897466231933
8809292 202 18196092372671063482

>  <PUBCHEM_SHAPE_MULTIPOLES>  (1) 
287.97
6.72
3.14
0.76
4.79
2.65
0.03
-5.86
0.89
-1.3
-0.41
0.32
0.08
-0.44

>  <PUBCHEM_SHAPE_SELFOVERLAP>  (1) 
580.439

>  <PUBCHEM_SHAPE_VOLUME>  (1) 
170.1

>  <PUBCHEM_COORDINATE_TYPE>  (1) 
2
5
10

$$$$
