30977
     RDKit          3D

 21 22  0  0  0  0  0  0  0  0999 V2000
   -4.9778    0.1998   -0.0379 O   0  0  0  0  0  0  0  0  0  0  0  0
    3.0296    1.0698   -1.6299 O   0  0  0  0  0  0  0  0  0  0  0  0
   -6.0957    2.7460    0.2734 O   0  0  0  0  0  0  0  0  0  0  0  0
   -1.1281   -1.5151   -0.3454 N   0  0  0  0  0  0  0  0  0  0  0  0
    1.5330   -0.5798    0.1052 N   0  0  0  0  0  0  0  0  0  0  0  0
   -0.0211   -2.4684   -0.1988 C   0  0  0  0  0  0  0  0  0  0  0  0
   -0.6497   -0.2912   -0.9995 C   0  0  0  0  0  0  0  0  0  0  0  0
    1.1058   -1.8748    0.6497 C   0  0  0  0  0  0  0  0  0  0  0  0
    0.4572    0.3750   -0.1786 C   0  0  0  0  0  0  0  0  0  0  0  0
   -2.2213   -2.1127   -1.1112 C   0  0  0  0  0  0  0  0  0  0  0  0
   -3.3828   -1.1310   -1.2301 C   0  0  0  0  0  0  0  0  0  0  0  0
    2.8055   -0.1097    0.4486 C   0  0  0  0  0  0  0  0  0  0  0  0
   -3.9115   -0.7227    0.1383 C   0  0  0  0  0  0  0  0  0  0  0  0
    3.5497    0.7143   -0.4212 C   0  0  0  0  0  0  0  0  0  0  0  0
    3.3831   -0.4518    1.6883 C   0  0  0  0  0  0  0  0  0  0  0  0
    4.8170    1.1760   -0.0656 C   0  0  0  0  0  0  0  0  0  0  0  0
    4.6505    0.0099    2.0436 C   0  0  0  0  0  0  0  0  0  0  0  0
    5.3674    0.8239    1.1667 C   0  0  0  0  0  0  0  0  0  0  0  0
   -5.5157    0.6201    1.2088 C   0  0  0  0  0  0  0  0  0  0  0  0
   -6.6293    1.6180    0.9560 C   0  0  0  0  0  0  0  0  0  0  0  0
    3.8340    1.9043   -2.4605 C   0  0  0  0  0  0  0  0  0  0  0  0
  1 13  1  0
  1 19  1  0
  2 14  1  0
  2 21  1  0
  3 20  1  0
  4  6  1  0
  4  7  1  0
  4 10  1  0
  5  8  1  0
  5  9  1  0
  5 12  1  0
  6  8  1  0
  7  9  1  0
 10 11  1  0
 11 13  1  0
 12 14  2  0
 12 15  1  0
 14 16  1  0
 15 17  2  0
 16 18  2  0
 17 18  1  0
 19 20  1  0
M  END
>  <PUBCHEM_COMPOUND_CID>  (1) 
30977

>  <PUBCHEM_CONFORMER_RMSD>  (1) 
0.8

>  <PUBCHEM_CONFORMER_DIVERSEORDER>  (1) 
7
293
169
200
481
435
157
147
473
33
432
171
126
270
9
321
469
462
102
162
309
349
316
466
320
47
181
217
129
128
281
419
372
43
64
190
485
140
160
318
42
463
115
252
482
10
396
110
250
224
494
216
1
461
236
474
168
63
328
307
133
17
286
233
436
426
451
364
109
453
163
486
143
415
161
55
334
57
383
214
265
182
153
282
370
240
205
261
450
331
97
363
232
122
197
330
212
170
255
32
226
304
459
273
188
418
199
294
91
300
195
379
192
360
94
277
151
413
82
410
86
456
23
62
256
406
387
355
88
344
376
342
202
452
101
215
283
443
40
49
231
206
493
317
165
441
20
477
89
409
296
175
81
239
99
420
333
416
380
314
478
368
268
22
324
246
382
230
358
251
361
118
191
306
335
3
375
36
38
176
377
220
67
353
61
79
424
292
343
30
276
116
385
248
95
479
487
100
11
431
149
389
332
221
401
34
489
28
52
337
308
51
193
46
164
464
269
476
211
237
228
284
177
262
446
350
408
18
76
417
373
92
15
275
264
367
242
198
381
392
105
68
346
467
347
134
83
173
241
16
48
305
65
393
114
290
259
167
326
340
111
29
313
159
138
492
117
336
150
25
458
465
194
345
148
53
106
186
229
352
442
130
329
412
475
12
359
70
267
5
468
249
180
210
183
423
238
488
187
362
298
98
378
312
371
136
244
319
189
184
254
422
390
103
207
45
285
480
279
263
203
374
365
125
301
54
85
421
386
121
75
366
356
351
31
271
90
104
449
405
204
39
222
60
13
399
185
59
411
354
303
395
66
472
440
218
338
323
73
384
457
439
295
72
460
348
445
454
119
287
438
400
266
484
201
135
391
483
44
311
272
158
50
430
235
69
6
112
155
404
455
156
327
108
145
8
219
154
132
179
388
448
137
394
253
107
87
425
127
131
433
80
444
289
144
428
58
178
77
341
172
427
41
247
225
78
402
258
19
414
84
369
490
310
322
434
96
491
93
21
142
397
141
398
470
299
113
257
403
407
120
297
280
35
234
74
123
4
245
447
208
223
124
26
152
139
37
274
429
56
339
213
146
166
288
2
196
260
209
27
315
71
227
24
325
174
278
357
243
14
302
437
471
291

>  <PUBCHEM_MMFF94_PARTIAL_CHARGES>  (1) 
25
1 -0.56
10 0.27
12 0.1
13 0.28
14 0.08
15 -0.15
16 -0.15
17 -0.15
18 -0.15
19 0.28
2 -0.36
20 0.28
21 0.28
3 -0.68
36 0.15
37 0.15
38 0.15
39 0.15
4 -0.81
47 0.4
5 -0.84
6 0.27
7 0.27
8 0.37
9 0.37

>  <PUBCHEM_EFFECTIVE_ROTOR_COUNT>  (1) 
9.2

>  <PUBCHEM_PHARMACOPHORE_FEATURES>  (1) 
8
1 1 acceptor
1 2 acceptor
1 3 acceptor
1 3 donor
1 4 cation
1 5 cation
6 12 14 15 16 17 18 rings
6 4 5 6 7 8 9 rings

>  <PUBCHEM_HEAVY_ATOM_COUNT>  (1) 
21

>  <PUBCHEM_ATOM_DEF_STEREO_COUNT>  (1) 
0

>  <PUBCHEM_ATOM_UDEF_STEREO_COUNT>  (1) 
0

>  <PUBCHEM_BOND_DEF_STEREO_COUNT>  (1) 
0

>  <PUBCHEM_BOND_UDEF_STEREO_COUNT>  (1) 
0

>  <PUBCHEM_ISOTOPIC_ATOM_COUNT>  (1) 
0

>  <PUBCHEM_COMPONENT_COUNT>  (1) 
1

>  <PUBCHEM_CACTVS_TAUTO_COUNT>  (1) 
1

>  <PUBCHEM_CONFORMER_ID>  (1) 
0000790100000007

>  <PUBCHEM_MMFF94_ENERGY>  (1) 
68.7563

>  <PUBCHEM_FEATURE_SELFOVERLAP>  (1) 
40.602

>  <PUBCHEM_SHAPE_FINGERPRINT>  (1) 
10674148 151 18189355562528993444
10912923 1 18041839635663038479
11045977 3 15502363547935743807
12422481 6 17895469224774162309
12596602 18 17168151148314172561
12616971 3 17967528003848289847
13583140 156 16009568244675629055
13782708 43 13407335358314924128
14123256 34 10809352109632801465
14251764 75 17461459188984493996
14341114 176 16732698350766185302
14341114 328 17967818262565987635
14573314 32 16056606485882518850
14790565 3 18337114574139697469
14950920 106 16950282910395463225
15183329 4 10303820865575193883
15238133 3 18411702105799303864
15348495 7 16370730348579818969
15475509 8 18335997393648949302
193927 3 12035735293142126379
20281389 69 18130785659831698427
21302155 148 18339643335389171385
21585481 104 14620238461129117657
22289505 5 16200433593907493368
23557571 272 16987715877645806959
23559900 14 14476685282018122966
270888 7 18059573534807358121
2748736 6 18199461083463391265
2838139 119 17417524710388335337
293599 30 18131913758698635675
3459 39 18272073981995812897
3472631 163 17917706941618707289
38570 142 17242195619945223700
4098825 35 14117533030257249011
5104073 3 17605264293527370184
59682541 52 13901909960548861233
8863177 126 15213013852088652712
960060 61 13039188099957055227

>  <PUBCHEM_SHAPE_MULTIPOLES>  (1) 
404.6
14.92
2.31
1.79
17.61
0.09
-0.35
-11.69
5.38
2.5
-0.48
-2.15
-0.57
-2.64

>  <PUBCHEM_SHAPE_SELFOVERLAP>  (1) 
817.431

>  <PUBCHEM_SHAPE_VOLUME>  (1) 
236.7

>  <PUBCHEM_COORDINATE_TYPE>  (1) 
2
5
10

$$$$
