30995
     RDKit          3D

 24 25  0  0  0  0  0  0  0  0999 V2000
   -6.0010   -3.5742   -0.1934 Cl  0  0  0  0  0  0  0  0  0  0  0  0
    2.5511    0.7442    1.2155 O   0  0  0  0  0  0  0  0  0  0  0  0
    5.5567   -0.7435   -0.3136 N   0  0  0  0  0  0  0  0  0  0  0  0
   -2.8362    1.5253   -0.2671 C   0  0  0  0  0  0  0  0  0  0  0  0
   -1.4124    1.3185    0.1247 C   0  0  0  0  0  0  0  0  0  0  0  0
   -3.6605    0.1950   -0.2469 C   0  0  0  0  0  0  0  0  0  0  0  0
   -3.4602    2.6122    0.6771 C   0  0  0  0  0  0  0  0  0  0  0  0
   -3.0671    2.1129   -1.7105 C   0  0  0  0  0  0  0  0  0  0  0  0
   -1.1029    0.8023    1.3829 C   0  0  0  0  0  0  0  0  0  0  0  0
   -0.3898    1.6421   -0.7673 C   0  0  0  0  0  0  0  0  0  0  0  0
    4.5957   -0.4000    0.7338 C   0  0  0  0  0  0  0  0  0  0  0  0
   -4.7331    0.1385    0.5866 C   0  0  0  0  0  0  0  0  0  0  0  0
   -3.2458   -0.8084   -1.0652 C   0  0  0  0  0  0  0  0  0  0  0  0
    1.2427    0.9345    0.8549 C   0  0  0  0  0  0  0  0  0  0  0  0
    0.2292    0.6097    1.7493 C   0  0  0  0  0  0  0  0  0  0  0  0
    0.9422    1.4494   -0.4008 C   0  0  0  0  0  0  0  0  0  0  0  0
    3.4677    0.4490    0.1697 C   0  0  0  0  0  0  0  0  0  0  0  0
    6.1244    0.4679   -0.9040 C   0  0  0  0  0  0  0  0  0  0  0  0
    6.6171   -1.5947    0.2250 C   0  0  0  0  0  0  0  0  0  0  0  0
   -5.4685   -1.0466    0.6038 C   0  0  0  0  0  0  0  0  0  0  0  0
   -3.9814   -1.9935   -1.0480 C   0  0  0  0  0  0  0  0  0  0  0  0
   -5.0928   -2.1126   -0.2135 C   0  0  0  0  0  0  0  0  0  0  0  0
    7.0799    0.1313   -2.0361 C   0  0  0  0  0  0  0  0  0  0  0  0
    6.0451   -2.8594    0.8430 C   0  0  0  0  0  0  0  0  0  0  0  0
  1 22  1  0
  2 14  1  0
  2 17  1  0
  3 11  1  0
  3 18  1  0
  3 19  1  0
  4  5  1  0
  4  6  1  0
  4  7  1  0
  4  8  1  0
  5  9  2  0
  5 10  1  0
  6 12  2  0
  6 13  1  0
  9 15  1  0
 10 16  2  0
 11 17  1  0
 12 20  1  0
 13 21  2  0
 14 15  2  0
 14 16  1  0
 18 23  1  0
 19 24  1  0
 20 22  2  0
 21 22  1  0
M  END
>  <PUBCHEM_COMPOUND_CID>  (1) 
30995

>  <PUBCHEM_CONFORMER_RMSD>  (1) 
0.8

>  <PUBCHEM_CONFORMER_DIVERSEORDER>  (1) 
1
121
123
136
30
90
106
88
83
111
59
91
132
93
22
27
51
120
17
52
101
55
80
26
86
102
37
75
33
35
50
95
133
125
103
140
104
141
66
68
20
146
36
81
142
99
46
117
129
96
57
49
110
39
24
92
139
25
19
114
112
29
97
42
15
87
32
119
116
34
82
98
71
84
128
130
145
134
40
60
3
23
69
54
61
107
109
118
94
72
56
67
122
143
16
115
12
105
85
74
79
41
18
11
6
76
108
4
8
73
78
45
5
64
62
14
13
38
126
2
44
63
28
58
31
138
43
135
70
77
113
9
131
53
137
127
7
89
65
10
21
144
48
47
124
100

>  <PUBCHEM_MMFF94_PARTIAL_CHARGES>  (1) 
28
1 -0.18
10 -0.15
11 0.27
12 -0.15
13 -0.15
14 0.08
15 -0.15
16 -0.15
17 0.28
18 0.27
19 0.27
2 -0.36
20 -0.15
21 -0.15
22 0.18
3 -0.81
31 0.15
32 0.15
35 0.15
36 0.15
39 0.15
4 0.29
40 0.15
45 0.15
46 0.15
5 -0.14
6 -0.14
9 -0.15

>  <PUBCHEM_EFFECTIVE_ROTOR_COUNT>  (1) 
8

>  <PUBCHEM_PHARMACOPHORE_FEATURES>  (1) 
5
1 2 acceptor
1 3 cation
3 4 7 8 hydrophobe
6 5 9 10 14 15 16 rings
6 6 12 13 20 21 22 rings

>  <PUBCHEM_HEAVY_ATOM_COUNT>  (1) 
24

>  <PUBCHEM_ATOM_DEF_STEREO_COUNT>  (1) 
0

>  <PUBCHEM_ATOM_UDEF_STEREO_COUNT>  (1) 
0

>  <PUBCHEM_BOND_DEF_STEREO_COUNT>  (1) 
0

>  <PUBCHEM_BOND_UDEF_STEREO_COUNT>  (1) 
0

>  <PUBCHEM_ISOTOPIC_ATOM_COUNT>  (1) 
0

>  <PUBCHEM_COMPONENT_COUNT>  (1) 
1

>  <PUBCHEM_CACTVS_TAUTO_COUNT>  (1) 
1

>  <PUBCHEM_CONFORMER_ID>  (1) 
0000791300000001

>  <PUBCHEM_MMFF94_ENERGY>  (1) 
82.073

>  <PUBCHEM_FEATURE_SELFOVERLAP>  (1) 
25.371

>  <PUBCHEM_SHAPE_FINGERPRINT>  (1) 
10 15 11095879410470085071
10291535 26 7925914798908692165
10595046 47 18335143090299836932
11524674 6 16989123149919390967
117089 54 18046634683509196883
11796584 16 18198338464541628250
11809386 21 18410848837499893555
11961588 58 11025783324181236229
12633257 1 15983703458457071839
12760667 363 18201995565033491535
13288520 33 18411700989350562377
1361 4 18410293631816235506
13673619 4 18201720703926563185
13690498 29 18187079551188295813
13782708 43 18201996655295950886
13785724 45 9942714854703973652
13911987 19 15647048291914729825
13941219 33 15554453993765071084
14251732 14 18334576871401062292
14251751 18 18343017800597827078
14251764 30 18339641265030162587
14347332 77 18408601469913155052
14466204 15 9943807789728613962
14556957 393 16732706043121153015
14767858 380 17530969115906742900
15183329 4 16588307147213047442
15209294 21 10952053368119480257
15799311 1 18341346500211512938
16120349 189 11493328104100478591
17780758 139 17775566429598181841
18643901 69 18412548730243146183
18927931 339 17918273147521414077
19958102 18 16805322172044929154
20567600 247 18408884040581319018
21033648 29 12678923241635379763
21150785 3 18260274079426074636
21267235 1 18335422430856883179
21401589 2 8718278996037537503
220451 1 18338243665697591488
22950370 63 18409729534942483120
2303208 19 17917991677002934464
23081809 10 17894634717387804920
23379529 103 18044376273645247971
23522609 53 18193588643040636608
23559900 14 18271229608341947361
23845131 108 13035017532437229066
270888 7 8934462721707450415
2838139 119 11242250791974357550
4015057 19 17458638825942972564
4107672 100 18040989623734510709
439807 62 18409446981459729599
474113 269 17631161069986674735
484985 159 18272368668782282947
497634 4 18407761421681655773
5104073 3 12751227113250459804
531348 171 17970622991778818488
6700243 42 17984450489239988604
7970288 3 18265610082112263091
8863177 126 18130782416925914770
999808 66 16773805766809508476

>  <PUBCHEM_SHAPE_MULTIPOLES>  (1) 
484.93
18.5
3.09
1.48
26.68
2.12
0.2
15.11
4.12
-3.93
0.16
0.92
-0.36
-1.24

>  <PUBCHEM_SHAPE_SELFOVERLAP>  (1) 
1000.234

>  <PUBCHEM_SHAPE_VOLUME>  (1) 
283.1

>  <PUBCHEM_COORDINATE_TYPE>  (1) 
2
5
10

$$$$
