30994
     RDKit          3D

 15 15  0  0  1  0  0  0  0  0999 V2000
   -0.2306   -2.4722    0.8269 Cl  0  0  0  0  0  0  0  0  0  0  0  0
   -1.8307    2.6794    0.1355 Cl  0  0  0  0  0  0  0  0  0  0  0  0
    0.0162    0.4974    0.9929 O   0  0  0  0  0  0  0  0  0  0  0  0
    3.4528    0.0075   -0.3036 N   0  0  0  0  0  0  0  0  0  0  0  0
    1.1153    0.7201    0.1100 C   0  0  0  0  0  0  0  0  0  0  0  0
    2.2700   -0.1965    0.5214 C   0  0  0  0  0  0  0  0  0  0  0  0
    1.4719    2.1994    0.1821 C   0  0  0  0  0  0  0  0  0  0  0  0
    3.1657   -0.3054   -1.7052 C   0  0  0  0  0  0  0  0  0  0  0  0
    4.5677   -0.8100    0.1795 C   0  0  0  0  0  0  0  0  0  0  0  0
   -1.1477    0.0594    0.4233 C   0  0  0  0  0  0  0  0  0  0  0  0
   -1.3838   -1.3074    0.2875 C   0  0  0  0  0  0  0  0  0  0  0  0
   -2.0947    0.9812   -0.0196 C   0  0  0  0  0  0  0  0  0  0  0  0
   -2.5709   -1.7540   -0.2931 C   0  0  0  0  0  0  0  0  0  0  0  0
   -3.2817    0.5344   -0.6004 C   0  0  0  0  0  0  0  0  0  0  0  0
   -3.5198   -0.8332   -0.7370 C   0  0  0  0  0  0  0  0  0  0  0  0
  1 11  1  0
  2 12  1  0
  3  5  1  0
  3 10  1  0
  4  6  1  0
  4  8  1  0
  4  9  1  0
  5  6  1  0
  5  7  1  0
 10 11  2  0
 10 12  1  0
 11 13  1  0
 12 14  2  0
 13 15  2  0
 14 15  1  0
M  END
>  <PUBCHEM_COMPOUND_CID>  (1) 
30994

>  <PUBCHEM_CONFORMER_RMSD>  (1) 
0.6

>  <PUBCHEM_CONFORMER_DIVERSEORDER>  (1) 
1
4
6
10
14
5
8
18
2
7
13
17
16
3
11
9
15
12

>  <PUBCHEM_MMFF94_PARTIAL_CHARGES>  (1) 
17
1 -0.18
10 0.08
11 0.18
12 0.18
13 -0.15
14 -0.15
15 -0.15
2 -0.18
28 0.15
29 0.15
3 -0.36
30 0.15
4 -0.81
5 0.28
6 0.27
8 0.27
9 0.27

>  <PUBCHEM_EFFECTIVE_ROTOR_COUNT>  (1) 
4

>  <PUBCHEM_PHARMACOPHORE_FEATURES>  (1) 
3
1 3 acceptor
1 4 cation
6 10 11 12 13 14 15 rings

>  <PUBCHEM_HEAVY_ATOM_COUNT>  (1) 
15

>  <PUBCHEM_ATOM_DEF_STEREO_COUNT>  (1) 
0

>  <PUBCHEM_ATOM_UDEF_STEREO_COUNT>  (1) 
1

>  <PUBCHEM_BOND_DEF_STEREO_COUNT>  (1) 
0

>  <PUBCHEM_BOND_UDEF_STEREO_COUNT>  (1) 
0

>  <PUBCHEM_ISOTOPIC_ATOM_COUNT>  (1) 
0

>  <PUBCHEM_COMPONENT_COUNT>  (1) 
1

>  <PUBCHEM_CACTVS_TAUTO_COUNT>  (1) 
1

>  <PUBCHEM_CONFORMER_ID>  (1) 
0000791200000001

>  <PUBCHEM_MMFF94_ENERGY>  (1) 
48.8044

>  <PUBCHEM_FEATURE_SELFOVERLAP>  (1) 
15.223

>  <PUBCHEM_SHAPE_FINGERPRINT>  (1) 
10062212 137 18190450580539808762
10465860 71 18340219543679262764
11206711 2 18409164402897430917
11458722 379 18409165476544647058
12032990 46 18266177412926551467
14115302 16 18040720294281870806
14251745 187 18343017770422312142
14911166 2 18409158905434166109
15375358 24 18272929453697712058
15775835 57 17894907404085708031
16752209 62 18336817611426034187
16945 1 18410847738214794195
17834072 14 18272928345501048232
17870717 6 18200327536847767758
18186145 218 18262506091871687901
200 152 16845569820426772055
20201158 50 18202004339013601086
20279233 1 17846501422285398526
20645476 183 17385719227088090939
20671657 53 18341614840972438968
20871999 31 18340219522278305300
21501502 16 18269844257844744801
22802520 49 18268996564633904529
2334 1 18121211245589220097
23402539 116 18411689972316076860
23419403 2 13936131194842823681
23526113 38 17846776282980812050
23559900 14 18342730832843384728
27216 239 12396877673522700470
2748010 2 18193267731514912763
5262128 65 18200323224326127252
57812782 119 17918270961071466502
7364860 26 18056756765773009352
74978 22 18261393407373376288
81228 2 17985847946901408896
8809292 202 18409730698482773682
93112 12 18336546109416242676
9709674 26 18195805399877744602

>  <PUBCHEM_SHAPE_MULTIPOLES>  (1) 
301.58
6.72
2.49
1.02
5.21
0.54
-0.28
-1.23
-1.94
-1.31
0.48
0.45
-0.17
-0.09

>  <PUBCHEM_SHAPE_SELFOVERLAP>  (1) 
592.195

>  <PUBCHEM_SHAPE_VOLUME>  (1) 
183.9

>  <PUBCHEM_COORDINATE_TYPE>  (1) 
2
5
10

$$$$
