31002
     RDKit          3D

 10  9  0  0  1  0  0  0  0  0999 V2000
    2.1520    0.2093   -0.0423 P   0  0  0  0  0  0  0  0  0  0  0  0
    0.5720    0.3126   -0.3680 O   0  0  0  0  0  0  0  0  0  0  0  0
    2.5678   -1.2470   -0.6094 O   0  0  0  0  0  0  0  0  0  0  0  0
    2.1728    0.0037    1.5616 O   0  0  0  0  0  0  0  0  0  0  0  0
    2.9814    1.3544   -0.5453 O   0  0  0  0  0  0  0  0  0  0  0  0
   -2.5661   -1.5674    0.0752 N   0  0  0  0  0  0  0  0  0  0  0  0
   -1.7253   -0.4419   -0.3331 C   0  0  0  0  0  0  0  0  0  0  0  0
   -2.2232    0.8776    0.2865 C   0  0  0  0  0  0  0  0  0  0  0  0
   -0.2788   -0.7366    0.0775 C   0  0  0  0  0  0  0  0  0  0  0  0
   -3.6525    1.2353   -0.1028 C   0  0  0  0  0  0  0  0  0  0  0  0
  1  2  1  0
  1  3  1  0
  1  4  1  0
  1  5  2  0
  2  9  1  0
  6  7  1  0
  7  8  1  0
  7  9  1  0
  8 10  1  0
M  END
>  <PUBCHEM_COMPOUND_CID>  (1) 
31002

>  <PUBCHEM_CONFORMER_RMSD>  (1) 
0.6

>  <PUBCHEM_CONFORMER_DIVERSEORDER>  (1) 
1
27
17
26
21
31
18
3
28
13
4
24
11
10
20
30
19
6
2
7
23
16
8
12
9
25
22
29
14
15
5

>  <PUBCHEM_MMFF94_PARTIAL_CHARGES>  (1) 
12
1 1.51
19 0.36
2 -0.55
20 0.36
21 0.5
22 0.5
3 -0.77
4 -0.77
5 -0.7
6 -0.99
7 0.27
9 0.28

>  <PUBCHEM_EFFECTIVE_ROTOR_COUNT>  (1) 
4

>  <PUBCHEM_PHARMACOPHORE_FEATURES>  (1) 
7
1 10 hydrophobe
1 3 acceptor
1 4 acceptor
1 5 acceptor
1 6 cation
1 6 donor
4 1 3 4 5 anion

>  <PUBCHEM_HEAVY_ATOM_COUNT>  (1) 
10

>  <PUBCHEM_ATOM_DEF_STEREO_COUNT>  (1) 
0

>  <PUBCHEM_ATOM_UDEF_STEREO_COUNT>  (1) 
1

>  <PUBCHEM_BOND_DEF_STEREO_COUNT>  (1) 
0

>  <PUBCHEM_BOND_UDEF_STEREO_COUNT>  (1) 
0

>  <PUBCHEM_ISOTOPIC_ATOM_COUNT>  (1) 
0

>  <PUBCHEM_COMPONENT_COUNT>  (1) 
1

>  <PUBCHEM_CACTVS_TAUTO_COUNT>  (1) 
1

>  <PUBCHEM_CONFORMER_ID>  (1) 
0000791A00000001

>  <PUBCHEM_MMFF94_ENERGY>  (1) 
-27.8614

>  <PUBCHEM_FEATURE_SELFOVERLAP>  (1) 
35.556

>  <PUBCHEM_SHAPE_FINGERPRINT>  (1) 
12716758 59 18272649026471540611
12932741 1 17060337465340154010
12932764 1 17346598624746079607
14325111 11 18410577292471454503
14390081 3 17989480810333163921
15310529 11 18201725097250949423
15775835 57 18113618988618332221
19973954 147 18341898514724452849
20653085 51 18337401452290339233
23552423 10 18408605846532354302
3248919 1 18338223938242751559
8030462 33 17274829029787508216

>  <PUBCHEM_SHAPE_MULTIPOLES>  (1) 
181.19
5.84
1.42
0.87
0.97
0.14
0.27
-1.57
-0.21
0.45
-0.14
-0.54
-0.03
-0.03

>  <PUBCHEM_SHAPE_SELFOVERLAP>  (1) 
318.176

>  <PUBCHEM_SHAPE_VOLUME>  (1) 
119.8

>  <PUBCHEM_COORDINATE_TYPE>  (1) 
2
5
10

$$$$
