31015
     RDKit          3D

 16 16  0  0  1  0  0  0  0  0999 V2000
    0.2919   -2.2776    0.5180 O   0  0  0  0  0  0  0  0  0  0  0  0
    0.7500    2.4902    0.2881 O   0  0  0  0  0  0  0  0  0  0  0  0
   -3.4973    0.4524   -0.4280 O   0  0  0  0  0  0  0  0  0  0  0  0
    2.8140   -1.5489   -1.0352 N   0  0  0  0  0  0  0  0  0  0  0  0
    2.0118   -0.0221    0.7120 C   0  0  0  0  0  0  0  0  0  0  0  0
    2.8919   -0.1706   -0.5425 C   0  0  0  0  0  0  0  0  0  0  0  0
    0.5388    0.1047    0.4058 C   0  0  0  0  0  0  0  0  0  0  0  0
   -0.2431   -1.0389    0.3280 C   0  0  0  0  0  0  0  0  0  0  0  0
   -0.0118    1.3631    0.2099 C   0  0  0  0  0  0  0  0  0  0  0  0
    4.3594    0.1610   -0.2712 C   0  0  0  0  0  0  0  0  0  0  0  0
   -1.6046   -0.9215    0.0483 C   0  0  0  0  0  0  0  0  0  0  0  0
   -1.3732    1.4805   -0.0696 C   0  0  0  0  0  0  0  0  0  0  0  0
   -2.1697    0.3382   -0.1504 C   0  0  0  0  0  0  0  0  0  0  0  0
   -0.5959   -3.3890    0.4171 C   0  0  0  0  0  0  0  0  0  0  0  0
    0.0892    3.7351    0.0708 C   0  0  0  0  0  0  0  0  0  0  0  0
   -4.2516   -0.7565   -0.5009 C   0  0  0  0  0  0  0  0  0  0  0  0
  1  8  1  0
  1 14  1  0
  2  9  1  0
  2 15  1  0
  3 13  1  0
  3 16  1  0
  4  6  1  0
  5  6  1  0
  5  7  1  0
  6 10  1  0
  7  8  2  0
  7  9  1  0
  8 11  1  0
  9 12  2  0
 11 13  2  0
 12 13  1  0
M  END
>  <PUBCHEM_COMPOUND_CID>  (1) 
31015

>  <PUBCHEM_CONFORMER_RMSD>  (1) 
0.6

>  <PUBCHEM_CONFORMER_DIVERSEORDER>  (1) 
21
31
2
34
32
36
19
29
5
11
22
27
20
33
13
15
30
35
8
24
28
6
7
12
4
18
26
17
3
14
16
25
9
23
1
10

>  <PUBCHEM_MMFF94_PARTIAL_CHARGES>  (1) 
19
1 -0.36
11 -0.15
12 -0.15
13 0.08
14 0.28
15 0.28
16 0.28
2 -0.36
23 0.15
24 0.15
25 0.36
26 0.36
3 -0.36
4 -0.99
5 0.14
6 0.27
7 -0.14
8 0.08
9 0.08

>  <PUBCHEM_EFFECTIVE_ROTOR_COUNT>  (1) 
5

>  <PUBCHEM_PHARMACOPHORE_FEATURES>  (1) 
6
1 1 acceptor
1 2 acceptor
1 3 acceptor
1 4 cation
1 4 donor
6 7 8 9 11 12 13 rings

>  <PUBCHEM_HEAVY_ATOM_COUNT>  (1) 
16

>  <PUBCHEM_ATOM_DEF_STEREO_COUNT>  (1) 
0

>  <PUBCHEM_ATOM_UDEF_STEREO_COUNT>  (1) 
1

>  <PUBCHEM_BOND_DEF_STEREO_COUNT>  (1) 
0

>  <PUBCHEM_BOND_UDEF_STEREO_COUNT>  (1) 
0

>  <PUBCHEM_ISOTOPIC_ATOM_COUNT>  (1) 
0

>  <PUBCHEM_COMPONENT_COUNT>  (1) 
1

>  <PUBCHEM_CACTVS_TAUTO_COUNT>  (1) 
1

>  <PUBCHEM_CONFORMER_ID>  (1) 
0000792700000015

>  <PUBCHEM_MMFF94_ENERGY>  (1) 
63.7304

>  <PUBCHEM_FEATURE_SELFOVERLAP>  (1) 
30.446

>  <PUBCHEM_SHAPE_FINGERPRINT>  (1) 
10693767 8 18129643232954875335
10967382 1 18410008870545075282
11680986 33 18052255382116336680
116883 192 17836641203618453815
12035758 1 18338518671809905363
12119455 92 13334732448984206722
13380535 21 17832432268901387513
13380535 76 17907001134491038633
13380536 305 18337103583497345169
14614273 12 17970625173553834804
14648413 74 18050286173949623584
14790565 3 18337967709411698825
14911166 2 18409162242581622079
14993402 34 18408601478508026445
15490181 7 17619647786487470104
16945 1 18410291453713025675
17134986 127 17255689595150896292
187816 3 18409451379822206286
193761 8 17832986431151027321
20344682 1 17917993875957540516
20510252 161 18269556053034005240
20645476 183 17603307076424557066
20645477 70 18196356221545084007
20871999 31 18410579500047773620
21029758 11 18341330071486981849
21501502 16 17833547899367150779
21634736 98 18055052518602533207
2334 1 18193830458198703795
23402539 116 18341040848821415854
23419403 2 17099221732880782113
23552423 10 17759521071414207739
23557571 272 18273222976200359836
23558518 356 18050300167401460252
23559900 14 18412263965706406816
2748010 2 18046620381113775257
3060560 45 18337934762896250495
3250762 1 17832989725238027475
353137 74 18265897947609244452
43471831 8 18191302680624003826
53812653 11 18336822095577684399
589210 1 17833552675223038769
7364860 26 18126563663524317529
81228 2 18269569264411469056

>  <PUBCHEM_SHAPE_MULTIPOLES>  (1) 
306.68
5.6
3.43
0.78
0.38
1.03
-0.04
-1.14
-1.78
-0.14
0.46
0.2
-0.16
0.33

>  <PUBCHEM_SHAPE_SELFOVERLAP>  (1) 
623.733

>  <PUBCHEM_SHAPE_VOLUME>  (1) 
180.6

>  <PUBCHEM_COORDINATE_TYPE>  (1) 
2
5
10

$$$$
