31024
     RDKit          3D

 14 15  0  0  0  0  0  0  0  0999 V2000
   -3.7747    1.0193    0.0044 O   0  0  0  0  0  0  0  0  0  0  0  0
   -1.3923    0.8964    0.0045 N   0  0  0  0  0  0  0  0  0  0  0  0
   -2.5628   -1.0131   -0.0027 N   0  0  0  0  0  0  0  0  0  0  0  0
   -0.5126   -0.1760   -0.0005 C   0  0  0  0  0  0  0  0  0  0  0  0
   -1.2212   -1.3222   -0.0051 C   0  0  0  0  0  0  0  0  0  0  0  0
    0.9386   -0.0313    0.0000 C   0  0  0  0  0  0  0  0  0  0  0  0
   -2.7244    0.3958    0.0030 C   0  0  0  0  0  0  0  0  0  0  0  0
   -1.0336    2.2944   -0.0030 C   0  0  0  0  0  0  0  0  0  0  0  0
   -0.7874   -2.7407   -0.0041 C   0  0  0  0  0  0  0  0  0  0  0  0
    1.6423    0.0438   -1.2077 C   0  0  0  0  0  0  0  0  0  0  0  0
    1.6426    0.0336    1.2083 C   0  0  0  0  0  0  0  0  0  0  0  0
    3.0305    0.1818   -1.2071 C   0  0  0  0  0  0  0  0  0  0  0  0
    3.0306    0.1720    1.2088 C   0  0  0  0  0  0  0  0  0  0  0  0
    3.7245    0.2461    0.0012 C   0  0  0  0  0  0  0  0  0  0  0  0
  1  7  2  0
  2  4  1  0
  2  7  1  0
  2  8  1  0
  3  5  1  0
  3  7  1  0
  4  5  2  0
  4  6  1  0
  5  9  1  0
  6 10  2  0
  6 11  1  0
 10 12  1  0
 11 13  2  0
 12 14  2  0
 13 14  1  0
M  END
>  <PUBCHEM_COMPOUND_CID>  (1) 
31024

>  <PUBCHEM_CONFORMER_RMSD>  (1) 
0.4

>  <PUBCHEM_CONFORMER_DIVERSEORDER>  (1) 
1
2

>  <PUBCHEM_MMFF94_PARTIAL_CHARGES>  (1) 
20
1 -0.57
10 -0.15
11 -0.15
12 -0.15
13 -0.15
14 -0.15
15 0.37
2 -0.47
22 0.15
23 0.15
24 0.15
25 0.15
26 0.15
3 -0.54
4 0.08
5 -0.03
6 0.03
7 0.69
8 0.3
9 0.14

>  <PUBCHEM_EFFECTIVE_ROTOR_COUNT>  (1) 
1

>  <PUBCHEM_PHARMACOPHORE_FEATURES>  (1) 
4
1 1 acceptor
1 3 donor
5 2 3 4 5 7 rings
6 6 10 11 12 13 14 rings

>  <PUBCHEM_HEAVY_ATOM_COUNT>  (1) 
14

>  <PUBCHEM_ATOM_DEF_STEREO_COUNT>  (1) 
0

>  <PUBCHEM_ATOM_UDEF_STEREO_COUNT>  (1) 
0

>  <PUBCHEM_BOND_DEF_STEREO_COUNT>  (1) 
0

>  <PUBCHEM_BOND_UDEF_STEREO_COUNT>  (1) 
0

>  <PUBCHEM_ISOTOPIC_ATOM_COUNT>  (1) 
0

>  <PUBCHEM_COMPONENT_COUNT>  (1) 
1

>  <PUBCHEM_CACTVS_TAUTO_COUNT>  (1) 
2

>  <PUBCHEM_CONFORMER_ID>  (1) 
0000793000000001

>  <PUBCHEM_MMFF94_ENERGY>  (1) 
46.3652

>  <PUBCHEM_FEATURE_SELFOVERLAP>  (1) 
20.297

>  <PUBCHEM_SHAPE_FINGERPRINT>  (1) 
12236239 1 17676487254685742696
124424 183 17775567524994326230
12500047 106 18341609339277659886
12716758 59 18342182137427424102
12932764 1 17531519971015941980
13538477 17 18113616819754565954
13581323 91 18408036321163084586
14614273 12 18189894202229248109
14993402 34 18260827116003964189
15219456 202 17632294614069373456
15279307 12 18040994046839156058
15309172 13 18409739430377964563
15669948 3 18335702809852094254
15775835 57 17749394771259609396
15852999 172 18202005412739705022
16945 1 18410575097600754308
17846911 113 18412539886446683849
18175812 5 17775282802626746508
18186145 218 17846223215419987017
19049666 15 17845383150134887470
19422 9 17603868935398074610
20201158 50 17489873726114604086
20279233 1 17704072910700225710
20510252 161 18343586226560951465
20645464 45 18060696212528580699
20645476 183 17967821569205762071
20645477 70 16200156443541019092
20871998 184 18199190770346943023
22802520 49 18058185963247769326
23402539 116 18342446037139445108
23557571 272 18127136483850187440
23559900 14 18272092691347809014
2748010 2 18124870420043826377
276578 36 18337395928725182283
43471831 8 18335699395443206563
7364860 26 17910673159730569655
77492 1 17676485077147951078
81228 2 18125152986095691811
88987 49 18338797930873589038

>  <PUBCHEM_SHAPE_MULTIPOLES>  (1) 
272.28
5.56
1.88
1.04
0.94
0.63
0
-1.15
-0.01
-1.64
0
1.02
-0.03
-0.01

>  <PUBCHEM_SHAPE_SELFOVERLAP>  (1) 
583.138

>  <PUBCHEM_SHAPE_VOLUME>  (1) 
151.8

>  <PUBCHEM_COORDINATE_TYPE>  (1) 
2
5
10

$$$$
