31022
     RDKit          3D

 28 31  0  0  1  0  0  0  0  0999 V2000
    6.0334    0.7098   -0.7424 O   0  0  0  0  0  0  0  0  0  0  0  0
    0.3390   -0.1069   -0.8149 O   0  0  0  0  0  0  0  0  0  0  0  0
   -0.4102    1.7278    0.3516 O   0  0  0  0  0  0  0  0  0  0  0  0
   -1.9552    0.3418   -2.1041 O   0  0  0  0  0  0  0  0  0  0  0  0
    3.9010   -1.0047    0.8436 N   0  0  0  0  0  0  0  0  0  0  0  0
    4.0603   -0.6882   -0.5913 C   0  0  0  0  0  0  0  0  0  0  0  0
    3.3770    0.2532    1.4044 C   0  0  0  0  0  0  0  0  0  0  0  0
    4.6168    0.7431   -0.6202 C   0  0  0  0  0  0  0  0  0  0  0  0
    4.2104    1.3485    0.7275 C   0  0  0  0  0  0  0  0  0  0  0  0
    2.6368   -0.7480   -1.1821 C   0  0  0  0  0  0  0  0  0  0  0  0
    1.8898    0.3158    1.0042 C   0  0  0  0  0  0  0  0  0  0  0  0
    1.6823    0.2548   -0.5166 C   0  0  0  0  0  0  0  0  0  0  0  0
    5.1401   -1.4384    1.4811 C   0  0  0  0  0  0  0  0  0  0  0  0
    6.5941    2.0129   -0.6611 C   0  0  0  0  0  0  0  0  0  0  0  0
   -0.6337    0.7245   -0.3153 C   0  0  0  0  0  0  0  0  0  0  0  0
   -2.0282    0.2023   -0.6705 C   0  0  0  0  0  0  0  0  0  0  0  0
   -3.1721    1.0530   -0.1133 C   0  0  0  0  0  0  0  0  0  0  0  0
   -2.2170   -1.2721   -0.3061 C   0  0  0  0  0  0  0  0  0  0  0  0
   -3.3752    1.0731    1.2473 C   0  0  0  0  0  0  0  0  0  0  0  0
   -2.9229   -2.0785   -1.1689 C   0  0  0  0  0  0  0  0  0  0  0  0
   -3.9533    1.7645   -0.9943 C   0  0  0  0  0  0  0  0  0  0  0  0
   -1.6740   -1.7347    0.8703 C   0  0  0  0  0  0  0  0  0  0  0  0
   -4.4176    1.8484    1.7552 C   0  0  0  0  0  0  0  0  0  0  0  0
   -3.0951   -3.4223   -0.8370 C   0  0  0  0  0  0  0  0  0  0  0  0
   -4.9956    2.5396   -0.4863 C   0  0  0  0  0  0  0  0  0  0  0  0
   -1.8462   -3.0785    1.2023 C   0  0  0  0  0  0  0  0  0  0  0  0
   -5.2279    2.5816    0.8884 C   0  0  0  0  0  0  0  0  0  0  0  0
   -2.5568   -3.9223    0.3487 C   0  0  0  0  0  0  0  0  0  0  0  0
  1  8  1  0
  1 14  1  0
  2 12  1  0
  2 15  1  0
  3 15  2  0
  4 16  1  0
  5  6  1  0
  5  7  1  0
  5 13  1  0
  6  8  1  0
  6 10  1  0
  7  9  1  0
  7 11  1  0
  8  9  1  0
 10 12  1  0
 11 12  1  0
 15 16  1  0
 16 17  1  0
 16 18  1  0
 17 19  2  0
 17 21  1  0
 18 20  2  0
 18 22  1  0
 19 23  1  0
 20 24  1  0
 21 25  2  0
 22 26  2  0
 23 27  2  0
 24 28  2  0
 25 27  1  0
 26 28  1  0
M  END
>  <PUBCHEM_COMPOUND_CID>  (1) 
31022

>  <PUBCHEM_CONFORMER_RMSD>  (1) 
0.8

>  <PUBCHEM_CONFORMER_DIVERSEORDER>  (1) 
1
282
140
61
251
215
181
168
231
93
29
130
49
271
35
273
267
227
125
101
257
291
197
186
289
43
217
238
91
216
38
166
237
203
138
286
277
185
74
299
292
198
84
46
268
226
281
104
154
108
27
45
220
205
253
298
136
234
97
112
76
107
70
182
83
239
201
31
95
241
19
58
179
11
254
60
294
261
164
209
55
183
152
115
283
266
272
243
252
98
260
199
280
174
263
6
87
52
284
96
212
157
172
81
190
240
144
242
54
106
137
103
235
175
118
28
155
173
14
202
37
258
75
218
262
196
85
53
228
265
171
71
135
149
110
222
146
67
279
51
248
195
42
113
15
73
20
177
159
57
50
10
132
176
16
255
82
178
120
139
105
126
290
109
207
102
229
34
184
232
293
86
40
158
169
9
210
276
269
121
165
94
89
111
23
141
133
44
88
78
211
2
206
213
162
99
80
187
18
129
161
170
189
285
64
56
259
69
204
63
128
65
33
92
151
224
200
32
230
249
25
117
256
114
167
66
297
188
116
145
193
236
192
127
39
264
153
225
275
17
122
72
287
194
214
134
150
41
208
160
21
163
100
119
77
219
13
30
36
296
131
180
288
233
59
24
221
7
48
124
8
295
223
123
5
278
3
90
270
79
47
274
156
245
148
191
22
4
147
244
26
247
12
250
62
68
246
142
143

>  <PUBCHEM_MMFF94_PARTIAL_CHARGES>  (1) 
36
1 -0.56
12 0.28
13 0.27
14 0.28
15 0.66
16 0.63
17 -0.14
18 -0.14
19 -0.15
2 -0.43
20 -0.15
21 -0.15
22 -0.15
23 -0.15
24 -0.15
25 -0.15
26 -0.15
27 -0.15
28 -0.15
3 -0.57
4 -0.68
45 0.4
46 0.15
47 0.15
48 0.15
49 0.15
5 -0.81
50 0.15
51 0.15
52 0.15
53 0.15
54 0.15
55 0.15
6 0.27
7 0.27
8 0.28

>  <PUBCHEM_EFFECTIVE_ROTOR_COUNT>  (1) 
7.2

>  <PUBCHEM_PHARMACOPHORE_FEATURES>  (1) 
8
1 1 acceptor
1 3 acceptor
1 4 acceptor
1 4 donor
1 5 cation
6 17 19 21 23 25 27 rings
6 18 20 22 24 26 28 rings
8 5 6 7 8 9 10 11 12 rings

>  <PUBCHEM_HEAVY_ATOM_COUNT>  (1) 
28

>  <PUBCHEM_ATOM_DEF_STEREO_COUNT>  (1) 
1

>  <PUBCHEM_ATOM_UDEF_STEREO_COUNT>  (1) 
3

>  <PUBCHEM_BOND_DEF_STEREO_COUNT>  (1) 
0

>  <PUBCHEM_BOND_UDEF_STEREO_COUNT>  (1) 
0

>  <PUBCHEM_ISOTOPIC_ATOM_COUNT>  (1) 
0

>  <PUBCHEM_COMPONENT_COUNT>  (1) 
1

>  <PUBCHEM_CACTVS_TAUTO_COUNT>  (1) 
1

>  <PUBCHEM_CONFORMER_ID>  (1) 
0000792E00000001

>  <PUBCHEM_MMFF94_ENERGY>  (1) 
92.6542

>  <PUBCHEM_FEATURE_SELFOVERLAP>  (1) 
40.597

>  <PUBCHEM_SHAPE_FINGERPRINT>  (1) 
10366900 7 17632573825545942056
10906281 52 17917162601690312972
11007060 377 18411978083666522017
11405975 8 18412258433240020666
11552529 35 18268708483950474482
11796584 16 18341615889620017454
12107183 9 18190732034600858810
12616971 3 17530956974260933656
12633257 1 18337660919991872802
12788726 201 18267574879373722619
13004483 165 18053946440307566215
13135754 10 17750539406178177971
13224815 77 17988639748615560726
13631057 29 18044655549635476362
13726171 33 18269849743177378152
14468879 13 17561081389153623615
14790565 3 18123191203927738801
15238133 3 18059850602773180824
15250474 111 18261659446681497154
17844677 252 18058171807510561932
17980427 23 17677340544971738964
20197701 30 18339081472262318915
20681677 155 18408889529322481328
21033648 144 18340192073084976348
21033648 29 18266728108975040577
22224240 67 18339654335301310393
23559900 14 18047177824497337980
249057 3 18263085436126695902
25147074 1 17970644084484613589
4015057 19 17561071510523361321
4058900 60 18052544275187603825
4073 2 18411703218876159510
4258327 124 18188501275642292973
469060 322 14057008281590294331
497634 4 18261385719176175799
5104073 3 18410003365161906410
5912855 24 18260831531215079178
59755656 520 18341329994841799717
90127 26 17418088871332707936
9981440 41 17203321174795367863

>  <PUBCHEM_SHAPE_MULTIPOLES>  (1) 
547.77
13.36
3.65
1.53
15.69
3.1
-0.13
-8.1
-0.57
-5.86
-0.4
-0.27
0.01
-1.34

>  <PUBCHEM_SHAPE_SELFOVERLAP>  (1) 
1191.206

>  <PUBCHEM_SHAPE_VOLUME>  (1) 
298

>  <PUBCHEM_COORDINATE_TYPE>  (1) 
2
5
10

$$$$
