31039
     RDKit          3D

 13 12  0  0  0  0  0  0  0  0999 V2000
   -6.2028    0.2880    0.2656 O   0  0  0  0  0  0  0  0  0  0  0  0
   -5.0085   -1.4259   -0.6229 O   0  0  0  0  0  0  0  0  0  0  0  0
    0.0097    0.0362   -0.0848 C   0  0  0  0  0  0  0  0  0  0  0  0
    1.2564    0.8907    0.1731 C   0  0  0  0  0  0  0  0  0  0  0  0
   -1.3034    0.7054    0.3212 C   0  0  0  0  0  0  0  0  0  0  0  0
    2.5693    0.2531   -0.2965 C   0  0  0  0  0  0  0  0  0  0  0  0
   -2.5075   -0.1759   -0.0284 C   0  0  0  0  0  0  0  0  0  0  0  0
    3.7880    1.1514   -0.0449 C   0  0  0  0  0  0  0  0  0  0  0  0
   -3.8377    0.4817    0.3409 C   0  0  0  0  0  0  0  0  0  0  0  0
    5.0821    0.5620   -0.6097 C   0  0  0  0  0  0  0  0  0  0  0  0
   -5.0428   -0.3409   -0.0594 C   0  0  0  0  0  0  0  0  0  0  0  0
    5.4489   -0.6987    0.0516 C   0  0  0  0  0  0  0  0  0  0  0  0
    5.7484   -1.7270    0.5943 C   0  0  0  0  0  0  0  0  0  0  0  0
  1 11  1  0
  2 11  2  0
  3  4  1  0
  3  5  1  0
  4  6  1  0
  5  7  1  0
  6  8  1  0
  7  9  1  0
  8 10  1  0
  9 11  1  0
 10 12  1  0
 12 13  3  0
M  END
>  <PUBCHEM_COMPOUND_CID>  (1) 
31039

>  <PUBCHEM_CONFORMER_RMSD>  (1) 
0.8

>  <PUBCHEM_CONFORMER_DIVERSEORDER>  (1) 
1
36
105
159
176
190
84
249
2
199
29
245
20
248
44
9
133
4
179
116
32
237
17
209
85
5
15
195
8
168
103
107
157
79
81
62
114
38
226
202
198
146
244
150
52
232
228
27
14
137
210
12
131
24
109
58
242
73
186
26
153
243
175
69
181
240
145
21
218
71
136
54
212
123
45
182
68
191
102
11
50
172
61
30
148
90
169
200
231
34
247
192
48
28
132
120
16
3
224
7
75
19
13
227
74
215
170
188
35
151
142
94
205
117
149
95
139
10
214
47
203
235
177
97
37
80
166
99
78
183
22
216
72
121
110
46
201
180
144
6
49
196
87
18
171
204
76
184
221
25
39
41
152
220
208
118
122
23
83
88
82
189
156
206
51
42
223
89
225
59
135
40
167
163
125
91
127
63
161
113
129
98
65
222
194
160
64
193
55
154
108
178
66
31
229
185
230
101
33
233
207
43
211
60
173
241
158
115
219
246
86
147
70
138
77
174
164
57
155
100
104
238
217
53
130
112
124
92
56
106
234
197
162
187
126
236
213
93
67
141
111
239
96
165
134
119
128
143
140

>  <PUBCHEM_MMFF94_PARTIAL_CHARGES>  (1) 
9
1 -0.65
10 0.2
11 0.66
12 -0.2
13 -0.18
2 -0.57
30 0.5
31 0.18
9 0.06

>  <PUBCHEM_EFFECTIVE_ROTOR_COUNT>  (1) 
8

>  <PUBCHEM_PHARMACOPHORE_FEATURES>  (1) 
4
1 1 acceptor
1 13 hydrophobe
1 2 acceptor
3 1 2 11 anion

>  <PUBCHEM_HEAVY_ATOM_COUNT>  (1) 
13

>  <PUBCHEM_ATOM_DEF_STEREO_COUNT>  (1) 
0

>  <PUBCHEM_ATOM_UDEF_STEREO_COUNT>  (1) 
0

>  <PUBCHEM_BOND_DEF_STEREO_COUNT>  (1) 
0

>  <PUBCHEM_BOND_UDEF_STEREO_COUNT>  (1) 
0

>  <PUBCHEM_ISOTOPIC_ATOM_COUNT>  (1) 
0

>  <PUBCHEM_COMPONENT_COUNT>  (1) 
1

>  <PUBCHEM_CACTVS_TAUTO_COUNT>  (1) 
1

>  <PUBCHEM_CONFORMER_ID>  (1) 
0000793F00000001

>  <PUBCHEM_MMFF94_ENERGY>  (1) 
2.4971

>  <PUBCHEM_FEATURE_SELFOVERLAP>  (1) 
20.356

>  <PUBCHEM_SHAPE_FINGERPRINT>  (1) 
100836 57 7925911487003609928
10912923 1 18201166511316805208
117890 112 9007060166815561998
11858739 19 18334856095899455310
13533116 47 18409166593916314530
13862211 1 18343580750303400087
1420 363 17095245821572084033
14251752 14 18335415725875039269
14251764 18 18410854365829314736
15048467 5 9223227447202931058
15242439 84 16370728144734036344
17834072 33 18410855464639445930
17834072 8 16588027905213226506
17834076 25 11314026881186769672
20526848 3 10231457641712371018
20621476 38 18410855426217439962
20621476 8 17821724988874230101
20645477 70 18260548892961301882
20767249 213 9799689298838543297
21130983 4 9079116674274321255
21354914 41 17530964691536546469
220451 1 18411144653235034462
23035841 295 18341896299196405579
23218964 4 18410011026956417293
23402539 116 18343581850316252829
23536379 177 18409167701290064849
23590187 198 18408886243714613391
2916195 48 12535629357973786795
42788 4 18411420626617290077
449060 50 11095887055754750792
465052 167 18413674604433068846
522135 26 18186523211780074444
5374978 207 17060617807226383144
57483677 66 18410854373665128646

>  <PUBCHEM_SHAPE_MULTIPOLES>  (1) 
255.8
17
1.27
0.71
4.8
0.38
-0.01
5.47
-0.08
-1.34
0.05
-0.13
0.04
-0.97

>  <PUBCHEM_SHAPE_SELFOVERLAP>  (1) 
469.748

>  <PUBCHEM_SHAPE_VOLUME>  (1) 
160.6

>  <PUBCHEM_COORDINATE_TYPE>  (1) 
2
5
10

$$$$
