31030
     RDKit          3D

 26 28  0  0  1  0  0  0  0  0999 V2000
    0.2629    0.0307    2.2777 S   0  0  0  0  0  0  0  0  0  0  0  0
   -4.0514    2.4754    1.0142 S   0  0  0  0  0  0  0  0  0  0  0  0
   -1.0519   -2.0927   -1.6461 O   0  0  0  0  0  0  0  0  0  0  0  0
    4.6381    0.4886    0.6172 O   0  0  0  0  0  0  0  0  0  0  0  0
    2.6120   -1.5113   -2.2726 O   0  0  0  0  0  0  0  0  0  0  0  0
   -3.8593   -2.1113   -0.1102 O   0  0  0  0  0  0  0  0  0  0  0  0
    1.2290    0.2467   -2.7496 O   0  0  0  0  0  0  0  0  0  0  0  0
    6.0315    1.9810   -0.4639 O   0  0  0  0  0  0  0  0  0  0  0  0
    0.4557   -1.2245   -0.0541 N   0  0  0  0  0  0  0  0  0  0  0  0
   -2.2650   -1.1384    1.2675 N   0  0  0  0  0  0  0  0  0  0  0  0
    0.2294   -1.5194    1.3491 C   0  0  0  0  0  0  0  0  0  0  0  0
   -1.1625   -2.0311    0.9180 C   0  0  0  0  0  0  0  0  0  0  0  0
   -0.6393   -1.8520   -0.5357 C   0  0  0  0  0  0  0  0  0  0  0  0
    1.5153   -0.5111   -0.5148 C   0  0  0  0  0  0  0  0  0  0  0  0
    2.2870    0.2268    0.3184 C   0  0  0  0  0  0  0  0  0  0  0  0
    1.9855    0.4050    1.8048 C   0  0  0  0  0  0  0  0  0  0  0  0
    3.5265    0.9792   -0.1021 C   0  0  0  0  0  0  0  0  0  0  0  0
   -3.5390   -1.2570    0.7146 C   0  0  0  0  0  0  0  0  0  0  0  0
    1.7475   -0.5237   -1.9667 C   0  0  0  0  0  0  0  0  0  0  0  0
   -4.5271   -0.2335    1.2370 C   0  0  0  0  0  0  0  0  0  0  0  0
   -4.4981    0.9767    0.3458 C   0  0  0  0  0  0  0  0  0  0  0  0
    5.8454    1.0789    0.3416 C   0  0  0  0  0  0  0  0  0  0  0  0
   -4.7945    1.0402   -0.9829 C   0  0  0  0  0  0  0  0  0  0  0  0
   -4.6520    2.3674   -1.4813 C   0  0  0  0  0  0  0  0  0  0  0  0
   -4.2527    3.2484   -0.5005 C   0  0  0  0  0  0  0  0  0  0  0  0
    6.9271    0.4610    1.1745 C   0  0  0  0  0  0  0  0  0  0  0  0
  1 11  1  0
  1 16  1  0
  2 21  1  0
  2 25  1  0
  3 13  2  0
  4 17  1  0
  4 22  1  0
  5 19  1  0
  6 18  2  0
  7 19  2  0
  8 22  2  0
  9 11  1  0
  9 13  1  0
  9 14  1  0
 10 12  1  0
 10 18  1  0
 11 12  1  0
 12 13  1  0
 14 15  2  0
 14 19  1  0
 15 16  1  0
 15 17  1  0
 18 20  1  0
 20 21  1  0
 21 23  2  0
 22 26  1  0
 23 24  1  0
 24 25  2  0
M  END
>  <PUBCHEM_COMPOUND_CID>  (1) 
31030

>  <PUBCHEM_CONFORMER_RMSD>  (1) 
1

>  <PUBCHEM_CONFORMER_DIVERSEORDER>  (1) 
1
35
52
9
50
43
22
27
19
40
33
39
14
34
26
45
13
16
6
20
47
36
38
28
4
51
11
48
37
30
12
49
29
25
10
44
42
15
32
31
46
17
18
41
8
24
2
21
5
3
7
23

>  <PUBCHEM_MMFF94_PARTIAL_CHARGES>  (1) 
31
1 -0.45
10 -0.65
11 0.44
12 0.28
13 0.58
14 0.12
15 -0.28
16 0.37
17 0.42
18 0.57
19 0.71
2 -0.08
20 0.24
21 -0.14
22 0.66
23 -0.15
24 -0.15
25 -0.11
26 0.06
3 -0.57
31 0.37
36 0.5
37 0.15
38 0.15
39 0.15
4 -0.43
5 -0.65
6 -0.57
7 -0.57
8 -0.57
9 -0.39

>  <PUBCHEM_EFFECTIVE_ROTOR_COUNT>  (1) 
8.6

>  <PUBCHEM_PHARMACOPHORE_FEATURES>  (1) 
10
1 10 donor
1 3 acceptor
1 5 acceptor
1 6 acceptor
1 7 acceptor
1 8 acceptor
3 5 7 19 anion
4 9 11 12 13 rings
5 2 21 23 24 25 rings
6 1 9 11 14 15 16 rings

>  <PUBCHEM_HEAVY_ATOM_COUNT>  (1) 
26

>  <PUBCHEM_ATOM_DEF_STEREO_COUNT>  (1) 
2

>  <PUBCHEM_ATOM_UDEF_STEREO_COUNT>  (1) 
0

>  <PUBCHEM_BOND_DEF_STEREO_COUNT>  (1) 
0

>  <PUBCHEM_BOND_UDEF_STEREO_COUNT>  (1) 
0

>  <PUBCHEM_ISOTOPIC_ATOM_COUNT>  (1) 
0

>  <PUBCHEM_COMPONENT_COUNT>  (1) 
1

>  <PUBCHEM_CACTVS_TAUTO_COUNT>  (1) 
2

>  <PUBCHEM_CONFORMER_ID>  (1) 
0000793600000001

>  <PUBCHEM_MMFF94_ENERGY>  (1) 
58.8716

>  <PUBCHEM_FEATURE_SELFOVERLAP>  (1) 
51.062

>  <PUBCHEM_SHAPE_FINGERPRINT>  (1) 
10042902 136 10663520609364736425
10498660 4 18263928748644798601
105312 117 17917993896894339159
11578080 2 18341625789081298062
11720765 8 17190949250927038415
12422481 6 16877937188296758222
12553582 1 12607403257217400455
12596602 18 16515973691267321833
12633257 1 14418143902314894065
12969540 114 16774077397293979760
13103583 49 13695876887451135237
13257819 101 18272931643972888084
13965767 371 17314788486845641381
14251757 17 18130238055701570825
14251764 38 18409455803544303157
14466204 15 18259703406478071640
14950920 106 13984962713840829925
14955137 171 15140674757673540022
15475509 8 17023478443476507878
15484559 13 15180144755088051857
15537594 2 13326861024267210495
17492 54 16128650830210096005
20739085 24 16371000737966331786
21864079 5 17459211667194851799
22849341 161 15791735213410525574
22956985 138 16526685335910096395
23559900 14 17273715177903079406
238 59 17060040529087754851
2838139 119 18201430385575760416
4015057 19 15194995128594940354
4098825 35 17345761781203377817
469060 322 17897190042730066969
5895379 119 18115324339732372572
7808743 9 18335416846967037777
9981440 41 17967820427414232379

>  <PUBCHEM_SHAPE_MULTIPOLES>  (1) 
497.59
13.38
2.78
2.14
11.91
0.82
-0.75
10.77
1.55
-3.55
-0.37
0.61
-0.3
1.03

>  <PUBCHEM_SHAPE_SELFOVERLAP>  (1) 
1031.344

>  <PUBCHEM_SHAPE_VOLUME>  (1) 
285.2

>  <PUBCHEM_COORDINATE_TYPE>  (1) 
2
5
10

$$$$
