31038
     RDKit          3D

 20 20  0  0  0  0  0  0  0  0999 V2000
    8.8023   -1.3585   -0.1496 O   0  0  0  0  0  0  0  0  0  0  0  0
    7.6774   -0.7673   -0.0648 N   0  0  0  0  0  0  0  0  0  0  0  0
   -2.3324   -0.1760   -0.2041 C   0  0  0  0  0  0  0  0  0  0  0  0
   -3.6741    0.5534   -0.1061 C   0  0  0  0  0  0  0  0  0  0  0  0
   -1.1616    0.7887   -0.0026 C   0  0  0  0  0  0  0  0  0  0  0  0
   -4.8839   -0.3775   -0.2290 C   0  0  0  0  0  0  0  0  0  0  0  0
    0.1797    0.0555   -0.0625 C   0  0  0  0  0  0  0  0  0  0  0  0
   -6.2243    0.3405   -0.0575 C   0  0  0  0  0  0  0  0  0  0  0  0
    1.3517    1.0250    0.1055 C   0  0  0  0  0  0  0  0  0  0  0  0
   -7.3932   -0.6469   -0.1169 C   0  0  0  0  0  0  0  0  0  0  0  0
    2.6923    0.2841    0.0787 C   0  0  0  0  0  0  0  0  0  0  0  0
   -8.7316    0.0653    0.0922 C   0  0  0  0  0  0  0  0  0  0  0  0
    3.8979    1.2204    0.2181 C   0  0  0  0  0  0  0  0  0  0  0  0
   -9.9366   -0.8746    0.0176 C   0  0  0  0  0  0  0  0  0  0  0  0
    5.2293    0.5194    0.1190 C   0  0  0  0  0  0  0  0  0  0  0  0
  -11.2674   -0.1760    0.2507 C   0  0  0  0  0  0  0  0  0  0  0  0
    5.8275    0.0303    1.2652 C   0  0  0  0  0  0  0  0  0  0  0  0
    5.8313    0.3777   -1.1174 C   0  0  0  0  0  0  0  0  0  0  0  0
    7.0559   -0.6134    1.1596 C   0  0  0  0  0  0  0  0  0  0  0  0
    7.0598   -0.2700   -1.1961 C   0  0  0  0  0  0  0  0  0  0  0  0
  1  2  1  0
  2 19  2  0
  2 20  1  0
  3  4  1  0
  3  5  1  0
  4  6  1  0
  5  7  1  0
  6  8  1  0
  7  9  1  0
  8 10  1  0
  9 11  1  0
 10 12  1  0
 11 13  1  0
 12 14  1  0
 13 15  1  0
 14 16  1  0
 15 17  2  0
 15 18  1  0
 17 19  1  0
 18 20  2  0
M  CHG  2   1  -1   2   1
M  END
>  <PUBCHEM_COMPOUND_CID>  (1) 
31038

>  <PUBCHEM_CONFORMER_RMSD>  (1) 
1.2

>  <PUBCHEM_CONFORMER_DIVERSEORDER>  (1) 
1
158
118
85
130
4
14
157
44
18
80
147
13
24
66
90
74
46
86
79
145
29
31
10
116
64
34
92
125
20
134
47
28
87
6
43
148
39
94
65
51
63
68
69
121
75
11
45
9
33
27
104
101
126
32
98
91
119
15
107
83
143
12
103
108
49
5
60
26
2
144
95
55
93
53
146
156
59
128
120
52
37
72
42
137
88
22
100
61
89
113
25
54
50
106
76
135
3
112
21
35
132
17
122
142
111
96
78
155
115
133
84
151
70
40
8
136
19
7
57
141
81
114
71
140
99
154
123
56
150
73
102
23
129
62
38
109
16
36
124
67
30
97
131
41
149
152
117
138
110
77
105
139
153
58
48
127
82

>  <PUBCHEM_MMFF94_PARTIAL_CHARGES>  (1) 
12
1 -0.75
13 0.14
15 -0.14
17 -0.15
18 -0.15
19 -0.06
2 0.57
20 -0.06
48 0.15
49 0.15
50 0.15
51 0.15

>  <PUBCHEM_EFFECTIVE_ROTOR_COUNT>  (1) 
12

>  <PUBCHEM_PHARMACOPHORE_FEATURES>  (1) 
3
1 1 anion
1 16 hydrophobe
6 2 15 17 18 19 20 rings

>  <PUBCHEM_HEAVY_ATOM_COUNT>  (1) 
20

>  <PUBCHEM_ATOM_DEF_STEREO_COUNT>  (1) 
0

>  <PUBCHEM_ATOM_UDEF_STEREO_COUNT>  (1) 
0

>  <PUBCHEM_BOND_DEF_STEREO_COUNT>  (1) 
0

>  <PUBCHEM_BOND_UDEF_STEREO_COUNT>  (1) 
0

>  <PUBCHEM_ISOTOPIC_ATOM_COUNT>  (1) 
0

>  <PUBCHEM_COMPONENT_COUNT>  (1) 
1

>  <PUBCHEM_CACTVS_TAUTO_COUNT>  (1) 
1

>  <PUBCHEM_CONFORMER_ID>  (1) 
0000793E00000001

>  <PUBCHEM_MMFF94_ENERGY>  (1) 
15.7946

>  <PUBCHEM_FEATURE_SELFOVERLAP>  (1) 
15.223

>  <PUBCHEM_SHAPE_FINGERPRINT>  (1) 
10299344 5 17749106690491127163
11315181 36 12179843893397578877
11638347 137 16773800281656359726
12089408 11 18060419162460208013
14202775 3 18410298021478702691
14216079 64 18272371958178521110
14251764 18 18113898252340766505
14251764 46 17418375796416974237
14344974 52 13623541180973487108
14428016 248 12251901478444795143
16120349 18 12175616287403428235
1754911 235 14129057032944504611
1818759 1 17822012021649352755
21095086 128 17967531272724596715
21150785 3 14562529578598166736
21267235 1 18408040710366856252
21360442 33 12757970366841358984
21360442 67 14345793838437329280
21362267 313 12031248173457173767
21792934 111 16415476056318956033
22224240 67 13973965411150247485
232437 2 18113619002616083531
23521765 1 18341894108937170781
246663 6 18333450945740305097
249057 3 12468644941368379219
28498 318 18410291402083792740
335352 9 12324242785395519609
33684 2 18130788963225934069
5758199 1 8358263652886477805
59520757 100 17459199623427170251
59521099 67 17458630034582937780
59682541 35 12175619594897277175
67123 10 10809342244293076985
8209 1 12612750220928406861

>  <PUBCHEM_SHAPE_MULTIPOLES>  (1) 
400.74
39.52
1
0.91
64.07
0
0.02
12.45
0.59
-0.87
0.02
-1.8
0.05
-0.14

>  <PUBCHEM_SHAPE_SELFOVERLAP>  (1) 
768.789

>  <PUBCHEM_SHAPE_VOLUME>  (1) 
244.7

>  <PUBCHEM_COORDINATE_TYPE>  (1) 
2
5
10

$$$$
