31036
     RDKit          3D

 18 19  0  0  0  0  0  0  0  0999 V2000
   -4.3873    0.4722    0.2066 S   0  0  0  0  0  0  0  0  0  0  0  0
   -5.2252   -0.6867    0.4808 O   0  0  0  0  0  0  0  0  0  0  0  0
   -4.4262    1.6207    1.1011 O   0  0  0  0  0  0  0  0  0  0  0  0
    1.2494   -1.3599   -0.2684 N   0  0  0  0  0  0  0  0  0  0  0  0
   -4.6921    1.0081   -1.3870 N   0  0  0  0  0  0  0  0  0  0  0  0
    2.5689    0.6209   -0.3443 N   0  0  0  0  0  0  0  0  0  0  0  0
    4.8972    0.5345    0.2708 N   0  0  0  0  0  0  0  0  0  0  0  0
    3.9038    2.5495   -0.4063 N   0  0  0  0  0  0  0  0  0  0  0  0
   -2.7322   -0.0655    0.0660 C   0  0  0  0  0  0  0  0  0  0  0  0
   -0.0876   -0.9256   -0.1565 C   0  0  0  0  0  0  0  0  0  0  0  0
   -2.4558   -1.3859   -0.2883 C   0  0  0  0  0  0  0  0  0  0  0  0
   -1.6864    0.8249    0.3094 C   0  0  0  0  0  0  0  0  0  0  0  0
   -1.1335   -1.8159   -0.3996 C   0  0  0  0  0  0  0  0  0  0  0  0
   -0.3642    0.3948    0.1981 C   0  0  0  0  0  0  0  0  0  0  0  0
    2.4834   -0.7049   -0.0887 C   0  0  0  0  0  0  0  0  0  0  0  0
    3.5566   -1.4630    0.3449 C   0  0  0  0  0  0  0  0  0  0  0  0
    4.7472   -0.7851    0.5086 C   0  0  0  0  0  0  0  0  0  0  0  0
    3.7841    1.1668   -0.1471 C   0  0  0  0  0  0  0  0  0  0  0  0
  1  2  2  0
  1  3  2  0
  1  5  1  0
  1  9  1  0
  4 10  1  0
  4 15  1  0
  6 15  2  0
  6 18  1  0
  7 17  1  0
  7 18  2  0
  8 18  1  0
  9 11  2  0
  9 12  1  0
 10 13  2  0
 10 14  1  0
 11 13  1  0
 12 14  2  0
 15 16  1  0
 16 17  2  0
M  END
>  <PUBCHEM_COMPOUND_CID>  (1) 
31036

>  <PUBCHEM_CONFORMER_RMSD>  (1) 
0.6

>  <PUBCHEM_CONFORMER_DIVERSEORDER>  (1) 
1
12
22
8
5
20
4
17
14
16
2
11
21
3
13
18
15
9
7
19
6
10

>  <PUBCHEM_MMFF94_PARTIAL_CHARGES>  (1) 
29
1 1.45
10 0.1
11 -0.15
12 -0.15
13 -0.15
14 -0.15
15 0.41
16 -0.15
17 0.16
18 0.72
19 0.15
2 -0.65
20 0.15
21 0.15
22 0.15
23 0.4
24 0.15
25 0.42
26 0.42
27 0.15
28 0.4
29 0.4
3 -0.65
4 -0.6
5 -0.98
6 -0.62
7 -0.62
8 -0.9
9 -0.01

>  <PUBCHEM_EFFECTIVE_ROTOR_COUNT>  (1) 
3

>  <PUBCHEM_PHARMACOPHORE_FEATURES>  (1) 
8
1 2 acceptor
1 3 acceptor
1 4 donor
1 5 donor
1 8 donor
4 6 7 8 18 cation
6 6 7 15 16 17 18 rings
6 9 10 11 12 13 14 rings

>  <PUBCHEM_HEAVY_ATOM_COUNT>  (1) 
18

>  <PUBCHEM_ATOM_DEF_STEREO_COUNT>  (1) 
0

>  <PUBCHEM_ATOM_UDEF_STEREO_COUNT>  (1) 
0

>  <PUBCHEM_BOND_DEF_STEREO_COUNT>  (1) 
0

>  <PUBCHEM_BOND_UDEF_STEREO_COUNT>  (1) 
0

>  <PUBCHEM_ISOTOPIC_ATOM_COUNT>  (1) 
0

>  <PUBCHEM_COMPONENT_COUNT>  (1) 
1

>  <PUBCHEM_CACTVS_TAUTO_COUNT>  (1) 
9

>  <PUBCHEM_CONFORMER_ID>  (1) 
0000793C00000001

>  <PUBCHEM_MMFF94_ENERGY>  (1) 
45.7697

>  <PUBCHEM_FEATURE_SELFOVERLAP>  (1) 
40.614

>  <PUBCHEM_SHAPE_FINGERPRINT>  (1) 
10014705 185 18334007303034913375
12107183 9 17761773966323039938
12251169 10 18409165498446589062
12403814 3 18259982669788964709
12670546 56 17458054946391696083
13583140 156 17676487224948052091
13675066 3 17676210164854927551
15196674 1 18411419552717113078
15239154 128 18410858767437803921
15342168 16 17823424975336656196
17834072 33 18412542145673282663
18186145 218 17822003225097563074
19050596 39 18408601487572942170
20279233 1 15626224628395904190
20645477 56 18113614581976417287
20645477 70 18412829049504791582
20715895 44 18194680359197021877
21267235 1 18411427193785939394
212847 35 18272369776398574776
21652331 79 18408040723446716092
23402539 116 17917986144794887293
23402655 69 18342739641694428758
23559900 14 18201723916757857566
34797466 226 15195278776666684065
351380 180 18261391126656162288
3545911 37 18412546518134612718
4214541 1 18410011035451308899
474 4 17968662739020032660
4990 188 13326853331374271046
5104073 3 18335982051472107538
537710 114 18202004334760734496
542803 24 17917711288093767370
633830 44 18058456409165221391
69090 78 18413103948548786479
77779 3 18410013260133819346

>  <PUBCHEM_SHAPE_MULTIPOLES>  (1) 
337.64
11.71
1.9
0.81
0.98
0.41
0.05
3.37
-0.94
-0.94
0.15
0.59
0.14
-0.56

>  <PUBCHEM_SHAPE_SELFOVERLAP>  (1) 
708.199

>  <PUBCHEM_SHAPE_VOLUME>  (1) 
189.6

>  <PUBCHEM_COORDINATE_TYPE>  (1) 
2
5
10

$$$$
