31031
     RDKit          3D

 34 37  0  0  1  0  0  0  0  0999 V2000
   -2.1832   -0.3354    1.8196 Cl  0  0  0  0  0  0  0  0  0  0  0  0
    2.2761    0.3613    1.5119 O   0  0  0  0  0  0  0  0  0  0  0  0
    2.7808    2.7948    0.6679 O   0  0  0  0  0  0  0  0  0  0  0  0
   -1.1145   -2.2618   -1.5626 O   0  0  0  0  0  0  0  0  0  0  0  0
    4.3639    0.3972   -0.9948 O   0  0  0  0  0  0  0  0  0  0  0  0
    5.0001   -2.0259    0.1559 O   0  0  0  0  0  0  0  0  0  0  0  0
   -7.1093   -0.7093    1.6594 O   0  0  0  0  0  0  0  0  0  0  0  0
    2.2535    4.6613   -0.5872 O   0  0  0  0  0  0  0  0  0  0  0  0
    4.4170   -4.2120    0.6234 O   0  0  0  0  0  0  0  0  0  0  0  0
    0.9279   -0.1106   -0.5104 C   0  0  0  0  0  0  0  0  0  0  0  0
   -0.0325    1.0406   -0.1221 C   0  0  0  0  0  0  0  0  0  0  0  0
   -1.4716    0.8213   -0.6193 C   0  0  0  0  0  0  0  0  0  0  0  0
   -2.0709   -0.5182   -0.0305 C   0  0  0  0  0  0  0  0  0  0  0  0
    2.2428    0.4590    0.0914 C   0  0  0  0  0  0  0  0  0  0  0  0
    0.3911   -1.4095    0.1289 C   0  0  0  0  0  0  0  0  0  0  0  0
    0.7197    2.3031   -0.5510 C   0  0  0  0  0  0  0  0  0  0  0  0
   -1.0813   -1.7171   -0.2506 C   0  0  0  0  0  0  0  0  0  0  0  0
    2.2071    1.9526   -0.3213 C   0  0  0  0  0  0  0  0  0  0  0  0
   -3.5599   -0.7406   -0.5650 C   0  0  0  0  0  0  0  0  0  0  0  0
   -2.3666    2.0417   -0.3292 C   0  0  0  0  0  0  0  0  0  0  0  0
    1.1122   -0.2824   -2.0456 C   0  0  0  0  0  0  0  0  0  0  0  0
   -3.8049    1.8241   -0.7933 C   0  0  0  0  0  0  0  0  0  0  0  0
   -4.3714    0.5295   -0.2633 C   0  0  0  0  0  0  0  0  0  0  0  0
    3.5013   -0.2166   -0.3683 C   0  0  0  0  0  0  0  0  0  0  0  0
   -3.6761   -0.9805   -2.0921 C   0  0  0  0  0  0  0  0  0  0  0  0
   -4.1951   -1.9721    0.0699 C   0  0  0  0  0  0  0  0  0  0  0  0
   -5.5065    0.5299    0.4535 C   0  0  0  0  0  0  0  0  0  0  0  0
    3.6417   -1.6827   -0.0180 C   0  0  0  0  0  0  0  0  0  0  0  0
   -5.3264   -1.9726    0.7819 C   0  0  0  0  0  0  0  0  0  0  0  0
   -6.0655   -0.7177    1.0155 C   0  0  0  0  0  0  0  0  0  0  0  0
    2.7367    4.1372    0.4074 C   0  0  0  0  0  0  0  0  0  0  0  0
    3.3741    4.8972    1.5308 C   0  0  0  0  0  0  0  0  0  0  0  0
    5.2572   -3.3345    0.4777 C   0  0  0  0  0  0  0  0  0  0  0  0
    6.7323   -3.5513    0.6296 C   0  0  0  0  0  0  0  0  0  0  0  0
  1 13  1  0
  2 14  1  0
  3 18  1  0
  3 31  1  0
  4 17  1  0
  5 24  2  0
  6 28  1  0
  6 33  1  0
  7 30  2  0
  8 31  2  0
  9 33  2  0
 10 11  1  0
 10 14  1  0
 10 15  1  0
 10 21  1  0
 11 12  1  0
 11 16  1  0
 12 13  1  0
 12 20  1  0
 13 17  1  0
 13 19  1  0
 14 18  1  0
 14 24  1  0
 15 17  1  0
 16 18  1  0
 19 23  1  0
 19 25  1  0
 19 26  1  0
 20 22  1  0
 22 23  1  0
 23 27  2  0
 24 28  1  0
 26 29  2  0
 27 30  1  0
 29 30  1  0
 31 32  1  0
 33 34  1  0
M  END
>  <PUBCHEM_COMPOUND_CID>  (1) 
31031

>  <PUBCHEM_CONFORMER_RMSD>  (1) 
1

>  <PUBCHEM_CONFORMER_DIVERSEORDER>  (1) 
1
37
45
98
90
56
20
44
38
58
100
104
71
26
95
69
22
66
24
49
27
43
88
79
61
16
74
97
18
54
29
103
84
83
75
53
5
101
91
76
60
59
82
41
78
93
48
35
36
34
40
65
87
52
7
81
105
64
25
77
73
96
19
50
51
94
107
86
102
89
31
2
63
109
67
30
47
108
8
72
32
9
46
13
23
55
3
70
39
4
10
21
15
42
11
57
14
17
80
85
6
28
99
12
62
68
33
106
92

>  <PUBCHEM_MMFF94_PARTIAL_CHARGES>  (1) 
31
1 -0.29
13 0.29
14 0.34
17 0.28
18 0.28
19 0.28
2 -0.68
22 0.14
23 -0.28
24 0.45
26 -0.29
27 -0.14
28 0.34
29 -0.14
3 -0.43
30 0.54
31 0.66
32 0.06
33 0.66
34 0.06
4 -0.68
5 -0.57
53 0.15
54 0.4
55 0.4
56 0.15
59 0.15
6 -0.43
7 -0.57
8 -0.57
9 -0.57

>  <PUBCHEM_EFFECTIVE_ROTOR_COUNT>  (1) 
7.4

>  <PUBCHEM_PHARMACOPHORE_FEATURES>  (1) 
12
1 2 acceptor
1 2 donor
1 4 acceptor
1 4 donor
1 5 acceptor
1 7 acceptor
1 8 acceptor
1 9 acceptor
5 10 11 14 16 18 rings
6 10 11 12 13 15 17 rings
6 12 13 19 20 22 23 rings
6 19 23 26 27 29 30 rings

>  <PUBCHEM_HEAVY_ATOM_COUNT>  (1) 
34

>  <PUBCHEM_ATOM_DEF_STEREO_COUNT>  (1) 
5

>  <PUBCHEM_ATOM_UDEF_STEREO_COUNT>  (1) 
3

>  <PUBCHEM_BOND_DEF_STEREO_COUNT>  (1) 
0

>  <PUBCHEM_BOND_UDEF_STEREO_COUNT>  (1) 
0

>  <PUBCHEM_ISOTOPIC_ATOM_COUNT>  (1) 
0

>  <PUBCHEM_COMPONENT_COUNT>  (1) 
1

>  <PUBCHEM_CACTVS_TAUTO_COUNT>  (1) 
6

>  <PUBCHEM_CONFORMER_ID>  (1) 
0000793700000001

>  <PUBCHEM_MMFF94_ENERGY>  (1) 
113.3111

>  <PUBCHEM_FEATURE_SELFOVERLAP>  (1) 
60.993

>  <PUBCHEM_SHAPE_FINGERPRINT>  (1) 
10074138 170 17548962370371764344
10411042 1 18337671898081469802
11135926 11 18337100294011449812
11331351 85 17703229499635505182
11456790 92 18266753398395782953
11578080 2 17201070650117205162
12107183 9 18269564832179286681
12107698 1 18411704283685183585
12166972 35 17822021873602891798
12403259 226 18334854983060217077
12403259 415 18261953050613969309
12422481 6 18060140878001068591
12516196 113 18338233761603519530
12633257 1 17203607094847049135
13140716 1 18266741478991188495
13224815 77 18336542841363082725
13533116 47 18334299798650039003
13540713 4 18187911890260097301
13540713 5 17844798381753235223
13757389 114 16750731750565160292
13782708 43 17603587404587289443
13955234 65 18340767169252909400
14394314 77 18266456499932834514
14790565 3 17401774519484687877
14849402 71 18337679710336824376
14955137 171 18337953372588617082
15042514 8 18050847715733838518
15927050 60 18052540164766764326
16992752 21 18194410988308693758
17349148 13 17704073992773612583
17492 89 18337105769646586047
17980427 26 18125989706318244860
18393751 57 17619057773871900593
21033648 29 17630301091776651107
21049683 271 18335147492799571132
21130935 74 18265342871243974747
21267235 1 18262807259194855518
21987483 16 18194970875781751523
23522609 53 18047228247672538197
23559900 14 18410282610333385969
32027 91 18336254691769947055
335352 9 18265046934447181421
3383291 50 18187363194802452618
350125 39 18339932605246052317
376196 1 17125923502164267536
3886686 26 16607439465349215890
463206 1 18335420128254058034
5104073 3 18342458101728927568
5385378 56 18268711791413188680
6058803 2 17915166039082705239
6086070 43 18193818389456809365
6679774 75 17972303278666752992
6697151 62 18193812917124947244
79837 15 17258204698192612408
9962374 69 18339631330707613823
9981440 41 17761762267238508784

>  <PUBCHEM_SHAPE_MULTIPOLES>  (1) 
654.62
13.68
5.09
1.43
4.01
4.07
0.11
-10.83
-4.72
-11.05
-1.46
0.85
-0.01
0.33

>  <PUBCHEM_SHAPE_SELFOVERLAP>  (1) 
1394.074

>  <PUBCHEM_SHAPE_VOLUME>  (1) 
362

>  <PUBCHEM_COORDINATE_TYPE>  (1) 
2
5
10

$$$$
