31034
     RDKit          3D

 23 25  0  0  1  0  0  0  0  0999 V2000
    4.3329    1.2230    2.4061 Cl  0  0  0  0  0  0  0  0  0  0  0  0
   -0.2506    1.0549   -2.0184 O   0  0  0  0  0  0  0  0  0  0  0  0
    0.0371   -1.6006   -0.9805 N   0  0  0  0  0  0  0  0  0  0  0  0
    0.1271    1.2586   -0.6520 C   0  0  0  0  0  0  0  0  0  0  0  0
   -0.7412    0.3044    0.2949 C   0  0  0  0  0  0  0  0  0  0  0  0
    1.6285    0.9694   -0.4837 C   0  0  0  0  0  0  0  0  0  0  0  0
   -2.2247    0.4534    0.2560 C   0  0  0  0  0  0  0  0  0  0  0  0
   -0.1100    2.7579   -0.3618 C   0  0  0  0  0  0  0  0  0  0  0  0
   -0.2840   -1.1716    0.2352 C   0  0  0  0  0  0  0  0  0  0  0  0
    2.2042    1.2053    0.7394 C   0  0  0  0  0  0  0  0  0  0  0  0
    2.3231    0.4878   -1.5647 C   0  0  0  0  0  0  0  0  0  0  0  0
   -2.8589    1.3458    1.1205 C   0  0  0  0  0  0  0  0  0  0  0  0
   -2.9780   -0.2990   -0.6451 C   0  0  0  0  0  0  0  0  0  0  0  0
   -0.2573   -1.8655    1.4044 C   0  0  0  0  0  0  0  0  0  0  0  0
    3.5656    0.9420    0.8916 C   0  0  0  0  0  0  0  0  0  0  0  0
    3.6843    0.2245   -1.4126 C   0  0  0  0  0  0  0  0  0  0  0  0
   -4.2463    1.4854    1.0841 C   0  0  0  0  0  0  0  0  0  0  0  0
   -4.3654   -0.1592   -0.6817 C   0  0  0  0  0  0  0  0  0  0  0  0
    0.1582   -3.1895    1.3160 C   0  0  0  0  0  0  0  0  0  0  0  0
    4.3056    0.4516   -0.1845 C   0  0  0  0  0  0  0  0  0  0  0  0
   -4.9995    0.7330    0.1830 C   0  0  0  0  0  0  0  0  0  0  0  0
    0.4360   -2.8915   -1.0272 C   0  0  0  0  0  0  0  0  0  0  0  0
    0.5134   -3.7200    0.0807 C   0  0  0  0  0  0  0  0  0  0  0  0
  1 15  1  0
  2  4  1  0
  3  9  2  0
  3 22  1  0
  4  5  1  0
  4  6  1  0
  4  8  1  0
  5  7  1  0
  5  9  1  0
  6 10  2  0
  6 11  1  0
  7 12  2  0
  7 13  1  0
  9 14  1  0
 10 15  1  0
 11 16  2  0
 12 17  1  0
 13 18  2  0
 14 19  2  0
 15 20  2  0
 16 20  1  0
 17 21  2  0
 18 21  1  0
 19 23  1  0
 22 23  2  0
M  END
>  <PUBCHEM_COMPOUND_CID>  (1) 
31034

>  <PUBCHEM_CONFORMER_RMSD>  (1) 
0.6

>  <PUBCHEM_CONFORMER_DIVERSEORDER>  (1) 
1
23
44
17
27
8
30
52
10
37
53
54
20
58
40
33
57
38
59
48
41
51
47
29
4
49
56
21
13
5
55
50
32
26
39
19
6
22
45
18
24
28
42
3
14
9
15
36
46
25
31
60
2
16
11
7
43
12
35
34

>  <PUBCHEM_MMFF94_PARTIAL_CHARGES>  (1) 
36
1 -0.18
10 -0.15
11 -0.15
12 -0.15
13 -0.15
14 -0.15
15 0.18
16 -0.15
17 -0.15
18 -0.15
19 -0.15
2 -0.68
20 -0.15
21 -0.15
22 0.16
23 -0.15
28 0.4
29 0.15
3 -0.62
30 0.15
31 0.15
32 0.15
33 0.15
34 0.15
35 0.15
36 0.15
37 0.15
38 0.15
39 0.15
4 0.42
40 0.15
41 0.15
5 0.29
6 -0.14
7 -0.14
9 0.17

>  <PUBCHEM_EFFECTIVE_ROTOR_COUNT>  (1) 
4

>  <PUBCHEM_PHARMACOPHORE_FEATURES>  (1) 
6
1 2 acceptor
1 2 donor
1 3 acceptor
6 3 9 14 19 22 23 rings
6 6 10 11 15 16 20 rings
6 7 12 13 17 18 21 rings

>  <PUBCHEM_HEAVY_ATOM_COUNT>  (1) 
23

>  <PUBCHEM_ATOM_DEF_STEREO_COUNT>  (1) 
0

>  <PUBCHEM_ATOM_UDEF_STEREO_COUNT>  (1) 
2

>  <PUBCHEM_BOND_DEF_STEREO_COUNT>  (1) 
0

>  <PUBCHEM_BOND_UDEF_STEREO_COUNT>  (1) 
0

>  <PUBCHEM_ISOTOPIC_ATOM_COUNT>  (1) 
0

>  <PUBCHEM_COMPONENT_COUNT>  (1) 
1

>  <PUBCHEM_CACTVS_TAUTO_COUNT>  (1) 
2

>  <PUBCHEM_CONFORMER_ID>  (1) 
0000793A00000001

>  <PUBCHEM_MMFF94_ENERGY>  (1) 
80.713

>  <PUBCHEM_FEATURE_SELFOVERLAP>  (1) 
30.45

>  <PUBCHEM_SHAPE_FINGERPRINT>  (1) 
10764073 3 14854381630145996207
10863032 1 16559034899826816916
11370993 70 16774080665484667141
11578080 2 13252807661705392504
12403259 327 18198321014369262144
12422481 6 17899393330075604336
12592029 89 18040995137802540443
12788726 201 17687468279102536250
12839892 36 18259982712765382091
13083527 12 17972298639031219963
13140716 1 18265905829365265593
133893 2 17898585167364532714
13583140 156 16154568625553258557
13692114 37 18267027331468554307
14178342 30 18410865360676749209
14468879 13 16627403757334642960
14787075 74 17559664221628811649
14863182 85 18262817193606730895
15309172 13 18260832609093309061
16752209 62 18118128206010438402
16945 1 17894352197948044844
17349148 13 18187933910572617521
20028762 73 18126293171433396463
20197701 30 18341320176056197443
20567600 347 18410015424976944475
20691752 17 17098360613512386161
20832881 197 17844825685034012310
20905425 154 17979643337880843804
212916 134 18342729745710139872
21421861 104 17974582286016621833
21524375 3 18410576197207535535
22956985 138 17680137491367109586
23419403 2 17390208348385988111
23558518 356 17908411807998977021
23559900 14 18201166537482306364
34934 24 18271249301288978661
352729 6 18191044476064426147
404807 78 17537691650918602799
4072396 5 18040987419667493297
43471831 8 18336264531191446898
465052 167 17095533906619637897
474 4 18335432248518891629
484985 159 13052636055347613568
58807428 26 18409160004782517250
59755656 215 18264774264021629949
6138700 20 18267594503158309166
633830 44 18202847655905649597
7364860 26 18198065768267346779
81228 2 17904478863195819531

>  <PUBCHEM_SHAPE_MULTIPOLES>  (1) 
464.35
7.86
3.25
1.71
2.71
3.75
0.25
-4.89
1.76
-0.28
0.53
-1.39
-0.18
0.12

>  <PUBCHEM_SHAPE_SELFOVERLAP>  (1) 
1004.395

>  <PUBCHEM_SHAPE_VOLUME>  (1) 
254.3

>  <PUBCHEM_COORDINATE_TYPE>  (1) 
2
5
10

$$$$
