31044
     RDKit          3D

 19 20  0  0  1  0  0  0  0  0999 V2000
   -3.7014   -3.0705   -0.7350 O   0  0  0  0  0  0  0  0  0  0  0  0
   -0.4958   -0.3248    0.0563 N   0  0  0  0  0  0  0  0  0  0  0  0
   -3.5534   -0.8694    0.6897 N   0  0  0  0  0  0  0  0  0  0  0  0
   -2.4228   -2.7595   -0.2625 N   0  0  0  0  0  0  0  0  0  0  0  0
    0.4309   -0.9187   -0.9106 C   0  0  0  0  0  0  0  0  0  0  0  0
   -1.1410   -1.1863    1.0145 C   0  0  0  0  0  0  0  0  0  0  0  0
   -0.7270    1.0592    0.0418 C   0  0  0  0  0  0  0  0  0  0  0  0
    1.8648   -0.7751   -0.4745 C   0  0  0  0  0  0  0  0  0  0  0  0
   -1.2496    1.6747   -1.1000 C   0  0  0  0  0  0  0  0  0  0  0  0
   -0.4374    1.8336    1.1698 C   0  0  0  0  0  0  0  0  0  0  0  0
    2.5865    0.3466   -0.8579 C   0  0  0  0  0  0  0  0  0  0  0  0
    2.4445   -1.7665    0.3046 C   0  0  0  0  0  0  0  0  0  0  0  0
   -2.4561   -1.6552    0.4234 C   0  0  0  0  0  0  0  0  0  0  0  0
   -1.4805    3.0503   -1.1136 C   0  0  0  0  0  0  0  0  0  0  0  0
   -0.6684    3.2091    1.1561 C   0  0  0  0  0  0  0  0  0  0  0  0
    3.9151    0.4794   -0.4540 C   0  0  0  0  0  0  0  0  0  0  0  0
    3.7730   -1.6337    0.7085 C   0  0  0  0  0  0  0  0  0  0  0  0
   -1.1899    3.8175    0.0144 C   0  0  0  0  0  0  0  0  0  0  0  0
    4.5083   -0.5106    0.3292 C   0  0  0  0  0  0  0  0  0  0  0  0
  1  4  1  0
  2  5  1  0
  2  6  1  0
  2  7  1  0
  3 13  1  0
  4 13  2  0
  5  8  1  0
  6 13  1  0
  7  9  2  0
  7 10  1  0
  8 11  2  0
  8 12  1  0
  9 14  1  0
 10 15  2  0
 11 16  1  0
 12 17  2  0
 14 18  2  0
 15 18  1  0
 16 19  2  0
 17 19  1  0
M  END
>  <PUBCHEM_COMPOUND_CID>  (1) 
31044

>  <PUBCHEM_CONFORMER_RMSD>  (1) 
0.6

>  <PUBCHEM_CONFORMER_DIVERSEORDER>  (1) 
1
58
65
56
156
155
153
135
101
91
44
132
141
112
67
33
93
127
149
151
157
69
54
72
129
115
53
55
94
60
122
88
133
66
143
48
128
98
75
46
136
130
154
152
30
137
146
113
114
27
85
63
61
68
105
71
100
26
35
76
84
41
47
147
37
49
97
80
17
134
139
116
24
103
131
77
78
144
138
124
74
145
38
19
148
102
57
87
150
23
59
81
39
99
104
83
20
43
96
110
70
108
118
13
121
15
36
140
73
42
9
142
50
22
31
90
82
107
16
21
111
11
12
126
51
86
40
29
117
79
18
52
123
120
95
14
92
6
64
125
119
8
10
45
89
109
106
34
7
28
2
25
4
5
32
62
3

>  <PUBCHEM_MMFF94_PARTIAL_CHARGES>  (1) 
32
1 -0.34
10 -0.15
11 -0.15
12 -0.15
13 0.44
14 -0.15
15 -0.15
16 -0.15
17 -0.15
18 -0.15
19 -0.15
2 -0.84
24 0.15
25 0.15
26 0.15
27 0.15
28 0.15
29 0.15
3 -0.85
30 0.15
31 0.15
32 0.15
33 0.15
34 0.4
35 0.4
36 0.4
4 -0.51
5 0.51
6 0.43
7 0.1
8 -0.14
9 -0.15

>  <PUBCHEM_EFFECTIVE_ROTOR_COUNT>  (1) 
5

>  <PUBCHEM_PHARMACOPHORE_FEATURES>  (1) 
6
1 1 anion
1 2 cation
1 3 donor
3 3 4 13 cation
6 7 9 10 14 15 18 rings
6 8 11 12 16 17 19 rings

>  <PUBCHEM_HEAVY_ATOM_COUNT>  (1) 
19

>  <PUBCHEM_ATOM_DEF_STEREO_COUNT>  (1) 
0

>  <PUBCHEM_ATOM_UDEF_STEREO_COUNT>  (1) 
0

>  <PUBCHEM_BOND_DEF_STEREO_COUNT>  (1) 
0

>  <PUBCHEM_BOND_UDEF_STEREO_COUNT>  (1) 
1

>  <PUBCHEM_ISOTOPIC_ATOM_COUNT>  (1) 
0

>  <PUBCHEM_COMPONENT_COUNT>  (1) 
1

>  <PUBCHEM_CACTVS_TAUTO_COUNT>  (1) 
3

>  <PUBCHEM_CONFORMER_ID>  (1) 
0000794400000001

>  <PUBCHEM_MMFF94_ENERGY>  (1) 
68.518

>  <PUBCHEM_FEATURE_SELFOVERLAP>  (1) 
30.451

>  <PUBCHEM_SHAPE_FINGERPRINT>  (1) 
121448 382 17838877266576585577
12553582 1 18265346160102180930
12643181 29 17619071630233469718
12788726 201 18334571309070709546
13004483 165 18409722971895046219
13132413 78 18267039421278512029
13134695 92 18193553604601756615
14081887 123 18411408506287912570
14178342 30 18118391866190747290
14181834 199 17695920203683883231
14787075 74 18120658195830802036
14955137 171 17622211061503323755
17980427 23 17560249149451917811
18186145 218 17619913851153255708
19765921 60 17408510754412040121
20510252 161 18337955584443799866
20600515 1 17915477174950424638
21304303 282 17615645641150030413
21339142 126 18410014316669491307
21339142 36 18411694413417658471
21524375 3 17683251256772439968
21731228 192 17758968017002165416
23419403 2 18122318423549321845
23557571 272 18342464716258176942
23558518 356 18117286856461513114
257057 1 18338234980735401823
3091708 16 9205900255923548872
350125 39 17907034879885572419
4340502 62 17689163310006710873
474 4 17403735549858972384
532947 4 17619072071844084036
7164475 11 18335984186245127582
7364860 26 17693664023151359395
74978 22 18048604724913979574
81228 2 18191611703494148411
90316 7 18412831295434817451
9709674 26 18198338447319821166
9981440 41 17413275046249351810

>  <PUBCHEM_SHAPE_MULTIPOLES>  (1) 
370.2
6.4
4.24
1.15
7.11
0.7
0.03
-2.46
0.21
-5.87
-0.07
-0.28
0.37
-0.36

>  <PUBCHEM_SHAPE_SELFOVERLAP>  (1) 
779.709

>  <PUBCHEM_SHAPE_VOLUME>  (1) 
206.7

>  <PUBCHEM_COORDINATE_TYPE>  (1) 
2
5
10

$$$$
