31042
     RDKit          3D

 20 22  0  0  1  0  0  0  0  0999 V2000
   -5.6710    2.0187    1.3802 Cl  0  0  0  0  0  0  0  0  0  0  0  0
    4.5708    1.7398    1.2174 O   0  0  0  0  0  0  0  0  0  0  0  0
   -1.8258   -0.5573   -0.3789 N   0  0  0  0  0  0  0  0  0  0  0  0
    0.7896   -1.4234    0.6183 C   0  0  0  0  0  0  0  0  0  0  0  0
    0.1092   -2.0867   -0.6241 C   0  0  0  0  0  0  0  0  0  0  0  0
   -0.7758   -1.0200   -1.3089 C   0  0  0  0  0  0  0  0  0  0  0  0
   -0.3054   -0.8659    1.5651 C   0  0  0  0  0  0  0  0  0  0  0  0
    0.1433    0.0676   -1.9021 C   0  0  0  0  0  0  0  0  0  0  0  0
    1.6538   -0.2348    0.1431 C   0  0  0  0  0  0  0  0  0  0  0  0
   -1.3134    0.0460    0.8524 C   0  0  0  0  0  0  0  0  0  0  0  0
    1.3151    0.4660   -1.0364 C   0  0  0  0  0  0  0  0  0  0  0  0
    1.6256   -2.4746    1.3820 C   0  0  0  0  0  0  0  0  0  0  0  0
   -0.7043   -3.3589   -0.3318 C   0  0  0  0  0  0  0  0  0  0  0  0
   -2.8239    0.2985   -1.0127 C   0  0  0  0  0  0  0  0  0  0  0  0
    2.7514    0.2279    0.8932 C   0  0  0  0  0  0  0  0  0  0  0  0
    2.0935    1.5603   -1.4533 C   0  0  0  0  0  0  0  0  0  0  0  0
    3.5121    1.3208    0.4713 C   0  0  0  0  0  0  0  0  0  0  0  0
    3.1868    1.9841   -0.7044 C   0  0  0  0  0  0  0  0  0  0  0  0
   -3.9950    0.5407   -0.1100 C   0  0  0  0  0  0  0  0  0  0  0  0
   -4.3368    1.7514    0.3396 C   0  0  0  0  0  0  0  0  0  0  0  0
  1 20  1  0
  2 17  1  0
  3  6  1  0
  3 10  1  0
  3 14  1  0
  4  5  1  0
  4  7  1  0
  4  9  1  0
  4 12  1  0
  5  6  1  0
  5 13  1  0
  6  8  1  0
  7 10  1  0
  8 11  1  0
  9 11  2  0
  9 15  1  0
 11 16  1  0
 14 19  1  0
 15 17  2  0
 16 18  2  0
 17 18  1  0
 19 20  2  0
M  END
>  <PUBCHEM_COMPOUND_CID>  (1) 
31042

>  <PUBCHEM_CONFORMER_RMSD>  (1) 
0.6

>  <PUBCHEM_CONFORMER_DIVERSEORDER>  (1) 
2
19
3
18
8
23
13
12
16
17
22
11
1
20
10
9
6
21
25
14
4
5
7
27
26
24
15

>  <PUBCHEM_MMFF94_PARTIAL_CHARGES>  (1) 
22
1 -0.14
10 0.27
11 -0.14
14 0.41
15 -0.15
16 -0.15
17 0.08
18 -0.15
19 -0.29
2 -0.53
20 -0.01
3 -0.81
37 0.15
38 0.15
39 0.15
4 0.14
40 0.15
41 0.45
42 0.15
6 0.27
8 0.14
9 -0.14

>  <PUBCHEM_EFFECTIVE_ROTOR_COUNT>  (1) 
3

>  <PUBCHEM_PHARMACOPHORE_FEATURES>  (1) 
5
1 2 donor
1 3 cation
6 3 4 5 6 7 10 rings
6 4 5 6 8 9 11 rings
6 9 11 15 16 17 18 rings

>  <PUBCHEM_HEAVY_ATOM_COUNT>  (1) 
20

>  <PUBCHEM_ATOM_DEF_STEREO_COUNT>  (1) 
0

>  <PUBCHEM_ATOM_UDEF_STEREO_COUNT>  (1) 
3

>  <PUBCHEM_BOND_DEF_STEREO_COUNT>  (1) 
0

>  <PUBCHEM_BOND_UDEF_STEREO_COUNT>  (1) 
1

>  <PUBCHEM_ISOTOPIC_ATOM_COUNT>  (1) 
0

>  <PUBCHEM_COMPONENT_COUNT>  (1) 
1

>  <PUBCHEM_CACTVS_TAUTO_COUNT>  (1) 
3

>  <PUBCHEM_CONFORMER_ID>  (1) 
0000794200000002

>  <PUBCHEM_MMFF94_ENERGY>  (1) 
57.3965

>  <PUBCHEM_FEATURE_SELFOVERLAP>  (1) 
26.876

>  <PUBCHEM_SHAPE_FINGERPRINT>  (1) 
10382601 240 18041829632799984530
10498660 4 17275106098761263433
10863032 1 18271518784110253070
10948715 1 18343579667982126022
11640471 11 18413384354215543677
11961588 58 16987696039265674209
12035758 1 17895465930877092346
12173636 292 18125149683117875502
12423570 1 12300416092626478118
12491281 212 18117552045048259782
12633257 1 16805324422190911057
12788726 201 17686069695979971855
12892183 10 15068616102077517965
13140716 1 17605266475207361972
13583140 156 17272564191297040330
13955234 65 18124891058021456651
13965767 371 18263926540704645485
14142880 1 18045203093181991286
15061688 2 18059856198751596136
15163728 17 18200050502577324325
15309172 13 17604972884175219750
15342816 4 9079119946786576444
15534591 1 18271236239591577927
15906896 17 18045791348951468850
16945 1 17749376053623484358
17349148 13 13334751137125740953
1741750 31 18341048622306078455
17492 54 12823292433555277408
1813 80 17695632848723800246
18222031 100 8214142932660668569
19377110 9 18410860971668390331
19765921 60 18131350804423899139
19784866 34 18202002106047280185
20626108 58 11386376949960838969
21452121 103 18190180088385258829
21524375 3 18261387905451724447
21637258 2 10953732326738893160
21731228 192 18040433338541684034
23184049 59 17895461592659234372
23419403 2 17541999347505318766
2748010 2 17391597066374381366
276578 36 18408885131085916862
2838139 119 17130409393514883312
427121 178 18335433343614330153
4340502 62 18187941556062817249
474 4 18333735719220627333
49207404 50 17604446145059598225
633830 44 18131348566724631613
960060 61 12823010885870045617
9999458 23 18197784306054329535

>  <PUBCHEM_SHAPE_MULTIPOLES>  (1) 
402.61
7.79
2.87
1.65
9.4
1.69
-0.11
-8.6
3.41
-0.72
0.25
-0.17
-0.06
-1.08

>  <PUBCHEM_SHAPE_SELFOVERLAP>  (1) 
846.919

>  <PUBCHEM_SHAPE_VOLUME>  (1) 
228.3

>  <PUBCHEM_COORDINATE_TYPE>  (1) 
2
5
10

$$$$
