3104
     RDKit          3D

 31 33  0  0  1  0  0  0  0  0999 V2000
   -2.9431   -1.1891   -2.3001 P   0  0  0  0  0  0  0  0  0  0  0  0
   -4.7766    0.5191   -0.3127 P   0  0  0  0  0  0  0  0  0  0  0  0
   -3.1261    2.0111    1.6265 P   0  0  0  0  0  0  0  0  0  0  0  0
    0.9851   -1.4134   -0.4687 O   0  0  0  0  0  0  0  0  0  0  0  0
   -0.4363   -1.6407    2.8172 O   0  0  0  0  0  0  0  0  0  0  0  0
    2.3527   -2.9538    2.4410 O   0  0  0  0  0  0  0  0  0  0  0  0
   -1.6421   -0.9075   -1.3828 O   0  0  0  0  0  0  0  0  0  0  0  0
   -2.8798   -2.7862   -2.5448 O   0  0  0  0  0  0  0  0  0  0  0  0
   -3.0507   -0.3688   -3.5515 O   0  0  0  0  0  0  0  0  0  0  0  0
   -3.4763    0.8196    0.5948 O   0  0  0  0  0  0  0  0  0  0  0  0
   -5.8912    0.0480    0.7575 O   0  0  0  0  0  0  0  0  0  0  0  0
   -5.1998    1.6335   -1.2221 O   0  0  0  0  0  0  0  0  0  0  0  0
   -1.5819    1.7410    2.0197 O   0  0  0  0  0  0  0  0  0  0  0  0
   -3.0471    3.3225    0.6838 O   0  0  0  0  0  0  0  0  0  0  0  0
   -4.0669    2.1353    2.7886 O   0  0  0  0  0  0  0  0  0  0  0  0
    3.2711   -1.0234   -0.0009 N   0  0  0  0  0  0  0  0  0  0  0  0
    5.3942   -0.4245   -0.3311 N   0  0  0  0  0  0  0  0  0  0  0  0
    2.1795    1.1228   -0.3225 N   0  0  0  0  0  0  0  0  0  0  0  0
    3.7996    2.8747   -0.8346 N   0  0  0  0  0  0  0  0  0  0  0  0
    6.1495    2.4475   -0.9844 N   0  0  0  0  0  0  0  0  0  0  0  0
    0.2209   -2.1100    1.6555 C   0  0  0  0  0  0  0  0  0  0  0  0
    1.7152   -1.8923    1.7525 C   0  0  0  0  0  0  0  0  0  0  0  0
   -0.1299   -1.2830    0.4296 C   0  0  0  0  0  0  0  0  0  0  0  0
    2.1215   -1.8794    0.2844 C   0  0  0  0  0  0  0  0  0  0  0  0
   -1.3980   -1.7443   -0.2661 C   0  0  0  0  0  0  0  0  0  0  0  0
    3.2504    0.3168   -0.2674 C   0  0  0  0  0  0  0  0  0  0  0  0
    4.5815   -1.4217   -0.0502 C   0  0  0  0  0  0  0  0  0  0  0  0
    4.5755    0.6681   -0.4695 C   0  0  0  0  0  0  0  0  0  0  0  0
   -4.3402   -1.0128   -1.1656 C   0  0  0  0  0  0  0  0  0  0  0  0
    4.8344    2.0032   -0.7631 C   0  0  0  0  0  0  0  0  0  0  0  0
    2.5548    2.3875   -0.6131 C   0  0  0  0  0  0  0  0  0  0  0  0
  1  7  1  0
  1  8  1  0
  1  9  2  0
  1 29  1  0
  2 10  1  0
  2 11  1  0
  2 12  2  0
  2 29  1  0
  3 10  1  0
  3 13  1  0
  3 14  1  0
  3 15  2  0
  4 23  1  0
  4 24  1  0
  5 21  1  0
  6 22  1  0
  7 25  1  0
 16 24  1  0
 16 26  1  0
 16 27  1  0
 17 27  2  0
 17 28  1  0
 18 26  1  0
 18 31  2  0
 19 30  2  0
 19 31  1  0
 20 30  1  0
 21 22  1  0
 21 23  1  0
 22 24  1  0
 23 25  1  0
 26 28  2  0
 28 30  1  0
M  END
>  <PUBCHEM_COMPOUND_CID>  (1) 
3104

>  <PUBCHEM_CONFORMER_RMSD>  (1) 
1.6

>  <PUBCHEM_CONFORMER_DIVERSEORDER>  (1) 
9
72
61
16
164
87
80
115
53
39
64
18
134
17
84
81
147
25
160
133
43
150
48
24
58
40
170
151
37
86
52
28
157
34
60
90
2
155
7
56
79
117
12
131
4
59
67
20
55
104
123
127
156
6
152
30
143
96
31
19
49
46
174
42
8
38
165
50
111
105
26
130
57
88
162
149
92
62
109
35
75
125
100
106
141
22
118
107
98
82
77
32
41
102
11
148
14
15
171
85
71
108
146
13
173
120
136
99
91
51
73
121
33
153
132
3
124
126
68
45
1
169
122
137
89
158
21
78
83
74
69
128
94
159
63
103
10
76
36
65
119
44
110
167
29
114
93
144
97
138
154
23
168
177
139
140
112
95
27
166
176
47
163
161
129
70
175
5
54
113
172
116
66
142
101
145
135

>  <PUBCHEM_MMFF94_PARTIAL_CHARGES>  (1) 
40
1 1.24
10 -0.54
11 -0.77
12 -0.7
13 -0.77
14 -0.77
15 -0.7
16 0.05
17 -0.57
18 -0.57
19 -0.62
2 1.24
20 -0.9
21 0.28
22 0.28
23 0.28
24 0.54
25 0.28
26 0.11
27 0.04
28 0.23
3 1.51
30 0.41
31 0.47
38 0.4
39 0.4
4 -0.56
40 0.15
43 0.5
44 0.15
45 0.4
46 0.4
47 0.5
48 0.5
49 0.5
5 -0.68
6 -0.68
7 -0.55
8 -0.77
9 -0.7

>  <PUBCHEM_EFFECTIVE_ROTOR_COUNT>  (1) 
9

>  <PUBCHEM_PHARMACOPHORE_FEATURES>  (1) 
21
1 11 acceptor
1 12 acceptor
1 13 acceptor
1 14 acceptor
1 15 acceptor
1 20 cation
1 20 donor
1 4 acceptor
1 5 acceptor
1 5 donor
1 6 acceptor
1 6 donor
1 8 acceptor
1 9 acceptor
3 16 17 27 cation
3 16 18 26 cation
3 18 19 31 cation
4 3 13 14 15 anion
5 16 17 26 27 28 rings
5 4 21 22 23 24 rings
6 18 19 26 28 30 31 rings

>  <PUBCHEM_HEAVY_ATOM_COUNT>  (1) 
31

>  <PUBCHEM_ATOM_DEF_STEREO_COUNT>  (1) 
0

>  <PUBCHEM_ATOM_UDEF_STEREO_COUNT>  (1) 
4

>  <PUBCHEM_BOND_DEF_STEREO_COUNT>  (1) 
0

>  <PUBCHEM_BOND_UDEF_STEREO_COUNT>  (1) 
0

>  <PUBCHEM_ISOTOPIC_ATOM_COUNT>  (1) 
0

>  <PUBCHEM_COMPONENT_COUNT>  (1) 
1

>  <PUBCHEM_CACTVS_TAUTO_COUNT>  (1) 
3

>  <PUBCHEM_CONFORMER_ID>  (1) 
00000C2000000009

>  <PUBCHEM_MMFF94_ENERGY>  (1) 
-7.9357

>  <PUBCHEM_FEATURE_SELFOVERLAP>  (1) 
107.245

>  <PUBCHEM_SHAPE_FINGERPRINT>  (1) 
10615611 76 18341340989662925249
10670039 82 17775000146649846639
10906281 52 18262812852185864582
11049842 53 17415840197733689566
12467345 10 18342177752255213669
12596602 18 18407761439383361367
12788726 201 17846503659815504065
13034934 17 16732989729921832019
13583140 156 17823706269924694569
13947920 75 17847064393587263500
14251757 5 17917422155728672399
14251764 3 16732979838453795925
14840074 17 18271814506232177369
15021287 119 18121495752708106962
15297060 5 17130434484491507241
15361156 5 12463028652863996938
15575132 122 18272090440701121381
20511986 3 18342451517660743521
21033648 29 16733254703491760470
21033650 10 17131562699206601162
21591340 35 14135752882057490519
22122407 14 17971471802451289125
469060 322 16371570439904176107
46939830 39 13957140336182118633
474 4 18333734619634796002
574716 61 18410567384045290631
5895379 119 17845938424934356136
633830 44 18261104210209524214

>  <PUBCHEM_SHAPE_MULTIPOLES>  (1) 
554.18
12.65
3.56
2.63
1.99
1.16
0.04
7.16
-3.62
1.07
0.94
-3.43
-0.92
-4.19

>  <PUBCHEM_SHAPE_SELFOVERLAP>  (1) 
1124.062

>  <PUBCHEM_SHAPE_VOLUME>  (1) 
325.4

>  <PUBCHEM_COORDINATE_TYPE>  (1) 
2
5
10

$$$$
