3105
     RDKit          3D

 25 25  0  0  1  0  0  0  0  0999 V2000
   -0.5253   -1.0804    0.4009 O   0  0  0  0  0  0  0  0  0  0  0  0
   -1.9348    1.0163   -0.7584 O   0  0  0  0  0  0  0  0  0  0  0  0
    3.7740    1.4944    1.7664 O   0  0  0  0  0  0  0  0  0  0  0  0
    0.9431   -2.1856   -1.0338 O   0  0  0  0  0  0  0  0  0  0  0  0
   -2.3625    1.8542    1.3761 O   0  0  0  0  0  0  0  0  0  0  0  0
    5.8426    0.6568   -0.0552 N   0  0  0  0  0  0  0  0  0  0  0  0
   -0.7622   -3.4806    0.1506 C   0  0  0  0  0  0  0  0  0  0  0  0
   -4.2234    1.2472   -0.0924 C   0  0  0  0  0  0  0  0  0  0  0  0
    2.1158    1.4234    0.0576 C   0  0  0  0  0  0  0  0  0  0  0  0
    3.5705    1.5744    0.3493 C   0  0  0  0  0  0  0  0  0  0  0  0
   -0.6593   -3.6775    1.6717 C   0  0  0  0  0  0  0  0  0  0  0  0
   -0.1428   -4.6959   -0.5520 C   0  0  0  0  0  0  0  0  0  0  0  0
   -2.2401   -3.3331   -0.2342 C   0  0  0  0  0  0  0  0  0  0  0  0
    0.0005   -2.2125   -0.2513 C   0  0  0  0  0  0  0  0  0  0  0  0
   -4.5242    2.0916   -1.3413 C   0  0  0  0  0  0  0  0  0  0  0  0
   -5.1186    1.7245    1.0588 C   0  0  0  0  0  0  0  0  0  0  0  0
   -4.4982   -0.2284   -0.4102 C   0  0  0  0  0  0  0  0  0  0  0  0
   -2.7507    1.4213    0.2974 C   0  0  0  0  0  0  0  0  0  0  0  0
    0.1017    0.0895    0.0943 C   0  0  0  0  0  0  0  0  0  0  0  0
   -0.5720    1.1447   -0.4807 C   0  0  0  0  0  0  0  0  0  0  0  0
    1.4625    0.2305    0.3667 C   0  0  0  0  0  0  0  0  0  0  0  0
    4.4210    0.4976   -0.3533 C   0  0  0  0  0  0  0  0  0  0  0  0
    1.4085    2.4755   -0.5241 C   0  0  0  0  0  0  0  0  0  0  0  0
    0.0477    2.3344   -0.7969 C   0  0  0  0  0  0  0  0  0  0  0  0
    6.6261   -0.3823   -0.7060 C   0  0  0  0  0  0  0  0  0  0  0  0
  1 14  1  0
  1 19  1  0
  2 18  1  0
  2 20  1  0
  3 10  1  0
  4 14  2  0
  5 18  2  0
  6 22  1  0
  6 25  1  0
  7 11  1  0
  7 12  1  0
  7 13  1  0
  7 14  1  0
  8 15  1  0
  8 16  1  0
  8 17  1  0
  8 18  1  0
  9 10  1  0
  9 21  2  0
  9 23  1  0
 10 22  1  0
 19 20  2  0
 19 21  1  0
 20 24  1  0
 23 24  2  0
M  END
>  <PUBCHEM_COMPOUND_CID>  (1) 
3105

>  <PUBCHEM_CONFORMER_RMSD>  (1) 
1

>  <PUBCHEM_CONFORMER_DIVERSEORDER>  (1) 
1
29
39
19
64
54
31
49
51
55
20
63
14
59
65
47
40
37
30
42
52
57
48
26
66
22
28
33
21
11
7
58
60
27
62
41
44
5
24
35
50
25
34
67
18
23
53
46
32
13
15
43
56
3
10
12
45
2
38
61
8
36
17
9
6
4
16

>  <PUBCHEM_MMFF94_PARTIAL_CHARGES>  (1) 
24
1 -0.23
10 0.42
14 0.66
18 0.66
19 0.08
2 -0.23
20 0.08
21 -0.15
22 0.27
23 -0.15
24 -0.15
25 0.27
3 -0.68
4 -0.57
45 0.15
48 0.15
49 0.15
5 -0.57
50 0.36
51 0.4
6 -0.9
7 0.06
8 0.06
9 -0.14

>  <PUBCHEM_EFFECTIVE_ROTOR_COUNT>  (1) 
9

>  <PUBCHEM_PHARMACOPHORE_FEATURES>  (1) 
9
1 3 acceptor
1 3 donor
1 4 acceptor
1 5 acceptor
1 6 cation
1 6 donor
4 7 11 12 13 hydrophobe
4 8 15 16 17 hydrophobe
6 9 19 20 21 23 24 rings

>  <PUBCHEM_HEAVY_ATOM_COUNT>  (1) 
25

>  <PUBCHEM_ATOM_DEF_STEREO_COUNT>  (1) 
0

>  <PUBCHEM_ATOM_UDEF_STEREO_COUNT>  (1) 
1

>  <PUBCHEM_BOND_DEF_STEREO_COUNT>  (1) 
0

>  <PUBCHEM_BOND_UDEF_STEREO_COUNT>  (1) 
0

>  <PUBCHEM_ISOTOPIC_ATOM_COUNT>  (1) 
0

>  <PUBCHEM_COMPONENT_COUNT>  (1) 
1

>  <PUBCHEM_CACTVS_TAUTO_COUNT>  (1) 
1

>  <PUBCHEM_CONFORMER_ID>  (1) 
00000C2100000001

>  <PUBCHEM_MMFF94_ENERGY>  (1) 
75.2764

>  <PUBCHEM_FEATURE_SELFOVERLAP>  (1) 
45.673

>  <PUBCHEM_SHAPE_FINGERPRINT>  (1) 
1100329 8 18338518658951759793
11036077 3 18411422778095056236
116883 192 17978511158906101918
12035758 1 18337972137379725058
12422481 6 18049750656506658691
12549972 3 17774431824103789064
12643181 29 18411423896042308174
12788726 201 17831013898706332554
13052359 8 18337103592034564691
13140716 1 18337106761678569179
13692114 37 18200587120524181711
138480 1 17762335808739634463
14251740 79 18266446784590528871
14363568 33 17836662820663315703
14790565 3 18265899060180295772
14866123 147 18337390538694726234
14931854 50 18124847258161315879
15042514 8 18264210373116760688
15664445 248 17266109700995798871
15927050 60 18411699859447681214
17138139 8 17769900745449901047
18681886 176 18334851757793264425
18915476 22 18047174277413787485
19141452 34 18409730694826311164
19591789 44 18265894657727618822
20028762 73 18271524316555800791
20197701 30 18341038675288538353
20739085 24 18190187775712281760
20775438 99 15392557856234269423
21033648 29 18339624690430237808
21307412 95 18128838386527547566
21478907 32 17905890627699771879
21781051 124 17970939767007404066
21796203 349 17259655563736196819
22182313 1 18267044845516680511
22224240 67 18412265030357669345
22956985 138 17680142967513539979
23558518 356 17901385911581033112
23559900 14 18201717405798498328
25147074 1 17680419246255048524
266924 87 18049437050347148516
283562 15 18197782102974009512
3091708 16 9337086282927243099
340366 18 18187937209266205300
352729 6 18195818581227373589
404807 14 14829976784567661092
4058900 60 18190184477346034697
4073 2 18269551801775979032
532947 4 18269000782345011062
5385378 56 18267311919984915185
59755656 215 18340487738343274813
59755656 520 18410855455864979556
6138700 20 18268151964143155894
6669772 16 18341614750899893990
7164475 11 17832706047164763588
79837 15 18410858797829454209
81228 2 17902217141991641952

>  <PUBCHEM_SHAPE_MULTIPOLES>  (1) 
480.16
10.32
4.96
1.16
9.67
7.85
-0.31
-7.17
0.56
-2.58
0.04
-0.28
-0.03
0.48

>  <PUBCHEM_SHAPE_SELFOVERLAP>  (1) 
979.966

>  <PUBCHEM_SHAPE_VOLUME>  (1) 
278.5

>  <PUBCHEM_COORDINATE_TYPE>  (1) 
2
5
10

$$$$
