31062
     RDKit          3D

 24 26  0  0  1  0  0  0  0  0999 V2000
   -4.2870    0.7243   -1.9113 O   0  0  0  0  0  0  0  0  0  0  0  0
   -0.2816    0.0416   -0.1681 O   0  0  0  0  0  0  0  0  0  0  0  0
    0.0736    2.1714    0.6302 O   0  0  0  0  0  0  0  0  0  0  0  0
    4.0672   -2.1743    0.4090 O   0  0  0  0  0  0  0  0  0  0  0  0
    5.9359   -0.1784   -0.0880 O   0  0  0  0  0  0  0  0  0  0  0  0
   -3.9160   -1.0304    1.2136 N   0  0  0  0  0  0  0  0  0  0  0  0
   -3.8866   -1.0664   -0.2619 C   0  0  0  0  0  0  0  0  0  0  0  0
   -3.6494    0.3914    1.5057 C   0  0  0  0  0  0  0  0  0  0  0  0
   -4.6946    0.1734   -0.6733 C   0  0  0  0  0  0  0  0  0  0  0  0
   -4.4772    1.1689    0.4713 C   0  0  0  0  0  0  0  0  0  0  0  0
   -2.3969   -1.0090   -0.6607 C   0  0  0  0  0  0  0  0  0  0  0  0
   -2.1364    0.5947    1.2960 C   0  0  0  0  0  0  0  0  0  0  0  0
   -1.6892    0.2465   -0.1313 C   0  0  0  0  0  0  0  0  0  0  0  0
   -5.1819   -1.4952    1.7740 C   0  0  0  0  0  0  0  0  0  0  0  0
   -4.4826   -0.1889   -2.9855 C   0  0  0  0  0  0  0  0  0  0  0  0
    0.4850    1.0894    0.2411 C   0  0  0  0  0  0  0  0  0  0  0  0
    1.9278    0.7501    0.1539 C   0  0  0  0  0  0  0  0  0  0  0  0
    2.3158   -0.5632    0.3233 C   0  0  0  0  0  0  0  0  0  0  0  0
    2.8362    1.7590   -0.0932 C   0  0  0  0  0  0  0  0  0  0  0  0
    3.6714   -0.8816    0.2420 C   0  0  0  0  0  0  0  0  0  0  0  0
    4.1918    1.4406   -0.1743 C   0  0  0  0  0  0  0  0  0  0  0  0
    4.6094    0.1203   -0.0066 C   0  0  0  0  0  0  0  0  0  0  0  0
    4.1357   -2.9874   -0.7608 C   0  0  0  0  0  0  0  0  0  0  0  0
    6.8294    0.9032   -0.3450 C   0  0  0  0  0  0  0  0  0  0  0  0
  1  9  1  0
  1 15  1  0
  2 13  1  0
  2 16  1  0
  3 16  2  0
  4 20  1  0
  4 23  1  0
  5 22  1  0
  5 24  1  0
  6  7  1  0
  6  8  1  0
  6 14  1  0
  7  9  1  0
  7 11  1  0
  8 10  1  0
  8 12  1  0
  9 10  1  0
 11 13  1  0
 12 13  1  0
 16 17  1  0
 17 18  2  0
 17 19  1  0
 18 20  1  0
 19 21  2  0
 20 22  2  0
 21 22  1  0
M  END
>  <PUBCHEM_COMPOUND_CID>  (1) 
31062

>  <PUBCHEM_CONFORMER_RMSD>  (1) 
0.8

>  <PUBCHEM_CONFORMER_DIVERSEORDER>  (1) 
2
441
210
427
200
294
378
124
277
4
192
413
317
350
38
440
180
263
396
71
267
281
154
418
391
331
121
218
17
240
306
257
136
299
164
433
241
57
145
196
386
83
133
410
144
411
115
99
140
375
84
31
394
270
266
109
155
376
236
186
354
226
426
230
100
43
329
74
382
351
429
165
260
23
118
6
91
190
438
66
103
416
107
3
349
235
147
86
58
125
279
434
346
204
231
78
370
366
387
343
70
65
340
129
160
16
25
51
72
390
153
184
422
98
442
400
45
47
310
138
407
18
421
55
414
108
268
221
318
336
9
238
225
379
309
425
5
95
358
408
348
332
303
52
355
397
406
207
365
259
280
101
172
233
321
119
35
252
285
80
292
423
8
177
239
417
189
371
395
82
166
106
322
357
316
269
300
431
1
112
328
93
338
29
137
117
392
360
437
128
242
211
293
420
401
169
132
253
178
363
330
174
19
60
244
53
148
405
56
49
76
69
342
254
46
255
436
54
297
114
341
353
63
113
205
85
27
185
428
361
87
193
248
381
198
64
372
111
139
373
312
181
30
151
50
209
284
75
213
359
325
194
307
344
59
214
13
364
286
183
305
393
219
261
232
301
163
20
295
404
62
215
249
287
228
247
275
120
402
173
158
409
170
26
339
217
150
33
290
368
278
274
102
265
291
333
104
224
92
313
44
356
110
315
383
179
89
374
73
171
415
302
439
352
243
32
334
222
96
22
94
251
161
250
36
377
90
188
273
367
97
134
435
212
246
208
335
347
430
21
282
175
385
48
320
345
10
234
143
323
197
42
229
176
412
156
258
256
67
223
157
203
227
264
187
191
369
88
11
199
149
168
79
81
398
105
384
28
327
324
130
388
14
37
298
15
135
245
326
237
7
216
68
142
288
61
182
122
127
206
40
116
289
424
12
24
159
271
34
276
419
262
308
403
296
399
126
337
77
39
152
304
319
131
123
141
162
201
195
272
41
202
311
362
389
146
380
283
314
167
220
432

>  <PUBCHEM_MMFF94_PARTIAL_CHARGES>  (1) 
24
1 -0.56
13 0.28
14 0.27
15 0.28
16 0.63
17 0.09
18 -0.15
19 -0.15
2 -0.43
20 0.08
21 -0.15
22 0.08
23 0.28
24 0.28
3 -0.57
4 -0.36
41 0.15
42 0.15
43 0.15
5 -0.36
6 -0.81
7 0.27
8 0.27
9 0.28

>  <PUBCHEM_EFFECTIVE_ROTOR_COUNT>  (1) 
7.2

>  <PUBCHEM_PHARMACOPHORE_FEATURES>  (1) 
7
1 1 acceptor
1 3 acceptor
1 4 acceptor
1 5 acceptor
1 6 cation
6 17 18 19 20 21 22 rings
8 6 7 8 9 10 11 12 13 rings

>  <PUBCHEM_HEAVY_ATOM_COUNT>  (1) 
24

>  <PUBCHEM_ATOM_DEF_STEREO_COUNT>  (1) 
0

>  <PUBCHEM_ATOM_UDEF_STEREO_COUNT>  (1) 
4

>  <PUBCHEM_BOND_DEF_STEREO_COUNT>  (1) 
0

>  <PUBCHEM_BOND_UDEF_STEREO_COUNT>  (1) 
0

>  <PUBCHEM_ISOTOPIC_ATOM_COUNT>  (1) 
0

>  <PUBCHEM_COMPONENT_COUNT>  (1) 
1

>  <PUBCHEM_CACTVS_TAUTO_COUNT>  (1) 
1

>  <PUBCHEM_CONFORMER_ID>  (1) 
0000795600000002

>  <PUBCHEM_MMFF94_ENERGY>  (1) 
95.7299

>  <PUBCHEM_FEATURE_SELFOVERLAP>  (1) 
35.527

>  <PUBCHEM_SHAPE_FINGERPRINT>  (1) 
10319926 262 13830131659359362854
10447042 23 18410286991948906206
10680689 15 16660644072733303185
11135926 11 18412543215690033774
11315181 36 15913328022087436161
12091667 2 18060422421459508528
12107183 9 17624148100475149552
12236239 1 17989209244099271168
12553582 1 18343861134695910808
12596602 18 16128650877671280554
12616971 3 17703799170717359977
12633257 1 16128661855491294011
12788726 201 17274554117689573344
13167823 11 18342744009127659658
13544653 18 18410294683665809548
13583140 156 18261669363512479039
14573314 32 17749103370439287525
14863182 85 18411428302520485462
15183329 4 18410846634503540997
15188451 53 15195272162622828813
15537594 2 18130793373313770222
15788980 27 18261109703087235776
16988056 13 13204049728462294799
17349148 13 17489300906379071325
17844677 252 16805327712040803941
17857418 61 18060132124677714750
1813 80 18041576766484459620
18222031 100 17489579069941537576
18927931 339 15913329126226418701
19489759 90 15123791782050618205
200 152 18272930522675226353
20511986 3 17917132936419264568
20645477 70 18408318874145139314
21033648 29 17749377213212075597
21033650 10 16081654348648120972
21267235 1 18340501027393509928
21315763 178 17989205941132068968
21521721 280 18201162174228011504
21623969 137 18335148608921336330
21709351 56 17822289132290444172
21728266 224 16558449943041064271
220451 1 17203613678999992614
22061861 79 18260825977589905838
22224240 67 18201430407952072984
22393880 68 17603861191619538987
23198884 109 15574710305031539001
23402539 116 17918275359107811273
23557571 272 17022902371453537268
23559900 14 18337387244718392032
314194 84 18201998820202061226
34797466 226 17168153359536072895
4073 2 18040725782975697570
46194498 28 17531535411207164917
5104073 3 18270121202163306312
5281201 14 17458068178706056308
5283173 99 17385996243883512740
542803 24 14490470889607478300
602551 16 15626220255945065356

>  <PUBCHEM_SHAPE_MULTIPOLES>  (1) 
459.58
15.18
2.03
1.59
9.7
1
0.91
2.04
1.41
2.27
-0.07
-3.79
0.25
0.25

>  <PUBCHEM_SHAPE_SELFOVERLAP>  (1) 
976.255

>  <PUBCHEM_SHAPE_VOLUME>  (1) 
258

>  <PUBCHEM_COORDINATE_TYPE>  (1) 
2
5
10

$$$$
