31069
     RDKit          3D

 21 24  0  0  1  0  0  0  0  0999 V2000
   -0.9753    2.8596   -0.3440 O   0  0  0  0  0  0  0  0  0  0  0  0
   -3.5095    1.9776   -0.4146 O   0  0  0  0  0  0  0  0  0  0  0  0
    0.3052   -3.1815   -0.1521 N   0  0  0  0  0  0  0  0  0  0  0  0
    0.7041   -1.7993    0.2210 C   0  0  0  0  0  0  0  0  0  0  0  0
   -0.4213   -0.7783    0.0219 C   0  0  0  0  0  0  0  0  0  0  0  0
    1.9447   -1.3334   -0.5745 C   0  0  0  0  0  0  0  0  0  0  0  0
   -1.7608   -1.2087   -0.0485 C   0  0  0  0  0  0  0  0  0  0  0  0
   -0.9613   -3.5326    0.5100 C   0  0  0  0  0  0  0  0  0  0  0  0
   -2.0967   -2.6739   -0.0391 C   0  0  0  0  0  0  0  0  0  0  0  0
   -0.1073    0.6040   -0.0258 C   0  0  0  0  0  0  0  0  0  0  0  0
    2.3235    0.0882   -0.2238 C   0  0  0  0  0  0  0  0  0  0  0  0
    1.3086    1.0324    0.0440 C   0  0  0  0  0  0  0  0  0  0  0  0
   -2.7873   -0.2710   -0.1965 C   0  0  0  0  0  0  0  0  0  0  0  0
   -1.1670    1.5172   -0.1725 C   0  0  0  0  0  0  0  0  0  0  0  0
    1.3248   -4.1712    0.2119 C   0  0  0  0  0  0  0  0  0  0  0  0
   -2.4912    1.0851   -0.2548 C   0  0  0  0  0  0  0  0  0  0  0  0
    3.6753    0.4648   -0.2083 C   0  0  0  0  0  0  0  0  0  0  0  0
    1.7040    2.3425    0.3691 C   0  0  0  0  0  0  0  0  0  0  0  0
    4.0376    1.7709    0.1056 C   0  0  0  0  0  0  0  0  0  0  0  0
    3.0531    2.7072    0.3997 C   0  0  0  0  0  0  0  0  0  0  0  0
   -4.1035    2.5004    0.7713 C   0  0  0  0  0  0  0  0  0  0  0  0
  1 14  1  0
  2 16  1  0
  2 21  1  0
  3  4  1  0
  3  8  1  0
  3 15  1  0
  4  5  1  0
  4  6  1  0
  5  7  2  0
  5 10  1  0
  6 11  1  0
  7  9  1  0
  7 13  1  0
  8  9  1  0
 10 12  1  0
 10 14  2  0
 11 12  2  0
 11 17  1  0
 12 18  1  0
 13 16  2  0
 14 16  1  0
 17 19  2  0
 18 20  2  0
 19 20  1  0
M  END
>  <PUBCHEM_COMPOUND_CID>  (1) 
31069

>  <PUBCHEM_CONFORMER_RMSD>  (1) 
0.6

>  <PUBCHEM_CONFORMER_DIVERSEORDER>  (1) 
1
2

>  <PUBCHEM_MMFF94_PARTIAL_CHARGES>  (1) 
25
1 -0.53
11 -0.14
13 -0.15
14 0.08
15 0.27
16 0.08
17 -0.15
18 -0.15
19 -0.15
2 -0.36
20 -0.15
21 0.28
29 0.15
3 -0.81
33 0.15
34 0.15
35 0.15
36 0.15
37 0.45
4 0.41
5 -0.14
6 0.14
7 -0.14
8 0.27
9 0.14

>  <PUBCHEM_EFFECTIVE_ROTOR_COUNT>  (1) 
1.8

>  <PUBCHEM_PHARMACOPHORE_FEATURES>  (1) 
7
1 1 donor
1 2 acceptor
1 3 cation
6 11 12 17 18 19 20 rings
6 3 4 5 7 8 9 rings
6 4 5 6 10 11 12 rings
6 5 7 10 13 14 16 rings

>  <PUBCHEM_HEAVY_ATOM_COUNT>  (1) 
21

>  <PUBCHEM_ATOM_DEF_STEREO_COUNT>  (1) 
1

>  <PUBCHEM_ATOM_UDEF_STEREO_COUNT>  (1) 
0

>  <PUBCHEM_BOND_DEF_STEREO_COUNT>  (1) 
0

>  <PUBCHEM_BOND_UDEF_STEREO_COUNT>  (1) 
0

>  <PUBCHEM_ISOTOPIC_ATOM_COUNT>  (1) 
0

>  <PUBCHEM_COMPONENT_COUNT>  (1) 
1

>  <PUBCHEM_CACTVS_TAUTO_COUNT>  (1) 
3

>  <PUBCHEM_CONFORMER_ID>  (1) 
0000795D00000001

>  <PUBCHEM_MMFF94_ENERGY>  (1) 
76.9883

>  <PUBCHEM_FEATURE_SELFOVERLAP>  (1) 
35.608

>  <PUBCHEM_SHAPE_FINGERPRINT>  (1) 
10165383 225 18190479180742870284
10319926 262 18054487370380549160
10411042 1 16897083336722796974
10493431 412 18412270544948029753
10608611 8 18197496444645878680
10616163 171 18050006889875712644
10967382 1 18194682562060817174
1100329 8 18266457594696353266
12173636 292 18338513169898757044
12390115 104 18198080225027486704
12403259 226 17766841997999883640
12403260 363 18339628057852356718
12553582 1 17042609713037840263
12730499 353 18336549301236677349
12788726 201 18051117383297203203
13140716 1 18410293596833154168
13583140 156 16878207766530573249
138480 1 17690279309300772675
14081887 123 17765420338044769096
14223421 5 17836365226347068264
14790565 3 18266756709214979476
15042514 8 17832141997673646066
15475509 35 16590575340590075585
15927050 60 18340771451013718839
16945 1 18338513011000641599
19591789 44 18410298016560379235
20510252 161 18198062692817328241
20739085 24 17760674480666202809
21029758 11 17691679408889996095
21041028 32 17330278264617678617
2334 1 18266458891570157092
23402539 116 17838328936570715711
23419403 2 17322439979267004251
23557571 272 17982464990278125572
23558518 356 18190181372274206954
23559900 14 18343022186550876620
238 59 17540213637647760157
23845131 108 18335710395449901347
2748010 2 18337678631978110935
283562 15 18196085762711289107
3071541 12 18195245507914657727
3091708 16 9265028679871937371
335352 9 18339361855937600092
350125 39 18337961189291666441
352729 6 18410571820735892774
5104073 3 18339356491745448680
54173680 148 17833266806895743386
58807428 26 18409724041315178736
5939293 188 17979633429444571775
6443956 14 17472983895935173869
7364860 26 18122342372133762102
81228 2 17901103345302691489
84936 182 18200588086369545137
8809292 202 18266743678404483310
9709674 26 18198064888088857452

>  <PUBCHEM_SHAPE_MULTIPOLES>  (1) 
415.45
5.85
4.93
0.7
2.59
3.31
-0.03
-4.66
-0.31
-2.51
-0.63
-0.06
-0.06
0.21

>  <PUBCHEM_SHAPE_SELFOVERLAP>  (1) 
921.599

>  <PUBCHEM_SHAPE_VOLUME>  (1) 
221.9

>  <PUBCHEM_COORDINATE_TYPE>  (1) 
2
5
10

$$$$
