31092
     RDKit          3D

 16 17  0  0  1  0  0  0  0  0999 V2000
   -0.6201    0.9731    0.0321 O   0  0  0  0  0  0  0  0  0  0  0  0
    1.7839    1.6457   -0.2884 O   0  0  0  0  0  0  0  0  0  0  0  0
   -1.2109   -1.8138    0.0227 N   0  0  0  0  0  0  0  0  0  0  0  0
    2.6534   -0.2118    0.8128 N   0  0  0  0  0  0  0  0  0  0  0  0
    0.2866   -0.0035    0.5552 C   0  0  0  0  0  0  0  0  0  0  0  0
    0.1432   -1.3400   -0.1588 C   0  0  0  0  0  0  0  0  0  0  0  0
   -2.2201   -0.8618   -0.0432 C   0  0  0  0  0  0  0  0  0  0  0  0
   -1.9149    0.5100   -0.0350 C   0  0  0  0  0  0  0  0  0  0  0  0
    1.6376    0.5839    0.3114 C   0  0  0  0  0  0  0  0  0  0  0  0
    4.0538    0.1215    0.6869 C   0  0  0  0  0  0  0  0  0  0  0  0
    4.6246   -0.4660   -0.6014 C   0  0  0  0  0  0  0  0  0  0  0  0
   -3.5653   -1.2460   -0.0837 C   0  0  0  0  0  0  0  0  0  0  0  0
   -2.9231    1.4714   -0.1240 C   0  0  0  0  0  0  0  0  0  0  0  0
   -4.5773   -0.2859   -0.1564 C   0  0  0  0  0  0  0  0  0  0  0  0
   -4.2560    1.0704   -0.1827 C   0  0  0  0  0  0  0  0  0  0  0  0
    6.1046   -0.1472   -0.7473 C   0  0  0  0  0  0  0  0  0  0  0  0
  1  5  1  0
  1  8  1  0
  2  9  2  0
  3  6  1  0
  3  7  1  0
  4  9  1  0
  4 10  1  0
  5  6  1  0
  5  9  1  0
  7  8  2  0
  7 12  1  0
  8 13  1  0
 10 11  1  0
 11 16  1  0
 12 14  2  0
 13 15  2  0
 14 15  1  0
M  END
>  <PUBCHEM_COMPOUND_CID>  (1) 
31092

>  <PUBCHEM_CONFORMER_RMSD>  (1) 
0.6

>  <PUBCHEM_CONFORMER_DIVERSEORDER>  (1) 
1
65
54
10
52
4
55
44
56
19
49
69
3
59
8
6
5
51
13
25
22
45
14
50
31
39
64
58
38
61
62
18
17
7
46
27
33
63
67
40
43
68
16
2
60
11
53
9
20
57
48
37
47
30
35
24
36
42
66
23
28
26
29
15
12
32
21
34
41

>  <PUBCHEM_MMFF94_PARTIAL_CHARGES>  (1) 
20
1 -0.36
10 0.3
12 -0.15
13 -0.15
14 -0.15
15 -0.15
2 -0.57
20 0.4
23 0.37
26 0.15
27 0.15
28 0.15
29 0.15
3 -0.87
4 -0.73
5 0.34
6 0.37
7 0.1
8 0.08
9 0.57

>  <PUBCHEM_EFFECTIVE_ROTOR_COUNT>  (1) 
4.8

>  <PUBCHEM_PHARMACOPHORE_FEATURES>  (1) 
8
1 1 acceptor
1 16 hydrophobe
1 2 acceptor
1 3 cation
1 3 donor
1 4 donor
6 1 3 5 6 7 8 rings
6 7 8 12 13 14 15 rings

>  <PUBCHEM_HEAVY_ATOM_COUNT>  (1) 
16

>  <PUBCHEM_ATOM_DEF_STEREO_COUNT>  (1) 
0

>  <PUBCHEM_ATOM_UDEF_STEREO_COUNT>  (1) 
1

>  <PUBCHEM_BOND_DEF_STEREO_COUNT>  (1) 
0

>  <PUBCHEM_BOND_UDEF_STEREO_COUNT>  (1) 
0

>  <PUBCHEM_ISOTOPIC_ATOM_COUNT>  (1) 
0

>  <PUBCHEM_COMPONENT_COUNT>  (1) 
1

>  <PUBCHEM_CACTVS_TAUTO_COUNT>  (1) 
2

>  <PUBCHEM_CONFORMER_ID>  (1) 
0000797400000001

>  <PUBCHEM_MMFF94_ENERGY>  (1) 
39.3911

>  <PUBCHEM_FEATURE_SELFOVERLAP>  (1) 
40.646

>  <PUBCHEM_SHAPE_FINGERPRINT>  (1) 
11315181 36 17917716807859933552
12236239 1 17748545935719642190
12390115 104 18128263281521759513
12403259 415 18342166770034803105
13288520 33 18342741818783944340
13380535 76 18411414004046861923
13533116 47 13038912097617824524
13675066 3 18130782408135403170
13760787 19 17967247594034317018
14251718 22 18409169926594560716
14251731 8 18412265025814288366
14251752 14 18262237721293930046
14573314 32 18060140903854657500
14911166 2 18411982455631525012
14993402 34 18260546723353789024
15042514 8 18195809785599120599
15048467 5 15357697474495780188
15099037 51 18412826889019735886
15196674 1 18410854407882507185
15242439 84 18131068225672118624
15536298 74 18338794632349599432
17804303 29 18412543240583949041
17834072 33 18335986449840429852
17834072 8 18342173353976542004
17870717 6 18201451258984476198
18186145 218 18188479263475496741
200 152 15769776836321542802
20621476 66 18340776948677463209
20645477 70 17203332191787168454
20871999 31 18334862731803217214
21267235 1 18409735097141298859
2215653 11 17988642965424720590
2297311 6 18343027687380570317
23175994 123 17346599685645239120
23402539 116 18131344207195968125
23463225 33 18334849511598377187
23559900 14 18131345350158455008
23590187 130 18410576171479767452
26918003 58 13039184814175172717
3004659 81 18335425609275464262
3545911 37 18412825763975596611
4214541 1 18411699889464323200
474 4 16879076445805619068
4990 188 18273217474125389174
5104073 3 18410570733924707504
58051976 100 18334855051784584991
59755656 215 18343582906777974543
9709674 26 18196368345536231146
9981440 41 17107350607176450224

>  <PUBCHEM_SHAPE_MULTIPOLES>  (1) 
307.57
11.02
1.5
0.76
11.62
0.07
-0.02
-0.02
2.16
-1.12
0.09
0.53
0
0.17

>  <PUBCHEM_SHAPE_SELFOVERLAP>  (1) 
642.704

>  <PUBCHEM_SHAPE_VOLUME>  (1) 
173.4

>  <PUBCHEM_COORDINATE_TYPE>  (1) 
2
5
10

$$$$
