31106
     RDKit          3D

 18 19  0  0  0  0  0  0  0  0999 V2000
   -3.2202   -1.5579    0.8419 O   0  0  0  0  0  0  0  0  0  0  0  0
    1.1803   -0.6110    0.6736 N   0  0  0  0  0  0  0  0  0  0  0  0
   -1.5835   -0.3547   -0.2826 N   0  0  0  0  0  0  0  0  0  0  0  0
    1.9364    1.2274    1.5030 N   0  0  0  0  0  0  0  0  0  0  0  0
    0.3057   -1.7582    0.4450 C   0  0  0  0  0  0  0  0  0  0  0  0
   -4.4773    1.2280   -0.3833 C   0  0  0  0  0  0  0  0  0  0  0  0
   -0.7390   -1.4757   -0.6247 C   0  0  0  0  0  0  0  0  0  0  0  0
    2.3591   -0.3629    0.0134 C   0  0  0  0  0  0  0  0  0  0  0  0
   -3.4324    0.8507    0.6775 C   0  0  0  0  0  0  0  0  0  0  0  0
    2.8512    0.8293    0.5499 C   0  0  0  0  0  0  0  0  0  0  0  0
    0.9327    0.3462    1.5648 C   0  0  0  0  0  0  0  0  0  0  0  0
   -2.7658   -0.4941    0.4299 C   0  0  0  0  0  0  0  0  0  0  0  0
   -5.5686    0.1603   -0.4956 C   0  0  0  0  0  0  0  0  0  0  0  0
   -3.8006    1.4183   -1.7423 C   0  0  0  0  0  0  0  0  0  0  0  0
    3.0244   -1.0634   -0.9858 C   0  0  0  0  0  0  0  0  0  0  0  0
    4.0429    1.4043    0.1245 C   0  0  0  0  0  0  0  0  0  0  0  0
    4.2288   -0.4956   -1.4255 C   0  0  0  0  0  0  0  0  0  0  0  0
    4.7258    0.7090   -0.8836 C   0  0  0  0  0  0  0  0  0  0  0  0
  1 12  2  0
  2  5  1  0
  2  8  1  0
  2 11  2  0
  3  7  1  0
  3 12  1  0
  4 10  1  0
  4 11  1  0
  5  7  1  0
  6  9  1  0
  6 13  1  0
  6 14  1  0
  8 10  2  0
  8 15  1  0
  9 12  1  0
 10 16  1  0
 15 17  2  0
 16 18  2  0
 17 18  1  0
M  CHG  1   2   1
M  END
>  <PUBCHEM_COMPOUND_CID>  (1) 
31106

>  <PUBCHEM_CONFORMER_RMSD>  (1) 
0.8

>  <PUBCHEM_CONFORMER_DIVERSEORDER>  (1) 
1
63
13
22
45
53
27
37
28
33
5
58
46
55
34
19
54
47
2
52
48
20
4
23
15
42
61
43
25
59
6
17
24
21
36
32
3
50
8
14
56
51
60
29
16
11
62
26
30
10
57
9
49
38
18
7
31
12
40
41
44
39
35

>  <PUBCHEM_MMFF94_PARTIAL_CHARGES>  (1) 
22
1 -0.57
10 0.31
11 0.65
12 0.57
15 -0.11
16 -0.11
17 -0.15
18 -0.15
2 -0.76
26 0.15
27 0.37
28 0.45
3 -0.73
35 0.15
36 0.15
37 0.15
38 0.15
4 -0.7
5 0.51
7 0.3
8 0.31
9 0.06

>  <PUBCHEM_EFFECTIVE_ROTOR_COUNT>  (1) 
6

>  <PUBCHEM_PHARMACOPHORE_FEATURES>  (1) 
7
1 1 acceptor
1 3 donor
1 4 donor
3 2 4 11 cation
3 6 13 14 hydrophobe
5 2 4 8 10 11 rings
6 8 10 15 16 17 18 rings

>  <PUBCHEM_HEAVY_ATOM_COUNT>  (1) 
18

>  <PUBCHEM_ATOM_DEF_STEREO_COUNT>  (1) 
0

>  <PUBCHEM_ATOM_UDEF_STEREO_COUNT>  (1) 
0

>  <PUBCHEM_BOND_DEF_STEREO_COUNT>  (1) 
0

>  <PUBCHEM_BOND_UDEF_STEREO_COUNT>  (1) 
0

>  <PUBCHEM_ISOTOPIC_ATOM_COUNT>  (1) 
0

>  <PUBCHEM_COMPONENT_COUNT>  (1) 
1

>  <PUBCHEM_CACTVS_TAUTO_COUNT>  (1) 
4

>  <PUBCHEM_CONFORMER_ID>  (1) 
0000798200000001

>  <PUBCHEM_MMFF94_ENERGY>  (1) 
23.6949

>  <PUBCHEM_FEATURE_SELFOVERLAP>  (1) 
35.629

>  <PUBCHEM_SHAPE_FINGERPRINT>  (1) 
10498660 4 18333726905873870101
11471102 20 17846502534702877602
11595378 159 16081365203318703821
11796584 16 13038903322319526797
12363563 72 11023821812189963239
12596602 18 15140967261899770225
12730499 353 18341900684063076819
12892183 10 14996563920404985101
13544653 18 8214140742179608395
14251751 18 13182726057429470637
14251752 14 18187934946060675830
14252887 29 11241964859011211952
14341114 328 15502380027698846020
15210252 30 18335422348514792684
17834072 8 18272658935082210518
18186145 218 18342182167386654906
193927 3 11599724012459953989
19862831 5 17775564226063667795
200 152 16200435753764352875
20645477 70 17846786178464344214
21069387 34 14405188386753275902
21503847 285 16950290606886881844
221357 26 17847059961307673305
22646028 1 14477240461948054621
22646028 28 12175621784718713693
231179 274 18334574629190769976
23253445 4 12396303668376271479
23402539 116 18261107509049868724
23402655 69 18060704996074207012
25 1 18272376364773171338
3009799 131 17988926657263841372
341906 21 17096079191609980309
4028521 119 18411136926821055409
4072396 5 18060128835561181682
4990 188 17989207036005994207
5281201 14 18341904025341463180
633830 44 18059579057496769505
6442390 28 18260548943799724779
7471813 234 15482677879410206792
7808743 9 17967253134526207005

>  <PUBCHEM_SHAPE_MULTIPOLES>  (1) 
349.62
11.14
1.64
1.41
6.26
0.21
-0.09
-3.88
-3.92
0.17
-0.01
-0.23
-0.27
1.17

>  <PUBCHEM_SHAPE_SELFOVERLAP>  (1) 
728.287

>  <PUBCHEM_SHAPE_VOLUME>  (1) 
201.5

>  <PUBCHEM_COORDINATE_TYPE>  (1) 
2
5
10

$$$$
