31114
     RDKit          3D

  9  8  0  0  0  0  0  0  0  0999 V2000
   -1.8418    0.0057    1.1566 O   0  0  0  0  0  0  0  0  0  0  0  0
    0.0955   -0.1840   -0.1938 C   0  0  0  0  0  0  0  0  0  0  0  0
    0.3025   -1.5978   -0.6755 C   0  0  0  0  0  0  0  0  0  0  0  0
    1.0528    0.7480    0.0098 C   0  0  0  0  0  0  0  0  0  0  0  0
   -1.3293    0.1899    0.0547 C   0  0  0  0  0  0  0  0  0  0  0  0
    0.5194   -2.5637    0.4804 C   0  0  0  0  0  0  0  0  0  0  0  0
    2.5218    0.4811   -0.2093 C   0  0  0  0  0  0  0  0  0  0  0  0
    0.7868    2.1595    0.4770 C   0  0  0  0  0  0  0  0  0  0  0  0
   -2.1078    0.7612   -1.0999 C   0  0  0  0  0  0  0  0  0  0  0  0
  1  5  2  0
  2  3  1  0
  2  4  2  3
  2  5  1  0
  3  6  1  0
  4  7  1  0
  4  8  1  0
  5  9  1  0
M  END
>  <PUBCHEM_COMPOUND_CID>  (1) 
31114

>  <PUBCHEM_CONFORMER_RMSD>  (1) 
0.4

>  <PUBCHEM_CONFORMER_DIVERSEORDER>  (1) 
1
9
5
8
2
6
7
10
3
4

>  <PUBCHEM_MMFF94_PARTIAL_CHARGES>  (1) 
8
1 -0.57
2 -0.12
3 0.14
4 -0.28
5 0.49
7 0.14
8 0.14
9 0.06

>  <PUBCHEM_EFFECTIVE_ROTOR_COUNT>  (1) 
2

>  <PUBCHEM_PHARMACOPHORE_FEATURES>  (1) 
3
1 1 acceptor
1 6 hydrophobe
3 4 7 8 hydrophobe

>  <PUBCHEM_HEAVY_ATOM_COUNT>  (1) 
9

>  <PUBCHEM_ATOM_DEF_STEREO_COUNT>  (1) 
0

>  <PUBCHEM_ATOM_UDEF_STEREO_COUNT>  (1) 
0

>  <PUBCHEM_BOND_DEF_STEREO_COUNT>  (1) 
0

>  <PUBCHEM_BOND_UDEF_STEREO_COUNT>  (1) 
0

>  <PUBCHEM_ISOTOPIC_ATOM_COUNT>  (1) 
0

>  <PUBCHEM_COMPONENT_COUNT>  (1) 
1

>  <PUBCHEM_CACTVS_TAUTO_COUNT>  (1) 
5

>  <PUBCHEM_CONFORMER_ID>  (1) 
0000798A00000001

>  <PUBCHEM_MMFF94_ENERGY>  (1) 
13.0118

>  <PUBCHEM_FEATURE_SELFOVERLAP>  (1) 
15.223

>  <PUBCHEM_SHAPE_FINGERPRINT>  (1) 
12423570 1 12866591622110287503
137420 1 15083883104428054511
21040471 1 18266453389944099148
29004967 10 18337685100203997009
5084963 1 18200026394798953365

>  <PUBCHEM_SHAPE_MULTIPOLES>  (1) 
179.35
2.57
2.35
0.96
0.14
1.14
0.02
-0.95
-0.32
-0.82
0.36
0.4
0.01
0.19

>  <PUBCHEM_SHAPE_SELFOVERLAP>  (1) 
334.39

>  <PUBCHEM_SHAPE_VOLUME>  (1) 
114.2

>  <PUBCHEM_COORDINATE_TYPE>  (1) 
2
5
10

$$$$
