31129
     RDKit          3D

 21 23  0  0  1  0  0  0  0  0999 V2000
    7.0609    0.3675    0.4926 O   0  0  0  0  0  0  0  0  0  0  0  0
   -2.2818    0.6270   -0.3892 O   0  0  0  0  0  0  0  0  0  0  0  0
   -0.0903    0.0719   -1.6937 O   0  0  0  0  0  0  0  0  0  0  0  0
    4.2841    0.2483   -0.1212 N   0  0  0  0  0  0  0  0  0  0  0  0
    0.7703   -0.9532    0.2108 N   0  0  0  0  0  0  0  0  0  0  0  0
   -3.6076   -1.8241    0.2029 N   0  0  0  0  0  0  0  0  0  0  0  0
    2.8719    0.2772    0.2535 C   0  0  0  0  0  0  0  0  0  0  0  0
    4.9750   -0.8710    0.5341 C   0  0  0  0  0  0  0  0  0  0  0  0
    4.9414    1.5166    0.2234 C   0  0  0  0  0  0  0  0  0  0  0  0
    2.1571   -0.9895   -0.1937 C   0  0  0  0  0  0  0  0  0  0  0  0
    6.4488   -0.8732    0.1384 C   0  0  0  0  0  0  0  0  0  0  0  0
    6.4157    1.4581   -0.1661 C   0  0  0  0  0  0  0  0  0  0  0  0
   -1.5778   -0.5339    0.0651 C   0  0  0  0  0  0  0  0  0  0  0  0
   -2.2771   -1.8162   -0.3634 C   0  0  0  0  0  0  0  0  0  0  0  0
   -0.2354   -0.4230   -0.5791 C   0  0  0  0  0  0  0  0  0  0  0  0
   -4.2889   -0.6138    0.2146 C   0  0  0  0  0  0  0  0  0  0  0  0
   -3.6221    0.5885   -0.0767 C   0  0  0  0  0  0  0  0  0  0  0  0
   -5.6464   -0.5595    0.5510 C   0  0  0  0  0  0  0  0  0  0  0  0
   -4.3061    1.8055   -0.0889 C   0  0  0  0  0  0  0  0  0  0  0  0
   -6.3298    0.6587    0.5556 C   0  0  0  0  0  0  0  0  0  0  0  0
   -5.6619    1.8382    0.2300 C   0  0  0  0  0  0  0  0  0  0  0  0
  1 11  1  0
  1 12  1  0
  2 13  1  0
  2 17  1  0
  3 15  2  0
  4  7  1  0
  4  8  1  0
  4  9  1  0
  5 10  1  0
  5 15  1  0
  6 14  1  0
  6 16  1  0
  7 10  1  0
  8 11  1  0
  9 12  1  0
 13 14  1  0
 13 15  1  0
 16 17  2  0
 16 18  1  0
 17 19  1  0
 18 20  2  0
 19 21  2  0
 20 21  1  0
M  END
>  <PUBCHEM_COMPOUND_CID>  (1) 
31129

>  <PUBCHEM_CONFORMER_RMSD>  (1) 
0.8

>  <PUBCHEM_CONFORMER_DIVERSEORDER>  (1) 
2
83
108
25
58
95
102
85
8
127
89
112
88
4
107
70
76
90
1
144
68
99
81
47
104
64
101
34
3
60
145
59
137
91
29
97
38
141
71
131
18
74
13
75
122
77
45
56
123
87
82
114
7
73
130
118
67
42
142
36
20
106
100
61
32
30
113
94
24
135
105
79
52
132
146
16
126
27
66
28
147
119
133
111
62
143
69
134
9
54
50
120
35
109
125
65
21
138
84
110
55
19
57
51
41
17
14
129
10
140
33
86
128
115
22
96
26
63
49
92
31
72
44
12
53
11
124
39
40
46
15
121
5
93
116
80
139
78
136
48
6
43
37
103
148
98
23
117

>  <PUBCHEM_MMFF94_PARTIAL_CHARGES>  (1) 
27
1 -0.56
10 0.3
11 0.28
12 0.28
13 0.34
14 0.37
15 0.57
16 0.1
17 0.08
18 -0.15
19 -0.15
2 -0.36
20 -0.15
21 -0.15
3 -0.57
37 0.37
38 0.4
39 0.15
4 -0.81
40 0.15
41 0.15
42 0.15
5 -0.73
6 -0.87
7 0.27
8 0.27
9 0.27

>  <PUBCHEM_EFFECTIVE_ROTOR_COUNT>  (1) 
7

>  <PUBCHEM_PHARMACOPHORE_FEATURES>  (1) 
10
1 1 acceptor
1 2 acceptor
1 3 acceptor
1 4 cation
1 5 donor
1 6 cation
1 6 donor
6 1 4 8 9 11 12 rings
6 16 17 18 19 20 21 rings
6 2 6 13 14 16 17 rings

>  <PUBCHEM_HEAVY_ATOM_COUNT>  (1) 
21

>  <PUBCHEM_ATOM_DEF_STEREO_COUNT>  (1) 
0

>  <PUBCHEM_ATOM_UDEF_STEREO_COUNT>  (1) 
1

>  <PUBCHEM_BOND_DEF_STEREO_COUNT>  (1) 
0

>  <PUBCHEM_BOND_UDEF_STEREO_COUNT>  (1) 
0

>  <PUBCHEM_ISOTOPIC_ATOM_COUNT>  (1) 
0

>  <PUBCHEM_COMPONENT_COUNT>  (1) 
1

>  <PUBCHEM_CACTVS_TAUTO_COUNT>  (1) 
2

>  <PUBCHEM_CONFORMER_ID>  (1) 
0000799900000002

>  <PUBCHEM_MMFF94_ENERGY>  (1) 
52.3011

>  <PUBCHEM_FEATURE_SELFOVERLAP>  (1) 
50.791

>  <PUBCHEM_SHAPE_FINGERPRINT>  (1) 
10 15 18334583447127848547
10299344 5 17967816038136983458
10354089 29 18113617889839693592
10411042 1 17907577283755472303
106641 1 18409739474234927739
11089746 13 16056592158246276466
11315181 36 18113620110263796183
12107183 9 17687740545937851122
12236239 1 18259985980744597562
12516196 113 11169913892361191814
12596602 18 18113056025864347265
12616971 3 16588311617546483102
13167372 99 18411982438678723720
13288520 33 8502652606635901379
13403585 85 18409450284843104393
13533116 47 14189305816349732452
13668630 136 12107785186287868584
13685833 64 7853569119269517252
13785724 45 17907012873360137754
1420 363 13984662542760112154
14251764 18 18335139812379466229
14341114 176 18407761426266214420
14844126 61 18116440422188606179
14849402 71 17823146790363683292
14933364 13 18410294714010038520
15048467 5 18412544309993720088
15183329 4 11240005546533726940
15461852 350 18273209816552050951
15501527 16 18413389830499221619
15537594 2 15068618305674835528
15716309 27 12973605538368879976
17093844 174 15068616098425583375
17844677 252 18410580621335028352
17980427 23 18410013264945583349
1813 80 16371012866780025870
20281389 69 18411136939674484352
20645477 56 18343018887467204591
21033648 29 18130494345285385928
21150785 3 14836117767151034157
21315763 28 18411136948048076027
220451 1 17603584132428474978
22224240 67 17530964691647446651
23081809 10 18336540607995867710
23198884 109 13254797936633866141
23402539 116 18273209799155864519
23536379 177 18409448085782789458
23559900 14 18200597969094717262
2838139 119 17989198235718686065
29717793 49 11383832684433347082
34797466 226 17917159372085370700
3545911 37 18342459227005070786
4073 2 18041002890646297618
4325135 7 17918269866725172933
465052 167 12179843892922636746
5104073 3 18259982660924938450
542803 24 18411697699342082674
5758199 1 17821447989443053640
59682541 35 18261684744380943897
59755656 520 17749105608196922538

>  <PUBCHEM_SHAPE_MULTIPOLES>  (1) 
399.62
19.65
1.75
0.8
17.11
0.22
-0.15
6.22
3.83
-0.93
0.02
-0.07
-0.01
-0.12

>  <PUBCHEM_SHAPE_SELFOVERLAP>  (1) 
840.185

>  <PUBCHEM_SHAPE_VOLUME>  (1) 
223

>  <PUBCHEM_COORDINATE_TYPE>  (1) 
2
5
10

$$$$
