31140
     RDKit          3D

  9  8  0  0  0  0  0  0  0  0999 V2000
    1.8948    1.2957   -0.1902 O   0  0  0  0  0  0  0  0  0  0  0  0
   -0.3100    0.4865    0.1408 C   0  0  0  0  0  0  0  0  0  0  0  0
    1.7813   -1.0935    0.0518 C   0  0  0  0  0  0  0  0  0  0  0  0
    1.1825    0.3051   -0.0152 C   0  0  0  0  0  0  0  0  0  0  0  0
   -2.5998   -0.5655    0.5453 C   0  0  0  0  0  0  0  0  0  0  0  0
   -1.1104   -0.5776    0.3378 C   0  0  0  0  0  0  0  0  0  0  0  0
   -0.7846    1.9098    0.0394 C   0  0  0  0  0  0  0  0  0  0  0  0
    3.2907   -1.0879   -0.1340 C   0  0  0  0  0  0  0  0  0  0  0  0
   -3.3445   -0.6726   -0.7757 C   0  0  0  0  0  0  0  0  0  0  0  0
  1  4  2  0
  2  4  1  0
  2  6  2  0
  2  7  1  0
  3  4  1  0
  3  8  1  0
  5  6  1  0
  5  9  1  0
M  END
>  <PUBCHEM_COMPOUND_CID>  (1) 
31140

>  <PUBCHEM_CONFORMER_RMSD>  (1) 
0.6

>  <PUBCHEM_CONFORMER_DIVERSEORDER>  (1) 
1
8
7
13
19
3
18
21
12
10
6
17
5
22
9
15
2
20
16
11
14
4

>  <PUBCHEM_MMFF94_PARTIAL_CHARGES>  (1) 
8
1 -0.57
14 0.15
2 -0.12
3 0.06
4 0.49
5 0.14
6 -0.29
7 0.14

>  <PUBCHEM_EFFECTIVE_ROTOR_COUNT>  (1) 
3

>  <PUBCHEM_PHARMACOPHORE_FEATURES>  (1) 
4
1 1 acceptor
1 7 hydrophobe
1 8 hydrophobe
1 9 hydrophobe

>  <PUBCHEM_HEAVY_ATOM_COUNT>  (1) 
9

>  <PUBCHEM_ATOM_DEF_STEREO_COUNT>  (1) 
0

>  <PUBCHEM_ATOM_UDEF_STEREO_COUNT>  (1) 
0

>  <PUBCHEM_BOND_DEF_STEREO_COUNT>  (1) 
0

>  <PUBCHEM_BOND_UDEF_STEREO_COUNT>  (1) 
1

>  <PUBCHEM_ISOTOPIC_ATOM_COUNT>  (1) 
0

>  <PUBCHEM_COMPONENT_COUNT>  (1) 
1

>  <PUBCHEM_CACTVS_TAUTO_COUNT>  (1) 
5

>  <PUBCHEM_CONFORMER_ID>  (1) 
000079A400000001

>  <PUBCHEM_MMFF94_ENERGY>  (1) 
6.1644

>  <PUBCHEM_FEATURE_SELFOVERLAP>  (1) 
20.297

>  <PUBCHEM_SHAPE_FINGERPRINT>  (1) 
11206711 2 18189058611708766222
12897270 3 18260832609008789550
12932764 1 17703515501307305433
14128692 85 18412833460382943694
14390081 3 10809352156207450454
15477762 27 18124025986977629039
20201158 50 18334294257899802827
20645477 70 18411696617132124383
20651381 32 18334289898892677535
20653085 51 15574722382627002343
20711978 1 18409729547616128580
20711985 344 17969212339840700977
23552423 10 18259991456848933984
29004967 10 18263087776245614193

>  <PUBCHEM_SHAPE_MULTIPOLES>  (1) 
179.35
4.95
1.6
0.73
0.12
0.72
0.02
-2.43
0.72
-0.21
0.04
0.33
-0.09
-0.1

>  <PUBCHEM_SHAPE_SELFOVERLAP>  (1) 
330.004

>  <PUBCHEM_SHAPE_VOLUME>  (1) 
114.4

>  <PUBCHEM_COORDINATE_TYPE>  (1) 
2
5
10

$$$$
