31148
     RDKit          3D

 24 24  0  0  0  0  0  0  0  0999 V2000
    3.3622   -0.1574    1.7721 S   0  0  0  0  0  0  0  0  0  0  0  0
    2.2886    3.1818    1.5000 S   0  0  0  0  0  0  0  0  0  0  0  0
    2.7790    1.5135    0.5910 P   0  0  0  0  0  0  0  0  0  0  0  0
   -1.3251   -1.9561   -0.8550 O   0  0  0  0  0  0  0  0  0  0  0  0
    3.9517    1.7381   -0.5263 O   0  0  0  0  0  0  0  0  0  0  0  0
    1.6012    0.9962   -0.4186 O   0  0  0  0  0  0  0  0  0  0  0  0
    2.9631   -1.1513   -1.4994 O   0  0  0  0  0  0  0  0  0  0  0  0
   -0.1594   -1.5206    1.1103 O   0  0  0  0  0  0  0  0  0  0  0  0
    0.8243   -2.6680   -0.6520 N   0  0  0  0  0  0  0  0  0  0  0  0
   -3.8418    2.2018   -0.0990 C   0  0  0  0  0  0  0  0  0  0  0  0
   -3.6737    0.7326    0.0926 C   0  0  0  0  0  0  0  0  0  0  0  0
   -2.6849    3.0124    0.5155 C   0  0  0  0  0  0  0  0  0  0  0  0
   -4.0194    2.5862   -1.5803 C   0  0  0  0  0  0  0  0  0  0  0  0
   -2.5795    0.0763   -0.4708 C   0  0  0  0  0  0  0  0  0  0  0  0
   -4.6108    0.0148    0.8355 C   0  0  0  0  0  0  0  0  0  0  0  0
   -2.4223   -1.2980   -0.2910 C   0  0  0  0  0  0  0  0  0  0  0  0
   -4.4538   -1.3595    1.0153 C   0  0  0  0  0  0  0  0  0  0  0  0
   -3.3595   -2.0158    0.4520 C   0  0  0  0  0  0  0  0  0  0  0  0
    2.1122   -2.8887   -0.0641 C   0  0  0  0  0  0  0  0  0  0  0  0
    3.0176   -1.7238   -0.4096 C   0  0  0  0  0  0  0  0  0  0  0  0
    4.0652   -1.3443    0.6093 C   0  0  0  0  0  0  0  0  0  0  0  0
   -0.2125   -2.0014   -0.0178 C   0  0  0  0  0  0  0  0  0  0  0  0
    5.2332    2.2038   -0.1369 C   0  0  0  0  0  0  0  0  0  0  0  0
    1.1443    1.8272   -1.4729 C   0  0  0  0  0  0  0  0  0  0  0  0
  1  3  1  0
  1 21  1  0
  2  3  2  0
  3  5  1  0
  3  6  1  0
  4 16  1  0
  4 22  1  0
  5 23  1  0
  6 24  1  0
  7 20  2  0
  8 22  2  0
  9 19  1  0
  9 22  1  0
 10 11  1  0
 10 12  1  0
 10 13  1  0
 11 14  2  0
 11 15  1  0
 14 16  1  0
 15 17  2  0
 16 18  2  0
 17 18  1  0
 19 20  1  0
 20 21  1  0
M  END
>  <PUBCHEM_COMPOUND_CID>  (1) 
31148

>  <PUBCHEM_CONFORMER_RMSD>  (1) 
1.2

>  <PUBCHEM_CONFORMER_DIVERSEORDER>  (1) 
1
54
73
66
108
122
84
136
164
116
71
161
80
175
61
118
52
129
124
33
95
112
172
174
142
123
162
78
51
141
81
165
107
149
159
137
148
152
92
167
93
76
171
145
65
146
46
100
126
156
79
132
134
104
131
143
99
83
31
91
56
177
44
173
140
155
158
82
135
166
114
150
32
169
27
24
111
53
77
168
29
130
94
113
68
72
154
180
98
121
60
105
139
48
181
69
55
35
125
106
102
96
11
138
163
97
43
58
49
110
64
160
2
89
176
22
12
59
109
57
10
178
133
157
128
151
115
38
42
86
87
14
7
3
67
37
36
147
170
63
127
101
16
47
17
120
62
19
9
144
18
70
40
103
39
179
119
88
25
85
45
23
153
117
5
21
41
50
6
4
34
20
26
90
13
75
74
15
8
28
30

>  <PUBCHEM_MMFF94_PARTIAL_CHARGES>  (1) 
27
1 -0.48
10 0.14
11 -0.14
14 -0.15
15 -0.15
16 0.08
17 -0.15
18 -0.15
19 0.36
2 -0.68
20 0.45
21 0.29
22 0.78
23 0.28
24 0.28
3 1.47
32 0.15
33 0.15
34 0.15
35 0.15
4 -0.23
40 0.37
5 -0.55
6 -0.55
7 -0.57
8 -0.57
9 -0.73

>  <PUBCHEM_EFFECTIVE_ROTOR_COUNT>  (1) 
11

>  <PUBCHEM_PHARMACOPHORE_FEATURES>  (1) 
5
1 7 acceptor
1 8 acceptor
1 9 donor
3 10 12 13 hydrophobe
6 11 14 15 16 17 18 rings

>  <PUBCHEM_HEAVY_ATOM_COUNT>  (1) 
24

>  <PUBCHEM_ATOM_DEF_STEREO_COUNT>  (1) 
0

>  <PUBCHEM_ATOM_UDEF_STEREO_COUNT>  (1) 
0

>  <PUBCHEM_BOND_DEF_STEREO_COUNT>  (1) 
0

>  <PUBCHEM_BOND_UDEF_STEREO_COUNT>  (1) 
0

>  <PUBCHEM_ISOTOPIC_ATOM_COUNT>  (1) 
0

>  <PUBCHEM_COMPONENT_COUNT>  (1) 
1

>  <PUBCHEM_CACTVS_TAUTO_COUNT>  (1) 
6

>  <PUBCHEM_CONFORMER_ID>  (1) 
000079AC00000001

>  <PUBCHEM_MMFF94_ENERGY>  (1) 
45.7027

>  <PUBCHEM_FEATURE_SELFOVERLAP>  (1) 
25.372

>  <PUBCHEM_SHAPE_FINGERPRINT>  (1) 
10670039 82 18338519767506723732
11595378 159 17676483964730283449
12422481 6 18191841545202312600
12596602 18 16661768962716371313
12633257 1 18042671819772541330
12925494 130 18269554949676154241
12978246 48 18412541024380889600
14251757 17 18270116803726352723
14251764 38 18339921498518562585
14790565 3 18119248609287725980
1601671 61 18337956662881822926
19930381 70 18196650928930911553
20621476 13 18195799674512155429
20739085 24 18113056026365266604
21279426 13 18342184349994854748
21475661 188 18190734241870747879
21864079 5 18410569582826167518
22749437 52 18411133602563970945
23227448 37 18342734118250896335
23559900 14 18122345679275066903
350125 39 18409739434994723895
508706 21 18115580440580284021
7808743 9 18196092377092624818

>  <PUBCHEM_SHAPE_MULTIPOLES>  (1) 
471.13
10.45
4.2
1.39
1.19
1.04
-0.04
3.72
-1.06
-0.65
0.08
-0.36
0.46
1.26

>  <PUBCHEM_SHAPE_SELFOVERLAP>  (1) 
903.824

>  <PUBCHEM_SHAPE_VOLUME>  (1) 
290.6

>  <PUBCHEM_COORDINATE_TYPE>  (1) 
2
5
10

$$$$
