31158
     RDKit          3D

 18 19  0  0  0  0  0  0  0  0999 V2000
   -5.9777   -1.9235    0.2401 Cl  0  0  0  0  0  0  0  0  0  0  0  0
    6.4105   -0.8858    0.1774 Cl  0  0  0  0  0  0  0  0  0  0  0  0
   -1.2469    1.6044   -0.2407 N   0  0  0  0  0  0  0  0  0  0  0  0
    0.5842    0.0834   -0.0092 N   0  0  0  0  0  0  0  0  0  0  0  0
   -2.3754    0.7628   -0.1260 C   0  0  0  0  0  0  0  0  0  0  0  0
    0.1023    1.2843   -0.1987 C   0  0  0  0  0  0  0  0  0  0  0  0
    1.9631   -0.1459    0.0349 C   0  0  0  0  0  0  0  0  0  0  0  0
   -3.5600    1.2582    0.4161 C   0  0  0  0  0  0  0  0  0  0  0  0
   -2.3019   -0.5612   -0.5553 C   0  0  0  0  0  0  0  0  0  0  0  0
    1.0279    2.4878   -0.3643 C   0  0  0  0  0  0  0  0  0  0  0  0
   -4.6745    0.4272    0.5291 C   0  0  0  0  0  0  0  0  0  0  0  0
   -3.4164   -1.3922   -0.4421 C   0  0  0  0  0  0  0  0  0  0  0  0
    2.6435   -0.0751    1.2506 C   0  0  0  0  0  0  0  0  0  0  0  0
    2.6582   -0.4455   -1.1367 C   0  0  0  0  0  0  0  0  0  0  0  0
   -4.6028   -0.8981    0.1002 C   0  0  0  0  0  0  0  0  0  0  0  0
    4.0187   -0.3037    1.2945 C   0  0  0  0  0  0  0  0  0  0  0  0
    4.0335   -0.6740   -1.0928 C   0  0  0  0  0  0  0  0  0  0  0  0
    4.7138   -0.6031    0.1228 C   0  0  0  0  0  0  0  0  0  0  0  0
  1 15  1  0
  2 18  1  0
  3  5  1  0
  3  6  1  0
  4  6  2  0
  4  7  1  0
  5  8  2  0
  5  9  1  0
  6 10  1  0
  7 13  2  0
  7 14  1  0
  8 11  1  0
  9 12  2  0
 11 15  2  0
 12 15  1  0
 13 16  1  0
 14 17  2  0
 16 18  2  0
 17 18  1  0
M  END
>  <PUBCHEM_COMPOUND_CID>  (1) 
31158

>  <PUBCHEM_CONFORMER_RMSD>  (1) 
0.6

>  <PUBCHEM_CONFORMER_DIVERSEORDER>  (1) 
1
7
2
3
6
4
5

>  <PUBCHEM_MMFF94_PARTIAL_CHARGES>  (1) 
27
1 -0.18
10 0.06
11 -0.15
12 -0.15
13 -0.15
14 -0.15
15 0.18
16 -0.15
17 -0.15
18 0.18
19 0.4
2 -0.18
20 0.15
21 0.15
25 0.15
26 0.15
27 0.15
28 0.15
29 0.15
3 -0.55
30 0.15
4 -0.63
5 0.1
6 0.44
7 0.18
8 -0.15
9 -0.15

>  <PUBCHEM_EFFECTIVE_ROTOR_COUNT>  (1) 
3

>  <PUBCHEM_PHARMACOPHORE_FEATURES>  (1) 
4
1 3 donor
3 3 4 6 cation
6 5 8 9 11 12 15 rings
6 7 13 14 16 17 18 rings

>  <PUBCHEM_HEAVY_ATOM_COUNT>  (1) 
18

>  <PUBCHEM_ATOM_DEF_STEREO_COUNT>  (1) 
0

>  <PUBCHEM_ATOM_UDEF_STEREO_COUNT>  (1) 
0

>  <PUBCHEM_BOND_DEF_STEREO_COUNT>  (1) 
0

>  <PUBCHEM_BOND_UDEF_STEREO_COUNT>  (1) 
0

>  <PUBCHEM_ISOTOPIC_ATOM_COUNT>  (1) 
0

>  <PUBCHEM_COMPONENT_COUNT>  (1) 
1

>  <PUBCHEM_CACTVS_TAUTO_COUNT>  (1) 
1

>  <PUBCHEM_CONFORMER_ID>  (1) 
000079B600000001

>  <PUBCHEM_MMFF94_ENERGY>  (1) 
59.5785

>  <PUBCHEM_FEATURE_SELFOVERLAP>  (1) 
20.297

>  <PUBCHEM_SHAPE_FINGERPRINT>  (1) 
11046707 91 18335419063027503493
11089746 13 11311762965592297386
11128504 68 17821737139178156188
11370993 144 16845019996067454625
11552529 35 15266197302412222679
12236239 1 17748828484490950430
12553582 1 18261103067573591211
13288520 33 18408040710920198471
13668630 136 17167583782337935178
13675066 3 17704072893552024485
13740256 8 18335422386936454297
13862211 1 18334012791570958154
14123256 34 18261962933238765283
14251752 14 17241034432502485645
14252887 29 17917716777341572662
14341114 176 17275103946612915360
14386348 63 18060421291935720878
14576447 43 17749105582806406738
15188451 53 17917703648112144375
15537594 2 18114466669413165539
17804303 29 18342740728284491065
17844677 252 18202286904906840904
1813 80 18259990365985536484
18222031 100 18408879650670840725
18785283 64 17630869686087551152
193927 3 18337964479843471531
19784866 240 18187648033375760799
200 152 16588024576529273404
20028762 73 18200312259776586359
20281475 54 18260264114294780649
20374829 77 18333731321384716629
21033648 29 16916491567740622129
21054139 6 17821728334411342682
21150785 3 17894924997443261086
21267235 1 18409172134165819163
212847 35 9583525304375481966
221357 26 13912316889318464415
22950370 63 18335985289935320760
2297311 6 18271814497035249828
23035841 295 18335984186371585258
23402539 116 18260827056122348276
23402655 69 11241961586372576953
23557571 272 18270681948925468228
23559900 14 18202276991948215792
26918003 58 17346877836364644122
3004659 81 17894910749828262959
312423 11 18264221351771016293
351380 3 18260265256766851899
4325135 7 18334859454954401164
465052 167 18336554923037657559
5104073 3 18270127932672620497
559249 180 18408038494996817487
5924683 9 16629950149224484831
59682541 52 13190880013911765162
602551 16 18341890805574888602
7970288 3 18334573542496375531
8863177 126 17679315315216487579

>  <PUBCHEM_SHAPE_MULTIPOLES>  (1) 
364.21
14.01
1.81
1.01
0.8
0.7
0.07
-8.13
1.84
-1.56
-0.16
0.89
-0.11
-0.1

>  <PUBCHEM_SHAPE_SELFOVERLAP>  (1) 
754.97

>  <PUBCHEM_SHAPE_VOLUME>  (1) 
209.4

>  <PUBCHEM_COORDINATE_TYPE>  (1) 
2
5
10

$$$$
