31153
     RDKit          3D

 17 18  0  0  0  0  0  0  0  0999 V2000
   -3.4954   -0.7987    0.0814 S   0  0  0  0  0  0  0  0  0  0  0  0
   -0.3451    3.1917   -0.0209 O   0  0  0  0  0  0  0  0  0  0  0  0
   -3.9098   -0.9936   -1.4880 O   0  0  0  0  0  0  0  0  0  0  0  0
   -3.3989   -2.1294    0.6634 O   0  0  0  0  0  0  0  0  0  0  0  0
   -4.3776    0.2022    0.6607 O   0  0  0  0  0  0  0  0  0  0  0  0
    4.0729   -1.5082   -0.0016 N   0  0  0  0  0  0  0  0  0  0  0  0
    0.5227   -0.3983    0.0246 C   0  0  0  0  0  0  0  0  0  0  0  0
    0.6857    1.0072    0.0016 C   0  0  0  0  0  0  0  0  0  0  0  0
   -1.8924   -0.1066    0.0496 C   0  0  0  0  0  0  0  0  0  0  0  0
   -0.7730   -0.9394    0.0482 C   0  0  0  0  0  0  0  0  0  0  0  0
   -0.4522    1.8304    0.0032 C   0  0  0  0  0  0  0  0  0  0  0  0
    1.6605   -1.2217    0.0226 C   0  0  0  0  0  0  0  0  0  0  0  0
    2.9405   -0.6671   -0.0009 C   0  0  0  0  0  0  0  0  0  0  0  0
   -1.7322    1.2756    0.0272 C   0  0  0  0  0  0  0  0  0  0  0  0
    1.9815    1.5482   -0.0221 C   0  0  0  0  0  0  0  0  0  0  0  0
    3.1006    0.7151   -0.0231 C   0  0  0  0  0  0  0  0  0  0  0  0
    5.4121   -1.0075   -0.0260 C   0  0  0  0  0  0  0  0  0  0  0  0
  1  3  1  0
  1  4  2  0
  1  5  2  0
  1  9  1  0
  2 11  1  0
  6 13  1  0
  6 17  1  0
  7  8  2  0
  7 10  1  0
  7 12  1  0
  8 11  1  0
  8 15  1  0
  9 10  2  0
  9 14  1  0
 11 14  2  0
 12 13  2  0
 13 16  1  0
 15 16  2  0
M  END
>  <PUBCHEM_COMPOUND_CID>  (1) 
31153

>  <PUBCHEM_CONFORMER_RMSD>  (1) 
0.6

>  <PUBCHEM_CONFORMER_DIVERSEORDER>  (1) 
1
2

>  <PUBCHEM_MMFF94_PARTIAL_CHARGES>  (1) 
23
1 1.49
10 -0.15
11 0.08
12 -0.15
13 0.1
14 -0.15
15 -0.15
16 -0.15
17 0.37
18 0.15
19 0.15
2 -0.53
20 0.15
21 0.15
22 0.15
23 0.4
24 0.45
28 0.5
3 -0.68
4 -0.65
5 -0.65
6 -0.87
9 -0.01

>  <PUBCHEM_EFFECTIVE_ROTOR_COUNT>  (1) 
2

>  <PUBCHEM_PHARMACOPHORE_FEATURES>  (1) 
9
1 2 donor
1 3 acceptor
1 4 acceptor
1 5 acceptor
1 6 cation
1 6 donor
4 1 3 4 5 anion
6 7 8 12 13 15 16 rings
6 7 8 9 10 11 14 rings

>  <PUBCHEM_HEAVY_ATOM_COUNT>  (1) 
17

>  <PUBCHEM_ATOM_DEF_STEREO_COUNT>  (1) 
0

>  <PUBCHEM_ATOM_UDEF_STEREO_COUNT>  (1) 
0

>  <PUBCHEM_BOND_DEF_STEREO_COUNT>  (1) 
0

>  <PUBCHEM_BOND_UDEF_STEREO_COUNT>  (1) 
0

>  <PUBCHEM_ISOTOPIC_ATOM_COUNT>  (1) 
0

>  <PUBCHEM_COMPONENT_COUNT>  (1) 
1

>  <PUBCHEM_CACTVS_TAUTO_COUNT>  (1) 
16

>  <PUBCHEM_CONFORMER_ID>  (1) 
000079B100000001

>  <PUBCHEM_MMFF94_ENERGY>  (1) 
50.852

>  <PUBCHEM_FEATURE_SELFOVERLAP>  (1) 
45.752

>  <PUBCHEM_SHAPE_FINGERPRINT>  (1) 
10618630 7 18409169917561663780
10967382 1 18266461103731697472
11471102 20 18409444825411955733
11543360 7 15575005008417895898
11806522 49 18407760327002363534
12032990 46 18409169938872950523
12553582 1 18336259068178046227
13140716 1 18412832364987357785
13288520 33 18339646646708197190
13583140 156 14476955653892385279
13760787 5 18335986440817777197
13862211 1 18410568475220678442
14115302 16 17749121005875970846
14576447 43 17984412207731865143
15196674 1 18410576218539739369
15442244 35 18340492256859346857
15536298 74 18343020025538631496
15848700 24 18411972589806796660
16945 1 18194120711809187384
17804303 29 18341615876275737720
18186145 218 17676481778671135579
19141452 34 18060421300710460239
200 152 18201994434929636799
20281475 54 18336833103578792501
20510252 161 18271243794919060632
20645477 70 18410006680281001199
20871998 184 18129659686609822292
21029758 11 18411695499960228480
21029758 27 18335990825873936732
21267235 1 18410303505407433147
21501502 16 18411146801072487000
21501925 9 18410848867923061810
221490 88 18117847817639140315
2297311 6 18271538494390147926
2334 1 18410856581310103689
23402539 116 18342451521760012382
23463225 33 18410859883949913885
23526113 38 17896323708295993041
23557571 272 18200882751517466372
23559900 14 18335136531657630192
2748010 2 18411125948589514165
2871803 45 18333726901578662246
3091708 16 8993376765909322096
3286 77 17274813688185387250
335352 9 18410013204710564997
5104073 3 18411985788146313570
68521 5 18337393738444906876
7364860 26 18124597741065601713
8809292 202 18259991491282895979

>  <PUBCHEM_SHAPE_MULTIPOLES>  (1) 
325.24
8.33
2.28
0.74
2.86
1.33
-0.12
-4.97
-0.11
-0.28
0.06
-0.53
-0.14
-0.06

>  <PUBCHEM_SHAPE_SELFOVERLAP>  (1) 
693.08

>  <PUBCHEM_SHAPE_VOLUME>  (1) 
182.4

>  <PUBCHEM_COORDINATE_TYPE>  (1) 
2
5
10

$$$$
