31176
     RDKit          3D

 14 15  0  0  0  0  0  0  0  0999 V2000
    3.6971   -1.1898   -0.0023 O   0  0  0  0  0  0  0  0  0  0  0  0
    2.3639    0.7549    0.0004 N   0  0  0  0  0  0  0  0  0  0  0  0
   -2.8258   -1.2481    0.0002 N   0  0  0  0  0  0  0  0  0  0  0  0
   -1.3372    0.6470   -0.0004 C   0  0  0  0  0  0  0  0  0  0  0  0
    1.0592    0.2620    0.0005 C   0  0  0  0  0  0  0  0  0  0  0  0
   -1.5777   -0.7429    0.0001 C   0  0  0  0  0  0  0  0  0  0  0  0
   -0.0212    1.1396    0.0000 C   0  0  0  0  0  0  0  0  0  0  0  0
    0.8298   -1.1083    0.0007 C   0  0  0  0  0  0  0  0  0  0  0  0
   -0.4787   -1.5976    0.0008 C   0  0  0  0  0  0  0  0  0  0  0  0
   -2.4431    1.5079   -0.0004 C   0  0  0  0  0  0  0  0  0  0  0  0
   -3.7303    0.9903   -0.0004 C   0  0  0  0  0  0  0  0  0  0  0  0
   -3.8659   -0.3831   -0.0002 C   0  0  0  0  0  0  0  0  0  0  0  0
    3.5632    0.0296    0.0006 C   0  0  0  0  0  0  0  0  0  0  0  0
    4.7667    0.9385    0.0004 C   0  0  0  0  0  0  0  0  0  0  0  0
  1 13  2  0
  2  5  1  0
  2 13  1  0
  3  6  2  0
  3 12  1  0
  4  6  1  0
  4  7  1  0
  4 10  2  0
  5  7  2  0
  5  8  1  0
  6  9  1  0
  8  9  2  0
 10 11  1  0
 11 12  2  0
 13 14  1  0
M  END
>  <PUBCHEM_COMPOUND_CID>  (1) 
31176

>  <PUBCHEM_CONFORMER_RMSD>  (1) 
0.6

>  <PUBCHEM_CONFORMER_DIVERSEORDER>  (1) 
1
2
3
4

>  <PUBCHEM_MMFF94_PARTIAL_CHARGES>  (1) 
20
1 -0.57
10 -0.15
11 -0.15
12 0.16
13 0.57
14 0.06
15 0.15
16 0.15
17 0.15
18 0.15
19 0.37
2 -0.55
20 0.15
21 0.15
3 -0.62
5 0.12
6 0.31
7 -0.15
8 -0.15
9 -0.15

>  <PUBCHEM_EFFECTIVE_ROTOR_COUNT>  (1) 
2

>  <PUBCHEM_PHARMACOPHORE_FEATURES>  (1) 
5
1 1 acceptor
1 2 donor
1 3 acceptor
6 3 4 6 10 11 12 rings
6 4 5 6 7 8 9 rings

>  <PUBCHEM_HEAVY_ATOM_COUNT>  (1) 
14

>  <PUBCHEM_ATOM_DEF_STEREO_COUNT>  (1) 
0

>  <PUBCHEM_ATOM_UDEF_STEREO_COUNT>  (1) 
0

>  <PUBCHEM_BOND_DEF_STEREO_COUNT>  (1) 
0

>  <PUBCHEM_BOND_UDEF_STEREO_COUNT>  (1) 
0

>  <PUBCHEM_ISOTOPIC_ATOM_COUNT>  (1) 
0

>  <PUBCHEM_COMPONENT_COUNT>  (1) 
1

>  <PUBCHEM_CACTVS_TAUTO_COUNT>  (1) 
2

>  <PUBCHEM_CONFORMER_ID>  (1) 
000079C800000001

>  <PUBCHEM_MMFF94_ENERGY>  (1) 
42.8401

>  <PUBCHEM_FEATURE_SELFOVERLAP>  (1) 
25.403

>  <PUBCHEM_SHAPE_FINGERPRINT>  (1) 
10608611 8 18412259528050765304
11132069 177 18409726257428567248
11401426 45 18411695500102484405
12032990 46 18410860962039459155
12346645 44 18409166584545631955
13214271 11 18411980278072569679
13380535 76 18410856534144701687
14144814 61 18408885127007188376
14325111 11 18410856547034572960
14943859 89 18412262830869735179
15196674 1 18410855438679783526
15219456 202 18201727206085231566
15536298 74 18341613672910204486
15775835 57 18408042887941194392
16945 1 18410575106712895847
18186145 218 18342746169802274900
200 152 18060410331653837781
20510252 161 18343866597567504304
20645477 56 18411135870422767328
20645477 70 18059860515636957686
21267235 1 18409739464447909562
23402539 116 18343575257166744845
23402655 69 18269822126869902877
23463225 33 18335138665876451158
23559900 14 18343864403709263844
2748010 2 18266746787997904527
366044 4 18410573993862945451
43471831 8 18261388906010916658
474 4 17024599013191948724
5104073 3 18410293583985208698
53812653 166 18342735208671156817
54173680 148 18120376711911320147
69090 78 18201715171618503598
7364860 26 18125159338078106902
77779 3 18410576184607294828
9709674 26 18411987979044396534

>  <PUBCHEM_SHAPE_MULTIPOLES>  (1) 
272.28
7.9
1.58
0.6
5.54
0.16
0
-1.36
0
-0.39
0
-0.02
-0.01
0

>  <PUBCHEM_SHAPE_SELFOVERLAP>  (1) 
589.84

>  <PUBCHEM_SHAPE_VOLUME>  (1) 
148.3

>  <PUBCHEM_COORDINATE_TYPE>  (1) 
2
5
10

$$$$
