31184
     RDKit          3D

 11 11  0  0  0  0  0  0  0  0999 V2000
    1.6222    0.1865   -0.0630 O   0  0  0  0  0  0  0  0  0  0  0  0
    0.3701   -1.7367    0.1749 O   0  0  0  0  0  0  0  0  0  0  0  0
   -3.1414    0.6129   -0.3671 N   0  0  0  0  0  0  0  0  0  0  0  0
   -4.4213   -0.0786   -0.3105 C   0  0  0  0  0  0  0  0  0  0  0  0
   -3.9219    0.7209    0.8573 C   0  0  0  0  0  0  0  0  0  0  0  0
   -2.0410   -0.3269   -0.1929 C   0  0  0  0  0  0  0  0  0  0  0  0
   -0.7053    0.4104   -0.2137 C   0  0  0  0  0  0  0  0  0  0  0  0
    0.4604   -0.5306   -0.0085 C   0  0  0  0  0  0  0  0  0  0  0  0
    2.8232   -0.5717    0.1143 C   0  0  0  0  0  0  0  0  0  0  0  0
    3.9958    0.3001    0.0363 C   0  0  0  0  0  0  0  0  0  0  0  0
    4.9591    1.0136   -0.0271 C   0  0  0  0  0  0  0  0  0  0  0  0
  1  8  1  0
  1  9  1  0
  2  8  2  0
  3  4  1  0
  3  5  1  0
  3  6  1  0
  4  5  1  0
  6  7  1  0
  7  8  1  0
  9 10  1  0
 10 11  3  0
M  END
>  <PUBCHEM_COMPOUND_CID>  (1) 
31184

>  <PUBCHEM_CONFORMER_RMSD>  (1) 
0.6

>  <PUBCHEM_CONFORMER_DIVERSEORDER>  (1) 
1
123
21
84
110
68
42
119
125
89
11
3
101
37
33
23
71
100
43
97
32
122
82
9
106
53
70
58
30
63
13
44
118
25
51
114
88
15
26
87
50
24
27
20
117
19
107
90
6
112
124
45
5
65
55
35
7
18
28
36
12
60
109
4
62
59
61
54
34
121
52
99
108
94
47
86
91
78
31
41
8
116
105
16
85
67
77
40
113
115
74
29
46
2
120
73
111
10
76
93
64
66
96
22
69
81
17
48
56
80
57
38
14
104
92
72
39
49
103
95
98
102
79
83
75

>  <PUBCHEM_MMFF94_PARTIAL_CHARGES>  (1) 
16
1 -0.43
10 -0.2
11 -0.18
12 0.1
13 0.1
14 0.1
15 0.1
2 -0.57
22 0.18
3 -0.59
4 -0.04
5 -0.04
6 0.27
7 0.06
8 0.66
9 0.48

>  <PUBCHEM_EFFECTIVE_ROTOR_COUNT>  (1) 
5.6

>  <PUBCHEM_PHARMACOPHORE_FEATURES>  (1) 
3
1 11 hydrophobe
1 2 acceptor
1 3 cation

>  <PUBCHEM_HEAVY_ATOM_COUNT>  (1) 
11

>  <PUBCHEM_ATOM_DEF_STEREO_COUNT>  (1) 
0

>  <PUBCHEM_ATOM_UDEF_STEREO_COUNT>  (1) 
0

>  <PUBCHEM_BOND_DEF_STEREO_COUNT>  (1) 
0

>  <PUBCHEM_BOND_UDEF_STEREO_COUNT>  (1) 
0

>  <PUBCHEM_ISOTOPIC_ATOM_COUNT>  (1) 
0

>  <PUBCHEM_COMPONENT_COUNT>  (1) 
1

>  <PUBCHEM_CACTVS_TAUTO_COUNT>  (1) 
1

>  <PUBCHEM_CONFORMER_ID>  (1) 
000079D000000001

>  <PUBCHEM_MMFF94_ENERGY>  (1) 
13.3766

>  <PUBCHEM_FEATURE_SELFOVERLAP>  (1) 
15.223

>  <PUBCHEM_SHAPE_FINGERPRINT>  (1) 
10465860 250 14779266414635556101
11062470 55 18410855455838482252
114248 4 15985103033078602888
12346645 44 18341333297133612507
14123238 8 18409729577427653157
14252887 29 13045934682389558080
15501527 16 18336266842585634448
17834072 33 17988917911929860845
17834076 25 18272089409565617724
20279233 1 16877949304726638739
204376 136 18333734627987606938
20645477 70 17632304424007228510
20828058 44 13984663658977050465
21119208 17 15339119048159719520
22485316 2 8502652593286801760
23402539 116 18202557393589017964
23402655 69 17989204815523830229
366044 4 18410291428238978114
42 15 12396295959084035156
42788 4 18413670209905954316
449060 50 18335423464925759919
449060 62 18412545401495720338

>  <PUBCHEM_SHAPE_MULTIPOLES>  (1) 
209.66
10.19
1.08
0.69
2.71
0.25
-0.05
-3.48
-0.24
0.33
-0.08
-0.34
-0.06
-0.26

>  <PUBCHEM_SHAPE_SELFOVERLAP>  (1) 
401.055

>  <PUBCHEM_SHAPE_VOLUME>  (1) 
129.2

>  <PUBCHEM_COORDINATE_TYPE>  (1) 
2
5
10

$$$$
