31186
     RDKit          3D

 22 25  0  0  0  0  0  0  0  0999 V2000
    4.8513    2.2306    0.0001 O   0  0  0  0  0  0  0  0  0  0  0  0
    5.0976    0.0492    0.0008 O   0  0  0  0  0  0  0  0  0  0  0  0
   -5.9054    0.2119    0.0008 O   0  0  0  0  0  0  0  0  0  0  0  0
   -4.8665    2.1457    0.0005 O   0  0  0  0  0  0  0  0  0  0  0  0
    4.3731    1.0720    0.0001 N   0  0  0  0  0  0  0  0  0  0  0  0
   -4.8512    0.8915    0.0002 N   0  0  0  0  0  0  0  0  0  0  0  0
    0.9778   -0.3948    0.0001 C   0  0  0  0  0  0  0  0  0  0  0  0
    0.1626    0.7286   -0.0001 C   0  0  0  0  0  0  0  0  0  0  0  0
    0.2078   -1.5497    0.0000 C   0  0  0  0  0  0  0  0  0  0  0  0
   -1.2211    0.2742   -0.0001 C   0  0  0  0  0  0  0  0  0  0  0  0
   -1.1929   -1.1503   -0.0002 C   0  0  0  0  0  0  0  0  0  0  0  0
    2.3707   -0.3672    0.0000 C   0  0  0  0  0  0  0  0  0  0  0  0
    0.7446    1.9825   -0.0004 C   0  0  0  0  0  0  0  0  0  0  0  0
    0.8388   -2.7797    0.0001 C   0  0  0  0  0  0  0  0  0  0  0  0
    2.9593    0.9125   -0.0002 C   0  0  0  0  0  0  0  0  0  0  0  0
   -2.4175    0.9656   -0.0003 C   0  0  0  0  0  0  0  0  0  0  0  0
   -2.3610   -1.8884   -0.0002 C   0  0  0  0  0  0  0  0  0  0  0  0
    3.0094   -1.6226    0.0000 C   0  0  0  0  0  0  0  0  0  0  0  0
    2.1484    2.0682   -0.0004 C   0  0  0  0  0  0  0  0  0  0  0  0
    2.2450   -2.8096    0.0001 C   0  0  0  0  0  0  0  0  0  0  0  0
   -3.5994    0.2190   -0.0004 C   0  0  0  0  0  0  0  0  0  0  0  0
   -3.5715   -1.1892   -0.0003 C   0  0  0  0  0  0  0  0  0  0  0  0
  1  5  1  0
  2  5  2  0
  3  6  1  0
  4  6  2  0
  5 15  1  0
  6 21  1  0
  7  8  1  0
  7  9  2  0
  7 12  1  0
  8 10  1  0
  8 13  2  0
  9 11  1  0
  9 14  1  0
 10 11  2  0
 10 16  1  0
 11 17  1  0
 12 15  1  0
 12 18  2  0
 13 19  1  0
 14 20  2  0
 15 19  2  0
 16 21  2  0
 17 22  2  0
 18 20  1  0
 21 22  1  0
M  CHG  4   1  -1   3  -1   5   1   6   1
M  END
>  <PUBCHEM_COMPOUND_CID>  (1) 
31186

>  <PUBCHEM_CONFORMER_RMSD>  (1) 
0.6

>  <PUBCHEM_CONFORMER_DIVERSEORDER>  (1) 
1

>  <PUBCHEM_MMFF94_PARTIAL_CHARGES>  (1) 
24
1 -0.52
13 -0.15
14 -0.15
15 0.13
16 -0.15
17 -0.15
18 -0.15
19 -0.15
2 -0.52
20 -0.15
21 0.13
22 -0.15
23 0.15
24 0.15
25 0.15
26 0.15
27 0.15
28 0.15
29 0.15
3 -0.52
30 0.15
4 -0.52
5 0.91
6 0.91

>  <PUBCHEM_EFFECTIVE_ROTOR_COUNT>  (1) 
2

>  <PUBCHEM_PHARMACOPHORE_FEATURES>  (1) 
10
1 1 acceptor
1 1 anion
1 2 acceptor
1 3 acceptor
1 3 anion
1 4 acceptor
5 7 8 9 10 11 rings
6 10 11 16 17 21 22 rings
6 7 8 12 13 15 19 rings
6 7 9 12 14 18 20 rings

>  <PUBCHEM_HEAVY_ATOM_COUNT>  (1) 
22

>  <PUBCHEM_ATOM_DEF_STEREO_COUNT>  (1) 
0

>  <PUBCHEM_ATOM_UDEF_STEREO_COUNT>  (1) 
0

>  <PUBCHEM_BOND_DEF_STEREO_COUNT>  (1) 
0

>  <PUBCHEM_BOND_UDEF_STEREO_COUNT>  (1) 
0

>  <PUBCHEM_ISOTOPIC_ATOM_COUNT>  (1) 
0

>  <PUBCHEM_COMPONENT_COUNT>  (1) 
1

>  <PUBCHEM_CACTVS_TAUTO_COUNT>  (1) 
1

>  <PUBCHEM_CONFORMER_ID>  (1) 
000079D200000001

>  <PUBCHEM_MMFF94_ENERGY>  (1) 
101.8872

>  <PUBCHEM_FEATURE_SELFOVERLAP>  (1) 
51.215

>  <PUBCHEM_SHAPE_FINGERPRINT>  (1) 
10411042 1 17545883728781496643
10493431 412 18339077211169594456
10616163 171 18339080509667827415
10693767 8 18059576820041219430
10967382 1 18410575059072824582
11471102 20 18410854330725972759
11578080 2 16952235526612726542
12107183 9 17693381036457060857
12236239 1 17846780698217689453
12403259 415 18057043721106585576
12644460 14 18261674779281597258
12788726 201 17417536800463129505
13140716 1 18337946904283226720
138480 1 18050567344274300002
14466204 15 18411974789041685776
14790565 3 18264776639191909172
15196674 1 18410856585515348230
15442244 35 18196373619850801811
15475509 35 16516530980137336739
15536298 74 18342459214178353622
1601671 61 18408603664915717332
16945 1 18050568448122800770
19591789 44 18194683898112494962
19784866 9 18410572881598057482
200 152 18060418058020382711
20645477 70 18271807869827054215
21267235 1 18339932497676716918
21421861 104 17896591796102358722
21452121 103 18411694357899763682
221490 88 18408893918769002131
2334 1 18410855477719857898
23402539 116 18272083950572462012
23559900 14 18341328877913529826
25 1 18408600378980749862
2748010 2 18410296908670014910
335352 9 18410575089781044382
33824 294 18408886213496985042
34934 24 18413385444979078711
350125 39 18337389340946768480
3545911 37 18411139147440414761
3680242 22 18262515871475467138
4072396 5 18337378384305874698
42630746 31 18413107242973136974
474 4 18334577962080175409
5104073 3 18335143051386305323
543358 83 18340489954450882051
59755656 215 18338804425180768870
6138700 20 18410578349835632878
7364860 26 18340487772718577262
8272917 22 18412829049151032438
9709674 26 18410016541911235835

>  <PUBCHEM_SHAPE_MULTIPOLES>  (1) 
419.31
9.67
2.85
0.59
5.83
0.8
0
-4.63
0
-1.54
0
-0.01
0.03
0

>  <PUBCHEM_SHAPE_SELFOVERLAP>  (1) 
970.616

>  <PUBCHEM_SHAPE_VOLUME>  (1) 
217.7

>  <PUBCHEM_COORDINATE_TYPE>  (1) 
2
5
10

$$$$
