31198
     RDKit          3D

 11 11  0  0  0  0  0  0  0  0999 V2000
    1.4855   -0.0098    0.6007 S   0  0  0  0  0  0  0  0  0  0  0  0
    5.4723    0.0093   -0.1227 N   0  0  0  0  0  0  0  0  0  0  0  0
    0.3414   -0.0131   -0.8131 C   0  0  0  0  0  0  0  0  0  0  0  0
   -1.0890   -0.0051   -0.3908 C   0  0  0  0  0  0  0  0  0  0  0  0
    3.0387   -0.0211   -0.3226 C   0  0  0  0  0  0  0  0  0  0  0  0
    4.2238    0.0185    0.6341 C   0  0  0  0  0  0  0  0  0  0  0  0
   -1.7530    1.2068   -0.2000 C   0  0  0  0  0  0  0  0  0  0  0  0
   -1.7630   -1.2092   -0.1869 C   0  0  0  0  0  0  0  0  0  0  0  0
   -3.0909    1.2145    0.1948 C   0  0  0  0  0  0  0  0  0  0  0  0
   -3.1009   -1.2014    0.2078 C   0  0  0  0  0  0  0  0  0  0  0  0
   -3.7648    0.0105    0.3986 C   0  0  0  0  0  0  0  0  0  0  0  0
  1  3  1  0
  1  5  1  0
  2  6  1  0
  3  4  1  0
  4  7  2  0
  4  8  1  0
  5  6  1  0
  7  9  1  0
  8 10  2  0
  9 11  2  0
 10 11  1  0
M  END
>  <PUBCHEM_COMPOUND_CID>  (1) 
31198

>  <PUBCHEM_CONFORMER_RMSD>  (1) 
0.6

>  <PUBCHEM_CONFORMER_DIVERSEORDER>  (1) 
1
14
5
15
6
7
9
2
4
12
13
3
10
8
11

>  <PUBCHEM_MMFF94_PARTIAL_CHARGES>  (1) 
18
1 -0.46
10 -0.15
11 -0.15
18 0.15
19 0.15
2 -0.99
20 0.15
21 0.15
22 0.15
23 0.36
24 0.36
3 0.37
4 -0.14
5 0.23
6 0.27
7 -0.15
8 -0.15
9 -0.15

>  <PUBCHEM_EFFECTIVE_ROTOR_COUNT>  (1) 
4

>  <PUBCHEM_PHARMACOPHORE_FEATURES>  (1) 
3
1 2 cation
1 2 donor
6 4 7 8 9 10 11 rings

>  <PUBCHEM_HEAVY_ATOM_COUNT>  (1) 
11

>  <PUBCHEM_ATOM_DEF_STEREO_COUNT>  (1) 
0

>  <PUBCHEM_ATOM_UDEF_STEREO_COUNT>  (1) 
0

>  <PUBCHEM_BOND_DEF_STEREO_COUNT>  (1) 
0

>  <PUBCHEM_BOND_UDEF_STEREO_COUNT>  (1) 
0

>  <PUBCHEM_ISOTOPIC_ATOM_COUNT>  (1) 
0

>  <PUBCHEM_COMPONENT_COUNT>  (1) 
1

>  <PUBCHEM_CACTVS_TAUTO_COUNT>  (1) 
1

>  <PUBCHEM_CONFORMER_ID>  (1) 
000079DE00000001

>  <PUBCHEM_MMFF94_ENERGY>  (1) 
17.6812

>  <PUBCHEM_FEATURE_SELFOVERLAP>  (1) 
15.223

>  <PUBCHEM_SHAPE_FINGERPRINT>  (1) 
12251169 10 18408887342951960685
124424 183 17775282763766156648
13024252 1 14851604371812703957
13214271 11 18131349709149190717
13897977 58 18408609179669556244
14123238 8 18410011048679017692
15219456 202 17988651739658031271
190213 19 18040152911742682910
200 152 15285355137100686819
20279233 1 17632864122321869942
20645464 45 17918279753191307303
20645477 56 18340488872377911041
20645477 70 13696133082577221120
20711985 327 17095246925389138126
20828058 21 18413671314297930094
20828058 44 18408885135702715378
22485316 2 17676200256518252522
2297311 6 18342751710383939940
23402539 116 18272362088702351789
42 15 18408603639446411962
77779 3 18410856564530810376

>  <PUBCHEM_SHAPE_MULTIPOLES>  (1) 
225.24
9.13
1.15
0.81
12.12
0
0
0.05
1.22
-1.27
0.01
0.14
0
0.01

>  <PUBCHEM_SHAPE_SELFOVERLAP>  (1) 
434.275

>  <PUBCHEM_SHAPE_VOLUME>  (1) 
138

>  <PUBCHEM_COORDINATE_TYPE>  (1) 
2
5
10

$$$$
