31191
     RDKit          3D

  9  8  0  0  0  0  0  0  0  0999 V2000
    0.2407   -1.4692    0.0031 O   0  0  0  0  0  0  0  0  0  0  0  0
   -2.5479   -1.0699    0.0059 O   0  0  0  0  0  0  0  0  0  0  0  0
   -0.8862    0.5734   -0.0071 N   0  0  0  0  0  0  0  0  0  0  0  0
    1.5227    0.5841   -0.0114 C   0  0  0  0  0  0  0  0  0  0  0  0
    2.7783   -0.2830   -0.0086 C   0  0  0  0  0  0  0  0  0  0  0  0
    0.2478   -0.2413   -0.0043 C   0  0  0  0  0  0  0  0  0  0  0  0
    4.0406    0.5634    0.0171 C   0  0  0  0  0  0  0  0  0  0  0  0
   -2.1994    0.1075   -0.0019 C   0  0  0  0  0  0  0  0  0  0  0  0
   -3.1966    1.2350    0.0071 C   0  0  0  0  0  0  0  0  0  0  0  0
  1  6  2  0
  2  8  2  0
  3  6  1  0
  3  8  1  0
  4  5  1  0
  4  6  1  0
  5  7  1  0
  8  9  1  0
M  END
>  <PUBCHEM_COMPOUND_CID>  (1) 
31191

>  <PUBCHEM_CONFORMER_RMSD>  (1) 
0.6

>  <PUBCHEM_CONFORMER_DIVERSEORDER>  (1) 
1
15
13
6
16
10
4
11
9
5
14
7
8
12
3
2

>  <PUBCHEM_MMFF94_PARTIAL_CHARGES>  (1) 
8
1 -0.57
17 0.37
2 -0.57
3 -0.49
4 0.06
6 0.57
8 0.57
9 0.06

>  <PUBCHEM_EFFECTIVE_ROTOR_COUNT>  (1) 
4

>  <PUBCHEM_PHARMACOPHORE_FEATURES>  (1) 
4
1 1 acceptor
1 2 acceptor
1 3 donor
1 7 hydrophobe

>  <PUBCHEM_HEAVY_ATOM_COUNT>  (1) 
9

>  <PUBCHEM_ATOM_DEF_STEREO_COUNT>  (1) 
0

>  <PUBCHEM_ATOM_UDEF_STEREO_COUNT>  (1) 
0

>  <PUBCHEM_BOND_DEF_STEREO_COUNT>  (1) 
0

>  <PUBCHEM_BOND_UDEF_STEREO_COUNT>  (1) 
0

>  <PUBCHEM_ISOTOPIC_ATOM_COUNT>  (1) 
0

>  <PUBCHEM_COMPONENT_COUNT>  (1) 
1

>  <PUBCHEM_CACTVS_TAUTO_COUNT>  (1) 
3

>  <PUBCHEM_CONFORMER_ID>  (1) 
000079D700000001

>  <PUBCHEM_MMFF94_ENERGY>  (1) 
8.959

>  <PUBCHEM_FEATURE_SELFOVERLAP>  (1) 
20.301

>  <PUBCHEM_SHAPE_FINGERPRINT>  (1) 
11062470 55 18409167692657919072
14325111 11 18410856559924632678
14390081 3 18342736286924316697
23235685 24 18410006619982322480
23402655 69 18198891532081744189
3248919 1 17060343993764322942
5460574 1 9295291638226067172

>  <PUBCHEM_SHAPE_MULTIPOLES>  (1) 
168.5
6.29
1.18
0.59
2.52
0.18
0
-1.74
-0.03
-0.55
0
0.04
-0.02
0

>  <PUBCHEM_SHAPE_SELFOVERLAP>  (1) 
311.125

>  <PUBCHEM_SHAPE_VOLUME>  (1) 
106.3

>  <PUBCHEM_COORDINATE_TYPE>  (1) 
2
5
10

$$$$
