31206
     RDKit          3D

 13 13  0  0  0  0  0  0  0  0999 V2000
   -3.5703    0.8669   -0.0041 O   0  0  0  0  0  0  0  0  0  0  0  0
    4.0192    0.0441   -0.0032 O   0  0  0  0  0  0  0  0  0  0  0  0
    2.9850   -1.8923   -0.0002 O   0  0  0  0  0  0  0  0  0  0  0  0
   -1.8868   -0.7836    0.0014 N   0  0  0  0  0  0  0  0  0  0  0  0
    2.9656   -0.6376   -0.0010 N   0  0  0  0  0  0  0  0  0  0  0  0
   -0.7015   -0.0474    0.0021 C   0  0  0  0  0  0  0  0  0  0  0  0
    0.5286   -0.7051    0.0019 C   0  0  0  0  0  0  0  0  0  0  0  0
    1.7132    0.0313    0.0010 C   0  0  0  0  0  0  0  0  0  0  0  0
   -0.7470    1.3467    0.0015 C   0  0  0  0  0  0  0  0  0  0  0  0
    1.6677    1.4254    0.0006 C   0  0  0  0  0  0  0  0  0  0  0  0
    0.4376    2.0831    0.0007 C   0  0  0  0  0  0  0  0  0  0  0  0
   -3.2032   -0.3036   -0.0001 C   0  0  0  0  0  0  0  0  0  0  0  0
   -4.2082   -1.4280   -0.0006 C   0  0  0  0  0  0  0  0  0  0  0  0
  1 12  2  0
  2  5  1  0
  3  5  2  0
  4  6  1  0
  4 12  1  0
  5  8  1  0
  6  7  2  0
  6  9  1  0
  7  8  1  0
  8 10  2  0
  9 11  2  0
 10 11  1  0
 12 13  1  0
M  CHG  2   2  -1   5   1
M  END
>  <PUBCHEM_COMPOUND_CID>  (1) 
31206

>  <PUBCHEM_CONFORMER_RMSD>  (1) 
0.6

>  <PUBCHEM_CONFORMER_DIVERSEORDER>  (1) 
1
2
3
4

>  <PUBCHEM_MMFF94_PARTIAL_CHARGES>  (1) 
18
1 -0.57
10 -0.15
11 -0.15
12 0.57
13 0.06
14 0.15
15 0.15
16 0.37
17 0.15
18 0.15
2 -0.52
3 -0.52
4 -0.55
5 0.91
6 0.12
7 -0.15
8 0.13
9 -0.15

>  <PUBCHEM_EFFECTIVE_ROTOR_COUNT>  (1) 
3

>  <PUBCHEM_PHARMACOPHORE_FEATURES>  (1) 
6
1 1 acceptor
1 2 acceptor
1 2 anion
1 3 acceptor
1 4 donor
6 6 7 8 9 10 11 rings

>  <PUBCHEM_HEAVY_ATOM_COUNT>  (1) 
13

>  <PUBCHEM_ATOM_DEF_STEREO_COUNT>  (1) 
0

>  <PUBCHEM_ATOM_UDEF_STEREO_COUNT>  (1) 
0

>  <PUBCHEM_BOND_DEF_STEREO_COUNT>  (1) 
0

>  <PUBCHEM_BOND_UDEF_STEREO_COUNT>  (1) 
0

>  <PUBCHEM_ISOTOPIC_ATOM_COUNT>  (1) 
0

>  <PUBCHEM_COMPONENT_COUNT>  (1) 
1

>  <PUBCHEM_CACTVS_TAUTO_COUNT>  (1) 
2

>  <PUBCHEM_CONFORMER_ID>  (1) 
000079E600000001

>  <PUBCHEM_MMFF94_ENERGY>  (1) 
39.5272

>  <PUBCHEM_FEATURE_SELFOVERLAP>  (1) 
30.527

>  <PUBCHEM_SHAPE_FINGERPRINT>  (1) 
10130415 120 18335420166390915657
10219947 1 18273497870527309782
11471102 20 18337387248538209173
11543360 7 15719685341212384623
11769659 78 18410852144518988803
11806522 49 18337952388893127362
12032990 46 18411141324614358927
12932764 1 17560238171225287413
14144814 61 18412545414069418491
14251717 144 18410290354191173039
14252887 29 18059584589483588942
14325111 11 18410575132377360481
15442244 35 18412267220590354649
15477762 27 18410856602589683471
16945 1 18266460003972273248
18186145 218 17386001784628096767
20201158 50 18334859428356376602
20281407 28 18411421687278793128
20281475 54 18409733932529681534
20645477 70 18337666525082748391
20871998 184 18058725780607561276
20871998 22 18271815579272076014
21501925 9 18340198682664260313
221490 88 18118971536093038611
22485316 2 18410289198823669963
23402539 116 18337101294337941614
23463225 33 18411702071201954799
23559900 14 18194956345532030226
2748010 2 18339066112821322340
7364860 26 18197214960815619344
8809292 202 18187369886803844283

>  <PUBCHEM_SHAPE_MULTIPOLES>  (1) 
239.96
6.72
1.83
0.58
2.92
0.34
0
-2.98
0.01
-0.46
0
0.04
0.02
0

>  <PUBCHEM_SHAPE_SELFOVERLAP>  (1) 
498.527

>  <PUBCHEM_SHAPE_VOLUME>  (1) 
136.6

>  <PUBCHEM_COORDINATE_TYPE>  (1) 
2
5
10

$$$$
