31212
     RDKit          3D

 14 14  0  0  0  0  0  0  0  0999 V2000
   -3.3272   -2.0148    0.0098 O   0  0  0  0  0  0  0  0  0  0  0  0
    3.1332    1.1194    0.0024 O   0  0  0  0  0  0  0  0  0  0  0  0
    1.5573   -0.6258   -0.0019 N   0  0  0  0  0  0  0  0  0  0  0  0
    3.8196   -1.0897   -0.0014 N   0  0  0  0  0  0  0  0  0  0  0  0
   -4.5190   -0.0558   -0.0033 N   0  0  0  0  0  0  0  0  0  0  0  0
    5.1566   -0.7490    0.0001 N   0  0  0  0  0  0  0  0  0  0  0  0
    0.3323    0.0424   -0.0011 C   0  0  0  0  0  0  0  0  0  0  0  0
   -2.0830   -0.0151   -0.0022 C   0  0  0  0  0  0  0  0  0  0  0  0
   -0.8588   -0.6837   -0.0031 C   0  0  0  0  0  0  0  0  0  0  0  0
    0.2990    1.4369    0.0017 C   0  0  0  0  0  0  0  0  0  0  0  0
   -2.1162    1.3794    0.0006 C   0  0  0  0  0  0  0  0  0  0  0  0
   -0.9252    2.1054    0.0026 C   0  0  0  0  0  0  0  0  0  0  0  0
   -3.3251   -0.7713   -0.0043 C   0  0  0  0  0  0  0  0  0  0  0  0
    2.8565   -0.0783    0.0000 C   0  0  0  0  0  0  0  0  0  0  0  0
  1 13  2  0
  2 14  2  0
  3  7  1  0
  3 14  1  0
  4  6  1  0
  4 14  1  0
  5 13  1  0
  7  9  2  0
  7 10  1  0
  8  9  1  0
  8 11  2  0
  8 13  1  0
 10 12  2  0
 11 12  1  0
M  END
>  <PUBCHEM_COMPOUND_CID>  (1) 
31212

>  <PUBCHEM_CONFORMER_RMSD>  (1) 
0.6

>  <PUBCHEM_CONFORMER_DIVERSEORDER>  (1) 
1
9
6
15
12
7
2
16
8
10
5
11
3
14
13
4

>  <PUBCHEM_MMFF94_PARTIAL_CHARGES>  (1) 
24
1 -0.57
10 -0.15
11 -0.15
12 -0.15
13 0.54
14 0.69
15 0.15
16 0.15
17 0.15
18 0.15
19 0.37
2 -0.57
20 0.37
21 0.37
22 0.37
23 0.36
24 0.36
3 -0.55
4 -0.42
5 -0.8
6 -0.73
7 0.12
8 0.09
9 -0.15

>  <PUBCHEM_EFFECTIVE_ROTOR_COUNT>  (1) 
4

>  <PUBCHEM_PHARMACOPHORE_FEATURES>  (1) 
7
1 1 acceptor
1 2 acceptor
1 3 donor
1 4 donor
1 5 donor
1 6 donor
6 7 8 9 10 11 12 rings

>  <PUBCHEM_HEAVY_ATOM_COUNT>  (1) 
14

>  <PUBCHEM_ATOM_DEF_STEREO_COUNT>  (1) 
0

>  <PUBCHEM_ATOM_UDEF_STEREO_COUNT>  (1) 
0

>  <PUBCHEM_BOND_DEF_STEREO_COUNT>  (1) 
0

>  <PUBCHEM_BOND_UDEF_STEREO_COUNT>  (1) 
0

>  <PUBCHEM_ISOTOPIC_ATOM_COUNT>  (1) 
0

>  <PUBCHEM_COMPONENT_COUNT>  (1) 
1

>  <PUBCHEM_CACTVS_TAUTO_COUNT>  (1) 
6

>  <PUBCHEM_CONFORMER_ID>  (1) 
000079EC00000001

>  <PUBCHEM_MMFF94_ENERGY>  (1) 
41.5141

>  <PUBCHEM_FEATURE_SELFOVERLAP>  (1) 
37.083

>  <PUBCHEM_SHAPE_FINGERPRINT>  (1) 
11132069 177 18411975879741163457
11543360 7 15574721347228913595
11769659 78 18409445912017576005
12032990 46 18410294743647476707
13288520 33 18412266095493409502
14115302 16 17749117728578430263
14911166 2 18336254687922911765
15196674 1 18410855507393933541
17834072 33 18261116283842082508
18186145 218 17023178370352005581
187816 3 17676489440718666579
1986462 14 18338519630035796830
200 152 18410851053560352943
20281407 28 18412547643083520665
20281475 54 18339084903392568677
20871998 184 18202281368667232765
21267235 1 18409739455963431051
22485316 2 18411134766252012939
2297311 6 18201168667743445356
23402539 116 18412537708708360983
23463225 33 18410858780148515725
23557571 272 18129951074482049108
23559900 14 18410568509590687112
43471831 8 18189895318683621594
5104073 3 18412545439580740760
8809292 202 18261395584980181619

>  <PUBCHEM_SHAPE_MULTIPOLES>  (1) 
256.45
8.05
1.77
0.58
5.82
0.43
0
-3.56
0
-0.82
0
-0.04
0.02
0

>  <PUBCHEM_SHAPE_SELFOVERLAP>  (1) 
534.41

>  <PUBCHEM_SHAPE_VOLUME>  (1) 
144.5

>  <PUBCHEM_COORDINATE_TYPE>  (1) 
2
5
10

$$$$
