31214
     RDKit          3D

 10  9  0  0  0  0  0  0  0  0999 V2000
   -0.2543   -1.1145    0.1482 O   0  0  0  0  0  0  0  0  0  0  0  0
    1.4172    0.5496   -0.1083 O   0  0  0  0  0  0  0  0  0  0  0  0
   -0.8139    1.0378   -0.7281 O   0  0  0  0  0  0  0  0  0  0  0  0
    0.1883    0.0120   -0.6213 C   0  0  0  0  0  0  0  0  0  0  0  0
   -1.4475   -1.6895   -0.3679 C   0  0  0  0  0  0  0  0  0  0  0  0
    2.4693   -0.4063   -0.1037 C   0  0  0  0  0  0  0  0  0  0  0  0
   -1.1921    1.5859    0.5281 C   0  0  0  0  0  0  0  0  0  0  0  0
   -1.8428   -2.8660    0.4988 C   0  0  0  0  0  0  0  0  0  0  0  0
    3.7210    0.2410    0.4494 C   0  0  0  0  0  0  0  0  0  0  0  0
   -2.2452    2.6501    0.3048 C   0  0  0  0  0  0  0  0  0  0  0  0
  1  4  1  0
  1  5  1  0
  2  4  1  0
  2  6  1  0
  3  4  1  0
  3  7  1  0
  5  8  1  0
  6  9  1  0
  7 10  1  0
M  END
>  <PUBCHEM_COMPOUND_CID>  (1) 
31214

>  <PUBCHEM_CONFORMER_RMSD>  (1) 
0.6

>  <PUBCHEM_CONFORMER_DIVERSEORDER>  (1) 
1
11
12
2
16
14
13
10
5
15
9
7
6
4
3
8

>  <PUBCHEM_MMFF94_PARTIAL_CHARGES>  (1) 
7
1 -0.56
2 -0.56
3 -0.56
4 0.84
5 0.28
6 0.28
7 0.28

>  <PUBCHEM_EFFECTIVE_ROTOR_COUNT>  (1) 
6

>  <PUBCHEM_PHARMACOPHORE_FEATURES>  (1) 
3
1 1 acceptor
1 2 acceptor
1 3 acceptor

>  <PUBCHEM_HEAVY_ATOM_COUNT>  (1) 
10

>  <PUBCHEM_ATOM_DEF_STEREO_COUNT>  (1) 
0

>  <PUBCHEM_ATOM_UDEF_STEREO_COUNT>  (1) 
0

>  <PUBCHEM_BOND_DEF_STEREO_COUNT>  (1) 
0

>  <PUBCHEM_BOND_UDEF_STEREO_COUNT>  (1) 
0

>  <PUBCHEM_ISOTOPIC_ATOM_COUNT>  (1) 
0

>  <PUBCHEM_COMPONENT_COUNT>  (1) 
1

>  <PUBCHEM_CACTVS_TAUTO_COUNT>  (1) 
1

>  <PUBCHEM_CONFORMER_ID>  (1) 
000079EE00000001

>  <PUBCHEM_MMFF94_ENERGY>  (1) 
10.4899

>  <PUBCHEM_FEATURE_SELFOVERLAP>  (1) 
15.33

>  <PUBCHEM_SHAPE_FINGERPRINT>  (1) 
1 1 17761214310614717885
170605 34 17628070092605994533
17841504 4 17616257326419456659
19021347 4 18266743471987590401
20711985 344 18339344357776748803
20871998 184 18272936067520197238
21040471 1 18267313023311156908
21524375 3 17912916193368252196
23500284 5 18187922940920682506
305870 269 17762618391295674544
58734985 188 17618786198604084402
58734987 24 18341607118547244911
81228 2 18410014363919088003

>  <PUBCHEM_SHAPE_MULTIPOLES>  (1) 
188.19
4.29
3.07
0.78
5.11
0.6
0.01
-0.62
-0.84
-4.12
-0.61
-0.07
0
0.04

>  <PUBCHEM_SHAPE_SELFOVERLAP>  (1) 
333.461

>  <PUBCHEM_SHAPE_VOLUME>  (1) 
121.9

>  <PUBCHEM_COORDINATE_TYPE>  (1) 
2
5
10

$$$$
