31229
     RDKit          3D

 10 10  0  0  0  0  0  0  0  0999 V2000
    1.2019   -0.0012   -0.8524 O   0  0  0  0  0  0  0  0  0  0  0  0
    1.8218    0.0029    1.4049 O   0  0  0  0  0  0  0  0  0  0  0  0
   -0.1042   -0.0006   -0.4694 C   0  0  0  0  0  0  0  0  0  0  0  0
   -0.7732    1.2076   -0.2743 C   0  0  0  0  0  0  0  0  0  0  0  0
   -0.7735   -1.2083   -0.2718 C   0  0  0  0  0  0  0  0  0  0  0  0
   -2.1118    1.2081    0.1181 C   0  0  0  0  0  0  0  0  0  0  0  0
   -2.1121   -1.2078    0.1206 C   0  0  0  0  0  0  0  0  0  0  0  0
   -2.7813    0.0004    0.3155 C   0  0  0  0  0  0  0  0  0  0  0  0
    2.1133   -0.0002    0.2162 C   0  0  0  0  0  0  0  0  0  0  0  0
    3.5190   -0.0008   -0.3074 C   0  0  0  0  0  0  0  0  0  0  0  0
  1  3  1  0
  1  9  1  0
  2  9  2  0
  3  4  2  0
  3  5  1  0
  4  6  1  0
  5  7  2  0
  6  8  2  0
  7  8  1  0
  9 10  1  0
M  END
>  <PUBCHEM_COMPOUND_CID>  (1) 
31229

>  <PUBCHEM_CONFORMER_RMSD>  (1) 
0.4

>  <PUBCHEM_CONFORMER_DIVERSEORDER>  (1) 
1
14
15
13
10
3
2
9
7
16
12
8
5
4
11
6

>  <PUBCHEM_MMFF94_PARTIAL_CHARGES>  (1) 
15
1 -0.23
10 0.06
11 0.15
12 0.15
13 0.15
14 0.15
15 0.15
2 -0.57
3 0.08
4 -0.15
5 -0.15
6 -0.15
7 -0.15
8 -0.15
9 0.66

>  <PUBCHEM_EFFECTIVE_ROTOR_COUNT>  (1) 
2

>  <PUBCHEM_PHARMACOPHORE_FEATURES>  (1) 
2
1 2 acceptor
6 3 4 5 6 7 8 rings

>  <PUBCHEM_HEAVY_ATOM_COUNT>  (1) 
10

>  <PUBCHEM_ATOM_DEF_STEREO_COUNT>  (1) 
0

>  <PUBCHEM_ATOM_UDEF_STEREO_COUNT>  (1) 
0

>  <PUBCHEM_BOND_DEF_STEREO_COUNT>  (1) 
0

>  <PUBCHEM_BOND_UDEF_STEREO_COUNT>  (1) 
0

>  <PUBCHEM_ISOTOPIC_ATOM_COUNT>  (1) 
0

>  <PUBCHEM_COMPONENT_COUNT>  (1) 
1

>  <PUBCHEM_CACTVS_TAUTO_COUNT>  (1) 
1

>  <PUBCHEM_CONFORMER_ID>  (1) 
000079FD00000001

>  <PUBCHEM_MMFF94_ENERGY>  (1) 
27.3953

>  <PUBCHEM_FEATURE_SELFOVERLAP>  (1) 
10.148

>  <PUBCHEM_SHAPE_FINGERPRINT>  (1) 
10857977 72 18342173405705995025
11062470 55 15140960655801816469
12932764 1 17603579725327558652
13024252 1 14923943440468652933
14325111 11 18412266099408419252
16945 1 18410571786476329287
20645464 45 17918277540877013430
20653085 51 15339116836119609145
20871998 184 18272096057901068943
21040471 1 18266748974072876637
23235685 24 18341894048016480869
23552423 10 17825111668854298797
2748010 2 18049175367137958493
369184 2 18411693288194242459
5084963 1 17988927790090819323
75552 356 18408325509763798303

>  <PUBCHEM_SHAPE_MULTIPOLES>  (1) 
194.06
4.63
1.22
0.87
2.84
0
-0.16
0
-0.38
-0.87
0.05
0.33
0
0

>  <PUBCHEM_SHAPE_SELFOVERLAP>  (1) 
399.347

>  <PUBCHEM_SHAPE_VOLUME>  (1) 
110.3

>  <PUBCHEM_COORDINATE_TYPE>  (1) 
2
5
10

$$$$
