3123
     RDKit          3D

 15 14  0  0  1  0  0  0  0  0999 V2000
   -5.1535    0.2126    0.0696 P   0  0  0  0  0  0  0  0  0  0  0  0
   -6.2789   -0.8175   -0.4437 O   0  0  0  0  0  0  0  0  0  0  0  0
   -5.1121   -0.0169    1.6622 O   0  0  0  0  0  0  0  0  0  0  0  0
   -5.2923    1.6212   -0.3892 O   0  0  0  0  0  0  0  0  0  0  0  0
    5.2177    1.7086   -0.3314 O   0  0  0  0  0  0  0  0  0  0  0  0
    6.0771   -0.0429    0.8228 O   0  0  0  0  0  0  0  0  0  0  0  0
    4.1752   -1.7375    0.0287 N   0  0  0  0  0  0  0  0  0  0  0  0
    0.1361    0.1956    0.1018 C   0  0  0  0  0  0  0  0  0  0  0  0
   -1.1004   -0.5223   -0.4440 C   0  0  0  0  0  0  0  0  0  0  0  0
    1.4240   -0.4580   -0.4046 C   0  0  0  0  0  0  0  0  0  0  0  0
   -2.3873    0.1484    0.0330 C   0  0  0  0  0  0  0  0  0  0  0  0
    2.6965    0.2252    0.1125 C   0  0  0  0  0  0  0  0  0  0  0  0
   -3.6231   -0.5797   -0.4771 C   0  0  0  0  0  0  0  0  0  0  0  0
    4.0100   -0.3539   -0.4293 C   0  0  0  0  0  0  0  0  0  0  0  0
    5.2112    0.4169    0.0885 C   0  0  0  0  0  0  0  0  0  0  0  0
  1  2  1  0
  1  3  1  0
  1  4  2  0
  1 13  1  0
  5 15  1  0
  6 15  2  0
  7 14  1  0
  8  9  1  0
  8 10  1  0
  9 11  1  0
 10 12  1  0
 11 13  1  0
 12 14  1  0
 14 15  1  0
M  END
>  <PUBCHEM_COMPOUND_CID>  (1) 
3123

>  <PUBCHEM_CONFORMER_RMSD>  (1) 
0.8

>  <PUBCHEM_CONFORMER_DIVERSEORDER>  (1) 
2
25
141
3
137
27
64
109
62
93
76
16
124
145
21
1
138
135
92
17
73
150
19
100
60
10
167
7
146
29
35
142
85
148
88
157
5
71
151
57
107
75
103
78
36
156
139
144
4
14
134
41
133
96
33
118
46
38
115
32
66
117
116
30
31
63
65
89
9
74
52
68
20
113
55
79
168
153
125
23
123
97
53
129
18
50
22
13
130
108
91
99
161
104
84
12
152
102
143
164
42
59
11
162
140
24
15
155
72
120
54
47
122
51
110
98
43
147
136
165
34
40
48
8
163
61
56
67
44
101
45
119
28
111
6
132
81
127
82
126
87
94
83
26
70
128
159
49
58
149
69
77
80
154
95
106
166
112
86
158
160
121
37
39
105
114
131
90

>  <PUBCHEM_MMFF94_PARTIAL_CHARGES>  (1) 
14
1 1.24
14 0.33
15 0.66
2 -0.77
29 0.36
3 -0.77
30 0.36
31 0.5
32 0.5
33 0.5
4 -0.7
5 -0.65
6 -0.57
7 -0.99

>  <PUBCHEM_EFFECTIVE_ROTOR_COUNT>  (1) 
8

>  <PUBCHEM_PHARMACOPHORE_FEATURES>  (1) 
10
1 2 acceptor
1 3 acceptor
1 4 acceptor
1 5 acceptor
1 6 acceptor
1 7 cation
1 7 donor
3 5 6 15 anion
4 1 2 3 4 anion
5 8 9 10 11 12 hydrophobe

>  <PUBCHEM_HEAVY_ATOM_COUNT>  (1) 
15

>  <PUBCHEM_ATOM_DEF_STEREO_COUNT>  (1) 
0

>  <PUBCHEM_ATOM_UDEF_STEREO_COUNT>  (1) 
1

>  <PUBCHEM_BOND_DEF_STEREO_COUNT>  (1) 
0

>  <PUBCHEM_BOND_UDEF_STEREO_COUNT>  (1) 
0

>  <PUBCHEM_ISOTOPIC_ATOM_COUNT>  (1) 
0

>  <PUBCHEM_COMPONENT_COUNT>  (1) 
1

>  <PUBCHEM_CACTVS_TAUTO_COUNT>  (1) 
1

>  <PUBCHEM_CONFORMER_ID>  (1) 
00000C3300000002

>  <PUBCHEM_MMFF94_ENERGY>  (1) 
-23.1804

>  <PUBCHEM_FEATURE_SELFOVERLAP>  (1) 
50.841

>  <PUBCHEM_SHAPE_FINGERPRINT>  (1) 
10912923 1 18060419105718427675
11287383 113 17894634776852370944
117890 112 17846500318119983800
12091667 2 18334857221270427711
13167372 99 18409448055607670524
13533116 47 17240755139421961218
14123238 8 17561365075790350559
1420 363 17022905648592581739
14251718 22 18272368685418833095
14251732 16 18338236071810225271
14251764 18 17988927782381872299
15242439 84 12391511992565698870
17834072 33 18202561808435453557
17834076 25 17203610393196932918
17844677 252 18335144167634956341
19489759 90 17458062660443259365
20281389 69 18342453755216963201
20621476 66 18271250400953821337
20645477 70 18341895135234421006
21150785 3 16343692257951255909
220451 1 17489588974057014255
23402539 116 18409443691893965725
23536379 177 18409446968632310915
23559900 14 10087629399467507638
300161 21 17917423229206596142
42788 4 18410573989483341837
542803 24 18412263943166031573
7062679 6 17131565950802735017

>  <PUBCHEM_SHAPE_MULTIPOLES>  (1) 
278.21
17.6
1.18
0.85
2.69
0.13
-0.23
2.17
-1.63
-0.53
0.15
0.6
0.01
-0.2

>  <PUBCHEM_SHAPE_SELFOVERLAP>  (1) 
507.44

>  <PUBCHEM_SHAPE_VOLUME>  (1) 
176.4

>  <PUBCHEM_COORDINATE_TYPE>  (1) 
2
5
10

$$$$
