31247
     RDKit          3D

  8  7  0  0  0  0  0  0  0  0999 V2000
    1.1557   -0.6497   -0.2749 O   0  0  0  0  0  0  0  0  0  0  0  0
    0.1884    1.4501   -0.0214 O   0  0  0  0  0  0  0  0  0  0  0  0
   -2.3930    0.3375    0.1307 C   0  0  0  0  0  0  0  0  0  0  0  0
   -1.1757   -0.5600   -0.0767 C   0  0  0  0  0  0  0  0  0  0  0  0
   -3.6831   -0.4662    0.1397 C   0  0  0  0  0  0  0  0  0  0  0  0
    0.1135    0.2323   -0.1205 C   0  0  0  0  0  0  0  0  0  0  0  0
    2.4001   -0.0518   -0.3173 C   0  0  0  0  0  0  0  0  0  0  0  0
    3.3942   -0.2923    0.5404 C   0  0  0  0  0  0  0  0  0  0  0  0
  1  6  1  0
  1  7  1  0
  2  6  2  0
  3  4  1  0
  3  5  1  0
  4  6  1  0
  7  8  2  0
M  END
>  <PUBCHEM_COMPOUND_CID>  (1) 
31247

>  <PUBCHEM_CONFORMER_RMSD>  (1) 
0.6

>  <PUBCHEM_CONFORMER_DIVERSEORDER>  (1) 
1
20
22
23
24
4
7
11
17
13
15
25
18
9
14
19
21
6
12
16
2
10
8
3
5

>  <PUBCHEM_MMFF94_PARTIAL_CHARGES>  (1) 
9
1 -0.23
16 0.15
17 0.15
18 0.15
2 -0.57
4 0.06
6 0.66
7 -0.07
8 -0.3

>  <PUBCHEM_EFFECTIVE_ROTOR_COUNT>  (1) 
4

>  <PUBCHEM_PHARMACOPHORE_FEATURES>  (1) 
2
1 2 acceptor
1 5 hydrophobe

>  <PUBCHEM_HEAVY_ATOM_COUNT>  (1) 
8

>  <PUBCHEM_ATOM_DEF_STEREO_COUNT>  (1) 
0

>  <PUBCHEM_ATOM_UDEF_STEREO_COUNT>  (1) 
0

>  <PUBCHEM_BOND_DEF_STEREO_COUNT>  (1) 
0

>  <PUBCHEM_BOND_UDEF_STEREO_COUNT>  (1) 
0

>  <PUBCHEM_ISOTOPIC_ATOM_COUNT>  (1) 
0

>  <PUBCHEM_COMPONENT_COUNT>  (1) 
1

>  <PUBCHEM_CACTVS_TAUTO_COUNT>  (1) 
1

>  <PUBCHEM_CONFORMER_ID>  (1) 
00007A0F00000001

>  <PUBCHEM_MMFF94_ENERGY>  (1) 
10.1276

>  <PUBCHEM_FEATURE_SELFOVERLAP>  (1) 
10.148

>  <PUBCHEM_SHAPE_FINGERPRINT>  (1) 
10219947 1 18131072636155177703
10857977 72 18341886394395159616
11062470 55 18410855464428410363
12932764 1 15123501467714688287
14325111 11 18412546491958490623
29004967 10 18410862048623876642
5460574 1 8286200539440625223

>  <PUBCHEM_SHAPE_MULTIPOLES>  (1) 
152.9
5.83
0.94
0.66
0.76
0.24
-0.02
-1.13
-0.82
0.06
0
-0.14
-0.03
-0.04

>  <PUBCHEM_SHAPE_SELFOVERLAP>  (1) 
278.626

>  <PUBCHEM_SHAPE_VOLUME>  (1) 
97.9

>  <PUBCHEM_COORDINATE_TYPE>  (1) 
2
5
10

$$$$
