31259
     RDKit          3D

 12 11  0  0  0  0  0  0  0  0999 V2000
    2.4618   -0.2499    0.0036 C   0  0  0  0  0  0  0  0  0  0  0  0
    1.3819    0.3250   -0.9588 C   0  0  0  0  0  0  0  0  0  0  0  0
   -2.4227   -0.2827   -0.0082 C   0  0  0  0  0  0  0  0  0  0  0  0
    0.0112    0.6220   -0.3654 C   0  0  0  0  0  0  0  0  0  0  0  0
   -0.9543   -0.3206   -0.4203 C   0  0  0  0  0  0  0  0  0  0  0  0
    3.8111   -0.4230   -0.7155 C   0  0  0  0  0  0  0  0  0  0  0  0
    2.6512    0.7538    1.1595 C   0  0  0  0  0  0  0  0  0  0  0  0
    2.0364   -1.5991    0.6049 C   0  0  0  0  0  0  0  0  0  0  0  0
   -3.0624   -1.6535   -0.2787 C   0  0  0  0  0  0  0  0  0  0  0  0
   -3.2469    0.8233   -0.6921 C   0  0  0  0  0  0  0  0  0  0  0  0
   -2.4793   -0.0108    1.5128 C   0  0  0  0  0  0  0  0  0  0  0  0
   -0.1881    2.0155    0.1581 C   0  0  0  0  0  0  0  0  0  0  0  0
  1  2  1  0
  1  6  1  0
  1  7  1  0
  1  8  1  0
  2  4  1  0
  3  5  1  0
  3  9  1  0
  3 10  1  0
  3 11  1  0
  4  5  2  0
  4 12  1  0
M  END
>  <PUBCHEM_COMPOUND_CID>  (1) 
31259

>  <PUBCHEM_CONFORMER_RMSD>  (1) 
0.6

>  <PUBCHEM_CONFORMER_DIVERSEORDER>  (1) 
1
2
5
4
7
6
3

>  <PUBCHEM_MMFF94_PARTIAL_CHARGES>  (1) 
6
12 0.14
15 0.15
2 0.14
3 0.14
4 -0.28
5 -0.29

>  <PUBCHEM_EFFECTIVE_ROTOR_COUNT>  (1) 
3

>  <PUBCHEM_PHARMACOPHORE_FEATURES>  (1) 
3
1 12 hydrophobe
4 1 6 7 8 hydrophobe
4 3 9 10 11 hydrophobe

>  <PUBCHEM_HEAVY_ATOM_COUNT>  (1) 
12

>  <PUBCHEM_ATOM_DEF_STEREO_COUNT>  (1) 
0

>  <PUBCHEM_ATOM_UDEF_STEREO_COUNT>  (1) 
0

>  <PUBCHEM_BOND_DEF_STEREO_COUNT>  (1) 
0

>  <PUBCHEM_BOND_UDEF_STEREO_COUNT>  (1) 
1

>  <PUBCHEM_ISOTOPIC_ATOM_COUNT>  (1) 
0

>  <PUBCHEM_COMPONENT_COUNT>  (1) 
1

>  <PUBCHEM_CACTVS_TAUTO_COUNT>  (1) 
1

>  <PUBCHEM_CONFORMER_ID>  (1) 
00007A1B00000001

>  <PUBCHEM_MMFF94_ENERGY>  (1) 
35.069

>  <PUBCHEM_FEATURE_SELFOVERLAP>  (1) 
15.223

>  <PUBCHEM_SHAPE_FINGERPRINT>  (1) 
10219947 1 17489586779149182844
10857977 72 18343013419451584256
11062470 55 17240484693293564100
12162725 195 16128658543770892961
12251169 10 17131830988738915878
12382932 28 18411412929766844498
12500047 106 18337102372094930765
12932764 1 18411139134186202271
13296908 3 18341610438314202750
13571099 22 18334852766956883759
14144814 61 18343582936541902447
15375462 189 18334020496657702914
15775835 57 18411702066933634051
16945 1 17895195536235321238
18175812 5 17918272056272419804
19422 9 18131080350259274222
20201158 50 17676488345460009458
20279233 1 18410002239110288878
20281407 28 18409729547526360340
20645477 70 18188484657981229686
20653091 64 18127417958383819025
20711983 171 15482398598608045392
20715346 28 18130782399487381229
21501925 9 18270110365760279575
22485316 2 18408319973793754830
230 275 9727632787258942134
23402539 116 18333447643332532374
305870 269 9583255915167989564
3248919 1 17095520707958108239
3312278 4 18261396624077060103
57812782 119 12895067401322016565
81228 2 17969778579602343412

>  <PUBCHEM_SHAPE_MULTIPOLES>  (1) 
246.95
6.16
1.58
1.14
0.56
0.06
0.29
-1.43
-0.21
-0.33
0.1
-0.01
0.07
0.11

>  <PUBCHEM_SHAPE_SELFOVERLAP>  (1) 
461.614

>  <PUBCHEM_SHAPE_VOLUME>  (1) 
158.7

>  <PUBCHEM_COORDINATE_TYPE>  (1) 
2
5
10

$$$$
