31258
     RDKit          3D

  9  8  0  0  0  0  0  0  0  0999 V2000
    2.3634   -1.2593    0.5126 O   0  0  0  0  0  0  0  0  0  0  0  0
    0.7150    0.4199   -0.1391 C   0  0  0  0  0  0  0  0  0  0  0  0
   -0.6187    0.6843   -0.9027 C   0  0  0  0  0  0  0  0  0  0  0  0
   -1.9193    0.0000   -0.4213 C   0  0  0  0  0  0  0  0  0  0  0  0
    1.0900   -1.0748   -0.0930 C   0  0  0  0  0  0  0  0  0  0  0  0
    0.6748    0.9782    1.2954 C   0  0  0  0  0  0  0  0  0  0  0  0
    1.8288    1.1917   -0.8900 C   0  0  0  0  0  0  0  0  0  0  0  0
   -1.8232   -1.5189   -0.3079 C   0  0  0  0  0  0  0  0  0  0  0  0
   -2.3107    0.5788    0.9459 C   0  0  0  0  0  0  0  0  0  0  0  0
  1  5  1  0
  2  3  1  0
  2  5  1  0
  2  6  1  0
  2  7  1  0
  3  4  1  0
  4  8  1  0
  4  9  1  0
M  END
>  <PUBCHEM_COMPOUND_CID>  (1) 
31258

>  <PUBCHEM_CONFORMER_RMSD>  (1) 
0.6

>  <PUBCHEM_CONFORMER_DIVERSEORDER>  (1) 
2
1

>  <PUBCHEM_MMFF94_PARTIAL_CHARGES>  (1) 
3
1 -0.68
27 0.4
5 0.28

>  <PUBCHEM_EFFECTIVE_ROTOR_COUNT>  (1) 
3

>  <PUBCHEM_PHARMACOPHORE_FEATURES>  (1) 
4
1 1 acceptor
1 1 donor
3 2 6 7 hydrophobe
3 4 8 9 hydrophobe

>  <PUBCHEM_HEAVY_ATOM_COUNT>  (1) 
9

>  <PUBCHEM_ATOM_DEF_STEREO_COUNT>  (1) 
0

>  <PUBCHEM_ATOM_UDEF_STEREO_COUNT>  (1) 
0

>  <PUBCHEM_BOND_DEF_STEREO_COUNT>  (1) 
0

>  <PUBCHEM_BOND_UDEF_STEREO_COUNT>  (1) 
0

>  <PUBCHEM_ISOTOPIC_ATOM_COUNT>  (1) 
0

>  <PUBCHEM_COMPONENT_COUNT>  (1) 
1

>  <PUBCHEM_CACTVS_TAUTO_COUNT>  (1) 
1

>  <PUBCHEM_CONFORMER_ID>  (1) 
00007A1A00000002

>  <PUBCHEM_MMFF94_ENERGY>  (1) 
31.1835

>  <PUBCHEM_FEATURE_SELFOVERLAP>  (1) 
20.297

>  <PUBCHEM_SHAPE_FINGERPRINT>  (1) 
137420 1 13785839130350934709
14128692 85 18409168796828478782
15310529 11 17241624843791235478
16945 1 18337957766223882670
18185500 45 18412825763601277583
20653091 64 18410571816335554058
21040471 1 18267581484378549159
21922407 69 18265616665979999649
23552333 60 18338531767244311488
23552423 10 18187641435673179823
241688 4 18261381261221856403
24536 1 18114446955412848277
29004967 10 17967538921834530104
5084963 1 18336251418841051431

>  <PUBCHEM_SHAPE_MULTIPOLES>  (1) 
179.35
3.16
1.51
1.14
0.51
0.45
0.12
0.37
0.17
-0.24
0.1
-0.1
-0.35
-0.48

>  <PUBCHEM_SHAPE_SELFOVERLAP>  (1) 
326.402

>  <PUBCHEM_SHAPE_VOLUME>  (1) 
116.6

>  <PUBCHEM_COORDINATE_TYPE>  (1) 
2
5
10

$$$$
