31256
     RDKit          3D

  8  7  0  0  0  0  0  0  0  0999 V2000
   -1.2761    1.1447   -0.7290 O   0  0  0  0  0  0  0  0  0  0  0  0
    1.5269    1.2278   -0.0711 O   0  0  0  0  0  0  0  0  0  0  0  0
   -1.1209   -0.0654    0.0135 C   0  0  0  0  0  0  0  0  0  0  0  0
    0.1860   -0.7649   -0.3989 C   0  0  0  0  0  0  0  0  0  0  0  0
   -2.3102   -0.9572   -0.3599 C   0  0  0  0  0  0  0  0  0  0  0  0
   -1.1749    0.2519    1.5101 C   0  0  0  0  0  0  0  0  0  0  0  0
    1.4675   -0.0003   -0.0928 C   0  0  0  0  0  0  0  0  0  0  0  0
    2.7016   -0.8365    0.1282 C   0  0  0  0  0  0  0  0  0  0  0  0
  1  3  1  0
  2  7  2  0
  3  4  1  0
  3  5  1  0
  3  6  1  0
  4  7  1  0
  7  8  1  0
M  END
>  <PUBCHEM_COMPOUND_CID>  (1) 
31256

>  <PUBCHEM_CONFORMER_RMSD>  (1) 
0.4

>  <PUBCHEM_CONFORMER_DIVERSEORDER>  (1) 
1
9
12
13
7
3
8
11
5
10
6
4
2

>  <PUBCHEM_MMFF94_PARTIAL_CHARGES>  (1) 
7
1 -0.68
17 0.4
2 -0.57
3 0.28
4 0.06
7 0.45
8 0.06

>  <PUBCHEM_EFFECTIVE_ROTOR_COUNT>  (1) 
2

>  <PUBCHEM_PHARMACOPHORE_FEATURES>  (1) 
4
1 1 acceptor
1 1 donor
1 2 acceptor
3 3 5 6 hydrophobe

>  <PUBCHEM_HEAVY_ATOM_COUNT>  (1) 
8

>  <PUBCHEM_ATOM_DEF_STEREO_COUNT>  (1) 
0

>  <PUBCHEM_ATOM_UDEF_STEREO_COUNT>  (1) 
0

>  <PUBCHEM_BOND_DEF_STEREO_COUNT>  (1) 
0

>  <PUBCHEM_BOND_UDEF_STEREO_COUNT>  (1) 
0

>  <PUBCHEM_ISOTOPIC_ATOM_COUNT>  (1) 
0

>  <PUBCHEM_COMPONENT_COUNT>  (1) 
1

>  <PUBCHEM_CACTVS_TAUTO_COUNT>  (1) 
3

>  <PUBCHEM_CONFORMER_ID>  (1) 
00007A1800000001

>  <PUBCHEM_MMFF94_ENERGY>  (1) 
13.0626

>  <PUBCHEM_FEATURE_SELFOVERLAP>  (1) 
20.3

>  <PUBCHEM_SHAPE_FINGERPRINT>  (1) 
10857977 72 15984821596788486771
12932741 1 16515972565727199662
21040471 1 16699798660549621513
23552423 10 18259702324014262334
24536 1 17561090176371614382
29004967 10 18042690692011820643
369184 2 18411696577944129379
5084963 1 18342737429322261914

>  <PUBCHEM_SHAPE_MULTIPOLES>  (1) 
152.9
3.32
1.17
0.98
1.25
0.05
0.28
-0.79
0.12
-0.05
-0.1
-0.39
0.23
-0.21

>  <PUBCHEM_SHAPE_SELFOVERLAP>  (1) 
281.324

>  <PUBCHEM_SHAPE_VOLUME>  (1) 
98.2

>  <PUBCHEM_COORDINATE_TYPE>  (1) 
2
5
10

$$$$
