31286
     RDKit          3D

  9  8  0  0  0  0  0  0  0  0999 V2000
   -4.8200   -0.5726   -0.0534 N   0  0  0  0  0  0  0  0  0  0  0  0
    1.1863   -0.4155    0.0599 C   0  0  0  0  0  0  0  0  0  0  0  0
    0.0027    0.5546    0.0111 C   0  0  0  0  0  0  0  0  0  0  0  0
    2.5193    0.3338   -0.0002 C   0  0  0  0  0  0  0  0  0  0  0  0
   -1.3327   -0.1972    0.0390 C   0  0  0  0  0  0  0  0  0  0  0  0
    3.7370   -0.5926    0.0149 C   0  0  0  0  0  0  0  0  0  0  0  0
   -2.5421    0.7389    0.0206 C   0  0  0  0  0  0  0  0  0  0  0  0
    5.0636    0.1459   -0.0709 C   0  0  0  0  0  0  0  0  0  0  0  0
   -3.8140    0.0048   -0.0210 C   0  0  0  0  0  0  0  0  0  0  0  0
  1  9  3  0
  2  3  1  0
  2  4  1  0
  3  5  1  0
  4  6  1  0
  5  7  1  0
  6  8  1  0
  7  9  1  0
M  END
>  <PUBCHEM_COMPOUND_CID>  (1) 
31286

>  <PUBCHEM_CONFORMER_RMSD>  (1) 
0.6

>  <PUBCHEM_CONFORMER_DIVERSEORDER>  (1) 
1
34
74
6
78
46
75
56
42
8
36
79
33
50
5
63
48
80
38
20
73
37
3
68
12
54
19
77
43
51
2
39
58
71
65
9
27
72
40
57
10
62
21
22
16
66
76
52
60
30
24
15
45
70
69
18
14
53
41
67
31
32
11
44
29
23
64
47
4
13
59
55
35
49
26
17
7
61
28
25

>  <PUBCHEM_MMFF94_PARTIAL_CHARGES>  (1) 
3
1 -0.56
7 0.2
9 0.36

>  <PUBCHEM_EFFECTIVE_ROTOR_COUNT>  (1) 
5

>  <PUBCHEM_PHARMACOPHORE_FEATURES>  (1) 
4
1 1 acceptor
1 8 hydrophobe
3 2 4 6 hydrophobe
3 3 5 7 hydrophobe

>  <PUBCHEM_HEAVY_ATOM_COUNT>  (1) 
9

>  <PUBCHEM_ATOM_DEF_STEREO_COUNT>  (1) 
0

>  <PUBCHEM_ATOM_UDEF_STEREO_COUNT>  (1) 
0

>  <PUBCHEM_BOND_DEF_STEREO_COUNT>  (1) 
0

>  <PUBCHEM_BOND_UDEF_STEREO_COUNT>  (1) 
0

>  <PUBCHEM_ISOTOPIC_ATOM_COUNT>  (1) 
0

>  <PUBCHEM_COMPONENT_COUNT>  (1) 
1

>  <PUBCHEM_CACTVS_TAUTO_COUNT>  (1) 
1

>  <PUBCHEM_CONFORMER_ID>  (1) 
00007A3600000001

>  <PUBCHEM_MMFF94_ENERGY>  (1) 
-2.4774

>  <PUBCHEM_FEATURE_SELFOVERLAP>  (1) 
20.308

>  <PUBCHEM_SHAPE_FINGERPRINT>  (1) 
11062470 55 8358257046709363433
114248 4 18333732424822020520
14123238 8 18342176669860008444
17834072 33 18336266846484813716
17834076 25 18410294709203270794
18342897 14 9655576309648896894
20645477 70 18339362951444891342
20719005 15 18411419509862242722
20767249 13 16805321093838760424
20828058 44 14333121996611783085
21119208 17 13623531255261880866
22485316 2 18261107456856289251
23402539 116 18260260841788086301
42788 4 18410012134841610860

>  <PUBCHEM_SHAPE_MULTIPOLES>  (1) 
180.23
10.61
0.81
0.61
0.79
0.03
0
-1.1
-0.31
-0.08
0
0.05
0.01
-0.03

>  <PUBCHEM_SHAPE_SELFOVERLAP>  (1) 
318.086

>  <PUBCHEM_SHAPE_VOLUME>  (1) 
116.3

>  <PUBCHEM_COORDINATE_TYPE>  (1) 
2
5
10

$$$$
