31310
     RDKit          3D

 49 55  0  0  1  0  0  0  0  0999 V2000
    6.4753   -1.3573    0.8900 O   0  0  0  0  0  0  0  0  0  0  0  0
   -2.0291    0.6182    0.8174 O   0  0  0  0  0  0  0  0  0  0  0  0
   10.1598   -2.1119    0.1730 O   0  0  0  0  0  0  0  0  0  0  0  0
   -3.5895   -0.2793   -0.6690 O   0  0  0  0  0  0  0  0  0  0  0  0
   12.3096   -1.7410    0.8118 O   0  0  0  0  0  0  0  0  0  0  0  0
   -3.7632    2.8179    1.2965 O   0  0  0  0  0  0  0  0  0  0  0  0
   -6.4311   -0.3699    0.0806 O   0  0  0  0  0  0  0  0  0  0  0  0
   -5.1744    2.8550   -1.0537 O   0  0  0  0  0  0  0  0  0  0  0  0
   -3.8573   -1.8863   -2.8821 O   0  0  0  0  0  0  0  0  0  0  0  0
   -8.5714    0.5076   -0.2239 O   0  0  0  0  0  0  0  0  0  0  0  0
   -7.5712   -2.9000    0.6345 O   0  0  0  0  0  0  0  0  0  0  0  0
  -10.2915   -2.6622    1.7409 O   0  0  0  0  0  0  0  0  0  0  0  0
  -11.9173   -0.9522    0.0711 O   0  0  0  0  0  0  0  0  0  0  0  0
    5.7131   -0.4742    0.0533 C   0  0  0  0  0  0  0  0  0  0  0  0
    6.5374    0.8019   -0.2707 C   0  0  0  0  0  0  0  0  0  0  0  0
    4.3598   -0.1880    0.7599 C   0  0  0  0  0  0  0  0  0  0  0  0
    3.5082    0.9006    0.0505 C   0  0  0  0  0  0  0  0  0  0  0  0
    2.1382    1.1916    0.7793 C   0  0  0  0  0  0  0  0  0  0  0  0
    7.5900    0.2873   -1.3033 C   0  0  0  0  0  0  0  0  0  0  0  0
    5.6349    1.8612   -0.9617 C   0  0  0  0  0  0  0  0  0  0  0  0
    4.3534    2.1664   -0.1880 C   0  0  0  0  0  0  0  0  0  0  0  0
    5.5930   -1.1788   -1.3105 C   0  0  0  0  0  0  0  0  0  0  0  0
    6.8372   -0.7815   -2.1177 C   0  0  0  0  0  0  0  0  0  0  0  0
    3.5351   -1.4764    0.9496 C   0  0  0  0  0  0  0  0  0  0  0  0
    1.4254   -0.1357    1.0657 C   0  0  0  0  0  0  0  0  0  0  0  0
    7.1924    1.4437    0.9693 C   0  0  0  0  0  0  0  0  0  0  0  0
    2.2490   -1.2138    1.7232 C   0  0  0  0  0  0  0  0  0  0  0  0
    1.2643    2.0952   -0.1476 C   0  0  0  0  0  0  0  0  0  0  0  0
    2.3400    1.9268    2.1260 C   0  0  0  0  0  0  0  0  0  0  0  0
    8.8505   -0.2922   -0.7283 C   0  0  0  0  0  0  0  0  0  0  0  0
   -0.2136    2.0759    0.2256 C   0  0  0  0  0  0  0  0  0  0  0  0
    0.1343   -0.3594    0.7576 C   0  0  0  0  0  0  0  0  0  0  0  0
   -0.7746    0.6595    0.1432 C   0  0  0  0  0  0  0  0  0  0  0  0
    9.9884    0.5726   -0.5553 C   0  0  0  0  0  0  0  0  0  0  0  0
    8.9824   -1.5717   -0.3635 C   0  0  0  0  0  0  0  0  0  0  0  0
   11.1339    0.1067   -0.0481 C   0  0  0  0  0  0  0  0  0  0  0  0
   -3.1064    0.9223   -0.0678 C   0  0  0  0  0  0  0  0  0  0  0  0
   11.2585   -1.3120    0.3472 C   0  0  0  0  0  0  0  0  0  0  0  0
   -4.2165    1.5812    0.7536 C   0  0  0  0  0  0  0  0  0  0  0  0
   -5.4637    1.8323   -0.0990 C   0  0  0  0  0  0  0  0  0  0  0  0
   -4.6717   -0.0562   -1.5801 C   0  0  0  0  0  0  0  0  0  0  0  0
   -5.8751    0.5607   -0.8455 C   0  0  0  0  0  0  0  0  0  0  0  0
   -5.0107   -1.3967   -2.2219 C   0  0  0  0  0  0  0  0  0  0  0  0
   -7.7854   -0.6815   -0.2450 C   0  0  0  0  0  0  0  0  0  0  0  0
   -8.2998   -1.6825    0.7895 C   0  0  0  0  0  0  0  0  0  0  0  0
   -9.7922   -1.9570    0.6034 C   0  0  0  0  0  0  0  0  0  0  0  0
   -9.9374    0.2677   -0.5670 C   0  0  0  0  0  0  0  0  0  0  0  0
  -10.5820   -0.6549    0.4703 C   0  0  0  0  0  0  0  0  0  0  0  0
  -10.6394    1.6204   -0.6334 C   0  0  0  0  0  0  0  0  0  0  0  0
  1 14  1  0
  2 33  1  0
  2 37  1  0
  3 35  1  0
  3 38  1  0
  4 37  1  0
  4 41  1  0
  5 38  2  0
  6 39  1  0
  7 42  1  0
  7 44  1  0
  8 40  1  0
  9 43  1  0
 10 44  1  0
 10 47  1  0
 11 45  1  0
 12 46  1  0
 13 48  1  0
 14 15  1  0
 14 16  1  0
 14 22  1  0
 15 19  1  0
 15 20  1  0
 15 26  1  0
 16 17  1  0
 16 24  1  0
 17 18  1  0
 17 21  1  0
 18 25  1  0
 18 28  1  0
 18 29  1  0
 19 23  1  0
 19 30  1  0
 20 21  1  0
 22 23  1  0
 24 27  1  0
 25 27  1  0
 25 32  2  0
 28 31  1  0
 30 34  1  0
 30 35  2  0
 31 33  1  0
 32 33  1  0
 34 36  2  0
 36 38  1  0
 37 39  1  0
 39 40  1  0
 40 42  1  0
 41 42  1  0
 41 43  1  0
 44 45  1  0
 45 46  1  0
 46 48  1  0
 47 48  1  0
 47 49  1  0
M  END
>  <PUBCHEM_COMPOUND_CID>  (1) 
31310

>  <PUBCHEM_CONFORMER_RMSD>  (1) 
1.2

>  <PUBCHEM_CONFORMER_DIVERSEORDER>  (1) 
1
36
10
16
31
53
84
19
24
41
26
78
8
35
79
20
50
46
40
58
69
38
85
71
12
21
49
17
86
28
67
73
43
68
27
25
2
45
66
44
52
18
83
6
59
23
63
70
60
42
3
22
29
62
39
32
15
72
4
76
37
9
61
56
33
77
64
48
57
55
80
14
65
7
5
11
82
30
13
75
51
81
74
54
34
47

>  <PUBCHEM_MMFF94_PARTIAL_CHARGES>  (1) 
47
1 -0.68
10 -0.56
100 0.4
101 0.4
11 -0.68
12 -0.68
13 -0.68
14 0.28
18 0.14
19 0.14
2 -0.56
25 -0.28
27 0.14
3 -0.23
30 -0.14
32 -0.29
33 0.42
34 -0.15
35 -0.07
36 -0.14
37 0.56
38 0.71
39 0.28
4 -0.56
40 0.28
41 0.28
42 0.28
43 0.28
44 0.56
45 0.28
46 0.28
47 0.28
48 0.28
5 -0.57
6 -0.68
7 -0.56
70 0.4
76 0.15
78 0.15
79 0.15
8 -0.68
80 0.15
86 0.4
89 0.4
9 -0.68
93 0.4
99 0.4

>  <PUBCHEM_EFFECTIVE_ROTOR_COUNT>  (1) 
10.4

>  <PUBCHEM_PHARMACOPHORE_FEATURES>  (1) 
26
1 1 acceptor
1 1 donor
1 10 acceptor
1 11 acceptor
1 11 donor
1 12 acceptor
1 12 donor
1 13 acceptor
1 13 donor
1 2 acceptor
1 4 acceptor
1 5 acceptor
1 6 acceptor
1 6 donor
1 7 acceptor
1 8 acceptor
1 8 donor
1 9 acceptor
1 9 donor
5 14 15 19 22 23 rings
6 10 44 45 46 47 48 rings
6 14 15 16 17 20 21 rings
6 16 17 18 24 25 27 rings
6 18 25 28 31 32 33 rings
6 3 30 34 35 36 38 rings
6 4 37 39 40 41 42 rings

>  <PUBCHEM_HEAVY_ATOM_COUNT>  (1) 
49

>  <PUBCHEM_ATOM_DEF_STEREO_COUNT>  (1) 
17

>  <PUBCHEM_ATOM_UDEF_STEREO_COUNT>  (1) 
0

>  <PUBCHEM_BOND_DEF_STEREO_COUNT>  (1) 
0

>  <PUBCHEM_BOND_UDEF_STEREO_COUNT>  (1) 
0

>  <PUBCHEM_ISOTOPIC_ATOM_COUNT>  (1) 
0

>  <PUBCHEM_COMPONENT_COUNT>  (1) 
1

>  <PUBCHEM_CACTVS_TAUTO_COUNT>  (1) 
1

>  <PUBCHEM_CONFORMER_ID>  (1) 
00007A4E00000001

>  <PUBCHEM_MMFF94_ENERGY>  (1) 
168.0937

>  <PUBCHEM_FEATURE_SELFOVERLAP>  (1) 
132.295

>  <PUBCHEM_SHAPE_FINGERPRINT>  (1) 
10674148 151 14476963385434995783
11135926 11 17676211230660873762
11146851 88 12324240573070916719
11456790 92 13614520783970339979
12013929 2 18412543203322018249
12522641 33 12179843897292243672
12559415 43 8142088624747833143
12664476 115 16225765220366390164
131240 100 18261675964935280832
13553643 46 10952061052687034875
13811026 1 18343586235889045616
13947934 56 18342175548953536129
14118638 360 14562797834335784637
14444916 359 17561368388065192135
15247644 1 18412827971726930894
15510794 2 18411702088656215024
15890870 6 18333732416148554283
16728433 110 18202560701183756712
20105231 36 18411702119227764923
20156587 128 16298379120016867064
21792961 116 18272086090068010025
232437 2 18408604760147929192
24893992 56 17822009831268500056
3092352 35 17967813838808032938
335507 130 17989487420435545252
3525247 94 18114740431515141234
44389302 135 17203890747957865798
4516262 110 8646497305687065528
4625314 4 18187648050824960525
5028188 123 17312821594499782999
54039377 194 18341895208343310093
5719381 82 18272652346470502910
6057620 51 17603302631528869353
6126387 218 11527951153684907635
6673363 416 14851601073446899663
9663363 56 14764344933665906448
9937071 3 18060142033452525782

>  <PUBCHEM_SHAPE_MULTIPOLES>  (1) 
932.1
47.76
2.55
1.59
18.7
0.22
0.45
-23.53
1.37
2.34
-0.39
0.38
-0.46
0.96

>  <PUBCHEM_SHAPE_SELFOVERLAP>  (1) 
2001.959

>  <PUBCHEM_SHAPE_VOLUME>  (1) 
505.9

>  <PUBCHEM_COORDINATE_TYPE>  (1) 
2
5
10

$$$$
