31319
     RDKit          3D

 16 16  0  0  0  0  0  0  0  0999 V2000
    0.0082   -0.9171    2.1788 O   0  0  0  0  0  0  0  0  0  0  0  0
    0.4844    1.6468   -1.8572 O   0  0  0  0  0  0  0  0  0  0  0  0
    3.7170   -1.2968   -0.4853 O   0  0  0  0  0  0  0  0  0  0  0  0
    1.8435   -1.0844    0.8238 N   0  0  0  0  0  0  0  0  0  0  0  0
    2.0772    0.1681   -1.1436 N   0  0  0  0  0  0  0  0  0  0  0  0
    0.0188    0.4381    0.1808 C   0  0  0  0  0  0  0  0  0  0  0  0
   -0.3303    1.7199    0.9492 C   0  0  0  0  0  0  0  0  0  0  0  0
   -1.2200   -0.2101   -0.3710 C   0  0  0  0  0  0  0  0  0  0  0  0
    0.6039   -0.5678    1.1575 C   0  0  0  0  0  0  0  0  0  0  0  0
    0.8622    0.8196   -1.0248 C   0  0  0  0  0  0  0  0  0  0  0  0
    0.9041    2.3362    1.5722 C   0  0  0  0  0  0  0  0  0  0  0  0
   -2.4243    0.3696   -0.2068 C   0  0  0  0  0  0  0  0  0  0  0  0
   -0.9769   -1.5137   -1.0772 C   0  0  0  0  0  0  0  0  0  0  0  0
    2.6195   -0.7742   -0.2827 C   0  0  0  0  0  0  0  0  0  0  0  0
   -3.7537   -0.1120   -0.7121 C   0  0  0  0  0  0  0  0  0  0  0  0
   -4.4336   -1.0223    0.2984 C   0  0  0  0  0  0  0  0  0  0  0  0
  1  9  2  0
  2 10  2  0
  3 14  2  0
  4  9  1  0
  4 14  1  0
  5 10  1  0
  5 14  1  0
  6  7  1  0
  6  8  1  0
  6  9  1  0
  6 10  1  0
  7 11  1  0
  8 12  2  0
  8 13  1  0
 12 15  1  0
 15 16  1  0
M  END
>  <PUBCHEM_COMPOUND_CID>  (1) 
31319

>  <PUBCHEM_CONFORMER_RMSD>  (1) 
0.6

>  <PUBCHEM_CONFORMER_DIVERSEORDER>  (1) 
1
16
3
13
12
2
10
8
9
6
5
15
11
4
17
7
14

>  <PUBCHEM_MMFF94_PARTIAL_CHARGES>  (1) 
16
1 -0.57
10 0.57
12 -0.29
13 0.14
14 0.69
15 0.14
2 -0.57
22 0.15
26 0.37
27 0.37
3 -0.57
4 -0.49
5 -0.49
6 0.26
8 -0.28
9 0.57

>  <PUBCHEM_EFFECTIVE_ROTOR_COUNT>  (1) 
3.6

>  <PUBCHEM_PHARMACOPHORE_FEATURES>  (1) 
9
1 1 acceptor
1 11 hydrophobe
1 13 hydrophobe
1 16 hydrophobe
1 2 acceptor
1 3 acceptor
1 4 donor
1 5 donor
6 4 5 6 9 10 14 rings

>  <PUBCHEM_HEAVY_ATOM_COUNT>  (1) 
16

>  <PUBCHEM_ATOM_DEF_STEREO_COUNT>  (1) 
0

>  <PUBCHEM_ATOM_UDEF_STEREO_COUNT>  (1) 
0

>  <PUBCHEM_BOND_DEF_STEREO_COUNT>  (1) 
0

>  <PUBCHEM_BOND_UDEF_STEREO_COUNT>  (1) 
1

>  <PUBCHEM_ISOTOPIC_ATOM_COUNT>  (1) 
0

>  <PUBCHEM_COMPONENT_COUNT>  (1) 
1

>  <PUBCHEM_CACTVS_TAUTO_COUNT>  (1) 
5

>  <PUBCHEM_CONFORMER_ID>  (1) 
00007A5700000001

>  <PUBCHEM_MMFF94_ENERGY>  (1) 
34.8689

>  <PUBCHEM_FEATURE_SELFOVERLAP>  (1) 
45.713

>  <PUBCHEM_SHAPE_FINGERPRINT>  (1) 
10219947 1 13758069692917905887
11578080 2 18044907148508777756
12423570 1 13246998065317874429
13024252 1 15793162293466810886
13380536 53 16128659621886896428
13705890 14 17894917342687555847
14344429 50 18202281454688001597
14817 1 16532278589502913856
16945 1 18187654561082433396
19010151 120 17968380039734757260
20233049 118 18341044108760011829
20339313 130 17703793651963498233
21296965 67 18202002096982357832
21501502 16 17057792182280199815
23402539 116 17560512898301792332
23419403 2 18196342923730762556
3060560 45 16805597118555109759
3250762 1 16881912128778614798
528886 8 17312819368435293872
7364860 26 17915731179426917561

>  <PUBCHEM_SHAPE_MULTIPOLES>  (1) 
301.7
5.13
1.88
1.59
4.56
1.18
-0.04
-2.68
-0.14
-0.85
-0.22
-0.41
0.15
0.04

>  <PUBCHEM_SHAPE_SELFOVERLAP>  (1) 
620.137

>  <PUBCHEM_SHAPE_VOLUME>  (1) 
173.3

>  <PUBCHEM_COORDINATE_TYPE>  (1) 
2
5
10

$$$$
