31315
     RDKit          3D

 24 27  0  0  0  0  0  0  0  0999 V2000
   -0.1006   -0.0279   -2.8845 O   0  0  0  0  0  0  0  0  0  0  0  0
   -4.5664   -2.8501    0.8248 O   0  0  0  0  0  0  0  0  0  0  0  0
    4.7532   -2.6139    0.5111 O   0  0  0  0  0  0  0  0  0  0  0  0
   -0.1054    2.1115   -1.9301 N   0  0  0  0  0  0  0  0  0  0  0  0
   -0.0184    0.2534   -0.4068 C   0  0  0  0  0  0  0  0  0  0  0  0
   -0.0288    1.6122    0.2944 C   0  0  0  0  0  0  0  0  0  0  0  0
   -0.0807    0.7151   -1.9131 C   0  0  0  0  0  0  0  0  0  0  0  0
   -1.2213   -0.5675   -0.0816 C   0  0  0  0  0  0  0  0  0  0  0  0
    1.2434   -0.5048   -0.1635 C   0  0  0  0  0  0  0  0  0  0  0  0
   -0.0791    2.6384   -0.6476 C   0  0  0  0  0  0  0  0  0  0  0  0
   -0.0124    1.9193    1.6477 C   0  0  0  0  0  0  0  0  0  0  0  0
   -0.1050    3.9751   -0.2996 C   0  0  0  0  0  0  0  0  0  0  0  0
   -1.1503   -1.5438    0.9114 C   0  0  0  0  0  0  0  0  0  0  0  0
    1.4865   -1.6919   -0.8534 C   0  0  0  0  0  0  0  0  0  0  0  0
   -2.4154   -0.3571   -0.7701 C   0  0  0  0  0  0  0  0  0  0  0  0
    2.1788   -0.0256    0.7530 C   0  0  0  0  0  0  0  0  0  0  0  0
   -0.0380    3.2653    2.0267 C   0  0  0  0  0  0  0  0  0  0  0  0
   -0.0831    4.2848    1.0605 C   0  0  0  0  0  0  0  0  0  0  0  0
   -2.2748   -2.3107    1.2162 C   0  0  0  0  0  0  0  0  0  0  0  0
    2.6663   -2.4006   -0.6269 C   0  0  0  0  0  0  0  0  0  0  0  0
   -3.5400   -1.1241   -0.4654 C   0  0  0  0  0  0  0  0  0  0  0  0
    3.3587   -0.7343    0.9796 C   0  0  0  0  0  0  0  0  0  0  0  0
   -3.4695   -2.1010    0.5277 C   0  0  0  0  0  0  0  0  0  0  0  0
    3.6024   -1.9219    0.2897 C   0  0  0  0  0  0  0  0  0  0  0  0
  1  7  2  0
  2 23  1  0
  3 24  1  0
  4  7  1  0
  4 10  1  0
  5  6  1  0
  5  7  1  0
  5  8  1  0
  5  9  1  0
  6 10  2  0
  6 11  1  0
  8 13  2  0
  8 15  1  0
  9 14  2  0
  9 16  1  0
 10 12  1  0
 11 17  2  0
 12 18  2  0
 13 19  1  0
 14 20  1  0
 15 21  2  0
 16 22  2  0
 17 18  1  0
 19 23  2  0
 20 24  2  0
 21 23  1  0
 22 24  1  0
M  END
>  <PUBCHEM_COMPOUND_CID>  (1) 
31315

>  <PUBCHEM_CONFORMER_RMSD>  (1) 
0.6

>  <PUBCHEM_CONFORMER_DIVERSEORDER>  (1) 
1
2
3

>  <PUBCHEM_MMFF94_PARTIAL_CHARGES>  (1) 
39
1 -0.57
10 0.12
11 -0.15
12 -0.15
13 -0.15
14 -0.15
15 -0.15
16 -0.15
17 -0.15
18 -0.15
19 -0.15
2 -0.53
20 -0.15
21 -0.15
22 -0.15
23 0.08
24 0.08
25 0.37
26 0.15
27 0.15
28 0.15
29 0.15
3 -0.53
30 0.15
31 0.15
32 0.15
33 0.15
34 0.15
35 0.15
36 0.15
37 0.15
38 0.45
39 0.45
4 -0.55
5 0.49
6 -0.14
7 0.57
8 -0.14
9 -0.14

>  <PUBCHEM_EFFECTIVE_ROTOR_COUNT>  (1) 
2.4

>  <PUBCHEM_PHARMACOPHORE_FEATURES>  (1) 
8
1 1 acceptor
1 2 donor
1 3 donor
1 4 donor
5 4 5 6 7 10 rings
6 6 10 11 12 17 18 rings
6 8 13 15 19 21 23 rings
6 9 14 16 20 22 24 rings

>  <PUBCHEM_HEAVY_ATOM_COUNT>  (1) 
24

>  <PUBCHEM_ATOM_DEF_STEREO_COUNT>  (1) 
0

>  <PUBCHEM_ATOM_UDEF_STEREO_COUNT>  (1) 
0

>  <PUBCHEM_BOND_DEF_STEREO_COUNT>  (1) 
0

>  <PUBCHEM_BOND_UDEF_STEREO_COUNT>  (1) 
0

>  <PUBCHEM_ISOTOPIC_ATOM_COUNT>  (1) 
0

>  <PUBCHEM_COMPONENT_COUNT>  (1) 
1

>  <PUBCHEM_CACTVS_TAUTO_COUNT>  (1) 
6

>  <PUBCHEM_CONFORMER_ID>  (1) 
00007A5300000001

>  <PUBCHEM_MMFF94_ENERGY>  (1) 
87.5296

>  <PUBCHEM_FEATURE_SELFOVERLAP>  (1) 
40.684

>  <PUBCHEM_SHAPE_FINGERPRINT>  (1) 
107951 10 17334779682602214174
1100329 8 18265897956273597393
11578080 2 17822556309352928829
12082328 90 18198349460634599822
12549972 3 17411881900730133282
12788726 201 17980178813018292443
13004483 165 18411417276258235754
13134695 92 18342167925496491623
13140716 1 18339928125410098195
13533116 47 18048606103952793387
13681431 1 18267038312749629786
13955234 65 17905338668963216035
14713325 29 18127129659321370442
14787075 74 17839721695886470821
14817 1 15943379890882428845
14863182 85 16817716176103224315
14955137 171 18054242191401705498
15131766 46 16054307433603970666
16945 1 18045227286574572580
17868525 174 18339092570478775033
17980427 23 17489592277240097977
17980427 26 17695063701174301213
19591789 44 17257093091514716752
20600515 1 18260839201863165030
20602899 9 17320961067308065214
21120745 212 18195275285297552036
23419403 2 17901071377950843165
23558518 356 17765433149689294918
23559900 14 17681269181538258031
283562 15 18263643974732674570
298252 57 15308631999992533420
3380486 145 18055602196922217694
35225 105 17620507643013252120
3729539 64 17830759890636973516
394222 165 17268930360748407939
404807 78 17679019297924078845
4340502 62 17045990720126786401
495365 180 17908144631374784627
497634 4 18116438042834343414
5845 1 18335717013076658266
5895379 119 16984667946241968257
59755656 520 17546161901159413110
6442390 28 17474684848918436393
6443956 14 18410578422232957003
7364860 26 18047759487792020839
77188 2 18411139159935004664
81228 2 18192724336173264426
84936 31 17908128129450758121
9981440 41 17123055645078671146
9999458 23 17690848177846105357

>  <PUBCHEM_SHAPE_MULTIPOLES>  (1) 
471.32
5.38
4.95
1.82
0.85
5.28
-0.74
-8.69
1.6
-0.58
1.68
-0.21
0.83
0.65

>  <PUBCHEM_SHAPE_SELFOVERLAP>  (1) 
1069.84

>  <PUBCHEM_SHAPE_VOLUME>  (1) 
246.5

>  <PUBCHEM_COORDINATE_TYPE>  (1) 
2
5
10

$$$$
