31329
     RDKit          3D

 20 23  0  0  1  0  0  0  0  0999 V2000
   -4.1306    0.1011    0.9079 O   0  0  0  0  0  0  0  0  0  0  0  0
    3.0905   -1.3004    0.2219 N   0  0  0  0  0  0  0  0  0  0  0  0
    0.7974    0.7507    0.7309 C   0  0  0  0  0  0  0  0  0  0  0  0
    1.7881    0.5938   -0.4162 C   0  0  0  0  0  0  0  0  0  0  0  0
    1.8616   -0.9541   -0.4741 C   0  0  0  0  0  0  0  0  0  0  0  0
    1.5068    0.0007    1.9608 C   0  0  0  0  0  0  0  0  0  0  0  0
    0.6226    2.2574    1.0359 C   0  0  0  0  0  0  0  0  0  0  0  0
    1.4431    1.4031   -1.6806 C   0  0  0  0  0  0  0  0  0  0  0  0
   -0.5266    0.0388    0.2289 C   0  0  0  0  0  0  0  0  0  0  0  0
    0.8348   -1.4682   -1.4612 C   0  0  0  0  0  0  0  0  0  0  0  0
    2.9235   -0.7155    1.6202 C   0  0  0  0  0  0  0  0  0  0  0  0
    0.2742    3.0893   -0.2032 C   0  0  0  0  0  0  0  0  0  0  0  0
    1.2849    2.8835   -1.3304 C   0  0  0  0  0  0  0  0  0  0  0  0
   -0.5068   -0.9403   -0.8533 C   0  0  0  0  0  0  0  0  0  0  0  0
   -1.7595    0.3500    0.8154 C   0  0  0  0  0  0  0  0  0  0  0  0
    3.3489   -2.7347    0.2530 C   0  0  0  0  0  0  0  0  0  0  0  0
   -1.7036   -1.4899   -1.3239 C   0  0  0  0  0  0  0  0  0  0  0  0
   -2.9385   -0.2248    0.3323 C   0  0  0  0  0  0  0  0  0  0  0  0
   -2.9124   -1.1260   -0.7342 C   0  0  0  0  0  0  0  0  0  0  0  0
   -5.2986   -0.5145    0.3698 C   0  0  0  0  0  0  0  0  0  0  0  0
  1 18  1  0
  1 20  1  0
  2  5  1  0
  2 11  1  0
  2 16  1  0
  3  4  1  0
  3  6  1  0
  3  7  1  0
  3  9  1  0
  4  5  1  0
  4  8  1  0
  5 10  1  0
  6 11  1  0
  7 12  1  0
  8 13  1  0
  9 14  2  0
  9 15  1  0
 10 14  1  0
 12 13  1  0
 14 17  1  0
 15 18  2  0
 17 19  2  0
 18 19  1  0
M  END
>  <PUBCHEM_COMPOUND_CID>  (1) 
31329

>  <PUBCHEM_CONFORMER_RMSD>  (1) 
0.6

>  <PUBCHEM_CONFORMER_DIVERSEORDER>  (1) 
1
2

>  <PUBCHEM_MMFF94_PARTIAL_CHARGES>  (1) 
17
1 -0.36
10 0.14
11 0.27
14 -0.14
15 -0.15
16 0.27
17 -0.15
18 0.08
19 -0.15
2 -0.81
20 0.28
3 0.14
37 0.15
41 0.15
42 0.15
5 0.27
9 -0.14

>  <PUBCHEM_EFFECTIVE_ROTOR_COUNT>  (1) 
2.6

>  <PUBCHEM_PHARMACOPHORE_FEATURES>  (1) 
6
1 1 acceptor
1 2 cation
6 2 3 4 5 6 11 rings
6 3 4 5 9 10 14 rings
6 3 4 7 8 12 13 rings
6 9 14 15 17 18 19 rings

>  <PUBCHEM_HEAVY_ATOM_COUNT>  (1) 
20

>  <PUBCHEM_ATOM_DEF_STEREO_COUNT>  (1) 
3

>  <PUBCHEM_ATOM_UDEF_STEREO_COUNT>  (1) 
0

>  <PUBCHEM_BOND_DEF_STEREO_COUNT>  (1) 
0

>  <PUBCHEM_BOND_UDEF_STEREO_COUNT>  (1) 
0

>  <PUBCHEM_ISOTOPIC_ATOM_COUNT>  (1) 
0

>  <PUBCHEM_COMPONENT_COUNT>  (1) 
1

>  <PUBCHEM_CACTVS_TAUTO_COUNT>  (1) 
1

>  <PUBCHEM_CONFORMER_ID>  (1) 
00007A6100000001

>  <PUBCHEM_MMFF94_ENERGY>  (1) 
145.1131

>  <PUBCHEM_FEATURE_SELFOVERLAP>  (1) 
31.315

>  <PUBCHEM_SHAPE_FINGERPRINT>  (1) 
10382601 240 18117280461155080053
10948715 1 17611760289312054588
11086676 242 18411975845476461560
11578080 2 18269254795586012128
12326174 3 17823400777343242800
12423570 1 13126526801466876788
12644460 14 18266480847970495249
13132413 78 18201995577480816084
13134695 92 18410284813836420125
13140716 1 17917706967858132939
13681431 1 18187072984246395676
14181834 199 18272079552067190412
14817 1 10965563746316258152
14955137 171 18338802342010873456
15852999 172 12967126146485065805
16945 1 17844529903315542830
17093844 170 17474958619104054613
17349148 13 17917982894016594183
17357779 13 18054490435847175957
17980427 23 15984235539821277793
1813 80 18261389997417509970
19765921 60 17764324120356410140
19930374 2 17545889230628353804
20233049 118 17703804650974063329
20339313 130 18260547818280266737
20361792 2 18188478104024204930
20511035 2 17845087548615445919
20559304 39 18271813453368635873
20645476 183 18126574641882316887
21041028 32 18260824869435868645
21296965 67 18261672567283606064
21330990 113 17774163371225670230
21524375 3 17248923689845132228
22112679 90 18046649827341433028
2255824 54 18263647427484784487
23419403 2 18195782138467153948
23559900 14 18334019419259468267
25 1 17826525640765804068
2748010 2 17699020487293133991
31174 14 17968095382340235277
3286 77 17312816087491853555
394222 165 18122072158624819776
430814 3 17685495746694271004
5845 1 11279526147679953364
6786 2 16812674820784214836
7097593 13 18341323478902378919
7364860 26 18263926699275355360
81228 2 17977959985557716944

>  <PUBCHEM_SHAPE_MULTIPOLES>  (1) 
400.74
6.02
2.81
1.63
8.32
1.65
-0.05
-3.34
-1.73
-2.39
0.78
-0.68
0.15
-0.86

>  <PUBCHEM_SHAPE_SELFOVERLAP>  (1) 
861.999

>  <PUBCHEM_SHAPE_VOLUME>  (1) 
221

>  <PUBCHEM_COORDINATE_TYPE>  (1) 
2
5
10

$$$$
