31325
     RDKit          3D

 18 20  0  0  1  0  0  0  0  0999 V2000
   -1.2637    2.0345   -1.1106 S   0  0  0  0  0  0  0  0  0  0  0  0
   -0.6011   -0.8465   -2.3572 O   0  0  0  0  0  0  0  0  0  0  0  0
   -1.0212   -3.6009    1.2692 O   0  0  0  0  0  0  0  0  0  0  0  0
   -0.4576   -1.3428    1.0768 N   0  0  0  0  0  0  0  0  0  0  0  0
   -0.8743   -2.5000   -0.7698 N   0  0  0  0  0  0  0  0  0  0  0  0
   -0.2638   -0.3364    0.0325 C   0  0  0  0  0  0  0  0  0  0  0  0
    1.1884    0.1462    0.1015 C   0  0  0  0  0  0  0  0  0  0  0  0
   -1.2826    0.8080    0.0931 C   0  0  0  0  0  0  0  0  0  0  0  0
   -0.5887   -1.2247   -1.1917 C   0  0  0  0  0  0  0  0  0  0  0  0
   -0.8093   -2.6014    0.5967 C   0  0  0  0  0  0  0  0  0  0  0  0
    1.6339    0.8608    1.2135 C   0  0  0  0  0  0  0  0  0  0  0  0
    2.0653   -0.1286   -0.9479 C   0  0  0  0  0  0  0  0  0  0  0  0
   -2.2846    1.0318    1.0231 C   0  0  0  0  0  0  0  0  0  0  0  0
   -3.0338    2.2109    0.7429 C   0  0  0  0  0  0  0  0  0  0  0  0
    2.9562    1.3004    1.2761 C   0  0  0  0  0  0  0  0  0  0  0  0
    3.3877    0.3107   -0.8852 C   0  0  0  0  0  0  0  0  0  0  0  0
   -2.5840    2.8527   -0.3900 C   0  0  0  0  0  0  0  0  0  0  0  0
    3.8332    1.0254    0.2268 C   0  0  0  0  0  0  0  0  0  0  0  0
  1  8  1  0
  1 17  1  0
  2  9  2  0
  3 10  2  0
  4  6  1  0
  4 10  1  0
  5  9  1  0
  5 10  1  0
  6  7  1  0
  6  8  1  0
  6  9  1  0
  7 11  2  0
  7 12  1  0
  8 13  2  0
 11 15  1  0
 12 16  2  0
 13 14  1  0
 14 17  2  0
 15 18  2  0
 16 18  1  0
M  END
>  <PUBCHEM_COMPOUND_CID>  (1) 
31325

>  <PUBCHEM_CONFORMER_RMSD>  (1) 
0.6

>  <PUBCHEM_CONFORMER_DIVERSEORDER>  (1) 
1
2
7
8
5
4
3
6

>  <PUBCHEM_MMFF94_PARTIAL_CHARGES>  (1) 
28
1 -0.08
10 0.69
11 -0.15
12 -0.15
13 -0.15
14 -0.15
15 -0.15
16 -0.15
17 -0.11
18 -0.15
19 0.37
2 -0.57
20 0.37
21 0.15
22 0.15
23 0.15
24 0.15
25 0.15
26 0.15
27 0.15
28 0.15
3 -0.57
4 -0.73
5 -0.49
6 0.68
7 -0.14
8 -0.14
9 0.57

>  <PUBCHEM_EFFECTIVE_ROTOR_COUNT>  (1) 
2.6

>  <PUBCHEM_PHARMACOPHORE_FEATURES>  (1) 
7
1 2 acceptor
1 3 acceptor
1 4 donor
1 5 donor
5 1 8 13 14 17 rings
5 4 5 6 9 10 rings
6 7 11 12 15 16 18 rings

>  <PUBCHEM_HEAVY_ATOM_COUNT>  (1) 
18

>  <PUBCHEM_ATOM_DEF_STEREO_COUNT>  (1) 
0

>  <PUBCHEM_ATOM_UDEF_STEREO_COUNT>  (1) 
1

>  <PUBCHEM_BOND_DEF_STEREO_COUNT>  (1) 
0

>  <PUBCHEM_BOND_UDEF_STEREO_COUNT>  (1) 
0

>  <PUBCHEM_ISOTOPIC_ATOM_COUNT>  (1) 
0

>  <PUBCHEM_COMPONENT_COUNT>  (1) 
1

>  <PUBCHEM_CACTVS_TAUTO_COUNT>  (1) 
5

>  <PUBCHEM_CONFORMER_ID>  (1) 
00007A5D00000001

>  <PUBCHEM_MMFF94_ENERGY>  (1) 
42.727

>  <PUBCHEM_FEATURE_SELFOVERLAP>  (1) 
35.596

>  <PUBCHEM_SHAPE_FINGERPRINT>  (1) 
1 1 18049156666238512668
10922049 32 18270409286672782289
12138202 97 18131066048023706612
12326174 3 17623011196767174309
12423570 1 14251819386737727583
12532896 13 18412255117082292656
12730499 353 18050856520591784697
13134695 92 16896773793559703357
13294875 104 17911215253433305384
13464514 151 17476656281814950472
13538477 17 17968660544027863872
14178342 30 18261384611844850402
14817 1 12641208269850740631
15309172 13 18336548205292224497
15490181 7 18268140968462213037
15906896 17 18411417349325180191
16945 1 18337121171040223697
18186145 218 17917152671963256000
20600515 1 17324037865941292920
20602899 9 15841554076174039764
20645476 183 18334864891939846904
20711985 344 18267291217730592034
21524375 3 18270114596007900853
21731228 192 18337671910407124728
22112679 90 17758143739758097257
23419403 2 17124570844625475823
23557571 272 17976532029655247568
25 1 17844536504490749352
298252 57 17346028953158238684
31174 14 17617667553477701601
427121 178 18195833798454694233
6442390 28 18338813221083809025
68419 9 17553435325048385119
7364860 26 17689434884639802577
81228 2 18266452298921997369
81539 233 18120936109952953565
9981440 41 16842438476336899512

>  <PUBCHEM_SHAPE_MULTIPOLES>  (1) 
352.58
4.74
3.34
1.55
2.52
2.92
0.39
-4.72
-0.52
-2.14
-0.69
0
0.29
0.45

>  <PUBCHEM_SHAPE_SELFOVERLAP>  (1) 
764.903

>  <PUBCHEM_SHAPE_VOLUME>  (1) 
194.2

>  <PUBCHEM_COORDINATE_TYPE>  (1) 
2
5
10

$$$$
