31331
     RDKit          3D

 21 22  0  0  1  0  0  0  0  0999 V2000
    2.8916   -1.1427   -0.2283 N   0  0  0  0  0  0  0  0  0  0  0  0
    0.8025   -0.9965   -2.5361 N   0  0  0  0  0  0  0  0  0  0  0  0
   -0.1616   -0.2871   -0.1666 C   0  0  0  0  0  0  0  0  0  0  0  0
    0.6764   -1.0458    0.9351 C   0  0  0  0  0  0  0  0  0  0  0  0
    2.2025   -0.7727    1.0059 C   0  0  0  0  0  0  0  0  0  0  0  0
    0.0207    1.2564   -0.1050 C   0  0  0  0  0  0  0  0  0  0  0  0
   -1.6553   -0.6403    0.0354 C   0  0  0  0  0  0  0  0  0  0  0  0
    2.8197   -1.5522    2.1710 C   0  0  0  0  0  0  0  0  0  0  0  0
    0.3744   -0.6965   -1.4991 C   0  0  0  0  0  0  0  0  0  0  0  0
   -0.0298    1.9477   -1.2796 C   0  0  0  0  0  0  0  0  0  0  0  0
   -2.3095   -1.2681   -0.9881 C   0  0  0  0  0  0  0  0  0  0  0  0
    0.2198    1.8221    1.1200 C   0  0  0  0  0  0  0  0  0  0  0  0
   -2.2376   -0.3046    1.2262 C   0  0  0  0  0  0  0  0  0  0  0  0
    2.7549   -2.5771   -0.4813 C   0  0  0  0  0  0  0  0  0  0  0  0
    4.3043   -0.7695   -0.1581 C   0  0  0  0  0  0  0  0  0  0  0  0
    0.1340    3.3317   -1.2243 C   0  0  0  0  0  0  0  0  0  0  0  0
   -3.6553   -1.5862   -0.8061 C   0  0  0  0  0  0  0  0  0  0  0  0
    0.3836    3.2063    1.1754 C   0  0  0  0  0  0  0  0  0  0  0  0
   -3.5835   -0.6225    1.4081 C   0  0  0  0  0  0  0  0  0  0  0  0
    0.3406    3.9611    0.0033 C   0  0  0  0  0  0  0  0  0  0  0  0
   -4.2923   -1.2635    0.3921 C   0  0  0  0  0  0  0  0  0  0  0  0
  1  5  1  0
  1 14  1  0
  1 15  1  0
  2  9  3  0
  3  4  1  0
  3  6  1  0
  3  7  1  0
  3  9  1  0
  4  5  1  0
  5  8  1  0
  6 10  2  0
  6 12  1  0
  7 11  2  0
  7 13  1  0
 10 16  1  0
 11 17  1  0
 12 18  2  0
 13 19  2  0
 16 20  2  0
 17 21  2  0
 18 20  1  0
 19 21  1  0
M  END
>  <PUBCHEM_COMPOUND_CID>  (1) 
31331

>  <PUBCHEM_CONFORMER_RMSD>  (1) 
0.8

>  <PUBCHEM_CONFORMER_DIVERSEORDER>  (1) 
2
12
8
9
16
11
14
7
15
6
1
5
3
13
10
4

>  <PUBCHEM_MMFF94_PARTIAL_CHARGES>  (1) 
29
1 -0.81
10 -0.15
11 -0.15
12 -0.15
13 -0.15
14 0.27
15 0.27
16 -0.15
17 -0.15
18 -0.15
19 -0.15
2 -0.56
20 -0.15
21 -0.15
28 0.15
29 0.15
3 0.49
30 0.15
31 0.15
38 0.15
39 0.15
40 0.15
41 0.15
42 0.15
43 0.15
5 0.27
6 -0.14
7 -0.14
9 0.36

>  <PUBCHEM_EFFECTIVE_ROTOR_COUNT>  (1) 
5

>  <PUBCHEM_PHARMACOPHORE_FEATURES>  (1) 
4
1 1 cation
1 2 acceptor
6 6 10 12 16 18 20 rings
6 7 11 13 17 19 21 rings

>  <PUBCHEM_HEAVY_ATOM_COUNT>  (1) 
21

>  <PUBCHEM_ATOM_DEF_STEREO_COUNT>  (1) 
0

>  <PUBCHEM_ATOM_UDEF_STEREO_COUNT>  (1) 
1

>  <PUBCHEM_BOND_DEF_STEREO_COUNT>  (1) 
0

>  <PUBCHEM_BOND_UDEF_STEREO_COUNT>  (1) 
0

>  <PUBCHEM_ISOTOPIC_ATOM_COUNT>  (1) 
0

>  <PUBCHEM_COMPONENT_COUNT>  (1) 
1

>  <PUBCHEM_CACTVS_TAUTO_COUNT>  (1) 
1

>  <PUBCHEM_CONFORMER_ID>  (1) 
00007A6300000002

>  <PUBCHEM_MMFF94_ENERGY>  (1) 
85.9328

>  <PUBCHEM_FEATURE_SELFOVERLAP>  (1) 
20.297

>  <PUBCHEM_SHAPE_FINGERPRINT>  (1) 
10764073 3 15694373290686986930
11578080 2 17604406570772094877
12553582 1 18410285908873933922
12643181 29 16827286832561406414
12788726 201 18044933480767938672
13004483 165 18265892450098890419
13132413 78 18408611344248716217
13134695 92 18339357565101864365
13149001 5 17970078943876682426
133893 2 18192992853597529621
13681431 1 18335704991468581713
14181834 199 18199754811469548565
14347332 77 18266747879415970166
14713325 29 17770230358288208574
14787075 74 18114753753770047582
14817 1 13230189650569778932
14840074 17 17831829694070967240
14955137 171 18126591086963978826
15238133 3 17971220070212358633
16945 1 18194402427161667825
17980427 23 17704070720493725569
1813 80 18341628004767665607
20600515 1 18339380607258580775
20645476 183 17327164456530874832
21304303 282 16889711725122202588
21330990 113 17274275945685416862
21524375 3 17478340085526348661
22112679 90 18121250634423237033
2255824 54 18122066665413992671
22907989 373 18051700949367770500
23419403 2 17463365651698970892
23557571 272 18268720415580424798
23558518 356 17327719718297949719
23559900 14 16951691488149563899
23598288 3 18049991204613196538
35225 105 17687752631601366464
394222 165 17767970096993136257
4175511 71 18411705391538728715
6442390 28 17190678779356060881
6786 2 11724300964809641093
7364860 26 18195808702696883385
7615 1 17844814874902131979
81228 2 18047465634561346809
84936 31 18124585650758562937
90316 7 18269552745592403411
9981440 41 16833974221030649906

>  <PUBCHEM_SHAPE_MULTIPOLES>  (1) 
422.21
5.7
3.83
1.83
2.2
5.23
0.18
-5.84
-1.16
-1.68
0.2
-0.34
-0.29
-0.24

>  <PUBCHEM_SHAPE_SELFOVERLAP>  (1) 
896.911

>  <PUBCHEM_SHAPE_VOLUME>  (1) 
233.2

>  <PUBCHEM_COORDINATE_TYPE>  (1) 
2
5
10

$$$$
