31354
     RDKit          3D

 11 10  0  0  0  0  0  0  0  0999 V2000
   -0.0730    0.1087   -2.4777 S   0  0  0  0  0  0  0  0  0  0  0  0
    0.0060    0.0391   -0.5322 P   0  0  0  0  0  0  0  0  0  0  0  0
    0.3875   -1.3962    0.1321 O   0  0  0  0  0  0  0  0  0  0  0  0
   -1.3609    0.4114    0.2680 O   0  0  0  0  0  0  0  0  0  0  0  0
    1.0804    1.0242    0.1904 O   0  0  0  0  0  0  0  0  0  0  0  0
   -0.5191   -2.4815    0.0317 C   0  0  0  0  0  0  0  0  0  0  0  0
   -2.0377    1.6232   -0.0208 C   0  0  0  0  0  0  0  0  0  0  0  0
    2.4693    0.7920    0.0269 C   0  0  0  0  0  0  0  0  0  0  0  0
    0.0758   -3.6869    0.7281 C   0  0  0  0  0  0  0  0  0  0  0  0
   -3.2674    1.7222    0.8566 C   0  0  0  0  0  0  0  0  0  0  0  0
    3.2390    1.8439    0.7970 C   0  0  0  0  0  0  0  0  0  0  0  0
  1  2  2  0
  2  3  1  0
  2  4  1  0
  2  5  1  0
  3  6  1  0
  4  7  1  0
  5  8  1  0
  6  9  1  0
  7 10  1  0
  8 11  1  0
M  END
>  <PUBCHEM_COMPOUND_CID>  (1) 
31354

>  <PUBCHEM_CONFORMER_RMSD>  (1) 
0.6

>  <PUBCHEM_CONFORMER_DIVERSEORDER>  (1) 
1
20
18
23
22
6
21
19
14
17
15
12
13
16
3
5
8
11
7
4
9
10
2

>  <PUBCHEM_MMFF94_PARTIAL_CHARGES>  (1) 
8
1 -0.68
2 1.49
3 -0.55
4 -0.55
5 -0.55
6 0.28
7 0.28
8 0.28

>  <PUBCHEM_EFFECTIVE_ROTOR_COUNT>  (1) 
6

>  <PUBCHEM_PHARMACOPHORE_FEATURES>  (1) 
0

>  <PUBCHEM_HEAVY_ATOM_COUNT>  (1) 
11

>  <PUBCHEM_ATOM_DEF_STEREO_COUNT>  (1) 
0

>  <PUBCHEM_ATOM_UDEF_STEREO_COUNT>  (1) 
0

>  <PUBCHEM_BOND_DEF_STEREO_COUNT>  (1) 
0

>  <PUBCHEM_BOND_UDEF_STEREO_COUNT>  (1) 
0

>  <PUBCHEM_ISOTOPIC_ATOM_COUNT>  (1) 
0

>  <PUBCHEM_COMPONENT_COUNT>  (1) 
1

>  <PUBCHEM_CACTVS_TAUTO_COUNT>  (1) 
1

>  <PUBCHEM_CONFORMER_ID>  (1) 
00007A7A00000001

>  <PUBCHEM_MMFF94_ENERGY>  (1) 
0.6087

>  <PUBCHEM_FEATURE_SELFOVERLAP>  (1) 
0

>  <PUBCHEM_SHAPE_FINGERPRINT>  (1) 
1 1 18265899059778849352
14817 1 12625230939859087605
170605 34 17917717842562507865
17841504 4 17689158907400708929
19021347 4 18410856585414900907
20711978 78 17830721076378468405
20711985 344 17616289151820768870
21061003 4 17614829722055043578
21524375 3 18131625668992721945
23211744 41 18131082527602276757
23419403 2 16766819529164715686
58734985 188 17689716363674298763
68250623 7 17989483009066445031
68419 9 17055506121164215333
76951 1 17693132610704884711
81228 2 18050286165290980722

>  <PUBCHEM_SHAPE_MULTIPOLES>  (1) 
216.47
3.84
3.62
1.52
0.48
4.82
1.49
-4.73
-1.93
-0.3
-1.64
-0.09
-0.14
-0.02

>  <PUBCHEM_SHAPE_SELFOVERLAP>  (1) 
364.497

>  <PUBCHEM_SHAPE_VOLUME>  (1) 
148.1

>  <PUBCHEM_COORDINATE_TYPE>  (1) 
2
5
10

$$$$
