3135
     RDKit          3D

 20 22  0  0  0  0  0  0  0  0999 V2000
    0.1147   -1.8684    0.2072 O   0  0  0  0  0  0  0  0  0  0  0  0
    2.4768   -1.8343    0.2066 N   0  0  0  0  0  0  0  0  0  0  0  0
   -5.1072   -0.1317    0.0085 N   0  0  0  0  0  0  0  0  0  0  0  0
    2.8503    0.4209   -0.0444 C   0  0  0  0  0  0  0  0  0  0  0  0
    1.4118    0.1790   -0.0191 C   0  0  0  0  0  0  0  0  0  0  0  0
    3.4495   -0.8344    0.0964 C   0  0  0  0  0  0  0  0  0  0  0  0
    0.4180    1.0639   -0.1187 C   0  0  0  0  0  0  0  0  0  0  0  0
    1.1873   -1.2964    0.1450 C   0  0  0  0  0  0  0  0  0  0  0  0
   -1.0228    0.7524   -0.0857 C   0  0  0  0  0  0  0  0  0  0  0  0
    3.6216    1.5608   -0.1696 C   0  0  0  0  0  0  0  0  0  0  0  0
   -3.7291    0.1670   -0.0233 C   0  0  0  0  0  0  0  0  0  0  0  0
    4.8203   -1.0012    0.1172 C   0  0  0  0  0  0  0  0  0  0  0  0
   -1.6882    0.4979   -1.2733 C   0  0  0  0  0  0  0  0  0  0  0  0
   -1.6811    0.7207    1.1324 C   0  0  0  0  0  0  0  0  0  0  0  0
   -3.0512    0.2030   -1.2418 C   0  0  0  0  0  0  0  0  0  0  0  0
   -3.0440    0.4257    1.1639 C   0  0  0  0  0  0  0  0  0  0  0  0
    5.0128    1.4146   -0.1510 C   0  0  0  0  0  0  0  0  0  0  0  0
    5.6062    0.1460   -0.0090 C   0  0  0  0  0  0  0  0  0  0  0  0
   -5.6944   -0.9951   -0.9966 C   0  0  0  0  0  0  0  0  0  0  0  0
   -5.9515    0.4097    1.0550 C   0  0  0  0  0  0  0  0  0  0  0  0
  1  8  2  0
  2  6  1  0
  2  8  1  0
  3 11  1  0
  3 19  1  0
  3 20  1  0
  4  5  1  0
  4  6  2  0
  4 10  1  0
  5  7  2  0
  5  8  1  0
  6 12  1  0
  7  9  1  0
  9 13  2  0
  9 14  1  0
 10 17  2  0
 11 15  2  0
 11 16  1  0
 12 18  2  0
 13 15  1  0
 14 16  2  0
 17 18  1  0
M  END
>  <PUBCHEM_COMPOUND_CID>  (1) 
3135

>  <PUBCHEM_CONFORMER_RMSD>  (1) 
0.6

>  <PUBCHEM_CONFORMER_DIVERSEORDER>  (1) 
1

>  <PUBCHEM_MMFF94_PARTIAL_CHARGES>  (1) 
30
1 -0.57
10 -0.15
11 0.1
12 -0.15
13 -0.15
14 -0.15
15 -0.15
16 -0.15
17 -0.15
18 -0.15
19 0.37
2 -0.55
20 0.37
21 0.15
22 0.37
23 0.15
24 0.15
25 0.15
26 0.15
27 0.15
28 0.15
29 0.15
3 -0.84
30 0.15
4 0.03
5 -0.01
6 0.12
7 -0.18
8 0.62
9 0.03

>  <PUBCHEM_EFFECTIVE_ROTOR_COUNT>  (1) 
2.2

>  <PUBCHEM_PHARMACOPHORE_FEATURES>  (1) 
6
1 1 acceptor
1 2 donor
1 3 cation
5 2 4 5 6 8 rings
6 4 6 10 12 17 18 rings
6 9 11 13 14 15 16 rings

>  <PUBCHEM_HEAVY_ATOM_COUNT>  (1) 
20

>  <PUBCHEM_ATOM_DEF_STEREO_COUNT>  (1) 
0

>  <PUBCHEM_ATOM_UDEF_STEREO_COUNT>  (1) 
0

>  <PUBCHEM_BOND_DEF_STEREO_COUNT>  (1) 
0

>  <PUBCHEM_BOND_UDEF_STEREO_COUNT>  (1) 
1

>  <PUBCHEM_ISOTOPIC_ATOM_COUNT>  (1) 
0

>  <PUBCHEM_COMPONENT_COUNT>  (1) 
1

>  <PUBCHEM_CACTVS_TAUTO_COUNT>  (1) 
2

>  <PUBCHEM_CONFORMER_ID>  (1) 
00000C3F00000001

>  <PUBCHEM_MMFF94_ENERGY>  (1) 
83.5804

>  <PUBCHEM_FEATURE_SELFOVERLAP>  (1) 
30.535

>  <PUBCHEM_SHAPE_FINGERPRINT>  (1) 
10 15 17749383828659307424
10366900 7 17676212342682980096
12107183 9 17479748113028225073
12236239 1 17989488519662407461
12403259 415 18259977180773749004
12596602 18 17704071823962645875
12616971 3 18271800216131658934
128620 24 18412261726962978412
12916748 109 16272211890327238208
13009979 54 17556859123112298290
13533116 47 18272089371058728658
13583140 156 16877939460492895328
13862211 1 18336543812363379666
1420 363 17676210169186753137
14341114 328 18131637768358167355
14386348 63 17530970176452350745
14528608 73 18412546530660831540
14787075 74 18343021107564266315
15375358 24 17530685407209382769
17834072 33 18273495684626313333
19489759 90 15647049356992727077
200 152 18411697677777607929
20028762 73 18270956852481565934
20279233 1 17385730179153994624
20645477 70 18261388902301160666
20681677 155 16845287259002709863
21033648 29 17968642891781421068
21065198 48 18131073680101230169
21267235 1 18338521846613682134
21623969 137 18261686930097706883
22079108 93 18272645792361075832
22854114 59 18261112967383661044
2297311 6 15626232328834526497
23402539 116 17561079211309727157
23536379 177 16415484839780081764
23557571 272 16805321050620212117
23559900 14 16153432710220232938
23569943 247 17699022686866204830
26918003 58 18334862718691481833
335352 9 18409171035381821644
33824 294 18187646877739719850
34797466 226 15697721518859362280
351380 180 16949999240178514332
3545911 37 18334577958375921822
42630746 31 18411702076124747510
4325135 7 18411979178513618639
4340502 62 16877661266612651874
474229 33 18335701658584743370
5104073 3 18042399136520487696
5283173 99 17313653850885927733
542803 24 17846499227309151249
602551 16 15625646314895877862
7495541 125 16845286176570646554

>  <PUBCHEM_SHAPE_MULTIPOLES>  (1) 
395.76
13.5
1.48
1.02
5.01
0.37
-0.05
-0.05
0.16
-1.32
0.03
1.3
-0.1
-0.75

>  <PUBCHEM_SHAPE_SELFOVERLAP>  (1) 
869.491

>  <PUBCHEM_SHAPE_VOLUME>  (1) 
215.6

>  <PUBCHEM_COORDINATE_TYPE>  (1) 
2
5
10

$$$$
