31358
     RDKit          3D

 10 10  0  0  0  0  0  0  0  0999 V2000
    1.4669   -2.2871   -0.2920 O   0  0  0  0  0  0  0  0  0  0  0  0
    1.4670    2.2870   -0.2921 O   0  0  0  0  0  0  0  0  0  0  0  0
   -1.2771    0.0000   -0.0037 C   0  0  0  0  0  0  0  0  0  0  0  0
   -0.5496   -1.2621    0.4943 C   0  0  0  0  0  0  0  0  0  0  0  0
   -0.5496    1.2622    0.4944 C   0  0  0  0  0  0  0  0  0  0  0  0
   -1.3689    0.0000   -1.5422 C   0  0  0  0  0  0  0  0  0  0  0  0
   -2.7089    0.0000    0.5635 C   0  0  0  0  0  0  0  0  0  0  0  0
    0.9127   -1.2628    0.1074 C   0  0  0  0  0  0  0  0  0  0  0  0
    0.9127    1.2629    0.1073 C   0  0  0  0  0  0  0  0  0  0  0  0
    1.6947   -0.0001    0.3629 C   0  0  0  0  0  0  0  0  0  0  0  0
  1  8  2  0
  2  9  2  0
  3  4  1  0
  3  5  1  0
  3  6  1  0
  3  7  1  0
  4  8  1  0
  5  9  1  0
  8 10  1  0
  9 10  1  0
M  END
>  <PUBCHEM_COMPOUND_CID>  (1) 
31358

>  <PUBCHEM_CONFORMER_RMSD>  (1) 
0.4

>  <PUBCHEM_CONFORMER_DIVERSEORDER>  (1) 
1
2
3

>  <PUBCHEM_MMFF94_PARTIAL_CHARGES>  (1) 
7
1 -0.57
10 0.12
2 -0.57
4 0.06
5 0.06
8 0.45
9 0.45

>  <PUBCHEM_EFFECTIVE_ROTOR_COUNT>  (1) 
0.8

>  <PUBCHEM_PHARMACOPHORE_FEATURES>  (1) 
5
1 1 acceptor
1 10 anion
1 2 acceptor
3 3 6 7 hydrophobe
6 3 4 5 8 9 10 rings

>  <PUBCHEM_HEAVY_ATOM_COUNT>  (1) 
10

>  <PUBCHEM_ATOM_DEF_STEREO_COUNT>  (1) 
0

>  <PUBCHEM_ATOM_UDEF_STEREO_COUNT>  (1) 
0

>  <PUBCHEM_BOND_DEF_STEREO_COUNT>  (1) 
0

>  <PUBCHEM_BOND_UDEF_STEREO_COUNT>  (1) 
0

>  <PUBCHEM_ISOTOPIC_ATOM_COUNT>  (1) 
0

>  <PUBCHEM_COMPONENT_COUNT>  (1) 
1

>  <PUBCHEM_CACTVS_TAUTO_COUNT>  (1) 
5

>  <PUBCHEM_CONFORMER_ID>  (1) 
00007A7E00000001

>  <PUBCHEM_MMFF94_ENERGY>  (1) 
18.1797

>  <PUBCHEM_FEATURE_SELFOVERLAP>  (1) 
25.371

>  <PUBCHEM_SHAPE_FINGERPRINT>  (1) 
12423570 1 12939077248462681561
13024252 1 14205572188043136304
14817 1 10797025801978561478
16945 1 18410860962171159137
18185500 45 18129929135493422551
20711978 78 18410854356558937215
21040471 1 17907578377990054592
21922407 69 16413756406942243627
23235685 24 18338232781670227752
23552423 10 18412829092364299911
241688 4 17906172854263487554
2748010 2 15672674196805634112
29004967 10 18337388236454475411
5084963 1 17753309156960435193
528862 383 18408603694806096961

>  <PUBCHEM_SHAPE_MULTIPOLES>  (1) 
194.06
2.61
2.07
0.96
1.02
0
0.32
0
-0.18
-1.39
0.07
0.43
0
0

>  <PUBCHEM_SHAPE_SELFOVERLAP>  (1) 
388.953

>  <PUBCHEM_SHAPE_VOLUME>  (1) 
113.9

>  <PUBCHEM_COORDINATE_TYPE>  (1) 
2
5
10

$$$$
