31362
     RDKit          3D

 16 15  0  0  1  0  0  0  0  0999 V2000
   -2.2301    0.7995   -1.7967 O   0  0  0  0  0  0  0  0  0  0  0  0
    2.7023   -0.7945   -1.4171 O   0  0  0  0  0  0  0  0  0  0  0  0
   -2.5876    0.7312    0.6164 C   0  0  0  0  0  0  0  0  0  0  0  0
    2.6937   -0.8411    0.9623 C   0  0  0  0  0  0  0  0  0  0  0  0
   -1.6144    1.0625   -0.5383 C   0  0  0  0  0  0  0  0  0  0  0  0
    1.8740   -1.1688   -0.3058 C   0  0  0  0  0  0  0  0  0  0  0  0
   -3.1233   -0.7197    0.6990 C   0  0  0  0  0  0  0  0  0  0  0  0
    3.2981    0.5743    1.1030 C   0  0  0  0  0  0  0  0  0  0  0  0
   -1.2673    2.5564   -0.5091 C   0  0  0  0  0  0  0  0  0  0  0  0
    1.5669   -2.6605   -0.4437 C   0  0  0  0  0  0  0  0  0  0  0  0
   -3.8211   -1.0759   -0.6191 C   0  0  0  0  0  0  0  0  0  0  0  0
   -4.0880   -0.9521    1.8613 C   0  0  0  0  0  0  0  0  0  0  0  0
    4.1709    0.9948   -0.0783 C   0  0  0  0  0  0  0  0  0  0  0  0
    2.1644    1.5924    1.2799 C   0  0  0  0  0  0  0  0  0  0  0  0
   -0.3746    0.2741   -0.4378 C   0  0  0  0  0  0  0  0  0  0  0  0
    0.6360   -0.3725   -0.3759 C   0  0  0  0  0  0  0  0  0  0  0  0
  1  5  1  0
  2  6  1  0
  3  5  1  0
  3  7  1  0
  4  6  1  0
  4  8  1  0
  5  9  1  0
  5 15  1  0
  6 10  1  0
  6 16  1  0
  7 11  1  0
  7 12  1  0
  8 13  1  0
  8 14  1  0
 15 16  3  0
M  END
>  <PUBCHEM_COMPOUND_CID>  (1) 
31362

>  <PUBCHEM_CONFORMER_RMSD>  (1) 
0.6

>  <PUBCHEM_CONFORMER_DIVERSEORDER>  (1) 
1
12
8
7
10
5
9
11
3
2
6
4

>  <PUBCHEM_MMFF94_PARTIAL_CHARGES>  (1) 
8
1 -0.68
15 -0.2
16 -0.2
2 -0.68
41 0.4
42 0.4
5 0.48
6 0.48

>  <PUBCHEM_EFFECTIVE_ROTOR_COUNT>  (1) 
4

>  <PUBCHEM_PHARMACOPHORE_FEATURES>  (1) 
6
1 1 acceptor
1 1 donor
1 2 acceptor
1 2 donor
3 7 11 12 hydrophobe
3 8 13 14 hydrophobe

>  <PUBCHEM_HEAVY_ATOM_COUNT>  (1) 
16

>  <PUBCHEM_ATOM_DEF_STEREO_COUNT>  (1) 
0

>  <PUBCHEM_ATOM_UDEF_STEREO_COUNT>  (1) 
2

>  <PUBCHEM_BOND_DEF_STEREO_COUNT>  (1) 
0

>  <PUBCHEM_BOND_UDEF_STEREO_COUNT>  (1) 
0

>  <PUBCHEM_ISOTOPIC_ATOM_COUNT>  (1) 
0

>  <PUBCHEM_COMPONENT_COUNT>  (1) 
1

>  <PUBCHEM_CACTVS_TAUTO_COUNT>  (1) 
1

>  <PUBCHEM_CONFORMER_ID>  (1) 
00007A8200000001

>  <PUBCHEM_MMFF94_ENERGY>  (1) 
35.0476

>  <PUBCHEM_FEATURE_SELFOVERLAP>  (1) 
30.446

>  <PUBCHEM_SHAPE_FINGERPRINT>  (1) 
10366900 7 18411416241186441491
107287 299 18272368663854332270
11132069 177 18268984448336087698
11615757 297 17632289107694583105
12553582 1 18189633768502977127
12633257 1 18343580776062862987
12932764 1 18129662989191824502
13083527 12 16951692591212088021
13134695 92 10881393236649993906
13296908 3 18340767039918255783
13693222 15 18261383455749574211
14178342 30 17896601691316682849
14289901 80 18202281385994885859
15375358 24 18261383443397532711
17834072 14 16660633085795340959
17844478 74 18412826871629110489
18186145 218 17417520406725635560
19049666 15 18122340173031196944
200 152 14345791668945606377
20279233 1 18335695010222931855
20645476 183 14620797115196727285
20645477 70 17987788597381651959
20671657 53 16226050028501154373
21041028 32 17488476165479216392
21061003 4 18340204202072210793
21069387 34 12901546849145933723
21503847 285 17275118214425668378
21524375 3 17916000530317333634
21730867 7 18273213084420912142
23557571 272 17968370156719948125
23559900 14 18042119873588726790
251288 83 18337392746143866443
31174 14 18272374156816765235
458136 41 18272380784363149198
5283173 99 18042664153926338261
5902787 121 17386577988998280369
6049 1 18269278958670339052
7615 1 15647060313195784758
81228 2 18042409028373495381
88987 49 17023745576697138957
9882013 296 18410009974351663898

>  <PUBCHEM_SHAPE_MULTIPOLES>  (1) 
317.53
7.57
2.22
1.47
1.37
0.02
0.19
0.86
2.12
-0.4
-0.31
0.63
0
1.17

>  <PUBCHEM_SHAPE_SELFOVERLAP>  (1) 
605.848

>  <PUBCHEM_SHAPE_VOLUME>  (1) 
195.1

>  <PUBCHEM_COORDINATE_TYPE>  (1) 
2
5
10

$$$$
