31376
     RDKit          3D

 10  9  0  0  0  0  0  0  0  0999 V2000
    1.9270   -0.3603    1.5071 Cl  0  0  0  0  0  0  0  0  0  0  0  0
   -1.9151   -0.4129   -1.4998 Cl  0  0  0  0  0  0  0  0  0  0  0  0
    1.1066   -1.3307   -0.7250 F   0  0  0  0  0  0  0  0  0  0  0  0
    2.1982    0.5456   -0.8752 F   0  0  0  0  0  0  0  0  0  0  0  0
   -2.2046    0.5759    0.8472 F   0  0  0  0  0  0  0  0  0  0  0  0
   -1.1121   -1.3046    0.7713 F   0  0  0  0  0  0  0  0  0  0  0  0
    0.0007    1.8828   -0.0216 O   0  0  0  0  0  0  0  0  0  0  0  0
    0.0001    0.6507   -0.0071 C   0  0  0  0  0  0  0  0  0  0  0  0
    1.2848   -0.1254   -0.1248 C   0  0  0  0  0  0  0  0  0  0  0  0
   -1.2856   -0.1209    0.1280 C   0  0  0  0  0  0  0  0  0  0  0  0
  1  9  1  0
  2 10  1  0
  3  9  1  0
  4  9  1  0
  5 10  1  0
  6 10  1  0
  7  8  2  0
  8  9  1  0
  8 10  1  0
M  END
>  <PUBCHEM_COMPOUND_CID>  (1) 
31376

>  <PUBCHEM_CONFORMER_RMSD>  (1) 
0.4

>  <PUBCHEM_CONFORMER_DIVERSEORDER>  (1) 
1
13
9
4
14
5
8
16
15
11
2
7
12
10
17
18
6
3

>  <PUBCHEM_MMFF94_PARTIAL_CHARGES>  (1) 
10
1 -0.29
10 1.03
2 -0.29
3 -0.34
4 -0.34
5 -0.34
6 -0.34
7 -0.57
8 0.45
9 1.03

>  <PUBCHEM_EFFECTIVE_ROTOR_COUNT>  (1) 
2

>  <PUBCHEM_PHARMACOPHORE_FEATURES>  (1) 
1
1 7 acceptor

>  <PUBCHEM_HEAVY_ATOM_COUNT>  (1) 
10

>  <PUBCHEM_ATOM_DEF_STEREO_COUNT>  (1) 
0

>  <PUBCHEM_ATOM_UDEF_STEREO_COUNT>  (1) 
0

>  <PUBCHEM_BOND_DEF_STEREO_COUNT>  (1) 
0

>  <PUBCHEM_BOND_UDEF_STEREO_COUNT>  (1) 
0

>  <PUBCHEM_ISOTOPIC_ATOM_COUNT>  (1) 
0

>  <PUBCHEM_COMPONENT_COUNT>  (1) 
1

>  <PUBCHEM_CACTVS_TAUTO_COUNT>  (1) 
1

>  <PUBCHEM_CONFORMER_ID>  (1) 
00007A9000000001

>  <PUBCHEM_MMFF94_ENERGY>  (1) 
6.3639

>  <PUBCHEM_FEATURE_SELFOVERLAP>  (1) 
5.074

>  <PUBCHEM_SHAPE_FINGERPRINT>  (1) 
12423570 1 7919078052280712744
18185500 45 17988919015620411455
21040471 1 18129387011883924793
24536 1 18410294713493099746
29004967 10 18339096950496187736
5084963 1 17910970036380538313

>  <PUBCHEM_SHAPE_MULTIPOLES>  (1) 
174.57
2.89
1.3
1.27
0.01
0.05
0.25
0.02
-0.33
-0.04
-0.17
0.04
-0.05
0.26

>  <PUBCHEM_SHAPE_SELFOVERLAP>  (1) 
329.04

>  <PUBCHEM_SHAPE_VOLUME>  (1) 
111

>  <PUBCHEM_COORDINATE_TYPE>  (1) 
2
5
10

$$$$
