3137
     RDKit          3D

 42 46  0  0  1  0  0  0  0  0999 V2000
    0.5255    1.2920   -3.3011 O   0  0  0  0  0  0  0  0  0  0  0  0
   -0.5813   -1.2491   -3.3171 O   0  0  0  0  0  0  0  0  0  0  0  0
    0.0006    0.0049    2.3272 O   0  0  0  0  0  0  0  0  0  0  0  0
    7.9036    0.1999   -1.5995 O   0  0  0  0  0  0  0  0  0  0  0  0
   -7.9053   -0.2234   -1.5896 O   0  0  0  0  0  0  0  0  0  0  0  0
    0.9513    0.7299    0.3576 N   0  0  0  0  0  0  0  0  0  0  0  0
   -0.9491   -0.7291    0.3604 N   0  0  0  0  0  0  0  0  0  0  0  0
    0.6573    1.4163   -0.9140 C   0  0  0  0  0  0  0  0  0  0  0  0
   -0.6569   -1.4126   -0.9139 C   0  0  0  0  0  0  0  0  0  0  0  0
    0.5927    0.4793   -2.1224 C   0  0  0  0  0  0  0  0  0  0  0  0
   -0.6034   -0.4662   -2.1166 C   0  0  0  0  0  0  0  0  0  0  0  0
   -0.5482    2.3585   -0.7775 C   0  0  0  0  0  0  0  0  0  0  0  0
    0.5519   -2.3502   -0.7776 C   0  0  0  0  0  0  0  0  0  0  0  0
    0.0006    0.0024    1.0890 C   0  0  0  0  0  0  0  0  0  0  0  0
    2.1603    1.1658    1.0474 C   0  0  0  0  0  0  0  0  0  0  0  0
   -2.1560   -1.1679    1.0521 C   0  0  0  0  0  0  0  0  0  0  0  0
   -0.3586    3.3263    0.3536 C   0  0  0  0  0  0  0  0  0  0  0  0
    0.3658   -3.3191    0.3533 C   0  0  0  0  0  0  0  0  0  0  0  0
    3.4032    0.6432    0.3871 C   0  0  0  0  0  0  0  0  0  0  0  0
   -3.4014   -0.6501    0.3927 C   0  0  0  0  0  0  0  0  0  0  0  0
    0.2546    4.5577    0.1228 C   0  0  0  0  0  0  0  0  0  0  0  0
   -0.2430   -4.5528    0.1221 C   0  0  0  0  0  0  0  0  0  0  0  0
   -0.7951    2.9942    1.6362 C   0  0  0  0  0  0  0  0  0  0  0  0
    0.8012   -2.9858    1.6360 C   0  0  0  0  0  0  0  0  0  0  0  0
    3.9373   -0.5846    0.7785 C   0  0  0  0  0  0  0  0  0  0  0  0
   -3.9388    0.5766    0.7830 C   0  0  0  0  0  0  0  0  0  0  0  0
    4.0240    1.3853   -0.6177 C   0  0  0  0  0  0  0  0  0  0  0  0
   -4.0209   -1.3953   -0.6106 C   0  0  0  0  0  0  0  0  0  0  0  0
    0.4311    5.4570    1.1743 C   0  0  0  0  0  0  0  0  0  0  0  0
   -0.4161   -5.4530    1.1736 C   0  0  0  0  0  0  0  0  0  0  0  0
   -0.6187    3.8936    2.6878 C   0  0  0  0  0  0  0  0  0  0  0  0
    0.6281   -3.8861    2.6873 C   0  0  0  0  0  0  0  0  0  0  0  0
    5.0920   -1.0703    0.1649 C   0  0  0  0  0  0  0  0  0  0  0  0
   -5.0957    1.0579    0.1701 C   0  0  0  0  0  0  0  0  0  0  0  0
    5.1786    0.8997   -1.2313 C   0  0  0  0  0  0  0  0  0  0  0  0
   -5.1777   -0.9142   -1.2235 C   0  0  0  0  0  0  0  0  0  0  0  0
   -0.0055    5.1248    2.4568 C   0  0  0  0  0  0  0  0  0  0  0  0
    0.0195   -5.1196    2.4561 C   0  0  0  0  0  0  0  0  0  0  0  0
    5.7125   -0.3281   -0.8401 C   0  0  0  0  0  0  0  0  0  0  0  0
   -5.7151    0.3125   -0.8332 C   0  0  0  0  0  0  0  0  0  0  0  0
    6.9473   -0.8478   -1.4960 C   0  0  0  0  0  0  0  0  0  0  0  0
   -6.9521    0.8274   -1.4884 C   0  0  0  0  0  0  0  0  0  0  0  0
  1 10  1  0
  2 11  1  0
  3 14  2  0
  4 41  1  0
  5 42  1  0
  6  8  1  0
  6 14  1  0
  6 15  1  0
  7  9  1  0
  7 14  1  0
  7 16  1  0
  8 10  1  0
  8 12  1  0
  9 11  1  0
  9 13  1  0
 10 11  1  0
 12 17  1  0
 13 18  1  0
 15 19  1  0
 16 20  1  0
 17 21  2  0
 17 23  1  0
 18 22  2  0
 18 24  1  0
 19 25  2  0
 19 27  1  0
 20 26  2  0
 20 28  1  0
 21 29  1  0
 22 30  1  0
 23 31  2  0
 24 32  2  0
 25 33  1  0
 26 34  1  0
 27 35  2  0
 28 36  2  0
 29 37  2  0
 30 38  2  0
 31 37  1  0
 32 38  1  0
 33 39  2  0
 34 40  2  0
 35 39  1  0
 36 40  1  0
 39 41  1  0
 40 42  1  0
M  END
>  <PUBCHEM_COMPOUND_CID>  (1) 
3137

>  <PUBCHEM_CONFORMER_RMSD>  (1) 
1.2

>  <PUBCHEM_CONFORMER_DIVERSEORDER>  (1) 
1
126
56
148
115
5
42
131
19
16
125
76
137
149
82
50
151
40
41
91
71
3
143
133
26
114
13
85
35
90
36
61
60
62
120
52
94
81
58
134
67
130
124
49
135
38
89
123
75
78
77
142
54
153
84
95
99
150
73
132
97
111
121
141
2
47
53
68
31
110
37
116
108
24
129
59
9
51
100
139
80
29
118
146
88
93
11
66
102
4
140
96
34
55
144
23
119
136
109
12
64
79
104
92
128
33
44
18
101
20
15
28
138
22
152
70
145
6
72
27
65
46
10
113
7
63
147
122
117
30
103
74
112
8
25
48
69
106
98
39
43
21
17
45
107
86
127
87
83
57
14
105
32

>  <PUBCHEM_MMFF94_PARTIAL_CHARGES>  (1) 
64
1 -0.68
10 0.28
11 0.28
12 0.14
13 0.14
14 0.69
15 0.44
16 0.44
17 -0.14
18 -0.14
19 -0.14
2 -0.68
20 -0.14
21 -0.15
22 -0.15
23 -0.15
24 -0.15
25 -0.15
26 -0.15
27 -0.15
28 -0.15
29 -0.15
3 -0.57
30 -0.15
31 -0.15
32 -0.15
33 -0.15
34 -0.15
35 -0.15
36 -0.15
37 -0.15
38 -0.15
39 -0.14
4 -0.68
40 -0.14
41 0.42
42 0.42
5 -0.68
55 0.4
56 0.4
57 0.15
58 0.15
59 0.15
6 -0.66
60 0.15
61 0.15
62 0.15
63 0.15
64 0.15
65 0.15
66 0.15
67 0.15
68 0.15
69 0.15
7 -0.66
70 0.15
71 0.15
72 0.15
73 0.15
74 0.15
79 0.4
8 0.3
80 0.4
9 0.3

>  <PUBCHEM_EFFECTIVE_ROTOR_COUNT>  (1) 
11.2

>  <PUBCHEM_PHARMACOPHORE_FEATURES>  (1) 
14
1 1 acceptor
1 1 donor
1 2 acceptor
1 2 donor
1 3 acceptor
1 4 acceptor
1 4 donor
1 5 acceptor
1 5 donor
6 17 21 23 29 31 37 rings
6 18 22 24 30 32 38 rings
6 19 25 27 33 35 39 rings
6 20 26 28 34 36 40 rings
7 6 7 8 9 10 11 14 rings

>  <PUBCHEM_HEAVY_ATOM_COUNT>  (1) 
42

>  <PUBCHEM_ATOM_DEF_STEREO_COUNT>  (1) 
0

>  <PUBCHEM_ATOM_UDEF_STEREO_COUNT>  (1) 
4

>  <PUBCHEM_BOND_DEF_STEREO_COUNT>  (1) 
0

>  <PUBCHEM_BOND_UDEF_STEREO_COUNT>  (1) 
0

>  <PUBCHEM_ISOTOPIC_ATOM_COUNT>  (1) 
0

>  <PUBCHEM_COMPONENT_COUNT>  (1) 
1

>  <PUBCHEM_CACTVS_TAUTO_COUNT>  (1) 
1

>  <PUBCHEM_CONFORMER_ID>  (1) 
00000C4100000001

>  <PUBCHEM_MMFF94_ENERGY>  (1) 
135.7314

>  <PUBCHEM_FEATURE_SELFOVERLAP>  (1) 
71.06

>  <PUBCHEM_SHAPE_FINGERPRINT>  (1) 
10032420 55 18129944456195610778
10190206 1 18269281162358359540
102385 1 17690279309295484931
10675989 125 18410011009718558648
10930396 42 18057577985548469920
11421498 54 18340482245190314441
11578080 2 17462279141158571149
12058002 1 17556900006166860659
12128747 34 17762338415161907989
12788726 201 18412549782499564584
13583140 156 17550962819613220372
13636023 20 18271515395918769283
13636023 51 17023453158629568291
13911987 19 18333737905079269867
14068700 675 18413389817873477660
15219648 12 18115606863139857651
15439362 3 18053373581680379689
15775530 1 17689145038560699440
15927050 60 17621051863073425920
16090146 7 18042427793169728398
17974551 9 17906453581762927189
18365409 1 18189334752991385863
18681886 176 17560790070481012247
20775438 99 17407089520170000783
22440779 20 16593686185086563754
24180151 40 18195807358245480497
25223398 141 17751927058883156595
283562 15 18340211765388338904
3493558 16 17759223116690303733
4058900 60 18187371977983691867
57527306 92 17846202376254517258
57527452 28 17677067796772630161

>  <PUBCHEM_SHAPE_MULTIPOLES>  (1) 
825.03
12.06
6.99
2.71
0.04
0.06
0.18
-0.09
9.87
-0.03
-7.15
0
0.01
-0.65

>  <PUBCHEM_SHAPE_SELFOVERLAP>  (1) 
1782.481

>  <PUBCHEM_SHAPE_VOLUME>  (1) 
446

>  <PUBCHEM_COORDINATE_TYPE>  (1) 
2
5
10

$$$$
