31403
     RDKit          3D

 23 26  0  0  1  0  0  0  0  0999 V2000
    5.4516   -0.2458    0.7983 O   0  0  0  0  0  0  0  0  0  0  0  0
   -4.4827   -1.2785   -0.5560 O   0  0  0  0  0  0  0  0  0  0  0  0
    0.8112    0.5143   -0.1124 C   0  0  0  0  0  0  0  0  0  0  0  0
   -0.0655   -0.5573   -0.8189 C   0  0  0  0  0  0  0  0  0  0  0  0
   -1.4899   -0.6668   -0.2277 C   0  0  0  0  0  0  0  0  0  0  0  0
   -2.2244    0.6849   -0.1055 C   0  0  0  0  0  0  0  0  0  0  0  0
    2.2621    0.6023   -0.7274 C   0  0  0  0  0  0  0  0  0  0  0  0
    2.9172   -0.8185   -0.7357 C   0  0  0  0  0  0  0  0  0  0  0  0
    0.0653    1.8640   -0.0772 C   0  0  0  0  0  0  0  0  0  0  0  0
   -1.3161    1.7432    0.5685 C   0  0  0  0  0  0  0  0  0  0  0  0
    0.6219   -1.9303   -0.8534 C   0  0  0  0  0  0  0  0  0  0  0  0
   -3.4049    0.3383    0.8359 C   0  0  0  0  0  0  0  0  0  0  0  0
   -1.5774   -1.2679    1.1846 C   0  0  0  0  0  0  0  0  0  0  0  0
    2.0293   -1.8607   -1.4352 C   0  0  0  0  0  0  0  0  0  0  0  0
    3.1871    1.5660    0.0732 C   0  0  0  0  0  0  0  0  0  0  0  0
   -2.8429   -0.6896    1.8242 C   0  0  0  0  0  0  0  0  0  0  0  0
    3.3026   -1.3077    0.6814 C   0  0  0  0  0  0  0  0  0  0  0  0
   -2.6930    1.2110   -1.4743 C   0  0  0  0  0  0  0  0  0  0  0  0
    2.2232    1.1554   -2.1767 C   0  0  0  0  0  0  0  0  0  0  0  0
    3.5410    1.0729    1.4748 C   0  0  0  0  0  0  0  0  0  0  0  0
    4.1781   -0.3120    1.4366 C   0  0  0  0  0  0  0  0  0  0  0  0
   -4.5875   -0.2609    0.1270 C   0  0  0  0  0  0  0  0  0  0  0  0
   -5.9062    0.4438    0.2961 C   0  0  0  0  0  0  0  0  0  0  0  0
  1 21  1  0
  2 22  2  0
  3  4  1  0
  3  7  1  0
  3  9  1  0
  4  5  1  0
  4 11  1  0
  5  6  1  0
  5 13  1  0
  6 10  1  0
  6 12  1  0
  6 18  1  0
  7  8  1  0
  7 15  1  0
  7 19  1  0
  8 14  1  0
  8 17  1  0
  9 10  1  0
 11 14  1  0
 12 16  1  0
 12 22  1  0
 13 16  1  0
 15 20  1  0
 17 21  1  0
 20 21  1  0
 22 23  1  0
M  END
>  <PUBCHEM_COMPOUND_CID>  (1) 
31403

>  <PUBCHEM_CONFORMER_RMSD>  (1) 
0.6

>  <PUBCHEM_CONFORMER_DIVERSEORDER>  (1) 
4
42
57
29
45
44
21
46
25
60
12
18
53
37
41
23
27
39
51
59
10
22
47
35
13
28
34
56
5
33
26
24
48
49
19
54
31
32
30
55
17
16
52
40
2
15
1
14
8
36
50
11
43
38
7
58
3
9
6
20

>  <PUBCHEM_MMFF94_PARTIAL_CHARGES>  (1) 
7
1 -0.68
12 0.06
2 -0.57
21 0.28
22 0.45
23 0.06
57 0.4

>  <PUBCHEM_EFFECTIVE_ROTOR_COUNT>  (1) 
3.2

>  <PUBCHEM_PHARMACOPHORE_FEATURES>  (1) 
7
1 1 acceptor
1 1 donor
1 2 acceptor
5 5 6 12 13 16 rings
6 3 4 5 6 9 10 rings
6 3 4 7 8 11 14 rings
6 7 8 15 17 20 21 rings

>  <PUBCHEM_HEAVY_ATOM_COUNT>  (1) 
23

>  <PUBCHEM_ATOM_DEF_STEREO_COUNT>  (1) 
4

>  <PUBCHEM_ATOM_UDEF_STEREO_COUNT>  (1) 
4

>  <PUBCHEM_BOND_DEF_STEREO_COUNT>  (1) 
0

>  <PUBCHEM_BOND_UDEF_STEREO_COUNT>  (1) 
0

>  <PUBCHEM_ISOTOPIC_ATOM_COUNT>  (1) 
0

>  <PUBCHEM_COMPONENT_COUNT>  (1) 
1

>  <PUBCHEM_CACTVS_TAUTO_COUNT>  (1) 
3

>  <PUBCHEM_CONFORMER_ID>  (1) 
00007AAB00000004

>  <PUBCHEM_MMFF94_ENERGY>  (1) 
75.433

>  <PUBCHEM_FEATURE_SELFOVERLAP>  (1) 
35.757

>  <PUBCHEM_SHAPE_FINGERPRINT>  (1) 
10366900 7 18342185470390436072
10759866 29 17532670107502402884
10863032 1 16951138415961137629
10906281 52 18337410291333300649
11132069 177 18412831295877844511
11578080 2 17273413868207850041
11640471 11 16343706521300009018
11796584 16 16805325491780030515
12011746 2 18343305860144361926
12173636 292 14117802388498357737
12251169 10 18409726270819799906
12403259 415 18341886377315939372
12403814 3 16917062236082881865
12507560 40 18187635917173175124
12553582 1 18268453337307735777
12633257 1 18040442096122354177
12670546 56 17095516305674963973
12788726 201 18187660067558386157
128620 24 15769776857696100459
13140716 1 18128529560376097360
13224815 77 18272376364408862757
13533116 47 17749665207938443099
13583140 156 17750213890252839908
14115302 16 16443069417230148993
14223421 5 18128539258496628196
14289901 80 14404911262810421431
14787075 74 16414341446334480923
15375358 24 18410298016792267003
15788980 27 17603301557765679701
16752209 62 17530962445585129425
16945 1 18201447964512509796
17349148 13 18335137596403214309
1813 80 14056996075588585202
18981168 100 14332292836069410664
192875 21 18040999544249276829
19784866 240 16588303839550263234
19862831 5 10881400928440451262
200 152 18130788945650510591
20715895 44 18189046496255448893
20775530 9 15215233701761923346
21033648 29 18269534101503673808
22182313 1 18268146461588365077
22854114 59 17989209243687704115
23227448 37 14332829556583461905
23402539 116 18113890564264858837
23557571 272 18260827055806369893
23558518 356 18122354475315036561
23559900 14 18040731259106732070
2748010 2 18268441130657038676
2838139 119 14044872938175605106
351380 180 18410290306883028131
394222 165 17680164155066979284
4072396 5 18411696578265785331
4325135 7 16773787126208481207
4340502 62 17418095442611656119
465052 167 18113904878789515066
474 4 16845288380173712544
5104073 3 18130238056071102923
5374978 207 18408045112897914017
6913067 236 18270665541881047517
9709674 26 18410301280635394799

>  <PUBCHEM_SHAPE_MULTIPOLES>  (1) 
461.59
9.73
1.86
1.62
4.73
0.01
-0.11
0.36
2.77
-0.57
-0.32
-0.82
0.02
0.35

>  <PUBCHEM_SHAPE_SELFOVERLAP>  (1) 
977.493

>  <PUBCHEM_SHAPE_VOLUME>  (1) 
256.3

>  <PUBCHEM_COORDINATE_TYPE>  (1) 
2
5
10

$$$$
