31410
     RDKit          3D

 40 48  0  0  0  0  0  0  0  0999 V2000
   -1.0645   -3.1216   -0.2317 O   0  0  0  0  0  0  0  0  0  0  0  0
    1.0645   -3.1218    0.2284 O   0  0  0  0  0  0  0  0  0  0  0  0
   -5.6283    2.9032    0.0312 O   0  0  0  0  0  0  0  0  0  0  0  0
    5.6282    2.9031   -0.0365 O   0  0  0  0  0  0  0  0  0  0  0  0
   -1.4367    0.5601    0.0079 C   0  0  0  0  0  0  0  0  0  0  0  0
    1.4367    0.5602   -0.0075 C   0  0  0  0  0  0  0  0  0  0  0  0
   -0.7178   -0.6590    0.0034 C   0  0  0  0  0  0  0  0  0  0  0  0
    0.7179   -0.6590   -0.0039 C   0  0  0  0  0  0  0  0  0  0  0  0
   -0.7178    1.7865    0.0048 C   0  0  0  0  0  0  0  0  0  0  0  0
    0.7180    1.7864   -0.0033 C   0  0  0  0  0  0  0  0  0  0  0  0
   -2.8792    0.5520    0.0156 C   0  0  0  0  0  0  0  0  0  0  0  0
    2.8792    0.5521   -0.0154 C   0  0  0  0  0  0  0  0  0  0  0  0
   -3.6071   -0.6623    0.0184 C   0  0  0  0  0  0  0  0  0  0  0  0
    3.6071   -0.6623   -0.0187 C   0  0  0  0  0  0  0  0  0  0  0  0
   -3.5590    1.7796    0.0201 C   0  0  0  0  0  0  0  0  0  0  0  0
    3.5590    1.7796   -0.0203 C   0  0  0  0  0  0  0  0  0  0  0  0
   -1.4790   -1.8450    0.0064 C   0  0  0  0  0  0  0  0  0  0  0  0
    1.4790   -1.8448   -0.0083 C   0  0  0  0  0  0  0  0  0  0  0  0
   -1.4777    2.9783    0.0100 C   0  0  0  0  0  0  0  0  0  0  0  0
    1.4777    2.9783   -0.0078 C   0  0  0  0  0  0  0  0  0  0  0  0
   -2.8730   -1.8489    0.0137 C   0  0  0  0  0  0  0  0  0  0  0  0
    2.8729   -1.8489   -0.0155 C   0  0  0  0  0  0  0  0  0  0  0  0
   -5.0938   -0.6565    0.0266 C   0  0  0  0  0  0  0  0  0  0  0  0
    5.0938   -0.6565   -0.0257 C   0  0  0  0  0  0  0  0  0  0  0  0
   -2.8666    2.9827    0.0175 C   0  0  0  0  0  0  0  0  0  0  0  0
    2.8667    2.9827   -0.0164 C   0  0  0  0  0  0  0  0  0  0  0  0
   -5.0383    1.8296    0.0280 C   0  0  0  0  0  0  0  0  0  0  0  0
    5.0383    1.8296   -0.0302 C   0  0  0  0  0  0  0  0  0  0  0  0
   -5.7937    0.5621    0.0313 C   0  0  0  0  0  0  0  0  0  0  0  0
    5.7938    0.5622   -0.0322 C   0  0  0  0  0  0  0  0  0  0  0  0
   -5.8759   -1.8291    0.0303 C   0  0  0  0  0  0  0  0  0  0  0  0
    5.8759   -1.8291   -0.0256 C   0  0  0  0  0  0  0  0  0  0  0  0
   -7.1968    0.6134    0.0394 C   0  0  0  0  0  0  0  0  0  0  0  0
    7.1967    0.6134   -0.0393 C   0  0  0  0  0  0  0  0  0  0  0  0
   -7.2749   -1.7848    0.0382 C   0  0  0  0  0  0  0  0  0  0  0  0
    7.2749   -1.7848   -0.0324 C   0  0  0  0  0  0  0  0  0  0  0  0
   -7.9351   -0.5639    0.0428 C   0  0  0  0  0  0  0  0  0  0  0  0
    7.9351   -0.5639   -0.0395 C   0  0  0  0  0  0  0  0  0  0  0  0
   -1.1099   -3.5754   -1.5826 C   0  0  0  0  0  0  0  0  0  0  0  0
    1.1099   -3.5771    1.5787 C   0  0  0  0  0  0  0  0  0  0  0  0
  1 17  1  0
  1 39  1  0
  2 18  1  0
  2 40  1  0
  3 27  2  0
  4 28  2  0
  5  7  1  0
  5  9  2  0
  5 11  1  0
  6  8  2  0
  6 10  1  0
  6 12  1  0
  7  8  1  0
  7 17  2  0
  8 18  1  0
  9 10  1  0
  9 19  1  0
 10 20  2  0
 11 13  1  0
 11 15  2  0
 12 14  2  0
 12 16  1  0
 13 21  2  0
 13 23  1  0
 14 22  1  0
 14 24  1  0
 15 25  1  0
 15 27  1  0
 16 26  2  0
 16 28  1  0
 17 21  1  0
 18 22  2  0
 19 25  2  0
 20 26  1  0
 23 29  2  0
 23 31  1  0
 24 30  2  0
 24 32  1  0
 27 29  1  0
 28 30  1  0
 29 33  1  0
 30 34  1  0
 31 35  2  0
 32 36  2  0
 33 37  2  0
 34 38  2  0
 35 37  1  0
 36 38  1  0
M  END
>  <PUBCHEM_COMPOUND_CID>  (1) 
31410

>  <PUBCHEM_CONFORMER_RMSD>  (1) 
0.8

>  <PUBCHEM_CONFORMER_DIVERSEORDER>  (1) 
1

>  <PUBCHEM_MMFF94_PARTIAL_CHARGES>  (1) 
42
1 -0.36
15 0.09
16 0.09
17 0.08
18 0.08
19 -0.15
2 -0.36
20 -0.15
21 -0.15
22 -0.15
25 -0.15
26 -0.15
27 0.4
28 0.4
29 0.09
3 -0.57
30 0.09
31 -0.15
32 -0.15
33 -0.15
34 -0.15
35 -0.15
36 -0.15
37 -0.15
38 -0.15
39 0.28
4 -0.57
40 0.28
41 0.15
42 0.15
43 0.15
44 0.15
45 0.15
46 0.15
47 0.15
48 0.15
49 0.15
50 0.15
51 0.15
52 0.15
53 0.15
54 0.15

>  <PUBCHEM_EFFECTIVE_ROTOR_COUNT>  (1) 
2

>  <PUBCHEM_PHARMACOPHORE_FEATURES>  (1) 
13
1 1 acceptor
1 2 acceptor
1 3 acceptor
1 4 acceptor
6 11 13 15 23 27 29 rings
6 12 14 16 24 28 30 rings
6 23 29 31 33 35 37 rings
6 24 30 32 34 36 38 rings
6 5 6 7 8 9 10 rings
6 5 7 11 13 17 21 rings
6 5 9 11 15 19 25 rings
6 6 10 12 16 20 26 rings
6 6 8 12 14 18 22 rings

>  <PUBCHEM_HEAVY_ATOM_COUNT>  (1) 
40

>  <PUBCHEM_ATOM_DEF_STEREO_COUNT>  (1) 
0

>  <PUBCHEM_ATOM_UDEF_STEREO_COUNT>  (1) 
0

>  <PUBCHEM_BOND_DEF_STEREO_COUNT>  (1) 
0

>  <PUBCHEM_BOND_UDEF_STEREO_COUNT>  (1) 
0

>  <PUBCHEM_ISOTOPIC_ATOM_COUNT>  (1) 
0

>  <PUBCHEM_COMPONENT_COUNT>  (1) 
1

>  <PUBCHEM_CACTVS_TAUTO_COUNT>  (1) 
1

>  <PUBCHEM_CONFORMER_ID>  (1) 
00007AB200000001

>  <PUBCHEM_MMFF94_ENERGY>  (1) 
203.8131

>  <PUBCHEM_FEATURE_SELFOVERLAP>  (1) 
66.337

>  <PUBCHEM_SHAPE_FINGERPRINT>  (1) 
10050765 1 18121499046805058603
1100329 8 18410854403872396002
11135926 11 18409726228276367581
11136131 41 18189610536508578122
11578080 2 16843302744036777898
12107698 1 18410573985151691507
12133447 93 18270412581424772164
12838862 33 18338498803222498049
13811026 1 18410571790423169381
14068700 675 18343865523815475009
14117953 113 18342740706223982367
14394314 77 18339647720456049761
14790565 3 18410858762958408676
15001296 14 18189046663125819848
15131766 46 15866343807542494124
15320467 1 18410575080373392871
15351339 4 18261386702929850298
15439362 3 17834110850149838589
15890870 6 18407760339222952126
16067689 302 18339930428309614903
16087824 20 18410576158590097508
16112460 7 18341903999482300968
16628084 112 18188765042489778226
18608769 82 18411980265235205307
18681886 176 18413101762404911624
19319366 153 18114178652980236402
19611394 137 18042699475805958963
20028762 73 18343021081853049918
20721686 56 18335704983495683035
21033648 144 18189890916906399125
21057603 40 16916514653686113934
21133410 90 17131551764224829434
21267235 1 18410578383198007712
22311459 1 18410573989700106734
23522609 53 18122660272650164585
23559900 14 18411974801657653009
23569917 315 18411708681247274990
249057 3 18412826906595341494
25019877 29 18131072618975588999
27425 322 16661494085590285248
3004659 81 18259701211575684072
3178227 256 18336840744399491619
335352 9 18410857681122119910
3383291 50 18409164432794066483
338550 245 18334861657787418260
350125 39 18410855455870377601
4073 2 17969225701605246242
4461854 278 18130796693746230679
484989 97 18409172146544046233
5776283 40 18266184014513253936
6138700 20 18409449193984480915
9896288 288 17843689863231262817
99344 41 18339643343746601061

>  <PUBCHEM_SHAPE_MULTIPOLES>  (1) 
799.7
19.63
4.19
0.74
0
0.25
0
1.21
0.01
0
0
0
0.47
-0.36

>  <PUBCHEM_SHAPE_SELFOVERLAP>  (1) 
1902.632

>  <PUBCHEM_SHAPE_VOLUME>  (1) 
393.6

>  <PUBCHEM_COORDINATE_TYPE>  (1) 
2
5
10

$$$$
