31422
     RDKit          3D

 22 23  0  0  0  0  0  0  0  0999 V2000
    3.3598   -1.4210   -1.2570 O   0  0  0  0  0  0  0  0  0  0  0  0
   -3.3607   -1.4213    1.2560 O   0  0  0  0  0  0  0  0  0  0  0  0
    3.3604    1.4213    1.2562 O   0  0  0  0  0  0  0  0  0  0  0  0
   -3.3600    1.4209   -1.2568 O   0  0  0  0  0  0  0  0  0  0  0  0
    3.5542   -1.4382    1.0076 O   0  0  0  0  0  0  0  0  0  0  0  0
   -3.5531   -1.4383   -1.0087 O   0  0  0  0  0  0  0  0  0  0  0  0
    3.5532    1.4384   -1.0085 O   0  0  0  0  0  0  0  0  0  0  0  0
   -3.5538    1.4381    1.0079 O   0  0  0  0  0  0  0  0  0  0  0  0
    0.7077   -0.0001    0.0003 C   0  0  0  0  0  0  0  0  0  0  0  0
   -0.7075    0.0000    0.0005 C   0  0  0  0  0  0  0  0  0  0  0  0
    1.3945   -1.2250    0.0005 C   0  0  0  0  0  0  0  0  0  0  0  0
   -1.3943   -1.2250    0.0003 C   0  0  0  0  0  0  0  0  0  0  0  0
    1.3943    1.2251    0.0001 C   0  0  0  0  0  0  0  0  0  0  0  0
   -1.3944    1.2250    0.0003 C   0  0  0  0  0  0  0  0  0  0  0  0
    0.6958   -2.4327    0.0008 C   0  0  0  0  0  0  0  0  0  0  0  0
   -0.6958   -2.4327    0.0005 C   0  0  0  0  0  0  0  0  0  0  0  0
    0.6955    2.4327    0.0003 C   0  0  0  0  0  0  0  0  0  0  0  0
   -0.6961    2.4328    0.0004 C   0  0  0  0  0  0  0  0  0  0  0  0
    2.8482   -1.3688    0.0008 C   0  0  0  0  0  0  0  0  0  0  0  0
   -2.8476   -1.3688   -0.0013 C   0  0  0  0  0  0  0  0  0  0  0  0
    2.8474    1.3689   -0.0012 C   0  0  0  0  0  0  0  0  0  0  0  0
   -2.8479    1.3687    0.0009 C   0  0  0  0  0  0  0  0  0  0  0  0
  1 19  1  0
  2 20  1  0
  3 21  1  0
  4 22  1  0
  5 19  2  0
  6 20  2  0
  7 21  2  0
  8 22  2  0
  9 10  1  0
  9 11  2  0
  9 13  1  0
 10 12  2  0
 10 14  1  0
 11 15  1  0
 11 19  1  0
 12 16  1  0
 12 20  1  0
 13 17  2  0
 13 21  1  0
 14 18  2  0
 14 22  1  0
 15 16  2  0
 17 18  1  0
M  END
>  <PUBCHEM_COMPOUND_CID>  (1) 
31422

>  <PUBCHEM_CONFORMER_RMSD>  (1) 
0.6

>  <PUBCHEM_CONFORMER_DIVERSEORDER>  (1) 
1

>  <PUBCHEM_MMFF94_PARTIAL_CHARGES>  (1) 
28
1 -0.65
11 0.09
12 0.09
13 0.09
14 0.09
15 -0.15
16 -0.15
17 -0.15
18 -0.15
19 0.63
2 -0.65
20 0.63
21 0.63
22 0.63
23 0.15
24 0.15
25 0.15
26 0.15
27 0.5
28 0.5
29 0.5
3 -0.65
30 0.5
4 -0.65
5 -0.57
6 -0.57
7 -0.57
8 -0.57

>  <PUBCHEM_EFFECTIVE_ROTOR_COUNT>  (1) 
4

>  <PUBCHEM_PHARMACOPHORE_FEATURES>  (1) 
14
1 1 acceptor
1 2 acceptor
1 3 acceptor
1 4 acceptor
1 5 acceptor
1 6 acceptor
1 7 acceptor
1 8 acceptor
3 1 5 19 anion
3 2 6 20 anion
3 3 7 21 anion
3 4 8 22 anion
6 9 10 11 12 15 16 rings
6 9 10 13 14 17 18 rings

>  <PUBCHEM_HEAVY_ATOM_COUNT>  (1) 
22

>  <PUBCHEM_ATOM_DEF_STEREO_COUNT>  (1) 
0

>  <PUBCHEM_ATOM_UDEF_STEREO_COUNT>  (1) 
0

>  <PUBCHEM_BOND_DEF_STEREO_COUNT>  (1) 
0

>  <PUBCHEM_BOND_UDEF_STEREO_COUNT>  (1) 
0

>  <PUBCHEM_ISOTOPIC_ATOM_COUNT>  (1) 
0

>  <PUBCHEM_COMPONENT_COUNT>  (1) 
1

>  <PUBCHEM_CACTVS_TAUTO_COUNT>  (1) 
1

>  <PUBCHEM_CONFORMER_ID>  (1) 
00007ABE00000001

>  <PUBCHEM_MMFF94_ENERGY>  (1) 
99.6244

>  <PUBCHEM_FEATURE_SELFOVERLAP>  (1) 
71.326

>  <PUBCHEM_SHAPE_FINGERPRINT>  (1) 
10759866 29 18040720298798247716
10863032 1 18343864419966090401
10967382 1 18266458900207603362
1100329 8 16393242487763763443
11132069 177 18340480050235185530
11680986 33 18410854334862619560
13140716 1 18410573942201778617
13224815 77 18410573993741385760
13583140 156 16878219758226826937
14178342 30 18341324561033463497
14223421 5 18337954622318338939
14787075 74 17390235067319611619
14790565 3 18266763361797028389
15196674 1 18410575084663078917
15536298 74 18343582945147524864
16752209 62 18265607856785771757
16945 1 18410855464423129095
18186145 218 18410576141330593980
19591789 44 18410584980268255075
20510252 161 18200316665884946113
20691752 17 17894348869363863810
20739085 24 18193022415757259905
20905425 154 18341615970543394462
21267235 1 18410865360028233795
21501502 16 18410856563934756870
22182313 1 18410856572524691607
23184049 29 18338232670290981378
2334 1 18410292540239511558
23463225 33 18408038511606935560
23559900 14 18270121202501240590
23566358 2 18340497732979423596
238 59 17833788971750071663
2748010 2 18410855464423129199
335352 9 18194683661561889197
350125 39 18410018727489744745
5104073 3 18410856555344823249
8809292 202 18261960634982537643
9709674 26 18340205288440369862

>  <PUBCHEM_SHAPE_MULTIPOLES>  (1) 
405.8
6.24
3.06
0.96
0
0
0
0
0
0
0
0
0
0.12

>  <PUBCHEM_SHAPE_SELFOVERLAP>  (1) 
909.974

>  <PUBCHEM_SHAPE_VOLUME>  (1) 
213.7

>  <PUBCHEM_COORDINATE_TYPE>  (1) 
2
5
10

$$$$
