31421
     RDKit          3D

 21 23  0  0  0  0  0  0  0  0999 V2000
    0.6341   -3.9635   -0.0012 Cl  0  0  0  0  0  0  0  0  0  0  0  0
   -4.1806   -1.6160    0.0015 Cl  0  0  0  0  0  0  0  0  0  0  0  0
    0.7263    2.4367   -0.0028 O   0  0  0  0  0  0  0  0  0  0  0  0
   -1.5746   -2.3825    0.0023 O   0  0  0  0  0  0  0  0  0  0  0  0
    3.4540    1.9413   -1.0953 O   0  0  0  0  0  0  0  0  0  0  0  0
    3.4550    1.9372    1.1000 O   0  0  0  0  0  0  0  0  0  0  0  0
    3.1535    1.4162    0.0015 N   0  0  0  0  0  0  0  0  0  0  0  0
    1.0455    0.0862   -0.0002 C   0  0  0  0  0  0  0  0  0  0  0  0
    0.4335   -1.1691   -0.0003 C   0  0  0  0  0  0  0  0  0  0  0  0
   -1.2432    1.2020   -0.0002 C   0  0  0  0  0  0  0  0  0  0  0  0
   -1.8551   -0.0533    0.0001 C   0  0  0  0  0  0  0  0  0  0  0  0
    0.2295    1.3176   -0.0007 C   0  0  0  0  0  0  0  0  0  0  0  0
   -1.0392   -1.2846    0.0002 C   0  0  0  0  0  0  0  0  0  0  0  0
    2.4422    0.1820   -0.0005 C   0  0  0  0  0  0  0  0  0  0  0  0
    1.2182   -2.3284   -0.0010 C   0  0  0  0  0  0  0  0  0  0  0  0
   -2.0278    2.3615   -0.0005 C   0  0  0  0  0  0  0  0  0  0  0  0
   -3.2519   -0.1491    0.0005 C   0  0  0  0  0  0  0  0  0  0  0  0
    3.2204   -0.9759   -0.0012 C   0  0  0  0  0  0  0  0  0  0  0  0
    2.6098   -2.2285   -0.0017 C   0  0  0  0  0  0  0  0  0  0  0  0
   -3.4194    2.2615   -0.0007 C   0  0  0  0  0  0  0  0  0  0  0  0
   -4.0301    1.0088    0.0001 C   0  0  0  0  0  0  0  0  0  0  0  0
  1 15  1  0
  2 17  1  0
  3 12  2  0
  4 13  2  0
  5  7  1  0
  6  7  2  0
  7 14  1  0
  8  9  2  0
  8 12  1  0
  8 14  1  0
  9 13  1  0
  9 15  1  0
 10 11  2  0
 10 12  1  0
 10 16  1  0
 11 13  1  0
 11 17  1  0
 14 18  2  0
 15 19  2  0
 16 20  2  0
 17 21  2  0
 18 19  1  0
 20 21  1  0
M  CHG  2   5  -1   7   1
M  END
>  <PUBCHEM_COMPOUND_CID>  (1) 
31421

>  <PUBCHEM_CONFORMER_RMSD>  (1) 
0.6

>  <PUBCHEM_CONFORMER_DIVERSEORDER>  (1) 
1

>  <PUBCHEM_MMFF94_PARTIAL_CHARGES>  (1) 
26
1 -0.18
10 0.09
11 0.09
12 0.4
13 0.4
14 0.13
15 0.18
16 -0.15
17 0.18
18 -0.15
19 -0.15
2 -0.18
20 -0.15
21 -0.15
22 0.15
23 0.15
24 0.15
25 0.15
26 0.15
3 -0.57
4 -0.57
5 -0.52
6 -0.52
7 0.91
8 0.09
9 0.09

>  <PUBCHEM_EFFECTIVE_ROTOR_COUNT>  (1) 
1

>  <PUBCHEM_PHARMACOPHORE_FEATURES>  (1) 
8
1 3 acceptor
1 4 acceptor
1 5 acceptor
1 5 anion
1 6 acceptor
6 10 11 16 17 20 21 rings
6 8 9 10 11 12 13 rings
6 8 9 14 15 18 19 rings

>  <PUBCHEM_HEAVY_ATOM_COUNT>  (1) 
21

>  <PUBCHEM_ATOM_DEF_STEREO_COUNT>  (1) 
0

>  <PUBCHEM_ATOM_UDEF_STEREO_COUNT>  (1) 
0

>  <PUBCHEM_BOND_DEF_STEREO_COUNT>  (1) 
0

>  <PUBCHEM_BOND_UDEF_STEREO_COUNT>  (1) 
0

>  <PUBCHEM_ISOTOPIC_ATOM_COUNT>  (1) 
0

>  <PUBCHEM_COMPONENT_COUNT>  (1) 
1

>  <PUBCHEM_CACTVS_TAUTO_COUNT>  (1) 
1

>  <PUBCHEM_CONFORMER_ID>  (1) 
00007ABD00000001

>  <PUBCHEM_MMFF94_ENERGY>  (1) 
78.785

>  <PUBCHEM_FEATURE_SELFOVERLAP>  (1) 
40.723

>  <PUBCHEM_SHAPE_FINGERPRINT>  (1) 
10319926 262 17911216637246933296
10411042 1 17257934789220600871
10608611 8 18338233765301971993
10616163 171 18411139108712128959
10863032 1 18412825750922091025
10967382 1 18266458883075252423
1100329 8 18123188996013218907
12173636 292 18411415154607201429
12553582 1 17689721182638426951
13140716 1 18339074887280830466
138480 1 18050285860686140006
14178342 30 18411127048206773616
14223421 5 18337392639033258927
14787075 74 17629190799876212537
14790565 3 18049177849529595005
15042514 8 17976820110096721266
15196674 1 18410856555661437317
15442244 35 17907296546573113347
15536298 74 18342174431992273044
16945 1 18266740366578548677
17492 89 18410573946998860347
18186145 218 18338518517201807061
19591789 44 18411421708669551806
20028762 73 17624987418969962351
20510252 161 18271246114006312561
20691752 17 17603868871099905633
20905425 154 18342179976837192031
21267235 1 18339089181227760567
21501502 16 18410856529828226085
221490 88 18337680715042777523
2255824 54 18263369101188528726
2334 1 18410575088984439462
23366157 5 18041846095293864562
23463225 33 18265615372988933301
23558518 356 18260271841399843331
23559900 14 18196364832289867322
238 59 17467311605894966685
2748010 2 18409452461847977238
3091708 16 9263058346535069258
335352 9 18050285873359876855
350125 39 18410014325559735946
43471831 8 18409163329150475059
5104073 3 18410575063678892777
7364860 26 18268709403263068026
7832392 63 18051692144484469795
84936 182 18201152165899254960
9709674 26 18267869380727558375
9981440 41 18336260240751344410

>  <PUBCHEM_SHAPE_MULTIPOLES>  (1) 
407.45
6.72
3.81
0.69
2.61
1.73
0
-1.59
0
-1.29
0
-0.25
-0.17
0

>  <PUBCHEM_SHAPE_SELFOVERLAP>  (1) 
903.352

>  <PUBCHEM_SHAPE_VOLUME>  (1) 
218.2

>  <PUBCHEM_COORDINATE_TYPE>  (1) 
2
5
10

$$$$
