3145
     RDKit          3D

 24 23  0  0  0  0  0  0  0  0999 V2000
   -3.9602    1.3815    1.7330 O   0  0  0  0  0  0  0  0  0  0  0  0
   -5.4281   -0.0379    0.7290 O   0  0  0  0  0  0  0  0  0  0  0  0
   -2.4317   -3.1961    0.8438 C   0  0  0  0  0  0  0  0  0  0  0  0
   -1.1506   -2.8115    0.1015 C   0  0  0  0  0  0  0  0  0  0  0  0
   -3.5415   -2.1512    0.7011 C   0  0  0  0  0  0  0  0  0  0  0  0
   -0.0888   -3.9082    0.2057 C   0  0  0  0  0  0  0  0  0  0  0  0
   -3.1819   -0.7944    1.3054 C   0  0  0  0  0  0  0  0  0  0  0  0
    1.1710   -3.4968   -0.4985 C   0  0  0  0  0  0  0  0  0  0  0  0
    2.3718   -3.4185    0.0941 C   0  0  0  0  0  0  0  0  0  0  0  0
   -4.3255    0.1848    1.2055 C   0  0  0  0  0  0  0  0  0  0  0  0
    3.6205   -2.9998   -0.6241 C   0  0  0  0  0  0  0  0  0  0  0  0
    4.2454   -1.7846   -0.0026 C   0  0  0  0  0  0  0  0  0  0  0  0
    4.4838   -0.6001   -0.5881 C   0  0  0  0  0  0  0  0  0  0  0  0
    5.1097    0.6100    0.0426 C   0  0  0  0  0  0  0  0  0  0  0  0
    4.1461    1.7614    0.1133 C   0  0  0  0  0  0  0  0  0  0  0  0
    2.6765    3.4821    1.2806 C   0  0  0  0  0  0  0  0  0  0  0  0
    3.6381    2.3330    1.2165 C   0  0  0  0  0  0  0  0  0  0  0  0
   -1.0298    2.8691    0.2018 C   0  0  0  0  0  0  0  0  0  0  0  0
    1.2505    3.0200    1.2320 C   0  0  0  0  0  0  0  0  0  0  0  0
    0.3984    3.3276    0.2421 C   0  0  0  0  0  0  0  0  0  0  0  0
   -1.3108    2.0322   -1.0136 C   0  0  0  0  0  0  0  0  0  0  0  0
   -2.5909    1.5744   -3.1726 C   0  0  0  0  0  0  0  0  0  0  0  0
   -2.2263    2.3553   -1.9402 C   0  0  0  0  0  0  0  0  0  0  0  0
   -1.8452    0.2678   -3.4082 C   0  0  0  0  0  0  0  0  0  0  0  0
  1 10  1  0
  2 10  2  0
  3  4  1  0
  3  5  1  0
  4  6  1  0
  5  7  1  0
  6  8  1  0
  7 10  1  0
  8  9  2  0
  9 11  1  0
 11 12  1  0
 12 13  2  0
 13 14  1  0
 14 15  1  0
 15 17  2  0
 16 17  1  0
 16 19  1  0
 18 20  1  0
 18 21  1  0
 19 20  2  0
 21 23  2  0
 22 23  1  0
 22 24  1  0
M  END
>  <PUBCHEM_COMPOUND_CID>  (1) 
3145

>  <PUBCHEM_CONFORMER_RMSD>  (1) 
1.4

>  <PUBCHEM_CONFORMER_DIVERSEORDER>  (1) 
1
46
83
79
95
19
151
69
26
132
153
145
24
80
32
155
20
6
98
104
44
129
131
162
92
110
35
172
67
185
76
108
3
65
51
57
191
34
101
62
114
27
93
39
128
118
150
182
189
186
87
171
11
88
169
50
99
138
13
124
78
43
53
41
28
146
175
152
72
165
113
173
137
144
18
33
166
68
161
52
102
159
120
142
176
125
89
47
141
115
22
140
61
157
49
178
59
109
12
179
105
75
136
174
66
106
187
2
25
74
82
183
121
63
84
100
177
10
181
64
85
148
71
134
77
38
103
154
54
107
37
123
15
168
58
122
190
133
188
48
158
164
42
81
119
126
127
29
180
135
4
56
111
147
143
184
86
31
36
60
73
30
21
17
90
167
112
14
192
40
163
149
130
55
94
45
16
170
91
23
5
160
8
96
70
97
156
117
7
9
139
116

>  <PUBCHEM_MMFF94_PARTIAL_CHARGES>  (1) 
31
1 -0.65
10 0.66
11 0.28
12 -0.29
13 -0.29
14 0.28
15 -0.29
16 0.28
17 -0.29
18 0.28
19 -0.29
2 -0.57
20 -0.29
21 -0.29
22 0.14
23 -0.29
35 0.15
36 0.15
39 0.15
40 0.15
43 0.5
44 0.15
47 0.15
50 0.15
51 0.15
52 0.15
55 0.15
6 0.14
7 0.06
8 -0.29
9 -0.29

>  <PUBCHEM_EFFECTIVE_ROTOR_COUNT>  (1) 
15

>  <PUBCHEM_PHARMACOPHORE_FEATURES>  (1) 
6
1 1 acceptor
1 2 acceptor
1 24 hydrophobe
3 1 2 10 anion
3 3 5 7 hydrophobe
3 4 6 8 hydrophobe

>  <PUBCHEM_HEAVY_ATOM_COUNT>  (1) 
24

>  <PUBCHEM_ATOM_DEF_STEREO_COUNT>  (1) 
0

>  <PUBCHEM_ATOM_UDEF_STEREO_COUNT>  (1) 
0

>  <PUBCHEM_BOND_DEF_STEREO_COUNT>  (1) 
0

>  <PUBCHEM_BOND_UDEF_STEREO_COUNT>  (1) 
5

>  <PUBCHEM_ISOTOPIC_ATOM_COUNT>  (1) 
0

>  <PUBCHEM_COMPONENT_COUNT>  (1) 
1

>  <PUBCHEM_CACTVS_TAUTO_COUNT>  (1) 
1

>  <PUBCHEM_CONFORMER_ID>  (1) 
00000C4900000001

>  <PUBCHEM_MMFF94_ENERGY>  (1) 
5.298

>  <PUBCHEM_FEATURE_SELFOVERLAP>  (1) 
30.503

>  <PUBCHEM_SHAPE_FINGERPRINT>  (1) 
13383661 66 17476614943224342583
13402501 40 18410863174353772842
13422730 73 17684608135741111327
144659 178 14233761767909653497
20764821 26 18267021657209412506
21585483 110 18409730621732570537
325973 47 17835244445930472866
4742675 86 18126547149633189886
5047190 48 17833833055405686280
6433294 58 18412551985617314496
9543594 6 18124885809191151608

>  <PUBCHEM_SHAPE_MULTIPOLES>  (1) 
482.17
10.09
6.51
2.28
2.64
2.66
2.49
0.15
-2.36
2.74
-0.95
-3.1
-1.71
3.16

>  <PUBCHEM_SHAPE_SELFOVERLAP>  (1) 
907.815

>  <PUBCHEM_SHAPE_VOLUME>  (1) 
296.1

>  <PUBCHEM_COORDINATE_TYPE>  (1) 
2
5
10

$$$$
