31454
     RDKit          3D

 14 14  0  0  1  0  0  0  0  0999 V2000
   -1.8466   -0.0106   -1.0251 O   0  0  0  0  0  0  0  0  0  0  0  0
   -1.7043    1.0501    1.0963 O   0  0  0  0  0  0  0  0  0  0  0  0
    2.0327    1.3540   -0.6982 O   0  0  0  0  0  0  0  0  0  0  0  0
    0.2815   -0.0380    0.1763 C   0  0  0  0  0  0  0  0  0  0  0  0
    1.7934    0.1342   -0.0110 C   0  0  0  0  0  0  0  0  0  0  0  0
   -0.4278   -0.0074   -1.1905 C   0  0  0  0  0  0  0  0  0  0  0  0
   -0.2782    1.1077    1.0405 C   0  0  0  0  0  0  0  0  0  0  0  0
    0.0070   -1.3869    0.8689 C   0  0  0  0  0  0  0  0  0  0  0  0
   -2.2684    1.0902   -0.2167 C   0  0  0  0  0  0  0  0  0  0  0  0
    2.5194    0.1473    1.3206 C   0  0  0  0  0  0  0  0  0  0  0  0
    0.5127   -2.5187    0.0390 C   0  0  0  0  0  0  0  0  0  0  0  0
   -3.7788    1.0100   -0.0752 C   0  0  0  0  0  0  0  0  0  0  0  0
    3.4218    1.5739   -0.9044 C   0  0  0  0  0  0  0  0  0  0  0  0
   -0.2643   -3.5059   -0.4206 C   0  0  0  0  0  0  0  0  0  0  0  0
  1  6  1  0
  1  9  1  0
  2  7  1  0
  2  9  1  0
  3  5  1  0
  3 13  1  0
  4  5  1  0
  4  6  1  0
  4  7  1  0
  4  8  1  0
  5 10  1  0
  8 11  1  0
  9 12  1  0
 11 14  2  0
M  END
>  <PUBCHEM_COMPOUND_CID>  (1) 
31454

>  <PUBCHEM_CONFORMER_RMSD>  (1) 
0.6

>  <PUBCHEM_CONFORMER_DIVERSEORDER>  (1) 
1
3
6
18
19
16
20
9
14
11
7
2
8
12
15
17
4
10
5
13

>  <PUBCHEM_MMFF94_PARTIAL_CHARGES>  (1) 
14
1 -0.56
11 -0.29
13 0.28
14 -0.3
2 -0.56
26 0.15
3 -0.56
33 0.15
34 0.15
5 0.28
6 0.28
7 0.28
8 0.14
9 0.56

>  <PUBCHEM_EFFECTIVE_ROTOR_COUNT>  (1) 
5.2

>  <PUBCHEM_PHARMACOPHORE_FEATURES>  (1) 
5
1 1 acceptor
1 14 hydrophobe
1 2 acceptor
1 3 acceptor
6 1 2 4 6 7 9 rings

>  <PUBCHEM_HEAVY_ATOM_COUNT>  (1) 
14

>  <PUBCHEM_ATOM_DEF_STEREO_COUNT>  (1) 
1

>  <PUBCHEM_ATOM_UDEF_STEREO_COUNT>  (1) 
0

>  <PUBCHEM_BOND_DEF_STEREO_COUNT>  (1) 
0

>  <PUBCHEM_BOND_UDEF_STEREO_COUNT>  (1) 
0

>  <PUBCHEM_ISOTOPIC_ATOM_COUNT>  (1) 
0

>  <PUBCHEM_COMPONENT_COUNT>  (1) 
1

>  <PUBCHEM_CACTVS_TAUTO_COUNT>  (1) 
1

>  <PUBCHEM_CONFORMER_ID>  (1) 
00007ADE00000001

>  <PUBCHEM_MMFF94_ENERGY>  (1) 
46.5733

>  <PUBCHEM_FEATURE_SELFOVERLAP>  (1) 
25.407

>  <PUBCHEM_SHAPE_FINGERPRINT>  (1) 
1 1 18335699386636526278
10922049 32 18336278897899269630
12119455 92 17822003220438579660
12138202 97 18267882738001469926
12326174 3 17898002426259918098
12423570 1 9754691197045505778
13024252 1 14418964253863466044
14617773 55 17754154690414389090
15490181 8 18336553707049904714
15775835 57 18040718103669403172
15906896 17 18044098071000846674
16945 1 18193002512688769449
19786989 88 18114455670022934821
19873495 37 18202563990553120797
201361 129 18198070183562338033
20379382 53 18048886190894567349
20645476 183 18337953492889782708
20645477 70 18192142691181771485
20711985 344 17905042912988033114
21524375 3 18259704514547926880
21930827 45 18198056083004973858
23419403 2 16905598731703733671
23552423 10 18054510210113775117
23557571 272 17767688618017376768
2748010 2 18265074525006035938
276578 36 18272369728932258369
305870 269 18197485247428358560
3060560 45 18334299734114623740
430814 3 18410007736694795246
458136 41 18267322974940285859
5084963 1 18200315403285607112
528862 383 18194391196049016179
53812653 217 18120663688730184674
7364860 26 17983848982821311203
81228 2 17831861626466315010
81539 233 18335981965641228821
8272917 22 18194125118888744709

>  <PUBCHEM_SHAPE_MULTIPOLES>  (1) 
270.51
4.31
2.77
1.21
0.93
3.62
0.1
-3.59
-0.53
-0.3
-0.4
-0.3
-0.22
-0.57

>  <PUBCHEM_SHAPE_SELFOVERLAP>  (1) 
533.47

>  <PUBCHEM_SHAPE_VOLUME>  (1) 
160.7

>  <PUBCHEM_COORDINATE_TYPE>  (1) 
2
5
10

$$$$
