31469
     RDKit          3D

 15 15  0  0  0  0  0  0  0  0999 V2000
   -1.2616   -0.4710   -1.2285 O   0  0  0  0  0  0  0  0  0  0  0  0
   -1.3022    0.8227    0.7639 O   0  0  0  0  0  0  0  0  0  0  0  0
    2.8891    1.2354    0.5538 O   0  0  0  0  0  0  0  0  0  0  0  0
    0.8496    0.3065   -0.2738 C   0  0  0  0  0  0  0  0  0  0  0  0
    1.0778   -0.9697    0.5593 C   0  0  0  0  0  0  0  0  0  0  0  0
    0.0636   -0.0460   -1.5506 C   0  0  0  0  0  0  0  0  0  0  0  0
    0.0209    1.3143    0.5449 C   0  0  0  0  0  0  0  0  0  0  0  0
    2.2066    0.9174   -0.6425 C   0  0  0  0  0  0  0  0  0  0  0  0
   -1.9500    0.5308   -0.4765 C   0  0  0  0  0  0  0  0  0  0  0  0
    1.9011   -1.9820   -0.2201 C   0  0  0  0  0  0  0  0  0  0  0  0
   -3.3387    0.0018   -0.1613 C   0  0  0  0  0  0  0  0  0  0  0  0
    2.1067   -3.2499    0.5932 C   0  0  0  0  0  0  0  0  0  0  0  0
   -3.2576   -1.2788    0.6718 C   0  0  0  0  0  0  0  0  0  0  0  0
   -4.1713    1.0575    0.5686 C   0  0  0  0  0  0  0  0  0  0  0  0
    4.1662    1.8110    0.2978 C   0  0  0  0  0  0  0  0  0  0  0  0
  1  6  1  0
  1  9  1  0
  2  7  1  0
  2  9  1  0
  3  8  1  0
  3 15  1  0
  4  5  1  0
  4  6  1  0
  4  7  1  0
  4  8  1  0
  5 10  1  0
  9 11  1  0
 10 12  1  0
 11 13  1  0
 11 14  1  0
M  END
>  <PUBCHEM_COMPOUND_CID>  (1) 
31469

>  <PUBCHEM_CONFORMER_RMSD>  (1) 
0.8

>  <PUBCHEM_CONFORMER_DIVERSEORDER>  (1) 
1
10
6
5
4
9
7
8
2
3

>  <PUBCHEM_MMFF94_PARTIAL_CHARGES>  (1) 
8
1 -0.56
15 0.28
2 -0.56
3 -0.56
6 0.28
7 0.28
8 0.28
9 0.56

>  <PUBCHEM_EFFECTIVE_ROTOR_COUNT>  (1) 
6.2

>  <PUBCHEM_PHARMACOPHORE_FEATURES>  (1) 
6
1 1 acceptor
1 12 hydrophobe
1 2 acceptor
1 3 acceptor
3 11 13 14 hydrophobe
6 1 2 4 6 7 9 rings

>  <PUBCHEM_HEAVY_ATOM_COUNT>  (1) 
15

>  <PUBCHEM_ATOM_DEF_STEREO_COUNT>  (1) 
0

>  <PUBCHEM_ATOM_UDEF_STEREO_COUNT>  (1) 
0

>  <PUBCHEM_BOND_DEF_STEREO_COUNT>  (1) 
0

>  <PUBCHEM_BOND_UDEF_STEREO_COUNT>  (1) 
0

>  <PUBCHEM_ISOTOPIC_ATOM_COUNT>  (1) 
0

>  <PUBCHEM_COMPONENT_COUNT>  (1) 
1

>  <PUBCHEM_CACTVS_TAUTO_COUNT>  (1) 
1

>  <PUBCHEM_CONFORMER_ID>  (1) 
00007AED00000001

>  <PUBCHEM_MMFF94_ENERGY>  (1) 
40.0284

>  <PUBCHEM_FEATURE_SELFOVERLAP>  (1) 
30.483

>  <PUBCHEM_SHAPE_FINGERPRINT>  (1) 
10922049 32 18341336712054567052
14178342 30 18115035202929494827
14252887 29 17894640231703540609
14787075 74 17769377454354084521
15207287 21 17241323702101085435
15219456 202 18114736040982092765
15775835 57 18131350838367042573
16945 1 18335702783976756597
17841504 4 18193838137273395690
18915476 22 18189596285906387742
19784866 9 18413669110647670928
19873495 37 18130226085596029668
201361 129 18413951693593951368
204376 136 18264207087936569960
20645477 70 18272368629531582631
21501502 16 18199751341141534009
21650355 55 17255388333228055098
22112679 90 17273670170370169278
23402539 116 16443612610397480949
23493267 7 17703801326917062147
23557571 272 17022897909172304133
23559900 14 18265889151521575186
2748010 2 17605261892113013973
276578 36 18342739637067216900
3250762 1 17827622674508621804
458136 41 18334863835462119178
474229 33 18119530087804575050
528862 383 18411975841176310382
568465 68 18048896361276923891
633830 44 18272091647117381548
7364860 26 18341332184953548958
81228 2 17255941894435246954
81539 233 18408321103417548596

>  <PUBCHEM_SHAPE_MULTIPOLES>  (1) 
291.09
6.5
2.45
1.07
2.6
2.12
-0.28
-2
1.51
-2.8
0.64
0.11
0
-0.02

>  <PUBCHEM_SHAPE_SELFOVERLAP>  (1) 
565.703

>  <PUBCHEM_SHAPE_VOLUME>  (1) 
175.8

>  <PUBCHEM_COORDINATE_TYPE>  (1) 
2
5
10

$$$$
