31468
     RDKit          3D

 13 13  0  0  0  0  0  0  0  0999 V2000
    1.7388    0.3483    1.1668 O   0  0  0  0  0  0  0  0  0  0  0  0
    1.6402   -0.5941   -1.0120 O   0  0  0  0  0  0  0  0  0  0  0  0
   -1.6711   -1.6978   -0.3424 O   0  0  0  0  0  0  0  0  0  0  0  0
   -0.4024    0.2991   -0.0103 C   0  0  0  0  0  0  0  0  0  0  0  0
   -1.6484    1.1382   -0.3171 C   0  0  0  0  0  0  0  0  0  0  0  0
    0.5032    1.0427    0.9893 C   0  0  0  0  0  0  0  0  0  0  0  0
    0.3994    0.0514   -1.3019 C   0  0  0  0  0  0  0  0  0  0  0  0
   -0.8364   -1.0506    0.5934 C   0  0  0  0  0  0  0  0  0  0  0  0
   -2.4587    1.3692    0.9539 C   0  0  0  0  0  0  0  0  0  0  0  0
   -1.2510    2.4649   -0.9552 C   0  0  0  0  0  0  0  0  0  0  0  0
    2.4097    0.1731   -0.0831 C   0  0  0  0  0  0  0  0  0  0  0  0
    3.7004   -0.5819    0.1850 C   0  0  0  0  0  0  0  0  0  0  0  0
   -2.1235   -2.9624    0.1336 C   0  0  0  0  0  0  0  0  0  0  0  0
  1  6  1  0
  1 11  1  0
  2  7  1  0
  2 11  1  0
  3  8  1  0
  3 13  1  0
  4  5  1  0
  4  6  1  0
  4  7  1  0
  4  8  1  0
  5  9  1  0
  5 10  1  0
 11 12  1  0
M  END
>  <PUBCHEM_COMPOUND_CID>  (1) 
31468

>  <PUBCHEM_CONFORMER_RMSD>  (1) 
0.6

>  <PUBCHEM_CONFORMER_DIVERSEORDER>  (1) 
2
10
1
11
6
5
7
12
8
9
3
4

>  <PUBCHEM_MMFF94_PARTIAL_CHARGES>  (1) 
8
1 -0.56
11 0.56
13 0.28
2 -0.56
3 -0.56
6 0.28
7 0.28
8 0.28

>  <PUBCHEM_EFFECTIVE_ROTOR_COUNT>  (1) 
4.2

>  <PUBCHEM_PHARMACOPHORE_FEATURES>  (1) 
5
1 1 acceptor
1 2 acceptor
1 3 acceptor
3 5 9 10 hydrophobe
6 1 2 4 6 7 11 rings

>  <PUBCHEM_HEAVY_ATOM_COUNT>  (1) 
13

>  <PUBCHEM_ATOM_DEF_STEREO_COUNT>  (1) 
0

>  <PUBCHEM_ATOM_UDEF_STEREO_COUNT>  (1) 
0

>  <PUBCHEM_BOND_DEF_STEREO_COUNT>  (1) 
0

>  <PUBCHEM_BOND_UDEF_STEREO_COUNT>  (1) 
0

>  <PUBCHEM_ISOTOPIC_ATOM_COUNT>  (1) 
0

>  <PUBCHEM_COMPONENT_COUNT>  (1) 
1

>  <PUBCHEM_CACTVS_TAUTO_COUNT>  (1) 
1

>  <PUBCHEM_CONFORMER_ID>  (1) 
00007AEC00000002

>  <PUBCHEM_MMFF94_ENERGY>  (1) 
44.7253

>  <PUBCHEM_FEATURE_SELFOVERLAP>  (1) 
25.407

>  <PUBCHEM_SHAPE_FINGERPRINT>  (1) 
1 1 17688025310727576207
12138202 97 18339637837302830006
12423570 1 16755858566730786621
12716758 59 18340200774461058962
12725867 57 17833543879420329335
12932764 1 18114463375436902200
13024252 1 16370732504062518777
13581323 91 18114189583813727672
14817 1 12533101791432116101
15219459 28 18131075891777603991
16945 1 18336546019185077684
18534176 82 18342172246054373180
20524608 308 18337389336082303486
20711985 344 18336532902449953283
20871998 184 18334588918626137019
20871998 22 17977943806500510323
21501502 16 18340211907000706256
21930827 45 18342171146321166833
22112679 90 18116454693646725877
22344851 341 16979287773268841632
23402539 116 18341037528685374973
23419403 2 17769628104751522761
23559900 14 18200025128902225466
241688 4 18263361550372343401
2748010 2 18124580136046993589
305870 269 17761492491299070137
3086196 2 18338788026689794386
3250762 1 18198894993023576873
369184 2 18337670819770183496
5084963 1 18200296732925829237
68250623 7 18266186217108419784
7364860 26 17112132396119292243
81228 2 18337950194534247427

>  <PUBCHEM_SHAPE_MULTIPOLES>  (1) 
249.93
4.03
2.49
1.15
3.48
1.39
0.03
0.6
-0.51
-2.83
0.26
0.03
-0.31
0.12

>  <PUBCHEM_SHAPE_SELFOVERLAP>  (1) 
489.46

>  <PUBCHEM_SHAPE_VOLUME>  (1) 
150.3

>  <PUBCHEM_COORDINATE_TYPE>  (1) 
2
5
10

$$$$
