31478
     RDKit          3D

 24 25  0  0  1  0  0  0  0  0999 V2000
   -1.0433   -0.1535    0.4352 O   0  0  0  0  0  0  0  0  0  0  0  0
    0.7346   -1.7059   -2.3716 O   0  0  0  0  0  0  0  0  0  0  0  0
   -0.8641   -2.7039    1.4878 O   0  0  0  0  0  0  0  0  0  0  0  0
    5.0378   -1.0621    0.0006 O   0  0  0  0  0  0  0  0  0  0  0  0
    5.1292    1.6610    0.5504 O   0  0  0  0  0  0  0  0  0  0  0  0
   -6.4793    0.7508    0.3252 O   0  0  0  0  0  0  0  0  0  0  0  0
    0.3940   -0.6670   -1.4503 C   0  0  0  0  0  0  0  0  0  0  0  0
   -0.5584   -1.2253   -0.3765 C   0  0  0  0  0  0  0  0  0  0  0  0
    1.6660   -0.0458   -0.9143 C   0  0  0  0  0  0  0  0  0  0  0  0
    0.0891   -2.2786    0.5185 C   0  0  0  0  0  0  0  0  0  0  0  0
    2.7729   -0.8490   -0.7030 C   0  0  0  0  0  0  0  0  0  0  0  0
    1.6933    1.3117   -0.6466 C   0  0  0  0  0  0  0  0  0  0  0  0
    3.9446   -0.2765   -0.2083 C   0  0  0  0  0  0  0  0  0  0  0  0
   -2.3915    0.0711    0.4081 C   0  0  0  0  0  0  0  0  0  0  0  0
    2.8651    1.8842   -0.1518 C   0  0  0  0  0  0  0  0  0  0  0  0
    3.9907    1.0901    0.0673 C   0  0  0  0  0  0  0  0  0  0  0  0
   -3.1319   -0.0217    1.5830 C   0  0  0  0  0  0  0  0  0  0  0  0
   -3.0153    0.3907   -0.7945 C   0  0  0  0  0  0  0  0  0  0  0  0
   -4.5076    0.2069    1.5553 C   0  0  0  0  0  0  0  0  0  0  0  0
   -4.3910    0.6195   -0.8224 C   0  0  0  0  0  0  0  0  0  0  0  0
   -5.1371    0.5277    0.3525 C   0  0  0  0  0  0  0  0  0  0  0  0
    5.1681   -1.6623    1.2878 C   0  0  0  0  0  0  0  0  0  0  0  0
    5.0929    3.0638    0.8058 C   0  0  0  0  0  0  0  0  0  0  0  0
   -7.0585    1.0743   -0.9381 C   0  0  0  0  0  0  0  0  0  0  0  0
  1  8  1  0
  1 14  1  0
  2  7  1  0
  3 10  1  0
  4 13  1  0
  4 22  1  0
  5 16  1  0
  5 23  1  0
  6 21  1  0
  6 24  1  0
  7  8  1  0
  7  9  1  0
  8 10  1  0
  9 11  2  0
  9 12  1  0
 11 13  1  0
 12 15  2  0
 13 16  2  0
 14 17  2  0
 14 18  1  0
 15 16  1  0
 17 19  1  0
 18 20  2  0
 19 21  2  0
 20 21  1  0
M  END
>  <PUBCHEM_COMPOUND_CID>  (1) 
31478

>  <PUBCHEM_CONFORMER_RMSD>  (1) 
0.8

>  <PUBCHEM_CONFORMER_DIVERSEORDER>  (1) 
4
432
36
173
269
139
86
369
377
13
365
380
316
119
91
180
21
190
423
75
388
69
134
454
106
363
371
183
166
270
349
141
336
355
393
353
379
123
33
275
264
68
201
130
346
455
174
276
165
151
384
70
310
300
392
168
43
415
215
325
101
202
125
51
90
188
240
279
425
223
284
157
48
210
98
217
175
71
340
6
225
417
451
289
18
146
258
433
439
343
102
52
328
191
14
314
271
245
403
458
99
85
364
291
335
127
159
411
138
303
320
9
133
12
35
426
73
267
11
385
309
338
428
37
375
441
181
224
46
147
407
315
361
305
42
416
443
253
92
452
211
65
103
87
156
437
112
154
387
176
66
327
109
187
207
357
430
457
272
54
47
341
89
111
137
234
323
57
409
263
10
152
142
7
162
332
337
442
230
182
292
193
63
84
216
354
274
161
197
140
246
435
82
17
440
108
198
241
360
81
394
120
171
414
319
97
456
20
386
5
367
429
296
398
24
132
163
247
38
94
118
117
421
285
260
322
124
177
149
150
128
288
96
438
194
448
208
427
59
228
214
148
358
107
236
79
399
110
334
259
366
382
122
344
287
93
104
100
362
213
298
113
231
294
255
311
281
302
378
262
31
249
277
27
374
418
278
67
391
266
436
368
29
331
286
74
164
396
158
2
26
218
324
115
235
431
352
342
58
179
39
19
206
444
116
25
192
372
422
290
229
178
326
283
72
434
8
167
420
413
453
131
15
356
408
351
95
273
135
185
226
227
445
239
222
313
232
3
330
195
244
184
250
212
80
155
251
126
406
205
53
30
248
60
242
410
308
172
359
306
203
405
282
265
34
350
219
376
221
256
64
293
329
280
209
160
299
390
153
121
348
400
49
450
254
389
383
419
41
297
446
318
339
261
321
186
144
56
200
243
45
76
347
370
199
257
237
381
317
136
220
88
268
143
312
189
295
114
238
40
204
301
449
373
129
105
196
395
61
404
77
447
28
397
1
44
145
83
23
62
50
169
333
401
170
412
307
402
252
78
424
16
22
32
304
345
233
55

>  <PUBCHEM_MMFF94_PARTIAL_CHARGES>  (1) 
33
1 -0.36
10 0.28
11 -0.15
12 -0.15
13 0.08
14 0.08
15 -0.15
16 0.08
17 -0.15
18 -0.15
19 -0.15
2 -0.68
20 -0.15
21 0.08
22 0.28
23 0.28
24 0.28
29 0.15
3 -0.68
30 0.15
31 0.4
32 0.15
33 0.4
34 0.15
35 0.15
36 0.15
37 0.15
4 -0.36
5 -0.36
6 -0.36
7 0.42
8 0.28
9 -0.14

>  <PUBCHEM_EFFECTIVE_ROTOR_COUNT>  (1) 
8

>  <PUBCHEM_PHARMACOPHORE_FEATURES>  (1) 
10
1 1 acceptor
1 2 acceptor
1 2 donor
1 3 acceptor
1 3 donor
1 4 acceptor
1 5 acceptor
1 6 acceptor
6 14 17 18 19 20 21 rings
6 9 11 12 13 15 16 rings

>  <PUBCHEM_HEAVY_ATOM_COUNT>  (1) 
24

>  <PUBCHEM_ATOM_DEF_STEREO_COUNT>  (1) 
0

>  <PUBCHEM_ATOM_UDEF_STEREO_COUNT>  (1) 
2

>  <PUBCHEM_BOND_DEF_STEREO_COUNT>  (1) 
0

>  <PUBCHEM_BOND_UDEF_STEREO_COUNT>  (1) 
0

>  <PUBCHEM_ISOTOPIC_ATOM_COUNT>  (1) 
0

>  <PUBCHEM_COMPONENT_COUNT>  (1) 
1

>  <PUBCHEM_CACTVS_TAUTO_COUNT>  (1) 
1

>  <PUBCHEM_CONFORMER_ID>  (1) 
00007AF600000004

>  <PUBCHEM_MMFF94_ENERGY>  (1) 
103.6667

>  <PUBCHEM_FEATURE_SELFOVERLAP>  (1) 
50.759

>  <PUBCHEM_SHAPE_FINGERPRINT>  (1) 
10319926 262 16732989725985593441
11140007 195 16877666751285985814
12236239 1 17561084683715247269
12403259 415 18186516579522544293
12633257 1 18408321082117149186
13402501 40 18261107461711049805
13533116 47 18187644648625313058
13540713 5 18057021718716972638
13583140 156 18194404613616214610
13675066 3 17821730554724298178
13878862 14 18269537438630322924
14178342 30 17753611540661213490
14251764 30 9079121059409940041
15475509 35 17168693138816237466
15537594 2 11674885501942637169
192875 21 17989212525216999808
20157964 124 18272653441344350165
20197701 30 18260268564240057139
20567600 254 18408321103470386933
21033648 144 18341888640626450812
21033648 29 17967524679665337909
21033650 10 14835586694313067243
21403212 168 18261945276343063050
21774942 28 18125436407130645269
22950370 63 11674877801192661173
23402539 116 18335137596851626935
23559900 14 16588036705411415831
23569917 315 17561368365778492671
23622692 88 18410857647047562126
2838139 119 18131915961552985593
34934 24 18269270322103361112
351380 180 18334859424383175653
351380 3 12757150190731563213
4325135 7 13829838115376577770
4340502 62 18334868203860889531
465052 167 12396304755177265449
474 4 18130795559330395215
5104073 3 18337672018055666162
54039377 194 11314573317566646632
59755656 215 17241045393027292891
8509985 295 18113903757961429644

>  <PUBCHEM_SHAPE_MULTIPOLES>  (1) 
458.69
14.73
2.34
1.49
11.81
0.08
0.13
7.47
-2.52
-3.54
-0.61
0.53
-0.52
0.78

>  <PUBCHEM_SHAPE_SELFOVERLAP>  (1) 
963.887

>  <PUBCHEM_SHAPE_VOLUME>  (1) 
260.2

>  <PUBCHEM_COORDINATE_TYPE>  (1) 
2
5
10

$$$$
