3149
     RDKit          3D

 24 24  0  0  0  0  0  0  0  0999 V2000
   -0.2924    1.3615    0.7166 O   0  0  0  0  0  0  0  0  0  0  0  0
    3.4143    1.8077    0.4269 N   0  0  0  0  0  0  0  0  0  0  0  0
    3.7774    0.5314   -0.2315 C   0  0  0  0  0  0  0  0  0  0  0  0
    3.8492   -0.5983    0.7882 C   0  0  0  0  0  0  0  0  0  0  0  0
    2.0495    1.6966    1.1225 C   0  0  0  0  0  0  0  0  0  0  0  0
    4.2688   -1.9670    0.2391 C   0  0  0  0  0  0  0  0  0  0  0  0
    3.3335    2.9490   -0.5978 C   0  0  0  0  0  0  0  0  0  0  0  0
    4.4570    2.1937    1.4864 C   0  0  0  0  0  0  0  0  0  0  0  0
    3.3292   -2.5839   -0.8014 C   0  0  0  0  0  0  0  0  0  0  0  0
    1.9332   -2.8923   -0.2540 C   0  0  0  0  0  0  0  0  0  0  0  0
    0.9784    1.4297    0.0834 C   0  0  0  0  0  0  0  0  0  0  0  0
    1.0124   -3.4208   -1.3572 C   0  0  0  0  0  0  0  0  0  0  0  0
   -0.4087   -3.7214   -0.8720 C   0  0  0  0  0  0  0  0  0  0  0  0
   -1.1364   -2.4925   -0.3225 C   0  0  0  0  0  0  0  0  0  0  0  0
   -2.5209   -2.8628    0.2145 C   0  0  0  0  0  0  0  0  0  0  0  0
   -3.2350   -1.6431    0.7995 C   0  0  0  0  0  0  0  0  0  0  0  0
   -4.6309   -2.0058    1.3056 C   0  0  0  0  0  0  0  0  0  0  0  0
   -1.3740    1.7620   -0.0239 C   0  0  0  0  0  0  0  0  0  0  0  0
   -5.3309   -0.8032    1.9183 C   0  0  0  0  0  0  0  0  0  0  0  0
   -1.3644    1.6119   -1.4107 C   0  0  0  0  0  0  0  0  0  0  0  0
   -2.4844    2.3204    0.6095 C   0  0  0  0  0  0  0  0  0  0  0  0
   -2.4649    2.0202   -2.1641 C   0  0  0  0  0  0  0  0  0  0  0  0
   -3.5850    2.7286   -0.1441 C   0  0  0  0  0  0  0  0  0  0  0  0
   -3.5751    2.5784   -1.5309 C   0  0  0  0  0  0  0  0  0  0  0  0
  1 11  1  0
  1 18  1  0
  2  3  1  0
  2  5  1  0
  2  7  1  0
  2  8  1  0
  3  4  1  0
  4  6  1  0
  5 11  1  0
  6  9  1  0
  9 10  1  0
 10 12  1  0
 12 13  1  0
 13 14  1  0
 14 15  1  0
 15 16  1  0
 16 17  1  0
 17 19  1  0
 18 20  2  0
 18 21  1  0
 20 22  1  0
 21 23  2  0
 22 24  2  0
 23 24  1  0
M  CHG  1   2   1
M  END
>  <PUBCHEM_COMPOUND_CID>  (1) 
3149

>  <PUBCHEM_CONFORMER_RMSD>  (1) 
1.4

>  <PUBCHEM_CONFORMER_DIVERSEORDER>  (1) 
3
4
21
38
24
7
15
32
80
17
94
52
48
45
44
65
29
82
30
99
25
69
73
11
58
33
54
35
63
49
74
2
41
34
28
19
56
1
13
84
39
57
22
83
81
64
100
16
5
42
53
97
95
93
85
43
71
31
91
77
87
14
67
9
92
27
68
59
79
50
98
75
51
61
10
78
23
47
66
89
46
70
88
72
6
86
8
40
36
76
12
37
18
96
62
90
20
26
55
60

>  <PUBCHEM_MMFF94_PARTIAL_CHARGES>  (1) 
18
1 -0.36
11 0.28
18 0.08
2 -1.01
20 -0.15
21 -0.15
22 -0.15
23 -0.15
24 -0.15
3 0.5
5 0.5
60 0.15
61 0.15
62 0.15
63 0.15
64 0.15
7 0.5
8 0.5

>  <PUBCHEM_EFFECTIVE_ROTOR_COUNT>  (1) 
15

>  <PUBCHEM_PHARMACOPHORE_FEATURES>  (1) 
4
1 1 acceptor
1 19 hydrophobe
1 2 cation
6 18 20 21 22 23 24 rings

>  <PUBCHEM_HEAVY_ATOM_COUNT>  (1) 
24

>  <PUBCHEM_ATOM_DEF_STEREO_COUNT>  (1) 
0

>  <PUBCHEM_ATOM_UDEF_STEREO_COUNT>  (1) 
0

>  <PUBCHEM_BOND_DEF_STEREO_COUNT>  (1) 
0

>  <PUBCHEM_BOND_UDEF_STEREO_COUNT>  (1) 
0

>  <PUBCHEM_ISOTOPIC_ATOM_COUNT>  (1) 
0

>  <PUBCHEM_COMPONENT_COUNT>  (1) 
1

>  <PUBCHEM_CACTVS_TAUTO_COUNT>  (1) 
1

>  <PUBCHEM_CONFORMER_ID>  (1) 
00000C4D00000003

>  <PUBCHEM_MMFF94_ENERGY>  (1) 
53.457

>  <PUBCHEM_FEATURE_SELFOVERLAP>  (1) 
20.297

>  <PUBCHEM_SHAPE_FINGERPRINT>  (1) 
12100795 323 18410006645825927606
12422481 6 18263099781248860737
12788726 201 17615958246952015852
13402501 40 18338239245986508675
13561361 72 18335141985907581979
13773456 30 18267560499501319348
14251757 17 18194403286371327355
144659 39 18193529282233387530
14790565 3 17545894079589032288
14840074 17 18046079408270780105
15420108 30 17987810742724335223
19930381 70 17547290008368404271
20621476 7 18339367473254130682
20764821 26 18342163454066654695
338550 245 18336271223209403956
350125 39 18411428336384110854
463206 1 17764590919761861574
5047190 48 18194409011330448509

>  <PUBCHEM_SHAPE_MULTIPOLES>  (1) 
483.06
9.89
5.65
1.63
0.5
2.66
-0.18
-0.99
3.92
0.26
-1.53
1.34
-0.39
3.19

>  <PUBCHEM_SHAPE_SELFOVERLAP>  (1) 
928.24

>  <PUBCHEM_SHAPE_VOLUME>  (1) 
297

>  <PUBCHEM_COORDINATE_TYPE>  (1) 
2
5
10

$$$$
