31499
     RDKit          3D

 18 18  0  0  1  0  0  0  0  0999 V2000
   -1.7102   -0.1033    1.2355 O   0  0  0  0  0  0  0  0  0  0  0  0
   -1.7327   -0.8782   -1.0104 O   0  0  0  0  0  0  0  0  0  0  0  0
    2.2452   -0.4441    0.1147 O   0  0  0  0  0  0  0  0  0  0  0  0
    0.0978    0.5614   -0.2685 C   0  0  0  0  0  0  0  0  0  0  0  0
    1.6181    0.7439   -0.3469 C   0  0  0  0  0  0  0  0  0  0  0  0
   -0.3206    0.2218    1.1743 C   0  0  0  0  0  0  0  0  0  0  0  0
   -0.3444   -0.5929   -1.1876 C   0  0  0  0  0  0  0  0  0  0  0  0
   -0.5927    1.8659   -0.7115 C   0  0  0  0  0  0  0  0  0  0  0  0
   -2.0199   -1.1863    0.3557 C   0  0  0  0  0  0  0  0  0  0  0  0
   -3.5099   -1.4617    0.4655 C   0  0  0  0  0  0  0  0  0  0  0  0
    2.0687    1.0418   -1.7640 C   0  0  0  0  0  0  0  0  0  0  0  0
   -0.2055    2.9971    0.1807 C   0  0  0  0  0  0  0  0  0  0  0  0
   -4.3228   -0.2341    0.0501 C   0  0  0  0  0  0  0  0  0  0  0  0
   -3.9045   -2.6714   -0.3839 C   0  0  0  0  0  0  0  0  0  0  0  0
    3.6620   -0.3394    0.0673 C   0  0  0  0  0  0  0  0  0  0  0  0
    4.2683   -1.6395    0.5728 C   0  0  0  0  0  0  0  0  0  0  0  0
   -1.0828    3.7145    0.8914 C   0  0  0  0  0  0  0  0  0  0  0  0
    5.7858   -1.5957    0.5649 C   0  0  0  0  0  0  0  0  0  0  0  0
  1  6  1  0
  1  9  1  0
  2  7  1  0
  2  9  1  0
  3  5  1  0
  3 15  1  0
  4  5  1  0
  4  6  1  0
  4  7  1  0
  4  8  1  0
  5 11  1  0
  8 12  1  0
  9 10  1  0
 10 13  1  0
 10 14  1  0
 12 17  2  0
 15 16  1  0
 16 18  1  0
M  END
>  <PUBCHEM_COMPOUND_CID>  (1) 
31499

>  <PUBCHEM_CONFORMER_RMSD>  (1) 
0.8

>  <PUBCHEM_CONFORMER_DIVERSEORDER>  (1) 
1
2
6
47
37
35
22
23
21
5
38
12
30
11
34
10
42
13
27
39
20
48
24
41
43
44
8
19
9
29
7
36
17
33
25
4
26
18
15
3
28
45
16
46
14
40
31
32

>  <PUBCHEM_MMFF94_PARTIAL_CHARGES>  (1) 
14
1 -0.56
12 -0.29
15 0.28
17 -0.3
2 -0.56
3 -0.56
31 0.15
42 0.15
43 0.15
5 0.28
6 0.28
7 0.28
8 0.14
9 0.56

>  <PUBCHEM_EFFECTIVE_ROTOR_COUNT>  (1) 
8.2

>  <PUBCHEM_PHARMACOPHORE_FEATURES>  (1) 
7
1 1 acceptor
1 17 hydrophobe
1 18 hydrophobe
1 2 acceptor
1 3 acceptor
3 10 13 14 hydrophobe
6 1 2 4 6 7 9 rings

>  <PUBCHEM_HEAVY_ATOM_COUNT>  (1) 
18

>  <PUBCHEM_ATOM_DEF_STEREO_COUNT>  (1) 
1

>  <PUBCHEM_ATOM_UDEF_STEREO_COUNT>  (1) 
0

>  <PUBCHEM_BOND_DEF_STEREO_COUNT>  (1) 
0

>  <PUBCHEM_BOND_UDEF_STEREO_COUNT>  (1) 
0

>  <PUBCHEM_ISOTOPIC_ATOM_COUNT>  (1) 
0

>  <PUBCHEM_COMPONENT_COUNT>  (1) 
1

>  <PUBCHEM_CACTVS_TAUTO_COUNT>  (1) 
1

>  <PUBCHEM_CONFORMER_ID>  (1) 
00007B0B00000001

>  <PUBCHEM_MMFF94_ENERGY>  (1) 
49.4178

>  <PUBCHEM_FEATURE_SELFOVERLAP>  (1) 
35.558

>  <PUBCHEM_SHAPE_FINGERPRINT>  (1) 
11265709 11 18408326583600541986
11357001 24 18339640019220315984
12507560 14 18340208595575789311
12507560 18 18040716957271415769
12788726 201 18337690628064498040
13004483 165 18411693292541963912
13052359 8 18193558861589342673
13134695 92 18267865163169783733
13533116 47 17974850876640719883
13955234 65 17620758723039457819
15042514 8 18194966244999286720
16945 1 18197800828777640677
1813 80 18201446929493924534
18186145 218 15936686077235983951
19784866 135 18339635655575618266
19784866 240 18333454248391340366
200 152 18040716965703425762
204376 136 9799698103400148351
20600515 1 17560812055843606939
20626108 58 18128809923078026239
20645477 70 17459190844661092250
20671657 53 18269278026910336091
21250096 35 18409166648933536362
21296965 67 18336541706979805660
21339142 126 18272924990725603214
22112679 90 18268732595886156073
23402539 116 18272364227501444085
23526113 38 17387132181297243641
23557571 272 18272089336266402012
23559900 14 18335690638299977160
23598288 3 18341326708817545148
25147074 1 18042425568471829252
266924 1 18188511132776697796
3086196 2 18338231566626798232
312423 11 18261125037006602164
3286 77 18191301796314220175
4409770 3 18263635165981239949
56616090 89 18187070755538014744
7364860 26 17837495511431292329
76465 3 18338513161641592791
77188 2 18339358677208613745
81228 2 18265915578297364705
90316 7 18342750593318098017

>  <PUBCHEM_SHAPE_MULTIPOLES>  (1) 
352.82
8.3
3.25
1.21
7.85
2.92
-0.24
-8.79
1.49
-1.73
0.61
0.16
0.25
-1.09

>  <PUBCHEM_SHAPE_SELFOVERLAP>  (1) 
690.72

>  <PUBCHEM_SHAPE_VOLUME>  (1) 
211.2

>  <PUBCHEM_COORDINATE_TYPE>  (1) 
2
5
10

$$$$
