31508
     RDKit          3D

 21 23  0  0  0  0  0  0  0  0999 V2000
   -1.3812    3.1450   -0.0692 O   0  0  0  0  0  0  0  0  0  0  0  0
   -1.8901    0.8988    0.0070 N   0  0  0  0  0  0  0  0  0  0  0  0
    0.3676    1.7176   -0.0465 N   0  0  0  0  0  0  0  0  0  0  0  0
   -3.3279    1.1557    0.0341 C   0  0  0  0  0  0  0  0  0  0  0  0
   -1.4213   -0.4461    0.0116 C   0  0  0  0  0  0  0  0  0  0  0  0
   -0.0438   -0.6798   -0.0158 C   0  0  0  0  0  0  0  0  0  0  0  0
    0.8317    0.5089   -0.0242 C   0  0  0  0  0  0  0  0  0  0  0  0
   -2.2908   -1.5480    0.0290 C   0  0  0  0  0  0  0  0  0  0  0  0
   -0.9864    1.9771   -0.0399 C   0  0  0  0  0  0  0  0  0  0  0  0
   -3.7561    1.9019   -1.2228 C   0  0  0  0  0  0  0  0  0  0  0  0
   -3.7095    1.9272    1.2912 C   0  0  0  0  0  0  0  0  0  0  0  0
    0.4584   -1.9873   -0.0535 C   0  0  0  0  0  0  0  0  0  0  0  0
   -1.7903   -2.8514    0.0067 C   0  0  0  0  0  0  0  0  0  0  0  0
   -0.4179   -3.0704   -0.0387 C   0  0  0  0  0  0  0  0  0  0  0  0
    2.3000    0.3627   -0.0033 C   0  0  0  0  0  0  0  0  0  0  0  0
   -2.7286   -4.0109    0.0252 C   0  0  0  0  0  0  0  0  0  0  0  0
    3.0019    0.2747   -1.2006 C   0  0  0  0  0  0  0  0  0  0  0  0
    2.9694    0.3159    1.2148 C   0  0  0  0  0  0  0  0  0  0  0  0
    4.3899    0.1383   -1.1796 C   0  0  0  0  0  0  0  0  0  0  0  0
    4.3574    0.1794    1.2357 C   0  0  0  0  0  0  0  0  0  0  0  0
    5.0677    0.0907    0.0385 C   0  0  0  0  0  0  0  0  0  0  0  0
  1  9  2  0
  2  4  1  0
  2  5  1  0
  2  9  1  0
  3  7  2  0
  3  9  1  0
  4 10  1  0
  4 11  1  0
  5  6  2  0
  5  8  1  0
  6  7  1  0
  6 12  1  0
  7 15  1  0
  8 13  2  0
 12 14  2  0
 13 14  1  0
 13 16  1  0
 15 17  2  0
 15 18  1  0
 17 19  1  0
 18 20  2  0
 19 21  2  0
 20 21  1  0
M  END
>  <PUBCHEM_COMPOUND_CID>  (1) 
31508

>  <PUBCHEM_CONFORMER_RMSD>  (1) 
0.6

>  <PUBCHEM_CONFORMER_DIVERSEORDER>  (1) 
1

>  <PUBCHEM_MMFF94_PARTIAL_CHARGES>  (1) 
27
1 -0.57
12 -0.15
13 -0.14
14 -0.15
15 0.09
16 0.14
17 -0.15
18 -0.15
19 -0.15
2 -0.48
20 -0.15
21 -0.15
23 0.15
3 -0.66
30 0.15
31 0.15
35 0.15
36 0.15
37 0.15
38 0.15
39 0.15
4 0.3
5 0.12
6 0.09
7 0.28
8 -0.15
9 0.84

>  <PUBCHEM_EFFECTIVE_ROTOR_COUNT>  (1) 
2

>  <PUBCHEM_PHARMACOPHORE_FEATURES>  (1) 
7
1 1 acceptor
1 3 acceptor
1 3 donor
3 4 10 11 hydrophobe
6 15 17 18 19 20 21 rings
6 2 3 5 6 7 9 rings
6 5 6 8 12 13 14 rings

>  <PUBCHEM_HEAVY_ATOM_COUNT>  (1) 
21

>  <PUBCHEM_ATOM_DEF_STEREO_COUNT>  (1) 
0

>  <PUBCHEM_ATOM_UDEF_STEREO_COUNT>  (1) 
0

>  <PUBCHEM_BOND_DEF_STEREO_COUNT>  (1) 
0

>  <PUBCHEM_BOND_UDEF_STEREO_COUNT>  (1) 
0

>  <PUBCHEM_ISOTOPIC_ATOM_COUNT>  (1) 
0

>  <PUBCHEM_COMPONENT_COUNT>  (1) 
1

>  <PUBCHEM_CACTVS_TAUTO_COUNT>  (1) 
1

>  <PUBCHEM_CONFORMER_ID>  (1) 
00007B1400000001

>  <PUBCHEM_MMFF94_ENERGY>  (1) 
76.9312

>  <PUBCHEM_FEATURE_SELFOVERLAP>  (1) 
35.606

>  <PUBCHEM_SHAPE_FINGERPRINT>  (1) 
10319926 262 18198038418764582192
10411042 1 17978229692261492847
10493431 412 18341905043528501753
10616163 171 18410294744207159062
10967382 1 18266460905957356623
1100329 8 18339645667634995377
11796584 16 18341902849454666078
121448 382 18269818874988640581
12236239 1 17676207949311322080
12346177 29 18343014531985394174
12403814 3 17313100835059746077
12553582 1 18049448342021683210
12788726 201 18118129305891266322
13052359 8 18408035217361900623
13140716 1 18340206409363654265
13538477 17 18260544537484545204
13544592 145 18129956568050922598
138480 1 16969421808272588879
14178342 30 18337094757603582154
14790565 3 18267320754147846897
15042514 8 18409171034168966219
15309172 13 18337958883153126729
15885798 251 18050289472643372995
16752209 62 18336536226633593778
16945 1 18410856521080458189
17357779 13 18056465382269596383
19591789 44 18123197796443678975
20028762 73 18130229384627506311
20261772 1 18336842968934120579
20510252 161 18270401731888599554
20600515 1 18271537441717751316
20642791 178 17399252858511797694
20739085 24 17832169133308833145
21478907 32 18194400215607360463
21781051 124 18044404680226393771
22182313 1 18267322966498414479
22224240 67 18270973358467444769
23184049 29 18122340448051574060
2334 1 18122343742376282389
23366157 5 17538570902518932610
23402539 116 18342164566521070277
23419403 2 17344334803624726067
23526113 38 17560523902693858550
23557571 272 18201165437611657542
23558518 356 18118126002707656432
23559900 14 18272095977055767476
23598288 3 18042703834321667503
23598291 2 17749676311024612390
2748010 2 18196925793610230861
3091708 16 9199438417845535915
352729 6 18411144640302763773
458136 41 18052553070789580153
5104073 3 18341323488172120824
58779409 54 18339633555458150575
58807428 26 18337955571627697387
59755656 520 18200603488343431017
633830 44 17917146087572818756
7364860 26 17691964860768643051
77492 1 17676203606930353438
81228 2 18194681690340978115
84936 182 17767960935416982849
9709674 26 18272374166003071878
9862522 239 18041551438951571221
9981440 41 18118960296216353393

>  <PUBCHEM_SHAPE_MULTIPOLES>  (1) 
416.34
8.03
3.75
1.05
7.92
2.93
-0.03
-2.26
-0.12
-5.72
0.02
0.48
-0.37
0.03

>  <PUBCHEM_SHAPE_SELFOVERLAP>  (1) 
908.137

>  <PUBCHEM_SHAPE_VOLUME>  (1) 
225.3

>  <PUBCHEM_COORDINATE_TYPE>  (1) 
2
5
10

$$$$
