31501
     RDKit          3D

 21 22  0  0  0  0  0  0  0  0999 V2000
   -3.0205    0.9136   -0.8600 S   0  0  0  0  0  0  0  0  0  0  0  0
   -4.8787    0.2666    0.8298 F   0  0  0  0  0  0  0  0  0  0  0  0
   -4.0994    2.2895    1.0418 F   0  0  0  0  0  0  0  0  0  0  0  0
   -4.0701    1.2217   -1.8131 O   0  0  0  0  0  0  0  0  0  0  0  0
   -1.7907    1.6804   -0.8407 O   0  0  0  0  0  0  0  0  0  0  0  0
    2.6915   -1.9425   -1.4014 O   0  0  0  0  0  0  0  0  0  0  0  0
   -2.6886   -0.7748   -0.9425 N   0  0  0  0  0  0  0  0  0  0  0  0
   -1.5341   -1.2667   -0.2614 C   0  0  0  0  0  0  0  0  0  0  0  0
    0.8312   -1.4630   -0.0671 C   0  0  0  0  0  0  0  0  0  0  0  0
   -0.2596   -0.9736   -0.7468 C   0  0  0  0  0  0  0  0  0  0  0  0
   -1.6809   -2.0408    0.8897 C   0  0  0  0  0  0  0  0  0  0  0  0
    2.1967   -1.1493   -0.5865 C   0  0  0  0  0  0  0  0  0  0  0  0
    0.7208   -2.2286    1.0701 C   0  0  0  0  0  0  0  0  0  0  0  0
    2.9370    0.0309   -0.1703 C   0  0  0  0  0  0  0  0  0  0  0  0
   -0.5535   -2.5216    1.5554 C   0  0  0  0  0  0  0  0  0  0  0  0
   -3.7472    1.0104    0.7559 C   0  0  0  0  0  0  0  0  0  0  0  0
    2.3752    0.9190    0.7471 C   0  0  0  0  0  0  0  0  0  0  0  0
    4.2092    0.2751   -0.6878 C   0  0  0  0  0  0  0  0  0  0  0  0
    3.0853    2.0511    1.1467 C   0  0  0  0  0  0  0  0  0  0  0  0
    4.9192    1.4073   -0.2881 C   0  0  0  0  0  0  0  0  0  0  0  0
    4.3572    2.2952    0.6292 C   0  0  0  0  0  0  0  0  0  0  0  0
  1  4  2  0
  1  5  2  0
  1  7  1  0
  1 16  1  0
  2 16  1  0
  3 16  1  0
  6 12  2  0
  7  8  1  0
  8 10  2  0
  8 11  1  0
  9 10  1  0
  9 12  1  0
  9 13  2  0
 11 15  2  0
 12 14  1  0
 13 15  1  0
 14 17  2  0
 14 18  1  0
 17 19  1  0
 18 20  2  0
 19 21  2  0
 20 21  1  0
M  END
>  <PUBCHEM_COMPOUND_CID>  (1) 
31501

>  <PUBCHEM_CONFORMER_RMSD>  (1) 
0.8

>  <PUBCHEM_CONFORMER_DIVERSEORDER>  (1) 
1
38
5
29
27
33
8
10
13
34
9
11
4
32
23
17
35
37
25
31
36
15
39
40
28
20
12
18
16
24
19
30
41
14
26
2
6
21
3
22
7

>  <PUBCHEM_MMFF94_PARTIAL_CHARGES>  (1) 
31
1 1.33
10 -0.15
11 -0.15
12 0.4
13 -0.15
14 0.09
15 -0.15
16 0.79
17 -0.15
18 -0.15
19 -0.15
2 -0.34
20 -0.15
21 -0.15
22 0.15
23 0.42
24 0.15
25 0.15
26 0.15
28 0.15
29 0.15
3 -0.34
30 0.15
31 0.15
32 0.15
4 -0.65
5 -0.65
6 -0.57
7 -0.76
8 0.2
9 0.09

>  <PUBCHEM_EFFECTIVE_ROTOR_COUNT>  (1) 
5

>  <PUBCHEM_PHARMACOPHORE_FEATURES>  (1) 
6
1 4 acceptor
1 5 acceptor
1 6 acceptor
1 7 donor
6 14 17 18 19 20 21 rings
6 8 9 10 11 13 15 rings

>  <PUBCHEM_HEAVY_ATOM_COUNT>  (1) 
21

>  <PUBCHEM_ATOM_DEF_STEREO_COUNT>  (1) 
0

>  <PUBCHEM_ATOM_UDEF_STEREO_COUNT>  (1) 
0

>  <PUBCHEM_BOND_DEF_STEREO_COUNT>  (1) 
0

>  <PUBCHEM_BOND_UDEF_STEREO_COUNT>  (1) 
0

>  <PUBCHEM_ISOTOPIC_ATOM_COUNT>  (1) 
0

>  <PUBCHEM_COMPONENT_COUNT>  (1) 
1

>  <PUBCHEM_CACTVS_TAUTO_COUNT>  (1) 
1

>  <PUBCHEM_CONFORMER_ID>  (1) 
00007B0D00000001

>  <PUBCHEM_MMFF94_ENERGY>  (1) 
59.9216

>  <PUBCHEM_FEATURE_SELFOVERLAP>  (1) 
30.465

>  <PUBCHEM_SHAPE_FINGERPRINT>  (1) 
10042902 136 11170203003563064456
10498660 4 18334844018203694397
11221954 11 18339357595187558808
11615756 256 18264773332087800460
12403259 415 18114466656491106247
12596602 18 15502660433534869420
12633257 1 18041830826901489504
13103583 49 13479402817412507388
13464514 151 18413392025433426626
13583140 156 14851881508297524167
13965767 371 17096628947138732804
14123250 116 18273496754189442337
14178342 30 17676774291730271234
14251764 30 13479954742897199312
14251764 38 18198619033175413752
14429115 67 11674892082428666137
14787075 74 18338513149088402535
14848178 96 18410568479156826332
15295992 7 18335713693178098202
18186145 218 18335986359176774127
19862831 5 15410898469992797694
21033648 29 18040990709406928573
21401589 2 18337949120581498608
21503847 285 18127416644213393257
21524375 3 18336256864817683630
21864079 5 18128815231894779729
22182937 141 18337957899420596969
23557571 272 18119818151061105810
23559900 14 18411421722572227598
23845131 108 18187932734052590739
25 1 18342176661449499866
2838139 119 18060133250144197944
4028521 119 18411128169113700812
427121 178 17968101897563218626
469060 322 17241042219305112639
474 4 18408602578072609821
5895379 119 17630603419193896176
633830 44 18269838601831245311
6442390 28 18261403259981523995
7808743 9 17968386761611984876
81228 2 17751088109392950259

>  <PUBCHEM_SHAPE_MULTIPOLES>  (1) 
398.88
9.45
2.93
1.4
0.34
0.38
0.02
-7.88
0.1
-0.29
-0.88
-0.56
0.07
1.15

>  <PUBCHEM_SHAPE_SELFOVERLAP>  (1) 
843.129

>  <PUBCHEM_SHAPE_VOLUME>  (1) 
224.9

>  <PUBCHEM_COORDINATE_TYPE>  (1) 
2
5
10

$$$$
