31518
     RDKit          3D

 15 16  0  0  1  0  0  0  0  0999 V2000
   -0.7826   -1.3679    0.6503 O   0  0  0  0  0  0  0  0  0  0  0  0
   -2.9447   -0.6327   -0.1201 O   0  0  0  0  0  0  0  0  0  0  0  0
    1.4758    0.4146    0.9084 O   0  0  0  0  0  0  0  0  0  0  0  0
    2.0541   -0.0482   -1.2955 O   0  0  0  0  0  0  0  0  0  0  0  0
    3.5577   -0.4339    0.4287 N   0  0  0  0  0  0  0  0  0  0  0  0
   -2.1554   -1.7340    0.3836 C   0  0  0  0  0  0  0  0  0  0  0  0
   -0.8046   -0.0370    0.3644 C   0  0  0  0  0  0  0  0  0  0  0  0
   -2.0391    0.3827   -0.0756 C   0  0  0  0  0  0  0  0  0  0  0  0
    0.2605    0.8327    0.4768 C   0  0  0  0  0  0  0  0  0  0  0  0
   -2.1795   -2.8677   -0.6296 C   0  0  0  0  0  0  0  0  0  0  0  0
   -2.2768    1.6953   -0.4275 C   0  0  0  0  0  0  0  0  0  0  0  0
    0.0460    2.1682    0.1282 C   0  0  0  0  0  0  0  0  0  0  0  0
   -1.2153    2.5971   -0.3214 C   0  0  0  0  0  0  0  0  0  0  0  0
    2.3510   -0.0301   -0.1045 C   0  0  0  0  0  0  0  0  0  0  0  0
    4.6529   -0.9391   -0.3662 C   0  0  0  0  0  0  0  0  0  0  0  0
  1  6  1  0
  1  7  1  0
  2  6  1  0
  2  8  1  0
  3  9  1  0
  3 14  1  0
  4 14  2  0
  5 14  1  0
  5 15  1  0
  6 10  1  0
  7  8  2  0
  7  9  1  0
  8 11  1  0
  9 12  2  0
 11 13  2  0
 12 13  1  0
M  END
>  <PUBCHEM_COMPOUND_CID>  (1) 
31518

>  <PUBCHEM_CONFORMER_RMSD>  (1) 
0.6

>  <PUBCHEM_CONFORMER_DIVERSEORDER>  (1) 
1
32
30
11
22
12
7
21
26
24
3
27
23
14
20
29
9
33
13
4
31
17
2
19
25
28
10
8
6
34
15
5
16
18

>  <PUBCHEM_MMFF94_PARTIAL_CHARGES>  (1) 
18
1 -0.36
11 -0.15
12 -0.15
13 -0.15
14 0.78
15 0.3
2 -0.36
20 0.15
21 0.15
22 0.15
23 0.37
3 -0.23
4 -0.57
5 -0.73
6 0.56
7 0.08
8 0.08
9 0.08

>  <PUBCHEM_EFFECTIVE_ROTOR_COUNT>  (1) 
3.6

>  <PUBCHEM_PHARMACOPHORE_FEATURES>  (1) 
6
1 1 acceptor
1 2 acceptor
1 4 acceptor
1 5 donor
5 1 2 6 7 8 rings
6 7 8 9 11 12 13 rings

>  <PUBCHEM_HEAVY_ATOM_COUNT>  (1) 
15

>  <PUBCHEM_ATOM_DEF_STEREO_COUNT>  (1) 
0

>  <PUBCHEM_ATOM_UDEF_STEREO_COUNT>  (1) 
1

>  <PUBCHEM_BOND_DEF_STEREO_COUNT>  (1) 
0

>  <PUBCHEM_BOND_UDEF_STEREO_COUNT>  (1) 
0

>  <PUBCHEM_ISOTOPIC_ATOM_COUNT>  (1) 
0

>  <PUBCHEM_COMPONENT_COUNT>  (1) 
1

>  <PUBCHEM_CACTVS_TAUTO_COUNT>  (1) 
2

>  <PUBCHEM_CONFORMER_ID>  (1) 
00007B1E00000001

>  <PUBCHEM_MMFF94_ENERGY>  (1) 
35.2578

>  <PUBCHEM_FEATURE_SELFOVERLAP>  (1) 
30.6

>  <PUBCHEM_SHAPE_FINGERPRINT>  (1) 
11127187 94 18408601457080702055
12138202 97 18265327313779943892
12500047 106 18265890247054623180
12716758 59 18338511928779886792
13024252 1 16950575350096515889
15207287 21 17916854708516879974
15669948 3 18334289825883495378
16945 1 18409438185761937137
17870717 6 18198639735233902086
17990270 104 17905884039377584787
19141452 34 18131073779144466767
20524608 308 18339359647970806230
20645476 183 17385724647563119521
20645477 70 17255948495911653639
20871998 184 18413111645182668623
20871998 22 18122625221726640115
20871999 31 18334853922324217941
21061003 4 17275388707324029392
21501502 16 18267309909402124145
22213442 358 18267584783151082024
23114952 82 17466486216375668541
23402539 116 18340758244041732509
23557571 272 18343308071963212380
23559900 14 18269548357079974970
257057 1 18195801001741452327
2748010 2 18119796165650486145
559249 180 17900255313418137226
7364860 26 17620757618937534673
77492 1 17385720245364247944
81228 2 18408040727736460977
8809292 202 18412826859039308856
9709674 26 18270964519066137534

>  <PUBCHEM_SHAPE_MULTIPOLES>  (1) 
280.23
5.64
2.72
0.85
7.91
0.23
0.07
2.67
0.77
-2.62
0.4
0.17
0.06
0.18

>  <PUBCHEM_SHAPE_SELFOVERLAP>  (1) 
598.965

>  <PUBCHEM_SHAPE_VOLUME>  (1) 
155.2

>  <PUBCHEM_COORDINATE_TYPE>  (1) 
2
5
10

$$$$
