3151
     RDKit          3D

 30 34  0  0  0  0  0  0  0  0999 V2000
   -8.6827    1.2498    1.0792 Cl  0  0  0  0  0  0  0  0  0  0  0  0
   -2.1701    0.5586   -2.4364 O   0  0  0  0  0  0  0  0  0  0  0  0
    6.3422   -2.1028   -0.5826 O   0  0  0  0  0  0  0  0  0  0  0  0
    0.5403   -2.0595    0.1485 N   0  0  0  0  0  0  0  0  0  0  0  0
   -3.2044   -0.1669   -0.4218 N   0  0  0  0  0  0  0  0  0  0  0  0
   -4.3846    1.1418   -1.8465 N   0  0  0  0  0  0  0  0  0  0  0  0
    4.5870   -0.5268   -0.2696 N   0  0  0  0  0  0  0  0  0  0  0  0
    6.7414    0.1735   -0.0815 N   0  0  0  0  0  0  0  0  0  0  0  0
   -2.1682   -0.9540    0.1990 C   0  0  0  0  0  0  0  0  0  0  0  0
   -1.7896   -2.1459   -0.6796 C   0  0  0  0  0  0  0  0  0  0  0  0
   -0.9330   -0.1028    0.4949 C   0  0  0  0  0  0  0  0  0  0  0  0
   -0.6215   -2.9300   -0.0791 C   0  0  0  0  0  0  0  0  0  0  0  0
    0.2061   -0.9546    1.0578 C   0  0  0  0  0  0  0  0  0  0  0  0
    1.6639   -2.8337    0.6756 C   0  0  0  0  0  0  0  0  0  0  0  0
    2.9249   -1.9787    0.8313 C   0  0  0  0  0  0  0  0  0  0  0  0
   -4.4739    0.0434    0.1323 C   0  0  0  0  0  0  0  0  0  0  0  0
   -3.1199    0.5126   -1.6671 C   0  0  0  0  0  0  0  0  0  0  0  0
    3.4225   -1.3459   -0.4668 C   0  0  0  0  0  0  0  0  0  0  0  0
   -5.1937    0.8484   -0.7485 C   0  0  0  0  0  0  0  0  0  0  0  0
   -5.0258   -0.4054    1.3141 C   0  0  0  0  0  0  0  0  0  0  0  0
   -6.4892    1.2431   -0.4976 C   0  0  0  0  0  0  0  0  0  0  0  0
    4.5815    0.8463    0.0283 C   0  0  0  0  0  0  0  0  0  0  0  0
   -6.3409   -0.0177    1.5911 C   0  0  0  0  0  0  0  0  0  0  0  0
    5.9388   -0.9731   -0.3437 C   0  0  0  0  0  0  0  0  0  0  0  0
    5.9050    1.2675    0.1418 C   0  0  0  0  0  0  0  0  0  0  0  0
   -7.0645    0.7975    0.6954 C   0  0  0  0  0  0  0  0  0  0  0  0
    3.5291    1.7211    0.2002 C   0  0  0  0  0  0  0  0  0  0  0  0
    6.2431    2.5712    0.4300 C   0  0  0  0  0  0  0  0  0  0  0  0
    3.8472    3.0513    0.4937 C   0  0  0  0  0  0  0  0  0  0  0  0
    5.1892    3.4717    0.6073 C   0  0  0  0  0  0  0  0  0  0  0  0
  1 26  1  0
  2 17  2  0
  3 24  2  0
  4 12  1  0
  4 13  1  0
  4 14  1  0
  5  9  1  0
  5 16  1  0
  5 17  1  0
  6 17  1  0
  6 19  1  0
  7 18  1  0
  7 22  1  0
  7 24  1  0
  8 24  1  0
  8 25  1  0
  9 10  1  0
  9 11  1  0
 10 12  1  0
 11 13  1  0
 14 15  1  0
 15 18  1  0
 16 19  2  0
 16 20  1  0
 19 21  1  0
 20 23  2  0
 21 26  2  0
 22 25  2  0
 22 27  1  0
 23 26  1  0
 25 28  1  0
 27 29  2  0
 28 30  2  0
 29 30  1  0
M  END
>  <PUBCHEM_COMPOUND_CID>  (1) 
3151

>  <PUBCHEM_CONFORMER_RMSD>  (1) 
0.8

>  <PUBCHEM_CONFORMER_DIVERSEORDER>  (1) 
2
62
17
115
205
212
141
185
284
56
274
145
204
41
77
207
286
193
280
156
101
235
51
109
154
195
102
90
242
173
34
143
186
116
135
21
27
262
1
283
60
248
245
216
213
196
3
167
127
20
18
178
264
67
72
219
14
236
190
83
252
275
87
149
139
182
91
114
46
241
170
276
37
76
198
183
171
49
211
257
33
95
188
192
48
32
144
44
285
232
64
215
249
137
189
69
181
97
254
12
153
246
30
57
122
50
66
271
6
244
210
168
277
279
260
225
22
222
8
79
108
53
229
130
147
80
47
82
103
208
238
161
269
136
172
157
217
243
100
258
267
128
259
54
194
175
265
123
158
206
230
113
152
35
26
111
132
268
88
176
234
104
250
220
163
70
125
110
10
237
272
133
120
38
251
81
92
187
202
233
140
155
105
4
124
43
253
24
118
129
148
282
184
179
200
218
146
228
98
84
221
160
142
191
89
151
197
7
165
13
214
261
231
278
16
36
42
55
180
23
227
131
99
270
263
126
31
134
107
63
150
94
209
112
15
239
11
203
78
28
266
224
74
9
85
201
177
19
226
29
106
59
199
162
117
58
40
5
45
39
174
164
247
96
255
86
65
273
93
119
169
68
240
159
121
138
25
281
52
75
166
71
61
256
73
223

>  <PUBCHEM_MMFF94_PARTIAL_CHARGES>  (1) 
36
1 -0.18
12 0.27
13 0.27
14 0.27
16 0.12
17 0.69
18 0.3
19 0.12
2 -0.57
20 -0.15
21 -0.15
22 0.12
23 -0.15
24 0.69
25 0.12
26 0.18
27 -0.15
28 -0.15
29 -0.15
3 -0.57
30 -0.15
4 -0.81
46 0.37
47 0.15
48 0.15
49 0.15
5 -0.48
50 0.37
51 0.15
52 0.15
53 0.15
54 0.15
6 -0.55
7 -0.48
8 -0.55
9 0.3

>  <PUBCHEM_EFFECTIVE_ROTOR_COUNT>  (1) 
6.2

>  <PUBCHEM_PHARMACOPHORE_FEATURES>  (1) 
10
1 2 acceptor
1 3 acceptor
1 4 cation
1 6 donor
1 8 donor
5 5 6 16 17 19 rings
5 7 8 22 24 25 rings
6 16 19 20 21 23 26 rings
6 22 25 27 28 29 30 rings
6 4 9 10 11 12 13 rings

>  <PUBCHEM_HEAVY_ATOM_COUNT>  (1) 
30

>  <PUBCHEM_ATOM_DEF_STEREO_COUNT>  (1) 
0

>  <PUBCHEM_ATOM_UDEF_STEREO_COUNT>  (1) 
0

>  <PUBCHEM_BOND_DEF_STEREO_COUNT>  (1) 
0

>  <PUBCHEM_BOND_UDEF_STEREO_COUNT>  (1) 
0

>  <PUBCHEM_ISOTOPIC_ATOM_COUNT>  (1) 
0

>  <PUBCHEM_COMPONENT_COUNT>  (1) 
1

>  <PUBCHEM_CACTVS_TAUTO_COUNT>  (1) 
4

>  <PUBCHEM_CONFORMER_ID>  (1) 
00000C4F00000002

>  <PUBCHEM_MMFF94_ENERGY>  (1) 
82.1477

>  <PUBCHEM_FEATURE_SELFOVERLAP>  (1) 
50.948

>  <PUBCHEM_SHAPE_FINGERPRINT>  (1) 
10 15 17749111092716755946
10411042 1 17906736904658113954
10673678 19 18343589542238845443
11017883 126 17203335447356880414
11456790 92 18261668174228356336
11497681 19 18126560348753979807
11796584 16 13182727144019208175
12422481 6 17895202155128064767
12623949 98 11386629790659775832
12664476 115 18114181912859822884
12788726 201 17131563777095713296
13402501 40 18259981574646378268
13617811 41 15913331269415021793
13627175 23 17846227635679768153
14251764 75 18339081626396215112
15064981 194 18197233626948793726
15183329 4 15339122342568447433
15419008 47 17967814925081656172
15840311 113 18411706478339631973
18335252 114 18340762654988839662
18608769 82 17822015319308561842
19304671 126 17916880135568174364
19309040 13 18057606679987889700
19315092 285 12179832910348467316
20691028 202 18343301487509160321
20715895 44 18342457071664756970
21033648 29 18041841826639340682
21716022 299 14691185517767429262
22122407 14 18270411494734535057
22224240 67 18261115158661371347
23559900 14 18272650182519538642
23569914 2 17172879013363515149
249057 3 18272373053907592646
2838139 119 18410283705808548598
3014063 24 7853857182799958625
3472631 163 18343866640775789454
34797466 226 18201160958171972335
394071 54 18342182150064432517
397830 11 18262811777669087715
4093350 32 17704075084053859188
437795 51 18407761438987592809
44317340 157 18201717383758659162
4625314 4 18410009902398023183
5312510 48 18412543232495258968
552612 73 18338799039091573227
58902169 19 17846492621733898766
5911458 16 17846507993807226465
59682541 35 18040444295973869443
6697151 62 17175425331779950419

>  <PUBCHEM_SHAPE_MULTIPOLES>  (1) 
582.61
22.42
3.27
1.34
11.97
0.25
0.47
13.78
-3.65
-5.93
-0.5
2.19
0.19
1.01

>  <PUBCHEM_SHAPE_SELFOVERLAP>  (1) 
1262.424

>  <PUBCHEM_SHAPE_VOLUME>  (1) 
321

>  <PUBCHEM_COORDINATE_TYPE>  (1) 
2
5
10

$$$$
