31524
     RDKit          3D

 27 30  0  0  1  0  0  0  0  0999 V2000
   -1.1194   -0.1907   -1.9083 O   0  0  0  0  0  0  0  0  0  0  0  0
    2.2435   -0.7546    0.6565 N   0  0  0  0  0  0  0  0  0  0  0  0
    3.6207   -0.2439    0.4296 C   0  0  0  0  0  0  0  0  0  0  0  0
    4.2348   -0.2036    1.8550 C   0  0  0  0  0  0  0  0  0  0  0  0
    4.3829   -1.3038   -0.4084 C   0  0  0  0  0  0  0  0  0  0  0  0
    3.8024    1.1503   -0.2233 C   0  0  0  0  0  0  0  0  0  0  0  0
    1.9789   -0.7836    2.0980 C   0  0  0  0  0  0  0  0  0  0  0  0
    3.3336   -1.0853    2.6928 C   0  0  0  0  0  0  0  0  0  0  0  0
    4.0392   -1.2656   -1.8954 C   0  0  0  0  0  0  0  0  0  0  0  0
    3.5771    1.2145   -1.7350 C   0  0  0  0  0  0  0  0  0  0  0  0
    1.1375   -0.1546   -0.0658 C   0  0  0  0  0  0  0  0  0  0  0  0
    4.3159    0.1123   -2.4837 C   0  0  0  0  0  0  0  0  0  0  0  0
   -0.2012   -0.9051    0.1858 C   0  0  0  0  0  0  0  0  0  0  0  0
   -1.4264   -0.1664   -0.4984 C   0  0  0  0  0  0  0  0  0  0  0  0
   -0.0535   -2.3629   -0.3067 C   0  0  0  0  0  0  0  0  0  0  0  0
   -2.7929   -0.8448   -0.2688 C   0  0  0  0  0  0  0  0  0  0  0  0
   -1.5474    1.3049   -0.0544 C   0  0  0  0  0  0  0  0  0  0  0  0
   -3.7062   -0.8199   -1.2895 C   0  0  0  0  0  0  0  0  0  0  0  0
   -1.2571    1.6137    1.2489 C   0  0  0  0  0  0  0  0  0  0  0  0
   -3.0244   -1.4377    0.9444 C   0  0  0  0  0  0  0  0  0  0  0  0
   -1.9395    2.2318   -0.9847 C   0  0  0  0  0  0  0  0  0  0  0  0
   -4.9418   -1.4331   -1.0820 C   0  0  0  0  0  0  0  0  0  0  0  0
   -1.3665    2.9449    1.6507 C   0  0  0  0  0  0  0  0  0  0  0  0
   -4.2600   -2.0509    1.1519 C   0  0  0  0  0  0  0  0  0  0  0  0
   -2.0490    3.5630   -0.5828 C   0  0  0  0  0  0  0  0  0  0  0  0
   -5.2187   -2.0486    0.1387 C   0  0  0  0  0  0  0  0  0  0  0  0
   -1.7625    3.9196    0.7349 C   0  0  0  0  0  0  0  0  0  0  0  0
  1 14  1  0
  2  3  1  0
  2  7  1  0
  2 11  1  0
  3  4  1  0
  3  5  1  0
  3  6  1  0
  4  8  1  0
  5  9  1  0
  6 10  1  0
  7  8  1  0
  9 12  1  0
 10 12  1  0
 11 13  1  0
 13 14  1  0
 13 15  1  0
 14 16  1  0
 14 17  1  0
 16 18  2  0
 16 20  1  0
 17 19  2  0
 17 21  1  0
 18 22  1  0
 19 23  1  0
 20 24  2  0
 21 25  2  0
 22 26  2  0
 23 27  2  0
 24 26  1  0
 25 27  1  0
M  END
>  <PUBCHEM_COMPOUND_CID>  (1) 
31524

>  <PUBCHEM_CONFORMER_RMSD>  (1) 
0.8

>  <PUBCHEM_CONFORMER_DIVERSEORDER>  (1) 
7
6
14
24
23
4
25
21
8
27
9
16
10
22
17
26
18
20
11
19
2
1
13
5
12
15
3

>  <PUBCHEM_MMFF94_PARTIAL_CHARGES>  (1) 
29
1 -0.68
11 0.27
14 0.57
16 -0.14
17 -0.14
18 -0.15
19 -0.15
2 -0.81
20 -0.15
21 -0.15
22 -0.15
23 -0.15
24 -0.15
25 -0.15
26 -0.15
27 -0.15
3 0.27
50 0.4
51 0.15
52 0.15
53 0.15
54 0.15
55 0.15
56 0.15
57 0.15
58 0.15
59 0.15
60 0.15
7 0.27

>  <PUBCHEM_EFFECTIVE_ROTOR_COUNT>  (1) 
6.8

>  <PUBCHEM_PHARMACOPHORE_FEATURES>  (1) 
8
1 1 acceptor
1 1 donor
1 15 hydrophobe
1 2 cation
5 2 3 4 7 8 rings
6 16 18 20 22 24 26 rings
6 17 19 21 23 25 27 rings
6 3 5 6 9 10 12 rings

>  <PUBCHEM_HEAVY_ATOM_COUNT>  (1) 
27

>  <PUBCHEM_ATOM_DEF_STEREO_COUNT>  (1) 
0

>  <PUBCHEM_ATOM_UDEF_STEREO_COUNT>  (1) 
1

>  <PUBCHEM_BOND_DEF_STEREO_COUNT>  (1) 
0

>  <PUBCHEM_BOND_UDEF_STEREO_COUNT>  (1) 
0

>  <PUBCHEM_ISOTOPIC_ATOM_COUNT>  (1) 
0

>  <PUBCHEM_COMPONENT_COUNT>  (1) 
1

>  <PUBCHEM_CACTVS_TAUTO_COUNT>  (1) 
1

>  <PUBCHEM_CONFORMER_ID>  (1) 
00007B2400000007

>  <PUBCHEM_MMFF94_ENERGY>  (1) 
85.258

>  <PUBCHEM_FEATURE_SELFOVERLAP>  (1) 
40.6

>  <PUBCHEM_SHAPE_FINGERPRINT>  (1) 
10369192 42 16556763417001194776
10670039 82 18338248102356331324
10764073 3 15265130639016027545
11582403 64 14856081385519114821
12107698 1 18338807801183351780
12156800 1 15692992471655408193
12160290 23 18198613342332988845
12422481 6 17845676788791381065
12516196 113 18340484582053800475
12553582 1 18270397312467640943
12714826 92 18343576335345973809
12788726 201 18334857212485321115
13009979 54 18116982313594757650
13135754 10 17845951645028485497
13224815 77 18261111863809031664
13583140 156 17130980967672126030
13899415 154 18337963410517960251
13911987 19 18263085568833345791
14178342 30 18120077408488135514
14251751 93 18195264234093387652
14347332 77 18342183215459291958
14787075 74 17535196862110677291
14910302 57 17632579344431224518
14955137 171 18125741208048184875
15664445 248 18045498874500644828
15806764 133 17489588926902005688
15842332 3 17750516174441032416
161222 619 17396436369051503672
16752209 62 18410568466192556214
1813 80 18058730333462681901
18222031 100 18129941303684729735
20600515 1 18058449979435681515
21330990 113 16773254936758053975
21641784 216 18260836990245028693
21864079 5 18114758023089216532
22182313 1 17560507409723964944
22907989 373 18339925922303333253
23175994 123 18337673126679330887
23557571 272 18201146690021388104
23558518 356 18045218246001269899
23559900 14 18192141603674987023
238 59 16153427259890819128
283562 15 18410575063541988835
312423 11 17968098577790862466
314173 85 18343863346804658203
4098825 35 17916328086209361572
46194498 28 17775295984567271660
469060 322 18412268332860226049
6049 1 17417809500742136200
633830 44 13541601241630307914
7164475 11 18410855430385248100
7399639 24 17632003235077452206
7615 1 17822851975033174256
9658208 31 17771347470154439489
9981440 41 17411297015903412387

>  <PUBCHEM_SHAPE_MULTIPOLES>  (1) 
544.8
10.17
3.44
2.23
1.56
4.01
0.26
-5.74
-1.87
-4.14
0.59
2.58
-0.2
-0.63

>  <PUBCHEM_SHAPE_SELFOVERLAP>  (1) 
1166.17

>  <PUBCHEM_SHAPE_VOLUME>  (1) 
300.7

>  <PUBCHEM_COORDINATE_TYPE>  (1) 
2
5
10

$$$$
