31521
     RDKit          3D

 18 19  0  0  0  0  0  0  0  0999 V2000
   -0.9991   -1.1437   -0.5725 O   0  0  0  0  0  0  0  0  0  0  0  0
   -3.1577   -0.8420    0.4572 O   0  0  0  0  0  0  0  0  0  0  0  0
    0.8241    1.0442   -1.0541 O   0  0  0  0  0  0  0  0  0  0  0  0
    1.7406    0.7193    1.0577 O   0  0  0  0  0  0  0  0  0  0  0  0
    3.0737    0.6222   -0.8384 N   0  0  0  0  0  0  0  0  0  0  0  0
   -2.2185   -1.7824   -0.1202 C   0  0  0  0  0  0  0  0  0  0  0  0
   -1.2432    0.1579   -0.2547 C   0  0  0  0  0  0  0  0  0  0  0  0
   -2.4754    0.3302    0.3332 C   0  0  0  0  0  0  0  0  0  0  0  0
   -1.8549   -2.8158    0.9450 C   0  0  0  0  0  0  0  0  0  0  0  0
   -2.8848   -2.4538   -1.3204 C   0  0  0  0  0  0  0  0  0  0  0  0
   -0.3890    1.2186   -0.4751 C   0  0  0  0  0  0  0  0  0  0  0  0
   -2.9219    1.5725    0.7333 C   0  0  0  0  0  0  0  0  0  0  0  0
   -0.8171    2.4880   -0.0792 C   0  0  0  0  0  0  0  0  0  0  0  0
   -2.0762    2.6639    0.5216 C   0  0  0  0  0  0  0  0  0  0  0  0
    1.8836    0.7847   -0.1596 C   0  0  0  0  0  0  0  0  0  0  0  0
    4.3330    0.3452   -0.1873 C   0  0  0  0  0  0  0  0  0  0  0  0
    4.5086   -1.1325   -0.0736 C   0  0  0  0  0  0  0  0  0  0  0  0
    4.6741   -1.7766    1.0872 C   0  0  0  0  0  0  0  0  0  0  0  0
  1  6  1  0
  1  7  1  0
  2  6  1  0
  2  8  1  0
  3 11  1  0
  3 15  1  0
  4 15  2  0
  5 15  1  0
  5 16  1  0
  6  9  1  0
  6 10  1  0
  7  8  2  0
  7 11  1  0
  8 12  1  0
 11 13  2  0
 12 14  2  0
 13 14  1  0
 16 17  1  0
 17 18  2  0
M  END
>  <PUBCHEM_COMPOUND_CID>  (1) 
31521

>  <PUBCHEM_CONFORMER_RMSD>  (1) 
0.8

>  <PUBCHEM_CONFORMER_DIVERSEORDER>  (1) 
1
37
46
43
45
40
50
17
51
53
14
4
27
33
21
36
23
38
31
29
26
41
11
3
34
24
12
9
39
35
44
8
28
20
49
2
48
32
25
18
16
30
52
6
10
5
42
15
13
19
47
22
7

>  <PUBCHEM_MMFF94_PARTIAL_CHARGES>  (1) 
23
1 -0.36
11 0.08
12 -0.15
13 -0.15
14 -0.15
15 0.78
16 0.44
17 -0.29
18 -0.3
2 -0.36
25 0.15
26 0.15
27 0.15
28 0.37
3 -0.23
31 0.15
32 0.15
33 0.15
4 -0.57
5 -0.73
6 0.56
7 0.08
8 0.08

>  <PUBCHEM_EFFECTIVE_ROTOR_COUNT>  (1) 
5.6

>  <PUBCHEM_PHARMACOPHORE_FEATURES>  (1) 
8
1 1 acceptor
1 18 hydrophobe
1 2 acceptor
1 4 acceptor
1 5 donor
3 6 9 10 hydrophobe
5 1 2 6 7 8 rings
6 7 8 11 12 13 14 rings

>  <PUBCHEM_HEAVY_ATOM_COUNT>  (1) 
18

>  <PUBCHEM_ATOM_DEF_STEREO_COUNT>  (1) 
0

>  <PUBCHEM_ATOM_UDEF_STEREO_COUNT>  (1) 
0

>  <PUBCHEM_BOND_DEF_STEREO_COUNT>  (1) 
0

>  <PUBCHEM_BOND_UDEF_STEREO_COUNT>  (1) 
0

>  <PUBCHEM_ISOTOPIC_ATOM_COUNT>  (1) 
0

>  <PUBCHEM_COMPONENT_COUNT>  (1) 
1

>  <PUBCHEM_CACTVS_TAUTO_COUNT>  (1) 
2

>  <PUBCHEM_CONFORMER_ID>  (1) 
00007B2100000001

>  <PUBCHEM_MMFF94_ENERGY>  (1) 
41.4343

>  <PUBCHEM_FEATURE_SELFOVERLAP>  (1) 
40.748

>  <PUBCHEM_SHAPE_FINGERPRINT>  (1) 
10616163 171 18410581686608542462
11357001 24 18410865364681592073
12346177 29 18341040848441666284
12553582 1 18124043587273664102
12633257 1 17703520951188209849
13004483 165 17986939937840775207
13140716 1 18126017185313412265
13167823 11 18334581201197523584
14289901 80 18410857702803223792
14420673 8 17906458732210339574
14965852 173 18410575080769285112
15042514 8 18411146831332014793
15099037 8 18335422395969676060
16110190 28 17903626394789656850
16752209 62 18262782004897463621
16945 1 18199205021607288421
17780758 139 18195231240771779306
17804303 29 18342182145980513428
17859628 97 18045500807472688210
1813 80 17241060790616645550
19422 9 18260555519657976820
19784866 135 18410294713529984619
20281475 54 18334857212870481764
20291156 8 18262801894574513338
20602899 9 18047164407225480997
20621476 51 18201144529743262990
21650355 55 18413108355201368201
23402539 116 18201996617279640021
23503958 8 18409449210853347930
235170 7 13046521778738944602
23559900 14 18341325669725895168
23728640 28 18411421670162539491
257057 1 17984136243472280677
532947 4 17402890020990051966
559249 180 18117552929896016186
5706482 22 18270401564580202889
58807428 26 18050867528191472769
5924683 9 18272639152246878990
633830 44 16081378401974925492
7097593 13 18335422314539260268
81228 2 18339919424270885353
9709674 26 18200881673554645358

>  <PUBCHEM_SHAPE_MULTIPOLES>  (1) 
341.97
7.83
3.15
1.05
12.21
0.76
0.01
3.26
-1.04
-2.87
-0.26
-0.02
0.33
-1.19

>  <PUBCHEM_SHAPE_SELFOVERLAP>  (1) 
723.326

>  <PUBCHEM_SHAPE_VOLUME>  (1) 
191.7

>  <PUBCHEM_COORDINATE_TYPE>  (1) 
2
5
10

$$$$
