31525
     RDKit          3D

 13 14  0  0  0  0  0  0  0  0999 V2000
    1.9633    0.3259    0.0936 O   0  0  0  0  0  0  0  0  0  0  0  0
    0.6960   -1.6523   -0.0321 N   0  0  0  0  0  0  0  0  0  0  0  0
    3.0495   -1.6441    0.0300 N   0  0  0  0  0  0  0  0  0  0  0  0
    0.8184    1.2180   -0.0077 C   0  0  0  0  0  0  0  0  0  0  0  0
   -0.5019    0.4799    0.0068 C   0  0  0  0  0  0  0  0  0  0  0  0
    0.9972    1.9841   -1.3245 C   0  0  0  0  0  0  0  0  0  0  0  0
    0.9436    2.1743    1.1855 C   0  0  0  0  0  0  0  0  0  0  0  0
   -0.4950   -0.9190   -0.0108 C   0  0  0  0  0  0  0  0  0  0  0  0
   -1.7320    1.1590    0.0174 C   0  0  0  0  0  0  0  0  0  0  0  0
    1.8305   -1.0262    0.0247 C   0  0  0  0  0  0  0  0  0  0  0  0
   -1.7095   -1.6185   -0.0095 C   0  0  0  0  0  0  0  0  0  0  0  0
   -2.9356    0.4547    0.0195 C   0  0  0  0  0  0  0  0  0  0  0  0
   -2.9245   -0.9357    0.0069 C   0  0  0  0  0  0  0  0  0  0  0  0
  1  4  1  0
  1 10  1  0
  2  8  1  0
  2 10  2  0
  3 10  1  0
  4  5  1  0
  4  6  1  0
  4  7  1  0
  5  8  2  0
  5  9  1  0
  8 11  1  0
  9 12  2  0
 11 13  2  0
 12 13  1  0
M  END
>  <PUBCHEM_COMPOUND_CID>  (1) 
31525

>  <PUBCHEM_CONFORMER_RMSD>  (1) 
0.4

>  <PUBCHEM_CONFORMER_DIVERSEORDER>  (1) 
1

>  <PUBCHEM_MMFF94_PARTIAL_CHARGES>  (1) 
17
1 -0.43
10 0.65
11 -0.15
12 -0.15
13 -0.15
2 -0.63
20 0.15
21 0.15
22 0.15
23 0.15
24 0.4
25 0.4
3 -0.85
4 0.42
5 -0.14
8 0.18
9 -0.15

>  <PUBCHEM_EFFECTIVE_ROTOR_COUNT>  (1) 
0.4

>  <PUBCHEM_PHARMACOPHORE_FEATURES>  (1) 
5
1 3 donor
3 2 3 10 cation
3 4 6 7 hydrophobe
6 1 2 4 5 8 10 rings
6 5 8 9 11 12 13 rings

>  <PUBCHEM_HEAVY_ATOM_COUNT>  (1) 
13

>  <PUBCHEM_ATOM_DEF_STEREO_COUNT>  (1) 
0

>  <PUBCHEM_ATOM_UDEF_STEREO_COUNT>  (1) 
0

>  <PUBCHEM_BOND_DEF_STEREO_COUNT>  (1) 
0

>  <PUBCHEM_BOND_UDEF_STEREO_COUNT>  (1) 
0

>  <PUBCHEM_ISOTOPIC_ATOM_COUNT>  (1) 
0

>  <PUBCHEM_COMPONENT_COUNT>  (1) 
1

>  <PUBCHEM_CACTVS_TAUTO_COUNT>  (1) 
2

>  <PUBCHEM_CONFORMER_ID>  (1) 
00007B2500000001

>  <PUBCHEM_MMFF94_ENERGY>  (1) 
40.0883

>  <PUBCHEM_FEATURE_SELFOVERLAP>  (1) 
25.398

>  <PUBCHEM_SHAPE_FINGERPRINT>  (1) 
12423570 1 10704883716825640557
13380535 220 18335423439229880701
14128692 85 18409737239696691108
15775835 57 18127138682599084465
16945 1 18340765944833399009
17990270 104 18335700589148189419
193761 8 18194963178044451722
19973954 147 18335986471056686287
20511035 2 18340768255520711535
20588541 1 18195245503530052223
21040471 1 17762056940206458317
21501502 16 18339366361321278927
2334 1 18410855485924391307
23419403 2 15753077496652976419
23463225 33 18335702680992584182
23552423 10 18261957474050079487
23559900 14 17838918267210769100
241688 4 18261951847395021489
2748010 2 18410005533360780535
3071541 158 18333732398957433932
5084963 1 18261672661978686321
5255222 1 18268147741694424917
53812653 166 18199465639785024968
63268167 104 18411422821139609897
7364860 26 18271525419881977160
81228 2 17906465333147071794

>  <PUBCHEM_SHAPE_MULTIPOLES>  (1) 
251.7
3.83
2.34
0.86
1.31
0.18
0.05
-1.16
-0.04
-1.1
-0.04
-0.28
0.52
-0.03

>  <PUBCHEM_SHAPE_SELFOVERLAP>  (1) 
540.332

>  <PUBCHEM_SHAPE_VOLUME>  (1) 
138.4

>  <PUBCHEM_COORDINATE_TYPE>  (1) 
2
5
10

$$$$
