31533
     RDKit          3D

 26 30  0  0  0  0  0  0  0  0999 V2000
   -1.4791   -2.8734    0.0466 O   0  0  0  0  0  0  0  0  0  0  0  0
   -2.5677    2.3525   -0.0238 O   0  0  0  0  0  0  0  0  0  0  0  0
    3.0497   -0.7725   -0.0134 N   0  0  0  0  0  0  0  0  0  0  0  0
   -0.0252    2.9660   -0.0510 N   0  0  0  0  0  0  0  0  0  0  0  0
    3.4751   -1.6499   -1.1100 C   0  0  0  0  0  0  0  0  0  0  0  0
    3.6880   -1.0013    1.2909 C   0  0  0  0  0  0  0  0  0  0  0  0
    4.9967   -1.6383   -1.2480 C   0  0  0  0  0  0  0  0  0  0  0  0
    5.2088   -0.9825    1.1543 C   0  0  0  0  0  0  0  0  0  0  0  0
    5.6833   -1.9495    0.0761 C   0  0  0  0  0  0  0  0  0  0  0  0
    1.7498   -0.2521   -0.0128 C   0  0  0  0  0  0  0  0  0  0  0  0
    1.5057    1.1268   -0.0323 C   0  0  0  0  0  0  0  0  0  0  0  0
    0.6954   -1.1559    0.0070 C   0  0  0  0  0  0  0  0  0  0  0  0
   -0.6176   -0.6856    0.0074 C   0  0  0  0  0  0  0  0  0  0  0  0
   -0.8729    0.6936   -0.0116 C   0  0  0  0  0  0  0  0  0  0  0  0
    0.1849    1.6291   -0.0320 C   0  0  0  0  0  0  0  0  0  0  0  0
   -1.7181   -1.6719    0.0281 C   0  0  0  0  0  0  0  0  0  0  0  0
   -2.2893    1.1595   -0.0099 C   0  0  0  0  0  0  0  0  0  0  0  0
    2.5772    2.0310   -0.0529 C   0  0  0  0  0  0  0  0  0  0  0  0
   -3.1115   -1.1955    0.0248 C   0  0  0  0  0  0  0  0  0  0  0  0
   -3.3863    0.1702    0.0062 C   0  0  0  0  0  0  0  0  0  0  0  0
    2.3442    3.3958   -0.0728 C   0  0  0  0  0  0  0  0  0  0  0  0
   -4.1615   -2.1225    0.0405 C   0  0  0  0  0  0  0  0  0  0  0  0
   -4.7166    0.6107    0.0032 C   0  0  0  0  0  0  0  0  0  0  0  0
    1.0320    3.8091   -0.0706 C   0  0  0  0  0  0  0  0  0  0  0  0
   -5.4839   -1.6792    0.0373 C   0  0  0  0  0  0  0  0  0  0  0  0
   -5.7611   -0.3144    0.0186 C   0  0  0  0  0  0  0  0  0  0  0  0
  1 16  2  0
  2 17  2  0
  3  5  1  0
  3  6  1  0
  3 10  1  0
  4 15  2  0
  4 24  1  0
  5  7  1  0
  6  8  1  0
  7  9  1  0
  8  9  1  0
 10 11  1  0
 10 12  2  0
 11 15  1  0
 11 18  2  0
 12 13  1  0
 13 14  2  0
 13 16  1  0
 14 15  1  0
 14 17  1  0
 16 19  1  0
 17 20  1  0
 18 21  1  0
 19 20  2  0
 19 22  1  0
 20 23  1  0
 21 24  2  0
 22 25  2  0
 23 26  2  0
 25 26  1  0
M  END
>  <PUBCHEM_COMPOUND_CID>  (1) 
31533

>  <PUBCHEM_CONFORMER_RMSD>  (1) 
0.6

>  <PUBCHEM_CONFORMER_DIVERSEORDER>  (1) 
1
2

>  <PUBCHEM_MMFF94_PARTIAL_CHARGES>  (1) 
30
1 -0.57
10 0.1
12 -0.15
13 0.09
14 0.09
15 0.31
16 0.4
17 0.4
18 -0.15
19 0.09
2 -0.57
20 0.09
21 -0.15
22 -0.15
23 -0.15
24 0.16
25 -0.15
26 -0.15
3 -0.84
37 0.15
38 0.15
39 0.15
4 -0.62
40 0.15
41 0.15
42 0.15
43 0.15
44 0.15
5 0.37
6 0.37

>  <PUBCHEM_EFFECTIVE_ROTOR_COUNT>  (1) 
2.2

>  <PUBCHEM_PHARMACOPHORE_FEATURES>  (1) 
9
1 1 acceptor
1 2 acceptor
1 3 cation
1 4 acceptor
6 10 11 12 13 14 15 rings
6 13 14 16 17 19 20 rings
6 19 20 22 23 25 26 rings
6 3 5 6 7 8 9 rings
6 4 11 15 18 21 24 rings

>  <PUBCHEM_HEAVY_ATOM_COUNT>  (1) 
26

>  <PUBCHEM_ATOM_DEF_STEREO_COUNT>  (1) 
0

>  <PUBCHEM_ATOM_UDEF_STEREO_COUNT>  (1) 
0

>  <PUBCHEM_BOND_DEF_STEREO_COUNT>  (1) 
0

>  <PUBCHEM_BOND_UDEF_STEREO_COUNT>  (1) 
0

>  <PUBCHEM_ISOTOPIC_ATOM_COUNT>  (1) 
0

>  <PUBCHEM_COMPONENT_COUNT>  (1) 
1

>  <PUBCHEM_CACTVS_TAUTO_COUNT>  (1) 
1

>  <PUBCHEM_CONFORMER_ID>  (1) 
00007B2D00000001

>  <PUBCHEM_MMFF94_ENERGY>  (1) 
93.3912

>  <PUBCHEM_FEATURE_SELFOVERLAP>  (1) 
45.755

>  <PUBCHEM_SHAPE_FINGERPRINT>  (1) 
10050765 1 18265897046425864987
10411042 1 18410575067725965278
10616163 171 17906736161015828615
10622 236 17699828903418995567
10967382 1 18194402427525723125
1100329 8 18409165536863989595
11963148 33 17545034261749845219
12107183 9 18269565957687493585
12166972 35 17749393629299501374
12236239 1 17604151432840927410
12403259 226 18408317804893695509
12403260 363 18341328972623713299
12516196 113 18411136927053287402
12553582 1 18337097978523105162
12633257 1 18340497694419870817
12788726 201 18116151061223872914
13009979 54 18059307495072950865
13140716 1 18410011073858030067
138480 1 18410856602822149292
13862211 1 18409727344340538979
14117953 113 18341048502859572837
14739800 52 17345470581635246209
14790565 3 17259913918519142200
14866123 147 17981896232964242233
14955137 171 18201719539842713120
15042514 8 18193834839128649218
15196674 1 18338234977031239211
15420108 30 17697863015535599808
15927050 60 17836085942209451390
16087824 20 18121783833782485333
17349148 13 18060706104091490295
17492 89 18194965373211077103
1813 80 18412832361071847582
18222031 100 18412547591770915722
18681886 176 18341324565291565859
19319366 153 17676204667798702874
19591789 44 18409730638300308535
20028762 73 18273210924311709199
20832881 197 18260266339161842827
21033648 29 17416948574173425514
21267235 1 18410017623836520291
21279426 13 18335977610829363861
21859007 373 17824234082751167941
221490 88 18336553827551529907
2297311 6 18340494348804020598
23366157 5 18042686294071174932
23402539 116 18342450413959279799
23557571 272 18200036114964013678
23559900 14 18412258475920674617
25147074 1 18337971033441761016
3004659 81 18187370917775323918
3178227 256 18335154072483454659
335352 9 18410292480922450549
3411729 13 18264484178126425920
3421961 26 18412544348981072904
350125 39 18409168805439720077
4409770 3 17755005415750678524
5104073 3 18339367478302829683
59755656 215 18266456516854656527
7364860 26 18268432515279969428
7970288 3 18337670806944057466
8863177 126 17824278192186649843
9709674 26 18264773349257081035
9841814 1 18188197793294621528
9981440 41 17400355041071655944

>  <PUBCHEM_SHAPE_MULTIPOLES>  (1) 
513.37
11.66
3.73
0.84
1.93
3.37
-0.02
-8.54
-0.35
-1.75
0.23
-1.01
-0.31
0.2

>  <PUBCHEM_SHAPE_SELFOVERLAP>  (1) 
1162.577

>  <PUBCHEM_SHAPE_VOLUME>  (1) 
266.7

>  <PUBCHEM_COORDINATE_TYPE>  (1) 
2
5
10

$$$$
