3153
     RDKit          3D

 13 14  0  0  1  0  0  0  0  0999 V2000
    3.2082    1.6219   -0.0414 O   0  0  0  0  0  0  0  0  0  0  0  0
    3.4958   -1.1395    0.0567 O   0  0  0  0  0  0  0  0  0  0  0  0
   -4.0998    0.8767    0.0336 N   0  0  0  0  0  0  0  0  0  0  0  0
   -2.8016    0.2814    0.3467 C   0  0  0  0  0  0  0  0  0  0  0  0
   -2.6607   -1.0707   -0.3548 C   0  0  0  0  0  0  0  0  0  0  0  0
   -1.6650    1.2177   -0.0864 C   0  0  0  0  0  0  0  0  0  0  0  0
   -1.3543   -1.7496    0.0575 C   0  0  0  0  0  0  0  0  0  0  0  0
   -0.3045    0.5667   -0.0205 C   0  0  0  0  0  0  0  0  0  0  0  0
   -0.1587   -0.8322    0.0053 C   0  0  0  0  0  0  0  0  0  0  0  0
    0.8401    1.3781   -0.0461 C   0  0  0  0  0  0  0  0  0  0  0  0
    1.1286   -1.3897    0.0421 C   0  0  0  0  0  0  0  0  0  0  0  0
    2.1139    0.8112   -0.0196 C   0  0  0  0  0  0  0  0  0  0  0  0
    2.2579   -0.5720    0.0270 C   0  0  0  0  0  0  0  0  0  0  0  0
  1 12  1  0
  2 13  1  0
  3  4  1  0
  4  5  1  0
  4  6  1  0
  5  7  1  0
  6  8  1  0
  7  9  1  0
  8  9  2  0
  8 10  1  0
  9 11  1  0
 10 12  2  0
 11 13  2  0
 12 13  1  0
M  END
>  <PUBCHEM_COMPOUND_CID>  (1) 
3153

>  <PUBCHEM_CONFORMER_RMSD>  (1) 
0.4

>  <PUBCHEM_CONFORMER_DIVERSEORDER>  (1) 
1
2
3

>  <PUBCHEM_MMFF94_PARTIAL_CHARGES>  (1) 
18
1 -0.53
10 -0.15
11 -0.15
12 0.08
13 0.08
2 -0.53
21 0.15
22 0.15
23 0.36
24 0.36
25 0.45
26 0.45
3 -0.99
4 0.27
6 0.14
7 0.14
8 -0.14
9 -0.14

>  <PUBCHEM_EFFECTIVE_ROTOR_COUNT>  (1) 
0.8

>  <PUBCHEM_PHARMACOPHORE_FEATURES>  (1) 
6
1 1 donor
1 2 donor
1 3 cation
1 3 donor
6 4 5 6 7 8 9 rings
6 8 9 10 11 12 13 rings

>  <PUBCHEM_HEAVY_ATOM_COUNT>  (1) 
13

>  <PUBCHEM_ATOM_DEF_STEREO_COUNT>  (1) 
0

>  <PUBCHEM_ATOM_UDEF_STEREO_COUNT>  (1) 
1

>  <PUBCHEM_BOND_DEF_STEREO_COUNT>  (1) 
0

>  <PUBCHEM_BOND_UDEF_STEREO_COUNT>  (1) 
0

>  <PUBCHEM_ISOTOPIC_ATOM_COUNT>  (1) 
0

>  <PUBCHEM_COMPONENT_COUNT>  (1) 
1

>  <PUBCHEM_CACTVS_TAUTO_COUNT>  (1) 
31

>  <PUBCHEM_CONFORMER_ID>  (1) 
00000C5100000001

>  <PUBCHEM_MMFF94_ENERGY>  (1) 
21.3088

>  <PUBCHEM_FEATURE_SELFOVERLAP>  (1) 
30.471

>  <PUBCHEM_SHAPE_FINGERPRINT>  (1) 
10130415 120 18410006611592809258
10608611 8 18410571807682536617
10967382 1 18410575054603589089
11132069 177 18413099559107683536
11471102 20 18410288099507234149
12251169 10 18410006603097859098
12491281 212 18342188768751330545
12932764 1 17385995161472210091
13380535 21 18337683017281982382
13380535 76 18412544301704823095
14144814 61 18410575110548940355
14325111 11 18411138060560539721
14897335 6 18412259575158021621
14911166 2 18339086982167380710
15196674 1 18410856577173132103
15219456 202 18409733992638189715
15442244 35 18339643330650397410
15536298 74 18343021107975729088
15775835 57 18411986887826920805
16945 1 18338796697885639574
17844478 74 17894919512004736269
18186145 218 18186516605234182487
20201158 50 18341050718239809775
20645477 70 18411979135527132823
21501502 16 18339640139284111014
2334 1 18338799047290811686
23402539 116 18059000693127470597
23402655 69 18342447128836637365
23463225 33 18408884014584401738
23552423 10 18261392299124270222
23559900 14 18343585153647035836
2748010 2 18338520845105567454
5104073 3 18410575110501513923
528886 8 18411133658081781523
53812653 166 18199746002444405248
63268167 104 18412267258901987233
69090 78 18342170060137584983
7364860 26 18343302548677246862
8809292 202 18261117369672717019

>  <PUBCHEM_SHAPE_MULTIPOLES>  (1) 
250.81
5.52
1.82
0.62
0.82
0.13
0
-0.8
0.06
-0.27
-0.02
0.08
0.02
-0.13

>  <PUBCHEM_SHAPE_SELFOVERLAP>  (1) 
535.174

>  <PUBCHEM_SHAPE_VOLUME>  (1) 
139.6

>  <PUBCHEM_COORDINATE_TYPE>  (1) 
2
5
10

$$$$
