31549
     RDKit          3D

 19 20  0  0  1  0  0  0  0  0999 V2000
    1.8583   -0.8753   -0.5888 O   0  0  0  0  0  0  0  0  0  0  0  0
    2.8749    0.9426    2.3032 O   0  0  0  0  0  0  0  0  0  0  0  0
    2.6477   -2.2530    1.0891 O   0  0  0  0  0  0  0  0  0  0  0  0
   -4.6413   -0.9111    0.6583 O   0  0  0  0  0  0  0  0  0  0  0  0
    2.4233    2.0118   -0.8820 N   0  0  0  0  0  0  0  0  0  0  0  0
    1.1847    1.4578   -0.3287 C   0  0  0  0  0  0  0  0  0  0  0  0
    1.6765    0.1801    0.3493 C   0  0  0  0  0  0  0  0  0  0  0  0
    3.0274    0.5852    0.9347 C   0  0  0  0  0  0  0  0  0  0  0  0
    3.4467    1.8281    0.1490 C   0  0  0  0  0  0  0  0  0  0  0  0
    0.1401    1.2519   -1.4134 C   0  0  0  0  0  0  0  0  0  0  0  0
   -1.1370    0.6747   -0.8605 C   0  0  0  0  0  0  0  0  0  0  0  0
   -1.2938   -0.7025   -0.8029 C   0  0  0  0  0  0  0  0  0  0  0  0
   -2.1360    1.5288   -0.4168 C   0  0  0  0  0  0  0  0  0  0  0  0
    2.3538   -2.0430   -0.0799 C   0  0  0  0  0  0  0  0  0  0  0  0
   -2.4758   -1.2372   -0.2902 C   0  0  0  0  0  0  0  0  0  0  0  0
   -3.3180    0.9940    0.0958 C   0  0  0  0  0  0  0  0  0  0  0  0
   -3.4879   -0.3889    0.1590 C   0  0  0  0  0  0  0  0  0  0  0  0
    2.4909   -3.0570   -1.1750 C   0  0  0  0  0  0  0  0  0  0  0  0
   -5.6346    0.0130    1.1000 C   0  0  0  0  0  0  0  0  0  0  0  0
  1  7  1  0
  1 14  1  0
  2  8  1  0
  3 14  2  0
  4 17  1  0
  4 19  1  0
  5  6  1  0
  5  9  1  0
  6  7  1  0
  6 10  1  0
  7  8  1  0
  8  9  1  0
 10 11  1  0
 11 12  2  0
 11 13  1  0
 12 15  1  0
 13 16  2  0
 14 18  1  0
 15 17  2  0
 16 17  1  0
M  END
>  <PUBCHEM_COMPOUND_CID>  (1) 
31549

>  <PUBCHEM_CONFORMER_RMSD>  (1) 
0.8

>  <PUBCHEM_CONFORMER_DIVERSEORDER>  (1) 
1
4
9
11
12
8
13
5
7
3
2
10
6

>  <PUBCHEM_MMFF94_PARTIAL_CHARGES>  (1) 
25
1 -0.43
10 0.14
11 -0.14
12 -0.15
13 -0.15
14 0.66
15 -0.15
16 -0.15
17 0.08
18 0.06
19 0.28
2 -0.68
25 0.36
28 0.4
29 0.15
3 -0.57
30 0.15
31 0.15
32 0.15
4 -0.36
5 -0.9
6 0.27
7 0.28
8 0.28
9 0.27

>  <PUBCHEM_EFFECTIVE_ROTOR_COUNT>  (1) 
6

>  <PUBCHEM_PHARMACOPHORE_FEATURES>  (1) 
8
1 2 acceptor
1 2 donor
1 3 acceptor
1 4 acceptor
1 5 cation
1 5 donor
5 5 6 7 8 9 rings
6 11 12 13 15 16 17 rings

>  <PUBCHEM_HEAVY_ATOM_COUNT>  (1) 
19

>  <PUBCHEM_ATOM_DEF_STEREO_COUNT>  (1) 
3

>  <PUBCHEM_ATOM_UDEF_STEREO_COUNT>  (1) 
0

>  <PUBCHEM_BOND_DEF_STEREO_COUNT>  (1) 
0

>  <PUBCHEM_BOND_UDEF_STEREO_COUNT>  (1) 
0

>  <PUBCHEM_ISOTOPIC_ATOM_COUNT>  (1) 
0

>  <PUBCHEM_COMPONENT_COUNT>  (1) 
1

>  <PUBCHEM_CACTVS_TAUTO_COUNT>  (1) 
1

>  <PUBCHEM_CONFORMER_ID>  (1) 
00007B3D00000001

>  <PUBCHEM_MMFF94_ENERGY>  (1) 
51.865

>  <PUBCHEM_FEATURE_SELFOVERLAP>  (1) 
40.596

>  <PUBCHEM_SHAPE_FINGERPRINT>  (1) 
10366900 7 18198899391381018897
10616163 171 18191871347184131591
10980938 120 18343861138632181959
11140007 195 17487346945146292575
114674 6 18187087221826177043
12251169 10 18411138077983158141
12507560 40 18411136901241311725
12553582 1 18261950859768996845
12633257 1 18042110098132482658
12841375 5 18272097046049333382
12892183 10 18272939336480731457
13140716 1 17976539743063115829
13296908 3 18041556949536893661
13533116 47 18130510752150373699
13583140 156 17988627602353576377
13675066 3 18260552225760809213
14178342 30 18198051693527740047
14251740 57 18339376239984164107
14251764 30 17415576306785599550
14252887 29 18040439905800030153
14289901 80 18412545431407731705
14863182 85 18334585676089411198
15536298 74 18411141320688643799
15664445 248 17677636274249086308
16945 1 18339347682081455508
17804303 29 18194692466598455775
1813 80 16877950442834872341
20442098 301 18411131450584681503
20559304 39 18408889559181810093
20645477 70 18337939122193032735
20871998 22 18113336388476098445
21065199 12 18410856538655888465
22224240 67 18266171915125761160
23557571 272 15430305936770447925
23559900 14 18338234856308080973
2748010 2 18120073023252387572
31174 14 18410856538238806437
3421961 26 18339084774269678486
458136 41 18342455984837427844
5104073 3 18338527357072398529
6049 1 18262514767304803533
633830 44 17559951211475580748
7097593 13 18413670205964434461
7364860 26 18413673500241183062
9709674 26 18260834821360214675

>  <PUBCHEM_SHAPE_MULTIPOLES>  (1) 
362.55
8.47
2.6
1.34
10.16
1.52
0.39
0.7
3.56
-3.11
-0.57
-0.69
-0.14
0.58

>  <PUBCHEM_SHAPE_SELFOVERLAP>  (1) 
757.507

>  <PUBCHEM_SHAPE_VOLUME>  (1) 
206.2

>  <PUBCHEM_COORDINATE_TYPE>  (1) 
2
5
10

$$$$
