31547
     RDKit          3D

 27 28  0  0  0  0  0  0  0  0999 V2000
   -1.9571    0.1243   -1.2099 O   0  0  0  0  0  0  0  0  0  0  0  0
    4.3599    0.6316    0.0480 N   0  0  0  0  0  0  0  0  0  0  0  0
    3.3055    0.8001    2.1936 N   0  0  0  0  0  0  0  0  0  0  0  0
    5.7199    0.7590    0.5645 C   0  0  0  0  0  0  0  0  0  0  0  0
    4.2598    0.4430   -1.3970 C   0  0  0  0  0  0  0  0  0  0  0  0
    3.2269    0.6222    0.8937 C   0  0  0  0  0  0  0  0  0  0  0  0
    1.8849    0.4208    0.3545 C   0  0  0  0  0  0  0  0  0  0  0  0
   -5.4442    0.7915    0.0223 C   0  0  0  0  0  0  0  0  0  0  0  0
   -6.7645    0.0436   -0.1760 C   0  0  0  0  0  0  0  0  0  0  0  0
    5.8639    2.0873    1.2959 C   0  0  0  0  0  0  0  0  0  0  0  0
    6.0193   -0.4166    1.4850 C   0  0  0  0  0  0  0  0  0  0  0  0
    4.7884    1.6812   -2.1095 C   0  0  0  0  0  0  0  0  0  0  0  0
    5.0403   -0.8024   -1.7960 C   0  0  0  0  0  0  0  0  0  0  0  0
   -4.3023    0.1055   -0.7263 C   0  0  0  0  0  0  0  0  0  0  0  0
    1.3062   -0.8528    0.2308 C   0  0  0  0  0  0  0  0  0  0  0  0
   -7.9500    0.7024    0.5353 C   0  0  0  0  0  0  0  0  0  0  0  0
   -0.0006   -0.9707   -0.2997 C   0  0  0  0  0  0  0  0  0  0  0  0
   -2.9758    0.8174   -0.5020 C   0  0  0  0  0  0  0  0  0  0  0  0
   -0.6900    0.1885   -0.6910 C   0  0  0  0  0  0  0  0  0  0  0  0
    1.1854    1.5618   -0.0392 C   0  0  0  0  0  0  0  0  0  0  0  0
   -9.2821   -0.0027    0.2772 C   0  0  0  0  0  0  0  0  0  0  0  0
   -0.0997    1.4459   -0.5610 C   0  0  0  0  0  0  0  0  0  0  0  0
    1.9956   -2.0121    0.6221 C   0  0  0  0  0  0  0  0  0  0  0  0
   -0.5793   -2.2442   -0.4234 C   0  0  0  0  0  0  0  0  0  0  0  0
  -10.4356    0.7303    0.9454 C   0  0  0  0  0  0  0  0  0  0  0  0
    1.4052   -3.2695    0.4922 C   0  0  0  0  0  0  0  0  0  0  0  0
    0.1202   -3.3853   -0.0296 C   0  0  0  0  0  0  0  0  0  0  0  0
  1 18  1  0
  1 19  1  0
  2  4  1  0
  2  5  1  0
  2  6  1  0
  3  6  2  0
  4 10  1  0
  4 11  1  0
  5 12  1  0
  5 13  1  0
  6  7  1  0
  7 15  2  0
  7 20  1  0
  8  9  1  0
  8 14  1  0
  9 16  1  0
 14 18  1  0
 15 17  1  0
 15 23  1  0
 16 21  1  0
 17 19  2  0
 17 24  1  0
 19 22  1  0
 20 22  2  0
 21 25  1  0
 23 26  2  0
 24 27  2  0
 26 27  1  0
M  END
>  <PUBCHEM_COMPOUND_CID>  (1) 
31547

>  <PUBCHEM_CONFORMER_RMSD>  (1) 
1

>  <PUBCHEM_CONFORMER_DIVERSEORDER>  (1) 
11
8
25
36
32
44
49
29
16
61
53
41
55
18
56
21
59
33
50
47
42
46
62
43
17
31
52
4
57
2
60
30
9
12
23
45
34
48
40
51
54
58
28
15
3
5
27
13
7
37
20
24
39
22
10
14
1
26
6
35
19
38

>  <PUBCHEM_MMFF94_PARTIAL_CHARGES>  (1) 
22
1 -0.36
18 0.28
19 0.08
2 -0.79
20 -0.15
22 -0.15
23 -0.15
24 -0.15
26 -0.15
27 -0.15
3 -0.85
4 0.37
5 0.37
52 0.15
55 0.15
56 0.15
57 0.15
58 0.4
6 0.41
62 0.15
63 0.15
7 0.09

>  <PUBCHEM_EFFECTIVE_ROTOR_COUNT>  (1) 
11

>  <PUBCHEM_PHARMACOPHORE_FEATURES>  (1) 
9
1 1 acceptor
1 25 hydrophobe
1 3 donor
3 2 3 6 cation
3 4 10 11 hydrophobe
3 5 12 13 hydrophobe
5 8 9 14 16 21 hydrophobe
6 15 17 23 24 26 27 rings
6 7 15 17 19 20 22 rings

>  <PUBCHEM_HEAVY_ATOM_COUNT>  (1) 
27

>  <PUBCHEM_ATOM_DEF_STEREO_COUNT>  (1) 
0

>  <PUBCHEM_ATOM_UDEF_STEREO_COUNT>  (1) 
0

>  <PUBCHEM_BOND_DEF_STEREO_COUNT>  (1) 
0

>  <PUBCHEM_BOND_UDEF_STEREO_COUNT>  (1) 
0

>  <PUBCHEM_ISOTOPIC_ATOM_COUNT>  (1) 
0

>  <PUBCHEM_COMPONENT_COUNT>  (1) 
1

>  <PUBCHEM_CACTVS_TAUTO_COUNT>  (1) 
1

>  <PUBCHEM_CONFORMER_ID>  (1) 
00007B3B0000000B

>  <PUBCHEM_MMFF94_ENERGY>  (1) 
82.6136

>  <PUBCHEM_FEATURE_SELFOVERLAP>  (1) 
45.698

>  <PUBCHEM_SHAPE_FINGERPRINT>  (1) 
10165383 225 18410574002837872000
11135609 127 14979375379386571040
11578080 2 13359331587369899100
11719270 70 18333169457973884971
11796584 16 14692565554788023740
13540713 4 17899404299965345477
13617811 41 18334866008346975652
13726171 33 17971766724996841316
13782708 43 12397118351243824616
14251764 18 17603588530881031309
14747281 78 17775005760742718088
14790565 3 18408605885271950044
15183329 4 10303816497498280655
20771845 171 17676500414561061806
21033648 29 18128802221953160946
21344244 181 18059590048318997006
21521721 280 18340482360964884568
21781051 124 18113631075073366170
22149856 69 18262806155947325713
22224240 67 18409444808923163507
22956985 138 17535735305276718178
3009799 131 10375868593128827983
3178227 256 18335135414570819241
3633792 109 14189304768124815852
4093350 32 17489588931302741007
4340502 62 18410289207682753630
465052 167 17385438812851887296
5104073 3 18192425274212903345
5385378 56 18411696552507161275
5758199 1 18342455959183688153
58260988 647 16844468032957154902
9658208 31 18271242832493354270

>  <PUBCHEM_SHAPE_MULTIPOLES>  (1) 
539.82
22.72
2.51
1.49
71.43
2.64
-0.1
-10.55
6.16
-2.51
0.15
-2.7
-0.47
-0.14

>  <PUBCHEM_SHAPE_SELFOVERLAP>  (1) 
1105.073

>  <PUBCHEM_SHAPE_VOLUME>  (1) 
313.8

>  <PUBCHEM_COORDINATE_TYPE>  (1) 
2
5
10

$$$$
