31543
     RDKit          3D

 16 16  0  0  1  0  0  0  0  0999 V2000
    0.8940   -2.8301   -0.1040 O   0  0  0  0  0  0  0  0  0  0  0  0
    2.6720    0.3758    0.4070 N   0  0  0  0  0  0  0  0  0  0  0  0
    3.9352    0.8796   -0.1151 C   0  0  0  0  0  0  0  0  0  0  0  0
    1.0780   -1.5250    0.4456 C   0  0  0  0  0  0  0  0  0  0  0  0
    2.3977   -0.9634   -0.0956 C   0  0  0  0  0  0  0  0  0  0  0  0
   -0.1341   -0.6437    0.0993 C   0  0  0  0  0  0  0  0  0  0  0  0
    3.8663    0.9371   -1.6457 C   0  0  0  0  0  0  0  0  0  0  0  0
    4.1747    2.2818    0.4543 C   0  0  0  0  0  0  0  0  0  0  0  0
    5.0574   -0.0660    0.3263 C   0  0  0  0  0  0  0  0  0  0  0  0
   -1.4769   -1.2108    0.5835 C   0  0  0  0  0  0  0  0  0  0  0  0
   -2.6603   -0.3386    0.2481 C   0  0  0  0  0  0  0  0  0  0  0  0
   -3.0622    0.6388    1.1460 C   0  0  0  0  0  0  0  0  0  0  0  0
   -3.3271   -0.5276   -0.9532 C   0  0  0  0  0  0  0  0  0  0  0  0
   -4.1568    1.4458    0.8358 C   0  0  0  0  0  0  0  0  0  0  0  0
   -4.4216    0.2797   -1.2634 C   0  0  0  0  0  0  0  0  0  0  0  0
   -4.8364    1.2664   -0.3689 C   0  0  0  0  0  0  0  0  0  0  0  0
  1  4  1  0
  2  3  1  0
  2  5  1  0
  3  7  1  0
  3  8  1  0
  3  9  1  0
  4  5  1  0
  4  6  1  0
  6 10  1  0
 10 11  1  0
 11 12  2  0
 11 13  1  0
 12 14  1  0
 13 15  2  0
 14 16  2  0
 15 16  1  0
M  END
>  <PUBCHEM_COMPOUND_CID>  (1) 
31543

>  <PUBCHEM_CONFORMER_RMSD>  (1) 
0.8

>  <PUBCHEM_CONFORMER_DIVERSEORDER>  (1) 
1
26
39
49
41
34
33
19
2
51
50
21
24
10
18
48
4
52
38
27
42
28
25
13
29
37
8
6
5
47
44
32
30
7
9
14
11
15
46
20
35
43
36
17
40
31
12
23
22
45
3
16

>  <PUBCHEM_MMFF94_PARTIAL_CHARGES>  (1) 
19
1 -0.68
10 0.14
11 -0.14
12 -0.15
13 -0.15
14 -0.15
15 -0.15
16 -0.15
2 -0.9
20 0.36
3 0.27
34 0.4
35 0.15
36 0.15
37 0.15
38 0.15
39 0.15
4 0.28
5 0.27

>  <PUBCHEM_EFFECTIVE_ROTOR_COUNT>  (1) 
6

>  <PUBCHEM_PHARMACOPHORE_FEATURES>  (1) 
6
1 1 acceptor
1 1 donor
1 2 cation
1 2 donor
4 3 7 8 9 hydrophobe
6 11 12 13 14 15 16 rings

>  <PUBCHEM_HEAVY_ATOM_COUNT>  (1) 
16

>  <PUBCHEM_ATOM_DEF_STEREO_COUNT>  (1) 
0

>  <PUBCHEM_ATOM_UDEF_STEREO_COUNT>  (1) 
1

>  <PUBCHEM_BOND_DEF_STEREO_COUNT>  (1) 
0

>  <PUBCHEM_BOND_UDEF_STEREO_COUNT>  (1) 
0

>  <PUBCHEM_ISOTOPIC_ATOM_COUNT>  (1) 
0

>  <PUBCHEM_COMPONENT_COUNT>  (1) 
1

>  <PUBCHEM_CACTVS_TAUTO_COUNT>  (1) 
1

>  <PUBCHEM_CONFORMER_ID>  (1) 
00007B3700000001

>  <PUBCHEM_MMFF94_ENERGY>  (1) 
31.5048

>  <PUBCHEM_FEATURE_SELFOVERLAP>  (1) 
30.446

>  <PUBCHEM_SHAPE_FINGERPRINT>  (1) 
10014705 185 18114177541068223719
10498660 4 18412827996973845593
11089746 13 18412537726399783432
11543360 7 16415199013574245232
122479 349 18115311197528072298
12596602 18 13912331183032747036
12633257 1 15792004632266505320
12670546 177 16988841708854096337
12892183 10 13479128021194162326
13103583 49 12324232828574735319
13551218 46 7997976790745808961
13675066 3 14851601059765359755
13887833 79 16486987158428171828
14123255 352 18260829323416862892
14123255 52 18411699906659938706
14123260 362 18412550907485525281
1420 369 9295290542677396153
14251764 30 12468906560727391184
14252887 29 8574715689568070286
14528608 73 18341889705915249613
14848178 96 18410574024170653984
15188451 53 13479422720729001889
15239191 94 10447929459995080557
15342168 16 18333738987901288197
15342816 4 12103577372563132240
17780758 139 12108048003520515460
17834072 32 18336549420915233540
17870717 6 14836125459891278397
1798214 55 18408325501258363648
18186145 218 18335148583051117094
193927 3 10952054480394482604
19782 4 18259980500392610614
19784866 34 18410855464544559107
20281475 54 8502383230323678762
20291156 8 9079123249621325054
20300324 65 17775845731342623753
20325693 3 16343704318646450313
20432913 95 9079115565835109884
204376 136 18113621187852662499
20645477 56 17894914001646227915
20671657 53 13902192594781594394
20693207 138 14045444683683548663
20871999 31 15698284408419114019
212847 35 18260831514562366324
21499 59 18411417315044744915
21503847 285 16660365900718279772
2255824 54 18124594185054694331
22646028 28 9583515408580979641
22950370 63 8646496249425011538
231179 274 18040996228581847554
23402539 116 18060415820542933480
23402655 69 18131350791137927770
23403322 49 12175622863130018933
235170 7 15554453993755015008
23559900 14 18340204068744050170
23596394 208 15195287490944155724
314194 84 9367337150368238056
3472631 163 18059297552914931861
351380 180 18343862225739111560
351380 3 9583519823770689972
4259306 186 12823300078332898029
474 4 18335139782457249883
4990 188 17275387607722646044
5924683 9 15141253182304529817
6328613 192 18262244438892222260
633830 44 18272376373225559974

>  <PUBCHEM_SHAPE_MULTIPOLES>  (1) 
318.42
12
2.05
1.15
1.48
0.44
0.3
-6.87
1.42
1.11
-0.22
-0.37
-0.27
-0.36

>  <PUBCHEM_SHAPE_SELFOVERLAP>  (1) 
632.359

>  <PUBCHEM_SHAPE_VOLUME>  (1) 
191.1

>  <PUBCHEM_COORDINATE_TYPE>  (1) 
2
5
10

$$$$
