3155
     RDKit          3D

 21 23  0  0  0  0  0  0  0  0999 V2000
    2.9736   -1.3640    1.2162 S   0  0  0  0  0  0  0  0  0  0  0  0
   -4.3858    1.0920    0.1207 N   0  0  0  0  0  0  0  0  0  0  0  0
    0.3371    0.3980    0.0308 C   0  0  0  0  0  0  0  0  0  0  0  0
   -0.0535   -0.9891   -0.2873 C   0  0  0  0  0  0  0  0  0  0  0  0
    1.7256    0.9178   -0.0737 C   0  0  0  0  0  0  0  0  0  0  0  0
    0.3907   -2.0361    0.5370 C   0  0  0  0  0  0  0  0  0  0  0  0
   -2.0418    0.7406    0.7458 C   0  0  0  0  0  0  0  0  0  0  0  0
   -0.6345    1.1930    0.5205 C   0  0  0  0  0  0  0  0  0  0  0  0
   -3.0207    1.5587   -0.0955 C   0  0  0  0  0  0  0  0  0  0  0  0
    1.2706   -1.7425    1.7195 C   0  0  0  0  0  0  0  0  0  0  0  0
    2.8734    0.2363    0.3907 C   0  0  0  0  0  0  0  0  0  0  0  0
   -0.8586   -1.2690   -1.4011 C   0  0  0  0  0  0  0  0  0  0  0  0
    0.0236   -3.3537    0.2294 C   0  0  0  0  0  0  0  0  0  0  0  0
    1.8981    2.1560   -0.7354 C   0  0  0  0  0  0  0  0  0  0  0  0
    4.1393    0.8313    0.1932 C   0  0  0  0  0  0  0  0  0  0  0  0
   -1.2195   -2.5838   -1.6931 C   0  0  0  0  0  0  0  0  0  0  0  0
   -0.7792   -3.6246   -0.8790 C   0  0  0  0  0  0  0  0  0  0  0  0
    3.1580    2.7242   -0.9146 C   0  0  0  0  0  0  0  0  0  0  0  0
    4.2806    2.0619   -0.4466 C   0  0  0  0  0  0  0  0  0  0  0  0
   -5.3254    1.8458   -0.7108 C   0  0  0  0  0  0  0  0  0  0  0  0
   -4.7518    1.2074    1.5332 C   0  0  0  0  0  0  0  0  0  0  0  0
  1 10  1  0
  1 11  1  0
  2  9  1  0
  2 20  1  0
  2 21  1  0
  3  4  1  0
  3  5  1  0
  3  8  2  0
  4  6  2  0
  4 12  1  0
  5 11  2  0
  5 14  1  0
  6 10  1  0
  6 13  1  0
  7  8  1  0
  7  9  1  0
 11 15  1  0
 12 16  2  0
 13 17  2  0
 14 18  2  0
 15 19  2  0
 16 17  1  0
 18 19  1  0
M  END
>  <PUBCHEM_COMPOUND_CID>  (1) 
3155

>  <PUBCHEM_CONFORMER_RMSD>  (1) 
0.6

>  <PUBCHEM_CONFORMER_DIVERSEORDER>  (1) 
3
5
10
11
17
14
18
19
13
9
7
4
2
8
12
15
6
1
16

>  <PUBCHEM_MMFF94_PARTIAL_CHARGES>  (1) 
30
1 -0.33
10 0.37
11 0.1
12 -0.15
13 -0.15
14 -0.15
15 -0.15
16 -0.15
17 -0.15
18 -0.15
19 -0.15
2 -0.81
20 0.27
21 0.27
24 0.15
29 0.15
3 -0.06
30 0.15
31 0.15
32 0.15
33 0.15
34 0.15
35 0.15
36 0.15
4 0.03
5 0.03
6 -0.14
7 0.14
8 -0.29
9 0.27

>  <PUBCHEM_EFFECTIVE_ROTOR_COUNT>  (1) 
3.4

>  <PUBCHEM_PHARMACOPHORE_FEATURES>  (1) 
4
1 2 cation
6 4 6 12 13 16 17 rings
6 5 11 14 15 18 19 rings
7 1 3 4 5 6 10 11 rings

>  <PUBCHEM_HEAVY_ATOM_COUNT>  (1) 
21

>  <PUBCHEM_ATOM_DEF_STEREO_COUNT>  (1) 
0

>  <PUBCHEM_ATOM_UDEF_STEREO_COUNT>  (1) 
0

>  <PUBCHEM_BOND_DEF_STEREO_COUNT>  (1) 
0

>  <PUBCHEM_BOND_UDEF_STEREO_COUNT>  (1) 
1

>  <PUBCHEM_ISOTOPIC_ATOM_COUNT>  (1) 
0

>  <PUBCHEM_COMPONENT_COUNT>  (1) 
1

>  <PUBCHEM_CACTVS_TAUTO_COUNT>  (1) 
1

>  <PUBCHEM_CONFORMER_ID>  (1) 
00000C5300000003

>  <PUBCHEM_MMFF94_ENERGY>  (1) 
74.2418

>  <PUBCHEM_FEATURE_SELFOVERLAP>  (1) 
20.309

>  <PUBCHEM_SHAPE_FINGERPRINT>  (1) 
10090160 65 18339638945789734881
104564 63 18052537956583692814
10756046 70 18337375063932449978
1100329 8 18410567380030021786
12592029 89 18336832987477649241
12788726 201 18054218006151198703
13140716 1 18188766284072787896
13149001 5 17488177282583850073
133893 2 17698465242458573515
13583140 156 17459738225663715147
13836976 161 18340480067747474541
14178342 30 18121201345980013208
14251751 93 18269561692315281207
14790565 3 18411418440500132973
14955137 171 18191583047968644106
15849732 13 18336821971435336394
15906896 17 18195817485736549326
16752209 62 18057311980347684855
17138139 8 17700099323449631047
17980427 23 18054477401486530784
204376 136 18412269432509035553
20645476 183 18339079392770264469
20645477 70 18264485080000680729
20739085 24 17981309102445580263
21421861 104 17910413688224790409
21524375 3 18410300219704853585
21756936 100 17752783586862304348
22620623 9 17559119997600581550
23419403 2 17402957323259767202
23558518 356 17831298668176510704
23598288 3 18127968818331648830
25147074 1 18189883375006558802
266924 87 17186718857979387332
283562 15 17615965947368831090
298252 57 18342179976779104898
3060560 45 18338801091916680462
394222 165 18334859381101194073
474 4 18410293567084997993
53917941 68 18267010850934902772
6034566 193 17025726050848237900
6438718 38 17986678275205263942
6669772 16 18342470213964178278
7164475 11 18052536861720116182
7832392 63 18410008884126380752
81228 2 17762328524084697481
81539 233 18336550421742801373
8272917 22 18263364685851651537
9999458 23 18188214204195990534

>  <PUBCHEM_SHAPE_MULTIPOLES>  (1) 
431.04
8
4.02
1.39
6.8
2.96
0.07
-8.8
0.79
-0.11
-1.16
0.39
0.59
-1.81

>  <PUBCHEM_SHAPE_SELFOVERLAP>  (1) 
908.482

>  <PUBCHEM_SHAPE_VOLUME>  (1) 
242.2

>  <PUBCHEM_COORDINATE_TYPE>  (1) 
2
5
10

$$$$
