31550
     RDKit          3D

 14 14  0  0  0  0  0  0  0  0999 V2000
    2.1412   -0.0049   -1.3792 S   0  0  0  0  0  0  0  0  0  0  0  0
    2.4212    0.0055    1.2465 O   0  0  0  0  0  0  0  0  0  0  0  0
   -4.1580   -1.0958    0.5938 O   0  0  0  0  0  0  0  0  0  0  0  0
   -4.1579    1.0995    0.5873 O   0  0  0  0  0  0  0  0  0  0  0  0
   -3.5776    0.0013    0.4090 N   0  0  0  0  0  0  0  0  0  0  0  0
    4.3533   -0.0015   -0.0510 N   0  0  0  0  0  0  0  0  0  0  0  0
    0.4404   -0.0027   -0.8467 C   0  0  0  0  0  0  0  0  0  0  0  0
   -2.2223    0.0000   -0.0145 C   0  0  0  0  0  0  0  0  0  0  0  0
   -0.2254   -1.2100   -0.6348 C   0  0  0  0  0  0  0  0  0  0  0  0
   -0.2252    1.2061   -0.6425 C   0  0  0  0  0  0  0  0  0  0  0  0
   -1.5568   -1.2087   -0.2188 C   0  0  0  0  0  0  0  0  0  0  0  0
   -1.5566    1.2074   -0.2264 C   0  0  0  0  0  0  0  0  0  0  0  0
    2.9932   -0.0005    0.1641 C   0  0  0  0  0  0  0  0  0  0  0  0
    5.3306    0.0043    1.0131 C   0  0  0  0  0  0  0  0  0  0  0  0
  1  7  1  0
  1 13  1  0
  2 13  2  0
  3  5  1  0
  4  5  2  0
  5  8  1  0
  6 13  1  0
  6 14  1  0
  7  9  2  0
  7 10  1  0
  8 11  2  0
  8 12  1  0
  9 11  1  0
 10 12  2  0
M  CHG  2   3  -1   5   1
M  END
>  <PUBCHEM_COMPOUND_CID>  (1) 
31550

>  <PUBCHEM_CONFORMER_RMSD>  (1) 
0.6

>  <PUBCHEM_CONFORMER_DIVERSEORDER>  (1) 
1
7
8
6
5
9
3
4
10
2

>  <PUBCHEM_MMFF94_PARTIAL_CHARGES>  (1) 
19
1 -0.24
10 -0.15
11 -0.15
12 -0.15
13 0.77
14 0.3
15 0.15
16 0.15
17 0.15
18 0.15
19 0.37
2 -0.57
3 -0.52
4 -0.52
5 0.91
6 -0.73
7 0.1
8 0.13
9 -0.15

>  <PUBCHEM_EFFECTIVE_ROTOR_COUNT>  (1) 
4

>  <PUBCHEM_PHARMACOPHORE_FEATURES>  (1) 
5
1 3 acceptor
1 3 anion
1 4 acceptor
1 6 donor
6 7 8 9 10 11 12 rings

>  <PUBCHEM_HEAVY_ATOM_COUNT>  (1) 
14

>  <PUBCHEM_ATOM_DEF_STEREO_COUNT>  (1) 
0

>  <PUBCHEM_ATOM_UDEF_STEREO_COUNT>  (1) 
0

>  <PUBCHEM_BOND_DEF_STEREO_COUNT>  (1) 
0

>  <PUBCHEM_BOND_UDEF_STEREO_COUNT>  (1) 
0

>  <PUBCHEM_ISOTOPIC_ATOM_COUNT>  (1) 
0

>  <PUBCHEM_COMPONENT_COUNT>  (1) 
1

>  <PUBCHEM_CACTVS_TAUTO_COUNT>  (1) 
2

>  <PUBCHEM_CONFORMER_ID>  (1) 
00007B3E00000001

>  <PUBCHEM_MMFF94_ENERGY>  (1) 
28.7849

>  <PUBCHEM_FEATURE_SELFOVERLAP>  (1) 
25.453

>  <PUBCHEM_SHAPE_FINGERPRINT>  (1) 
10130415 120 18040443217103699549
11031198 65 16200156495391765204
11132069 177 18341622494640817661
11401426 45 18412544302084287229
12119455 92 16988841657446130636
12251169 10 18412543232336808428
124424 183 17676205784489309285
13214271 11 17561078120514602173
13581323 91 18334857212532767766
14252887 29 17313383392763737026
14943859 89 15698277815617823886
15219456 202 17846504677612035894
15375462 189 17603859014455936072
16945 1 18410582786014168783
17846911 113 18273216378402384941
17870717 6 11025793137933672712
18186145 218 15625955217739455685
187816 3 9151173164247015916
19026448 4 16845305908009042055
19026448 5 16805617992127407909
200 152 15357694184798764012
20112054 13 16558458773588659488
20374829 77 12107783021212822880
20645464 45 17918275358986128455
20645477 56 17774998003688103652
20645477 70 14129065824346777784
20871999 31 8070037674448987222
21119208 17 11743839170808421344
21293036 1 9583517607493407071
22926399 37 14261350267139082338
23402539 116 18202273706556411413
23402655 69 14045748084035736873
23532345 42 18341060678268651231
23559900 14 18200051546538980710
2748010 2 18049456846309390487
42 15 18187365415689835934
449060 50 17060344036724493628

>  <PUBCHEM_SHAPE_MULTIPOLES>  (1) 
264.39
8.81
1.18
1.1
4.9
0
0.1
-0.02
-4.06
-1
0.09
0.76
0
0.01

>  <PUBCHEM_SHAPE_SELFOVERLAP>  (1) 
531.8

>  <PUBCHEM_SHAPE_VOLUME>  (1) 
155.7

>  <PUBCHEM_COORDINATE_TYPE>  (1) 
2
5
10

$$$$
