31573
     RDKit          3D

 17 17  0  0  1  0  0  0  0  0999 V2000
   -0.7712   -3.2115    0.3570 S   0  0  0  0  0  0  0  0  0  0  0  0
    1.3540    1.3272    0.4529 N   0  0  0  0  0  0  0  0  0  0  0  0
   -0.9704    1.2414    0.1513 N   0  0  0  0  0  0  0  0  0  0  0  0
    0.3106   -0.7720    0.4014 N   0  0  0  0  0  0  0  0  0  0  0  0
   -3.2916    1.0915   -0.1488 N   0  0  0  0  0  0  0  0  0  0  0  0
   -2.0660   -0.8927    0.0934 N   0  0  0  0  0  0  0  0  0  0  0  0
    3.2380    0.2040   -0.6797 C   0  0  0  0  0  0  0  0  0  0  0  0
    2.6672    0.7472    0.6508 C   0  0  0  0  0  0  0  0  0  0  0  0
    3.4372    1.2770   -1.7549 C   0  0  0  0  0  0  0  0  0  0  0  0
    4.5524   -0.5518   -0.4530 C   0  0  0  0  0  0  0  0  0  0  0  0
    3.5735    1.7828    1.3122 C   0  0  0  0  0  0  0  0  0  0  0  0
    0.1983    0.5776    0.3319 C   0  0  0  0  0  0  0  0  0  0  0  0
   -2.0490    0.4489    0.0414 C   0  0  0  0  0  0  0  0  0  0  0  0
   -0.8507   -1.4342    0.2752 C   0  0  0  0  0  0  0  0  0  0  0  0
   -4.5220    0.3762   -0.2820 C   0  0  0  0  0  0  0  0  0  0  0  0
   -5.6958    1.3275   -0.4405 C   0  0  0  0  0  0  0  0  0  0  0  0
    0.8856   -3.5391   -0.3087 C   0  0  0  0  0  0  0  0  0  0  0  0
  1 14  1  0
  1 17  1  0
  2  8  1  0
  2 12  1  0
  3 12  2  0
  3 13  1  0
  4 12  1  0
  4 14  2  0
  5 13  1  0
  5 15  1  0
  6 13  2  0
  6 14  1  0
  7  8  1  0
  7  9  1  0
  7 10  1  0
  8 11  1  0
 15 16  1  0
M  END
>  <PUBCHEM_COMPOUND_CID>  (1) 
31573

>  <PUBCHEM_CONFORMER_RMSD>  (1) 
0.8

>  <PUBCHEM_CONFORMER_DIVERSEORDER>  (1) 
1
202
87
120
121
43
75
85
71
99
179
7
60
176
190
15
156
200
84
152
37
175
206
171
165
76
145
193
135
188
48
45
173
49
131
92
54
55
65
83
186
153
96
126
13
177
82
80
122
50
73
118
86
191
184
12
148
144
30
44
63
17
70
180
74
110
123
178
2
88
119
32
162
59
61
155
205
185
8
196
22
91
47
106
136
198
3
192
203
157
41
34
146
57
181
77
147
38
69
89
72
189
128
113
163
10
46
134
174
28
170
130
115
207
167
197
149
67
183
97
129
102
105
23
62
39
201
160
35
159
40
16
109
137
104
108
26
117
66
114
31
164
42
79
143
187
29
169
95
9
172
103
124
111
90
101
140
51
199
27
112
94
25
150
53
142
93
158
125
133
141
166
100
151
58
81
204
56
20
182
154
139
36
11
33
5
64
78
52
98
168
194
18
116
21
132
19
14
195
24
127
68
161
107
6
4
138

>  <PUBCHEM_MMFF94_PARTIAL_CHARGES>  (1) 
14
1 -0.33
12 0.72
13 0.72
14 0.72
15 0.37
17 0.23
2 -0.87
29 0.4
3 -0.62
30 0.4
4 -0.62
5 -0.87
6 -0.62
8 0.37

>  <PUBCHEM_EFFECTIVE_ROTOR_COUNT>  (1) 
6

>  <PUBCHEM_PHARMACOPHORE_FEATURES>  (1) 
7
1 17 hydrophobe
1 2 donor
1 5 donor
3 7 9 10 hydrophobe
4 2 3 4 12 cation
4 3 5 6 13 cation
6 3 4 6 12 13 14 rings

>  <PUBCHEM_HEAVY_ATOM_COUNT>  (1) 
17

>  <PUBCHEM_ATOM_DEF_STEREO_COUNT>  (1) 
0

>  <PUBCHEM_ATOM_UDEF_STEREO_COUNT>  (1) 
1

>  <PUBCHEM_BOND_DEF_STEREO_COUNT>  (1) 
0

>  <PUBCHEM_BOND_UDEF_STEREO_COUNT>  (1) 
0

>  <PUBCHEM_ISOTOPIC_ATOM_COUNT>  (1) 
0

>  <PUBCHEM_COMPONENT_COUNT>  (1) 
1

>  <PUBCHEM_CACTVS_TAUTO_COUNT>  (1) 
9

>  <PUBCHEM_CONFORMER_ID>  (1) 
00007B5500000001

>  <PUBCHEM_MMFF94_ENERGY>  (1) 
38.4493

>  <PUBCHEM_FEATURE_SELFOVERLAP>  (1) 
35.563

>  <PUBCHEM_SHAPE_FINGERPRINT>  (1) 
10693767 8 17987787502529482319
107951 10 17531259365291240898
10922049 32 18410576193271257923
11322862 65 18337672026381992598
116883 192 17765148762772743431
12500047 106 18339644567970191764
12532896 13 18341038730959673907
12553582 1 17256816014685484466
12592029 89 18336827494262184403
12644460 14 18263647256203155299
12730499 353 18410579457725893435
12895836 83 18042424575980845900
13544592 145 18343587352079486636
13836976 161 18333733481357751206
14115302 16 18408895044529923020
14911166 2 18413110554213729940
15375358 24 18058725939764184600
16752209 62 18265330801235865994
18186145 218 18342168973184142721
19784866 240 14836139727614607940
20279233 1 18130791208919148408
20645476 183 18041566939578290790
20645477 56 18337386161975137648
20645477 70 18192982739529880647
20871999 31 18265621072389494950
21524375 3 18334011666394878763
22218785 32 18411419501177427719
22713019 99 18201162066062304142
23366157 5 17825954715321650179
23402539 116 18343012303055694613
23557571 272 18054793055380595992
23558518 356 17684358842933581416
23559900 14 18342741862472524196
23598288 3 17824832388558682938
23598291 2 17532369966708586942
2748010 2 18055639662011351634
3060560 45 18411131420393374796
3071541 37 18336546006595581255
366044 4 18408882936642491203
3759504 43 17967537904143883779
495365 180 17632285805239220552
4990 188 17846498123650379421
58051976 100 18113343033080649046
58779409 8 18337388352841040311
59755656 215 18337671889438554141
6138700 20 18268432322286353918
633830 44 18130497591996266349
7364860 26 18196648497694870995
81228 2 17903631135504480411
81539 233 18188204308828840583
88987 49 18192429890928102296
9709674 26 18056193811592594602

>  <PUBCHEM_SHAPE_MULTIPOLES>  (1) 
328.8
9.1
3.06
1.03
6.67
4.14
-0.18
-6.2
-2.1
-0.06
0.14
-1.18
-0.43
0.63

>  <PUBCHEM_SHAPE_SELFOVERLAP>  (1) 
631.978

>  <PUBCHEM_SHAPE_VOLUME>  (1) 
202.7

>  <PUBCHEM_COORDINATE_TYPE>  (1) 
2
5
10

$$$$
