31588
     RDKit          3D

 26 28  0  0  1  0  0  0  0  0999 V2000
   -5.7102    2.7858   -2.0191 Cl  0  0  0  0  0  0  0  0  0  0  0  0
   -2.3722   -0.8855    1.8682 S   0  0  0  0  0  0  0  0  0  0  0  0
    3.4865    1.9230    1.8332 O   0  0  0  0  0  0  0  0  0  0  0  0
    3.7616    2.6894   -0.8224 O   0  0  0  0  0  0  0  0  0  0  0  0
   -3.1107   -2.1850    1.9625 O   0  0  0  0  0  0  0  0  0  0  0  0
    0.7790   -3.0570   -0.6679 N   0  0  0  0  0  0  0  0  0  0  0  0
    1.2733   -2.2756    0.4980 C   0  0  0  0  0  0  0  0  0  0  0  0
    1.9422   -0.9467    0.1366 C   0  0  0  0  0  0  0  0  0  0  0  0
    1.6573   -2.9311   -1.8369 C   0  0  0  0  0  0  0  0  0  0  0  0
    0.0815   -2.0147    1.4392 C   0  0  0  0  0  0  0  0  0  0  0  0
    1.6807   -1.4810   -2.3090 C   0  0  0  0  0  0  0  0  0  0  0  0
    2.1330   -0.5709   -1.2043 C   0  0  0  0  0  0  0  0  0  0  0  0
   -0.9606   -1.1561    0.7535 C   0  0  0  0  0  0  0  0  0  0  0  0
    2.4290   -0.0970    1.1454 C   0  0  0  0  0  0  0  0  0  0  0  0
    0.6171   -4.4786   -0.3393 C   0  0  0  0  0  0  0  0  0  0  0  0
    2.7287    0.6603   -1.5147 C   0  0  0  0  0  0  0  0  0  0  0  0
    3.0362    1.1195    0.8294 C   0  0  0  0  0  0  0  0  0  0  0  0
    3.1774    1.5024   -0.5001 C   0  0  0  0  0  0  0  0  0  0  0  0
   -3.3285    0.1649    0.7564 C   0  0  0  0  0  0  0  0  0  0  0  0
   -4.2382   -0.4124   -0.1208 C   0  0  0  0  0  0  0  0  0  0  0  0
   -3.1457    1.5419    0.7869 C   0  0  0  0  0  0  0  0  0  0  0  0
    2.5696    2.8818    2.3565 C   0  0  0  0  0  0  0  0  0  0  0  0
    5.1744    2.6848   -1.0196 C   0  0  0  0  0  0  0  0  0  0  0  0
   -4.9769    0.4000   -0.9810 C   0  0  0  0  0  0  0  0  0  0  0  0
   -3.8843    2.3544   -0.0734 C   0  0  0  0  0  0  0  0  0  0  0  0
   -4.7999    1.7834   -0.9574 C   0  0  0  0  0  0  0  0  0  0  0  0
  1 26  1  0
  2  5  2  0
  2 13  1  0
  2 19  1  0
  3 17  1  0
  3 22  1  0
  4 18  1  0
  4 23  1  0
  6  7  1  0
  6  9  1  0
  6 15  1  0
  7  8  1  0
  7 10  1  0
  8 12  2  0
  8 14  1  0
  9 11  1  0
 10 13  1  0
 11 12  1  0
 12 16  1  0
 14 17  2  0
 16 18  2  0
 17 18  1  0
 19 20  2  0
 19 21  1  0
 20 24  1  0
 21 25  2  0
 24 26  2  0
 25 26  1  0
M  END
>  <PUBCHEM_COMPOUND_CID>  (1) 
31588

>  <PUBCHEM_CONFORMER_RMSD>  (1) 
0.8

>  <PUBCHEM_CONFORMER_DIVERSEORDER>  (1) 
1
66
59
54
55
40
15
58
39
62
33
53
64
74
29
68
4
7
22
51
27
71
38
56
34
65
61
14
31
44
5
11
30
28
17
3
60
57
63
41
70
8
10
45
18
47
2
48
43
6
23
72
20
37
32
26
52
24
12
35
19
69
9
46
73
36
67
21
13
42
49
50
25
16

>  <PUBCHEM_MMFF94_PARTIAL_CHARGES>  (1) 
31
1 -0.18
11 0.14
12 -0.14
13 0.19
14 -0.15
15 0.27
16 -0.15
17 0.08
18 0.08
19 0.06
2 0.24
20 -0.15
21 -0.15
22 0.28
23 0.28
24 -0.15
25 -0.15
26 0.18
3 -0.36
36 0.15
4 -0.36
40 0.15
41 0.15
42 0.15
49 0.15
5 -0.5
50 0.15
6 -0.81
7 0.41
8 -0.14
9 0.27

>  <PUBCHEM_EFFECTIVE_ROTOR_COUNT>  (1) 
6.8

>  <PUBCHEM_PHARMACOPHORE_FEATURES>  (1) 
7
1 3 acceptor
1 4 acceptor
1 5 acceptor
1 6 cation
6 19 20 21 24 25 26 rings
6 6 7 8 9 11 12 rings
6 8 12 14 16 17 18 rings

>  <PUBCHEM_HEAVY_ATOM_COUNT>  (1) 
26

>  <PUBCHEM_ATOM_DEF_STEREO_COUNT>  (1) 
0

>  <PUBCHEM_ATOM_UDEF_STEREO_COUNT>  (1) 
2

>  <PUBCHEM_BOND_DEF_STEREO_COUNT>  (1) 
0

>  <PUBCHEM_BOND_UDEF_STEREO_COUNT>  (1) 
0

>  <PUBCHEM_ISOTOPIC_ATOM_COUNT>  (1) 
0

>  <PUBCHEM_COMPONENT_COUNT>  (1) 
1

>  <PUBCHEM_CACTVS_TAUTO_COUNT>  (1) 
1

>  <PUBCHEM_CONFORMER_ID>  (1) 
00007B6400000001

>  <PUBCHEM_MMFF94_ENERGY>  (1) 
85.1604

>  <PUBCHEM_FEATURE_SELFOVERLAP>  (1) 
35.548

>  <PUBCHEM_SHAPE_FINGERPRINT>  (1) 
10165383 225 17768565954885980146
10498660 4 18261684730779038745
10692045 39 8141812746566404005
10764073 3 17677597680363962230
10928967 22 13110957626771423541
11720765 8 17832141619574229238
11763715 3 16819693102774190998
12633257 1 16660911244883251881
12788726 201 17685486946396484890
13773456 73 17749107756350041705
14251764 3 18129389365520812824
14251764 38 18333731325310490313
14468879 13 18335143111558142451
14848178 96 18261673675686355529
14950920 106 10809921626760244781
14957384 54 17970911287490902624
20715895 44 17751907048430135917
21304303 282 17483072271850470726
21860390 5 18196926673888570758
21968339 14 18198891535532341629
22749437 52 18113623365601327089
23559900 14 18191025599672805607
238 59 18060423516517757698
24941158 1 18050823556052442463
26353 1 17195474891988909694
341906 21 17749394801377069273
376196 1 18261106383235752531
44317340 157 18191867826313113197
44802255 64 18051428541663152948
469060 322 17907589365102655235
495365 180 18339355275831359399
508180 173 17323237013971421357
7399639 24 18119277127490841531
7808743 9 17976270345824663304
9981440 41 18261672657705059219

>  <PUBCHEM_SHAPE_MULTIPOLES>  (1) 
518.2
10.67
4.62
2.27
12.2
1.98
0.12
-11.61
-3.92
-2.98
-0.53
-0.32
-0.26
2.83

>  <PUBCHEM_SHAPE_SELFOVERLAP>  (1) 
1071.359

>  <PUBCHEM_SHAPE_VOLUME>  (1) 
300.2

>  <PUBCHEM_COORDINATE_TYPE>  (1) 
2
5
10

$$$$
