31583
     RDKit          3D

 15 16  0  0  0  0  0  0  0  0999 V2000
   -2.5163    3.4786   -0.0781 Br  0  0  0  0  0  0  0  0  0  0  0  0
   -1.5048   -2.8248    0.1743 S   0  0  0  0  0  0  0  0  0  0  0  0
    3.8108    0.3210    0.0387 N   0  0  0  0  0  0  0  0  0  0  0  0
    1.6585   -0.5866   -0.7910 C   0  0  0  0  0  0  0  0  0  0  0  0
    0.3360   -1.1473   -0.4171 C   0  0  0  0  0  0  0  0  0  0  0  0
    2.5283   -0.2531    0.4313 C   0  0  0  0  0  0  0  0  0  0  0  0
   -0.8378   -0.3533   -0.1888 C   0  0  0  0  0  0  0  0  0  0  0  0
   -1.9332   -1.1548    0.1477 C   0  0  0  0  0  0  0  0  0  0  0  0
    0.1114   -2.4936   -0.2538 C   0  0  0  0  0  0  0  0  0  0  0  0
   -1.0287    1.0482   -0.2536 C   0  0  0  0  0  0  0  0  0  0  0  0
    4.6009    0.6713    1.2199 C   0  0  0  0  0  0  0  0  0  0  0  0
    3.6104    1.4990   -0.8065 C   0  0  0  0  0  0  0  0  0  0  0  0
   -3.1984   -0.5972    0.4177 C   0  0  0  0  0  0  0  0  0  0  0  0
   -2.2825    1.6043    0.0136 C   0  0  0  0  0  0  0  0  0  0  0  0
   -3.3545    0.7883    0.3457 C   0  0  0  0  0  0  0  0  0  0  0  0
  1 14  1  0
  2  8  1  0
  2  9  1  0
  3  6  1  0
  3 11  1  0
  3 12  1  0
  4  5  1  0
  4  6  1  0
  5  7  1  0
  5  9  2  0
  7  8  2  0
  7 10  1  0
  8 13  1  0
 10 14  2  0
 13 15  2  0
 14 15  1  0
M  END
>  <PUBCHEM_COMPOUND_CID>  (1) 
31583

>  <PUBCHEM_CONFORMER_RMSD>  (1) 
0.6

>  <PUBCHEM_CONFORMER_DIVERSEORDER>  (1) 
1
5
8
10
9
4
3
6
7
2

>  <PUBCHEM_MMFF94_PARTIAL_CHARGES>  (1) 
18
1 -0.11
10 -0.15
11 0.27
12 0.27
13 -0.15
14 0.11
15 -0.15
2 -0.08
20 0.15
21 0.15
28 0.15
29 0.15
3 -0.81
4 0.18
5 -0.18
6 0.27
8 0.04
9 -0.11

>  <PUBCHEM_EFFECTIVE_ROTOR_COUNT>  (1) 
3

>  <PUBCHEM_PHARMACOPHORE_FEATURES>  (1) 
4
1 1 hydrophobe
1 3 cation
5 2 5 7 8 9 rings
6 7 8 10 13 14 15 rings

>  <PUBCHEM_HEAVY_ATOM_COUNT>  (1) 
15

>  <PUBCHEM_ATOM_DEF_STEREO_COUNT>  (1) 
0

>  <PUBCHEM_ATOM_UDEF_STEREO_COUNT>  (1) 
0

>  <PUBCHEM_BOND_DEF_STEREO_COUNT>  (1) 
0

>  <PUBCHEM_BOND_UDEF_STEREO_COUNT>  (1) 
0

>  <PUBCHEM_ISOTOPIC_ATOM_COUNT>  (1) 
0

>  <PUBCHEM_COMPONENT_COUNT>  (1) 
1

>  <PUBCHEM_CACTVS_TAUTO_COUNT>  (1) 
1

>  <PUBCHEM_CONFORMER_ID>  (1) 
00007B5F00000001

>  <PUBCHEM_MMFF94_ENERGY>  (1) 
30.3665

>  <PUBCHEM_FEATURE_SELFOVERLAP>  (1) 
20.357

>  <PUBCHEM_SHAPE_FINGERPRINT>  (1) 
10608611 8 18267870471358659469
11132069 177 18341898523277360246
12173636 292 18411695478479948612
12251169 10 18260826016682266182
12390115 104 18199768971629038145
13140716 1 18193283120372301811
13583140 156 17022616468529093897
13965767 371 17681553623862817988
14420673 8 18191862328655436306
14648413 74 17761780559498843179
15042514 8 18265057001640162811
15669948 3 18266178512185017206
16945 1 18336562550909936343
17846911 113 18412825797876438075
18186145 218 18058181530909955070
20510252 161 18342182146022594809
20645477 56 18201438121022265850
20671657 1 17691128132625543007
21427221 339 17897427412165187042
21524375 3 18343580707359144758
21650355 55 18192989554693842419
23402539 116 18270673307324895767
23419403 2 17198523116700387963
23557571 272 18056780911947006038
23559900 14 18343033172839869374
2748010 2 18048051687629234447
305870 269 18191867825178904699
3071541 12 17691408512369996247
350125 39 18194133910227850783
5706482 22 18410567388198112371
5939293 188 16753528285127478941
6333272 397 18409452444789524741
7097593 13 18114728362129343330
7364860 26 17764029064914655727
84936 182 17767115411012211241
90316 7 18265614470934992552
9981440 41 18336819776379754203

>  <PUBCHEM_SHAPE_MULTIPOLES>  (1) 
313.5
7.02
3.37
0.87
7.82
0.68
0.06
4.41
1.62
-2.98
-0.18
0.61
0.1
0.2

>  <PUBCHEM_SHAPE_SELFOVERLAP>  (1) 
631.852

>  <PUBCHEM_SHAPE_VOLUME>  (1) 
190.3

>  <PUBCHEM_COORDINATE_TYPE>  (1) 
2
5
10

$$$$
