31591
     RDKit          3D

 12 12  0  0  0  0  0  0  0  0999 V2000
   -1.7865    0.0036   -0.2295 C   0  0  0  0  0  0  0  0  0  0  0  0
   -2.4166   -1.2512    0.4171 C   0  0  0  0  0  0  0  0  0  0  0  0
   -2.4082    1.2775    0.3871 C   0  0  0  0  0  0  0  0  0  0  0  0
   -0.2692   -0.0005   -0.1254 C   0  0  0  0  0  0  0  0  0  0  0  0
   -2.0113   -2.5507   -0.2688 C   0  0  0  0  0  0  0  0  0  0  0  0
   -1.9359    2.5632   -0.2817 C   0  0  0  0  0  0  0  0  0  0  0  0
    0.4797   -0.0167   -1.2848 C   0  0  0  0  0  0  0  0  0  0  0  0
    0.3143    0.0113    1.1253 C   0  0  0  0  0  0  0  0  0  0  0  0
    1.8712   -0.0208   -1.1892 C   0  0  0  0  0  0  0  0  0  0  0  0
    1.7060    0.0071    1.2208 C   0  0  0  0  0  0  0  0  0  0  0  0
    2.4844   -0.0089    0.0635 C   0  0  0  0  0  0  0  0  0  0  0  0
    3.9722   -0.0139    0.1656 C   0  0  0  0  0  0  0  0  0  0  0  0
  1  2  1  0
  1  3  1  0
  1  4  1  0
  2  5  1  0
  3  6  1  0
  4  7  2  0
  4  8  1  0
  7  9  1  0
  8 10  2  0
  9 11  2  0
 10 11  1  0
 11 12  1  0
M  END
>  <PUBCHEM_COMPOUND_CID>  (1) 
31591

>  <PUBCHEM_CONFORMER_RMSD>  (1) 
0.6

>  <PUBCHEM_CONFORMER_DIVERSEORDER>  (1) 
1
4
3
5
2

>  <PUBCHEM_MMFF94_PARTIAL_CHARGES>  (1) 
12
1 0.14
10 -0.15
11 -0.14
12 0.14
24 0.15
25 0.15
26 0.15
27 0.15
4 -0.14
7 -0.15
8 -0.15
9 -0.15

>  <PUBCHEM_EFFECTIVE_ROTOR_COUNT>  (1) 
3

>  <PUBCHEM_PHARMACOPHORE_FEATURES>  (1) 
3
1 5 hydrophobe
1 6 hydrophobe
6 4 7 8 9 10 11 rings

>  <PUBCHEM_HEAVY_ATOM_COUNT>  (1) 
12

>  <PUBCHEM_ATOM_DEF_STEREO_COUNT>  (1) 
0

>  <PUBCHEM_ATOM_UDEF_STEREO_COUNT>  (1) 
0

>  <PUBCHEM_BOND_DEF_STEREO_COUNT>  (1) 
0

>  <PUBCHEM_BOND_UDEF_STEREO_COUNT>  (1) 
0

>  <PUBCHEM_ISOTOPIC_ATOM_COUNT>  (1) 
0

>  <PUBCHEM_COMPONENT_COUNT>  (1) 
1

>  <PUBCHEM_CACTVS_TAUTO_COUNT>  (1) 
1

>  <PUBCHEM_CONFORMER_ID>  (1) 
00007B6700000001

>  <PUBCHEM_MMFF94_ENERGY>  (1) 
23.5731

>  <PUBCHEM_FEATURE_SELFOVERLAP>  (1) 
15.223

>  <PUBCHEM_SHAPE_FINGERPRINT>  (1) 
1 1 17689717455075662973
12138202 97 18272364222652348653
12423570 1 15617994886798531081
124424 183 17774714247951818514
12500047 106 18339636725064588054
12716758 59 18269845224259436871
12932764 1 18410864256542963658
13380537 58 18339083666310138285
13839132 238 18197498415735141845
14128692 85 17532929621973952375
14289901 80 18336824294922674200
15775835 57 18042407924102780521
15852999 172 18058163921464959375
16945 1 18410579482757075909
17844478 74 17774727570481499866
18534176 82 18201717336340016813
19026448 4 18272370867557482082
19026448 5 18260548927130830872
20711985 344 18340476842358917035
20715346 28 17560509694651828376
20871998 184 18411426115738475199
21061003 4 16845020112005256650
21930827 45 18272089357809674017
23236772 104 17748547047741840113
23402539 116 18342164567064207357
23493267 7 18131072580747883994
23557571 272 18272660073011576132
23559900 14 18129943357164465210
25 1 17200799895664117169
2748010 2 15696618558367169792
305870 269 17904200330493174625
5084963 1 16414616298049433054
77492 1 17676209078085640334
81228 2 18341055202765694771

>  <PUBCHEM_SHAPE_MULTIPOLES>  (1) 
246.95
4.9
1.97
1.15
3.37
0.03
-0.04
-0.08
0.33
-2.79
-0.19
0.44
0
0.01

>  <PUBCHEM_SHAPE_SELFOVERLAP>  (1) 
494.366

>  <PUBCHEM_SHAPE_VOLUME>  (1) 
144

>  <PUBCHEM_COORDINATE_TYPE>  (1) 
2
5
10

$$$$
