31596
     RDKit          3D

 26 28  0  0  0  0  0  0  0  0999 V2000
   -0.9309   -2.7621    0.1844 O   0  0  0  0  0  0  0  0  0  0  0  0
   -3.1231    0.1226    0.2002 O   0  0  0  0  0  0  0  0  0  0  0  0
    2.8808   -0.1863   -0.3974 O   0  0  0  0  0  0  0  0  0  0  0  0
    0.8989    1.3413    0.4462 O   0  0  0  0  0  0  0  0  0  0  0  0
   -0.9787    1.4074   -0.8840 O   0  0  0  0  0  0  0  0  0  0  0  0
   -6.3551    1.4319   -0.0296 O   0  0  0  0  0  0  0  0  0  0  0  0
   -4.4832    2.2823    0.7520 O   0  0  0  0  0  0  0  0  0  0  0  0
    6.2151    0.8600   -0.4077 O   0  0  0  0  0  0  0  0  0  0  0  0
    4.4307    1.6465   -1.4251 O   0  0  0  0  0  0  0  0  0  0  0  0
    0.4511   -2.8317    0.3111 N   0  0  0  0  0  0  0  0  0  0  0  0
   -5.1182    1.3262    0.2180 N   0  0  0  0  0  0  0  0  0  0  0  0
    4.9752    0.8021   -0.6552 N   0  0  0  0  0  0  0  0  0  0  0  0
   -0.1858   -0.6714   -0.0267 C   0  0  0  0  0  0  0  0  0  0  0  0
   -1.2981   -1.4707   -0.0164 C   0  0  0  0  0  0  0  0  0  0  0  0
    0.8740   -1.5710    0.1816 C   0  0  0  0  0  0  0  0  0  0  0  0
   -2.6574   -1.0955   -0.1815 C   0  0  0  0  0  0  0  0  0  0  0  0
    2.3061   -1.2285    0.2584 C   0  0  0  0  0  0  0  0  0  0  0  0
   -0.1557    0.7502   -0.2109 C   0  0  0  0  0  0  0  0  0  0  0  0
   -3.6702   -1.8526   -0.7222 C   0  0  0  0  0  0  0  0  0  0  0  0
    3.2443   -1.9109    0.9973 C   0  0  0  0  0  0  0  0  0  0  0  0
   -4.8332   -1.0479   -0.6693 C   0  0  0  0  0  0  0  0  0  0  0  0
   -4.4480    0.1436   -0.1001 C   0  0  0  0  0  0  0  0  0  0  0  0
    4.4745   -1.2454    0.7812 C   0  0  0  0  0  0  0  0  0  0  0  0
    4.2004   -0.2035   -0.0740 C   0  0  0  0  0  0  0  0  0  0  0  0
    1.0364    2.7623    0.3393 C   0  0  0  0  0  0  0  0  0  0  0  0
    2.2502    3.2012    1.1303 C   0  0  0  0  0  0  0  0  0  0  0  0
  1 10  1  0
  1 14  1  0
  2 16  1  0
  2 22  1  0
  3 17  1  0
  3 24  1  0
  4 18  1  0
  4 25  1  0
  5 18  2  0
  6 11  1  0
  7 11  2  0
  8 12  1  0
  9 12  2  0
 10 15  2  0
 11 22  1  0
 12 24  1  0
 13 14  2  0
 13 15  1  0
 13 18  1  0
 14 16  1  0
 15 17  1  0
 16 19  2  0
 17 20  2  0
 19 21  1  0
 20 23  1  0
 21 22  2  0
 23 24  2  0
 25 26  1  0
M  CHG  4   6  -1   8  -1  11   1  12   1
M  END
>  <PUBCHEM_COMPOUND_CID>  (1) 
31596

>  <PUBCHEM_CONFORMER_RMSD>  (1) 
0.8

>  <PUBCHEM_CONFORMER_DIVERSEORDER>  (1) 
1
39
16
60
50
62
29
4
35
25
17
55
24
9
2
40
49
43
53
42
54
20
3
33
8
18
5
30
52
13
48
10
56
46
31
19
57
23
37
11
64
44
41
36
58
12
28
15
45
61
14
51
6
7
38
63
32
59
26
34
22
47
21
27

>  <PUBCHEM_MMFF94_PARTIAL_CHARGES>  (1) 
29
1 -0.02
10 -0.41
11 0.96
12 0.96
13 -0.09
14 0.14
15 0.29
16 0.14
17 0.14
18 0.81
19 -0.15
2 -0.28
20 -0.15
21 -0.15
22 0.22
23 -0.15
24 0.22
25 0.28
27 0.15
28 0.15
29 0.15
3 -0.28
30 0.15
4 -0.43
5 -0.57
6 -0.52
7 -0.52
8 -0.52
9 -0.52

>  <PUBCHEM_EFFECTIVE_ROTOR_COUNT>  (1) 
7

>  <PUBCHEM_PHARMACOPHORE_FEATURES>  (1) 
13
1 10 acceptor
1 2 acceptor
1 3 acceptor
1 5 acceptor
1 6 acceptor
1 6 anion
1 7 acceptor
1 8 acceptor
1 8 anion
1 9 acceptor
5 1 10 13 14 15 rings
5 2 16 19 21 22 rings
5 3 17 20 23 24 rings

>  <PUBCHEM_HEAVY_ATOM_COUNT>  (1) 
26

>  <PUBCHEM_ATOM_DEF_STEREO_COUNT>  (1) 
0

>  <PUBCHEM_ATOM_UDEF_STEREO_COUNT>  (1) 
0

>  <PUBCHEM_BOND_DEF_STEREO_COUNT>  (1) 
0

>  <PUBCHEM_BOND_UDEF_STEREO_COUNT>  (1) 
0

>  <PUBCHEM_ISOTOPIC_ATOM_COUNT>  (1) 
0

>  <PUBCHEM_COMPONENT_COUNT>  (1) 
1

>  <PUBCHEM_CACTVS_TAUTO_COUNT>  (1) 
1

>  <PUBCHEM_CONFORMER_ID>  (1) 
00007B6C00000001

>  <PUBCHEM_MMFF94_ENERGY>  (1) 
36.9341

>  <PUBCHEM_FEATURE_SELFOVERLAP>  (1) 
66.167

>  <PUBCHEM_SHAPE_FINGERPRINT>  (1) 
10906281 52 18338249201266935626
1100329 8 18341610404381992401
12236239 1 18408602552234513422
12788726 201 18129952186794352096
13140716 1 18410008862630386995
14466204 15 18340199675012871521
14787075 74 18333729113365604402
14790565 3 18409172094962604213
14849402 71 18337961185667268465
15081414 286 18199757938289993115
15196674 1 18408884027237545847
15238133 3 18409721881595351850
15475509 8 17915762923630461628
1601671 61 18343018861169932066
20642791 105 17901368014774168280
20642791 178 17968672634155184748
20642791 35 18342736368977367792
21279426 13 18342462568759009948
21304253 335 18260554445683817484
21421861 104 17825942628846284611
23402539 116 18272359850439483902
23559900 14 18131063878706643281
3004659 81 18334576811783567414
335352 9 18411134710359598070
34797466 226 16558462101618926459
34934 24 18410290359103357726
350125 39 18410576219452511795
3680242 22 18334289830326221066
4340502 62 16298387950622550642
5104073 3 18113614612241934714
543358 83 18409168818297858400
58260988 393 15068618241081690021
6034566 193 16520220086862698028
6328613 192 18409731750982304957
9981440 41 17618490425987577921

>  <PUBCHEM_SHAPE_MULTIPOLES>  (1) 
467.3
12.21
3.2
0.89
3.78
1.17
0.05
3.75
1.42
-0.33
-0.77
-0.59
0.21
-1.22

>  <PUBCHEM_SHAPE_SELFOVERLAP>  (1) 
1025.237

>  <PUBCHEM_SHAPE_VOLUME>  (1) 
252.4

>  <PUBCHEM_COORDINATE_TYPE>  (1) 
2
5
10

$$$$
