31605
     RDKit          3D

 24 25  0  0  0  0  0  0  0  0999 V2000
    1.3903    0.8096    0.0005 O   0  0  0  0  0  0  0  0  0  0  0  0
   -2.6369    2.8296    0.2739 O   0  0  0  0  0  0  0  0  0  0  0  0
   -2.4983   -0.7907    0.2780 O   0  0  0  0  0  0  0  0  0  0  0  0
   -0.2174   -0.3834   -1.1165 O   0  0  0  0  0  0  0  0  0  0  0  0
   -4.1821   -3.8531    0.2815 O   0  0  0  0  0  0  0  0  0  0  0  0
   -2.1093   -3.3214    0.7904 O   0  0  0  0  0  0  0  0  0  0  0  0
    4.6704   -0.8680    0.1124 N   0  0  0  0  0  0  0  0  0  0  0  0
   -1.6054    3.7607    0.2646 N   0  0  0  0  0  0  0  0  0  0  0  0
   -3.2678   -2.9866    0.4055 N   0  0  0  0  0  0  0  0  0  0  0  0
    3.6700    0.1730    0.3456 C   0  0  0  0  0  0  0  0  0  0  0  0
    4.8508   -1.0915   -1.3216 C   0  0  0  0  0  0  0  0  0  0  0  0
    5.9417   -0.5041    0.7368 C   0  0  0  0  0  0  0  0  0  0  0  0
    2.3340   -0.2201   -0.2643 C   0  0  0  0  0  0  0  0  0  0  0  0
    5.8422   -2.2127   -1.5820 C   0  0  0  0  0  0  0  0  0  0  0  0
    5.7731   -0.2680    2.2282 C   0  0  0  0  0  0  0  0  0  0  0  0
   -0.7982    1.7111   -0.1757 C   0  0  0  0  0  0  0  0  0  0  0  0
   -2.1316    1.5983    0.0065 C   0  0  0  0  0  0  0  0  0  0  0  0
    0.1209    0.6125   -0.4851 C   0  0  0  0  0  0  0  0  0  0  0  0
   -0.5049    3.0547   -0.0102 C   0  0  0  0  0  0  0  0  0  0  0  0
   -2.9580    0.4453   -0.0496 C   0  0  0  0  0  0  0  0  0  0  0  0
    0.7955    3.7401   -0.0982 C   0  0  0  0  0  0  0  0  0  0  0  0
   -4.2809    0.3865   -0.4207 C   0  0  0  0  0  0  0  0  0  0  0  0
   -4.6586   -0.9734   -0.3144 C   0  0  0  0  0  0  0  0  0  0  0  0
   -3.5394   -1.6485    0.1143 C   0  0  0  0  0  0  0  0  0  0  0  0
  1 13  1  0
  1 18  1  0
  2  8  1  0
  2 17  1  0
  3 20  1  0
  3 24  1  0
  4 18  2  0
  5  9  1  0
  6  9  2  0
  7 10  1  0
  7 11  1  0
  7 12  1  0
  8 19  2  0
  9 24  1  0
 10 13  1  0
 11 14  1  0
 12 15  1  0
 16 17  2  0
 16 18  1  0
 16 19  1  0
 17 20  1  0
 19 21  1  0
 20 22  2  0
 22 23  1  0
 23 24  2  0
M  CHG  2   5  -1   9   1
M  END
>  <PUBCHEM_COMPOUND_CID>  (1) 
31605

>  <PUBCHEM_CONFORMER_RMSD>  (1) 
1

>  <PUBCHEM_CONFORMER_DIVERSEORDER>  (1) 
2
70
128
34
66
108
88
127
120
94
105
102
75
55
116
16
17
63
35
89
92
115
86
135
59
44
84
111
72
69
27
18
96
9
3
91
90
1
51
24
7
30
74
139
117
8
79
87
118
41
50
29
119
25
23
68
37
126
98
43
26
28
53
13
81
48
67
99
15
58
19
36
131
6
42
20
60
64
5
121
62
46
82
38
103
57
133
14
45
95
54
10
56
71
125
132
4
107
52
130
40
137
21
12
100
31
134
80
112
104
122
11
22
49
110
106
109
114
93
101
33
138
136
65
83
124
32
78
77
61
97
85
123
113
47
76
73
129
39

>  <PUBCHEM_MMFF94_PARTIAL_CHARGES>  (1) 
24
1 -0.43
10 0.27
11 0.27
12 0.27
13 0.28
16 -0.09
17 0.14
18 0.81
19 0.11
2 -0.02
20 0.14
21 0.18
22 -0.15
23 -0.15
24 0.22
3 -0.28
4 -0.57
42 0.15
43 0.15
5 -0.52
6 -0.52
7 -0.81
8 -0.41
9 0.96

>  <PUBCHEM_EFFECTIVE_ROTOR_COUNT>  (1) 
9

>  <PUBCHEM_PHARMACOPHORE_FEATURES>  (1) 
9
1 3 acceptor
1 4 acceptor
1 5 acceptor
1 5 anion
1 6 acceptor
1 7 cation
1 8 acceptor
5 2 8 16 17 19 rings
5 3 20 22 23 24 rings

>  <PUBCHEM_HEAVY_ATOM_COUNT>  (1) 
24

>  <PUBCHEM_ATOM_DEF_STEREO_COUNT>  (1) 
0

>  <PUBCHEM_ATOM_UDEF_STEREO_COUNT>  (1) 
0

>  <PUBCHEM_BOND_DEF_STEREO_COUNT>  (1) 
0

>  <PUBCHEM_BOND_UDEF_STEREO_COUNT>  (1) 
0

>  <PUBCHEM_ISOTOPIC_ATOM_COUNT>  (1) 
0

>  <PUBCHEM_COMPONENT_COUNT>  (1) 
1

>  <PUBCHEM_CACTVS_TAUTO_COUNT>  (1) 
1

>  <PUBCHEM_CONFORMER_ID>  (1) 
00007B7500000002

>  <PUBCHEM_MMFF94_ENERGY>  (1) 
33.7257

>  <PUBCHEM_FEATURE_SELFOVERLAP>  (1) 
45.77

>  <PUBCHEM_SHAPE_FINGERPRINT>  (1) 
10319926 262 18125704718359200146
11056379 131 18266183829354627204
11370993 144 17346042173378721178
11963148 33 17255394345686748010
12107183 9 18196676179655990763
12523318 42 18337657642894903032
12553582 1 18408599262737587547
12788726 201 18260829237501563418
13140716 1 18269281317161590737
14844126 61 18334574616543310609
14866123 147 18340776936335399697
15042514 8 18411145723088131445
15250474 111 18116149974866860618
15352361 1 18338516442779926191
15927050 60 17837492947794830685
17138139 8 17604140545230786338
17492 89 17977100494415658131
20600515 1 18342186552680639621
20642791 13 18129662981398845101
21033648 29 17273675616810927864
21065201 7 18268990883040972744
22122407 14 15841832248231255457
2297311 6 18341059519017968900
23557571 272 18200886054416155412
23559900 14 18411130376790545001
3004659 81 18114186354172563758
335352 9 18410011040432299741
3383291 50 18409449207128684083
3882209 13 17263248110326645246
4073 2 18269839727587722646
4280585 95 18262504979148390056
5104073 3 18270121334922605641
59755656 215 18338799992120619127

>  <PUBCHEM_SHAPE_MULTIPOLES>  (1) 
443.75
12.89
4.42
1.15
18.5
0.81
0.19
-10.22
1.02
-5.41
0.38
2.36
-0.47
1.54

>  <PUBCHEM_SHAPE_SELFOVERLAP>  (1) 
929.486

>  <PUBCHEM_SHAPE_VOLUME>  (1) 
253.7

>  <PUBCHEM_COORDINATE_TYPE>  (1) 
2
5
10

$$$$
