31607
     RDKit          3D

 19 20  0  0  0  0  0  0  0  0999 V2000
   -1.6340   -2.3078   -0.1911 O   0  0  0  0  0  0  0  0  0  0  0  0
    1.3077   -0.1342    0.1318 O   0  0  0  0  0  0  0  0  0  0  0  0
   -1.0575    1.5706    1.6834 O   0  0  0  0  0  0  0  0  0  0  0  0
    4.7879    0.2007    0.0553 O   0  0  0  0  0  0  0  0  0  0  0  0
    3.1899    1.6600    0.4237 O   0  0  0  0  0  0  0  0  0  0  0  0
   -1.1397    2.0823   -0.5802 N   0  0  0  0  0  0  0  0  0  0  0  0
   -2.9767   -1.9732   -0.0637 N   0  0  0  0  0  0  0  0  0  0  0  0
    3.5564    0.4759    0.1633 N   0  0  0  0  0  0  0  0  0  0  0  0
   -1.6940   -0.1521    0.2574 C   0  0  0  0  0  0  0  0  0  0  0  0
   -0.8752   -1.1994    0.0053 C   0  0  0  0  0  0  0  0  0  0  0  0
   -2.9825   -0.6649    0.2072 C   0  0  0  0  0  0  0  0  0  0  0  0
    0.5422   -1.2396   -0.0646 C   0  0  0  0  0  0  0  0  0  0  0  0
   -1.2729    1.2216    0.5228 C   0  0  0  0  0  0  0  0  0  0  0  0
    1.3320   -2.3348   -0.3254 C   0  0  0  0  0  0  0  0  0  0  0  0
   -4.2652    0.0306    0.4066 C   0  0  0  0  0  0  0  0  0  0  0  0
    2.6692   -1.8726   -0.2870 C   0  0  0  0  0  0  0  0  0  0  0  0
    2.6010   -0.5280   -0.0052 C   0  0  0  0  0  0  0  0  0  0  0  0
   -0.7269    3.4630   -0.3653 C   0  0  0  0  0  0  0  0  0  0  0  0
   -1.3616    1.7018   -1.9744 C   0  0  0  0  0  0  0  0  0  0  0  0
  1  7  1  0
  1 10  1  0
  2 12  1  0
  2 17  1  0
  3 13  2  0
  4  8  1  0
  5  8  2  0
  6 13  1  0
  6 18  1  0
  6 19  1  0
  7 11  2  0
  8 17  1  0
  9 10  2  0
  9 11  1  0
  9 13  1  0
 10 12  1  0
 11 15  1  0
 12 14  2  0
 14 16  1  0
 16 17  2  0
M  CHG  2   4  -1   8   1
M  END
>  <PUBCHEM_COMPOUND_CID>  (1) 
31607

>  <PUBCHEM_CONFORMER_RMSD>  (1) 
0.6

>  <PUBCHEM_CONFORMER_DIVERSEORDER>  (1) 
2
15
4
14
16
3
7
1
13
9
12
5
8
10
6
11

>  <PUBCHEM_MMFF94_PARTIAL_CHARGES>  (1) 
21
1 -0.02
10 0.14
11 0.11
12 0.14
13 0.72
14 -0.15
15 0.18
16 -0.15
17 0.22
18 0.3
19 0.3
2 -0.28
20 0.15
24 0.15
3 -0.57
4 -0.52
5 -0.52
6 -0.66
7 -0.41
8 0.96
9 -0.09

>  <PUBCHEM_EFFECTIVE_ROTOR_COUNT>  (1) 
4

>  <PUBCHEM_PHARMACOPHORE_FEATURES>  (1) 
8
1 2 acceptor
1 3 acceptor
1 4 acceptor
1 4 anion
1 5 acceptor
1 7 acceptor
5 1 7 9 10 11 rings
5 2 12 14 16 17 rings

>  <PUBCHEM_HEAVY_ATOM_COUNT>  (1) 
19

>  <PUBCHEM_ATOM_DEF_STEREO_COUNT>  (1) 
0

>  <PUBCHEM_ATOM_UDEF_STEREO_COUNT>  (1) 
0

>  <PUBCHEM_BOND_DEF_STEREO_COUNT>  (1) 
0

>  <PUBCHEM_BOND_UDEF_STEREO_COUNT>  (1) 
0

>  <PUBCHEM_ISOTOPIC_ATOM_COUNT>  (1) 
0

>  <PUBCHEM_COMPONENT_COUNT>  (1) 
1

>  <PUBCHEM_CACTVS_TAUTO_COUNT>  (1) 
1

>  <PUBCHEM_CONFORMER_ID>  (1) 
00007B7700000002

>  <PUBCHEM_MMFF94_ENERGY>  (1) 
33.3957

>  <PUBCHEM_FEATURE_SELFOVERLAP>  (1) 
40.691

>  <PUBCHEM_SHAPE_FINGERPRINT>  (1) 
10498660 4 18336833077914711508
10608611 8 18339360734703235078
10967382 1 18411983576238343587
11132069 177 18341327894128096794
12173636 292 18123189000461634717
12403814 3 18334011675179764833
13027679 85 18272087253534421737
13132413 78 18341900748634811645
13140716 1 18193842762879047938
14142880 1 18342742875330588417
14170010 4 18411135879671779625
14223421 5 18339082588289391974
14614273 12 18409165480712734566
15163728 17 14475304145015610459
15183329 4 18189640344888796452
15196674 1 18269556203262453704
16945 1 18412551985359059123
17492 54 17682399496185756036
17802600 8 18411697673714599874
18219364 16 17688882929602426376
18769570 83 16733528452391894557
18785283 64 17754759430805775889
20510252 161 18340487746869262665
21524375 3 17177154799361190157
23402539 116 18341888645121975230
23419403 2 17770188834127828181
23557571 272 18336271167068991286
23559900 14 18271806779253780098
2748010 2 18122065299435213470
34934 24 18409725166939696051
350125 39 18194972833283836010
3524813 1 18201431523863160048
44154327 71 18263652925375505708
537710 114 18339088201832525933
7364860 26 18200318710774876742
74978 22 17905605506427494250
81228 2 17969518017126656821
9925002 15 16765343108640626358

>  <PUBCHEM_SHAPE_MULTIPOLES>  (1) 
346.72
6.25
3.12
1
3.96
1.46
-0.21
-0.51
0.68
-0.75
-0.53
-0.5
0.59
0.52

>  <PUBCHEM_SHAPE_SELFOVERLAP>  (1) 
744.029

>  <PUBCHEM_SHAPE_VOLUME>  (1) 
194.9

>  <PUBCHEM_COORDINATE_TYPE>  (1) 
2
5
10

$$$$
