31604
     RDKit          3D

 19 20  0  0  0  0  0  0  0  0999 V2000
   -0.7878   -2.7282   -0.3688 O   0  0  0  0  0  0  0  0  0  0  0  0
    1.5088    0.0714   -0.2360 O   0  0  0  0  0  0  0  0  0  0  0  0
   -2.4694    1.4707   -0.0631 O   0  0  0  0  0  0  0  0  0  0  0  0
   -0.5137    1.2844    1.1185 O   0  0  0  0  0  0  0  0  0  0  0  0
    4.7970    1.2466   -0.0938 O   0  0  0  0  0  0  0  0  0  0  0  0
    2.9126    2.2333   -0.6535 O   0  0  0  0  0  0  0  0  0  0  0  0
   -2.1768   -2.7399   -0.4071 N   0  0  0  0  0  0  0  0  0  0  0  0
    3.5436    1.2067   -0.2657 N   0  0  0  0  0  0  0  0  0  0  0  0
   -1.4360   -0.6489    0.1080 C   0  0  0  0  0  0  0  0  0  0  0  0
   -0.3583   -1.4775   -0.0609 C   0  0  0  0  0  0  0  0  0  0  0  0
    1.0221   -1.1650    0.0486 C   0  0  0  0  0  0  0  0  0  0  0  0
   -2.5412   -1.4871   -0.1191 C   0  0  0  0  0  0  0  0  0  0  0  0
    2.0381   -2.0065    0.4377 C   0  0  0  0  0  0  0  0  0  0  0  0
   -1.4063    0.7449    0.4391 C   0  0  0  0  0  0  0  0  0  0  0  0
   -3.9711   -1.1381   -0.0731 C   0  0  0  0  0  0  0  0  0  0  0  0
    2.8503    0.0188   -0.0265 C   0  0  0  0  0  0  0  0  0  0  0  0
    3.2254   -1.2378    0.3888 C   0  0  0  0  0  0  0  0  0  0  0  0
   -2.5023    2.8719    0.2308 C   0  0  0  0  0  0  0  0  0  0  0  0
   -3.7348    3.4801   -0.4037 C   0  0  0  0  0  0  0  0  0  0  0  0
  1  7  1  0
  1 10  1  0
  2 11  1  0
  2 16  1  0
  3 14  1  0
  3 18  1  0
  4 14  2  0
  5  8  1  0
  6  8  2  0
  7 12  2  0
  8 16  1  0
  9 10  2  0
  9 12  1  0
  9 14  1  0
 10 11  1  0
 11 13  2  0
 12 15  1  0
 13 17  1  0
 16 17  2  0
 18 19  1  0
M  CHG  2   5  -1   8   1
M  END
>  <PUBCHEM_COMPOUND_CID>  (1) 
31604

>  <PUBCHEM_CONFORMER_RMSD>  (1) 
0.8

>  <PUBCHEM_CONFORMER_DIVERSEORDER>  (1) 
1
14
17
11
13
3
10
6
12
8
18
4
9
19
15
16
5
2
7

>  <PUBCHEM_MMFF94_PARTIAL_CHARGES>  (1) 
20
1 -0.02
10 0.14
11 0.14
12 0.11
13 -0.15
14 0.81
15 0.18
16 0.22
17 -0.15
18 0.28
2 -0.28
20 0.15
24 0.15
3 -0.43
4 -0.57
5 -0.52
6 -0.52
7 -0.41
8 0.96
9 -0.09

>  <PUBCHEM_EFFECTIVE_ROTOR_COUNT>  (1) 
5

>  <PUBCHEM_PHARMACOPHORE_FEATURES>  (1) 
8
1 2 acceptor
1 4 acceptor
1 5 acceptor
1 5 anion
1 6 acceptor
1 7 acceptor
5 1 7 9 10 12 rings
5 2 11 13 16 17 rings

>  <PUBCHEM_HEAVY_ATOM_COUNT>  (1) 
19

>  <PUBCHEM_ATOM_DEF_STEREO_COUNT>  (1) 
0

>  <PUBCHEM_ATOM_UDEF_STEREO_COUNT>  (1) 
0

>  <PUBCHEM_BOND_DEF_STEREO_COUNT>  (1) 
0

>  <PUBCHEM_BOND_UDEF_STEREO_COUNT>  (1) 
0

>  <PUBCHEM_ISOTOPIC_ATOM_COUNT>  (1) 
0

>  <PUBCHEM_COMPONENT_COUNT>  (1) 
1

>  <PUBCHEM_CACTVS_TAUTO_COUNT>  (1) 
1

>  <PUBCHEM_CONFORMER_ID>  (1) 
00007B7400000001

>  <PUBCHEM_MMFF94_ENERGY>  (1) 
24.4576

>  <PUBCHEM_FEATURE_SELFOVERLAP>  (1) 
40.695

>  <PUBCHEM_SHAPE_FINGERPRINT>  (1) 
10756046 5 18341342102217768958
10871710 139 18045801214560024028
12173636 292 18411695465821926101
12507560 14 17616805544544985666
13140716 1 18191867825183965338
13583140 156 17387702596141371585
14142880 1 18259980483302769941
14787075 74 17608658541361861115
14790565 3 18341902874934182977
15442244 35 18337105658151542234
16752209 62 18270387318147425227
16945 1 18340476884839344931
17134986 127 18122909715944053503
17492 89 18409448055212532106
17834072 32 18266743476346283309
19427546 62 17833834868446511017
20510252 161 18343587334725602907
21501502 16 18408881811229314162
21524375 3 17973448693928749321
23227448 37 18338516327148359285
2334 1 18413108333773484931
23402539 116 18127689555431666774
23557571 272 18059863882748593568
23558518 356 18260835881826896155
23559900 14 17986668161275083130
2748010 2 18055083060025381711
3060560 45 17764022467686191975
335352 9 18122061992806417334
350125 39 18411142398313933042
352729 6 18127411138212909107
474 4 17677333960612735206
6333272 397 18051131393897195545
7164475 11 18412256233715994863
7832392 63 18336827473008536238

>  <PUBCHEM_SHAPE_MULTIPOLES>  (1) 
345.83
7.29
3.72
0.71
2.61
1.24
0.06
4.53
-0.55
-3.01
-0.49
-0.02
0.08
-0.54

>  <PUBCHEM_SHAPE_SELFOVERLAP>  (1) 
740.997

>  <PUBCHEM_SHAPE_VOLUME>  (1) 
193.5

>  <PUBCHEM_COORDINATE_TYPE>  (1) 
2
5
10

$$$$
