31600
     RDKit          3D

 24 25  0  0  0  0  0  0  0  0999 V2000
   -0.8113   -1.0475    0.8306 S   0  0  0  0  0  0  0  0  0  0  0  0
    3.3342   -3.1406    0.4380 O   0  0  0  0  0  0  0  0  0  0  0  0
    1.8494    1.2343   -0.1808 O   0  0  0  0  0  0  0  0  0  0  0  0
   -0.0215   -1.2548   -1.6634 O   0  0  0  0  0  0  0  0  0  0  0  0
    1.8039    4.7242   -0.3553 O   0  0  0  0  0  0  0  0  0  0  0  0
    0.2425    3.2194   -0.7233 O   0  0  0  0  0  0  0  0  0  0  0  0
   -4.6227    0.1393    0.0735 N   0  0  0  0  0  0  0  0  0  0  0  0
    3.8094   -1.8368    0.5103 N   0  0  0  0  0  0  0  0  0  0  0  0
    1.4309    3.5156   -0.4037 N   0  0  0  0  0  0  0  0  0  0  0  0
   -3.4377   -0.2434    0.8402 C   0  0  0  0  0  0  0  0  0  0  0  0
   -5.0225   -0.9437   -0.8243 C   0  0  0  0  0  0  0  0  0  0  0  0
   -5.7217    0.4900    0.9724 C   0  0  0  0  0  0  0  0  0  0  0  0
   -2.2909   -0.5696   -0.1083 C   0  0  0  0  0  0  0  0  0  0  0  0
   -6.2162   -0.5406   -1.6733 C   0  0  0  0  0  0  0  0  0  0  0  0
   -5.3238    1.6147    1.9132 C   0  0  0  0  0  0  0  0  0  0  0  0
    1.6489   -1.8372   -0.0949 C   0  0  0  0  0  0  0  0  0  0  0  0
    2.7657   -1.0699    0.1822 C   0  0  0  0  0  0  0  0  0  0  0  0
    0.3040   -1.4036   -0.4909 C   0  0  0  0  0  0  0  0  0  0  0  0
    2.0274   -3.1217    0.0710 C   0  0  0  0  0  0  0  0  0  0  0  0
    2.8721    0.4000    0.1439 C   0  0  0  0  0  0  0  0  0  0  0  0
    1.3671   -4.4284   -0.0529 C   0  0  0  0  0  0  0  0  0  0  0  0
    4.0096    1.1190    0.4291 C   0  0  0  0  0  0  0  0  0  0  0  0
    3.6637    2.4820    0.2690 C   0  0  0  0  0  0  0  0  0  0  0  0
    2.3394    2.4991   -0.1024 C   0  0  0  0  0  0  0  0  0  0  0  0
  1 13  1  0
  1 18  1  0
  2  8  1  0
  2 19  1  0
  3 20  1  0
  3 24  1  0
  4 18  2  0
  5  9  1  0
  6  9  2  0
  7 10  1  0
  7 11  1  0
  7 12  1  0
  8 17  2  0
  9 24  1  0
 10 13  1  0
 11 14  1  0
 12 15  1  0
 16 17  1  0
 16 18  1  0
 16 19  2  0
 17 20  1  0
 19 21  1  0
 20 22  2  0
 22 23  1  0
 23 24  2  0
M  CHG  2   5  -1   9   1
M  END
>  <PUBCHEM_COMPOUND_CID>  (1) 
31600

>  <PUBCHEM_CONFORMER_RMSD>  (1) 
1

>  <PUBCHEM_CONFORMER_DIVERSEORDER>  (1) 
1
59
148
85
92
50
56
139
113
178
188
198
62
116
191
86
160
2
25
48
5
119
96
189
31
171
43
127
114
129
89
117
78
194
4
46
155
142
23
32
20
28
36
176
44
115
120
12
161
94
172
181
82
27
151
156
123
99
104
14
17
180
133
177
101
60
35
137
112
118
186
21
66
81
157
77
109
57
76
26
93
3
138
47
40
150
103
126
22
52
38
124
174
73
15
106
9
34
45
193
18
183
145
65
149
182
72
58
53
91
166
84
141
196
131
128
175
167
37
41
165
55
173
168
146
49
8
30
95
63
90
111
33
88
132
10
169
143
16
83
74
11
70
75
79
122
197
187
184
24
153
7
164
54
121
185
102
51
39
98
19
61
159
107
134
68
154
6
195
13
170
190
152
71
136
80
125
162
179
29
42
87
158
135
192
147
97
130
110
140
108
64
144
67
105
100
163
69

>  <PUBCHEM_MMFF94_PARTIAL_CHARGES>  (1) 
24
1 -0.37
10 0.27
11 0.27
12 0.27
13 0.23
16 -0.09
17 0.29
18 0.8
19 -0.04
2 -0.02
20 0.14
21 0.18
22 -0.15
23 -0.15
24 0.22
3 -0.28
4 -0.57
42 0.15
43 0.15
5 -0.52
6 -0.52
7 -0.81
8 -0.41
9 0.96

>  <PUBCHEM_EFFECTIVE_ROTOR_COUNT>  (1) 
9

>  <PUBCHEM_PHARMACOPHORE_FEATURES>  (1) 
8
1 3 acceptor
1 5 acceptor
1 5 anion
1 6 acceptor
1 7 cation
1 8 acceptor
5 2 8 16 17 19 rings
5 3 20 22 23 24 rings

>  <PUBCHEM_HEAVY_ATOM_COUNT>  (1) 
24

>  <PUBCHEM_ATOM_DEF_STEREO_COUNT>  (1) 
0

>  <PUBCHEM_ATOM_UDEF_STEREO_COUNT>  (1) 
0

>  <PUBCHEM_BOND_DEF_STEREO_COUNT>  (1) 
0

>  <PUBCHEM_BOND_UDEF_STEREO_COUNT>  (1) 
0

>  <PUBCHEM_ISOTOPIC_ATOM_COUNT>  (1) 
0

>  <PUBCHEM_COMPONENT_COUNT>  (1) 
1

>  <PUBCHEM_CACTVS_TAUTO_COUNT>  (1) 
1

>  <PUBCHEM_CONFORMER_ID>  (1) 
00007B7000000001

>  <PUBCHEM_MMFF94_ENERGY>  (1) 
34.856

>  <PUBCHEM_FEATURE_SELFOVERLAP>  (1) 
40.688

>  <PUBCHEM_SHAPE_FINGERPRINT>  (1) 
10411042 1 18193833735396680122
10937287 8 17833552670965676796
12107183 9 17910964535171023873
12403259 327 16951113101597930120
12616971 3 18272656697736896547
12633257 1 17822838905289261992
13583140 156 18261114106062243055
138480 1 18337673010182470400
14251764 75 17977682118739520721
14790565 3 18119539970867948804
15081414 286 18408609145083152772
15420108 30 18271513312928657362
17818456 19 17558842680632443441
17844677 252 18340216194047948595
19377110 9 18059863896171845291
20157964 124 18409721885864153159
21033648 29 17312818261072281543
21860390 5 18341621394818226647
23559900 14 18408885139850607059
23845131 108 18117831325060065386
24771293 8 18272643542315443994
268830 7 18339924819087191963
328310 1195 18116128066185306629
474 4 18338795727471047987
5283268 108 18263928735305897992
8272917 22 18412268319827890178

>  <PUBCHEM_SHAPE_MULTIPOLES>  (1) 
453.47
11.65
5.12
1.18
22.3
1.62
0.02
2.01
-0.95
-7.39
0.48
2
0.12
-1.7

>  <PUBCHEM_SHAPE_SELFOVERLAP>  (1) 
929.527

>  <PUBCHEM_SHAPE_VOLUME>  (1) 
266.8

>  <PUBCHEM_COORDINATE_TYPE>  (1) 
2
5
10

$$$$
