31615
     RDKit          3D

 13 12  0  0  1  0  0  0  0  0999 V2000
   -2.3808    0.7142    1.4162 F   0  0  0  0  0  0  0  0  0  0  0  0
   -2.1058    1.3618   -0.6458 F   0  0  0  0  0  0  0  0  0  0  0  0
   -3.5173   -0.2384   -0.1854 F   0  0  0  0  0  0  0  0  0  0  0  0
    0.0270   -0.1251    0.3751 O   0  0  0  0  0  0  0  0  0  0  0  0
    1.1434   -2.1378    0.4534 O   0  0  0  0  0  0  0  0  0  0  0  0
    2.1920    2.4762   -0.2370 N   0  0  0  0  0  0  0  0  0  0  0  0
   -1.2028   -0.7328   -0.0345 C   0  0  0  0  0  0  0  0  0  0  0  0
   -2.3140    0.2808    0.1381 C   0  0  0  0  0  0  0  0  0  0  0  0
   -1.0766   -1.1971   -1.4777 C   0  0  0  0  0  0  0  0  0  0  0  0
    1.1287   -0.9232    0.3124 C   0  0  0  0  0  0  0  0  0  0  0  0
    2.3334   -0.0896    0.0442 C   0  0  0  0  0  0  0  0  0  0  0  0
    3.5163   -0.7133   -0.0474 C   0  0  0  0  0  0  0  0  0  0  0  0
    2.2565    1.3243   -0.1115 C   0  0  0  0  0  0  0  0  0  0  0  0
  1  8  1  0
  2  8  1  0
  3  8  1  0
  4  7  1  0
  4 10  1  0
  5 10  2  0
  6 13  3  0
  7  8  1  0
  7  9  1  0
 10 11  1  0
 11 12  2  0
 11 13  1  0
M  END
>  <PUBCHEM_COMPOUND_CID>  (1) 
31615

>  <PUBCHEM_CONFORMER_RMSD>  (1) 
0.6

>  <PUBCHEM_CONFORMER_DIVERSEORDER>  (1) 
1
48
14
49
30
40
39
50
23
29
35
5
34
18
37
21
25
17
41
28
26
15
27
38
3
42
53
11
36
9
20
22
24
32
6
16
10
19
51
2
46
31
44
4
12
8
13
7
45
52
54
47
33
43

>  <PUBCHEM_MMFF94_PARTIAL_CHARGES>  (1) 
14
1 -0.34
10 0.71
11 0.08
12 -0.3
13 0.49
18 0.15
19 0.15
2 -0.34
3 -0.34
4 -0.43
5 -0.57
6 -0.56
7 0.28
8 1.02

>  <PUBCHEM_EFFECTIVE_ROTOR_COUNT>  (1) 
4

>  <PUBCHEM_PHARMACOPHORE_FEATURES>  (1) 
3
1 12 hydrophobe
1 5 acceptor
1 6 acceptor

>  <PUBCHEM_HEAVY_ATOM_COUNT>  (1) 
13

>  <PUBCHEM_ATOM_DEF_STEREO_COUNT>  (1) 
0

>  <PUBCHEM_ATOM_UDEF_STEREO_COUNT>  (1) 
1

>  <PUBCHEM_BOND_DEF_STEREO_COUNT>  (1) 
0

>  <PUBCHEM_BOND_UDEF_STEREO_COUNT>  (1) 
0

>  <PUBCHEM_ISOTOPIC_ATOM_COUNT>  (1) 
0

>  <PUBCHEM_COMPONENT_COUNT>  (1) 
1

>  <PUBCHEM_CACTVS_TAUTO_COUNT>  (1) 
1

>  <PUBCHEM_CONFORMER_ID>  (1) 
00007B7F00000001

>  <PUBCHEM_MMFF94_ENERGY>  (1) 
20.8707

>  <PUBCHEM_FEATURE_SELFOVERLAP>  (1) 
15.223

>  <PUBCHEM_SHAPE_FINGERPRINT>  (1) 
10857977 72 15936416658174320843
12932764 1 17168130265565792554
15775835 57 18341336707279961116
16945 1 18336550425742356570
17357990 137 17844832328910764464
19973954 147 18264489653697563916
20653085 51 18271538579709257866
20671657 1 18264214776123299820
20711985 344 13612593296931395610
21028194 46 18260832621962198282
21524375 3 18267021854914960400
23552423 10 18341039804754323406
23557571 272 16628828715698396938
25610 171 15358237356190411046
5084963 1 18343298171483028195
549884 4 18201161056692514760
63268167 104 18411702101609896584
81228 2 16809556601687273202
9939556 21 18202280346670874422

>  <PUBCHEM_SHAPE_MULTIPOLES>  (1) 
228.99
5.14
1.88
0.94
0.41
0.56
0.1
0.88
-0.06
-1.11
0.16
0.5
-0.11
-0.5

>  <PUBCHEM_SHAPE_SELFOVERLAP>  (1) 
456.876

>  <PUBCHEM_SHAPE_VOLUME>  (1) 
135.6

>  <PUBCHEM_COORDINATE_TYPE>  (1) 
2
5
10

$$$$
