31612
     RDKit          3D

  6  5  0  0  0  0  0  0  0  0999 V2000
    2.9978   -0.0003    0.2270 Cl  0  0  0  0  0  0  0  0  0  0  0  0
   -1.0740   -0.0001   -0.3055 C   0  0  0  0  0  0  0  0  0  0  0  0
   -1.8317    1.2561    0.1234 C   0  0  0  0  0  0  0  0  0  0  0  0
   -1.8307   -1.2567    0.1231 C   0  0  0  0  0  0  0  0  0  0  0  0
    0.3127    0.0003    0.2855 C   0  0  0  0  0  0  0  0  0  0  0  0
    1.4259    0.0006   -0.4535 C   0  0  0  0  0  0  0  0  0  0  0  0
  1  6  1  0
  2  3  1  0
  2  4  1  0
  2  5  1  0
  5  6  2  0
M  END
>  <PUBCHEM_COMPOUND_CID>  (1) 
31612

>  <PUBCHEM_CONFORMER_RMSD>  (1) 
0.4

>  <PUBCHEM_CONFORMER_DIVERSEORDER>  (1) 
1

>  <PUBCHEM_MMFF94_PARTIAL_CHARGES>  (1) 
6
1 -0.14
14 0.15
15 0.15
2 0.14
5 -0.29
6 -0.01

>  <PUBCHEM_EFFECTIVE_ROTOR_COUNT>  (1) 
1

>  <PUBCHEM_PHARMACOPHORE_FEATURES>  (1) 
1
3 2 3 4 hydrophobe

>  <PUBCHEM_HEAVY_ATOM_COUNT>  (1) 
6

>  <PUBCHEM_ATOM_DEF_STEREO_COUNT>  (1) 
0

>  <PUBCHEM_ATOM_UDEF_STEREO_COUNT>  (1) 
0

>  <PUBCHEM_BOND_DEF_STEREO_COUNT>  (1) 
0

>  <PUBCHEM_BOND_UDEF_STEREO_COUNT>  (1) 
1

>  <PUBCHEM_ISOTOPIC_ATOM_COUNT>  (1) 
0

>  <PUBCHEM_COMPONENT_COUNT>  (1) 
1

>  <PUBCHEM_CACTVS_TAUTO_COUNT>  (1) 
1

>  <PUBCHEM_CONFORMER_ID>  (1) 
00007B7C00000001

>  <PUBCHEM_MMFF94_ENERGY>  (1) 
2.0959

>  <PUBCHEM_FEATURE_SELFOVERLAP>  (1) 
5.074

>  <PUBCHEM_SHAPE_FINGERPRINT>  (1) 
12932741 1 17846785091895295964
14390081 3 18131345289543570408
16714656 1 18410577279692060581
20096714 4 18263366901796176893
21040471 1 18266464191749853821
23552423 10 18187651275744019638
23552449 1 18413388752125183945
24536 1 18411693288030783764
29004967 10 17203617003346819170
5460574 1 9007063465418952070

>  <PUBCHEM_SHAPE_MULTIPOLES>  (1) 
125.35
3.87
1.14
0.7
2.71
0
0.01
0
-0.28
-0.95
-0.07
0.07
0
0

>  <PUBCHEM_SHAPE_SELFOVERLAP>  (1) 
213.106

>  <PUBCHEM_SHAPE_VOLUME>  (1) 
84.3

>  <PUBCHEM_COORDINATE_TYPE>  (1) 
2
5
10

$$$$
