31627
     RDKit          3D

 16 18  0  0  0  0  0  0  0  0999 V2000
   -0.4199    1.5994   -0.0002 N   0  0  0  0  0  0  0  0  0  0  0  0
   -0.1337   -2.5823   -0.0013 N   0  0  0  0  0  0  0  0  0  0  0  0
    0.9342   -0.3894    0.0000 C   0  0  0  0  0  0  0  0  0  0  0  0
   -0.2301   -1.1642    0.0002 C   0  0  0  0  0  0  0  0  0  0  0  0
   -1.4894   -0.5558    0.0002 C   0  0  0  0  0  0  0  0  0  0  0  0
    0.7906    1.0083   -0.0002 C   0  0  0  0  0  0  0  0  0  0  0  0
   -1.5381    0.8484   -0.0001 C   0  0  0  0  0  0  0  0  0  0  0  0
    2.2126   -0.9741    0.0002 C   0  0  0  0  0  0  0  0  0  0  0  0
    3.3521   -0.1750    0.0000 C   0  0  0  0  0  0  0  0  0  0  0  0
    1.9461    1.7852   -0.0003 C   0  0  0  0  0  0  0  0  0  0  0  0
   -2.6759   -1.3099    0.0004 C   0  0  0  0  0  0  0  0  0  0  0  0
    3.2180    1.2074   -0.0002 C   0  0  0  0  0  0  0  0  0  0  0  0
   -2.7890    1.4600   -0.0001 C   0  0  0  0  0  0  0  0  0  0  0  0
   -3.9138   -0.6741    0.0004 C   0  0  0  0  0  0  0  0  0  0  0  0
    4.7065   -0.7975    0.0007 C   0  0  0  0  0  0  0  0  0  0  0  0
   -3.9701    0.7138    0.0001 C   0  0  0  0  0  0  0  0  0  0  0  0
  1  6  2  0
  1  7  1  0
  2  4  1  0
  3  4  2  0
  3  6  1  0
  3  8  1  0
  4  5  1  0
  5  7  2  0
  5 11  1  0
  6 10  1  0
  7 13  1  0
  8  9  2  0
  9 12  1  0
  9 15  1  0
 10 12  2  0
 11 14  2  0
 13 16  2  0
 14 16  1  0
M  END
>  <PUBCHEM_COMPOUND_CID>  (1) 
31627

>  <PUBCHEM_CONFORMER_RMSD>  (1) 
0.4

>  <PUBCHEM_CONFORMER_DIVERSEORDER>  (1) 
1

>  <PUBCHEM_MMFF94_PARTIAL_CHARGES>  (1) 
23
1 -0.62
10 -0.15
11 -0.15
12 -0.15
13 -0.15
14 -0.15
15 0.14
16 -0.15
17 0.15
18 0.15
19 0.15
2 -0.9
20 0.15
21 0.15
22 0.15
26 0.4
27 0.4
28 0.15
4 0.1
6 0.31
7 0.31
8 -0.15
9 -0.14

>  <PUBCHEM_EFFECTIVE_ROTOR_COUNT>  (1) 
0

>  <PUBCHEM_PHARMACOPHORE_FEATURES>  (1) 
6
1 1 acceptor
1 2 cation
1 2 donor
6 1 3 4 5 6 7 rings
6 3 6 8 9 10 12 rings
6 5 7 11 13 14 16 rings

>  <PUBCHEM_HEAVY_ATOM_COUNT>  (1) 
16

>  <PUBCHEM_ATOM_DEF_STEREO_COUNT>  (1) 
0

>  <PUBCHEM_ATOM_UDEF_STEREO_COUNT>  (1) 
0

>  <PUBCHEM_BOND_DEF_STEREO_COUNT>  (1) 
0

>  <PUBCHEM_BOND_UDEF_STEREO_COUNT>  (1) 
0

>  <PUBCHEM_ISOTOPIC_ATOM_COUNT>  (1) 
0

>  <PUBCHEM_COMPONENT_COUNT>  (1) 
1

>  <PUBCHEM_CACTVS_TAUTO_COUNT>  (1) 
2

>  <PUBCHEM_CONFORMER_ID>  (1) 
00007B8B00000001

>  <PUBCHEM_MMFF94_ENERGY>  (1) 
67.2246

>  <PUBCHEM_FEATURE_SELFOVERLAP>  (1) 
30.507

>  <PUBCHEM_SHAPE_FINGERPRINT>  (1) 
10062212 137 18411973655027550019
10411042 1 15600329313365443936
10608611 8 18411133666677432457
10967382 1 18410573955097275047
11132069 177 18412820287428155128
11471102 20 18410569604353530572
12032990 46 18410015454735201707
12403259 226 18411411847583110105
13140716 1 18411142450106897865
13221675 6 18410009935702330274
13288520 33 18340489976469076534
13380535 76 18411138021837483167
13690532 89 18409729539168501866
13862211 1 18410568474814457574
14115302 16 18041009457318606726
14144814 61 18410292523059752952
14325111 11 18410574006721538465
15196674 1 18410856589704651589
15309172 13 18411990156418359115
15442244 35 18410573994100185824
15536298 74 18342455976057816552
16945 1 18410855464423129094
17802600 8 18410569591415939493
17804303 29 18411704287595119924
18186145 218 18408318882513346132
18522853 276 18342174466642207400
193761 8 17689998933856912237
19591789 44 18410293639804484539
200 152 17988636407036059029
20510252 161 18272653458556244905
20645476 183 17824562965296901046
21267235 1 18410583889420200563
21501502 16 18267584787403637052
221490 88 18263651821436716978
2334 1 18338517546623470509
23402539 116 18271798021319007086
23402655 69 18341326721728891917
23463225 33 18408040706155869180
23559900 14 18343863325667282360
2748010 2 18410011065463410501
335352 9 18338517430558964765
43471831 8 18263078825507954274
474 4 16879639408665099764
5104073 3 18411138069013266776
528886 8 18411132528505350217
53812653 166 18413386518752427896
54173680 148 18120657082891505651
69090 78 18343015622801572679
7364860 26 18196935465750240847
8809292 202 18261396680012141347
9709674 26 18340492261033339150
9981440 41 17325769674597864256

>  <PUBCHEM_SHAPE_MULTIPOLES>  (1) 
319.31
7.36
2
0.61
1.4
0.25
0
0.17
0
-0.05
0
0
-0.01
0

>  <PUBCHEM_SHAPE_SELFOVERLAP>  (1) 
721.439

>  <PUBCHEM_SHAPE_VOLUME>  (1) 
167.6

>  <PUBCHEM_COORDINATE_TYPE>  (1) 
2
5
10

$$$$
