31623
     RDKit          3D

 16 18  0  0  0  0  0  0  0  0999 V2000
   -0.3366    1.6868    0.0001 N   0  0  0  0  0  0  0  0  0  0  0  0
    0.0554   -2.4857   -0.0002 N   0  0  0  0  0  0  0  0  0  0  0  0
    2.6678   -2.1780    0.0005 N   0  0  0  0  0  0  0  0  0  0  0  0
    1.0882   -0.2519   -0.0002 C   0  0  0  0  0  0  0  0  0  0  0  0
   -0.0474   -1.0681   -0.0001 C   0  0  0  0  0  0  0  0  0  0  0  0
   -1.3278   -0.5055   -0.0001 C   0  0  0  0  0  0  0  0  0  0  0  0
    0.8943    1.1398   -0.0001 C   0  0  0  0  0  0  0  0  0  0  0  0
   -1.4271    0.8960    0.0000 C   0  0  0  0  0  0  0  0  0  0  0  0
    2.3869   -0.7901   -0.0001 C   0  0  0  0  0  0  0  0  0  0  0  0
    2.0211    1.9578    0.0000 C   0  0  0  0  0  0  0  0  0  0  0  0
   -2.4863   -1.3019    0.0000 C   0  0  0  0  0  0  0  0  0  0  0  0
   -2.6992    1.4621    0.0001 C   0  0  0  0  0  0  0  0  0  0  0  0
    3.4968    0.0495   -0.0001 C   0  0  0  0  0  0  0  0  0  0  0  0
    3.3130    1.4263    0.0000 C   0  0  0  0  0  0  0  0  0  0  0  0
   -3.7464   -0.7111    0.0000 C   0  0  0  0  0  0  0  0  0  0  0  0
   -3.8527    0.6738    0.0001 C   0  0  0  0  0  0  0  0  0  0  0  0
  1  7  2  0
  1  8  1  0
  2  5  1  0
  3  9  1  0
  4  5  2  0
  4  7  1  0
  4  9  1  0
  5  6  1  0
  6  8  2  0
  6 11  1  0
  7 10  1  0
  8 12  1  0
  9 13  2  0
 10 14  2  0
 11 15  2  0
 12 16  2  0
 13 14  1  0
 15 16  1  0
M  END
>  <PUBCHEM_COMPOUND_CID>  (1) 
31623

>  <PUBCHEM_CONFORMER_RMSD>  (1) 
0.4

>  <PUBCHEM_CONFORMER_DIVERSEORDER>  (1) 
1

>  <PUBCHEM_MMFF94_PARTIAL_CHARGES>  (1) 
25
1 -0.62
10 -0.15
11 -0.15
12 -0.15
13 -0.15
14 -0.15
15 -0.15
16 -0.15
17 0.15
18 0.15
19 0.15
2 -0.9
20 0.15
21 0.15
22 0.15
23 0.4
24 0.4
25 0.15
26 0.4
27 0.4
3 -0.9
5 0.1
7 0.31
8 0.31
9 0.1

>  <PUBCHEM_EFFECTIVE_ROTOR_COUNT>  (1) 
0

>  <PUBCHEM_PHARMACOPHORE_FEATURES>  (1) 
8
1 1 acceptor
1 2 cation
1 2 donor
1 3 cation
1 3 donor
6 1 4 5 6 7 8 rings
6 4 7 9 10 13 14 rings
6 6 8 11 12 15 16 rings

>  <PUBCHEM_HEAVY_ATOM_COUNT>  (1) 
16

>  <PUBCHEM_ATOM_DEF_STEREO_COUNT>  (1) 
0

>  <PUBCHEM_ATOM_UDEF_STEREO_COUNT>  (1) 
0

>  <PUBCHEM_BOND_DEF_STEREO_COUNT>  (1) 
0

>  <PUBCHEM_BOND_UDEF_STEREO_COUNT>  (1) 
0

>  <PUBCHEM_ISOTOPIC_ATOM_COUNT>  (1) 
0

>  <PUBCHEM_COMPONENT_COUNT>  (1) 
1

>  <PUBCHEM_CACTVS_TAUTO_COUNT>  (1) 
13

>  <PUBCHEM_CONFORMER_ID>  (1) 
00007B8700000001

>  <PUBCHEM_MMFF94_ENERGY>  (1) 
86.5372

>  <PUBCHEM_FEATURE_SELFOVERLAP>  (1) 
40.676

>  <PUBCHEM_SHAPE_FINGERPRINT>  (1) 
10411042 1 15960897994111920679
10608611 8 18409444778336484229
10967382 1 18410575097553255558
10980938 120 18410293631424968378
11132069 177 18411412921161014145
11471102 20 18410569578546738589
13140716 1 18338798905498739169
13221675 6 18411136960874682743
13380535 76 18337952402073603818
13897977 150 18410290311299340461
14144814 61 18410573993815362329
14325111 11 18410855473166317313
14576447 43 17913473912637154511
14790565 3 15749531181322941328
15196674 1 18410855473034208165
15219456 202 18408886226555817253
15309172 13 18412271661449213379
15442244 35 18267585702120888312
15536298 74 18343021086284647292
15775835 57 18412268358445334685
16945 1 18194402422845367620
18186145 218 18341900666455563005
193761 8 17834394518846398148
200 152 18131059459986752581
20510252 161 18272654579674616921
20645477 70 18411695453148163655
21267235 1 18411146835025926543
21501502 16 18411136926536056361
221490 88 18408895031054580082
2334 1 18410855485913809317
23402539 116 18270671073455987972
23402655 69 18341607105884149197
23463225 33 18409166588814199380
23559900 14 18342737399911384654
238 59 15948472507000224693
2748010 2 18409730664049058877
335352 9 18050285873428461629
5104073 3 18410575089026657953
528886 8 18411414024935850313
53812653 166 18342735256100595288
63268167 104 18413111653777917113
69090 78 18342453785513595951
7364860 26 18342176644338280390
8809292 202 18260836985833853963
9709674 26 18410579517085691870

>  <PUBCHEM_SHAPE_MULTIPOLES>  (1) 
314.33
6.27
2.25
0.6
1.49
0.52
0
-0.64
0
-0.73
0
0.01
-0.02
0

>  <PUBCHEM_SHAPE_SELFOVERLAP>  (1) 
715.163

>  <PUBCHEM_SHAPE_VOLUME>  (1) 
160.6

>  <PUBCHEM_COORDINATE_TYPE>  (1) 
2
5
10

$$$$
