31632
     RDKit          3D

 16 18  0  0  0  0  0  0  0  0999 V2000
   -0.4093   -1.1889    0.0004 N   0  0  0  0  0  0  0  0  0  0  0  0
    4.6864    1.0116   -0.0010 N   0  0  0  0  0  0  0  0  0  0  0  0
    0.8280   -0.6585    0.0004 C   0  0  0  0  0  0  0  0  0  0  0  0
   -1.5373   -0.4543    0.0003 C   0  0  0  0  0  0  0  0  0  0  0  0
    0.9777    0.7432    0.0008 C   0  0  0  0  0  0  0  0  0  0  0  0
   -1.4445    0.9524    0.0005 C   0  0  0  0  0  0  0  0  0  0  0  0
   -0.1736    1.5404    0.0010 C   0  0  0  0  0  0  0  0  0  0  0  0
    1.9537   -1.4894    0.0000 C   0  0  0  0  0  0  0  0  0  0  0  0
    2.2722    1.2874    0.0003 C   0  0  0  0  0  0  0  0  0  0  0  0
   -0.5365   -2.6620    0.0006 C   0  0  0  0  0  0  0  0  0  0  0  0
   -2.7889   -1.0797   -0.0003 C   0  0  0  0  0  0  0  0  0  0  0  0
   -2.6264    1.7104    0.0001 C   0  0  0  0  0  0  0  0  0  0  0  0
    3.3912    0.4523   -0.0005 C   0  0  0  0  0  0  0  0  0  0  0  0
    3.2320   -0.9325   -0.0006 C   0  0  0  0  0  0  0  0  0  0  0  0
   -3.9527   -0.3119   -0.0011 C   0  0  0  0  0  0  0  0  0  0  0  0
   -3.8720    1.0795   -0.0008 C   0  0  0  0  0  0  0  0  0  0  0  0
  1  3  2  0
  1  4  1  0
  1 10  1  0
  2 13  1  0
  3  5  1  0
  3  8  1  0
  4  6  2  0
  4 11  1  0
  5  7  2  0
  5  9  1  0
  6  7  1  0
  6 12  1  0
  8 14  2  0
  9 13  2  0
 11 15  2  0
 12 16  2  0
 13 14  1  0
 15 16  1  0
M  CHG  1   1   1
M  END
>  <PUBCHEM_COMPOUND_CID>  (1) 
31632

>  <PUBCHEM_CONFORMER_RMSD>  (1) 
0.4

>  <PUBCHEM_CONFORMER_DIVERSEORDER>  (1) 
1

>  <PUBCHEM_MMFF94_PARTIAL_CHARGES>  (1) 
24
1 -0.21
10 0.49
11 -0.15
12 -0.15
13 0.1
14 -0.15
15 -0.15
16 -0.15
17 0.15
18 0.15
19 0.15
2 -0.9
23 0.15
24 0.15
25 0.15
26 0.15
27 0.15
28 0.4
29 0.4
3 0.36
4 0.36
7 -0.15
8 -0.15
9 -0.15

>  <PUBCHEM_EFFECTIVE_ROTOR_COUNT>  (1) 
0

>  <PUBCHEM_PHARMACOPHORE_FEATURES>  (1) 
5
1 2 cation
1 2 donor
6 1 3 4 5 6 7 rings
6 3 5 8 9 13 14 rings
6 4 6 11 12 15 16 rings

>  <PUBCHEM_HEAVY_ATOM_COUNT>  (1) 
16

>  <PUBCHEM_ATOM_DEF_STEREO_COUNT>  (1) 
0

>  <PUBCHEM_ATOM_UDEF_STEREO_COUNT>  (1) 
0

>  <PUBCHEM_BOND_DEF_STEREO_COUNT>  (1) 
0

>  <PUBCHEM_BOND_UDEF_STEREO_COUNT>  (1) 
0

>  <PUBCHEM_ISOTOPIC_ATOM_COUNT>  (1) 
0

>  <PUBCHEM_COMPONENT_COUNT>  (1) 
1

>  <PUBCHEM_CACTVS_TAUTO_COUNT>  (1) 
1

>  <PUBCHEM_CONFORMER_ID>  (1) 
00007B9000000001

>  <PUBCHEM_MMFF94_ENERGY>  (1) 
77.6959

>  <PUBCHEM_FEATURE_SELFOVERLAP>  (1) 
25.431

>  <PUBCHEM_SHAPE_FINGERPRINT>  (1) 
10411042 1 16897646291203618974
10608611 8 18410853239656846285
10967382 1 18410575054603615079
11132069 177 18411695474169169841
11471102 20 18410851036327716804
11543360 7 15769482218407504052
11806522 49 18411133680078948383
12403814 3 17603579750907465125
13140716 1 18193841448603231179
13221675 6 18410574002384171806
13380535 76 18411700997666144862
14144814 61 18410012117529814521
14325111 11 18410856533912391681
14897335 6 18411135844499716390
15196674 1 18410856538175522087
15219456 202 18412547578479676079
15309172 13 18411708668577767643
15442244 35 18122624955338603306
15536298 74 18342458106324535694
15775835 57 18410577270822642049
16945 1 18266459991081784807
18186145 218 18340492153426710412
193761 8 17834113430574902245
200 152 18131060546539716341
20510252 161 18272373048747195889
20645476 183 17896620529159372534
20645477 70 18269552754240607167
21267235 1 18410583885056667982
21501502 16 18338515244378399731
2334 1 18410855447285464417
23402539 116 18342448274769777628
23402655 69 18342732979984232277
23463225 33 18335983081963401940
23559900 14 18343865498941787646
2748010 2 18410576145625535199
335352 9 17978228257741500471
34934 24 18410004442423243459
43471831 8 18335136440978397219
474 4 17024318629026109484
4990 188 18060148609131527348
5104073 3 18410575058914388122
528886 8 18411132519915422123
53812653 166 18342453751037936584
54173680 148 18120938575063831779
69090 78 18413385449353154247
7364860 26 18125159338056864974
8809292 202 18260835907902564227
9709674 26 18412269458073351462

>  <PUBCHEM_SHAPE_MULTIPOLES>  (1) 
319.31
7.01
2.13
0.61
1.45
0.78
0
-1.83
0
-0.23
0
-0.02
0
0

>  <PUBCHEM_SHAPE_SELFOVERLAP>  (1) 
719.696

>  <PUBCHEM_SHAPE_VOLUME>  (1) 
169

>  <PUBCHEM_COORDINATE_TYPE>  (1) 
2
5
10

$$$$
