3163
     RDKit          3D

 38 42  0  0  1  0  0  0  0  0999 V2000
   -5.8894   -0.9871    0.3841 O   0  0  0  0  0  0  0  0  0  0  0  0
   -6.1373    2.5477   -0.0070 O   0  0  0  0  0  0  0  0  0  0  0  0
   -8.1506    0.8796   -1.6829 O   0  0  0  0  0  0  0  0  0  0  0  0
   -7.7146   -3.1308    0.1497 O   0  0  0  0  0  0  0  0  0  0  0  0
    4.6573   -2.4691    2.8956 O   0  0  0  0  0  0  0  0  0  0  0  0
    3.2643   -4.1928   -1.3322 O   0  0  0  0  0  0  0  0  0  0  0  0
   -3.8733    0.2277    0.1468 N   0  0  0  0  0  0  0  0  0  0  0  0
   -1.9908   -0.4993   -0.8007 N   0  0  0  0  0  0  0  0  0  0  0  0
   -2.9728    1.9705    1.5793 N   0  0  0  0  0  0  0  0  0  0  0  0
    0.7059    0.7274   -0.1167 N   0  0  0  0  0  0  0  0  0  0  0  0
   -0.5485    2.1384    1.3539 N   0  0  0  0  0  0  0  0  0  0  0  0
   -6.0738    1.2216   -0.5014 C   0  0  0  0  0  0  0  0  0  0  0  0
   -5.2984    0.3249    0.4554 C   0  0  0  0  0  0  0  0  0  0  0  0
   -7.4359    0.5628   -0.5036 C   0  0  0  0  0  0  0  0  0  0  0  0
   -7.0639   -0.9095   -0.4417 C   0  0  0  0  0  0  0  0  0  0  0  0
   -8.1566   -1.7832    0.1478 C   0  0  0  0  0  0  0  0  0  0  0  0
   -2.8671    0.9858    0.6744 C   0  0  0  0  0  0  0  0  0  0  0  0
   -3.2972   -0.6500   -0.7330 C   0  0  0  0  0  0  0  0  0  0  0  0
   -1.7085    0.5198    0.0738 C   0  0  0  0  0  0  0  0  0  0  0  0
    3.1093    0.6606   -0.5651 C   0  0  0  0  0  0  0  0  0  0  0  0
   -0.5169    1.1354    0.4436 C   0  0  0  0  0  0  0  0  0  0  0  0
    1.9616    1.3257    0.2274 C   0  0  0  0  0  0  0  0  0  0  0  0
    4.3750    1.5089   -0.6236 C   0  0  0  0  0  0  0  0  0  0  0  0
    3.4111   -0.7557   -0.0872 C   0  0  0  0  0  0  0  0  0  0  0  0
   -1.7566    2.4885    1.8578 C   0  0  0  0  0  0  0  0  0  0  0  0
    5.1871    1.5090   -1.7578 C   0  0  0  0  0  0  0  0  0  0  0  0
    4.7166    2.2926    0.4787 C   0  0  0  0  0  0  0  0  0  0  0  0
    3.1966   -1.8396   -0.9384 C   0  0  0  0  0  0  0  0  0  0  0  0
    3.9019   -0.9672    1.2012 C   0  0  0  0  0  0  0  0  0  0  0  0
    6.3405    2.2928   -1.7895 C   0  0  0  0  0  0  0  0  0  0  0  0
    4.8427    0.6776   -2.9498 C   0  0  0  0  0  0  0  0  0  0  0  0
    4.1780   -2.2627    1.6385 C   0  0  0  0  0  0  0  0  0  0  0  0
    3.4728   -3.1351   -0.5013 C   0  0  0  0  0  0  0  0  0  0  0  0
    5.8700    3.0763    0.4469 C   0  0  0  0  0  0  0  0  0  0  0  0
    6.6819    3.0764   -0.6871 C   0  0  0  0  0  0  0  0  0  0  0  0
    3.9635   -3.3468    0.7872 C   0  0  0  0  0  0  0  0  0  0  0  0
    4.8540   -1.3163    3.7130 C   0  0  0  0  0  0  0  0  0  0  0  0
    2.7621   -3.9048   -2.6362 C   0  0  0  0  0  0  0  0  0  0  0  0
  1 13  1  0
  1 15  1  0
  2 12  1  0
  3 14  1  0
  4 16  1  0
  5 32  1  0
  5 37  1  0
  6 33  1  0
  6 38  1  0
  7 13  1  0
  7 17  1  0
  7 18  1  0
  8 18  2  0
  8 19  1  0
  9 17  1  0
  9 25  2  0
 10 21  1  0
 10 22  1  0
 11 21  2  0
 11 25  1  0
 12 13  1  0
 12 14  1  0
 14 15  1  0
 15 16  1  0
 17 19  2  0
 19 21  1  0
 20 22  1  0
 20 23  1  0
 20 24  1  0
 23 26  2  0
 23 27  1  0
 24 28  2  0
 24 29  1  0
 26 30  1  0
 26 31  1  0
 27 34  2  0
 28 33  1  0
 29 32  2  0
 30 35  2  0
 32 36  1  0
 33 36  2  0
 34 35  1  0
M  END
>  <PUBCHEM_COMPOUND_CID>  (1) 
3163

>  <PUBCHEM_CONFORMER_RMSD>  (1) 
1.2

>  <PUBCHEM_CONFORMER_DIVERSEORDER>  (1) 
2
186
216
309
103
303
15
351
26
346
314
74
355
232
184
320
218
156
321
9
107
204
164
262
342
229
151
172
81
242
148
7
282
193
249
89
209
196
285
142
266
210
159
264
257
109
179
104
279
299
185
201
29
329
42
138
359
54
310
289
221
284
24
308
353
101
341
93
100
337
128
290
14
79
368
19
114
325
69
168
361
189
277
155
213
143
43
195
58
219
40
118
293
117
268
60
283
198
357
18
75
73
228
273
223
167
311
220
70
85
301
34
243
194
354
76
55
177
140
197
305
348
208
178
281
116
364
366
57
241
330
67
72
200
39
123
17
306
350
323
31
233
240
162
11
297
206
343
253
251
126
149
145
33
312
111
270
372
345
300
347
256
298
16
263
203
227
265
46
287
131
295
327
250
255
158
169
302
65
288
144
352
92
30
134
84
50
181
338
56
245
271
371
130
21
226
212
202
278
102
64
163
349
369
267
150
12
45
121
339
122
375
147
234
199
373
113
80
133
152
125
120
230
316
324
47
239
344
362
66
222
146
356
334
294
53
98
340
326
38
59
335
192
37
318
61
153
332
28
137
88
173
272
319
274
360
333
246
225
48
44
231
328
224
191
82
157
1
77
63
367
161
214
374
154
187
86
52
166
292
176
170
331
105
259
165
322
10
135
136
235
291
68
280
260
174
304
83
51
119
261
363
211
141
132
275
269
336
3
171
175
317
25
129
296
315
27
238
207
252
215
237
182
183
307
313
108
90
127
95
160
91
20
180
13
112
248
124
358
188
23
217
6
190
32
365
247
62
276
244
71
370
94
286
22
115
106
8
4
96
139
5
254
258
99
35
110
205
87
97
236
41
49
36
78

>  <PUBCHEM_MMFF94_PARTIAL_CHARGES>  (1) 
51
1 -0.56
10 -0.87
11 -0.62
12 0.28
13 0.54
14 0.28
15 0.28
16 0.28
17 0.11
18 0.04
19 0.23
2 -0.68
20 0.29
21 0.41
22 0.37
23 -0.14
24 -0.14
25 0.47
26 -0.14
27 -0.15
28 -0.15
29 -0.15
3 -0.68
30 -0.15
31 0.14
32 0.08
33 0.08
34 -0.15
35 -0.15
36 -0.15
37 0.28
38 0.28
4 -0.68
45 0.4
46 0.4
47 0.15
5 -0.36
51 0.4
52 0.4
53 0.15
54 0.15
55 0.15
56 0.15
57 0.15
6 -0.36
61 0.15
62 0.15
63 0.15
7 0.05
8 -0.57
9 -0.57

>  <PUBCHEM_EFFECTIVE_ROTOR_COUNT>  (1) 
10

>  <PUBCHEM_PHARMACOPHORE_FEATURES>  (1) 
19
1 1 acceptor
1 10 cation
1 10 donor
1 2 acceptor
1 2 donor
1 3 acceptor
1 3 donor
1 4 acceptor
1 4 donor
1 5 acceptor
1 6 acceptor
3 7 8 18 cation
3 7 9 17 cation
3 9 11 25 cation
5 1 12 13 14 15 rings
5 7 8 17 18 19 rings
6 23 26 27 30 34 35 rings
6 24 28 29 32 33 36 rings
6 9 11 17 19 21 25 rings

>  <PUBCHEM_HEAVY_ATOM_COUNT>  (1) 
38

>  <PUBCHEM_ATOM_DEF_STEREO_COUNT>  (1) 
0

>  <PUBCHEM_ATOM_UDEF_STEREO_COUNT>  (1) 
5

>  <PUBCHEM_BOND_DEF_STEREO_COUNT>  (1) 
0

>  <PUBCHEM_BOND_UDEF_STEREO_COUNT>  (1) 
0

>  <PUBCHEM_ISOTOPIC_ATOM_COUNT>  (1) 
0

>  <PUBCHEM_COMPONENT_COUNT>  (1) 
1

>  <PUBCHEM_CACTVS_TAUTO_COUNT>  (1) 
3

>  <PUBCHEM_CONFORMER_ID>  (1) 
00000C5B00000002

>  <PUBCHEM_MMFF94_ENERGY>  (1) 
123.872

>  <PUBCHEM_FEATURE_SELFOVERLAP>  (1) 
97.036

>  <PUBCHEM_SHAPE_FINGERPRINT>  (1) 
10462385 53 18263944266456845339
10554248 39 18268419149573977125
11181472 205 18270407088378209193
11204353 107 18055352706440340267
11443803 9 18339363076504955224
11475781 23 16081089285966565249
12120059 20 17345179194527792751
12373685 5 17458617973216764059
13150687 139 18269853033712742300
13533116 47 18341614780647529697
1361 4 18409167732104194907
13692114 37 18341331189149247562
13782708 43 18114180818466303003
14118638 360 18334862723081829565
15001296 14 18337108952328116003
15183329 4 18341896277764215269
15484559 13 18041856133376247668
1577012 14 18342179943311462009
17134984 74 18339927111797712161
18365409 1 17982457289232569806
20721686 146 14129639830174209350
21049683 118 18124018290966324296
22149856 69 17988932141626245291
23559900 14 17771632252529585638
24771750 20 17755029927583205029
249057 3 8214152836765660240
3004659 81 18335984173117353106
404807 78 18120663684240357274
4073 2 17822578312459466123
4149490 64 17748825241347641722
57359948 33 17603581906975955405
9962374 69 18261668186807952346

>  <PUBCHEM_SHAPE_MULTIPOLES>  (1) 
721.9
22.97
4.48
2.36
45.05
3.47
0.84
-2.2
-4.5
-6.91
-0.49
-4.94
1.23
-2.32

>  <PUBCHEM_SHAPE_SELFOVERLAP>  (1) 
1569.029

>  <PUBCHEM_SHAPE_VOLUME>  (1) 
390

>  <PUBCHEM_COORDINATE_TYPE>  (1) 
2
5
10

$$$$
