31643
     RDKit          3D

  9  8  0  0  0  0  0  0  0  0999 V2000
   -1.2899    0.3666    0.0108 C   0  0  0  0  0  0  0  0  0  0  0  0
   -1.7351   -0.9823    0.6302 C   0  0  0  0  0  0  0  0  0  0  0  0
   -1.8301    1.5099    0.8907 C   0  0  0  0  0  0  0  0  0  0  0  0
   -1.8370    0.5419   -1.4145 C   0  0  0  0  0  0  0  0  0  0  0  0
   -1.2181   -2.2315   -0.0775 C   0  0  0  0  0  0  0  0  0  0  0  0
    0.1890    0.4543   -0.0172 C   0  0  0  0  0  0  0  0  0  0  0  0
    1.3883    0.5210   -0.0399 C   0  0  0  0  0  0  0  0  0  0  0  0
    2.8535    0.5979   -0.0685 C   0  0  0  0  0  0  0  0  0  0  0  0
    3.4793   -0.7778    0.0858 C   0  0  0  0  0  0  0  0  0  0  0  0
  1  2  1  0
  1  3  1  0
  1  4  1  0
  1  6  1  0
  2  5  1  0
  6  7  3  0
  7  8  1  0
  8  9  1  0
M  END
>  <PUBCHEM_COMPOUND_CID>  (1) 
31643

>  <PUBCHEM_CONFORMER_RMSD>  (1) 
0.4

>  <PUBCHEM_CONFORMER_DIVERSEORDER>  (1) 
1
3
2

>  <PUBCHEM_MMFF94_PARTIAL_CHARGES>  (1) 
4
1 0.2
6 -0.2
7 -0.2
8 0.2

>  <PUBCHEM_EFFECTIVE_ROTOR_COUNT>  (1) 
1

>  <PUBCHEM_PHARMACOPHORE_FEATURES>  (1) 
3
1 5 hydrophobe
1 9 hydrophobe
3 1 3 4 hydrophobe

>  <PUBCHEM_HEAVY_ATOM_COUNT>  (1) 
9

>  <PUBCHEM_ATOM_DEF_STEREO_COUNT>  (1) 
0

>  <PUBCHEM_ATOM_UDEF_STEREO_COUNT>  (1) 
0

>  <PUBCHEM_BOND_DEF_STEREO_COUNT>  (1) 
0

>  <PUBCHEM_BOND_UDEF_STEREO_COUNT>  (1) 
0

>  <PUBCHEM_ISOTOPIC_ATOM_COUNT>  (1) 
0

>  <PUBCHEM_COMPONENT_COUNT>  (1) 
1

>  <PUBCHEM_CACTVS_TAUTO_COUNT>  (1) 
1

>  <PUBCHEM_CONFORMER_ID>  (1) 
00007B9B00000001

>  <PUBCHEM_MMFF94_ENERGY>  (1) 
7.0464

>  <PUBCHEM_FEATURE_SELFOVERLAP>  (1) 
15.224

>  <PUBCHEM_SHAPE_FINGERPRINT>  (1) 
12716758 59 18337941350885335592
12932764 1 17676488341697739864
13024252 1 14634868652213812149
15310529 11 16660364740602245464
20653085 51 17530955869848028029
20871998 184 18129673018040901687
21524375 3 17557153800359696833
23552423 10 18114464586348511270
3248919 1 18342452643321391908
369184 2 14908183040463821764
5084963 1 18040718107879694928

>  <PUBCHEM_SHAPE_MULTIPOLES>  (1) 
185.22
4.52
1.74
0.97
5.17
0.94
0.21
0.26
-0.05
-1.01
-0.21
-0.64
-0.21
-0.06

>  <PUBCHEM_SHAPE_SELFOVERLAP>  (1) 
338.914

>  <PUBCHEM_SHAPE_VOLUME>  (1) 
120.2

>  <PUBCHEM_COORDINATE_TYPE>  (1) 
2
5
10

$$$$
