31646
     RDKit          3D

 22 23  0  0  1  0  0  0  0  0999 V2000
   -0.3781    0.5759    0.6143 O   0  0  0  0  0  0  0  0  0  0  0  0
   -3.8904    0.0275    0.9830 O   0  0  0  0  0  0  0  0  0  0  0  0
    1.3675   -1.7109   -0.9467 O   0  0  0  0  0  0  0  0  0  0  0  0
   -1.5758    0.4877   -1.8141 O   0  0  0  0  0  0  0  0  0  0  0  0
   -1.9402    1.3620    2.1075 O   0  0  0  0  0  0  0  0  0  0  0  0
    3.7613    0.1841   -0.2368 N   0  0  0  0  0  0  0  0  0  0  0  0
    2.5228   -0.0895    0.2642 C   0  0  0  0  0  0  0  0  0  0  0  0
    2.2227   -1.5308    0.1698 C   0  0  0  0  0  0  0  0  0  0  0  0
   -2.6442   -0.0938    0.2778 C   0  0  0  0  0  0  0  0  0  0  0  0
    3.6231   -2.1344   -0.1092 C   0  0  0  0  0  0  0  0  0  0  0  0
    4.4555   -0.9911   -0.7257 C   0  0  0  0  0  0  0  0  0  0  0  0
   -2.3013   -1.6139    0.2532 C   0  0  0  0  0  0  0  0  0  0  0  0
    1.9765    1.0887    0.6991 C   0  0  0  0  0  0  0  0  0  0  0  0
   -2.8279    0.5505   -1.1200 C   0  0  0  0  0  0  0  0  0  0  0  0
    4.0597    1.4952   -0.1475 C   0  0  0  0  0  0  0  0  0  0  0  0
    0.6470    1.2840    1.3182 C   0  0  0  0  0  0  0  0  0  0  0  0
    2.9553    2.0980    0.4355 C   0  0  0  0  0  0  0  0  0  0  0  0
   -1.6388    0.7018    1.1198 C   0  0  0  0  0  0  0  0  0  0  0  0
   -3.2473   -2.4734   -0.5904 C   0  0  0  0  0  0  0  0  0  0  0  0
   -2.1908   -2.2178    1.6632 C   0  0  0  0  0  0  0  0  0  0  0  0
   -3.2573    2.0153   -1.0801 C   0  0  0  0  0  0  0  0  0  0  0  0
   -1.6994    0.9849   -3.1351 C   0  0  0  0  0  0  0  0  0  0  0  0
  1 16  1  0
  1 18  1  0
  2  9  1  0
  3  8  1  0
  4 14  1  0
  4 22  1  0
  5 18  2  0
  6  7  1  0
  6 11  1  0
  6 15  1  0
  7  8  1  0
  7 13  2  0
  8 10  1  0
  9 12  1  0
  9 14  1  0
  9 18  1  0
 10 11  1  0
 12 19  1  0
 12 20  1  0
 13 16  1  0
 13 17  1  0
 14 21  1  0
 15 17  2  0
M  END
>  <PUBCHEM_COMPOUND_CID>  (1) 
31646

>  <PUBCHEM_CONFORMER_RMSD>  (1) 
1

>  <PUBCHEM_CONFORMER_DIVERSEORDER>  (1) 
1
617
382
354
603
193
562
15
436
475
289
299
363
20
154
586
503
72
444
140
570
379
485
221
340
495
291
120
247
197
550
391
280
648
472
459
94
451
8
566
36
284
169
404
557
253
145
372
191
490
561
492
7
35
616
13
131
638
163
126
6
184
517
110
103
548
208
128
53
292
306
139
488
559
22
659
504
594
29
118
462
367
316
194
65
542
591
327
278
509
640
149
319
177
449
553
34
377
216
232
298
91
270
39
235
513
267
333
82
429
150
54
256
271
567
153
405
33
28
104
321
418
113
551
355
246
220
152
167
16
195
384
151
146
496
346
502
596
5
348
512
48
593
241
249
507
96
352
324
4
283
59
301
213
552
116
276
30
57
192
182
109
186
505
155
40
18
574
102
183
14
78
62
69
67
476
274
314
342
441
12
609
46
9
443
142
257
160
454
199
10
3
214
66
200
156
11
47
663
25
56
286
527
81
76
107
511
68
161
272
37
215
129
26
331
24
114
83
98
42
89
127
97
294
119
100
64
649
189
422
345
23
75
358
31
652
361
205
305
187
188
17
269
239
147
510
41
242
582
210
578
2
95

>  <PUBCHEM_MMFF94_PARTIAL_CHARGES>  (1) 
21
1 -0.43
11 0.26
13 -0.18
14 0.28
15 -0.3
16 0.46
17 -0.15
18 0.66
2 -0.68
22 0.28
3 -0.68
30 0.15
33 0.15
4 -0.56
43 0.4
44 0.4
5 -0.57
6 0.05
7 -0.33
8 0.46
9 0.34

>  <PUBCHEM_EFFECTIVE_ROTOR_COUNT>  (1) 
7.6

>  <PUBCHEM_PHARMACOPHORE_FEATURES>  (1) 
10
1 2 acceptor
1 2 donor
1 3 acceptor
1 3 donor
1 4 acceptor
1 5 acceptor
1 6 cation
3 12 19 20 hydrophobe
5 6 7 13 15 17 rings
5 6 7 8 10 11 rings

>  <PUBCHEM_HEAVY_ATOM_COUNT>  (1) 
22

>  <PUBCHEM_ATOM_DEF_STEREO_COUNT>  (1) 
1

>  <PUBCHEM_ATOM_UDEF_STEREO_COUNT>  (1) 
2

>  <PUBCHEM_BOND_DEF_STEREO_COUNT>  (1) 
0

>  <PUBCHEM_BOND_UDEF_STEREO_COUNT>  (1) 
0

>  <PUBCHEM_ISOTOPIC_ATOM_COUNT>  (1) 
0

>  <PUBCHEM_COMPONENT_COUNT>  (1) 
1

>  <PUBCHEM_CACTVS_TAUTO_COUNT>  (1) 
1

>  <PUBCHEM_CONFORMER_ID>  (1) 
00007B9E00000001

>  <PUBCHEM_MMFF94_ENERGY>  (1) 
50.2239

>  <PUBCHEM_FEATURE_SELFOVERLAP>  (1) 
51.016

>  <PUBCHEM_SHAPE_FINGERPRINT>  (1) 
10498660 4 16298659508435398173
10616163 171 18131080358554102098
10764073 3 17832745333884891699
11759241 127 17823699861591103820
12173636 292 18115858625517366637
12553582 1 18125732184205461906
12633257 1 18339928108314962834
13224815 77 17561075925918150130
16752209 62 16343414004068330005
17357779 13 18120363526403912863
1813 80 17459195256156702219
18186145 218 18408608050261605314
19930381 70 17975413834556406501
20645477 70 18131355206744083774
21713013 43 18408323306514322854
21731516 1 16917058992728335464
21864079 5 14779551132391716284
221490 88 18340218474469932234
23557571 272 17677049165262535105
23559900 14 18341890745835503042
23598288 3 17417823819878583009
23728640 28 16773515469479451685
238 59 17984389053388787300
2871803 45 18338512074719370339
469060 322 17619037952496862350
4921388 177 17821732766564131187
5161694 15 18115859716095824004
6287921 2 17897737684602796236
9709674 26 18336829796185280842

>  <PUBCHEM_SHAPE_MULTIPOLES>  (1) 
418.42
8.12
2.6
1.91
4.54
0.94
0.8
0.78
1.13
-0.35
0.09
-1.77
-0.75
1.33

>  <PUBCHEM_SHAPE_SELFOVERLAP>  (1) 
867.014

>  <PUBCHEM_SHAPE_VOLUME>  (1) 
242.2

>  <PUBCHEM_COORDINATE_TYPE>  (1) 
2
5
10

$$$$
