31647
     RDKit          3D

 18 19  0  0  0  0  0  0  0  0999 V2000
   -0.2093   -0.7100    1.9672 O   0  0  0  0  0  0  0  0  0  0  0  0
    1.8821   -3.4394   -0.7373 O   0  0  0  0  0  0  0  0  0  0  0  0
    2.8363   -1.9688    0.7054 O   0  0  0  0  0  0  0  0  0  0  0  0
    1.5509    0.2484   -0.5162 C   0  0  0  0  0  0  0  0  0  0  0  0
    0.7164    0.7928    0.4326 C   0  0  0  0  0  0  0  0  0  0  0  0
    1.3656   -1.1357   -1.0478 C   0  0  0  0  0  0  0  0  0  0  0  0
   -0.4250   -0.0104    0.9664 C   0  0  0  0  0  0  0  0  0  0  0  0
    2.6092    1.0192   -0.9976 C   0  0  0  0  0  0  0  0  0  0  0  0
    0.8829    2.0673    0.9270 C   0  0  0  0  0  0  0  0  0  0  0  0
   -1.7449    0.0098    0.3565 C   0  0  0  0  0  0  0  0  0  0  0  0
    2.8045    2.3139   -0.5166 C   0  0  0  0  0  0  0  0  0  0  0  0
    1.9414    2.8379    0.4455 C   0  0  0  0  0  0  0  0  0  0  0  0
   -1.9809    0.7987   -0.7696 C   0  0  0  0  0  0  0  0  0  0  0  0
   -2.7751   -0.7599    0.8970 C   0  0  0  0  0  0  0  0  0  0  0  0
    2.1108   -2.1895   -0.2546 C   0  0  0  0  0  0  0  0  0  0  0  0
   -3.2469    0.8179   -1.3549 C   0  0  0  0  0  0  0  0  0  0  0  0
   -4.0410   -0.7406    0.3115 C   0  0  0  0  0  0  0  0  0  0  0  0
   -4.2768    0.0483   -0.8144 C   0  0  0  0  0  0  0  0  0  0  0  0
  1  7  2  0
  2 15  1  0
  3 15  2  0
  4  5  2  0
  4  6  1  0
  4  8  1  0
  5  7  1  0
  5  9  1  0
  6 15  1  0
  7 10  1  0
  8 11  2  0
  9 12  2  0
 10 13  2  0
 10 14  1  0
 11 12  1  0
 13 16  1  0
 14 17  2  0
 16 18  2  0
 17 18  1  0
M  END
>  <PUBCHEM_COMPOUND_CID>  (1) 
31647

>  <PUBCHEM_CONFORMER_RMSD>  (1) 
0.6

>  <PUBCHEM_CONFORMER_DIVERSEORDER>  (1) 
2
9
6
5
8
10
1
3
7
4

>  <PUBCHEM_MMFF94_PARTIAL_CHARGES>  (1) 
28
1 -0.57
10 0.09
11 -0.15
12 -0.15
13 -0.15
14 -0.15
15 0.66
16 -0.15
17 -0.15
18 -0.15
2 -0.65
21 0.15
22 0.15
23 0.15
24 0.15
25 0.15
26 0.15
27 0.15
28 0.15
29 0.15
3 -0.57
30 0.5
4 -0.14
5 0.09
6 0.2
7 0.4
8 -0.15
9 -0.15

>  <PUBCHEM_EFFECTIVE_ROTOR_COUNT>  (1) 
4

>  <PUBCHEM_PHARMACOPHORE_FEATURES>  (1) 
6
1 1 acceptor
1 2 acceptor
1 3 acceptor
3 2 3 15 anion
6 10 13 14 16 17 18 rings
6 4 5 8 9 11 12 rings

>  <PUBCHEM_HEAVY_ATOM_COUNT>  (1) 
18

>  <PUBCHEM_ATOM_DEF_STEREO_COUNT>  (1) 
0

>  <PUBCHEM_ATOM_UDEF_STEREO_COUNT>  (1) 
0

>  <PUBCHEM_BOND_DEF_STEREO_COUNT>  (1) 
0

>  <PUBCHEM_BOND_UDEF_STEREO_COUNT>  (1) 
0

>  <PUBCHEM_ISOTOPIC_ATOM_COUNT>  (1) 
0

>  <PUBCHEM_COMPONENT_COUNT>  (1) 
1

>  <PUBCHEM_CACTVS_TAUTO_COUNT>  (1) 
1

>  <PUBCHEM_CONFORMER_ID>  (1) 
00007B9F00000002

>  <PUBCHEM_MMFF94_ENERGY>  (1) 
54.2144

>  <PUBCHEM_FEATURE_SELFOVERLAP>  (1) 
30.504

>  <PUBCHEM_SHAPE_FINGERPRINT>  (1) 
10764073 3 17256188893435823008
11265709 11 18050291366844951482
116883 192 17980478966639163308
121448 382 17482811751665314980
12553582 1 17980502077969212622
12730499 353 18266185100938753107
13004483 165 17763169250958732414
13134695 92 18267849632356830276
13464514 151 18333735688966036616
13681431 1 18338802191570694020
15219456 202 18261110802857313437
15502722 9 18411417336503283071
15852999 172 18042692873765581904
16945 1 18342178894437088857
18186145 218 17676486112604341141
18981168 100 16516786105837767375
19049666 15 18261395529229937553
19786989 88 18340203119634638793
20600515 1 17539651786968589616
20645477 70 18410007741480652247
20671657 53 18197502818055605814
21452121 199 18267294335987579850
21947302 44 18260547839760572840
22112679 90 17344653464322900640
2255824 54 18272654592443181612
22802520 49 18187368692655112749
23114952 82 18261394420912058821
23402539 116 17532926319138736253
23419403 2 17754136888054418100
23526113 38 18114471041568657362
23557571 272 17531821280436540155
23559900 14 18040714787780343669
23598291 2 17630352790508995641
238 59 18339346565706326855
25 1 18340214105807787920
257057 1 18051415059254252174
2748010 2 17821449071315895641
3060560 45 18269273637227354732
3323516 105 18337963384310131031
4175511 335 18411145752846986924
495365 180 18269541879436160993
621550 34 18191593158395134897
633830 44 17700999852741529961
6338986 31 18053666876036920550
7364860 26 18410570691075097984
7615 1 17846788369008188097
77492 1 16558210300650489065
81228 2 17547856252767236322
81539 233 18263645224440952732

>  <PUBCHEM_SHAPE_MULTIPOLES>  (1) 
352.82
6.25
2.88
1.33
6.27
1.38
0.16
-0.42
-1.47
-3.9
-0.17
0.3
0.01
0.63

>  <PUBCHEM_SHAPE_SELFOVERLAP>  (1) 
764.789

>  <PUBCHEM_SHAPE_VOLUME>  (1) 
191.8

>  <PUBCHEM_COORDINATE_TYPE>  (1) 
2
5
10

$$$$
