31656
     RDKit          3D

 23 26  0  0  1  0  0  0  0  0999 V2000
   -1.0447   -1.1280    0.0189 O   0  0  0  0  0  0  0  0  0  0  0  0
   -4.7089   -1.2119    0.3280 N   0  0  0  0  0  0  0  0  0  0  0  0
   -0.0173   -0.2386    0.4112 C   0  0  0  0  0  0  0  0  0  0  0  0
    1.9153    1.3934    1.1478 C   0  0  0  0  0  0  0  0  0  0  0  0
   -0.0446   -0.0231    1.9535 C   0  0  0  0  0  0  0  0  0  0  0  0
    1.0980    0.9441    2.3880 C   0  0  0  0  0  0  0  0  0  0  0  0
    1.3820   -0.7736    0.0937 C   0  0  0  0  0  0  0  0  0  0  0  0
   -0.1335    1.1578   -0.2088 C   0  0  0  0  0  0  0  0  0  0  0  0
    2.4200    0.1112    0.4942 C   0  0  0  0  0  0  0  0  0  0  0  0
    0.9112    2.0333    0.1949 C   0  0  0  0  0  0  0  0  0  0  0  0
    1.6915   -1.9776   -0.5262 C   0  0  0  0  0  0  0  0  0  0  0  0
    3.7529   -0.2094    0.2765 C   0  0  0  0  0  0  0  0  0  0  0  0
   -1.1117    1.5989   -1.0908 C   0  0  0  0  0  0  0  0  0  0  0  0
    0.9703    3.3373   -0.2772 C   0  0  0  0  0  0  0  0  0  0  0  0
    3.0342   -2.2977   -0.7419 C   0  0  0  0  0  0  0  0  0  0  0  0
   -2.3320   -0.6440    0.3872 C   0  0  0  0  0  0  0  0  0  0  0  0
    4.0551   -1.4220   -0.3444 C   0  0  0  0  0  0  0  0  0  0  0  0
   -1.0500    2.9126   -1.5621 C   0  0  0  0  0  0  0  0  0  0  0  0
   -0.0193    3.7739   -1.1587 C   0  0  0  0  0  0  0  0  0  0  0  0
   -3.3897   -1.6395   -0.0530 C   0  0  0  0  0  0  0  0  0  0  0  0
    3.3881   -3.5875   -1.4050 C   0  0  0  0  0  0  0  0  0  0  0  0
   -5.7255   -2.2017   -0.0603 C   0  0  0  0  0  0  0  0  0  0  0  0
   -5.0416    0.0923   -0.2656 C   0  0  0  0  0  0  0  0  0  0  0  0
  1  3  1  0
  1 16  1  0
  2 20  1  0
  2 22  1  0
  2 23  1  0
  3  5  1  0
  3  7  1  0
  3  8  1  0
  4  6  1  0
  4  9  1  0
  4 10  1  0
  5  6  1  0
  7  9  2  0
  7 11  1  0
  8 10  2  0
  8 13  1  0
  9 12  1  0
 10 14  1  0
 11 15  2  0
 12 17  2  0
 13 18  2  0
 14 19  2  0
 15 17  1  0
 15 21  1  0
 16 20  1  0
 18 19  1  0
M  END
>  <PUBCHEM_COMPOUND_CID>  (1) 
31656

>  <PUBCHEM_CONFORMER_RMSD>  (1) 
0.8

>  <PUBCHEM_CONFORMER_DIVERSEORDER>  (1) 
1
7
5
4
2
6
8
3

>  <PUBCHEM_MMFF94_PARTIAL_CHARGES>  (1) 
28
1 -0.56
10 -0.14
11 -0.15
12 -0.15
13 -0.15
14 -0.15
15 -0.14
16 0.28
17 -0.15
18 -0.15
19 -0.15
2 -0.81
20 0.27
21 0.14
22 0.27
23 0.27
29 0.15
3 0.57
30 0.15
31 0.15
32 0.15
35 0.15
36 0.15
37 0.15
4 0.29
7 -0.14
8 -0.14
9 -0.14

>  <PUBCHEM_EFFECTIVE_ROTOR_COUNT>  (1) 
4.4

>  <PUBCHEM_PHARMACOPHORE_FEATURES>  (1) 
5
1 1 acceptor
1 2 cation
6 7 9 11 12 15 17 rings
6 8 10 13 14 18 19 rings
8 3 4 5 6 7 8 9 10 rings

>  <PUBCHEM_HEAVY_ATOM_COUNT>  (1) 
23

>  <PUBCHEM_ATOM_DEF_STEREO_COUNT>  (1) 
0

>  <PUBCHEM_ATOM_UDEF_STEREO_COUNT>  (1) 
2

>  <PUBCHEM_BOND_DEF_STEREO_COUNT>  (1) 
0

>  <PUBCHEM_BOND_UDEF_STEREO_COUNT>  (1) 
0

>  <PUBCHEM_ISOTOPIC_ATOM_COUNT>  (1) 
0

>  <PUBCHEM_COMPONENT_COUNT>  (1) 
1

>  <PUBCHEM_CACTVS_TAUTO_COUNT>  (1) 
1

>  <PUBCHEM_CONFORMER_ID>  (1) 
00007BA800000001

>  <PUBCHEM_MMFF94_ENERGY>  (1) 
98.4673

>  <PUBCHEM_FEATURE_SELFOVERLAP>  (1) 
25.393

>  <PUBCHEM_SHAPE_FINGERPRINT>  (1) 
10906281 52 18042136508245451776
11578080 2 17988065700287832072
116883 192 18336264561393601925
12293681 25 17982707707047749454
12422481 6 18049413101920495952
12617007 42 18114463456656113525
12788726 201 18042128669856043378
13009979 54 18200613453020986137
13149001 5 17241908663973005963
13583140 156 16773500127687596105
14022347 108 18040151808083917715
14790565 3 17831303074507625284
15420108 30 17402314370834803664
15664445 248 18260546749134239936
15848702 151 18411698811881160555
1601671 61 18336264664404362101
16945 1 18199202839420738200
17357779 13 18338221692317727933
17492 54 17972056965932926204
17492 89 18120374513384112059
1813 80 18335709338149552059
20602899 9 17116638740272592832
20645477 70 17972308779939232687
21033648 29 18130772483220285115
21285901 2 18409449159055420414
21330990 113 17547320816206001921
21452121 99 17611723644608717940
22182313 1 18268125622591790508
22802520 49 18197200474217750112
22907989 373 17908164096087046772
229495 10 17988345006363690012
23352939 185 18340781411332853040
23419403 2 17844505765493896704
23557571 272 18262234409483579164
23559900 14 18339077215881644123
239999 70 17970624323730656555
2748010 2 18194936669949555408
3060560 45 18050010188141707308
338550 245 17984416618980393391
38695281 34 17760373583863022100
46194498 28 18189052169875221535
484985 159 17193495745431884374
57262259 84 18124324800246573406
58779409 8 17685493143849228644
6443956 14 18410858780348975725
70251023 43 18265628580330672426
7364860 26 18120094137427990061
7399639 24 18342161272919392536
81228 2 18188783725365180192

>  <PUBCHEM_SHAPE_MULTIPOLES>  (1) 
462.48
7.88
4.14
1.49
11.1
1.86
-0.57
-9.02
0.93
-1.1
2.38
-0.57
0.54
1.78

>  <PUBCHEM_SHAPE_SELFOVERLAP>  (1) 
1014.491

>  <PUBCHEM_SHAPE_VOLUME>  (1) 
252.7

>  <PUBCHEM_COORDINATE_TYPE>  (1) 
2
5
10

$$$$
