31666
     RDKit          3D

 16 18  0  0  1  0  0  0  0  0999 V2000
   -1.7165   -1.9264   -0.5347 O   0  0  0  0  0  0  0  0  0  0  0  0
    1.7864   -2.0633    0.0509 O   0  0  0  0  0  0  0  0  0  0  0  0
    0.3895   -0.2054    0.2505 N   0  0  0  0  0  0  0  0  0  0  0  0
    3.7371    0.2643   -0.1061 N   0  0  0  0  0  0  0  0  0  0  0  0
    1.4662    0.7280    0.4451 C   0  0  0  0  0  0  0  0  0  0  0  0
    1.8688    1.4180   -0.8547 C   0  0  0  0  0  0  0  0  0  0  0  0
    2.7451    0.0598    0.9516 C   0  0  0  0  0  0  0  0  0  0  0  0
    3.3772    1.5212   -0.7543 C   0  0  0  0  0  0  0  0  0  0  0  0
   -0.9537    0.2635    0.1842 C   0  0  0  0  0  0  0  0  0  0  0  0
    0.6630   -1.5630    0.1006 C   0  0  0  0  0  0  0  0  0  0  0  0
   -1.9649   -0.6224   -0.2057 C   0  0  0  0  0  0  0  0  0  0  0  0
   -0.5709   -2.4428    0.1069 C   0  0  0  0  0  0  0  0  0  0  0  0
   -1.2999    1.5964    0.4510 C   0  0  0  0  0  0  0  0  0  0  0  0
   -3.2863   -0.1887   -0.3457 C   0  0  0  0  0  0  0  0  0  0  0  0
   -2.6246    2.0259    0.3302 C   0  0  0  0  0  0  0  0  0  0  0  0
   -3.6165    1.1350   -0.0698 C   0  0  0  0  0  0  0  0  0  0  0  0
  1 11  1  0
  1 12  1  0
  2 10  2  0
  3  5  1  0
  3  9  1  0
  3 10  1  0
  4  7  1  0
  4  8  1  0
  5  6  1  0
  5  7  1  0
  6  8  1  0
  9 11  2  0
  9 13  1  0
 10 12  1  0
 11 14  1  0
 13 15  2  0
 14 16  2  0
 15 16  1  0
M  END
>  <PUBCHEM_COMPOUND_CID>  (1) 
31666

>  <PUBCHEM_CONFORMER_RMSD>  (1) 
0.6

>  <PUBCHEM_CONFORMER_DIVERSEORDER>  (1) 
3
2
4
6
1
5

>  <PUBCHEM_MMFF94_PARTIAL_CHARGES>  (1) 
20
1 -0.36
10 0.57
11 0.08
12 0.34
13 -0.15
14 -0.15
15 -0.15
16 -0.15
2 -0.57
24 0.36
27 0.15
28 0.15
29 0.15
3 -0.48
30 0.15
4 -0.9
5 0.3
7 0.27
8 0.27
9 0.12

>  <PUBCHEM_EFFECTIVE_ROTOR_COUNT>  (1) 
2.6

>  <PUBCHEM_PHARMACOPHORE_FEATURES>  (1) 
7
1 1 acceptor
1 2 acceptor
1 4 cation
1 4 donor
5 4 5 6 7 8 rings
6 1 3 9 10 11 12 rings
6 9 11 13 14 15 16 rings

>  <PUBCHEM_HEAVY_ATOM_COUNT>  (1) 
16

>  <PUBCHEM_ATOM_DEF_STEREO_COUNT>  (1) 
0

>  <PUBCHEM_ATOM_UDEF_STEREO_COUNT>  (1) 
1

>  <PUBCHEM_BOND_DEF_STEREO_COUNT>  (1) 
0

>  <PUBCHEM_BOND_UDEF_STEREO_COUNT>  (1) 
0

>  <PUBCHEM_ISOTOPIC_ATOM_COUNT>  (1) 
0

>  <PUBCHEM_COMPONENT_COUNT>  (1) 
1

>  <PUBCHEM_CACTVS_TAUTO_COUNT>  (1) 
1

>  <PUBCHEM_CONFORMER_ID>  (1) 
00007BB200000003

>  <PUBCHEM_MMFF94_ENERGY>  (1) 
59.4882

>  <PUBCHEM_FEATURE_SELFOVERLAP>  (1) 
35.554

>  <PUBCHEM_SHAPE_FINGERPRINT>  (1) 
10062212 137 18410281523891451842
10465860 228 18267028249662607713
10967382 1 18411417267773354185
11132069 177 18410284835274268312
12173636 292 18338795731518238701
12202030 40 14260769763759746365
12491281 212 18261680354091040256
13140716 1 18052254291442297241
13380535 21 18341621390739465251
13380535 76 18411416198242328779
13538477 17 18261947574118664354
13583140 156 16950276296045347185
13618510 140 18409167688442053669
14144814 61 18409165502182458728
14897335 6 18411696560795817673
15279307 12 18409729551663247571
15309172 13 18409739438962864697
15442244 35 18122904222654618578
15490181 8 18335707151948011906
15536298 74 18200309905811818758
15669948 3 18340483494809434950
15775835 57 18413393111638237281
16945 1 18341888649268801227
1813 80 17169540815189878642
18186145 218 18269841904344727741
20510252 161 18125445451571342640
20645476 183 18187930637248427318
20671657 1 18337112259341910434
21501502 16 18341045212307858171
21524375 3 18409165497955803299
22802520 49 18058459870513118750
2334 1 18340767035850102745
23402539 116 18271798051331277516
23419403 2 14812655181299738171
23463225 33 18334851676203898112
23552423 10 18266456495490167315
23557571 272 17842277253167047752
23559900 14 18201722895035493848
2748010 2 18194964041543491615
305870 269 18335983051967293635
353137 74 18411699893927855233
474 4 18187087226015129041
537710 114 18412542120140940081
53812653 8 18410295851822905081
57096353 35 18342447158516234637
7364860 26 18056197968762539927
77492 1 17968366948695687528
81228 2 17979908642469319179

>  <PUBCHEM_SHAPE_MULTIPOLES>  (1) 
307.57
5.79
2.43
0.81
0.83
0.97
0
-2.6
0.52
-0.42
0.11
0.29
-0.15
-0.66

>  <PUBCHEM_SHAPE_SELFOVERLAP>  (1) 
670.25

>  <PUBCHEM_SHAPE_VOLUME>  (1) 
165.9

>  <PUBCHEM_COORDINATE_TYPE>  (1) 
2
5
10

$$$$
