31670
     RDKit          3D

  9  9  0  0  0  0  0  0  0  0999 V2000
   -0.7478   -0.2794   -0.2749 N   0  0  0  0  0  0  0  0  0  0  0  0
    4.1073    0.5437   -0.1646 N   0  0  0  0  0  0  0  0  0  0  0  0
   -1.8700   -1.1528    0.0677 C   0  0  0  0  0  0  0  0  0  0  0  0
   -1.0799    1.0156    0.3184 C   0  0  0  0  0  0  0  0  0  0  0  0
   -3.0802   -0.2592   -0.1607 C   0  0  0  0  0  0  0  0  0  0  0  0
   -2.5602    1.1659    0.0005 C   0  0  0  0  0  0  0  0  0  0  0  0
    0.5257   -0.7985    0.2013 C   0  0  0  0  0  0  0  0  0  0  0  0
    1.6654    0.1303   -0.2213 C   0  0  0  0  0  0  0  0  0  0  0  0
    3.0397   -0.3657    0.2335 C   0  0  0  0  0  0  0  0  0  0  0  0
  1  3  1  0
  1  4  1  0
  1  7  1  0
  2  9  1  0
  3  5  1  0
  4  6  1  0
  5  6  1  0
  7  8  1  0
  8  9  1  0
M  END
>  <PUBCHEM_COMPOUND_CID>  (1) 
31670

>  <PUBCHEM_CONFORMER_RMSD>  (1) 
0.6

>  <PUBCHEM_CONFORMER_DIVERSEORDER>  (1) 
1
6
10
9
11
5
2
8
7
3
4

>  <PUBCHEM_MMFF94_PARTIAL_CHARGES>  (1) 
8
1 -0.81
2 -0.99
24 0.36
25 0.36
3 0.27
4 0.27
7 0.27
9 0.27

>  <PUBCHEM_EFFECTIVE_ROTOR_COUNT>  (1) 
4

>  <PUBCHEM_PHARMACOPHORE_FEATURES>  (1) 
4
1 1 cation
1 2 cation
1 2 donor
5 1 3 4 5 6 rings

>  <PUBCHEM_HEAVY_ATOM_COUNT>  (1) 
9

>  <PUBCHEM_ATOM_DEF_STEREO_COUNT>  (1) 
0

>  <PUBCHEM_ATOM_UDEF_STEREO_COUNT>  (1) 
0

>  <PUBCHEM_BOND_DEF_STEREO_COUNT>  (1) 
0

>  <PUBCHEM_BOND_UDEF_STEREO_COUNT>  (1) 
0

>  <PUBCHEM_ISOTOPIC_ATOM_COUNT>  (1) 
0

>  <PUBCHEM_COMPONENT_COUNT>  (1) 
1

>  <PUBCHEM_CACTVS_TAUTO_COUNT>  (1) 
1

>  <PUBCHEM_CONFORMER_ID>  (1) 
00007BB600000001

>  <PUBCHEM_MMFF94_ENERGY>  (1) 
1.7989

>  <PUBCHEM_FEATURE_SELFOVERLAP>  (1) 
20.297

>  <PUBCHEM_SHAPE_FINGERPRINT>  (1) 
11062470 55 16587739836986962686
12932764 1 17275094033833839374
14325111 11 18410011014039801906
14390081 3 18342173341054697208
15310529 11 15195290772336086381
20871998 184 18201442540306866943
23552423 10 18189333648650890573
369184 2 16370444445180245307

>  <PUBCHEM_SHAPE_MULTIPOLES>  (1) 
175.25
6.02
1.17
0.64
5.09
0.05
0.01
0.81
-0.25
-0.62
0.06
-0.01
0
-0.13

>  <PUBCHEM_SHAPE_SELFOVERLAP>  (1) 
330.854

>  <PUBCHEM_SHAPE_VOLUME>  (1) 
110.1

>  <PUBCHEM_COORDINATE_TYPE>  (1) 
2
5
10

$$$$
