31685
     RDKit          3D

 27 28  0  0  1  0  0  0  0  0999 V2000
    1.0895    1.9949    1.6228 I   0  0  0  0  0  0  0  0  0  0  0  0
    3.9368   -2.7805   -0.9569 I   0  0  0  0  0  0  0  0  0  0  0  0
   -1.9793   -2.9271   -0.2118 I   0  0  0  0  0  0  0  0  0  0  0  0
   -1.3132   -0.0207    1.0274 O   0  0  0  0  0  0  0  0  0  0  0  0
    4.9677    1.6095   -0.6016 O   0  0  0  0  0  0  0  0  0  0  0  0
   -2.1039    3.1053   -0.4466 O   0  0  0  0  0  0  0  0  0  0  0  0
   -2.1509    2.5519    1.7504 O   0  0  0  0  0  0  0  0  0  0  0  0
    3.4691    0.1349    0.4434 N   0  0  0  0  0  0  0  0  0  0  0  0
    2.2033   -0.5562    0.3018 C   0  0  0  0  0  0  0  0  0  0  0  0
    4.2509   -0.0575    1.6749 C   0  0  0  0  0  0  0  0  0  0  0  0
    1.0635    0.0672    0.7420 C   0  0  0  0  0  0  0  0  0  0  0  0
   -0.1524   -0.6018    0.6015 C   0  0  0  0  0  0  0  0  0  0  0  0
   -2.0186    0.7777    0.0819 C   0  0  0  0  0  0  0  0  0  0  0  0
    3.9120    0.9713   -0.6055 C   0  0  0  0  0  0  0  0  0  0  0  0
    2.2096   -1.8035   -0.2699 C   0  0  0  0  0  0  0  0  0  0  0  0
    2.9683    1.0998   -1.7978 C   0  0  0  0  0  0  0  0  0  0  0  0
   -3.3871    0.1780   -0.1531 C   0  0  0  0  0  0  0  0  0  0  0  0
   -0.1872   -1.8716    0.0254 C   0  0  0  0  0  0  0  0  0  0  0  0
    5.2091   -1.2237    1.5474 C   0  0  0  0  0  0  0  0  0  0  0  0
    0.9939   -2.4724   -0.4104 C   0  0  0  0  0  0  0  0  0  0  0  0
    3.5192    2.0028   -2.8910 C   0  0  0  0  0  0  0  0  0  0  0  0
   -4.0222   -0.4855    0.8830 C   0  0  0  0  0  0  0  0  0  0  0  0
   -3.9762    0.3045   -1.3997 C   0  0  0  0  0  0  0  0  0  0  0  0
   -2.0879    2.2111    0.5763 C   0  0  0  0  0  0  0  0  0  0  0  0
   -5.2840   -1.0389    0.6661 C   0  0  0  0  0  0  0  0  0  0  0  0
   -5.2381   -0.2489   -1.6165 C   0  0  0  0  0  0  0  0  0  0  0  0
   -5.8920   -0.9207   -0.5836 C   0  0  0  0  0  0  0  0  0  0  0  0
  1 11  1  0
  2 15  1  0
  3 18  1  0
  4 12  1  0
  4 13  1  0
  5 14  2  0
  6 24  1  0
  7 24  2  0
  8  9  1  0
  8 10  1  0
  8 14  1  0
  9 11  2  0
  9 15  1  0
 10 19  1  0
 11 12  1  0
 12 18  2  0
 13 17  1  0
 13 24  1  0
 14 16  1  0
 15 20  2  0
 16 21  1  0
 17 22  2  0
 17 23  1  0
 18 20  1  0
 22 25  1  0
 23 26  2  0
 25 27  2  0
 26 27  1  0
M  END
>  <PUBCHEM_COMPOUND_CID>  (1) 
31685

>  <PUBCHEM_CONFORMER_RMSD>  (1) 
0.8

>  <PUBCHEM_CONFORMER_DIVERSEORDER>  (1) 
1
92
78
70
11
97
61
71
50
69
89
87
100
15
20
86
77
73
81
99
49
75
58
18
45
95
62
74
34
19
93
91
5
82
96
47
94
10
41
80
64
55
7
28
85
14
3
26
57
27
48
63
36
13
88
65
24
22
17
35
67
83
98
56
79
12
38
76
21
52
84
9
32
16
72
8
51
39
90
6
46
30
66
59
25
68
23
2
37
42
31
29
54
4
44
33
43
53
40
60

>  <PUBCHEM_MMFF94_PARTIAL_CHARGES>  (1) 
32
1 -0.08
10 0.3
11 0.08
12 0.08
13 0.48
14 0.57
15 0.08
16 0.06
17 -0.14
18 0.08
2 -0.08
20 -0.15
22 -0.15
23 -0.15
24 0.66
25 -0.15
26 -0.15
27 -0.15
3 -0.08
36 0.15
4 -0.36
40 0.15
41 0.15
42 0.15
43 0.15
44 0.15
45 0.5
5 -0.57
6 -0.65
7 -0.57
8 -0.48
9 0.12

>  <PUBCHEM_EFFECTIVE_ROTOR_COUNT>  (1) 
8

>  <PUBCHEM_PHARMACOPHORE_FEATURES>  (1) 
11
1 1 hydrophobe
1 2 hydrophobe
1 21 hydrophobe
1 3 hydrophobe
1 4 acceptor
1 5 acceptor
1 6 acceptor
1 7 acceptor
3 6 7 24 anion
6 17 22 23 25 26 27 rings
6 9 11 12 15 18 20 rings

>  <PUBCHEM_HEAVY_ATOM_COUNT>  (1) 
27

>  <PUBCHEM_ATOM_DEF_STEREO_COUNT>  (1) 
0

>  <PUBCHEM_ATOM_UDEF_STEREO_COUNT>  (1) 
1

>  <PUBCHEM_BOND_DEF_STEREO_COUNT>  (1) 
0

>  <PUBCHEM_BOND_UDEF_STEREO_COUNT>  (1) 
0

>  <PUBCHEM_ISOTOPIC_ATOM_COUNT>  (1) 
0

>  <PUBCHEM_COMPONENT_COUNT>  (1) 
1

>  <PUBCHEM_CACTVS_TAUTO_COUNT>  (1) 
1

>  <PUBCHEM_CONFORMER_ID>  (1) 
00007BC500000001

>  <PUBCHEM_MMFF94_ENERGY>  (1) 
120.607

>  <PUBCHEM_FEATURE_SELFOVERLAP>  (1) 
55.885

>  <PUBCHEM_SHAPE_FINGERPRINT>  (1) 
10090160 65 18334571343805045779
10366900 7 18272932756047378697
10498660 4 18267030629184941238
10670039 82 18338813242695964676
11578080 2 14996864211037158620
12166972 35 18259980457870465388
12403260 363 18338513019786203370
12553582 1 18202283628141809617
12788726 201 18273219694460217417
13140716 1 18055623156257095147
13224815 77 18410299068748154633
13911987 19 18336269045798252239
14787075 74 18188213229597487251
14863182 85 18131067113524100134
15537594 2 17917430956232712975
17349148 13 18334858286121701954
17492 54 18188220908445261036
17909252 39 17703238295597328062
19319366 153 18409440401902609479
20715895 44 17825090538053358133
21033650 10 17631196137513229600
22149856 69 18270978903228311731
22393880 68 18053098428272438726
23227448 37 17677338362822734791
23557571 272 17704080568674614720
23558518 356 18192439563183981795
23559900 14 18411708673168835486
312423 11 18270130002092469355
34797466 226 17749114421938896191
350125 39 18269565935416084563
474 4 17603590776541992844
5104073 3 18058445396442125395
59755656 215 18271805697154175678
6287921 2 18193857945630741365
6669772 16 17915166030999022920

>  <PUBCHEM_SHAPE_MULTIPOLES>  (1) 
563
11.7
3.35
1.88
5.58
0.28
-0.87
1.8
-2.02
-0.91
-0.2
-1.67
-1.11
-0.89

>  <PUBCHEM_SHAPE_SELFOVERLAP>  (1) 
1126.565

>  <PUBCHEM_SHAPE_VOLUME>  (1) 
339

>  <PUBCHEM_COORDINATE_TYPE>  (1) 
2
5
10

$$$$
