31682
     RDKit          3D

 25 26  0  0  1  0  0  0  0  0999 V2000
   -1.4265   -2.2601    1.1423 I   0  0  0  0  0  0  0  0  0  0  0  0
   -4.2603    2.9083   -0.5405 I   0  0  0  0  0  0  0  0  0  0  0  0
    1.6453    2.9228    0.2987 I   0  0  0  0  0  0  0  0  0  0  0  0
    0.9752   -0.1647    0.9657 O   0  0  0  0  0  0  0  0  0  0  0  0
    1.6800   -2.9797   -1.0629 O   0  0  0  0  0  0  0  0  0  0  0  0
    1.7556   -2.8311    1.1971 O   0  0  0  0  0  0  0  0  0  0  0  0
   -5.3524   -1.5545   -0.8643 O   0  0  0  0  0  0  0  0  0  0  0  0
   -3.7992   -0.2157    0.3022 N   0  0  0  0  0  0  0  0  0  0  0  0
    1.6899   -0.7721   -0.1077 C   0  0  0  0  0  0  0  0  0  0  0  0
   -2.5752    0.4679    0.3056 C   0  0  0  0  0  0  0  0  0  0  0  0
   -0.1847    0.4853    0.6410 C   0  0  0  0  0  0  0  0  0  0  0  0
    3.0545   -0.1794   -0.2120 C   0  0  0  0  0  0  0  0  0  0  0  0
   -1.3975   -0.2015    0.6388 C   0  0  0  0  0  0  0  0  0  0  0  0
   -2.5380    1.8224   -0.0250 C   0  0  0  0  0  0  0  0  0  0  0  0
   -0.1456    1.8387    0.3110 C   0  0  0  0  0  0  0  0  0  0  0  0
   -1.3233    2.5078   -0.0224 C   0  0  0  0  0  0  0  0  0  0  0  0
    3.7116    0.2647    0.9355 C   0  0  0  0  0  0  0  0  0  0  0  0
    3.6741   -0.0695   -1.4570 C   0  0  0  0  0  0  0  0  0  0  0  0
    1.7029   -2.2834    0.1036 C   0  0  0  0  0  0  0  0  0  0  0  0
   -4.5469   -0.3298    1.5892 C   0  0  0  0  0  0  0  0  0  0  0  0
   -4.3175   -0.8832   -0.8565 C   0  0  0  0  0  0  0  0  0  0  0  0
    4.9879    0.8190    0.8382 C   0  0  0  0  0  0  0  0  0  0  0  0
    4.9506    0.4845   -1.5542 C   0  0  0  0  0  0  0  0  0  0  0  0
    5.6074    0.9288   -0.4067 C   0  0  0  0  0  0  0  0  0  0  0  0
   -3.5682   -0.7253   -2.1597 C   0  0  0  0  0  0  0  0  0  0  0  0
  1 13  1  0
  2 14  1  0
  3 15  1  0
  4  9  1  0
  4 11  1  0
  5 19  1  0
  6 19  2  0
  7 21  2  0
  8 10  1  0
  8 20  1  0
  8 21  1  0
  9 12  1  0
  9 19  1  0
 10 13  2  0
 10 14  1  0
 11 13  1  0
 11 15  2  0
 12 17  2  0
 12 18  1  0
 14 16  2  0
 15 16  1  0
 17 22  1  0
 18 23  2  0
 21 25  1  0
 22 24  2  0
 23 24  1  0
M  END
>  <PUBCHEM_COMPOUND_CID>  (1) 
31682

>  <PUBCHEM_CONFORMER_RMSD>  (1) 
0.8

>  <PUBCHEM_CONFORMER_DIVERSEORDER>  (1) 
2
66
52
61
55
27
63
53
48
65
12
51
11
42
58
56
20
54
57
9
50
62
3
47
17
35
46
31
22
39
59
64
41
33
34
15
25
6
8
28
36
49
38
23
4
45
60
44
16
5
7
29
40
18
43
32
37
26
13
21
1
14
30
10
19
24

>  <PUBCHEM_MMFF94_PARTIAL_CHARGES>  (1) 
32
1 -0.08
10 0.12
11 0.08
12 -0.14
13 0.08
14 0.08
15 0.08
16 -0.15
17 -0.15
18 -0.15
19 0.66
2 -0.08
20 0.3
21 0.57
22 -0.15
23 -0.15
24 -0.15
25 0.06
27 0.15
28 0.15
29 0.15
3 -0.08
33 0.15
34 0.15
35 0.15
39 0.5
4 -0.36
5 -0.65
6 -0.57
7 -0.57
8 -0.48
9 0.48

>  <PUBCHEM_EFFECTIVE_ROTOR_COUNT>  (1) 
6

>  <PUBCHEM_PHARMACOPHORE_FEATURES>  (1) 
10
1 1 hydrophobe
1 2 hydrophobe
1 3 hydrophobe
1 4 acceptor
1 5 acceptor
1 6 acceptor
1 7 acceptor
3 5 6 19 anion
6 10 11 13 14 15 16 rings
6 12 17 18 22 23 24 rings

>  <PUBCHEM_HEAVY_ATOM_COUNT>  (1) 
25

>  <PUBCHEM_ATOM_DEF_STEREO_COUNT>  (1) 
0

>  <PUBCHEM_ATOM_UDEF_STEREO_COUNT>  (1) 
1

>  <PUBCHEM_BOND_DEF_STEREO_COUNT>  (1) 
0

>  <PUBCHEM_BOND_UDEF_STEREO_COUNT>  (1) 
0

>  <PUBCHEM_ISOTOPIC_ATOM_COUNT>  (1) 
0

>  <PUBCHEM_COMPONENT_COUNT>  (1) 
1

>  <PUBCHEM_CACTVS_TAUTO_COUNT>  (1) 
1

>  <PUBCHEM_CONFORMER_ID>  (1) 
00007BC200000002

>  <PUBCHEM_MMFF94_ENERGY>  (1) 
112.1925

>  <PUBCHEM_FEATURE_SELFOVERLAP>  (1) 
50.81

>  <PUBCHEM_SHAPE_FINGERPRINT>  (1) 
10042902 136 16915363628030483711
10090160 65 18187366536607871458
10366900 7 18409450318680395779
10498660 4 18339366271190697960
10670039 82 18187658977094966876
10675989 125 17396126946896755485
10906281 52 18262816128090974697
11488393 25 17630910213193598054
11578080 2 17169820081550988661
12236239 1 17530687606971415432
12553582 1 18410857672342300601
12788726 201 18408877422147180505
128620 24 18413108351085138412
13140716 1 18120663679897384665
13224815 77 18342735165721373226
13911987 19 18041569142622077534
13944108 23 16389564634935802869
14787075 74 18201435943353014736
14790565 3 17692254041381959081
14840074 17 18272655675112440255
15537594 2 18343029873951356147
17349148 13 18260266343662440624
17492 54 18334292106152550214
17980427 23 17894636950317320180
20715895 44 17462834376966503077
20871999 31 18410290298667828165
22393880 68 18270401581786127948
23402539 116 18335977606001724148
23557571 272 18272375269429962244
23559900 14 18051686647105919690
34934 24 18339357444900990489
350125 39 18334864909478925681
3737641 26 17987532441110816495
463206 1 18127124406275368941
5104073 3 18262522468249770024
59755656 215 18408597076810314717
67856867 119 18190453875238452762
9709674 26 18337678516093381610
9981440 41 18187087247817215426

>  <PUBCHEM_SHAPE_MULTIPOLES>  (1) 
521.84
11.07
3.43
1.47
2.84
0.25
-0.43
1.73
-2.83
-1.4
0.23
-0.33
-0.5
0.14

>  <PUBCHEM_SHAPE_SELFOVERLAP>  (1) 
1044.403

>  <PUBCHEM_SHAPE_VOLUME>  (1) 
315.4

>  <PUBCHEM_COORDINATE_TYPE>  (1) 
2
5
10

$$$$
