31688
     RDKit          3D

 27 28  0  0  1  0  0  0  0  0999 V2000
   -0.0639   -1.8512   -0.6275 I   0  0  0  0  0  0  0  0  0  0  0  0
   -5.0864    1.3935    0.7207 I   0  0  0  0  0  0  0  0  0  0  0  0
    0.0251    4.2294   -0.4666 I   0  0  0  0  0  0  0  0  0  0  0  0
    0.9778    1.1616   -0.7929 O   0  0  0  0  0  0  0  0  0  0  0  0
    3.0817    2.7990    1.5371 O   0  0  0  0  0  0  0  0  0  0  0  0
   -4.4027   -2.8848   -0.8431 O   0  0  0  0  0  0  0  0  0  0  0  0
    3.0713    3.0011   -0.7199 O   0  0  0  0  0  0  0  0  0  0  0  0
   -3.1341   -1.1669    0.1595 N   0  0  0  0  0  0  0  0  0  0  0  0
   -2.4134    0.0269    0.0149 C   0  0  0  0  0  0  0  0  0  0  0  0
    1.9044    1.1126    0.2894 C   0  0  0  0  0  0  0  0  0  0  0  0
    2.7351   -0.1222    0.1944 C   0  0  0  0  0  0  0  0  0  0  0  0
   -3.0977   -1.8569    1.4826 C   0  0  0  0  0  0  0  0  0  0  0  0
   -0.3504    1.1854   -0.4632 C   0  0  0  0  0  0  0  0  0  0  0  0
   -1.0603   -0.0056   -0.3225 C   0  0  0  0  0  0  0  0  0  0  0  0
   -3.0540    1.2503    0.2111 C   0  0  0  0  0  0  0  0  0  0  0  0
   -0.9888    2.4087   -0.2676 C   0  0  0  0  0  0  0  0  0  0  0  0
    2.6830   -1.0775    1.2095 C   0  0  0  0  0  0  0  0  0  0  0  0
    3.5646   -0.3216   -0.9091 C   0  0  0  0  0  0  0  0  0  0  0  0
   -2.3418    2.4412    0.0698 C   0  0  0  0  0  0  0  0  0  0  0  0
   -3.8267   -1.7971   -0.9267 C   0  0  0  0  0  0  0  0  0  0  0  0
   -4.2788   -1.4492    2.3471 C   0  0  0  0  0  0  0  0  0  0  0  0
    4.2898   -2.4319    0.0174 C   0  0  0  0  0  0  0  0  0  0  0  0
    3.4603   -2.2324    1.1209 C   0  0  0  0  0  0  0  0  0  0  0  0
    4.3418   -1.4765   -0.9976 C   0  0  0  0  0  0  0  0  0  0  0  0
    2.7292    2.3966    0.2881 C   0  0  0  0  0  0  0  0  0  0  0  0
   -3.8861   -1.0663   -2.2486 C   0  0  0  0  0  0  0  0  0  0  0  0
    5.1211   -3.6663   -0.0771 C   0  0  0  0  0  0  0  0  0  0  0  0
  1 14  1  0
  2 15  1  0
  3 16  1  0
  4 10  1  0
  4 13  1  0
  5 25  1  0
  6 20  2  0
  7 25  2  0
  8  9  1  0
  8 12  1  0
  8 20  1  0
  9 14  2  0
  9 15  1  0
 10 11  1  0
 10 25  1  0
 11 17  2  0
 11 18  1  0
 12 21  1  0
 13 14  1  0
 13 16  2  0
 15 19  2  0
 16 19  1  0
 17 23  1  0
 18 24  2  0
 20 26  1  0
 22 23  2  0
 22 24  1  0
 22 27  1  0
M  END
>  <PUBCHEM_COMPOUND_CID>  (1) 
31688

>  <PUBCHEM_CONFORMER_RMSD>  (1) 
0.8

>  <PUBCHEM_CONFORMER_DIVERSEORDER>  (1) 
1
77
57
61
74
53
52
64
60
12
24
36
79
18
48
62
4
47
54
49
71
78
55
63
73
70
75
58
2
68
69
50
66
76
15
11
27
80
45
67
8
29
22
59
14
37
16
21
33
56
34
72
13
23
40
39
10
30
44
17
51
25
32
46
7
9
41
28
5
43
42
3
31
65
38
35
26
6
19
20

>  <PUBCHEM_MMFF94_PARTIAL_CHARGES>  (1) 
32
1 -0.08
10 0.48
11 -0.14
12 0.3
13 0.08
14 0.08
15 0.08
16 0.08
17 -0.15
18 -0.15
19 -0.15
2 -0.08
20 0.57
22 -0.14
23 -0.15
24 -0.15
25 0.66
26 0.06
27 0.14
3 -0.08
31 0.15
32 0.15
33 0.15
37 0.15
38 0.15
4 -0.36
45 0.5
5 -0.65
6 -0.57
7 -0.57
8 -0.48
9 0.12

>  <PUBCHEM_EFFECTIVE_ROTOR_COUNT>  (1) 
7

>  <PUBCHEM_PHARMACOPHORE_FEATURES>  (1) 
10
1 1 hydrophobe
1 2 hydrophobe
1 3 hydrophobe
1 4 acceptor
1 5 acceptor
1 6 acceptor
1 7 acceptor
3 5 7 25 anion
6 11 17 18 22 23 24 rings
6 9 13 14 15 16 19 rings

>  <PUBCHEM_HEAVY_ATOM_COUNT>  (1) 
27

>  <PUBCHEM_ATOM_DEF_STEREO_COUNT>  (1) 
0

>  <PUBCHEM_ATOM_UDEF_STEREO_COUNT>  (1) 
1

>  <PUBCHEM_BOND_DEF_STEREO_COUNT>  (1) 
0

>  <PUBCHEM_BOND_UDEF_STEREO_COUNT>  (1) 
0

>  <PUBCHEM_ISOTOPIC_ATOM_COUNT>  (1) 
0

>  <PUBCHEM_COMPONENT_COUNT>  (1) 
1

>  <PUBCHEM_CACTVS_TAUTO_COUNT>  (1) 
1

>  <PUBCHEM_CONFORMER_ID>  (1) 
00007BC800000001

>  <PUBCHEM_MMFF94_ENERGY>  (1) 
117.2548

>  <PUBCHEM_FEATURE_SELFOVERLAP>  (1) 
50.81

>  <PUBCHEM_SHAPE_FINGERPRINT>  (1) 
10622 236 17915439796515226039
1100329 8 18339923702015971089
11405975 8 18343022181485665705
11578080 2 17604973846512210748
12107183 9 18198632029830412481
12422481 6 18059308573779777927
12553582 1 18189327979162152290
12633257 1 18200600181118431913
12788726 201 17974000657192343049
13140716 1 18341330015805348897
13224815 77 18341046401992537781
13533116 47 18340203102713388363
13690498 29 18265349313129942150
14114206 34 17823130133899331015
14117953 113 18126281931471789093
14251757 5 18048322137366821768
14790565 3 17688040025202221132
14863182 85 18047194326342288820
17492 89 18340482369802998719
17804303 29 18266179422549363212
19315092 285 17345172588419808603
20645477 70 18264197170403474647
20681651 13 17774443918510219355
20691752 17 17822005432383569248
20775530 9 18409172108058275512
21703447 108 18268409365268879832
221490 88 18335428958737505744
23559900 14 18340475699370368408
25222932 49 17623847233732420199
312423 11 18341612646011821495
335352 9 18267022752505441237
44880168 125 17556291770332368318
463206 1 18264770952528771122
5104073 3 18272374191703966307
5486654 36 18263936440282028834
56633871 153 18270683043878313019
70251023 43 18410568483320061306
9709674 26 18335980947396310985

>  <PUBCHEM_SHAPE_MULTIPOLES>  (1) 
563
10.57
4.84
1.5
2.13
3.17
0.17
-8.08
1.06
1.52
-0.2
-1.25
-0.79
-0.14

>  <PUBCHEM_SHAPE_SELFOVERLAP>  (1) 
1125.83

>  <PUBCHEM_SHAPE_VOLUME>  (1) 
340.4

>  <PUBCHEM_COORDINATE_TYPE>  (1) 
2
5
10

$$$$
