31693
     RDKit          3D

 17 19  0  0  0  0  0  0  0  0999 V2000
    0.1332   -0.3385   -0.0001 C   0  0  0  0  0  0  0  0  0  0  0  0
    0.8972    0.8577    0.0003 C   0  0  0  0  0  0  0  0  0  0  0  0
   -1.3042   -0.2542   -0.0001 C   0  0  0  0  0  0  0  0  0  0  0  0
    2.3018    0.8091    0.0002 C   0  0  0  0  0  0  0  0  0  0  0  0
    0.8582   -1.5565   -0.0003 C   0  0  0  0  0  0  0  0  0  0  0  0
    2.9772   -0.4074   -0.0003 C   0  0  0  0  0  0  0  0  0  0  0  0
   -1.9225    1.0235    0.0002 C   0  0  0  0  0  0  0  0  0  0  0  0
    2.2553   -1.5907   -0.0005 C   0  0  0  0  0  0  0  0  0  0  0  0
    0.2520    2.0971    0.0008 C   0  0  0  0  0  0  0  0  0  0  0  0
   -1.1366    2.1787    0.0007 C   0  0  0  0  0  0  0  0  0  0  0  0
    3.1267    2.0640   -0.0011 C   0  0  0  0  0  0  0  0  0  0  0  0
   -2.1673   -1.3788   -0.0004 C   0  0  0  0  0  0  0  0  0  0  0  0
    0.2780   -2.9361    0.0014 C   0  0  0  0  0  0  0  0  0  0  0  0
    4.4695   -0.4703    0.0001 C   0  0  0  0  0  0  0  0  0  0  0  0
   -3.3231    1.1400    0.0000 C   0  0  0  0  0  0  0  0  0  0  0  0
   -3.5586   -1.2488   -0.0005 C   0  0  0  0  0  0  0  0  0  0  0  0
   -4.1366    0.0111   -0.0005 C   0  0  0  0  0  0  0  0  0  0  0  0
  1  2  1  0
  1  3  1  0
  1  5  2  0
  2  4  2  0
  2  9  1  0
  3  7  2  0
  3 12  1  0
  4  6  1  0
  4 11  1  0
  5  8  1  0
  5 13  1  0
  6  8  2  0
  6 14  1  0
  7 10  1  0
  7 15  1  0
  9 10  2  0
 12 16  2  0
 15 17  2  0
 16 17  1  0
M  END
>  <PUBCHEM_COMPOUND_CID>  (1) 
31693

>  <PUBCHEM_CONFORMER_RMSD>  (1) 
0.4

>  <PUBCHEM_CONFORMER_DIVERSEORDER>  (1) 
1

>  <PUBCHEM_MMFF94_PARTIAL_CHARGES>  (1) 
20
10 -0.15
11 0.14
12 -0.15
13 0.14
14 0.14
15 -0.15
16 -0.15
17 -0.15
18 0.15
19 0.15
20 0.15
24 0.15
31 0.15
32 0.15
33 0.15
4 -0.14
5 -0.14
6 -0.14
8 -0.15
9 -0.15

>  <PUBCHEM_EFFECTIVE_ROTOR_COUNT>  (1) 
0

>  <PUBCHEM_PHARMACOPHORE_FEATURES>  (1) 
3
6 1 2 3 7 9 10 rings
6 1 2 4 5 6 8 rings
6 3 7 12 15 16 17 rings

>  <PUBCHEM_HEAVY_ATOM_COUNT>  (1) 
17

>  <PUBCHEM_ATOM_DEF_STEREO_COUNT>  (1) 
0

>  <PUBCHEM_ATOM_UDEF_STEREO_COUNT>  (1) 
0

>  <PUBCHEM_BOND_DEF_STEREO_COUNT>  (1) 
0

>  <PUBCHEM_BOND_UDEF_STEREO_COUNT>  (1) 
0

>  <PUBCHEM_ISOTOPIC_ATOM_COUNT>  (1) 
0

>  <PUBCHEM_COMPONENT_COUNT>  (1) 
1

>  <PUBCHEM_CACTVS_TAUTO_COUNT>  (1) 
1

>  <PUBCHEM_CONFORMER_ID>  (1) 
00007BCD00000001

>  <PUBCHEM_MMFF94_ENERGY>  (1) 
75.9067

>  <PUBCHEM_FEATURE_SELFOVERLAP>  (1) 
15.272

>  <PUBCHEM_SHAPE_FINGERPRINT>  (1) 
10062212 137 18409721859514048443
10411042 1 16032674856091957218
10608611 8 18409444765462099381
10616163 171 18411702058591515327
108231 29 18272369806147036160
10967382 1 18338799030036953063
11132069 177 18411694391837398368
11471102 20 18410568505137295421
12032990 46 18410859871101792295
13140716 1 18410856563966490257
13221675 6 18411700941620404559
13380535 76 18408886213518304915
13862211 1 18410849966923551654
14178342 30 18052248506290459936
14790565 3 18338530732073459604
15196674 1 18410855498930690437
15230672 131 13506414107958393339
15309172 13 18411990173540173539
15442244 35 18122907516757468994
15536298 74 18343021120681510288
16945 1 18194682566366509188
17804303 29 18412547596028881772
18186145 218 18409448089671633252
19107657 46 18410855430306094407
193761 8 17906170650818696197
19591789 44 18411138081982927510
200 152 18130779058514463005
20028762 73 18057604467885124919
20510252 161 18272370867046260336
20645477 70 18341327821424915263
20905425 154 18124596383966543702
21267235 1 18411146831021070607
21421861 104 17825951407864426019
21501502 16 18194402186637984225
221490 88 18336554901177575738
2334 1 18338797921940704417
23402539 116 18342166787283003718
23463225 33 18408603651798485932
23559900 14 18268987584163529358
2748010 2 18410013272876004101
2871803 45 18409162195257860575
3312278 4 18339361868585066313
335352 9 18266458707055550685
34934 24 18338228246559017063
350125 39 18410013221853906820
43471831 8 18263641775656482890
5104073 3 18410294735252760825
528886 8 18411413999181909778
7364860 26 18197498420082967038
8809292 202 18260553346119740635
9709674 26 18411705352678814415

>  <PUBCHEM_SHAPE_MULTIPOLES>  (1) 
349.85
6.67
2.66
0.62
0.13
0.34
0
0.03
0
-0.4
0
0
0
0

>  <PUBCHEM_SHAPE_SELFOVERLAP>  (1) 
782.998

>  <PUBCHEM_SHAPE_VOLUME>  (1) 
174.9

>  <PUBCHEM_COORDINATE_TYPE>  (1) 
2
5
10

$$$$
