31699
     RDKit          3D

 27 28  0  0  1  0  0  0  0  0999 V2000
    1.3496    2.2259    1.2416 I   0  0  0  0  0  0  0  0  0  0  0  0
    4.1963   -2.7363   -0.9595 I   0  0  0  0  0  0  0  0  0  0  0  0
   -1.6450   -2.9711    0.2262 I   0  0  0  0  0  0  0  0  0  0  0  0
   -1.0074    0.0803    1.0677 O   0  0  0  0  0  0  0  0  0  0  0  0
   -1.9199    3.0016   -0.7124 O   0  0  0  0  0  0  0  0  0  0  0  0
    5.1592    1.7672   -1.0422 O   0  0  0  0  0  0  0  0  0  0  0  0
   -1.8413    2.7006    1.5323 O   0  0  0  0  0  0  0  0  0  0  0  0
    3.7135    0.3103    0.1208 N   0  0  0  0  0  0  0  0  0  0  0  0
   -1.8040    0.7374    0.0862 C   0  0  0  0  0  0  0  0  0  0  0  0
   -3.1582    0.1100    0.0264 C   0  0  0  0  0  0  0  0  0  0  0  0
    2.5086   -0.4060    0.1507 C   0  0  0  0  0  0  0  0  0  0  0  0
    0.1451   -0.5131    0.6274 C   0  0  0  0  0  0  0  0  0  0  0  0
   -3.8697    0.0520   -1.1718 C   0  0  0  0  0  0  0  0  0  0  0  0
    4.5363    0.3588    1.3653 C   0  0  0  0  0  0  0  0  0  0  0  0
    1.3383    0.2061    0.5996 C   0  0  0  0  0  0  0  0  0  0  0  0
    2.4834   -1.7358   -0.2693 C   0  0  0  0  0  0  0  0  0  0  0  0
   -3.7094   -0.4232    1.1914 C   0  0  0  0  0  0  0  0  0  0  0  0
    0.1176   -1.8417    0.2082 C   0  0  0  0  0  0  0  0  0  0  0  0
    1.2879   -2.4538   -0.2406 C   0  0  0  0  0  0  0  0  0  0  0  0
    4.1431    1.0682   -1.0184 C   0  0  0  0  0  0  0  0  0  0  0  0
   -5.1328   -0.5391   -1.2049 C   0  0  0  0  0  0  0  0  0  0  0  0
   -1.8456    2.2288    0.4027 C   0  0  0  0  0  0  0  0  0  0  0  0
    5.5920   -0.7337    1.3683 C   0  0  0  0  0  0  0  0  0  0  0  0
   -3.2999    0.6159   -2.4320 C   0  0  0  0  0  0  0  0  0  0  0  0
   -4.9724   -1.0142    1.1582 C   0  0  0  0  0  0  0  0  0  0  0  0
   -5.6841   -1.0722   -0.0399 C   0  0  0  0  0  0  0  0  0  0  0  0
    3.3187    0.9771   -2.2820 C   0  0  0  0  0  0  0  0  0  0  0  0
  1 15  1  0
  2 16  1  0
  3 18  1  0
  4  9  1  0
  4 12  1  0
  5 22  1  0
  6 20  2  0
  7 22  2  0
  8 11  1  0
  8 14  1  0
  8 20  1  0
  9 10  1  0
  9 22  1  0
 10 13  2  0
 10 17  1  0
 11 15  2  0
 11 16  1  0
 12 15  1  0
 12 18  2  0
 13 21  1  0
 13 24  1  0
 14 23  1  0
 16 19  2  0
 17 25  2  0
 18 19  1  0
 20 27  1  0
 21 26  2  0
 25 26  1  0
M  END
>  <PUBCHEM_COMPOUND_CID>  (1) 
31699

>  <PUBCHEM_CONFORMER_RMSD>  (1) 
0.8

>  <PUBCHEM_CONFORMER_DIVERSEORDER>  (1) 
1
109
107
79
104
89
100
28
13
48
78
20
81
96
91
88
12
70
97
67
93
92
110
105
10
11
2
37
16
39
112
106
45
9
15
108
75
99
60
72
102
19
14
76
55
82
33
31
80
17
90
41
32
29
57
98
114
18
113
73
50
86
44
25
68
40
35
34
101
53
27
66
84
58
52
103
64
115
83
46
42
36
49
5
87
94
23
24
43
56
111
62
6
47
74
54
71
65
3
51
30
61
95
21
22
8
77
59
38
85
7
26
69
63
4

>  <PUBCHEM_MMFF94_PARTIAL_CHARGES>  (1) 
32
1 -0.08
10 -0.14
11 0.12
12 0.08
13 -0.14
14 0.3
15 0.08
16 0.08
17 -0.15
18 0.08
19 -0.15
2 -0.08
20 0.57
21 -0.15
22 0.66
24 0.14
25 -0.15
26 -0.15
27 0.06
3 -0.08
31 0.15
32 0.15
33 0.15
4 -0.36
40 0.15
41 0.15
45 0.5
5 -0.65
6 -0.57
7 -0.57
8 -0.48
9 0.48

>  <PUBCHEM_EFFECTIVE_ROTOR_COUNT>  (1) 
7

>  <PUBCHEM_PHARMACOPHORE_FEATURES>  (1) 
10
1 1 hydrophobe
1 2 hydrophobe
1 3 hydrophobe
1 4 acceptor
1 5 acceptor
1 6 acceptor
1 7 acceptor
3 5 7 22 anion
6 10 13 17 21 25 26 rings
6 11 12 15 16 18 19 rings

>  <PUBCHEM_HEAVY_ATOM_COUNT>  (1) 
27

>  <PUBCHEM_ATOM_DEF_STEREO_COUNT>  (1) 
0

>  <PUBCHEM_ATOM_UDEF_STEREO_COUNT>  (1) 
1

>  <PUBCHEM_BOND_DEF_STEREO_COUNT>  (1) 
0

>  <PUBCHEM_BOND_UDEF_STEREO_COUNT>  (1) 
0

>  <PUBCHEM_ISOTOPIC_ATOM_COUNT>  (1) 
0

>  <PUBCHEM_COMPONENT_COUNT>  (1) 
1

>  <PUBCHEM_CACTVS_TAUTO_COUNT>  (1) 
1

>  <PUBCHEM_CONFORMER_ID>  (1) 
00007BD300000001

>  <PUBCHEM_MMFF94_ENERGY>  (1) 
120.76

>  <PUBCHEM_FEATURE_SELFOVERLAP>  (1) 
50.81

>  <PUBCHEM_SHAPE_FINGERPRINT>  (1) 
10090160 65 18333447651326770571
10366900 7 18271810158880793800
10498660 4 18265905820410801278
10670039 82 18336844013223350188
11578080 2 13696740106772838390
12166972 35 18040713667263546580
12403260 363 18337107848405482762
12553582 1 18201719574149808025
12788726 201 18130514067279681033
128620 24 18272084989574661315
13140716 1 18125997406456108642
13224815 77 18334019354227855505
13911987 19 18335706095612631391
14787075 74 18261394511465262779
14790565 3 18341344292688149793
14840074 17 18059862787621480997
15537594 2 17918275372287885343
15961568 22 16805893990883842436
17349148 13 18408602531260343394
17909252 39 17917159273713229014
1813 80 17703796941935340161
19319366 153 18335695057363070919
20715895 44 17679285396178767981
21421861 104 10663817422033593470
22149856 69 18270136677194808899
22393880 68 18122905326487860358
23227448 37 17677620937210911375
23402539 116 18343011181963507873
23557571 272 17822003203907362157
23558518 356 18191875509191798395
23559900 14 18263075522593519195
312423 11 18270128898270043546
3380486 145 18120114989705592651
350125 39 18267597809633994570
508706 21 18115868486482391644
5104073 3 18200312091654878227
59755656 215 18341614794303162566
6669772 16 18056752350968453160
77296 10 16515674537846388499

>  <PUBCHEM_SHAPE_MULTIPOLES>  (1) 
563
11.82
3.24
1.74
0.61
0.2
-0.76
1.93
-1.35
-0.99
0.16
-0.15
-0.58
0.3

>  <PUBCHEM_SHAPE_SELFOVERLAP>  (1) 
1127.799

>  <PUBCHEM_SHAPE_VOLUME>  (1) 
340.1

>  <PUBCHEM_COORDINATE_TYPE>  (1) 
2
5
10

$$$$
