31719
     RDKit          3D

 31 34  0  0  1  0  0  0  0  0999 V2000
   -1.5392   -0.0138   -1.4111 F   0  0  0  0  0  0  0  0  0  0  0  0
    2.7138   -1.0383   -1.8019 O   0  0  0  0  0  0  0  0  0  0  0  0
   -0.3048    1.4653    1.6306 O   0  0  0  0  0  0  0  0  0  0  0  0
    4.8095   -1.6353    0.6355 O   0  0  0  0  0  0  0  0  0  0  0  0
   -6.5861    0.9562   -1.5572 O   0  0  0  0  0  0  0  0  0  0  0  0
    5.6496    0.8671   -0.1597 O   0  0  0  0  0  0  0  0  0  0  0  0
    5.2566    3.1398   -0.2941 O   0  0  0  0  0  0  0  0  0  0  0  0
    1.4517   -0.7245    0.2843 C   0  0  0  0  0  0  0  0  0  0  0  0
    0.3613   -1.7107   -0.1879 C   0  0  0  0  0  0  0  0  0  0  0  0
   -1.0253   -1.4095    0.3991 C   0  0  0  0  0  0  0  0  0  0  0  0
   -1.4617    0.0301   -0.0255 C   0  0  0  0  0  0  0  0  0  0  0  0
   -2.9249    0.3954    0.4705 C   0  0  0  0  0  0  0  0  0  0  0  0
    2.6878   -1.3559   -0.4136 C   0  0  0  0  0  0  0  0  0  0  0  0
    1.0444    0.6803   -0.2026 C   0  0  0  0  0  0  0  0  0  0  0  0
   -0.3679    1.1024    0.2602 C   0  0  0  0  0  0  0  0  0  0  0  0
    0.9867   -3.0795    0.0697 C   0  0  0  0  0  0  0  0  0  0  0  0
    2.4841   -2.8785   -0.2426 C   0  0  0  0  0  0  0  0  0  0  0  0
   -2.0498   -2.4465   -0.0907 C   0  0  0  0  0  0  0  0  0  0  0  0
   -3.8750   -0.7251    0.0333 C   0  0  0  0  0  0  0  0  0  0  0  0
    1.6621   -0.7304    1.8237 C   0  0  0  0  0  0  0  0  0  0  0  0
   -3.4561   -2.1296    0.3986 C   0  0  0  0  0  0  0  0  0  0  0  0
   -3.3403    1.7460   -0.1884 C   0  0  0  0  0  0  0  0  0  0  0  0
   -3.0243    0.5116    2.0102 C   0  0  0  0  0  0  0  0  0  0  0  0
    4.0013   -0.8650    0.1192 C   0  0  0  0  0  0  0  0  0  0  0  0
   -4.8414    2.0206   -0.3014 C   0  0  0  0  0  0  0  0  0  0  0  0
   -5.0333   -0.5283   -0.6167 C   0  0  0  0  0  0  0  0  0  0  0  0
   -5.5536    0.8283   -0.9005 C   0  0  0  0  0  0  0  0  0  0  0  0
    4.2670    0.6193   -0.0160 C   0  0  0  0  0  0  0  0  0  0  0  0
   -5.5159    2.4346    1.0000 C   0  0  0  0  0  0  0  0  0  0  0  0
    6.0180    2.1820   -0.2914 C   0  0  0  0  0  0  0  0  0  0  0  0
    7.5059    2.2922   -0.4338 C   0  0  0  0  0  0  0  0  0  0  0  0
  1 11  1  0
  2 13  1  0
  3 15  1  0
  4 24  2  0
  5 27  2  0
  6 28  1  0
  6 30  1  0
  7 30  2  0
  8  9  1  0
  8 13  1  0
  8 14  1  0
  8 20  1  0
  9 10  1  0
  9 16  1  0
 10 11  1  0
 10 18  1  0
 11 12  1  0
 11 15  1  0
 12 19  1  0
 12 22  1  0
 12 23  1  0
 13 17  1  0
 13 24  1  0
 14 15  1  0
 16 17  1  0
 18 21  1  0
 19 21  1  0
 19 26  2  0
 22 25  1  0
 24 28  1  0
 25 27  1  0
 25 29  1  0
 26 27  1  0
 30 31  1  0
M  END
>  <PUBCHEM_COMPOUND_CID>  (1) 
31719

>  <PUBCHEM_CONFORMER_RMSD>  (1) 
0.8

>  <PUBCHEM_CONFORMER_DIVERSEORDER>  (1) 
1
5
9
10
6
2
11
7
4
3
8

>  <PUBCHEM_MMFF94_PARTIAL_CHARGES>  (1) 
23
1 -0.34
11 0.34
12 0.14
13 0.34
15 0.28
19 -0.28
2 -0.68
21 0.14
24 0.45
25 0.06
26 -0.14
27 0.49
28 0.34
3 -0.68
30 0.66
31 0.06
4 -0.57
5 -0.57
54 0.4
55 0.15
56 0.4
6 -0.43
7 -0.57

>  <PUBCHEM_EFFECTIVE_ROTOR_COUNT>  (1) 
5.8

>  <PUBCHEM_PHARMACOPHORE_FEATURES>  (1) 
11
1 2 acceptor
1 2 donor
1 3 acceptor
1 3 donor
1 4 acceptor
1 5 acceptor
1 7 acceptor
5 8 9 13 16 17 rings
6 10 11 12 18 19 21 rings
6 12 19 22 25 26 27 rings
6 8 9 10 11 14 15 rings

>  <PUBCHEM_HEAVY_ATOM_COUNT>  (1) 
31

>  <PUBCHEM_ATOM_DEF_STEREO_COUNT>  (1) 
8

>  <PUBCHEM_ATOM_UDEF_STEREO_COUNT>  (1) 
0

>  <PUBCHEM_BOND_DEF_STEREO_COUNT>  (1) 
0

>  <PUBCHEM_BOND_UDEF_STEREO_COUNT>  (1) 
0

>  <PUBCHEM_ISOTOPIC_ATOM_COUNT>  (1) 
0

>  <PUBCHEM_COMPONENT_COUNT>  (1) 
1

>  <PUBCHEM_CACTVS_TAUTO_COUNT>  (1) 
10

>  <PUBCHEM_CONFORMER_ID>  (1) 
00007BE700000001

>  <PUBCHEM_MMFF94_ENERGY>  (1) 
104.1246

>  <PUBCHEM_FEATURE_SELFOVERLAP>  (1) 
55.915

>  <PUBCHEM_SHAPE_FINGERPRINT>  (1) 
10 15 18113340833572045064
10366900 7 17346596382868252851
10675989 125 17975411313726555937
10835480 77 18335416868072485589
10906281 52 17917160399062511153
11578080 2 17459445819726146668
11961588 58 18334006194849039315
12236239 1 17774432764337895407
12422481 6 17240481437940716380
12788726 201 17416687938525559385
13224815 77 18201439121359768843
13631057 29 18128253579084941231
13690498 29 17629758126623095463
13726171 33 18411708702768929016
13911852 28 9295298218232541920
13911987 19 17917714629551969534
14528608 73 18412545405542690036
14787075 74 18273215326246212746
14790565 3 18411138013173630601
14931854 50 18059586814899465160
15196674 1 18410575071852471834
15788980 27 16298674893150748155
15961568 22 18187081758743912068
17980427 23 17458911556254908262
1813 80 12823287983937367834
18608769 82 18409169952850220067
200 152 17489013865652356327
20511986 3 18113888373188225790
20715895 44 18337107865458660268
21033648 144 18186512207451357575
21304253 335 18187369861102183806
23522609 53 17774737355134964785
23559900 14 18269838606153333278
2838139 119 18189612753032546293
335352 9 18338234865505177294
34797466 226 18131641070802863991
34934 24 18408601452706950926
350125 39 18340772645483664363
4073 2 18259989287843418883
4340502 62 16950853500895101467
465052 167 8646772214153827752
5104073 3 18113903749255561602
6328613 192 18410854356496088321
636775 8 8718286663050851352
9981440 41 18261400009076318610

>  <PUBCHEM_SHAPE_MULTIPOLES>  (1) 
595.48
15.02
3.23
1.24
9.62
0.24
-0.26
-13.14
3.33
2.24
0.06
-0.83
-0.15
-0.49

>  <PUBCHEM_SHAPE_SELFOVERLAP>  (1) 
1279.321

>  <PUBCHEM_SHAPE_VOLUME>  (1) 
328.7

>  <PUBCHEM_COORDINATE_TYPE>  (1) 
2
5
10

$$$$
