31726
     RDKit          3D

 23 24  0  0  1  0  0  0  0  0999 V2000
   -0.1647    2.2149    0.1816 S   0  0  0  0  0  0  0  0  0  0  0  0
   -1.6440   -2.1661    0.6835 O   0  0  0  0  0  0  0  0  0  0  0  0
    4.2984    0.7407    0.0510 O   0  0  0  0  0  0  0  0  0  0  0  0
    2.0911   -2.6133    0.6293 O   0  0  0  0  0  0  0  0  0  0  0  0
    1.0729   -2.4938   -1.4151 O   0  0  0  0  0  0  0  0  0  0  0  0
   -4.4833   -0.6855    0.6568 O   0  0  0  0  0  0  0  0  0  0  0  0
    5.9898    0.1746   -1.4174 O   0  0  0  0  0  0  0  0  0  0  0  0
   -0.0856   -0.3965    0.6554 N   0  0  0  0  0  0  0  0  0  0  0  0
   -2.8085    0.9119    0.4819 N   0  0  0  0  0  0  0  0  0  0  0  0
   -7.2074    0.2260   -1.3357 N   0  0  0  0  0  0  0  0  0  0  0  0
   -0.4307    0.8430    1.3276 C   0  0  0  0  0  0  0  0  0  0  0  0
   -1.8688    0.2861    1.4092 C   0  0  0  0  0  0  0  0  0  0  0  0
   -1.2504   -1.0410    0.8844 C   0  0  0  0  0  0  0  0  0  0  0  0
    1.1067   -0.6178    0.0444 C   0  0  0  0  0  0  0  0  0  0  0  0
    1.9563    0.3984   -0.2374 C   0  0  0  0  0  0  0  0  0  0  0  0
    1.6185    1.8675    0.0062 C   0  0  0  0  0  0  0  0  0  0  0  0
    3.3304    0.2256   -0.8386 C   0  0  0  0  0  0  0  0  0  0  0  0
    1.4047   -2.0011   -0.3556 C   0  0  0  0  0  0  0  0  0  0  0  0
   -4.0569    0.3632    0.1797 C   0  0  0  0  0  0  0  0  0  0  0  0
   -4.8302    1.2120   -0.8087 C   0  0  0  0  0  0  0  0  0  0  0  0
    5.6044    0.6542   -0.3598 C   0  0  0  0  0  0  0  0  0  0  0  0
   -6.1570    0.6599   -1.1014 C   0  0  0  0  0  0  0  0  0  0  0  0
    6.5145    1.2370    0.6785 C   0  0  0  0  0  0  0  0  0  0  0  0
  1 11  1  0
  1 16  1  0
  2 13  2  0
  3 17  1  0
  3 21  1  0
  4 18  1  0
  5 18  2  0
  6 19  2  0
  7 21  2  0
  8 11  1  0
  8 13  1  0
  8 14  1  0
  9 12  1  0
  9 19  1  0
 10 22  3  0
 11 12  1  0
 12 13  1  0
 14 15  2  0
 14 18  1  0
 15 16  1  0
 15 17  1  0
 19 20  1  0
 20 22  1  0
 21 23  1  0
M  END
>  <PUBCHEM_COMPOUND_CID>  (1) 
31726

>  <PUBCHEM_CONFORMER_RMSD>  (1) 
0.8

>  <PUBCHEM_CONFORMER_DIVERSEORDER>  (1) 
1
32
72
40
23
37
54
76
46
17
68
52
58
65
2
71
43
39
75
61
21
14
10
20
77
4
12
15
57
62
51
31
30
35
47
45
66
24
27
26
11
41
56
48
74
38
28
55
60
16
53
59
5
8
64
29
33
25
3
6
67
36
50
63
13
22
19
73
49
34
9
42
18
69
44
7
70

>  <PUBCHEM_MMFF94_PARTIAL_CHARGES>  (1) 
25
1 -0.45
10 -0.56
11 0.44
12 0.28
13 0.58
14 0.12
15 -0.28
16 0.37
17 0.42
18 0.71
19 0.57
2 -0.57
20 0.26
21 0.66
22 0.36
23 0.06
28 0.37
3 -0.43
33 0.5
4 -0.65
5 -0.57
6 -0.57
7 -0.57
8 -0.39
9 -0.65

>  <PUBCHEM_EFFECTIVE_ROTOR_COUNT>  (1) 
7.6

>  <PUBCHEM_PHARMACOPHORE_FEATURES>  (1) 
10
1 10 acceptor
1 2 acceptor
1 4 acceptor
1 5 acceptor
1 6 acceptor
1 7 acceptor
1 9 donor
3 4 5 18 anion
4 8 11 12 13 rings
6 1 8 11 14 15 16 rings

>  <PUBCHEM_HEAVY_ATOM_COUNT>  (1) 
23

>  <PUBCHEM_ATOM_DEF_STEREO_COUNT>  (1) 
2

>  <PUBCHEM_ATOM_UDEF_STEREO_COUNT>  (1) 
0

>  <PUBCHEM_BOND_DEF_STEREO_COUNT>  (1) 
0

>  <PUBCHEM_BOND_UDEF_STEREO_COUNT>  (1) 
0

>  <PUBCHEM_ISOTOPIC_ATOM_COUNT>  (1) 
0

>  <PUBCHEM_COMPONENT_COUNT>  (1) 
1

>  <PUBCHEM_CACTVS_TAUTO_COUNT>  (1) 
2

>  <PUBCHEM_CONFORMER_ID>  (1) 
00007BEE00000001

>  <PUBCHEM_MMFF94_ENERGY>  (1) 
53.9688

>  <PUBCHEM_FEATURE_SELFOVERLAP>  (1) 
51.064

>  <PUBCHEM_SHAPE_FINGERPRINT>  (1) 
10693767 8 17988362559811120686
10906281 52 18262820487477784648
12011746 2 18411141333547301820
12236239 1 16988849362522851513
13083527 12 18120645839009866898
13140716 1 18123773073132640544
13257819 101 17603575322738005078
13968360 50 18412822461014553182
14341114 176 10015576216677412519
14849402 71 10809929382595734782
15048467 5 15574715811496201524
15238133 3 13262684699233010439
18769570 83 16877942724256928125
200 152 17561371668407147953
20554085 129 18271226293053820074
21521239 73 17775288235934508302
21637258 2 14764341613846292109
21709351 56 18336548325824992037
21859007 373 18115291359206709004
22182313 1 18125471728445685454
23402539 116 17676204697282535933
23559900 14 18271242832472294888
23622692 88 11746937585848481121
2748010 2 18052556635470141088
2838139 119 17385718115171421237
3009799 131 18342736338390324528
34934 24 18409166610568857826
4072396 5 18334003983172899760
57003041 33 18411987948884387460
59554788 191 18264496267688678606
59755656 215 18335699429512424125
59755656 520 15719668840501558281

>  <PUBCHEM_SHAPE_MULTIPOLES>  (1) 
427.02
14.18
2.21
1.24
3.92
1.16
-0.07
-5.31
-5.92
-0.91
0
0.49
0.1
0.74

>  <PUBCHEM_SHAPE_SELFOVERLAP>  (1) 
877.779

>  <PUBCHEM_SHAPE_VOLUME>  (1) 
245.1

>  <PUBCHEM_COORDINATE_TYPE>  (1) 
2
5
10

$$$$
