31722
     RDKit          3D

 12 12  0  0  1  0  0  0  0  0999 V2000
    1.6537    0.4376    1.7900 O   0  0  0  0  0  0  0  0  0  0  0  0
    2.7734    1.2414   -0.0021 O   0  0  0  0  0  0  0  0  0  0  0  0
    1.4534   -0.3090   -1.7982 N   0  0  0  0  0  0  0  0  0  0  0  0
    1.0791   -0.4774   -0.3834 C   0  0  0  0  0  0  0  0  0  0  0  0
   -0.4121   -0.1767   -0.1878 C   0  0  0  0  0  0  0  0  0  0  0  0
    1.5049   -1.9032    0.0158 C   0  0  0  0  0  0  0  0  0  0  0  0
    1.9401    0.4707    0.4622 C   0  0  0  0  0  0  0  0  0  0  0  0
   -0.8766    1.0747   -0.5142 C   0  0  0  0  0  0  0  0  0  0  0  0
   -1.2219   -1.1712    0.3061 C   0  0  0  0  0  0  0  0  0  0  0  0
   -2.2328    1.3485   -0.3360 C   0  0  0  0  0  0  0  0  0  0  0  0
   -2.5780   -0.8977    0.4843 C   0  0  0  0  0  0  0  0  0  0  0  0
   -3.0833    0.3622    0.1633 C   0  0  0  0  0  0  0  0  0  0  0  0
  1  7  1  0
  2  7  2  0
  3  4  1  0
  4  5  1  0
  4  6  1  0
  4  7  1  0
  5  8  2  0
  5  9  1  0
  8 10  1  0
  9 11  2  0
 10 12  2  0
 11 12  1  0
M  END
>  <PUBCHEM_COMPOUND_CID>  (1) 
31722

>  <PUBCHEM_CONFORMER_RMSD>  (1) 
0.6

>  <PUBCHEM_CONFORMER_DIVERSEORDER>  (1) 
1
2
5
7
3
4
6

>  <PUBCHEM_MMFF94_PARTIAL_CHARGES>  (1) 
19
1 -0.65
10 -0.15
11 -0.15
12 -0.15
16 0.15
17 0.15
18 0.36
19 0.36
2 -0.57
20 0.15
21 0.15
22 0.15
23 0.5
3 -0.99
4 0.47
5 -0.14
7 0.66
8 -0.15
9 -0.15

>  <PUBCHEM_EFFECTIVE_ROTOR_COUNT>  (1) 
2

>  <PUBCHEM_PHARMACOPHORE_FEATURES>  (1) 
6
1 1 acceptor
1 2 acceptor
1 3 cation
1 3 donor
3 1 2 7 anion
6 5 8 9 10 11 12 rings

>  <PUBCHEM_HEAVY_ATOM_COUNT>  (1) 
12

>  <PUBCHEM_ATOM_DEF_STEREO_COUNT>  (1) 
0

>  <PUBCHEM_ATOM_UDEF_STEREO_COUNT>  (1) 
1

>  <PUBCHEM_BOND_DEF_STEREO_COUNT>  (1) 
0

>  <PUBCHEM_BOND_UDEF_STEREO_COUNT>  (1) 
0

>  <PUBCHEM_ISOTOPIC_ATOM_COUNT>  (1) 
0

>  <PUBCHEM_COMPONENT_COUNT>  (1) 
1

>  <PUBCHEM_CACTVS_TAUTO_COUNT>  (1) 
1

>  <PUBCHEM_CONFORMER_ID>  (1) 
00007BEA00000001

>  <PUBCHEM_MMFF94_ENERGY>  (1) 
32.6259

>  <PUBCHEM_FEATURE_SELFOVERLAP>  (1) 
30.507

>  <PUBCHEM_SHAPE_FINGERPRINT>  (1) 
107287 299 17989492947668006348
10857977 72 18335702788551084209
11031198 65 17346888865798572516
12326174 3 17560804273473811686
12423570 1 8548106489778090037
12524768 44 18261111859461323405
12932764 1 18272378542363606671
13839132 238 18337389348798387365
15219456 202 18413108338184431638
15775835 57 17703498995489595360
16945 1 18341039834976999193
19973954 147 18339360747487975121
20645464 45 18343302556887249883
21040471 1 18188777132700851631
21501502 16 18412539882061980787
21922407 69 16008760112155363893
230 275 18342450417990236464
23552423 10 17749963158715668603
2748010 2 18261960635351724839
369184 2 17167850972506139329
5084963 1 17897173416172983615
7364860 26 18339645521147431142

>  <PUBCHEM_SHAPE_MULTIPOLES>  (1) 
230.23
4.14
1.55
1.12
1.15
0.28
0.01
-0.65
0.47
-0.11
-0.01
-0.69
-0.07
0.42

>  <PUBCHEM_SHAPE_SELFOVERLAP>  (1) 
480.43

>  <PUBCHEM_SHAPE_VOLUME>  (1) 
130.7

>  <PUBCHEM_COORDINATE_TYPE>  (1) 
2
5
10

$$$$
