31734
     RDKit          3D

 29 33  0  0  1  0  0  0  0  0999 V2000
   -5.3177   -0.2947    0.4051 N   0  0  0  0  0  0  0  0  0  0  0  0
    1.0575    0.6588    1.2577 N   0  0  0  0  0  0  0  0  0  0  0  0
   -2.6188   -0.1008   -0.6005 C   0  0  0  0  0  0  0  0  0  0  0  0
   -3.5341    1.0927   -0.6253 C   0  0  0  0  0  0  0  0  0  0  0  0
   -3.3353   -1.4234   -0.5763 C   0  0  0  0  0  0  0  0  0  0  0  0
   -1.2833    0.0051   -0.5696 C   0  0  0  0  0  0  0  0  0  0  0  0
   -4.5882    0.9824    0.4821 C   0  0  0  0  0  0  0  0  0  0  0  0
   -4.3968   -1.4373    0.5294 C   0  0  0  0  0  0  0  0  0  0  0  0
   -0.6457    1.3513   -0.4329 C   0  0  0  0  0  0  0  0  0  0  0  0
   -0.5263   -1.2653   -0.5482 C   0  0  0  0  0  0  0  0  0  0  0  0
    0.3520   -0.5457    1.6905 C   0  0  0  0  0  0  0  0  0  0  0  0
    0.4682    1.6130    0.4189 C   0  0  0  0  0  0  0  0  0  0  0  0
    0.2803   -1.5448    0.5666 C   0  0  0  0  0  0  0  0  0  0  0  0
    2.3905    0.8792    1.8140 C   0  0  0  0  0  0  0  0  0  0  0  0
   -6.3508   -0.3561    1.4388 C   0  0  0  0  0  0  0  0  0  0  0  0
   -1.1420    2.3795   -1.2718 C   0  0  0  0  0  0  0  0  0  0  0  0
   -0.5859   -2.1784   -1.6101 C   0  0  0  0  0  0  0  0  0  0  0  0
    0.9916    2.9313    0.3859 C   0  0  0  0  0  0  0  0  0  0  0  0
    1.0186   -2.7340    0.6065 C   0  0  0  0  0  0  0  0  0  0  0  0
    3.4716    0.3685    0.8989 C   0  0  0  0  0  0  0  0  0  0  0  0
   -0.5951    3.6582   -1.2672 C   0  0  0  0  0  0  0  0  0  0  0  0
    0.1500   -3.3623   -1.5585 C   0  0  0  0  0  0  0  0  0  0  0  0
    0.4716    3.9357   -0.4335 C   0  0  0  0  0  0  0  0  0  0  0  0
    0.9506   -3.6396   -0.4522 C   0  0  0  0  0  0  0  0  0  0  0  0
    3.9136   -0.9408    1.0276 C   0  0  0  0  0  0  0  0  0  0  0  0
    4.0111    1.2142   -0.0602 C   0  0  0  0  0  0  0  0  0  0  0  0
    4.9152   -1.4140    0.1800 C   0  0  0  0  0  0  0  0  0  0  0  0
    5.0128    0.7409   -0.9078 C   0  0  0  0  0  0  0  0  0  0  0  0
    5.4649   -0.5733   -0.7878 C   0  0  0  0  0  0  0  0  0  0  0  0
  1  7  1  0
  1  8  1  0
  1 15  1  0
  2 11  1  0
  2 12  1  0
  2 14  1  0
  3  4  1  0
  3  5  1  0
  3  6  2  3
  4  7  1  0
  5  8  1  0
  6  9  1  0
  6 10  1  0
  9 12  2  0
  9 16  1  0
 10 13  2  0
 10 17  1  0
 11 13  1  0
 12 18  1  0
 13 19  1  0
 14 20  1  0
 16 21  2  0
 17 22  2  0
 18 23  2  0
 19 24  2  0
 20 25  2  0
 20 26  1  0
 21 23  1  0
 22 24  1  0
 25 27  1  0
 26 28  2  0
 27 29  2  0
 28 29  1  0
M  END
>  <PUBCHEM_COMPOUND_CID>  (1) 
31734

>  <PUBCHEM_CONFORMER_RMSD>  (1) 
0.8

>  <PUBCHEM_CONFORMER_DIVERSEORDER>  (1) 
1
11
23
4
17
20
5
7
19
8
16
24
14
10
25
12
13
6
26
27
2
9
22
3
21
15
18

>  <PUBCHEM_MMFF94_PARTIAL_CHARGES>  (1) 
42
1 -0.81
10 0.03
11 0.51
12 0.1
13 -0.14
14 0.51
15 0.27
16 -0.15
17 -0.15
18 -0.15
19 -0.15
2 -0.84
20 -0.14
21 -0.15
22 -0.15
23 -0.15
24 -0.15
25 -0.15
26 -0.15
27 -0.15
28 -0.15
29 -0.15
3 -0.28
4 0.14
45 0.15
46 0.15
47 0.15
48 0.15
49 0.15
5 0.14
50 0.15
51 0.15
52 0.15
53 0.15
54 0.15
55 0.15
56 0.15
57 0.15
6 -0.06
7 0.27
8 0.27
9 0.03

>  <PUBCHEM_EFFECTIVE_ROTOR_COUNT>  (1) 
3.4

>  <PUBCHEM_PHARMACOPHORE_FEATURES>  (1) 
7
1 1 cation
1 2 cation
6 1 3 4 5 7 8 rings
6 10 13 17 19 22 24 rings
6 20 25 26 27 28 29 rings
6 9 12 16 18 21 23 rings
7 2 6 9 10 11 12 13 rings

>  <PUBCHEM_HEAVY_ATOM_COUNT>  (1) 
29

>  <PUBCHEM_ATOM_DEF_STEREO_COUNT>  (1) 
0

>  <PUBCHEM_ATOM_UDEF_STEREO_COUNT>  (1) 
0

>  <PUBCHEM_BOND_DEF_STEREO_COUNT>  (1) 
0

>  <PUBCHEM_BOND_UDEF_STEREO_COUNT>  (1) 
0

>  <PUBCHEM_ISOTOPIC_ATOM_COUNT>  (1) 
0

>  <PUBCHEM_COMPONENT_COUNT>  (1) 
1

>  <PUBCHEM_CACTVS_TAUTO_COUNT>  (1) 
1

>  <PUBCHEM_CONFORMER_ID>  (1) 
00007BF600000001

>  <PUBCHEM_MMFF94_ENERGY>  (1) 
124.9634

>  <PUBCHEM_FEATURE_SELFOVERLAP>  (1) 
35.54

>  <PUBCHEM_SHAPE_FINGERPRINT>  (1) 
10674148 151 17489320663861563824
10906281 52 18119800323511703797
11488393 25 18055641611668911566
11578080 2 16662598862515391327
12107698 1 18041841702133106322
12422481 6 18268432321779263361
12553582 1 18262501659212386745
12592029 89 18413109429006346530
12788726 201 18408887309357386076
13140716 1 18267307728228442889
14114211 80 18271260420626849358
14363568 33 18335421321969863265
14713325 29 18121777227837194040
14787075 74 17676488354208069811
14790565 3 18410860983520220028
14840074 17 18410301310583835509
14955137 171 18410019866110031777
15420108 30 17916863522438858247
15927050 60 17761784261360011836
1601671 61 18412262830933051809
17980427 26 15696276682933508482
19319366 153 17676761076584886850
19591789 44 18411409622710403364
20028762 73 18129096913114732911
20691752 17 18267560555383016134
20739085 24 18410577292487460881
20832881 197 17489591156047963866
20905425 154 18124025729010442542
21033648 29 17917140723226816547
21285901 2 18200884989353573150
21330990 113 18342459188303022324
22950370 63 18334295370311994425
3178227 256 18337966683140348945
350125 39 18339358540428588530
3737641 26 18268151954962448875
59554788 170 18409161147444823356

>  <PUBCHEM_SHAPE_MULTIPOLES>  (1) 
586.84
10.07
4.17
1.49
3.19
1.03
-0.14
-1.62
-2.25
-0.61
1.73
-0.03
-0.16
0.32

>  <PUBCHEM_SHAPE_SELFOVERLAP>  (1) 
1293.042

>  <PUBCHEM_SHAPE_VOLUME>  (1) 
308.8

>  <PUBCHEM_COORDINATE_TYPE>  (1) 
2
5
10

$$$$
