31736
     RDKit          3D

 19 20  0  0  0  0  0  0  0  0999 V2000
    0.4655    0.3048    0.5328 O   0  0  0  0  0  0  0  0  0  0  0  0
   -0.8357    0.1264    2.4119 O   0  0  0  0  0  0  0  0  0  0  0  0
   -3.2700   -2.6372   -0.2298 O   0  0  0  0  0  0  0  0  0  0  0  0
   -1.0600   -2.2130    0.0906 O   0  0  0  0  0  0  0  0  0  0  0  0
    2.8372    0.0385    0.4353 C   0  0  0  0  0  0  0  0  0  0  0  0
   -1.8697    0.6188    0.3389 C   0  0  0  0  0  0  0  0  0  0  0  0
    1.6272    0.0255    1.3225 C   0  0  0  0  0  0  0  0  0  0  0  0
   -2.5749   -0.4024   -0.2979 C   0  0  0  0  0  0  0  0  0  0  0  0
   -0.7319    0.3291    1.2019 C   0  0  0  0  0  0  0  0  0  0  0  0
   -2.2494    1.9485    0.1547 C   0  0  0  0  0  0  0  0  0  0  0  0
    3.2508   -1.1368   -0.1820 C   0  0  0  0  0  0  0  0  0  0  0  0
    3.5338    1.2256    0.2381 C   0  0  0  0  0  0  0  0  0  0  0  0
   -3.6598   -0.0941   -1.1186 C   0  0  0  0  0  0  0  0  0  0  0  0
   -3.3345    2.2567   -0.6659 C   0  0  0  0  0  0  0  0  0  0  0  0
   -4.0395    1.2356   -1.3026 C   0  0  0  0  0  0  0  0  0  0  0  0
    4.3755   -1.1248   -1.0069 C   0  0  0  0  0  0  0  0  0  0  0  0
    4.6585    1.2374   -0.5870 C   0  0  0  0  0  0  0  0  0  0  0  0
    5.0793    0.0621   -1.2095 C   0  0  0  0  0  0  0  0  0  0  0  0
   -2.2024   -1.8007   -0.1262 C   0  0  0  0  0  0  0  0  0  0  0  0
  1  7  1  0
  1  9  1  0
  2  9  2  0
  3 19  1  0
  4 19  2  0
  5  7  1  0
  5 11  2  0
  5 12  1  0
  6  8  2  0
  6  9  1  0
  6 10  1  0
  8 13  1  0
  8 19  1  0
 10 14  2  0
 11 16  1  0
 12 17  2  0
 13 15  2  0
 14 15  1  0
 16 18  2  0
 17 18  1  0
M  END
>  <PUBCHEM_COMPOUND_CID>  (1) 
31736

>  <PUBCHEM_CONFORMER_RMSD>  (1) 
0.6

>  <PUBCHEM_CONFORMER_DIVERSEORDER>  (1) 
1
78
28
72
3
73
60
13
41
43
62
5
29
95
77
42
32
59
61
70
4
71
6
45
2
76
74
83
58
75
11
35
92
57
87
12
90
10
8
33
30
9
20
14
102
7
34
21
50
52
40
31
101
86
91
26
51
36
49
15
37
27
64
66
25
39
38
65
24
100
99
54
98
23
97
22
53
79
67
80
17
16
69
44
68
63
55
46
19
56
18
93
48
96
47
94
82
81
84
85
88
89

>  <PUBCHEM_MMFF94_PARTIAL_CHARGES>  (1) 
29
1 -0.43
10 -0.15
11 -0.15
12 -0.15
13 -0.15
14 -0.15
15 -0.15
16 -0.15
17 -0.15
18 -0.15
19 0.63
2 -0.57
22 0.15
23 0.15
24 0.15
25 0.15
26 0.15
27 0.15
28 0.15
29 0.15
3 -0.65
30 0.15
31 0.5
4 -0.57
5 -0.14
6 0.09
7 0.42
8 0.09
9 0.63

>  <PUBCHEM_EFFECTIVE_ROTOR_COUNT>  (1) 
5

>  <PUBCHEM_PHARMACOPHORE_FEATURES>  (1) 
6
1 2 acceptor
1 3 acceptor
1 4 acceptor
3 3 4 19 anion
6 5 11 12 16 17 18 rings
6 6 8 10 13 14 15 rings

>  <PUBCHEM_HEAVY_ATOM_COUNT>  (1) 
19

>  <PUBCHEM_ATOM_DEF_STEREO_COUNT>  (1) 
0

>  <PUBCHEM_ATOM_UDEF_STEREO_COUNT>  (1) 
0

>  <PUBCHEM_BOND_DEF_STEREO_COUNT>  (1) 
0

>  <PUBCHEM_BOND_UDEF_STEREO_COUNT>  (1) 
0

>  <PUBCHEM_ISOTOPIC_ATOM_COUNT>  (1) 
0

>  <PUBCHEM_COMPONENT_COUNT>  (1) 
1

>  <PUBCHEM_CACTVS_TAUTO_COUNT>  (1) 
1

>  <PUBCHEM_CONFORMER_ID>  (1) 
00007BF800000001

>  <PUBCHEM_MMFF94_ENERGY>  (1) 
60.0607

>  <PUBCHEM_FEATURE_SELFOVERLAP>  (1) 
30.505

>  <PUBCHEM_SHAPE_FINGERPRINT>  (1) 
10498660 4 18334288777705824780
107951 10 18409448051492142719
11370993 70 18412260614846329206
11543360 7 18410294739748232712
12173636 292 18336252475492566853
12186901 62 18409164420309460483
12363563 72 16056876918857202792
12553582 1 15985110738434483286
12670546 177 18411983563807116084
12707595 3 16630802218943020144
12788726 201 17823130306115463091
12892183 10 9295286128009977204
13675066 3 11241963789938875552
13994607 96 17168157714786320293
14123260 362 16805326591201863356
14341114 328 9078816520505842014
15163728 17 17608919899149373837
15342168 16 15647335195555905677
15463212 79 17968085447717337562
15475509 35 12387520894733847837
16752209 62 16988278673206979490
17870717 6 18131078112291163094
18186145 218 18272929410236356048
19862831 5 18201718427525220400
200 152 16630524020715048204
20325693 3 18410576180301778229
20645477 70 16773790416280134172
20871999 31 18411418435856661637
21713013 43 18201163242857001838
21864079 5 15936408923080724228
22079108 93 16515412837374186721
22393880 68 18411421709386944302
22646028 28 15267339613478773268
22907989 373 18201445799917739669
23366157 5 17539957391762755963
23402539 116 17676489454468718628
23402655 69 18260834774389803124
23526113 38 17345450717679883995
23557571 272 18265324191375837896
23559900 14 18201992236254580160
2838139 119 16228547977491750069
312423 11 15195569030767447280
312425 83 18334584499505872628
4028521 119 17967530142816265508
474 4 17022904557897852420
49207404 50 11819271118581859312
4921388 177 18409453600193808087
633830 44 16950289486074470898
93112 12 18411981347540648600
9709674 26 18201427125336314750

>  <PUBCHEM_SHAPE_MULTIPOLES>  (1) 
367.53
10.16
2.18
1.4
8.83
0.67
-0.48
-1.62
5.17
-2.12
0.36
-0.05
-0.14
0.44

>  <PUBCHEM_SHAPE_SELFOVERLAP>  (1) 
792.893

>  <PUBCHEM_SHAPE_VOLUME>  (1) 
201.1

>  <PUBCHEM_COORDINATE_TYPE>  (1) 
2
5
10

$$$$
