31731
     RDKit          3D

 15 17  0  0  0  0  0  0  0  0999 V2000
   -4.2699   -0.0195    0.0082 N   0  0  0  0  0  0  0  0  0  0  0  0
    3.3954   -1.2237    0.0009 N   0  0  0  0  0  0  0  0  0  0  0  0
   -0.1630    0.0172   -0.0010 C   0  0  0  0  0  0  0  0  0  0  0  0
   -2.8096   -0.0063   -0.0017 C   0  0  0  0  0  0  0  0  0  0  0  0
   -0.7412    0.7383   -1.2516 C   0  0  0  0  0  0  0  0  0  0  0  0
   -0.7323   -1.4333   -0.0175 C   0  0  0  0  0  0  0  0  0  0  0  0
   -0.7421    0.7098    1.2651 C   0  0  0  0  0  0  0  0  0  0  0  0
   -2.2772    0.7264   -1.2469 C   0  0  0  0  0  0  0  0  0  0  0  0
   -2.2676   -1.4437   -0.0160 C   0  0  0  0  0  0  0  0  0  0  0  0
   -2.2781    0.7009    1.2574 C   0  0  0  0  0  0  0  0  0  0  0  0
    1.3270    0.0236   -0.0008 C   0  0  0  0  0  0  0  0  0  0  0  0
    2.0355    1.2184    0.0005 C   0  0  0  0  0  0  0  0  0  0  0  0
    2.0450   -1.1598   -0.0008 C   0  0  0  0  0  0  0  0  0  0  0  0
    3.4258    1.1936    0.0020 C   0  0  0  0  0  0  0  0  0  0  0  0
    4.0523   -0.0421    0.0023 C   0  0  0  0  0  0  0  0  0  0  0  0
  1  4  1  0
  2 13  2  0
  2 15  1  0
  3  5  1  0
  3  6  1  0
  3  7  1  0
  3 11  1  0
  4  8  1  0
  4  9  1  0
  4 10  1  0
  5  8  1  0
  6  9  1  0
  7 10  1  0
 11 12  2  0
 11 13  1  0
 12 14  1  0
 14 15  2  0
M  END
>  <PUBCHEM_COMPOUND_CID>  (1) 
31731

>  <PUBCHEM_CONFORMER_RMSD>  (1) 
0.6

>  <PUBCHEM_CONFORMER_DIVERSEORDER>  (1) 
1

>  <PUBCHEM_MMFF94_PARTIAL_CHARGES>  (1) 
15
1 -0.99
11 -0.14
12 -0.15
13 0.16
14 -0.15
15 0.16
2 -0.62
28 0.36
29 0.36
3 0.14
30 0.15
31 0.15
32 0.15
33 0.15
4 0.27

>  <PUBCHEM_EFFECTIVE_ROTOR_COUNT>  (1) 
2.2

>  <PUBCHEM_PHARMACOPHORE_FEATURES>  (1) 
5
1 1 cation
1 1 donor
1 2 acceptor
6 2 11 12 13 14 15 rings
8 3 4 5 6 7 8 9 10 rings

>  <PUBCHEM_HEAVY_ATOM_COUNT>  (1) 
15

>  <PUBCHEM_ATOM_DEF_STEREO_COUNT>  (1) 
0

>  <PUBCHEM_ATOM_UDEF_STEREO_COUNT>  (1) 
0

>  <PUBCHEM_BOND_DEF_STEREO_COUNT>  (1) 
0

>  <PUBCHEM_BOND_UDEF_STEREO_COUNT>  (1) 
0

>  <PUBCHEM_ISOTOPIC_ATOM_COUNT>  (1) 
0

>  <PUBCHEM_COMPONENT_COUNT>  (1) 
1

>  <PUBCHEM_CACTVS_TAUTO_COUNT>  (1) 
1

>  <PUBCHEM_CONFORMER_ID>  (1) 
00007BF300000001

>  <PUBCHEM_MMFF94_ENERGY>  (1) 
47.356

>  <PUBCHEM_FEATURE_SELFOVERLAP>  (1) 
25.371

>  <PUBCHEM_SHAPE_FINGERPRINT>  (1) 
10608611 8 18333723628829621612
11132069 177 18335134340849665376
11471102 20 18411697686425415452
11769659 78 18340482369628567943
12251169 10 18411986870509719682
12932764 1 18040150699971734042
13024252 1 14996001047491663941
13296908 3 17821729429342626862
13538477 17 17632289124842751974
13581323 91 18259423030817504590
14115302 16 18271530887174826452
14144814 61 18343023272486252672
15219456 202 18260259729180618460
15309172 13 18409172099273304850
15375462 478 17775569727648008329
15775835 57 18333170574380395850
16945 1 18338798914088770767
17844478 74 17894636937046983933
18175812 5 18041001764610075767
18186145 218 18412546492201057838
19422 9 17989211425546947058
200 152 18130781274158528927
20201158 50 18411699876732434598
20279233 1 17603588525805043586
20528008 55 18411417332092329555
20645477 70 18336260146267747230
21267235 1 18342469135758607082
21501502 16 18338232794665840902
23402539 116 17561359570227917589
23559900 14 18202560701019654562
296302 2 18261394489583913028
3248919 1 18060700572294873950
369184 2 18411982463999887529
474 4 17844234354037569560
5104073 3 18411136974039329346
57812782 119 18040433295655282048
69090 78 18408317809035447983
74978 22 18343022224493191760
77492 1 17703789206530006272
8030462 33 17775283863567908728
81228 2 16733543793387776516

>  <PUBCHEM_SHAPE_MULTIPOLES>  (1) 
298.73
6.52
1.4
1.04
2.38
0.31
-0.01
-0.04
-0.01
0.34
0.01
-0.65
-0.32
0

>  <PUBCHEM_SHAPE_SELFOVERLAP>  (1) 
649.568

>  <PUBCHEM_SHAPE_VOLUME>  (1) 
158.4

>  <PUBCHEM_COORDINATE_TYPE>  (1) 
2
5
10

$$$$
