31745
     RDKit          3D

 25 27  0  0  1  0  0  0  0  0999 V2000
    1.0324    1.7677    0.0940 O   0  0  0  0  0  0  0  0  0  0  0  0
   -0.3124   -1.5797    0.1138 O   0  0  0  0  0  0  0  0  0  0  0  0
   -0.0675    1.1562    2.0376 O   0  0  0  0  0  0  0  0  0  0  0  0
   -3.8547   -1.0619    0.4666 O   0  0  0  0  0  0  0  0  0  0  0  0
   -1.7140   -1.6816    1.9397 O   0  0  0  0  0  0  0  0  0  0  0  0
   -2.9973   -3.4421   -0.6091 O   0  0  0  0  0  0  0  0  0  0  0  0
    3.6828   -0.2739   -1.0025 N   0  0  0  0  0  0  0  0  0  0  0  0
    2.2839   -0.2375   -0.4773 C   0  0  0  0  0  0  0  0  0  0  0  0
    2.2006    1.0020    0.4227 C   0  0  0  0  0  0  0  0  0  0  0  0
    3.4420    1.7966    0.0473 C   0  0  0  0  0  0  0  0  0  0  0  0
    4.4547    0.7027   -0.2211 C   0  0  0  0  0  0  0  0  0  0  0  0
    2.0670   -1.5574    0.2024 C   0  0  0  0  0  0  0  0  0  0  0  0
    4.1641   -1.6580   -0.8101 C   0  0  0  0  0  0  0  0  0  0  0  0
    3.1245   -2.3504    0.0056 C   0  0  0  0  0  0  0  0  0  0  0  0
    0.8197   -1.9018    0.9396 C   0  0  0  0  0  0  0  0  0  0  0  0
   -0.0249    1.6969    0.9433 C   0  0  0  0  0  0  0  0  0  0  0  0
   -2.6188   -1.1099   -0.2497 C   0  0  0  0  0  0  0  0  0  0  0  0
   -1.2108    2.2962    0.2914 C   0  0  0  0  0  0  0  0  0  0  0  0
   -1.5212   -1.4914    0.7447 C   0  0  0  0  0  0  0  0  0  0  0  0
   -2.4566    1.4542    0.1995 C   0  0  0  0  0  0  0  0  0  0  0  0
   -2.3409    0.2931   -0.7844 C   0  0  0  0  0  0  0  0  0  0  0  0
   -2.7556   -2.2289   -1.2922 C   0  0  0  0  0  0  0  0  0  0  0  0
   -1.1225    3.5658   -0.1287 C   0  0  0  0  0  0  0  0  0  0  0  0
   -2.0418    0.5441   -2.0728 C   0  0  0  0  0  0  0  0  0  0  0  0
   -2.2326    4.2991   -0.8002 C   0  0  0  0  0  0  0  0  0  0  0  0
  1  9  1  0
  1 16  1  0
  2 15  1  0
  2 19  1  0
  3 16  2  0
  4 17  1  0
  5 19  2  0
  6 22  1  0
  7  8  1  0
  7 11  1  0
  7 13  1  0
  8  9  1  0
  8 12  1  0
  9 10  1  0
 10 11  1  0
 12 14  2  0
 12 15  1  0
 13 14  1  0
 16 18  1  0
 17 19  1  0
 17 21  1  0
 17 22  1  0
 18 20  1  0
 18 23  2  0
 20 21  1  0
 21 24  2  0
 23 25  1  0
M  END
>  <PUBCHEM_COMPOUND_CID>  (1) 
31745

>  <PUBCHEM_CONFORMER_RMSD>  (1) 
0.6

>  <PUBCHEM_CONFORMER_DIVERSEORDER>  (1) 
1
56
176
159
99
120
95
118
174
29
112
57
48
117
134
168
64
147
68
124
88
47
156
165
113
63
137
38
27
145
80
18
141
132
107
83
108
37
148
149
66
123
39
65
131
155
138
140
136
72
130
19
166
58
97
6
10
146
78
11
15
71
125
85
158
61
94
100
24
157
81
126
91
170
167
52
73
70
104
121
28
9
153
164
171
41
62
60
172
175
30
103
122
86
152
90
144
4
53
105
142
8
31
33
173
133
115
35
87
84
54
43
102
139
162
74
46
69
116
23
26
114
32
44
177
14
106
163
154
36
76
5
160
3
109
42
161
178
55
16
22
119
67
150
20
111
25
51
2
93
34
96
50
129
13
179
110
101
82
79
98
7
77
12
89
21
17
127
59
169
45
151
75
40
143
49
128
135
92

>  <PUBCHEM_MMFF94_PARTIAL_CHARGES>  (1) 
30
1 -0.43
11 0.27
12 -0.28
13 0.41
14 -0.29
15 0.42
16 0.71
17 0.48
18 -0.12
19 0.66
2 -0.43
20 0.28
21 -0.28
22 0.28
23 -0.29
24 -0.3
25 0.14
3 -0.57
34 0.15
4 -0.68
41 0.15
42 0.4
43 0.15
44 0.15
48 0.4
5 -0.57
6 -0.68
7 -0.81
8 0.41
9 0.28

>  <PUBCHEM_EFFECTIVE_ROTOR_COUNT>  (1) 
2.6

>  <PUBCHEM_PHARMACOPHORE_FEATURES>  (1) 
10
1 25 hydrophobe
1 3 acceptor
1 4 acceptor
1 4 donor
1 5 acceptor
1 6 acceptor
1 6 donor
1 7 cation
5 7 8 12 13 14 rings
5 7 8 9 10 11 rings

>  <PUBCHEM_HEAVY_ATOM_COUNT>  (1) 
25

>  <PUBCHEM_ATOM_DEF_STEREO_COUNT>  (1) 
0

>  <PUBCHEM_ATOM_UDEF_STEREO_COUNT>  (1) 
3

>  <PUBCHEM_BOND_DEF_STEREO_COUNT>  (1) 
0

>  <PUBCHEM_BOND_UDEF_STEREO_COUNT>  (1) 
1

>  <PUBCHEM_ISOTOPIC_ATOM_COUNT>  (1) 
0

>  <PUBCHEM_COMPONENT_COUNT>  (1) 
1

>  <PUBCHEM_CACTVS_TAUTO_COUNT>  (1) 
1

>  <PUBCHEM_CONFORMER_ID>  (1) 
00007C0100000001

>  <PUBCHEM_MMFF94_ENERGY>  (1) 
49.9243

>  <PUBCHEM_FEATURE_SELFOVERLAP>  (1) 
51.123

>  <PUBCHEM_SHAPE_FINGERPRINT>  (1) 
104564 63 18411424972833855000
10764073 3 17473874590848335641
1100329 8 17614842916500473682
11370993 70 17977378335385650412
11578080 2 17346018039714951064
12054548 360 18341043120458500415
12173636 292 18264488377965878237
12553582 1 18338507672630605817
12596599 1 17559137538221014582
12788726 201 18334853909318484065
13027679 85 18338519754579584533
13224815 77 18342455950393364994
138480 1 15889121865590662237
13911987 19 17830179361250189916
14223421 5 18413106148062567924
14251745 187 18340760524690465616
14251751 93 18121501250017890337
14363568 33 17108218100285608688
14537116 161 17621544646652646965
14790565 3 18125444107933212553
15210252 30 17969209187435134613
16752209 62 18053365622804312173
16945 1 18267007363315508595
17349148 13 18260820510845565794
17357779 13 18119522386923036079
19591789 44 18195808462574873377
19930381 70 17978788244294100765
20645476 183 17905604406831509525
20775438 99 17336690960435013335
20905425 154 18342735243352667958
21634736 98 18411421679169003998
22393880 68 18339932498599487220
23227448 37 18194685852185503765
23419403 2 16956494249032896449
23558518 356 18334577906620406720
23559900 14 18343014463951791016
238 59 17329965397714537007
2748010 2 17978219792546076480
6443956 14 18049717722723208535
9709674 26 18342456998386536308

>  <PUBCHEM_SHAPE_MULTIPOLES>  (1) 
474.29
6.87
4.28
1.36
5.67
1.79
0.08
-1.19
-1.98
-3.57
-0.36
-0.65
-0.21
0.24

>  <PUBCHEM_SHAPE_SELFOVERLAP>  (1) 
1006.123

>  <PUBCHEM_SHAPE_VOLUME>  (1) 
264.9

>  <PUBCHEM_COORDINATE_TYPE>  (1) 
2
5
10

$$$$
