31749
     RDKit          3D

 14 15  0  0  0  0  0  0  0  0999 V2000
    2.4241    1.2843   -0.6578 O   0  0  0  0  0  0  0  0  0  0  0  0
    3.4884    2.2229   -0.3362 N   0  0  0  0  0  0  0  0  0  0  0  0
    0.8013   -0.1829    0.2749 C   0  0  0  0  0  0  0  0  0  0  0  0
   -0.5309    0.2454    0.1562 C   0  0  0  0  0  0  0  0  0  0  0  0
   -1.5418   -0.7054   -0.1207 C   0  0  0  0  0  0  0  0  0  0  0  0
    1.1323   -1.5298    0.1231 C   0  0  0  0  0  0  0  0  0  0  0  0
    1.9043    0.7908    0.5674 C   0  0  0  0  0  0  0  0  0  0  0  0
   -1.1905   -2.0570   -0.2706 C   0  0  0  0  0  0  0  0  0  0  0  0
    0.1382   -2.4649   -0.1491 C   0  0  0  0  0  0  0  0  0  0  0  0
   -0.8819    1.5970    0.3058 C   0  0  0  0  0  0  0  0  0  0  0  0
   -2.8739   -0.2770   -0.2393 C   0  0  0  0  0  0  0  0  0  0  0  0
    2.5454   -1.9986    0.2489 C   0  0  0  0  0  0  0  0  0  0  0  0
   -2.2106    2.0051    0.1847 C   0  0  0  0  0  0  0  0  0  0  0  0
   -3.2046    1.0699   -0.0871 C   0  0  0  0  0  0  0  0  0  0  0  0
  1  2  1  0
  1  7  1  0
  3  4  2  0
  3  6  1  0
  3  7  1  0
  4  5  1  0
  4 10  1  0
  5  8  2  0
  5 11  1  0
  6  9  2  0
  6 12  1  0
  8  9  1  0
 10 13  2  0
 11 14  2  0
 13 14  1  0
M  END
>  <PUBCHEM_COMPOUND_CID>  (1) 
31749

>  <PUBCHEM_CONFORMER_RMSD>  (1) 
0.6

>  <PUBCHEM_CONFORMER_DIVERSEORDER>  (1) 
1
2

>  <PUBCHEM_MMFF94_PARTIAL_CHARGES>  (1) 
20
1 -0.18
10 -0.15
11 -0.15
12 0.14
13 -0.15
14 -0.15
17 0.15
18 0.15
19 0.15
2 -0.82
20 0.15
24 0.15
25 0.15
26 0.36
27 0.36
3 -0.14
6 -0.14
7 0.42
8 -0.15
9 -0.15

>  <PUBCHEM_EFFECTIVE_ROTOR_COUNT>  (1) 
2

>  <PUBCHEM_PHARMACOPHORE_FEATURES>  (1) 
2
6 3 4 5 6 8 9 rings
6 4 5 10 11 13 14 rings

>  <PUBCHEM_HEAVY_ATOM_COUNT>  (1) 
14

>  <PUBCHEM_ATOM_DEF_STEREO_COUNT>  (1) 
0

>  <PUBCHEM_ATOM_UDEF_STEREO_COUNT>  (1) 
0

>  <PUBCHEM_BOND_DEF_STEREO_COUNT>  (1) 
0

>  <PUBCHEM_BOND_UDEF_STEREO_COUNT>  (1) 
0

>  <PUBCHEM_ISOTOPIC_ATOM_COUNT>  (1) 
0

>  <PUBCHEM_COMPONENT_COUNT>  (1) 
1

>  <PUBCHEM_CACTVS_TAUTO_COUNT>  (1) 
1

>  <PUBCHEM_CONFORMER_ID>  (1) 
00007C0500000001

>  <PUBCHEM_MMFF94_ENERGY>  (1) 
40.914

>  <PUBCHEM_FEATURE_SELFOVERLAP>  (1) 
10.175

>  <PUBCHEM_SHAPE_FINGERPRINT>  (1) 
10465860 71 17913506640118982478
10967382 1 18411416232686242345
12202030 40 14404605667155062549
12423570 1 12613015211266695947
12696612 119 18051131397865030667
13140716 1 18339923701894366411
13380535 21 18411990186293174051
13380535 76 18411131446242403666
13380536 305 18267030448696250262
14614273 12 18189041148340319549
14648413 74 18120657924804893817
16945 1 18196924689840364283
17990270 104 17979353062753805947
193761 8 18411417327760841795
20510252 161 17981049935560173064
20511035 2 18200296750227011210
20671657 1 18409451349931462932
21501502 16 18413103940227656283
21524375 3 18334011731004108392
22802520 49 18128840679396413814
2334 1 18412259545341092499
23463225 33 18265892462735560531
23552423 10 18266455413031782163
23559900 14 17841712907919792574
241688 4 16899056362613945339
2748010 2 18411698777283967423
3071541 158 18048878498571184390
353137 74 18339928228484109692
5084963 1 17987226725607511227
53812653 8 18338234989156609360
7364860 26 18341611456585442136

>  <PUBCHEM_SHAPE_MULTIPOLES>  (1) 
277.26
4.61
2.84
0.69
0.02
0.06
0.01
-2.07
-0.3
-1.49
-0.24
-0.1
-0.06
-0.51

>  <PUBCHEM_SHAPE_SELFOVERLAP>  (1) 
598.092

>  <PUBCHEM_SHAPE_VOLUME>  (1) 
154.9

>  <PUBCHEM_COORDINATE_TYPE>  (1) 
2
5
10

$$$$
