31740
     RDKit          3D

 20 22  0  0  1  0  0  0  0  0999 V2000
   -2.7423    1.8419   -0.2441 N   0  0  0  0  0  0  0  0  0  0  0  0
   -0.4630    2.3598   -0.0208 C   0  0  0  0  0  0  0  0  0  0  0  0
   -1.8577    2.8442    0.3626 C   0  0  0  0  0  0  0  0  0  0  0  0
   -2.0947    0.5470    0.0218 C   0  0  0  0  0  0  0  0  0  0  0  0
   -0.6313    0.8708   -0.0032 C   0  0  0  0  0  0  0  0  0  0  0  0
   -4.1001    1.9070    0.2750 C   0  0  0  0  0  0  0  0  0  0  0  0
    0.3624   -0.0230   -0.0019 C   0  0  0  0  0  0  0  0  0  0  0  0
    0.0163   -1.4720    0.0168 C   0  0  0  0  0  0  0  0  0  0  0  0
    1.7663    0.4754   -0.0198 C   0  0  0  0  0  0  0  0  0  0  0  0
   -4.9873    0.8591   -0.3754 C   0  0  0  0  0  0  0  0  0  0  0  0
   -0.1266   -2.1029    1.2330 C   0  0  0  0  0  0  0  0  0  0  0  0
    2.3794    0.6841   -1.2357 C   0  0  0  0  0  0  0  0  0  0  0  0
   -0.1483   -2.1291   -1.1827 C   0  0  0  0  0  0  0  0  0  0  0  0
    2.4011    0.7101    1.1801 C   0  0  0  0  0  0  0  0  0  0  0  0
   -0.4504   -3.4595    1.2506 C   0  0  0  0  0  0  0  0  0  0  0  0
    3.6938    1.1505   -1.2527 C   0  0  0  0  0  0  0  0  0  0  0  0
   -0.4721   -3.4857   -1.1651 C   0  0  0  0  0  0  0  0  0  0  0  0
    3.7156    1.1766    1.1631 C   0  0  0  0  0  0  0  0  0  0  0  0
   -0.6231   -4.1509    0.0517 C   0  0  0  0  0  0  0  0  0  0  0  0
    4.3618    1.3968   -0.0533 C   0  0  0  0  0  0  0  0  0  0  0  0
  1  3  1  0
  1  4  1  0
  1  6  1  0
  2  3  1  0
  2  5  1  0
  4  5  1  0
  5  7  2  3
  6 10  1  0
  7  8  1  0
  7  9  1  0
  8 11  2  0
  8 13  1  0
  9 12  2  0
  9 14  1  0
 11 15  1  0
 12 16  1  0
 13 17  2  0
 14 18  2  0
 15 19  2  0
 16 20  2  0
 17 19  1  0
 18 20  1  0
M  END
>  <PUBCHEM_COMPOUND_CID>  (1) 
31740

>  <PUBCHEM_CONFORMER_RMSD>  (1) 
0.6

>  <PUBCHEM_CONFORMER_DIVERSEORDER>  (1) 
1
2
3

>  <PUBCHEM_MMFF94_PARTIAL_CHARGES>  (1) 
29
1 -0.81
11 -0.15
12 -0.15
13 -0.15
14 -0.15
15 -0.15
16 -0.15
17 -0.15
18 -0.15
19 -0.15
2 0.14
20 -0.15
3 0.27
32 0.15
33 0.15
34 0.15
35 0.15
36 0.15
37 0.15
38 0.15
39 0.15
4 0.41
40 0.15
41 0.15
5 -0.28
6 0.27
7 -0.06
8 0.03
9 0.03

>  <PUBCHEM_EFFECTIVE_ROTOR_COUNT>  (1) 
3.8

>  <PUBCHEM_PHARMACOPHORE_FEATURES>  (1) 
4
1 1 cation
5 1 2 3 4 5 rings
6 8 11 13 15 17 19 rings
6 9 12 14 16 18 20 rings

>  <PUBCHEM_HEAVY_ATOM_COUNT>  (1) 
20

>  <PUBCHEM_ATOM_DEF_STEREO_COUNT>  (1) 
0

>  <PUBCHEM_ATOM_UDEF_STEREO_COUNT>  (1) 
0

>  <PUBCHEM_BOND_DEF_STEREO_COUNT>  (1) 
0

>  <PUBCHEM_BOND_UDEF_STEREO_COUNT>  (1) 
0

>  <PUBCHEM_ISOTOPIC_ATOM_COUNT>  (1) 
0

>  <PUBCHEM_COMPONENT_COUNT>  (1) 
1

>  <PUBCHEM_CACTVS_TAUTO_COUNT>  (1) 
1

>  <PUBCHEM_CONFORMER_ID>  (1) 
00007BFC00000001

>  <PUBCHEM_MMFF94_ENERGY>  (1) 
59.5448

>  <PUBCHEM_FEATURE_SELFOVERLAP>  (1) 
20.297

>  <PUBCHEM_SHAPE_FINGERPRINT>  (1) 
10090160 65 18335697213847480221
1100329 8 18122338245192326129
11488393 25 17915480310741262143
11578080 2 16840511169396268545
116883 192 17838332243826934671
12293681 4 17978784941860759799
12532896 13 18413103974481821830
12553582 1 17545049655180944814
12707595 3 17182213055634920738
12788726 201 17973732672723921378
12839892 36 18265033770219327867
13052359 8 18335699511322446579
13083527 12 17901926570759508123
13140716 1 18338234847655070235
13257819 37 18190486958833334143
133893 2 17830184501824681497
13538477 17 18042403702550510784
13681431 1 17402616246942339786
13878862 14 17472696928181776905
14787075 74 18059001899882016025
14790565 3 18411144670974956181
14863182 85 18263660506272163205
14955137 171 17838888240455540306
15042514 8 18337393871509687386
15906896 17 18263084477663530802
16752209 62 18263923413472373755
16945 1 18266459999824810634
1813 80 17405447966547511990
19591789 44 18340205180860290191
20197701 30 18336819806117425044
20361792 2 17476082801086983694
20567600 347 18337956692814484807
20600515 1 16890854551399901576
20645476 183 18261397771155361060
20645477 70 18050000001138690125
21054139 6 18270100401921593037
21421861 104 17906460926732399905
21524375 3 18339078190242666488
21796203 349 17187884946675791779
2255824 54 18049448036888471127
22620623 9 18055365875131635126
22956985 138 17827351082009358667
23366157 5 17757560655177554681
23419403 2 16981023038872478007
23557571 272 18055638567153945840
23559900 14 17762888871672968121
23598288 3 17971773304527587550
2748010 2 18265640739071318083
3091708 16 9123724934417323099
43471831 8 18266457616213127825
458136 41 18195827175404276457
474229 33 18408886248183764537
59755656 520 18409722967879205836
6138700 20 17834684790797775022
6442390 28 18341901779057879489
7364860 26 17909264676581501377
81228 2 18123181565856836290
81539 233 18263359196888572637
9841814 1 17469326933493927955

>  <PUBCHEM_SHAPE_MULTIPOLES>  (1) 
406.61
6.58
4.66
1.22
0.24
5.62
0
-7.14
-0.39
3.12
0.23
-0.72
0.53
-0.06

>  <PUBCHEM_SHAPE_SELFOVERLAP>  (1) 
877.948

>  <PUBCHEM_SHAPE_VOLUME>  (1) 
225.1

>  <PUBCHEM_COORDINATE_TYPE>  (1) 
2
5
10

$$$$
