31755
     RDKit          3D

 32 34  0  0  1  0  0  0  0  0999 V2000
   -0.3859   -4.0568   -2.1634 Cl  0  0  0  0  0  0  0  0  0  0  0  0
    4.4822   -3.6699    0.0699 Cl  0  0  0  0  0  0  0  0  0  0  0  0
   -6.4115   -1.8919    0.4870 Cl  0  0  0  0  0  0  0  0  0  0  0  0
   -7.0796    1.0800   -0.6028 Cl  0  0  0  0  0  0  0  0  0  0  0  0
    1.0381    0.1833    3.5650 O   0  0  0  0  0  0  0  0  0  0  0  0
    2.2441    2.0114    0.5548 N   0  0  0  0  0  0  0  0  0  0  0  0
   -1.0426   -1.7060   -0.4700 N   0  0  0  0  0  0  0  0  0  0  0  0
    1.6868    1.8197    1.8918 C   0  0  0  0  0  0  0  0  0  0  0  0
    3.7018    1.8926    0.5854 C   0  0  0  0  0  0  0  0  0  0  0  0
    1.8496    3.3133    0.0168 C   0  0  0  0  0  0  0  0  0  0  0  0
    1.5687    0.3251    2.2422 C   0  0  0  0  0  0  0  0  0  0  0  0
    4.2344    1.5352   -0.8012 C   0  0  0  0  0  0  0  0  0  0  0  0
    0.4044    3.2679   -0.4764 C   0  0  0  0  0  0  0  0  0  0  0  0
    0.6838   -0.4090    1.2846 C   0  0  0  0  0  0  0  0  0  0  0  0
    5.7597    1.4270   -0.7963 C   0  0  0  0  0  0  0  0  0  0  0  0
   -0.0356    4.6263   -1.0237 C   0  0  0  0  0  0  0  0  0  0  0  0
    1.1338   -1.5116    0.5459 C   0  0  0  0  0  0  0  0  0  0  0  0
   -0.6217    0.0392    1.1440 C   0  0  0  0  0  0  0  0  0  0  0  0
    0.2248   -2.1387   -0.3316 C   0  0  0  0  0  0  0  0  0  0  0  0
   -1.4375   -0.6386    0.2610 C   0  0  0  0  0  0  0  0  0  0  0  0
    6.2953    1.0368   -2.1647 C   0  0  0  0  0  0  0  0  0  0  0  0
   -1.4615    4.5801   -1.5493 C   0  0  0  0  0  0  0  0  0  0  0  0
    2.4496   -1.9902    0.6656 C   0  0  0  0  0  0  0  0  0  0  0  0
    0.6723   -3.2342   -1.0652 C   0  0  0  0  0  0  0  0  0  0  0  0
   -2.8089   -0.2374    0.0570 C   0  0  0  0  0  0  0  0  0  0  0  0
    2.8705   -3.0876   -0.0800 C   0  0  0  0  0  0  0  0  0  0  0  0
    1.9804   -3.7101   -0.9464 C   0  0  0  0  0  0  0  0  0  0  0  0
   -3.8455   -1.1303    0.3288 C   0  0  0  0  0  0  0  0  0  0  0  0
   -3.0975    1.0440   -0.4125 C   0  0  0  0  0  0  0  0  0  0  0  0
   -5.1706   -0.7418    0.1316 C   0  0  0  0  0  0  0  0  0  0  0  0
   -4.4226    1.4325   -0.6100 C   0  0  0  0  0  0  0  0  0  0  0  0
   -5.4592    0.5396   -0.3379 C   0  0  0  0  0  0  0  0  0  0  0  0
  1 24  1  0
  2 26  1  0
  3 30  1  0
  4 32  1  0
  5 11  1  0
  6  8  1  0
  6  9  1  0
  6 10  1  0
  7 19  2  0
  7 20  1  0
  8 11  1  0
  9 12  1  0
 10 13  1  0
 11 14  1  0
 12 15  1  0
 13 16  1  0
 14 17  2  0
 14 18  1  0
 15 21  1  0
 16 22  1  0
 17 19  1  0
 17 23  1  0
 18 20  2  0
 19 24  1  0
 20 25  1  0
 23 26  2  0
 24 27  2  0
 25 28  2  0
 25 29  1  0
 26 27  1  0
 28 30  1  0
 29 31  2  0
 30 32  2  0
 31 32  1  0
M  END
>  <PUBCHEM_COMPOUND_CID>  (1) 
31755

>  <PUBCHEM_CONFORMER_RMSD>  (1) 
1

>  <PUBCHEM_CONFORMER_DIVERSEORDER>  (1) 
3
35
54
17
33
167
25
68
118
151
37
82
100
137
71
85
105
66
24
30
13
93
28
159
7
131
29
55
23
34
165
138
136
36
59
75
61
22
144
132
73
116
134
65
153
63
135
87
91
51
14
122
166
104
156
1
43
115
155
19
92
147
125
168
62
12
84
129
114
76
8
21
42
18
56
79
9
102
146
60
139
108
149
2
53
6
5
142
98
81
70
113
94
121
133
126
96
16
90
77
162
15
11
47
27
107
38
158
124
103
130
40
150
88
86
49
57
48
45
58
110
157
80
123
109
74
64
97
39
119
106
152
83
67
46
31
164
10
32
72
41
148
128
127
52
120
20
50
26
69
89
117
143
161
154
141
112
4
44
160
163
145
101
95
99
111
78
140

>  <PUBCHEM_MMFF94_PARTIAL_CHARGES>  (1) 
31
1 -0.18
10 0.27
11 0.42
14 -0.14
18 -0.15
19 0.31
2 -0.18
20 0.31
23 -0.15
24 0.18
26 0.18
27 -0.15
28 -0.15
29 -0.15
3 -0.18
30 0.18
31 -0.15
32 0.18
4 -0.18
48 0.15
49 0.4
5 -0.68
56 0.15
57 0.15
58 0.15
59 0.15
6 -0.81
60 0.15
7 -0.62
8 0.27
9 0.27

>  <PUBCHEM_EFFECTIVE_ROTOR_COUNT>  (1) 
10

>  <PUBCHEM_PHARMACOPHORE_FEATURES>  (1) 
9
1 21 hydrophobe
1 22 hydrophobe
1 5 acceptor
1 5 donor
1 6 cation
1 7 acceptor
6 17 19 23 24 26 27 rings
6 25 28 29 30 31 32 rings
6 7 14 17 18 19 20 rings

>  <PUBCHEM_HEAVY_ATOM_COUNT>  (1) 
32

>  <PUBCHEM_ATOM_DEF_STEREO_COUNT>  (1) 
0

>  <PUBCHEM_ATOM_UDEF_STEREO_COUNT>  (1) 
1

>  <PUBCHEM_BOND_DEF_STEREO_COUNT>  (1) 
0

>  <PUBCHEM_BOND_UDEF_STEREO_COUNT>  (1) 
0

>  <PUBCHEM_ISOTOPIC_ATOM_COUNT>  (1) 
0

>  <PUBCHEM_COMPONENT_COUNT>  (1) 
1

>  <PUBCHEM_CACTVS_TAUTO_COUNT>  (1) 
1

>  <PUBCHEM_CONFORMER_ID>  (1) 
00007C0B00000003

>  <PUBCHEM_MMFF94_ENERGY>  (1) 
74.5179

>  <PUBCHEM_FEATURE_SELFOVERLAP>  (1) 
45.702

>  <PUBCHEM_SHAPE_FINGERPRINT>  (1) 
10483366 6 18411709768553788076
10673678 19 18410019840430126526
11513181 2 18270949151636177829
11578080 2 17313970583449670154
13965767 371 17980160323068403305
14289585 56 18117257337303925165
15420108 30 17834646646433590360
15961568 22 18040433300372749901
1601671 61 18335132128957865033
17492 54 18339376218556105338
17909252 39 18340204069044074432
17980427 26 16124951037764676817
18681886 176 18267017452547660761
1979834 28 18340755027580927697
20465049 17 18269562796010944162
20775438 99 17043418979534356708
21049683 271 18342178812885516098
22149856 69 18130784591376969219
22182313 1 17696156280951390082
23559900 14 18340476765371545067
3298306 158 18339647849199034058
340366 18 18122632918456195356
3493558 16 17604732013729564518
3729539 64 18059028223910276558
46194498 28 18266737983246441087
5265222 85 17976272549464893524
57527306 92 17458904972007246524
5776283 40 18047486800767655308
59755656 215 18335423490859295589

>  <PUBCHEM_SHAPE_MULTIPOLES>  (1) 
650.19
12.44
6
1.9
12.36
1.32
-0.93
0.94
3.81
-4.13
3.44
-1.64
0.19
0.55

>  <PUBCHEM_SHAPE_SELFOVERLAP>  (1) 
1337.406

>  <PUBCHEM_SHAPE_VOLUME>  (1) 
380.1

>  <PUBCHEM_COORDINATE_TYPE>  (1) 
2
5
10

$$$$
