31766
     RDKit          3D

 19 20  0  0  0  0  0  0  0  0999 V2000
   -3.0734    2.6466   -0.0259 Cl  0  0  0  0  0  0  0  0  0  0  0  0
   -5.0985    0.1239    0.0465 Cl  0  0  0  0  0  0  0  0  0  0  0  0
    1.1818   -0.5625   -2.4249 O   0  0  0  0  0  0  0  0  0  0  0  0
    1.2132   -0.7814    2.3637 O   0  0  0  0  0  0  0  0  0  0  0  0
    3.3206    2.6017    0.1051 O   0  0  0  0  0  0  0  0  0  0  0  0
    2.2087    1.0211   -1.1326 N   0  0  0  0  0  0  0  0  0  0  0  0
    2.2216    0.9157    1.2081 N   0  0  0  0  0  0  0  0  0  0  0  0
    0.8491   -0.7278   -0.0308 C   0  0  0  0  0  0  0  0  0  0  0  0
    1.1144   -2.2382   -0.1012 C   0  0  0  0  0  0  0  0  0  0  0  0
   -0.6361   -0.4983   -0.0111 C   0  0  0  0  0  0  0  0  0  0  0  0
    1.4261   -0.1063   -1.3059 C   0  0  0  0  0  0  0  0  0  0  0  0
    1.4424   -0.2244    1.2880 C   0  0  0  0  0  0  0  0  0  0  0  0
    2.5992   -2.5319   -0.0906 C   0  0  0  0  0  0  0  0  0  0  0  0
   -1.1299    0.8000   -0.0248 C   0  0  0  0  0  0  0  0  0  0  0  0
   -1.4977   -1.5875    0.0196 C   0  0  0  0  0  0  0  0  0  0  0  0
    2.6243    1.5858    0.0632 C   0  0  0  0  0  0  0  0  0  0  0  0
   -2.5083    1.0128   -0.0073 C   0  0  0  0  0  0  0  0  0  0  0  0
   -2.8761   -1.3747    0.0371 C   0  0  0  0  0  0  0  0  0  0  0  0
   -3.3815   -0.0746    0.0237 C   0  0  0  0  0  0  0  0  0  0  0  0
  1 17  1  0
  2 19  1  0
  3 11  2  0
  4 12  2  0
  5 16  2  0
  6 11  1  0
  6 16  1  0
  7 12  1  0
  7 16  1  0
  8  9  1  0
  8 10  1  0
  8 11  1  0
  8 12  1  0
  9 13  1  0
 10 14  2  0
 10 15  1  0
 14 17  1  0
 15 18  2  0
 17 19  2  0
 18 19  1  0
M  END
>  <PUBCHEM_COMPOUND_CID>  (1) 
31766

>  <PUBCHEM_CONFORMER_RMSD>  (1) 
0.6

>  <PUBCHEM_CONFORMER_DIVERSEORDER>  (1) 
1
9
6
8
3
2
7
10
4
5

>  <PUBCHEM_MMFF94_PARTIAL_CHARGES>  (1) 
22
1 -0.18
10 -0.14
11 0.57
12 0.57
14 -0.15
15 -0.15
16 0.69
17 0.18
18 -0.15
19 0.18
2 -0.18
25 0.15
26 0.15
27 0.37
28 0.37
29 0.15
3 -0.57
4 -0.57
5 -0.57
6 -0.49
7 -0.49
8 0.27

>  <PUBCHEM_EFFECTIVE_ROTOR_COUNT>  (1) 
2.6

>  <PUBCHEM_PHARMACOPHORE_FEATURES>  (1) 
8
1 13 hydrophobe
1 3 acceptor
1 4 acceptor
1 5 acceptor
1 6 donor
1 7 donor
6 10 14 15 17 18 19 rings
6 6 7 8 11 12 16 rings

>  <PUBCHEM_HEAVY_ATOM_COUNT>  (1) 
19

>  <PUBCHEM_ATOM_DEF_STEREO_COUNT>  (1) 
0

>  <PUBCHEM_ATOM_UDEF_STEREO_COUNT>  (1) 
0

>  <PUBCHEM_BOND_DEF_STEREO_COUNT>  (1) 
0

>  <PUBCHEM_BOND_UDEF_STEREO_COUNT>  (1) 
0

>  <PUBCHEM_ISOTOPIC_ATOM_COUNT>  (1) 
0

>  <PUBCHEM_COMPONENT_COUNT>  (1) 
1

>  <PUBCHEM_CACTVS_TAUTO_COUNT>  (1) 
5

>  <PUBCHEM_CONFORMER_ID>  (1) 
00007C1600000001

>  <PUBCHEM_MMFF94_ENERGY>  (1) 
57.0075

>  <PUBCHEM_FEATURE_SELFOVERLAP>  (1) 
40.638

>  <PUBCHEM_SHAPE_FINGERPRINT>  (1) 
10498660 4 18339644542195360181
10948715 1 18195245744412029168
13132413 78 17981887445724775014
13134695 92 16985442959725490042
13140716 1 18193844739107745209
13464514 151 18268445563527693388
13538477 17 18040437719904445019
13965767 371 17825386272000133877
14223421 5 18334855022089014025
14648413 74 18338518525754662378
14787075 74 16597311356353158698
15163728 17 18119835713620099636
15775835 57 18115584984080845264
16945 1 18118697735832222854
1813 80 16879345598563342274
18186145 218 18058455296847903529
18981168 100 18336821988224809141
20233049 118 17612032572974128316
20511035 2 17916002599874729622
20559304 39 18334858268984076019
21452121 103 18408880724581547785
21501502 16 18343581820066754787
21524375 3 18058731458675801436
23114952 82 17845954955999695685
23402539 116 18126842926898455772
23419403 2 16189415104328317074
23559900 14 18340482253891200311
2748010 2 18337955580591846717
34934 24 18338233881798774103
350125 39 18266465313084341233
4340502 62 16950563329142203923
474 4 17531253910360657389
7364860 26 18411138009084372158
74978 22 18266741277459742581

>  <PUBCHEM_SHAPE_MULTIPOLES>  (1) 
367.18
6.5
2.57
1.36
6.71
0.62
0.02
1.75
-0.12
-1.23
-0.01
-1.17
-0.15
0.09

>  <PUBCHEM_SHAPE_SELFOVERLAP>  (1) 
775.586

>  <PUBCHEM_SHAPE_VOLUME>  (1) 
207.3

>  <PUBCHEM_COORDINATE_TYPE>  (1) 
2
5
10

$$$$
