31769
     RDKit          3D

 21 23  0  0  0  0  0  0  0  0999 V2000
   -0.0977   -0.5107    0.0263 N   0  0  0  0  0  0  0  0  0  0  0  0
    2.7315   -0.1254    0.1069 N   0  0  0  0  0  0  0  0  0  0  0  0
   -4.5859   -0.7288   -0.4973 N   0  0  0  0  0  0  0  0  0  0  0  0
    0.4877    0.7763   -0.3695 C   0  0  0  0  0  0  0  0  0  0  0  0
    0.7047   -1.1164    1.0959 C   0  0  0  0  0  0  0  0  0  0  0  0
    1.9183    0.5943   -0.8815 C   0  0  0  0  0  0  0  0  0  0  0  0
    2.1433   -1.3608    0.6335 C   0  0  0  0  0  0  0  0  0  0  0  0
   -1.4823   -0.3319    0.4619 C   0  0  0  0  0  0  0  0  0  0  0  0
   -2.3526    0.1869   -0.6818 C   0  0  0  0  0  0  0  0  0  0  0  0
    4.1229    0.0046    0.0338 C   0  0  0  0  0  0  0  0  0  0  0  0
   -3.8033    0.3458   -0.2970 C   0  0  0  0  0  0  0  0  0  0  0  0
    4.7417    1.2648    0.1570 C   0  0  0  0  0  0  0  0  0  0  0  0
    4.9474   -1.1208   -0.1659 C   0  0  0  0  0  0  0  0  0  0  0  0
   -4.2231    1.5509    0.2213 C   0  0  0  0  0  0  0  0  0  0  0  0
    6.1286    1.3944    0.0835 C   0  0  0  0  0  0  0  0  0  0  0  0
    6.3343   -0.9911   -0.2393 C   0  0  0  0  0  0  0  0  0  0  0  0
    6.9248    0.2665   -0.1146 C   0  0  0  0  0  0  0  0  0  0  0  0
   -5.8845   -0.5816   -0.1514 C   0  0  0  0  0  0  0  0  0  0  0  0
   -5.5655    1.6638    0.5653 C   0  0  0  0  0  0  0  0  0  0  0  0
   -6.4187    0.5818    0.3785 C   0  0  0  0  0  0  0  0  0  0  0  0
   -6.7713   -1.7625   -0.3656 C   0  0  0  0  0  0  0  0  0  0  0  0
  1  4  1  0
  1  5  1  0
  1  8  1  0
  2  6  1  0
  2  7  1  0
  2 10  1  0
  3 11  2  0
  3 18  1  0
  4  6  1  0
  5  7  1  0
  8  9  1  0
  9 11  1  0
 10 12  2  0
 10 13  1  0
 11 14  1  0
 12 15  1  0
 13 16  2  0
 14 19  2  0
 15 17  2  0
 16 17  1  0
 18 20  2  0
 18 21  1  0
 19 20  1  0
M  END
>  <PUBCHEM_COMPOUND_CID>  (1) 
31769

>  <PUBCHEM_CONFORMER_RMSD>  (1) 
0.8

>  <PUBCHEM_CONFORMER_DIVERSEORDER>  (1) 
1
40
10
24
13
27
22
36
12
47
31
15
28
16
29
2
37
30
26
25
46
39
14
45
48
35
33
4
21
20
19
9
49
44
6
51
18
32
11
34
3
5
8
7
50
17
38
23
41
43
42
52

>  <PUBCHEM_MMFF94_PARTIAL_CHARGES>  (1) 
29
1 -0.81
10 0.1
11 0.17
12 -0.15
13 -0.15
14 -0.15
15 -0.15
16 -0.15
17 -0.15
18 0.17
19 -0.15
2 -0.84
20 -0.15
21 0.14
3 -0.62
34 0.15
35 0.15
36 0.15
37 0.15
38 0.15
39 0.15
4 0.27
40 0.15
41 0.15
5 0.27
6 0.37
7 0.37
8 0.27
9 0.14

>  <PUBCHEM_EFFECTIVE_ROTOR_COUNT>  (1) 
5.2

>  <PUBCHEM_PHARMACOPHORE_FEATURES>  (1) 
6
1 1 cation
1 2 cation
1 3 acceptor
6 1 2 4 5 6 7 rings
6 10 12 13 15 16 17 rings
6 3 11 14 18 19 20 rings

>  <PUBCHEM_HEAVY_ATOM_COUNT>  (1) 
21

>  <PUBCHEM_ATOM_DEF_STEREO_COUNT>  (1) 
0

>  <PUBCHEM_ATOM_UDEF_STEREO_COUNT>  (1) 
0

>  <PUBCHEM_BOND_DEF_STEREO_COUNT>  (1) 
0

>  <PUBCHEM_BOND_UDEF_STEREO_COUNT>  (1) 
0

>  <PUBCHEM_ISOTOPIC_ATOM_COUNT>  (1) 
0

>  <PUBCHEM_COMPONENT_COUNT>  (1) 
1

>  <PUBCHEM_CACTVS_TAUTO_COUNT>  (1) 
2

>  <PUBCHEM_CONFORMER_ID>  (1) 
00007C1900000001

>  <PUBCHEM_MMFF94_ENERGY>  (1) 
63.293

>  <PUBCHEM_FEATURE_SELFOVERLAP>  (1) 
30.449

>  <PUBCHEM_SHAPE_FINGERPRINT>  (1) 
10 15 16153430575658559356
10299344 5 18343302574225576031
10595046 47 18411980235154655611
11315181 36 18410856573579830269
11524674 6 15554446332044712143
11646440 116 17894639144824094140
12091667 2 17132112438410052941
12107183 9 17545318580236349809
12166972 35 18411702109968203424
12236239 1 18413389826061822953
12516196 113 18407759239785255316
12596602 18 18342176661386378521
12730499 353 18260269621102614194
13167372 99 18342459197331014864
13533116 47 17676480589577306954
13631057 29 18261391222053356651
14123256 10 17967812760834317531
14251732 16 18411981390400462359
14251752 14 17417811720876159802
14251764 18 18259703411126154852
14251764 46 18413669110515509430
14849402 71 18337396066323268060
14933364 13 18343866614784185904
15183329 4 12823295676239294053
15716309 27 18272932730784145791
15778101 99 18271247115314220377
18681886 176 18341325677961810971
20157964 124 18343022203656528800
20281389 69 18410009927318520336
21150785 3 18409166636180366834
21267235 1 18409171039160031719
21315763 28 18413107260274162932
22224240 67 17676203598234878634
23035841 295 18272931622250118531
23198884 109 18411702080277322675
23402539 116 18202560674706733165
23536379 177 18202002109935818474
23559900 14 18337946918007106465
23569943 247 17825664457227159986
23622692 88 15864074286314124314
29717793 49 17560806507500058964
335352 9 18187087261551182758
34797466 226 17346324842630990940
3545911 37 18040998435999975834
397830 11 14924809941351922972
4073 2 18187369882625071042
4325135 7 18408602574400017783
4340502 62 14562529570636032288
4463277 17 18411981347197835148
5104073 3 16951679186582578073
542803 24 18201717344903434765
5758199 1 18186804672938051024
59755656 215 17530962475491898338
59755656 520 18260826016366437195
9996256 80 18409727361330003967

>  <PUBCHEM_SHAPE_MULTIPOLES>  (1) 
417.23
20.97
1.58
0.82
2.57
0.04
-0.03
0.53
0.63
0.75
-0.13
0.13
-0.05
-0.66

>  <PUBCHEM_SHAPE_SELFOVERLAP>  (1) 
878.623

>  <PUBCHEM_SHAPE_VOLUME>  (1) 
231.5

>  <PUBCHEM_COORDINATE_TYPE>  (1) 
2
5
10

$$$$
