31767
     RDKit          3D

 19 18  0  0  1  0  0  0  0  0999 V2000
   -0.7691   -0.2903   -0.1635 O   0  0  0  0  0  0  0  0  0  0  0  0
    1.9385    1.8155   -0.3119 O   0  0  0  0  0  0  0  0  0  0  0  0
   -2.3071   -0.0173   -1.8472 O   0  0  0  0  0  0  0  0  0  0  0  0
    2.5087    3.0017    1.5769 O   0  0  0  0  0  0  0  0  0  0  0  0
   -2.9328    0.0199    0.3864 N   0  0  0  0  0  0  0  0  0  0  0  0
    2.1548    4.0562   -0.4355 N   0  0  0  0  0  0  0  0  0  0  0  0
    1.6400   -0.6442   -0.4377 C   0  0  0  0  0  0  0  0  0  0  0  0
    1.6126   -1.9330    0.4892 C   0  0  0  0  0  0  0  0  0  0  0  0
    0.2658   -0.4209   -1.1289 C   0  0  0  0  0  0  0  0  0  0  0  0
    1.9796    0.6026    0.4332 C   0  0  0  0  0  0  0  0  0  0  0  0
    1.2193   -3.2283   -0.2701 C   0  0  0  0  0  0  0  0  0  0  0  0
    2.6963   -0.7650   -1.5574 C   0  0  0  0  0  0  0  0  0  0  0  0
    2.9320   -2.1590    1.2504 C   0  0  0  0  0  0  0  0  0  0  0  0
    1.0125   -4.4385    0.6351 C   0  0  0  0  0  0  0  0  0  0  0  0
   -2.0338   -0.0885   -0.6536 C   0  0  0  0  0  0  0  0  0  0  0  0
    2.2257    2.9572    0.3844 C   0  0  0  0  0  0  0  0  0  0  0  0
   -4.3494    0.2367    0.2026 C   0  0  0  0  0  0  0  0  0  0  0  0
   -4.6515    1.7278    0.1290 C   0  0  0  0  0  0  0  0  0  0  0  0
   -5.1420   -0.4328    1.3184 C   0  0  0  0  0  0  0  0  0  0  0  0
  1  9  1  0
  1 15  1  0
  2 10  1  0
  2 16  1  0
  3 15  2  0
  4 16  2  0
  5 15  1  0
  5 17  1  0
  6 16  1  0
  7  8  1  0
  7  9  1  0
  7 10  1  0
  7 12  1  0
  8 11  1  0
  8 13  1  0
 11 14  1  0
 17 18  1  0
 17 19  1  0
M  END
>  <PUBCHEM_COMPOUND_CID>  (1) 
31767

>  <PUBCHEM_CONFORMER_RMSD>  (1) 
1

>  <PUBCHEM_CONFORMER_DIVERSEORDER>  (1) 
1
174
233
223
197
257
216
220
239
219
83
20
282
183
279
120
176
126
187
194
30
134
210
231
2
203
212
232
196
225
102
264
179
201
243
141
266
221
217
208
117
56
254
168
240
145
242
121
280
104
89
96
22
51
62
63
46
258
270
244
249
230
185
162
267
107
9
40
128
200
241
262
122
150
78
91
125
238
26
155
265
137
84
32
278
110
246
215
202
133
234
173
237
101
260
156
157
229
283
93
12
253
188
209
165
163
92
115
159
79
116
85
5
80
184
75
95
60
255
271
190
147
54
273
28
77
160
18
226
42
251
198
248
142
105
132
281
227
269
164
140
39
81
180
98
53
178
250
182
90
193
247
171
186
31
123
38
235
55
274
236
37
97
192
100
35
58
170
16
6
268
67
57
8
245
65
106
261
88
127
222
259
41
204
50
135
189
73
49
169
256
276
36
44
24
191
25
172
228
34
23
86
114
214
138
71
14
152
277
111
112
205
33
153
21
218
87
263
252
143
272
52
211
175
11
158
82
43
146
118
275
195
206
148
69
144
213
129
224
136
45
151
177
10
181
13
124
154
109
103
68
17
161
61
3
130
139
131
19
70
119
149
7
48
66
199
59
72
167
94
113
166
99
108
29
76
47
64
4
74
27
207
15

>  <PUBCHEM_MMFF94_PARTIAL_CHARGES>  (1) 
14
1 -0.43
10 0.28
15 0.78
16 0.78
17 0.3
2 -0.43
3 -0.57
36 0.37
4 -0.57
44 0.37
45 0.37
5 -0.73
6 -0.8
9 0.28

>  <PUBCHEM_EFFECTIVE_ROTOR_COUNT>  (1) 
10

>  <PUBCHEM_PHARMACOPHORE_FEATURES>  (1) 
8
1 12 hydrophobe
1 13 hydrophobe
1 14 hydrophobe
1 3 acceptor
1 4 acceptor
1 5 donor
1 6 donor
3 17 18 19 hydrophobe

>  <PUBCHEM_HEAVY_ATOM_COUNT>  (1) 
19

>  <PUBCHEM_ATOM_DEF_STEREO_COUNT>  (1) 
0

>  <PUBCHEM_ATOM_UDEF_STEREO_COUNT>  (1) 
2

>  <PUBCHEM_BOND_DEF_STEREO_COUNT>  (1) 
0

>  <PUBCHEM_BOND_UDEF_STEREO_COUNT>  (1) 
0

>  <PUBCHEM_ISOTOPIC_ATOM_COUNT>  (1) 
0

>  <PUBCHEM_COMPONENT_COUNT>  (1) 
1

>  <PUBCHEM_CACTVS_TAUTO_COUNT>  (1) 
4

>  <PUBCHEM_CONFORMER_ID>  (1) 
00007C1700000001

>  <PUBCHEM_MMFF94_ENERGY>  (1) 
36.862

>  <PUBCHEM_FEATURE_SELFOVERLAP>  (1) 
40.598

>  <PUBCHEM_SHAPE_FINGERPRINT>  (1) 
10366900 7 18188505605047824371
10382601 240 18340761641413929240
13134695 92 18049421674268672782
13140716 1 18339073899343770307
13533116 47 18262806156126427115
13583140 156 18337391540038544247
14178342 30 17970632002910472875
14955137 171 18337391539743918026
15422964 175 17831855759404422922
17868525 174 18122064200472666769
18785283 64 18334012834826384920
19078846 21 18124882261258254821
19765921 60 18058445594020825553
20559304 39 18267587913918444791
21041028 32 17689150115212640566
21524375 3 17910659188407554356
22182937 141 17404583767034535496
2255824 54 18412825789302503294
23558518 356 17980473791609721310
23559900 14 18113627763879739093
31174 14 18335421236196397047
3250762 1 17907877441554278774
474 4 18339356499834112037
6049 1 17822565015441314221
6442390 28 18120669181872075939
7097593 13 18268145349666854879
7615 1 17702362083597764725
7808743 9 17617103950183375212
81228 2 17110703585212051286
8988823 20 18409445874286192463

>  <PUBCHEM_SHAPE_MULTIPOLES>  (1) 
357.57
7.82
4.76
1.35
15.15
1.43
0.16
0.33
-2.09
-6.42
-1.48
-0.22
-0.02
0.3

>  <PUBCHEM_SHAPE_SELFOVERLAP>  (1) 
681.862

>  <PUBCHEM_SHAPE_VOLUME>  (1) 
219.2

>  <PUBCHEM_COORDINATE_TYPE>  (1) 
2
5
10

$$$$
