31768
     RDKit          3D

 21 24  0  0  0  0  0  0  0  0999 V2000
    2.6463   -0.4750    1.4066 S   0  0  0  0  0  0  0  0  0  0  0  0
   -3.6197    0.4691    0.7955 N   0  0  0  0  0  0  0  0  0  0  0  0
   -0.1521   -2.3695   -0.8599 N   0  0  0  0  0  0  0  0  0  0  0  0
   -1.2024    0.2130   -0.5367 C   0  0  0  0  0  0  0  0  0  0  0  0
   -2.1940   -0.9154   -0.6631 C   0  0  0  0  0  0  0  0  0  0  0  0
   -1.8006    1.5903   -0.5661 C   0  0  0  0  0  0  0  0  0  0  0  0
   -3.6269   -0.4716   -0.3264 C   0  0  0  0  0  0  0  0  0  0  0  0
   -2.9451    1.7327    0.4523 C   0  0  0  0  0  0  0  0  0  0  0  0
    0.1084   -0.0049   -0.3606 C   0  0  0  0  0  0  0  0  0  0  0  0
    1.0439    1.1496   -0.2417 C   0  0  0  0  0  0  0  0  0  0  0  0
    0.5663   -1.4123   -0.2154 C   0  0  0  0  0  0  0  0  0  0  0  0
   -4.9655    0.7146    1.3049 C   0  0  0  0  0  0  0  0  0  0  0  0
    2.2166    1.0230    0.5282 C   0  0  0  0  0  0  0  0  0  0  0  0
    1.7039   -1.7072    0.5375 C   0  0  0  0  0  0  0  0  0  0  0  0
    0.8207    2.3602   -0.9245 C   0  0  0  0  0  0  0  0  0  0  0  0
    3.1048    2.1054    0.6386 C   0  0  0  0  0  0  0  0  0  0  0  0
    2.0957   -3.0463    0.6336 C   0  0  0  0  0  0  0  0  0  0  0  0
    1.7135    3.4279   -0.8131 C   0  0  0  0  0  0  0  0  0  0  0  0
    2.8520    3.3026   -0.0272 C   0  0  0  0  0  0  0  0  0  0  0  0
    0.2636   -3.6494   -0.7455 C   0  0  0  0  0  0  0  0  0  0  0  0
    1.3704   -4.0369   -0.0169 C   0  0  0  0  0  0  0  0  0  0  0  0
  1 13  1  0
  1 14  1  0
  2  7  1  0
  2  8  1  0
  2 12  1  0
  3 11  1  0
  3 20  2  0
  4  5  1  0
  4  6  1  0
  4  9  2  3
  5  7  1  0
  6  8  1  0
  9 10  1  0
  9 11  1  0
 10 13  2  0
 10 15  1  0
 11 14  2  0
 13 16  1  0
 14 17  1  0
 15 18  2  0
 16 19  2  0
 17 21  2  0
 18 19  1  0
 20 21  1  0
M  END
>  <PUBCHEM_COMPOUND_CID>  (1) 
31768

>  <PUBCHEM_CONFORMER_RMSD>  (1) 
0.6

>  <PUBCHEM_CONFORMER_DIVERSEORDER>  (1) 
2
1

>  <PUBCHEM_MMFF94_PARTIAL_CHARGES>  (1) 
28
1 -0.2
10 0.03
11 0.34
12 0.27
13 0.1
14 0.1
15 -0.15
16 -0.15
17 -0.15
18 -0.15
19 -0.15
2 -0.81
20 0.16
21 -0.15
3 -0.62
33 0.15
34 0.15
35 0.15
36 0.15
37 0.15
38 0.15
39 0.15
4 -0.28
5 0.14
6 0.14
7 0.27
8 0.27
9 -0.06

>  <PUBCHEM_EFFECTIVE_ROTOR_COUNT>  (1) 
1.2

>  <PUBCHEM_PHARMACOPHORE_FEATURES>  (1) 
6
1 2 cation
1 3 acceptor
6 1 9 10 11 13 14 rings
6 10 13 15 16 18 19 rings
6 2 4 5 6 7 8 rings
6 3 11 14 17 20 21 rings

>  <PUBCHEM_HEAVY_ATOM_COUNT>  (1) 
21

>  <PUBCHEM_ATOM_DEF_STEREO_COUNT>  (1) 
0

>  <PUBCHEM_ATOM_UDEF_STEREO_COUNT>  (1) 
0

>  <PUBCHEM_BOND_DEF_STEREO_COUNT>  (1) 
0

>  <PUBCHEM_BOND_UDEF_STEREO_COUNT>  (1) 
0

>  <PUBCHEM_ISOTOPIC_ATOM_COUNT>  (1) 
0

>  <PUBCHEM_COMPONENT_COUNT>  (1) 
1

>  <PUBCHEM_CACTVS_TAUTO_COUNT>  (1) 
1

>  <PUBCHEM_CONFORMER_ID>  (1) 
00007C1800000002

>  <PUBCHEM_MMFF94_ENERGY>  (1) 
92.016

>  <PUBCHEM_FEATURE_SELFOVERLAP>  (1) 
30.477

>  <PUBCHEM_SHAPE_FINGERPRINT>  (1) 
10411042 1 17906167352717135239
10493431 412 18339916138731608880
10967382 1 18050835637943047246
1100329 8 17113258300542466327
11578080 2 17096926854396645821
12293681 160 16389290418067302980
12553582 1 18122620548560090158
12633257 1 18040709264584146915
12788726 201 17184475858695271918
12954195 1 17182794697439216436
13140716 1 18337956800019907723
138480 1 18194401091394910958
14178342 30 18269539594555530307
14223421 5 18335141973291497417
14363568 33 18339646612358871994
14787075 74 17896896356523484290
14790565 3 18410297991376703028
14866123 147 18121776399245862738
14955137 171 18338243665533996314
15309172 13 18264485264061990229
15420108 30 18057868182817741774
15906896 17 17695068090614702590
16945 1 18337096900148372590
17138139 8 17337842256493987455
19591789 44 18409725149991500302
20157964 124 18410289195615633125
20510252 161 17547290463560889720
20645477 70 18261376837764179381
20739085 24 18335139765557254400
21524375 3 18128536153092971981
21731228 192 18266463293991081665
22182313 1 16762514641175867286
2255824 54 18410862052918805055
2334 1 18338217294186736070
23557571 272 16901302669481470462
23558518 356 17469322995146619196
23559900 14 18337954472659147865
2748010 2 17619317954732300098
283562 15 16749868633884374224
3091708 16 9114440666822290990
31174 14 18263367997334473803
352729 6 17905876325590389166
3610482 184 16740326982027542900
458136 41 18338248136120230161
474 4 18410853300155328897
58807428 26 18339357582023316128
6287921 2 18342736299703899011
633830 44 18201164359422262485
6438718 38 17192650697483204542
7097593 13 18269837506593550857
7364860 26 18411422769610629597
81228 2 17111560095874270572

>  <PUBCHEM_SHAPE_MULTIPOLES>  (1) 
426.06
5.98
4.99
1.1
7.66
2.67
0.19
-3.13
2.71
-4.8
-1.02
0.17
-0.06
-0.82

>  <PUBCHEM_SHAPE_SELFOVERLAP>  (1) 
925.474

>  <PUBCHEM_SHAPE_VOLUME>  (1) 
231.9

>  <PUBCHEM_COORDINATE_TYPE>  (1) 
2
5
10

$$$$
