31778
     RDKit          3D

 24 27  0  0  1  0  0  0  0  0999 V2000
   -3.6983    1.4445    0.1855 O   0  0  0  0  0  0  0  0  0  0  0  0
    6.3782   -0.8031    1.1333 O   0  0  0  0  0  0  0  0  0  0  0  0
   -1.5516    0.3184    0.5227 C   0  0  0  0  0  0  0  0  0  0  0  0
   -0.9467    1.0958   -0.6790 C   0  0  0  0  0  0  0  0  0  0  0  0
    0.5893    1.0521   -0.8459 C   0  0  0  0  0  0  0  0  0  0  0  0
    1.1843   -0.3651   -0.6483 C   0  0  0  0  0  0  0  0  0  0  0  0
   -3.0417    0.1739    0.0687 C   0  0  0  0  0  0  0  0  0  0  0  0
   -0.8533   -1.0489    0.7036 C   0  0  0  0  0  0  0  0  0  0  0  0
   -1.6706    0.5218   -1.9183 C   0  0  0  0  0  0  0  0  0  0  0  0
    0.6763   -0.9826    0.6674 C   0  0  0  0  0  0  0  0  0  0  0  0
   -2.9463   -0.1620   -1.4232 C   0  0  0  0  0  0  0  0  0  0  0  0
    2.7372   -0.3536   -0.8269 C   0  0  0  0  0  0  0  0  0  0  0  0
    1.2853    2.0803    0.0660 C   0  0  0  0  0  0  0  0  0  0  0  0
   -1.4633    1.1140    1.8407 C   0  0  0  0  0  0  0  0  0  0  0  0
   -3.8778   -0.8485    0.8356 C   0  0  0  0  0  0  0  0  0  0  0  0
    2.7859    2.1291   -0.1872 C   0  0  0  0  0  0  0  0  0  0  0  0
    3.4294    0.7717   -0.0795 C   0  0  0  0  0  0  0  0  0  0  0  0
    3.3696   -1.7264   -0.5231 C   0  0  0  0  0  0  0  0  0  0  0  0
    4.8877   -1.6644   -0.5390 C   0  0  0  0  0  0  0  0  0  0  0  0
    4.5970    0.6272    0.5679 C   0  0  0  0  0  0  0  0  0  0  0  0
   -5.2937   -0.9371    0.3266 C   0  0  0  0  0  0  0  0  0  0  0  0
    5.3570   -0.6432    0.4688 C   0  0  0  0  0  0  0  0  0  0  0  0
   -6.3048   -0.0181    0.9496 C   0  0  0  0  0  0  0  0  0  0  0  0
   -5.6290   -1.7758   -0.6661 C   0  0  0  0  0  0  0  0  0  0  0  0
  1  7  1  0
  2 22  2  0
  3  4  1  0
  3  7  1  0
  3  8  1  0
  3 14  1  0
  4  5  1  0
  4  9  1  0
  5  6  1  0
  5 13  1  0
  6 10  1  0
  6 12  1  0
  7 11  1  0
  7 15  1  0
  8 10  1  0
  9 11  1  0
 12 17  1  0
 12 18  1  0
 13 16  1  0
 15 21  1  0
 16 17  1  0
 17 20  2  0
 18 19  1  0
 19 22  1  0
 20 22  1  0
 21 23  1  0
 21 24  2  0
M  END
>  <PUBCHEM_COMPOUND_CID>  (1) 
31778

>  <PUBCHEM_CONFORMER_RMSD>  (1) 
0.6

>  <PUBCHEM_CONFORMER_DIVERSEORDER>  (1) 
5
81
65
100
68
169
92
107
117
165
60
120
28
168
14
33
110
75
123
173
84
37
129
32
109
53
163
118
137
159
64
70
52
126
42
98
55
89
147
145
40
152
140
10
108
54
132
7
101
139
167
76
30
130
156
23
142
113
43
59
138
82
77
41
39
95
87
83
13
93
114
74
56
50
67
171
88
2
157
25
124
127
166
51
111
143
85
122
115
149
153
136
48
155
34
57
18
31
44
24
86
79
66
103
78
170
9
106
161
150
17
69
20
133
38
8
35
1
162
63
125
47
27
131
6
21
16
158
29
91
154
97
90
26
144
146
22
73
3
58
105
11
61
15
19
148
96
62
121
102
135
141
160
4
151
172
72
104
119
12
94
71
49
112
99
45
128
116
134
80
46
164
36

>  <PUBCHEM_MMFF94_PARTIAL_CHARGES>  (1) 
17
1 -0.68
12 0.14
15 0.14
16 0.14
17 -0.28
19 0.06
2 -0.57
20 -0.14
21 -0.28
22 0.49
23 0.14
24 -0.3
48 0.4
51 0.15
55 0.15
56 0.15
7 0.28

>  <PUBCHEM_EFFECTIVE_ROTOR_COUNT>  (1) 
3.8

>  <PUBCHEM_PHARMACOPHORE_FEATURES>  (1) 
7
1 1 acceptor
1 1 donor
1 2 acceptor
5 3 4 7 9 11 rings
6 12 17 18 19 20 22 rings
6 3 4 5 6 8 10 rings
6 5 6 12 13 16 17 rings

>  <PUBCHEM_HEAVY_ATOM_COUNT>  (1) 
24

>  <PUBCHEM_ATOM_DEF_STEREO_COUNT>  (1) 
1

>  <PUBCHEM_ATOM_UDEF_STEREO_COUNT>  (1) 
5

>  <PUBCHEM_BOND_DEF_STEREO_COUNT>  (1) 
0

>  <PUBCHEM_BOND_UDEF_STEREO_COUNT>  (1) 
0

>  <PUBCHEM_ISOTOPIC_ATOM_COUNT>  (1) 
0

>  <PUBCHEM_COMPONENT_COUNT>  (1) 
1

>  <PUBCHEM_CACTVS_TAUTO_COUNT>  (1) 
8

>  <PUBCHEM_CONFORMER_ID>  (1) 
00007C2200000005

>  <PUBCHEM_MMFF94_ENERGY>  (1) 
72.9581

>  <PUBCHEM_FEATURE_SELFOVERLAP>  (1) 
35.751

>  <PUBCHEM_SHAPE_FINGERPRINT>  (1) 
10 15 15267341851067187147
10366900 7 17022906739683138728
106641 1 15841547514113117079
11315181 36 13695878004374435606
12011746 2 16515398577544271579
12166972 35 18334297578394760756
12236239 1 17846782927073503605
12403259 226 18259979379528024692
12403259 415 17894341202763202084
12403260 363 18334859432625145428
12403814 3 16702020855370188449
12596602 18 17060622204519020195
12616971 3 17988922309733921869
12788726 201 17131290028807281425
12892183 10 17489308521630367520
13288520 33 18040715866244259663
13533116 47 18343304790539438352
13583140 156 16988269902704374089
13685833 64 18187366532418126448
13782708 43 17967532380483670779
13862211 1 18113615698641780611
14251764 18 18333448764308316968
14341114 176 18273221888829464903
14787075 74 18129945705904518603
14849402 71 17844801676547370720
15142383 8 18201720618085518713
15183329 4 12468629526266952535
15788980 27 18408885139623110357
15848702 151 18412267211583552294
16752209 62 15285628906964363853
17349148 13 18412546522286921432
17492 89 17916875594964576110
17857418 61 18413107290413066479
1813 80 18340499872095098852
18785283 64 18263643030140458636
19141452 34 18336831991351613607
19377110 9 17489867171904872042
19489759 90 16153704306271061143
19784866 170 11959732672241382947
200 152 18272367572589643813
20028762 73 18343300400577362806
20645477 70 18260830419224393108
21150785 3 14779554499772877598
21267235 1 18411705353469734942
21637258 2 18411694422482671455
21682296 61 18338240358151189518
21781051 124 15647350666650514657
22393880 68 17968364702760179111
23402539 116 18343297059149743533
23522609 53 17897476966992362005
23557571 272 17458059357275766597
23559900 14 18339364179024192529
25147074 1 15840408471168661165
26918003 58 18342741831869351819
296302 2 11959733767447539516
3004659 81 17967258585683451638
3286 77 18335987540282211637
4340502 62 16845577521456355422
465052 167 18187367649167807986
5104073 3 18058445396985210146
542803 24 12679458681906382330
59755656 215 17167854258188087963
67856867 119 18201438146222825265
7495541 125 18114185263166240316

>  <PUBCHEM_SHAPE_MULTIPOLES>  (1) 
482.17
13.25
1.85
1.33
1.62
0.24
0.1
-5.75
-2.78
-0.89
0.08
0.62
0.11
-0.16

>  <PUBCHEM_SHAPE_SELFOVERLAP>  (1) 
1026.299

>  <PUBCHEM_SHAPE_VOLUME>  (1) 
266.1

>  <PUBCHEM_COORDINATE_TYPE>  (1) 
2
5
10

$$$$
