31771
     RDKit          3D

 18 19  0  0  0  0  0  0  0  0999 V2000
   -0.2952   -1.2297    0.0622 S   0  0  0  0  0  0  0  0  0  0  0  0
    4.0346   -0.8342    0.2896 O   0  0  0  0  0  0  0  0  0  0  0  0
   -0.3177   -2.3161   -0.9101 O   0  0  0  0  0  0  0  0  0  0  0  0
    0.0738   -1.5283    1.4405 O   0  0  0  0  0  0  0  0  0  0  0  0
    0.7254    0.0157   -0.5508 N   0  0  0  0  0  0  0  0  0  0  0  0
    2.7080   -1.1882    0.0758 N   0  0  0  0  0  0  0  0  0  0  0  0
   -5.6592    1.3360    0.0391 N   0  0  0  0  0  0  0  0  0  0  0  0
   -1.8706   -0.4773    0.0557 C   0  0  0  0  0  0  0  0  0  0  0  0
    2.1300   -0.0500   -0.2488 C   0  0  0  0  0  0  0  0  0  0  0  0
    2.9758    1.0471   -0.2683 C   0  0  0  0  0  0  0  0  0  0  0  0
    4.1815    0.4994    0.0817 C   0  0  0  0  0  0  0  0  0  0  0  0
   -2.6866   -0.5772   -1.0712 C   0  0  0  0  0  0  0  0  0  0  0  0
   -2.3130    0.2249    1.1769 C   0  0  0  0  0  0  0  0  0  0  0  0
    2.6836    2.4561   -0.5804 C   0  0  0  0  0  0  0  0  0  0  0  0
   -3.9448    0.0248   -1.0768 C   0  0  0  0  0  0  0  0  0  0  0  0
   -3.5712    0.8268    1.1711 C   0  0  0  0  0  0  0  0  0  0  0  0
   -4.3873    0.7268    0.0443 C   0  0  0  0  0  0  0  0  0  0  0  0
    5.5329    1.0435    0.2695 C   0  0  0  0  0  0  0  0  0  0  0  0
  1  3  2  0
  1  4  2  0
  1  5  1  0
  1  8  1  0
  2  6  1  0
  2 11  1  0
  5  9  1  0
  6  9  2  0
  7 17  1  0
  8 12  2  0
  8 13  1  0
  9 10  1  0
 10 11  2  0
 10 14  1  0
 11 18  1  0
 12 15  1  0
 13 16  2  0
 15 17  2  0
 16 17  1  0
M  END
>  <PUBCHEM_COMPOUND_CID>  (1) 
31771

>  <PUBCHEM_CONFORMER_RMSD>  (1) 
0.6

>  <PUBCHEM_CONFORMER_DIVERSEORDER>  (1) 
7
3
20
1
21
10
17
18
2
16
6
4
5
19
11
13
12
9
8
14
15

>  <PUBCHEM_MMFF94_PARTIAL_CHARGES>  (1) 
25
1 1.45
10 -0.18
11 -0.04
12 -0.15
13 -0.15
14 0.18
15 -0.15
16 -0.15
17 0.1
18 0.18
19 0.42
2 -0.02
20 0.15
21 0.15
25 0.15
26 0.15
3 -0.65
30 0.4
31 0.4
4 -0.65
5 -0.7
6 -0.41
7 -0.9
8 -0.01
9 0.43

>  <PUBCHEM_EFFECTIVE_ROTOR_COUNT>  (1) 
3

>  <PUBCHEM_PHARMACOPHORE_FEATURES>  (1) 
8
1 3 acceptor
1 4 acceptor
1 5 donor
1 6 acceptor
1 7 cation
1 7 donor
5 2 6 9 10 11 rings
6 8 12 13 15 16 17 rings

>  <PUBCHEM_HEAVY_ATOM_COUNT>  (1) 
18

>  <PUBCHEM_ATOM_DEF_STEREO_COUNT>  (1) 
0

>  <PUBCHEM_ATOM_UDEF_STEREO_COUNT>  (1) 
0

>  <PUBCHEM_BOND_DEF_STEREO_COUNT>  (1) 
0

>  <PUBCHEM_BOND_UDEF_STEREO_COUNT>  (1) 
0

>  <PUBCHEM_ISOTOPIC_ATOM_COUNT>  (1) 
0

>  <PUBCHEM_COMPONENT_COUNT>  (1) 
1

>  <PUBCHEM_CACTVS_TAUTO_COUNT>  (1) 
2

>  <PUBCHEM_CONFORMER_ID>  (1) 
00007C1B00000007

>  <PUBCHEM_MMFF94_ENERGY>  (1) 
30.5911

>  <PUBCHEM_FEATURE_SELFOVERLAP>  (1) 
40.615

>  <PUBCHEM_SHAPE_FINGERPRINT>  (1) 
11046707 91 10953453037868393775
11089746 13 17917426567034618576
12236239 1 18201998807385529759
122479 349 18262242230202469194
12507557 5 18334579078724427065
12633257 1 18040988592515253520
12670546 177 14764341678080865112
12916748 109 18060426811031876147
13288520 33 7853582317941284256
13583140 156 17894631495476479059
13675066 3 17312823779477626090
15188451 53 15719967946429912425
15295992 7 17968099780086390864
1813 80 17623575241690427830
18186145 218 18410016532882918862
192875 21 18343587321672279376
20112054 13 18040718069230192567
20300324 65 17275384326478440585
20871999 31 14764634101219214139
21033648 29 17531511157442864325
21033650 10 16629431114926666368
21524375 3 18411983567896393731
22079108 93 18186809097503543179
22854114 59 17240484702078703299
22950370 63 10665229237174377653
231179 274 18186798045893274831
23184049 59 18261114066900459884
23402539 116 17989200460379422060
23402655 69 18272086115114581876
235170 7 14117527510196035072
23559900 14 17060336336481368410
345986 75 17972295340991735402
351380 180 18333731312394199617
4325135 7 18411419549234652567
4340502 62 18114476574288199651
465052 167 11026095546823869321
474 4 18410859854069622747
5104073 3 18042399304667524256
57724786 102 17895204332402898756
6328613 192 18337961216138429244
633830 44 18334576836788473815
83771 10 8935001464433595415
9971528 1 18343586222888216356
9981440 41 17405973537073860080

>  <PUBCHEM_SHAPE_MULTIPOLES>  (1) 
341.73
11.1
1.82
1.07
1.06
0.02
0.12
5.62
0.25
0.7
-0.19
-0.81
-0.11
-0.63

>  <PUBCHEM_SHAPE_SELFOVERLAP>  (1) 
712.16

>  <PUBCHEM_SHAPE_VOLUME>  (1) 
196

>  <PUBCHEM_COORDINATE_TYPE>  (1) 
2
5
10

$$$$
