31776
     RDKit          3D

 36 40  0  0  1  0  0  0  0  0999 V2000
   11.4168    0.0183   -0.0300 Cl  0  0  0  0  0  0  0  0  0  0  0  0
  -11.4171   -0.0267   -0.0299 Cl  0  0  0  0  0  0  0  0  0  0  0  0
    1.2819    0.6731    1.1660 N   0  0  0  0  0  0  0  0  0  0  0  0
   -1.2812   -0.6644    1.1677 N   0  0  0  0  0  0  0  0  0  0  0  0
    4.7662    1.3451    0.0116 N   0  0  0  0  0  0  0  0  0  0  0  0
   -4.7646   -1.3439    0.0148 N   0  0  0  0  0  0  0  0  0  0  0  0
    6.9200   -2.0934   -1.0623 N   0  0  0  0  0  0  0  0  0  0  0  0
   -6.9232    2.0891   -1.0668 N   0  0  0  0  0  0  0  0  0  0  0  0
    0.7661    0.0147    2.3726 C   0  0  0  0  0  0  0  0  0  0  0  0
    0.7660    0.0123   -0.0392 C   0  0  0  0  0  0  0  0  0  0  0  0
   -0.7664   -0.0018    2.3723 C   0  0  0  0  0  0  0  0  0  0  0  0
   -0.7664   -0.0055   -0.0388 C   0  0  0  0  0  0  0  0  0  0  0  0
    2.7434    0.6857    1.1661 C   0  0  0  0  0  0  0  0  0  0  0  0
   -2.7426   -0.6791    1.1678 C   0  0  0  0  0  0  0  0  0  0  0  0
    3.3192    1.4072   -0.0589 C   0  0  0  0  0  0  0  0  0  0  0  0
   -3.3175   -1.4042   -0.0556 C   0  0  0  0  0  0  0  0  0  0  0  0
    2.8953    2.8711   -0.1525 C   0  0  0  0  0  0  0  0  0  0  0  0
   -2.8914   -2.8676   -0.1459 C   0  0  0  0  0  0  0  0  0  0  0  0
    5.4996    0.2259   -0.3350 C   0  0  0  0  0  0  0  0  0  0  0  0
   -5.4994   -0.2265   -0.3343 C   0  0  0  0  0  0  0  0  0  0  0  0
    6.9158    0.1793   -0.2610 C   0  0  0  0  0  0  0  0  0  0  0  0
   -6.9158   -0.1818   -0.2605 C   0  0  0  0  0  0  0  0  0  0  0  0
    4.8277   -0.9218   -0.7827 C   0  0  0  0  0  0  0  0  0  0  0  0
   -4.8292    0.9210   -0.7845 C   0  0  0  0  0  0  0  0  0  0  0  0
    7.5863   -1.0040   -0.6356 C   0  0  0  0  0  0  0  0  0  0  0  0
   -7.5880    0.9996   -0.6376 C   0  0  0  0  0  0  0  0  0  0  0  0
    7.6431    1.2978    0.1801 C   0  0  0  0  0  0  0  0  0  0  0  0
   -7.6415   -1.3005    0.1830 C   0  0  0  0  0  0  0  0  0  0  0  0
    5.5702   -2.0329   -1.1273 C   0  0  0  0  0  0  0  0  0  0  0  0
   -5.5733    2.0304   -1.1316 C   0  0  0  0  0  0  0  0  0  0  0  0
    8.9759   -1.0231   -0.5536 C   0  0  0  0  0  0  0  0  0  0  0  0
   -8.9776    1.0171   -0.5558 C   0  0  0  0  0  0  0  0  0  0  0  0
    9.0324    1.2508    0.2522 C   0  0  0  0  0  0  0  0  0  0  0  0
   -9.0308   -1.2553    0.2550 C   0  0  0  0  0  0  0  0  0  0  0  0
    9.6993    0.0887   -0.1151 C   0  0  0  0  0  0  0  0  0  0  0  0
   -9.6993   -0.0949   -0.1148 C   0  0  0  0  0  0  0  0  0  0  0  0
  1 35  1  0
  2 36  1  0
  3  9  1  0
  3 10  1  0
  3 13  1  0
  4 11  1  0
  4 12  1  0
  4 14  1  0
  5 15  1  0
  5 19  1  0
  6 16  1  0
  6 20  1  0
  7 25  2  0
  7 29  1  0
  8 26  2  0
  8 30  1  0
  9 11  1  0
 10 12  1  0
 13 15  1  0
 14 16  1  0
 15 17  1  0
 16 18  1  0
 19 21  2  0
 19 23  1  0
 20 22  2  0
 20 24  1  0
 21 25  1  0
 21 27  1  0
 22 26  1  0
 22 28  1  0
 23 29  2  0
 24 30  2  0
 25 31  1  0
 26 32  1  0
 27 33  2  0
 28 34  2  0
 31 35  2  0
 32 36  2  0
 33 35  1  0
 34 36  1  0
M  END
>  <PUBCHEM_COMPOUND_CID>  (1) 
31776

>  <PUBCHEM_CONFORMER_RMSD>  (1) 
1.4

>  <PUBCHEM_CONFORMER_DIVERSEORDER>  (1) 
1
38
110
33
6
55
78
154
39
123
200
72
86
7
4
94
118
31
5
84
195
103
133
153
191
3
80
8
194
151
204
188
147
181
167
190
40
186
70
12
107
198
199
113
136
159
128
98
202
170
30
66
214
173
197
177
131
143
163
157
206
17
135
45
89
58
112
53
71
108
140
210
32
60
83
61
48
100
102
97
150
158
215
101
44
16
148
213
174
115
20
119
201
95
120
47
152
187
172
14
43
162
21
208
122
50
171
69
182
52
212
41
169
19
203
166
124
218
129
74
62
85
42
178
73
63
196
216
117
106
138
165
126
114
88
46
9
219
92
23
35
90
59
99
64
192
160
22
175
54
79
51
24
57
132
67
68
96
75
81
184
109
149
13
176
87
185
93
155
105
82
211
207
142
217
125
145
91
139
130
56
189
76
121
36
116
180
104
27
137
146
10
193
111
34
168
2
77
164
209
28
183
156
11
144
179
26
205
161
29
127
37
25
15
49
65
134
18
141

>  <PUBCHEM_MMFF94_PARTIAL_CHARGES>  (1) 
44
1 -0.18
10 0.27
11 0.27
12 0.27
13 0.27
14 0.27
15 0.37
16 0.37
19 0.1
2 -0.18
20 0.1
23 -0.15
24 -0.15
25 0.31
26 0.31
27 -0.15
28 -0.15
29 0.16
3 -0.81
30 0.16
31 -0.15
32 -0.15
33 -0.15
34 -0.15
35 0.18
36 0.18
4 -0.81
5 -0.87
57 0.4
58 0.4
59 0.15
6 -0.87
60 0.15
61 0.15
62 0.15
63 0.15
64 0.15
65 0.15
66 0.15
67 0.15
68 0.15
7 -0.62
8 -0.62
9 0.27

>  <PUBCHEM_EFFECTIVE_ROTOR_COUNT>  (1) 
9.2

>  <PUBCHEM_PHARMACOPHORE_FEATURES>  (1) 
13
1 3 cation
1 4 cation
1 5 cation
1 5 donor
1 6 cation
1 6 donor
1 7 acceptor
1 8 acceptor
6 21 25 27 31 33 35 rings
6 22 26 28 32 34 36 rings
6 3 4 9 10 11 12 rings
6 7 19 21 23 25 29 rings
6 8 20 22 24 26 30 rings

>  <PUBCHEM_HEAVY_ATOM_COUNT>  (1) 
36

>  <PUBCHEM_ATOM_DEF_STEREO_COUNT>  (1) 
0

>  <PUBCHEM_ATOM_UDEF_STEREO_COUNT>  (1) 
2

>  <PUBCHEM_BOND_DEF_STEREO_COUNT>  (1) 
0

>  <PUBCHEM_BOND_UDEF_STEREO_COUNT>  (1) 
0

>  <PUBCHEM_ISOTOPIC_ATOM_COUNT>  (1) 
0

>  <PUBCHEM_COMPONENT_COUNT>  (1) 
1

>  <PUBCHEM_CACTVS_TAUTO_COUNT>  (1) 
6

>  <PUBCHEM_CONFORMER_ID>  (1) 
00007C2000000001

>  <PUBCHEM_MMFF94_ENERGY>  (1) 
122.2351

>  <PUBCHEM_FEATURE_SELFOVERLAP>  (1) 
66.037

>  <PUBCHEM_SHAPE_FINGERPRINT>  (1) 
10165383 225 15574711404590406163
10580692 12 18410293609686374765
10674148 151 17967248715595670648
10883706 142 16225765212076979546
11146851 88 17489588969783094038
11297750 10 16558742395453420993
11408170 108 16343433808621144134
11672396 167 17488190293205945454
12082328 90 18131352973599025289
12144603 126 15123511414974970979
12539747 363 13614515255625017530
12664476 115 17822006519506161261
12758862 11 18343298205948418209
13740195 50 8142084256496184166
14251764 46 18410292518769949839
14294032 229 16081640081442153420
15183329 4 18410293588211538705
15274700 256 18259700100192296788
15347591 1 18048882084710646926
15392192 104 14490191614213375321
15510794 2 18409450301516701426
15728490 51 10015863180643634329
15773216 30 17823130138501436826
15890870 6 17989489623807295558
16992610 120 16950005828716719971
19841028 212 18271246024461625158
20105231 36 18187932815884017499
21792961 116 18273217504411765187
232437 2 18407759240196335134
249057 3 18410575114727850012
3092352 35 14706927354189785985
3633792 109 18342741819306210144
3711267 37 15357699677893209574
4098825 35 18411135849143064263
4149490 64 13685717503669728223
4874694 18 18344145895819144166
5219985 9 15769775753762847328
58083652 198 16486978452935717226
6081469 158 18131914850211237512
6126387 218 18343300366891843816
6523845 18 15863786209761488687
6691757 9 15338844208844711279
67123 10 18410573985151451399

>  <PUBCHEM_SHAPE_MULTIPOLES>  (1) 
714.72
42.63
2.11
1.28
0.02
0
0.74
0.08
-9.69
-0.01
-0.57
0.01
0
2.51

>  <PUBCHEM_SHAPE_SELFOVERLAP>  (1) 
1526.669

>  <PUBCHEM_SHAPE_VOLUME>  (1) 
396.9

>  <PUBCHEM_COORDINATE_TYPE>  (1) 
2
5
10

$$$$
