31772
     RDKit          3D

 19 20  0  0  1  0  0  0  0  0999 V2000
    4.4191   -0.7426    0.0505 S   0  0  0  0  0  0  0  0  0  0  0  0
    5.3867    0.0596    0.7735 O   0  0  0  0  0  0  0  0  0  0  0  0
    4.8241   -1.9459   -0.6495 O   0  0  0  0  0  0  0  0  0  0  0  0
   -2.8563    0.3545    0.4859 O   0  0  0  0  0  0  0  0  0  0  0  0
   -6.1495   -0.5566   -0.2472 O   0  0  0  0  0  0  0  0  0  0  0  0
   -5.3064    0.7828    1.2802 O   0  0  0  0  0  0  0  0  0  0  0  0
    1.7167    0.7774    0.4820 N   0  0  0  0  0  0  0  0  0  0  0  0
    0.6672    0.1785   -0.1242 N   0  0  0  0  0  0  0  0  0  0  0  0
   -5.1508   -0.0085    0.3045 N   0  0  0  0  0  0  0  0  0  0  0  0
    2.7394    1.3781   -0.3952 C   0  0  0  0  0  0  0  0  0  0  0  0
    3.5764    0.3143   -1.1125 C   0  0  0  0  0  0  0  0  0  0  0  0
    3.1057   -1.1750    1.1729 C   0  0  0  0  0  0  0  0  0  0  0  0
    2.3178    0.0542    1.6115 C   0  0  0  0  0  0  0  0  0  0  0  0
    2.1054    2.3361   -1.4086 C   0  0  0  0  0  0  0  0  0  0  0  0
   -0.4782    0.4952    0.3881 C   0  0  0  0  0  0  0  0  0  0  0  0
   -1.7265   -0.0450   -0.1245 C   0  0  0  0  0  0  0  0  0  0  0  0
   -1.9599   -0.9087   -1.1427 C   0  0  0  0  0  0  0  0  0  0  0  0
   -3.3657   -1.0686   -1.1773 C   0  0  0  0  0  0  0  0  0  0  0  0
   -3.8651   -0.2796   -0.1671 C   0  0  0  0  0  0  0  0  0  0  0  0
  1  2  2  0
  1  3  2  0
  1 11  1  0
  1 12  1  0
  4 16  1  0
  4 19  1  0
  5  9  1  0
  6  9  2  0
  7  8  1  0
  7 10  1  0
  7 13  1  0
  8 15  2  0
  9 19  1  0
 10 11  1  0
 10 14  1  0
 12 13  1  0
 15 16  1  0
 16 17  2  0
 17 18  1  0
 18 19  2  0
M  CHG  2   5  -1   9   1
M  END
>  <PUBCHEM_COMPOUND_CID>  (1) 
31772

>  <PUBCHEM_CONFORMER_RMSD>  (1) 
0.6

>  <PUBCHEM_CONFORMER_DIVERSEORDER>  (1) 
7
49
43
14
24
33
68
8
37
52
45
17
5
51
20
23
66
26
12
19
60
15
6
57
1
58
27
67
64
50
4
25
3
54
61
53
21
35
13
28
18
56
2
10
65
16
29
41
69
42
39
70
38
47
55
32
44
31
34
36
48
11
22
59
9
30
62
46
40
71
63

>  <PUBCHEM_MMFF94_PARTIAL_CHARGES>  (1) 
21
1 1.09
10 0.27
11 0.11
12 0.11
13 0.27
15 0.47
16 0.05
17 -0.15
18 -0.15
19 0.22
2 -0.65
3 -0.65
30 0.06
31 0.15
32 0.15
4 -0.28
5 -0.52
6 -0.52
7 -0.49
8 -0.5
9 0.96

>  <PUBCHEM_EFFECTIVE_ROTOR_COUNT>  (1) 
4

>  <PUBCHEM_PHARMACOPHORE_FEATURES>  (1) 
9
1 2 acceptor
1 3 acceptor
1 4 acceptor
1 5 acceptor
1 5 anion
1 6 acceptor
1 8 acceptor
5 4 16 17 18 19 rings
6 1 7 10 11 12 13 rings

>  <PUBCHEM_HEAVY_ATOM_COUNT>  (1) 
19

>  <PUBCHEM_ATOM_DEF_STEREO_COUNT>  (1) 
0

>  <PUBCHEM_ATOM_UDEF_STEREO_COUNT>  (1) 
1

>  <PUBCHEM_BOND_DEF_STEREO_COUNT>  (1) 
0

>  <PUBCHEM_BOND_UDEF_STEREO_COUNT>  (1) 
1

>  <PUBCHEM_ISOTOPIC_ATOM_COUNT>  (1) 
0

>  <PUBCHEM_COMPONENT_COUNT>  (1) 
1

>  <PUBCHEM_CACTVS_TAUTO_COUNT>  (1) 
1

>  <PUBCHEM_CONFORMER_ID>  (1) 
00007C1C00000007

>  <PUBCHEM_MMFF94_ENERGY>  (1) 
25.9599

>  <PUBCHEM_FEATURE_SELFOVERLAP>  (1) 
45.783

>  <PUBCHEM_SHAPE_FINGERPRINT>  (1) 
10366900 7 16008749104412985001
11287383 113 14851608777694834202
11405975 8 17346594222731655435
11796584 16 17489874847233210518
12236239 1 18413672409087459129
12553582 1 18114730569336175762
12730499 353 16370732534390930464
128620 24 12685091475511810531
13167823 11 18336546118291293135
13533116 47 10951783961969294661
14251718 22 12468363453121813827
14386348 63 15769781268395495868
14528608 73 7925908175420508790
15375358 24 14908184157223968693
17834072 33 10809342247749339273
17844677 252 17530965787280916533
1813 80 18261960652468258268
18186145 218 17822282530830582417
19784866 140 17603585180099359880
20279233 1 14979679926616261125
20645477 56 15052012386182496713
20645477 70 18186803599628827950
21618674 57 17132115732085830491
221357 26 17385999559566226957
23402539 116 16415472736668003041
23557571 272 15841286865010955488
23558518 356 16738060879749934952
23559900 14 14273459206054879879
23590187 302 17458063763964875028
3004659 81 18059866073044823372
3060560 45 17748821930466101154
34797466 226 14490484049160822762
351380 180 14764347132889628619
351380 3 18409445865021199922
3545911 37 11600005478762307852
42 15 17704069590447880230
465052 167 18335426772135396111
4990 188 16298383544075619282
5104073 3 17131549561228931075
522135 26 18040432200549384880
5281201 14 17240197729280084228
5374978 207 15267344028388616698
542803 24 18412546522134057545
573450 72 17918270969951635927
7495541 125 16081090389709609792
90127 26 17603302661709775861
9971528 1 18411133645782701780

>  <PUBCHEM_SHAPE_MULTIPOLES>  (1) 
350.57
12.85
1.52
1.31
10.65
0.72
-0.03
-3.05
-0.42
-2.13
0.41
0.04
-0.16
-0.73

>  <PUBCHEM_SHAPE_SELFOVERLAP>  (1) 
719.168

>  <PUBCHEM_SHAPE_VOLUME>  (1) 
203.8

>  <PUBCHEM_COORDINATE_TYPE>  (1) 
2
5
10

$$$$
