3177
     RDKit          3D

 23 25  0  0  0  0  0  0  0  0999 V2000
   -4.1498   -4.4347   -0.0030 Br  0  0  0  0  0  0  0  0  0  0  0  0
    4.6441   -0.1141    0.0005 S   0  0  0  0  0  0  0  0  0  0  0  0
   -3.7115   -1.2826   -0.0003 S   0  0  0  0  0  0  0  0  0  0  0  0
   -1.7498    4.9645    0.0001 F   0  0  0  0  0  0  0  0  0  0  0  0
    5.2182   -0.5662    1.2598 O   0  0  0  0  0  0  0  0  0  0  0  0
    5.2369   -0.5425   -1.2591 O   0  0  0  0  0  0  0  0  0  0  0  0
   -1.1513   -1.5528   -0.0004 C   0  0  0  0  0  0  0  0  0  0  0  0
    0.2420   -1.2071   -0.0002 C   0  0  0  0  0  0  0  0  0  0  0  0
   -2.1439   -0.5933    0.0000 C   0  0  0  0  0  0  0  0  0  0  0  0
    2.9495   -0.5346    0.0002 C   0  0  0  0  0  0  0  0  0  0  0  0
    0.9188   -1.0385   -1.2081 C   0  0  0  0  0  0  0  0  0  0  0  0
    0.9188   -1.0396    1.2078 C   0  0  0  0  0  0  0  0  0  0  0  0
    2.2725   -0.7023   -1.2079 C   0  0  0  0  0  0  0  0  0  0  0  0
    2.2726   -0.7033    1.2082 C   0  0  0  0  0  0  0  0  0  0  0  0
   -2.0414    0.8504    0.0007 C   0  0  0  0  0  0  0  0  0  0  0  0
   -1.6944   -2.8735   -0.0013 C   0  0  0  0  0  0  0  0  0  0  0  0
   -3.0718   -2.8710   -0.0013 C   0  0  0  0  0  0  0  0  0  0  0  0
    4.6577    1.6645    0.0009 C   0  0  0  0  0  0  0  0  0  0  0  0
   -1.9924    1.5411   -1.2072 C   0  0  0  0  0  0  0  0  0  0  0  0
   -1.9926    1.5415    1.2087 C   0  0  0  0  0  0  0  0  0  0  0  0
   -1.8937    2.9325   -1.2075 C   0  0  0  0  0  0  0  0  0  0  0  0
   -1.8939    2.9329    1.2086 C   0  0  0  0  0  0  0  0  0  0  0  0
   -1.8446    3.6285    0.0005 C   0  0  0  0  0  0  0  0  0  0  0  0
  1 17  1  0
  2  5  2  0
  2  6  2  0
  2 10  1  0
  2 18  1  0
  3  9  1  0
  3 17  1  0
  4 23  1  0
  7  8  1  0
  7  9  2  0
  7 16  1  0
  8 11  2  0
  8 12  1  0
  9 15  1  0
 10 13  2  0
 10 14  1  0
 11 13  1  0
 12 14  2  0
 15 19  2  0
 15 20  1  0
 16 17  2  0
 19 21  1  0
 20 22  2  0
 21 23  2  0
 22 23  1  0
M  END
>  <PUBCHEM_COMPOUND_CID>  (1) 
3177

>  <PUBCHEM_CONFORMER_RMSD>  (1) 
0.6

>  <PUBCHEM_CONFORMER_DIVERSEORDER>  (1) 
1
8
3
6
4
5
7
2

>  <PUBCHEM_MMFF94_PARTIAL_CHARGES>  (1) 
32
1 -0.06
10 -0.01
11 -0.15
12 -0.15
13 -0.15
14 -0.15
15 0.05
16 -0.15
17 0.1
18 0.11
19 -0.15
2 1.2
20 -0.15
21 -0.15
22 -0.15
23 0.19
24 0.15
25 0.15
26 0.15
27 0.15
28 0.15
3 -0.08
32 0.15
33 0.15
34 0.15
35 0.15
4 -0.19
5 -0.65
6 -0.65
7 -0.05
8 0.05
9 -0.01

>  <PUBCHEM_EFFECTIVE_ROTOR_COUNT>  (1) 
3

>  <PUBCHEM_PHARMACOPHORE_FEATURES>  (1) 
6
1 1 hydrophobe
1 5 acceptor
1 6 acceptor
5 3 7 9 16 17 rings
6 15 19 20 21 22 23 rings
6 8 10 11 12 13 14 rings

>  <PUBCHEM_HEAVY_ATOM_COUNT>  (1) 
23

>  <PUBCHEM_ATOM_DEF_STEREO_COUNT>  (1) 
0

>  <PUBCHEM_ATOM_UDEF_STEREO_COUNT>  (1) 
0

>  <PUBCHEM_BOND_DEF_STEREO_COUNT>  (1) 
0

>  <PUBCHEM_BOND_UDEF_STEREO_COUNT>  (1) 
0

>  <PUBCHEM_ISOTOPIC_ATOM_COUNT>  (1) 
0

>  <PUBCHEM_COMPONENT_COUNT>  (1) 
1

>  <PUBCHEM_CACTVS_TAUTO_COUNT>  (1) 
1

>  <PUBCHEM_CONFORMER_ID>  (1) 
00000C6900000001

>  <PUBCHEM_MMFF94_ENERGY>  (1) 
49.5313

>  <PUBCHEM_FEATURE_SELFOVERLAP>  (1) 
30.465

>  <PUBCHEM_SHAPE_FINGERPRINT>  (1) 
10165383 225 17405186974027047805
10411042 1 18194402423167881027
10670039 82 18265067997542476724
10937287 8 17834675998197717093
1100329 8 18337680831887440411
11045515 52 18190457358398913791
11477941 20 18270965773275833284
11582403 64 16157626101503201317
11640471 11 17823697451903155128
12107183 9 17830161417130008922
12156800 1 14184809092274328877
12173636 292 18195247707091004789
12236239 1 17676480696329554979
12403259 226 18272653501896015354
12788726 201 18260820489012345315
13140716 1 18338238283850310131
133893 2 17615703160138080731
13583140 156 17988058042772631922
138480 1 16177069688639376485
13955234 65 17042054460304487633
13965767 371 17392765765266662884
14142880 1 18115590323168377533
14251751 93 18410290277324529072
14347332 77 18410291411186209670
14713325 29 18343029865219276206
14790565 3 18268434525747280921
14955137 171 18121238703663894499
15961568 22 18122907792400786684
1813 80 18054241087595649719
20510252 161 18411698760109386035
20600515 1 18199767971560605831
21033650 10 18190767288045598566
21049683 271 17611751502120054055
21304303 172 18201167654432409043
21304303 282 17978195337191820663
22182937 141 18270967825726777120
22907989 373 18337941329537060933
22956985 138 16819675514524496034
2297311 6 18269285706207022534
23352939 185 17984149424220477803
23366157 5 17397826160665721447
23402539 116 18339639057179836087
23419403 2 17913749881481037171
23557571 272 18342745130019444782
23559900 14 17985831424616206870
23845131 108 17907030478340692633
283562 15 18334573581203594842
350125 39 17906743497047161299
3886686 26 17832390165538063114
469060 322 18338251443529995883
474 4 17546717158716209001
621550 5 17916594278774834130
6442390 28 17981907250145875401
6677587 24 15439826410771935813
7364860 26 17476645746930001907
7399639 24 18058728138956329510
7808743 9 18266465317290190032
81228 2 18339657684806095291
9981440 41 17976251340531004201

>  <PUBCHEM_SHAPE_MULTIPOLES>  (1) 
467.96
8.95
5.23
1.23
11.66
5.68
0
-7.05
-0.01
-7.55
0
0.5
0.26
-0.01

>  <PUBCHEM_SHAPE_SELFOVERLAP>  (1) 
984.208

>  <PUBCHEM_SHAPE_VOLUME>  (1) 
270.3

>  <PUBCHEM_COORDINATE_TYPE>  (1) 
2
5
10

$$$$
