31783
     RDKit          3D

 33 35  0  0  1  0  0  0  0  0999 V2000
   -1.2130   -5.1615   -0.9441 Br  0  0  0  0  0  0  0  0  0  0  0  0
    0.6086    0.4139    4.2530 O   0  0  0  0  0  0  0  0  0  0  0  0
   -0.9265    2.0841    1.3071 N   0  0  0  0  0  0  0  0  0  0  0  0
   -2.3514    1.7777    1.4449 C   0  0  0  0  0  0  0  0  0  0  0  0
   -0.7399    3.4155    0.7425 C   0  0  0  0  0  0  0  0  0  0  0  0
   -0.2561    1.9756    2.6041 C   0  0  0  0  0  0  0  0  0  0  0  0
   -2.9326    1.3397    0.1006 C   0  0  0  0  0  0  0  0  0  0  0  0
    0.6614    3.5476    0.1462 C   0  0  0  0  0  0  0  0  0  0  0  0
   -0.0406    0.5059    2.9855 C   0  0  0  0  0  0  0  0  0  0  0  0
   -4.4213    1.0059    0.2273 C   0  0  0  0  0  0  0  0  0  0  0  0
    0.8883    2.5142   -0.9602 C   0  0  0  0  0  0  0  0  0  0  0  0
    0.8134   -0.2122    1.9638 C   0  0  0  0  0  0  0  0  0  0  0  0
   -5.0683    0.5926   -1.0978 C   0  0  0  0  0  0  0  0  0  0  0  0
    2.2660    2.6205   -1.6203 C   0  0  0  0  0  0  0  0  0  0  0  0
    0.3707   -1.3495    1.2836 C   0  0  0  0  0  0  0  0  0  0  0  0
   -6.5374    0.1881   -0.9580 C   0  0  0  0  0  0  0  0  0  0  0  0
    2.5208    1.5413   -2.6748 C   0  0  0  0  0  0  0  0  0  0  0  0
    2.0779    0.3155    1.7242 C   0  0  0  0  0  0  0  0  0  0  0  0
    1.2159   -1.9809    0.3341 C   0  0  0  0  0  0  0  0  0  0  0  0
    2.9384   -0.2779    0.7970 C   0  0  0  0  0  0  0  0  0  0  0  0
    2.5248   -1.4346    0.0861 C   0  0  0  0  0  0  0  0  0  0  0  0
   -7.1349   -0.2022   -2.3106 C   0  0  0  0  0  0  0  0  0  0  0  0
    3.9032    1.7024   -3.3088 C   0  0  0  0  0  0  0  0  0  0  0  0
   -0.9124   -1.8579    1.5485 C   0  0  0  0  0  0  0  0  0  0  0  0
    0.6972   -3.1293   -0.3151 C   0  0  0  0  0  0  0  0  0  0  0  0
    4.2096    0.2798    0.5779 C   0  0  0  0  0  0  0  0  0  0  0  0
    3.4524   -1.9795   -0.8370 C   0  0  0  0  0  0  0  0  0  0  0  0
   -1.3859   -2.9885    0.8900 C   0  0  0  0  0  0  0  0  0  0  0  0
   -8.6038   -0.5743   -2.1840 C   0  0  0  0  0  0  0  0  0  0  0  0
    4.1502    0.6526   -4.3806 C   0  0  0  0  0  0  0  0  0  0  0  0
   -0.5809   -3.6246   -0.0422 C   0  0  0  0  0  0  0  0  0  0  0  0
    5.0923   -0.2848   -0.3376 C   0  0  0  0  0  0  0  0  0  0  0  0
    4.7137   -1.4149   -1.0455 C   0  0  0  0  0  0  0  0  0  0  0  0
  1 31  1  0
  2  9  1  0
  3  4  1  0
  3  5  1  0
  3  6  1  0
  4  7  1  0
  5  8  1  0
  6  9  1  0
  7 10  1  0
  8 11  1  0
  9 12  1  0
 10 13  1  0
 11 14  1  0
 12 15  2  0
 12 18  1  0
 13 16  1  0
 14 17  1  0
 15 19  1  0
 15 24  1  0
 16 22  1  0
 17 23  1  0
 18 20  2  0
 19 21  2  0
 19 25  1  0
 20 21  1  0
 20 26  1  0
 21 27  1  0
 22 29  1  0
 23 30  1  0
 24 28  2  0
 25 31  2  0
 26 32  2  0
 27 33  2  0
 28 31  1  0
 32 33  1  0
M  END
>  <PUBCHEM_COMPOUND_CID>  (1) 
31783

>  <PUBCHEM_CONFORMER_RMSD>  (1) 
1.4

>  <PUBCHEM_CONFORMER_DIVERSEORDER>  (1) 
2
29
12
116
97
34
82
137
71
111
46
127
92
75
64
21
119
81
43
78
6
54
77
57
84
101
89
15
40
131
26
107
14
112
99
52
45
74
133
83
69
27
53
120
86
135
35
129
63
62
10
122
87
41
4
30
88
59
18
72
95
114
22
20
51
109
125
108
3
24
134
94
70
33
106
76
58
61
5
65
124
44
19
1
66
37
138
23
31
50
139
48
105
126
42
98
113
117
67
104
11
68
7
121
39
73
17
103
8
79
85
136
110
60
36
128
118
32
102
115
123
13
9
56
91
132
140
80
96
93
49
25
130
16
28
90
55
100
38
47

>  <PUBCHEM_MMFF94_PARTIAL_CHARGES>  (1) 
26
1 -0.11
12 -0.14
18 -0.15
2 -0.68
24 -0.15
25 -0.15
26 -0.15
27 -0.15
28 -0.15
3 -0.81
31 0.11
32 -0.15
33 -0.15
4 0.27
5 0.27
57 0.15
6 0.27
62 0.4
63 0.15
64 0.15
65 0.15
66 0.15
67 0.15
74 0.15
75 0.15
9 0.42

>  <PUBCHEM_EFFECTIVE_ROTOR_COUNT>  (1) 
15

>  <PUBCHEM_PHARMACOPHORE_FEATURES>  (1) 
11
1 1 hydrophobe
1 2 acceptor
1 2 donor
1 29 hydrophobe
1 3 cation
1 30 hydrophobe
5 7 10 13 16 22 hydrophobe
5 8 11 14 17 23 hydrophobe
6 12 15 18 19 20 21 rings
6 15 19 24 25 28 31 rings
6 20 21 26 27 32 33 rings

>  <PUBCHEM_HEAVY_ATOM_COUNT>  (1) 
33

>  <PUBCHEM_ATOM_DEF_STEREO_COUNT>  (1) 
0

>  <PUBCHEM_ATOM_UDEF_STEREO_COUNT>  (1) 
1

>  <PUBCHEM_BOND_DEF_STEREO_COUNT>  (1) 
0

>  <PUBCHEM_BOND_UDEF_STEREO_COUNT>  (1) 
0

>  <PUBCHEM_ISOTOPIC_ATOM_COUNT>  (1) 
0

>  <PUBCHEM_COMPONENT_COUNT>  (1) 
1

>  <PUBCHEM_CACTVS_TAUTO_COUNT>  (1) 
1

>  <PUBCHEM_CONFORMER_ID>  (1) 
00007C2700000002

>  <PUBCHEM_MMFF94_ENERGY>  (1) 
65.7998

>  <PUBCHEM_FEATURE_SELFOVERLAP>  (1) 
55.871

>  <PUBCHEM_SHAPE_FINGERPRINT>  (1) 
11093857 51 18337658755408009647
11513181 2 17688061646620503438
12035759 4 17691168063348041546
12156800 1 17980756366166793512
13383661 66 18267299842125117423
17492 54 18113620062333704841
18603816 31 15473162503914722412
20737093 15 18190999336829006743
20775438 99 18059010712795484324
21304303 94 18339915043520229301
22907989 373 18053420714481712954
404807 78 18187359983242866635
484989 97 18265051508978274027
57527585 21 17900578650671214676
6287921 2 17399551955649925976
86090 222 17986364816398579507

>  <PUBCHEM_SHAPE_MULTIPOLES>  (1) 
674.22
12.17
4.92
3.71
29.45
4.18
-1.03
-0.58
-14.65
0.31
-0.6
-2.23
-2.03
-1.86

>  <PUBCHEM_SHAPE_SELFOVERLAP>  (1) 
1375.661

>  <PUBCHEM_SHAPE_VOLUME>  (1) 
399.5

>  <PUBCHEM_COORDINATE_TYPE>  (1) 
2
5
10

$$$$
