31791
     RDKit          3D

 18 20  0  0  1  0  0  0  0  0999 V2000
    0.2932   -0.8514    0.0696 O   0  0  0  0  0  0  0  0  0  0  0  0
    2.7514    0.8090   -0.2216 O   0  0  0  0  0  0  0  0  0  0  0  0
    2.5442   -1.3435    0.6931 O   0  0  0  0  0  0  0  0  0  0  0  0
   -2.2250    0.3066    0.5811 O   0  0  0  0  0  0  0  0  0  0  0  0
   -3.5455   -0.7131   -1.0734 O   0  0  0  0  0  0  0  0  0  0  0  0
    0.7091    2.6943   -0.3493 O   0  0  0  0  0  0  0  0  0  0  0  0
   -0.0844    0.3905   -0.5535 C   0  0  0  0  0  0  0  0  0  0  0  0
    1.7662    0.8501    0.8145 C   0  0  0  0  0  0  0  0  0  0  0  0
    0.4831    1.4839    0.3398 C   0  0  0  0  0  0  0  0  0  0  0  0
    1.3714   -0.5946    0.9909 C   0  0  0  0  0  0  0  0  0  0  0  0
   -1.5949    0.4485   -0.6951 C   0  0  0  0  0  0  0  0  0  0  0  0
    3.3579   -0.4854   -0.1160 C   0  0  0  0  0  0  0  0  0  0  0  0
   -2.1801   -0.6919   -1.4922 C   0  0  0  0  0  0  0  0  0  0  0  0
   -3.5150   -0.2555    0.2886 C   0  0  0  0  0  0  0  0  0  0  0  0
    3.4814   -1.0819   -1.5116 C   0  0  0  0  0  0  0  0  0  0  0  0
    4.7235   -0.3452    0.5466 C   0  0  0  0  0  0  0  0  0  0  0  0
   -3.7528   -1.4359    1.2220 C   0  0  0  0  0  0  0  0  0  0  0  0
   -4.5837    0.8154    0.4666 C   0  0  0  0  0  0  0  0  0  0  0  0
  1  7  1  0
  1 10  1  0
  2  8  1  0
  2 12  1  0
  3 10  1  0
  3 12  1  0
  4 11  1  0
  4 14  1  0
  5 13  1  0
  5 14  1  0
  6  9  1  0
  7  9  1  0
  7 11  1  0
  8  9  1  0
  8 10  1  0
 11 13  1  0
 12 15  1  0
 12 16  1  0
 14 17  1  0
 14 18  1  0
M  END
>  <PUBCHEM_COMPOUND_CID>  (1) 
31791

>  <PUBCHEM_CONFORMER_RMSD>  (1) 
0.6

>  <PUBCHEM_CONFORMER_DIVERSEORDER>  (1) 
6
12
1
7
9
11
8
3
13
10
2
4
14
5

>  <PUBCHEM_MMFF94_PARTIAL_CHARGES>  (1) 
15
1 -0.56
10 0.56
11 0.28
12 0.56
13 0.28
14 0.56
2 -0.56
26 0.4
3 -0.56
4 -0.56
5 -0.56
6 -0.68
7 0.28
8 0.28
9 0.28

>  <PUBCHEM_EFFECTIVE_ROTOR_COUNT>  (1) 
3.2

>  <PUBCHEM_PHARMACOPHORE_FEATURES>  (1) 
12
1 1 acceptor
1 2 acceptor
1 3 acceptor
1 4 acceptor
1 5 acceptor
1 6 acceptor
1 6 donor
3 12 15 16 hydrophobe
3 14 17 18 hydrophobe
5 1 7 8 9 10 rings
5 2 3 8 10 12 rings
5 4 5 11 13 14 rings

>  <PUBCHEM_HEAVY_ATOM_COUNT>  (1) 
18

>  <PUBCHEM_ATOM_DEF_STEREO_COUNT>  (1) 
4

>  <PUBCHEM_ATOM_UDEF_STEREO_COUNT>  (1) 
1

>  <PUBCHEM_BOND_DEF_STEREO_COUNT>  (1) 
0

>  <PUBCHEM_BOND_UDEF_STEREO_COUNT>  (1) 
0

>  <PUBCHEM_ISOTOPIC_ATOM_COUNT>  (1) 
0

>  <PUBCHEM_COMPONENT_COUNT>  (1) 
1

>  <PUBCHEM_CACTVS_TAUTO_COUNT>  (1) 
1

>  <PUBCHEM_CONFORMER_ID>  (1) 
00007C2F00000006

>  <PUBCHEM_MMFF94_ENERGY>  (1) 
55.52

>  <PUBCHEM_FEATURE_SELFOVERLAP>  (1) 
61.695

>  <PUBCHEM_SHAPE_FINGERPRINT>  (1) 
10618630 7 18130225961047194118
10646746 165 10087651372467608611
11132069 177 17917424315611717374
11543360 7 15719399455298875746
11578080 2 17701224071820707977
12032990 46 18408606954818227706
12119455 92 11312056526263938136
121448 382 10665523962426416117
12236239 1 17988922284306690817
12251169 10 17346595283345795725
12403259 415 8718822085208067927
12500047 106 16056870347182641694
12553582 1 18336818715122060715
12670546 56 15410614740026472402
12707595 3 18259978297100820065
128620 24 12251906992755177523
12892183 10 15195279833149614846
12932764 1 16877929573398928553
13296908 3 18334289898824001763
13533116 47 15338840807557250943
13581323 91 16845572045557324591
13675066 3 18060421321889579257
13705890 14 16805321085285794486
14004511 7 15913333485428261247
14251764 30 18339098019896396870
14252887 29 18202567267840208914
15048467 5 16917063378522830720
15309172 13 18343299275617060639
15375462 189 18409722950404008778
15527383 91 18343017796023506073
16945 1 18188195585217324120
1813 80 18341623589868320132
18186145 218 17967249810252999308
19141452 34 17775564221679166471
19422 9 18130504240346664543
200 152 14923942336572380466
20281475 54 17821444651636448563
20339313 130 18341336660061616500
20361792 2 18339911667116616348
20645477 70 18342727555160650989
20871998 22 18200877275507932508
20871999 31 15936403468857502871
21041028 32 18411986866321020665
22094290 60 17312818251912699789
2255824 54 18339077215311561572
231179 274 10879996860924218210
23402539 116 18411691068186806342
23557571 272 18339079260106430220
23559900 14 14996827837090906594
2748010 2 18266717152486575004
3286 77 18188214333234822427
351380 180 12895068496881731059
4175511 71 18272374191372175897
42 15 16702304537680514350
6049 1 17677038140345445173
633830 44 18409168822271020527
6992083 37 17846495967508049717
7364860 26 17986663981818158632
7495541 125 17168154476132747472
74978 22 18340762766773955847
83771 10 18413101754036587580
9981440 41 17121395742749551185

>  <PUBCHEM_SHAPE_MULTIPOLES>  (1) 
335.22
8.48
1.59
1.24
1.37
0.74
0.2
-2.25
-0.88
-0.17
0.05
0.19
-0.39
0.23

>  <PUBCHEM_SHAPE_SELFOVERLAP>  (1) 
709.171

>  <PUBCHEM_SHAPE_VOLUME>  (1) 
190.9

>  <PUBCHEM_COORDINATE_TYPE>  (1) 
2
5
10

$$$$
