31802
     RDKit          3D

 16 16  0  0  1  0  0  0  0  0999 V2000
    3.7361    2.7603    0.1586 I   0  0  0  0  0  0  0  0  0  0  0  0
    2.9404   -3.2608   -0.4417 I   0  0  0  0  0  0  0  0  0  0  0  0
   -3.6084   -1.1073    0.0943 O   0  0  0  0  0  0  0  0  0  0  0  0
   -4.3234    1.0590   -0.2412 O   0  0  0  0  0  0  0  0  0  0  0  0
    4.3840   -0.3672   -0.3580 O   0  0  0  0  0  0  0  0  0  0  0  0
   -1.8576    1.8866   -0.8780 N   0  0  0  0  0  0  0  0  0  0  0  0
   -1.1128    0.2460    0.7828 C   0  0  0  0  0  0  0  0  0  0  0  0
   -1.9655    0.4845   -0.4707 C   0  0  0  0  0  0  0  0  0  0  0  0
    0.3575    0.0821    0.4771 C   0  0  0  0  0  0  0  0  0  0  0  0
    0.8600   -1.1833    0.2212 C   0  0  0  0  0  0  0  0  0  0  0  0
    1.1754    1.2000    0.4593 C   0  0  0  0  0  0  0  0  0  0  0  0
   -3.4348    0.2181   -0.1905 C   0  0  0  0  0  0  0  0  0  0  0  0
    2.5333    1.0486    0.1782 C   0  0  0  0  0  0  0  0  0  0  0  0
    2.2179   -1.3348   -0.0601 C   0  0  0  0  0  0  0  0  0  0  0  0
    3.0545   -0.2190   -0.0816 C   0  0  0  0  0  0  0  0  0  0  0  0
   -4.9566   -1.5129    0.3502 C   0  0  0  0  0  0  0  0  0  0  0  0
  1 13  1  0
  2 14  1  0
  3 12  1  0
  3 16  1  0
  4 12  2  0
  5 15  1  0
  6  8  1  0
  7  8  1  0
  7  9  1  0
  8 12  1  0
  9 10  2  0
  9 11  1  0
 10 14  1  0
 11 13  2  0
 13 15  1  0
 14 15  2  0
M  END
>  <PUBCHEM_COMPOUND_CID>  (1) 
31802

>  <PUBCHEM_CONFORMER_RMSD>  (1) 
0.6

>  <PUBCHEM_CONFORMER_DIVERSEORDER>  (1) 
1
23
13
2
12
31
22
20
9
14
32
30
19
6
7
29
11
5
28
25
15
27
24
17
16
10
26
3
8
4
21
18

>  <PUBCHEM_MMFF94_PARTIAL_CHARGES>  (1) 
21
1 -0.08
10 -0.15
11 -0.15
12 0.66
13 0.08
14 0.08
15 0.08
16 0.28
2 -0.08
20 0.15
21 0.15
22 0.36
23 0.36
27 0.45
3 -0.43
4 -0.57
5 -0.53
6 -0.99
7 0.14
8 0.33
9 -0.14

>  <PUBCHEM_EFFECTIVE_ROTOR_COUNT>  (1) 
4

>  <PUBCHEM_PHARMACOPHORE_FEATURES>  (1) 
7
1 1 hydrophobe
1 2 hydrophobe
1 4 acceptor
1 5 donor
1 6 cation
1 6 donor
6 9 10 11 13 14 15 rings

>  <PUBCHEM_HEAVY_ATOM_COUNT>  (1) 
16

>  <PUBCHEM_ATOM_DEF_STEREO_COUNT>  (1) 
0

>  <PUBCHEM_ATOM_UDEF_STEREO_COUNT>  (1) 
1

>  <PUBCHEM_BOND_DEF_STEREO_COUNT>  (1) 
0

>  <PUBCHEM_BOND_UDEF_STEREO_COUNT>  (1) 
0

>  <PUBCHEM_ISOTOPIC_ATOM_COUNT>  (1) 
0

>  <PUBCHEM_COMPONENT_COUNT>  (1) 
1

>  <PUBCHEM_CACTVS_TAUTO_COUNT>  (1) 
2

>  <PUBCHEM_CONFORMER_ID>  (1) 
00007C3A00000001

>  <PUBCHEM_MMFF94_ENERGY>  (1) 
34.0606

>  <PUBCHEM_FEATURE_SELFOVERLAP>  (1) 
35.52

>  <PUBCHEM_SHAPE_FINGERPRINT>  (1) 
10608611 8 18335133176760995573
11405975 8 18339360756404801801
11471102 20 18412824681601899856
11759241 127 18115019839367422701
12616999 72 18335709329944836974
12730499 353 18338244863465836074
13911882 115 18191319362482787931
13955234 65 18413671314124104042
15196674 1 18409447016077586513
15375462 189 17846493755505102331
15375462 6 18409446998660256260
15477762 27 18412546479379699742
15502722 9 18411983576570471046
16945 1 18340780251986627632
17834074 16 18411700984902620711
18186145 218 17895191056885131283
193927 3 17487626221369124142
200 152 18202563973188667595
20281475 54 18342458102071851019
20645477 70 18411698777051995294
20671657 53 18054229821964620734
21524375 3 18191019213325734776
221490 88 18410016507102851306
2255824 54 18342740702540996126
23402539 116 17676480640246196437
23402655 69 18412824668384695141
23526113 38 18188780431457567354
23557571 272 17675922084476991981
23559900 14 18338792299971218234
2871803 45 18260541234707721435
3060560 45 18413390934780596734
3286 77 18259980449343574716
33824 294 18411418444832010594
5104073 3 18408040715030829705
58051976 100 18340489963241283381
58051976 378 18412538795392985590
621550 34 18337103570227698300
7364860 26 18413105040134754120
77779 3 18411419505841647033
9709674 26 18335707130552634603

>  <PUBCHEM_SHAPE_MULTIPOLES>  (1) 
330.55
9.19
3.24
0.8
9.74
1.4
-0.01
0.22
-0.42
-4.42
-0.38
0.04
-0.06
0.86

>  <PUBCHEM_SHAPE_SELFOVERLAP>  (1) 
637.355

>  <PUBCHEM_SHAPE_VOLUME>  (1) 
207.9

>  <PUBCHEM_COORDINATE_TYPE>  (1) 
2
5
10

$$$$
