31800
     RDKit          3D

 26 28  0  0  1  0  0  0  0  0999 V2000
   -0.7280   -0.5575   -0.3262 O   0  0  0  0  0  0  0  0  0  0  0  0
    1.4027   -0.4430   -1.9424 O   0  0  0  0  0  0  0  0  0  0  0  0
    0.6375   -2.0897    0.7112 O   0  0  0  0  0  0  0  0  0  0  0  0
   -4.4315   -1.2390    0.0542 N   0  0  0  0  0  0  0  0  0  0  0  0
   -3.1162   -0.5012   -0.3262 C   0  0  0  0  0  0  0  0  0  0  0  0
   -5.6426   -0.4223   -0.4445 C   0  0  0  0  0  0  0  0  0  0  0  0
   -3.1240    0.9415    0.2001 C   0  0  0  0  0  0  0  0  0  0  0  0
   -5.6318    1.0013    0.0921 C   0  0  0  0  0  0  0  0  0  0  0  0
   -4.3435    1.7231   -0.2644 C   0  0  0  0  0  0  0  0  0  0  0  0
   -4.4982   -2.5968   -0.6667 C   0  0  0  0  0  0  0  0  0  0  0  0
   -4.5633   -1.5110    1.5546 C   0  0  0  0  0  0  0  0  0  0  0  0
   -1.8676   -1.2377    0.1629 C   0  0  0  0  0  0  0  0  0  0  0  0
    0.4951   -1.0876    0.0206 C   0  0  0  0  0  0  0  0  0  0  0  0
    1.6405   -0.2372   -0.5349 C   0  0  0  0  0  0  0  0  0  0  0  0
    3.0335   -0.7439   -0.1536 C   0  0  0  0  0  0  0  0  0  0  0  0
    1.4893    1.2482   -0.1995 C   0  0  0  0  0  0  0  0  0  0  0  0
    3.4266   -0.6615    1.1622 C   0  0  0  0  0  0  0  0  0  0  0  0
    1.8309    2.1772   -1.1552 C   0  0  0  0  0  0  0  0  0  0  0  0
    3.8390   -1.2620   -1.1412 C   0  0  0  0  0  0  0  0  0  0  0  0
    1.0181    1.5981    1.0449 C   0  0  0  0  0  0  0  0  0  0  0  0
    4.6961   -1.1232    1.5099 C   0  0  0  0  0  0  0  0  0  0  0  0
    1.6932    3.5312   -0.8497 C   0  0  0  0  0  0  0  0  0  0  0  0
    5.1085   -1.7236   -0.7936 C   0  0  0  0  0  0  0  0  0  0  0  0
    0.8805    2.9521    1.3504 C   0  0  0  0  0  0  0  0  0  0  0  0
    5.5371   -1.6543    0.5320 C   0  0  0  0  0  0  0  0  0  0  0  0
    1.2181    3.9187    0.4032 C   0  0  0  0  0  0  0  0  0  0  0  0
  1 12  1  0
  1 13  1  0
  2 14  1  0
  3 13  2  0
  4  5  1  0
  4  6  1  0
  4 10  1  0
  4 11  1  0
  5  7  1  0
  5 12  1  0
  6  8  1  0
  7  9  1  0
  8  9  1  0
 13 14  1  0
 14 15  1  0
 14 16  1  0
 15 17  2  0
 15 19  1  0
 16 18  2  0
 16 20  1  0
 17 21  1  0
 18 22  1  0
 19 23  2  0
 20 24  2  0
 21 25  2  0
 22 26  2  0
 23 25  1  0
 24 26  1  0
M  CHG  1   4   1
M  END
>  <PUBCHEM_COMPOUND_CID>  (1) 
31800

>  <PUBCHEM_CONFORMER_RMSD>  (1) 
0.8

>  <PUBCHEM_CONFORMER_DIVERSEORDER>  (1) 
1
163
230
154
54
158
255
228
106
171
232
274
169
243
20
47
259
234
31
143
134
140
63
258
170
227
186
7
113
56
222
77
238
183
74
157
190
213
16
168
95
103
58
176
24
247
83
8
164
180
59
231
110
76
147
235
138
40
251
29
30
263
4
178
2
173
239
5
217
132
84
126
70
129
82
210
89
148
249
57
94
23
179
266
21
26
64
191
96
205
273
236
242
142
145
41
88
38
207
14
194
86
13
131
160
256
51
81
53
52
270
87
60
15
172
101
195
167
192
261
97
68
241
19
197
45
150
122
48
196
187
49
252
33
130
27
155
107
203
198
133
152
125
265
65
159
102
73
118
139
229
80
144
128
9
201
112
211
188
146
149
237
200
46
250
209
208
223
206
91
71
269
108
99
204
67
69
25
22
221
257
18
216
39
193
248
214
32
220
37
246
177
6
225
104
100
264
215
72
44
75
175
119
165
34
199
115
185
224
43
62
189
272
36
50
181
17
174
35
136
166
117
93
10
268
55
151
253
116
135
3
120
12
79
212
254
137
267
141
109
123
240
233
61
42
121
184
105
11
271
202
226
156
182
162
28
114
260
161
244
245
153
218
111
219
98
66
127
90
124
85
78
92
262

>  <PUBCHEM_MMFF94_PARTIAL_CHARGES>  (1) 
34
1 -0.43
10 0.5
11 0.5
12 0.28
13 0.66
14 0.63
15 -0.14
16 -0.14
17 -0.15
18 -0.15
19 -0.15
2 -0.68
20 -0.15
21 -0.15
22 -0.15
23 -0.15
24 -0.15
25 -0.15
26 -0.15
3 -0.57
4 -1.01
44 0.4
45 0.15
46 0.15
47 0.15
48 0.15
49 0.15
5 0.5
50 0.15
51 0.15
52 0.15
53 0.15
54 0.15
6 0.5

>  <PUBCHEM_EFFECTIVE_ROTOR_COUNT>  (1) 
7.2

>  <PUBCHEM_PHARMACOPHORE_FEATURES>  (1) 
7
1 2 acceptor
1 2 donor
1 3 acceptor
1 4 cation
6 15 17 19 21 23 25 rings
6 16 18 20 22 24 26 rings
6 4 5 6 7 8 9 rings

>  <PUBCHEM_HEAVY_ATOM_COUNT>  (1) 
26

>  <PUBCHEM_ATOM_DEF_STEREO_COUNT>  (1) 
0

>  <PUBCHEM_ATOM_UDEF_STEREO_COUNT>  (1) 
1

>  <PUBCHEM_BOND_DEF_STEREO_COUNT>  (1) 
0

>  <PUBCHEM_BOND_UDEF_STEREO_COUNT>  (1) 
0

>  <PUBCHEM_ISOTOPIC_ATOM_COUNT>  (1) 
0

>  <PUBCHEM_COMPONENT_COUNT>  (1) 
1

>  <PUBCHEM_CACTVS_TAUTO_COUNT>  (1) 
1

>  <PUBCHEM_CONFORMER_ID>  (1) 
00007C3800000001

>  <PUBCHEM_MMFF94_ENERGY>  (1) 
80.4976

>  <PUBCHEM_FEATURE_SELFOVERLAP>  (1) 
35.522

>  <PUBCHEM_SHAPE_FINGERPRINT>  (1) 
10366900 7 17894347774701357827
11405975 8 18409169943953830083
11421498 54 17532086090549824088
11545043 162 17749395897036939331
11578080 2 14276320118410273524
11646440 116 18272094846772694945
12166972 35 18273213101674673817
12403259 226 18336542811139913189
12403260 363 18340199799894132743
12507557 5 18342457037104389579
12516196 113 18410853253137723770
12549972 3 17823146798541310385
12616971 3 18201443627503109847
12633257 1 18341343219030539465
12788726 201 18190750735056828504
13004483 165 18266449928685969698
13134695 92 18202275931370933204
14347329 18 16227429795577613941
14466204 15 18336823087657159587
14950920 106 18119559697994793683
14955137 171 18343019982457115734
15131766 46 16412345824957811698
15163728 17 17173798411342817212
15238133 3 18263371295721937197
15420108 30 17698985599769926840
15788980 27 17704067387277623495
1601671 61 18336825282237929930
17349148 13 17775014495850928019
17492 89 18267302230422878055
17844677 252 18410860988236712779
17980427 23 17416948699064697188
1813 80 18412546496759918694
18222031 100 18342179951510746622
18681886 176 18342450461072252587
20832881 197 18260547809906941594
21033648 29 17489006181233411843
21285901 2 17986681368161953206
21521721 280 7925330974950372166
21709351 56 18410567401615816647
23419403 2 18128228178711844560
23559900 14 18410567423106080739
249057 3 18412823556842539061
3004659 81 18187653470883745406
312423 11 18339931536220785851
3178227 256 18335996306822159443
3286 77 18335137635079123159
3411729 13 18266734865543685504
345986 75 17606377883899797586
350125 39 18408604790466018357
4409770 3 17827342289936776180
469060 322 18117566115604370816
508706 21 18115289113112477525
5104073 3 18338524152995147131
58260988 647 14130182795243622112
5895379 119 17559979661138450881
6086070 43 18190154876979667511
67856867 119 18268986664897973317
7495541 125 18186525427097073271
81228 2 18123767369943143328
8509985 295 18408321077310167068
9709674 26 18264771141865164187
9841814 1 18260539065685485618
9971528 1 18201718448931640854
9981440 41 17546437242612076480

>  <PUBCHEM_SHAPE_MULTIPOLES>  (1) 
512.48
12.35
3.68
1.32
9.04
3.92
-0.09
-7.73
-0.61
-1.35
-0.12
-0.84
-0.03
-0.08

>  <PUBCHEM_SHAPE_SELFOVERLAP>  (1) 
1085.352

>  <PUBCHEM_SHAPE_VOLUME>  (1) 
285.4

>  <PUBCHEM_COORDINATE_TYPE>  (1) 
2
5
10

$$$$
