31808
     RDKit          3D

 31 37  0  0  1  0  0  0  0  0999 V2000
   -2.6508   -0.4592    0.9753 O   0  0  0  0  0  0  0  0  0  0  0  0
   -1.7986   -3.1938    0.3351 O   0  0  0  0  0  0  0  0  0  0  0  0
    1.0168   -3.5987   -1.5896 O   0  0  0  0  0  0  0  0  0  0  0  0
   -4.8763    1.2202    0.1696 O   0  0  0  0  0  0  0  0  0  0  0  0
    2.2685    1.5390    0.7383 N   0  0  0  0  0  0  0  0  0  0  0  0
   -0.2981    0.2218    0.8649 C   0  0  0  0  0  0  0  0  0  0  0  0
    0.7261   -0.1015   -0.2611 C   0  0  0  0  0  0  0  0  0  0  0  0
   -1.2781   -0.9402    1.1299 C   0  0  0  0  0  0  0  0  0  0  0  0
    1.5097    1.2297   -0.4968 C   0  0  0  0  0  0  0  0  0  0  0  0
   -0.9072   -2.1081    0.1641 C   0  0  0  0  0  0  0  0  0  0  0  0
    1.5518   -1.3436    0.1845 C   0  0  0  0  0  0  0  0  0  0  0  0
    0.5703   -2.5269    0.5119 C   0  0  0  0  0  0  0  0  0  0  0  0
    0.3807    0.7322    2.1496 C   0  0  0  0  0  0  0  0  0  0  0  0
   -1.2406    1.2250    0.3144 C   0  0  0  0  0  0  0  0  0  0  0  0
   -0.0270   -0.6129   -1.5024 C   0  0  0  0  0  0  0  0  0  0  0  0
    0.5522    2.4076   -0.9552 C   0  0  0  0  0  0  0  0  0  0  0  0
    1.4084    1.8423    1.8866 C   0  0  0  0  0  0  0  0  0  0  0  0
   -0.8923   -1.6156   -1.2697 C   0  0  0  0  0  0  0  0  0  0  0  0
   -0.8824    2.2993   -0.4830 C   0  0  0  0  0  0  0  0  0  0  0  0
    1.0211   -3.8178   -0.1797 C   0  0  0  0  0  0  0  0  0  0  0  0
   -2.5449    0.8142    0.4727 C   0  0  0  0  0  0  0  0  0  0  0  0
    3.2870    2.5665    0.5475 C   0  0  0  0  0  0  0  0  0  0  0  0
    4.1956    2.2285   -0.6222 C   0  0  0  0  0  0  0  0  0  0  0  0
   -1.9160    3.1114   -0.9490 C   0  0  0  0  0  0  0  0  0  0  0  0
   -3.5828    1.5945    0.0120 C   0  0  0  0  0  0  0  0  0  0  0  0
    4.9512    0.9530   -0.5722 C   0  0  0  0  0  0  0  0  0  0  0  0
    5.6617    2.2634   -0.3992 C   0  0  0  0  0  0  0  0  0  0  0  0
    0.0658   -4.9647    0.1403 C   0  0  0  0  0  0  0  0  0  0  0  0
    2.4475   -4.1717    0.2298 C   0  0  0  0  0  0  0  0  0  0  0  0
   -3.2576    2.7727   -0.6763 C   0  0  0  0  0  0  0  0  0  0  0  0
   -5.4614    0.4333   -0.8702 C   0  0  0  0  0  0  0  0  0  0  0  0
  1  8  1  0
  1 21  1  0
  2 10  1  0
  3 20  1  0
  4 25  1  0
  4 31  1  0
  5  9  1  0
  5 17  1  0
  5 22  1  0
  6  7  1  0
  6  8  1  0
  6 13  1  0
  6 14  1  0
  7  9  1  0
  7 11  1  0
  7 15  1  0
  8 10  1  0
  9 16  1  0
 10 12  1  0
 10 18  1  0
 11 12  1  0
 12 20  1  0
 13 17  1  0
 14 19  2  0
 14 21  1  0
 15 18  2  0
 16 19  1  0
 19 24  1  0
 20 28  1  0
 20 29  1  0
 21 25  2  0
 22 23  1  0
 23 26  1  0
 23 27  1  0
 24 30  2  0
 25 30  1  0
 26 27  1  0
M  END
>  <PUBCHEM_COMPOUND_CID>  (1) 
31808

>  <PUBCHEM_CONFORMER_RMSD>  (1) 
0.8

>  <PUBCHEM_CONFORMER_DIVERSEORDER>  (1) 
2
5
4
3
1

>  <PUBCHEM_MMFF94_PARTIAL_CHARGES>  (1) 
37
1 -0.36
10 0.42
14 -0.14
15 -0.29
16 0.14
17 0.27
18 -0.29
19 -0.14
2 -0.68
20 0.28
21 0.08
22 0.37
23 -0.19
24 -0.15
25 0.08
26 -0.2
27 -0.2
3 -0.68
30 -0.15
31 0.28
39 0.15
4 -0.36
44 0.15
47 0.1
48 0.4
49 0.15
5 -0.81
50 0.1
51 0.1
52 0.1
53 0.1
6 0.14
60 0.15
61 0.4
7 0.14
8 0.28
9 0.27

>  <PUBCHEM_EFFECTIVE_ROTOR_COUNT>  (1) 
6

>  <PUBCHEM_PHARMACOPHORE_FEATURES>  (1) 
13
1 1 acceptor
1 2 acceptor
1 2 donor
1 3 acceptor
1 3 donor
1 4 acceptor
1 5 cation
3 20 28 29 hydrophobe
5 1 6 8 14 21 rings
6 14 19 21 24 25 30 rings
6 5 6 7 9 13 17 rings
6 6 7 9 14 16 19 rings
8 6 7 8 10 11 12 15 18 rings

>  <PUBCHEM_HEAVY_ATOM_COUNT>  (1) 
31

>  <PUBCHEM_ATOM_DEF_STEREO_COUNT>  (1) 
5

>  <PUBCHEM_ATOM_UDEF_STEREO_COUNT>  (1) 
1

>  <PUBCHEM_BOND_DEF_STEREO_COUNT>  (1) 
0

>  <PUBCHEM_BOND_UDEF_STEREO_COUNT>  (1) 
0

>  <PUBCHEM_ISOTOPIC_ATOM_COUNT>  (1) 
0

>  <PUBCHEM_COMPONENT_COUNT>  (1) 
1

>  <PUBCHEM_CACTVS_TAUTO_COUNT>  (1) 
1

>  <PUBCHEM_CONFORMER_ID>  (1) 
00007C4000000002

>  <PUBCHEM_MMFF94_ENERGY>  (1) 
158.4189

>  <PUBCHEM_FEATURE_SELFOVERLAP>  (1) 
67.83

>  <PUBCHEM_SHAPE_FINGERPRINT>  (1) 
10165383 225 18341342153436039041
10190108 129 18196095667280822795
107951 10 18340774848654181430
10863032 1 18408887342941612673
10906281 52 18113626664458684869
10948715 1 18334574620458917289
1100329 8 18340207380527513738
11488393 25 18192437372233644193
11578080 2 12623823294641268367
12592029 89 18339361868685494624
12788726 201 17613714143144537072
13004483 165 17619064375536450478
13140716 1 18411132554349312450
133893 2 18054522304446548489
13540713 4 17825113610897649205
13681431 1 17623845725924111076
138480 1 17761212111839382014
140371 6 17404298499680375424
14790565 3 18410296921349376812
14866123 147 18339079427562753202
14955137 171 16969447118704950761
15230672 131 18335708226966150878
15439362 3 18192148192117850317
15927050 60 18412827988410648735
16945 1 16679499266550960211
19591789 44 18410576180296516356
19930381 70 17976260132434176748
20028762 73 18054230101533251127
20101258 96 17254855576931381488
20600515 1 17046825244829389397
21033648 29 18271240650534300960
22033318 11 16608335064477382883
22182313 1 18190767326146188891
23419403 2 17611789658161158232
23559900 14 17903630783274619488
3298306 158 18339365163188907996
3729539 64 18198078988703906364
5265222 85 18264787604860367372
532947 4 18267874887049374014
57527306 92 17168136883926461980
6669772 16 18341336621807571734
9981440 41 18408045112724042505

>  <PUBCHEM_SHAPE_MULTIPOLES>  (1) 
609.51
7.29
5.64
1.36
1.23
7.46
-0.3
-7.49
1.57
2.39
0.8
0.08
-0.2
0.39

>  <PUBCHEM_SHAPE_SELFOVERLAP>  (1) 
1377.716

>  <PUBCHEM_SHAPE_VOLUME>  (1) 
318.6

>  <PUBCHEM_COORDINATE_TYPE>  (1) 
2
5
10

$$$$
