31819
     RDKit          3D

 10 10  0  0  0  0  0  0  0  0999 V2000
    2.8338   -0.2331    0.2692 N   0  0  0  0  0  0  0  0  0  0  0  0
   -2.8357   -0.2332   -0.2685 N   0  0  0  0  0  0  0  0  0  0  0  0
    1.4607   -0.2278   -0.2346 C   0  0  0  0  0  0  0  0  0  0  0  0
   -1.4619   -0.2385    0.2327 C   0  0  0  0  0  0  0  0  0  0  0  0
    0.7229    1.0347    0.2267 C   0  0  0  0  0  0  0  0  0  0  0  0
    0.7335   -1.4943    0.2305 C   0  0  0  0  0  0  0  0  0  0  0  0
   -0.7352    1.0278   -0.2340 C   0  0  0  0  0  0  0  0  0  0  0  0
   -0.7248   -1.5008   -0.2298 C   0  0  0  0  0  0  0  0  0  0  0  0
    3.5629    0.9316   -0.2086 C   0  0  0  0  0  0  0  0  0  0  0  0
   -3.5563    0.9335    0.2164 C   0  0  0  0  0  0  0  0  0  0  0  0
  1  3  1  0
  1  9  1  0
  2  4  1  0
  2 10  1  0
  3  5  1  0
  3  6  1  0
  4  7  1  0
  4  8  1  0
  5  7  1  0
  6  8  1  0
M  END
>  <PUBCHEM_COMPOUND_CID>  (1) 
31819

>  <PUBCHEM_CONFORMER_RMSD>  (1) 
0.6

>  <PUBCHEM_CONFORMER_DIVERSEORDER>  (1) 
1
9
6
8
2
5
7
3
4
10

>  <PUBCHEM_MMFF94_PARTIAL_CHARGES>  (1) 
8
1 -0.9
10 0.27
2 -0.9
21 0.36
22 0.36
3 0.27
4 0.27
9 0.27

>  <PUBCHEM_EFFECTIVE_ROTOR_COUNT>  (1) 
3.2

>  <PUBCHEM_PHARMACOPHORE_FEATURES>  (1) 
5
1 1 cation
1 1 donor
1 2 cation
1 2 donor
6 3 4 5 6 7 8 rings

>  <PUBCHEM_HEAVY_ATOM_COUNT>  (1) 
10

>  <PUBCHEM_ATOM_DEF_STEREO_COUNT>  (1) 
0

>  <PUBCHEM_ATOM_UDEF_STEREO_COUNT>  (1) 
0

>  <PUBCHEM_BOND_DEF_STEREO_COUNT>  (1) 
0

>  <PUBCHEM_BOND_UDEF_STEREO_COUNT>  (1) 
0

>  <PUBCHEM_ISOTOPIC_ATOM_COUNT>  (1) 
0

>  <PUBCHEM_COMPONENT_COUNT>  (1) 
1

>  <PUBCHEM_CACTVS_TAUTO_COUNT>  (1) 
1

>  <PUBCHEM_CONFORMER_ID>  (1) 
00007C4B00000001

>  <PUBCHEM_MMFF94_ENERGY>  (1) 
4.9189

>  <PUBCHEM_FEATURE_SELFOVERLAP>  (1) 
25.371

>  <PUBCHEM_SHAPE_FINGERPRINT>  (1) 
10219947 1 18187085039887194973
11062470 55 18410575084694954785
14325111 11 18410855464423129093
14993402 34 18411417336450626613
15310529 11 16878212104568328720
15775835 57 18410857663446410624
16945 1 18410570690911574087
21040471 1 18411136973870542791
21293036 1 18341893017234652053
23235685 24 18410851062081728640
23402539 116 18202273698161688028
23402655 69 18269540660467322061
23552423 10 18191870011327892266
2748010 2 18051408770957894172
528862 383 18041832913844087122
528886 8 18411132545716919867
53812653 166 18342172275881806456

>  <PUBCHEM_SHAPE_MULTIPOLES>  (1) 
195.83
5.22
1.5
0.65
0.02
0.33
0
-1.98
-0.01
0
0
0
0
-0.16

>  <PUBCHEM_SHAPE_SELFOVERLAP>  (1) 
372.272

>  <PUBCHEM_SHAPE_VOLUME>  (1) 
120.3

>  <PUBCHEM_COORDINATE_TYPE>  (1) 
2
5
10

$$$$
