31816
     RDKit          3D

 25 27  0  0  1  0  0  0  0  0999 V2000
   -3.1140   -0.1639   -2.3076 S   0  0  0  0  0  0  0  0  0  0  0  0
   -5.4306   -0.4965    2.4330 S   0  0  0  0  0  0  0  0  0  0  0  0
   -1.7879    2.1262    1.2131 O   0  0  0  0  0  0  0  0  0  0  0  0
   -3.1746   -1.7440    1.9715 O   0  0  0  0  0  0  0  0  0  0  0  0
    0.9772    3.1043   -0.0628 O   0  0  0  0  0  0  0  0  0  0  0  0
    2.9233    0.4352    0.5861 O   0  0  0  0  0  0  0  0  0  0  0  0
   -2.3283    0.0889    0.1512 N   0  0  0  0  0  0  0  0  0  0  0  0
    0.5207    0.9596   -0.8224 N   0  0  0  0  0  0  0  0  0  0  0  0
   -1.7008   -0.1842   -1.1450 C   0  0  0  0  0  0  0  0  0  0  0  0
   -4.2595   -0.8066   -0.9869 C   0  0  0  0  0  0  0  0  0  0  0  0
   -3.7543   -0.1195    0.3000 C   0  0  0  0  0  0  0  0  0  0  0  0
   -0.9272    1.1306   -0.9745 C   0  0  0  0  0  0  0  0  0  0  0  0
   -1.6795    1.2708    0.3640 C   0  0  0  0  0  0  0  0  0  0  0  0
   -5.6909   -0.3822   -1.3205 C   0  0  0  0  0  0  0  0  0  0  0  0
   -4.1542   -2.3377   -0.9749 C   0  0  0  0  0  0  0  0  0  0  0  0
   -3.9571   -0.8966    1.5617 C   0  0  0  0  0  0  0  0  0  0  0  0
    1.3608    1.9783   -0.3723 C   0  0  0  0  0  0  0  0  0  0  0  0
    2.8189    1.5532   -0.2798 C   0  0  0  0  0  0  0  0  0  0  0  0
    3.6801    2.6728    0.2825 C   0  0  0  0  0  0  0  0  0  0  0  0
    3.9298   -0.4604    0.3263 C   0  0  0  0  0  0  0  0  0  0  0  0
    3.9658   -1.1166   -0.8979 C   0  0  0  0  0  0  0  0  0  0  0  0
    4.9009   -0.7002    1.2905 C   0  0  0  0  0  0  0  0  0  0  0  0
    4.9890   -2.0269   -1.1619 C   0  0  0  0  0  0  0  0  0  0  0  0
    5.9241   -1.6108    1.0263 C   0  0  0  0  0  0  0  0  0  0  0  0
    5.9683   -2.2741   -0.1999 C   0  0  0  0  0  0  0  0  0  0  0  0
  1  9  1  0
  1 10  1  0
  2 16  1  0
  3 13  2  0
  4 16  2  0
  5 17  2  0
  6 18  1  0
  6 20  1  0
  7  9  1  0
  7 11  1  0
  7 13  1  0
  8 12  1  0
  8 17  1  0
  9 12  1  0
 10 11  1  0
 10 14  1  0
 10 15  1  0
 11 16  1  0
 12 13  1  0
 17 18  1  0
 18 19  1  0
 20 21  2  0
 20 22  1  0
 21 23  1  0
 22 24  2  0
 23 25  2  0
 24 25  1  0
M  END
>  <PUBCHEM_COMPOUND_CID>  (1) 
31816

>  <PUBCHEM_CONFORMER_RMSD>  (1) 
1.2

>  <PUBCHEM_CONFORMER_DIVERSEORDER>  (1) 
4
13
47
124
120
43
81
29
52
98
102
112
30
105
62
127
104
2
93
108
126
19
114
123
24
37
130
15
20
89
132
8
53
131
38
68
109
21
101
69
87
122
80
110
111
60
5
51
25
97
57
41
55
74
58
118
1
76
79
18
61
95
3
12
59
28
34
78
117
33
64
103
85
91
94
92
40
42
71
44
46
36
128
9
119
67
50
86
17
125
22
14
10
48
116
82
72
83
56
26
39
65
54
6
90
107
77
27
45
23
66
35
16
73
113
63
99
75
32
70
88
49
106
84
115
96
121
100
11
31
7
129

>  <PUBCHEM_MMFF94_PARTIAL_CHARGES>  (1) 
29
1 -0.45
10 0.23
11 0.36
12 0.28
13 0.58
16 0.65
17 0.57
18 0.34
2 -0.32
20 0.08
21 -0.15
22 -0.15
23 -0.15
24 -0.15
25 -0.15
3 -0.57
35 0.37
37 0.18
4 -0.57
41 0.15
42 0.15
43 0.15
44 0.15
45 0.15
5 -0.57
6 -0.36
7 -0.59
8 -0.65
9 0.44

>  <PUBCHEM_EFFECTIVE_ROTOR_COUNT>  (1) 
6.8

>  <PUBCHEM_PHARMACOPHORE_FEATURES>  (1) 
9
1 3 acceptor
1 5 acceptor
1 6 acceptor
1 8 donor
3 10 14 15 hydrophobe
3 2 4 16 anion
4 7 9 12 13 rings
6 20 21 22 23 24 25 rings
7 1 7 9 10 11 12 13 rings

>  <PUBCHEM_HEAVY_ATOM_COUNT>  (1) 
25

>  <PUBCHEM_ATOM_DEF_STEREO_COUNT>  (1) 
0

>  <PUBCHEM_ATOM_UDEF_STEREO_COUNT>  (1) 
4

>  <PUBCHEM_BOND_DEF_STEREO_COUNT>  (1) 
0

>  <PUBCHEM_BOND_UDEF_STEREO_COUNT>  (1) 
0

>  <PUBCHEM_ISOTOPIC_ATOM_COUNT>  (1) 
0

>  <PUBCHEM_COMPONENT_COUNT>  (1) 
1

>  <PUBCHEM_CACTVS_TAUTO_COUNT>  (1) 
4

>  <PUBCHEM_CONFORMER_ID>  (1) 
00007C4800000004

>  <PUBCHEM_MMFF94_ENERGY>  (1) 
75.7196

>  <PUBCHEM_FEATURE_SELFOVERLAP>  (1) 
49.404

>  <PUBCHEM_SHAPE_FINGERPRINT>  (1) 
10319926 262 15267072440642866964
10498660 4 8646477514925521862
10928967 22 18334014965225674394
11135926 11 18193560184713732628
11796584 16 17458897227648091392
12107183 9 18200322000582454857
12363563 72 18336266760886174076
12422481 6 17703240515757108325
12523318 42 15841547513954829575
12596602 18 16200428066137494050
12616971 3 18272377481343056947
12633257 1 18059866072791667574
12760667 363 18335981991273856369
12892183 10 17131543947911935296
13103583 49 16845571998444689634
13533116 47 18272643593121665788
13782708 43 17896042204003980587
13914758 101 18201153270565497853
14251732 14 14924235957795719411
14341114 328 16271917247249784482
14739800 52 16055173895815963296
14910302 57 17240753012627191759
14950920 106 15984522469754827914
15183329 4 14057277533585776278
15188451 53 17274811485278900623
15510800 12 17968938728785839611
16994733 274 11455345943397582835
17857418 61 18201433692483806902
17870717 6 16877939430312034039
1813 80 18410857629793885900
18222031 100 18411415094999840094
19377110 9 17703503398242706136
193927 3 18335706022672046440
20028762 73 18130498712846133430
20403669 9 18336260163684700974
20645477 70 18336534010683371660
20693207 138 17531247296258525956
21033650 10 15647324196150566140
22849339 104 16298386915931305115
23198884 109 12468640508244952067
23559900 14 17530962522657339596
2838139 119 11886858068666817619
312425 54 17346320358395243354
314194 84 18410856577479106774
341906 21 15123521323369681353
5104073 3 17846503681279733075
5486654 36 18335148539980255088
56633871 153 18202009798012317759
6823239 73 17385437752438245632
7064713 232 16845856788798627606
7970288 3 18339636751135891014
8863177 126 17968388951554935890

>  <PUBCHEM_SHAPE_MULTIPOLES>  (1) 
488.75
15.14
2.74
1.94
8.31
1.18
0.47
-10.77
2.72
3.03
-0.02
-3.07
-0.68
0.18

>  <PUBCHEM_SHAPE_SELFOVERLAP>  (1) 
1010.191

>  <PUBCHEM_SHAPE_VOLUME>  (1) 
283.8

>  <PUBCHEM_COORDINATE_TYPE>  (1) 
2
5
10

$$$$
