31828
     RDKit          3D

 13 12  0  0  0  0  0  0  0  0999 V2000
   -1.4955   -0.7653   -0.4146 S   0  0  0  0  0  0  0  0  0  0  0  0
    1.5140   -0.4779    0.2215 O   0  0  0  0  0  0  0  0  0  0  0  0
    3.5535   -1.0985   -0.6466 O   0  0  0  0  0  0  0  0  0  0  0  0
   -4.2372   -0.3588   -0.1368 C   0  0  0  0  0  0  0  0  0  0  0  0
   -4.0940    1.1527    0.0606 C   0  0  0  0  0  0  0  0  0  0  0  0
   -3.0559   -1.1635    0.4047 C   0  0  0  0  0  0  0  0  0  0  0  0
   -0.4187   -1.9058    0.5065 C   0  0  0  0  0  0  0  0  0  0  0  0
   -5.3401    1.8915   -0.4040 C   0  0  0  0  0  0  0  0  0  0  0  0
    1.0239   -1.8100    0.0351 C   0  0  0  0  0  0  0  0  0  0  0  0
    2.8012   -0.2634   -0.1648 C   0  0  0  0  0  0  0  0  0  0  0  0
    3.1680    1.1577    0.0893 C   0  0  0  0  0  0  0  0  0  0  0  0
    2.1691    2.1016    0.6850 C   0  0  0  0  0  0  0  0  0  0  0  0
    4.4117    1.5398   -0.2359 C   0  0  0  0  0  0  0  0  0  0  0  0
  1  6  1  0
  1  7  1  0
  2  9  1  0
  2 10  1  0
  3 10  2  0
  4  5  1  0
  4  6  1  0
  5  8  1  0
  7  9  1  0
 10 11  1  0
 11 12  1  0
 11 13  2  0
M  END
>  <PUBCHEM_COMPOUND_CID>  (1) 
31828

>  <PUBCHEM_CONFORMER_RMSD>  (1) 
0.8

>  <PUBCHEM_CONFORMER_DIVERSEORDER>  (1) 
1
174
223
167
189
282
23
177
291
16
55
63
13
324
330
233
311
153
322
83
125
20
194
273
21
40
68
165
327
318
234
22
185
52
198
90
113
157
51
262
26
8
105
302
57
331
30
281
155
230
182
37
276
246
111
326
178
316
33
312
12
317
96
132
229
301
171
227
287
196
268
235
88
100
221
249
34
212
295
175
321
5
215
130
200
82
104
242
14
164
169
172
239
329
195
87
19
328
43
142
275
186
204
240
131
210
85
216
264
290
232
133
320
149
94
73
231
71
74
292
151
243
166
139
272
61
224
193
217
56
205
220
256
263
192
24
325
10
147
65
129
173
284
201
11
293
250
17
112
60
76
119
67
45
116
314
305
283
247
254
286
304
138
38
92
79
77
209
148
251
31
279
124
101
244
84
127
150
54
27
176
184
180
41
309
2
188
252
103
114
91
156
80
152
219
225
197
81
300
137
228
199
144
271
48
66
110
218
64
270
3
296
143
211
203
107
191
118
323
253
236
123
241
141
44
222
89
39
294
70
158
25
248
265
298
98
170
190
108
207
214
18
202
310
29
289
9
126
134
102
255
332
208
280
32
277
42
313
260
168
6
297
154
106
187
78
261
121
161
308
299
145
140
109
267
122
69
163
4
266
146
315
86
259
93
62
50
35
162
15
319
135
288
97
28
238
128
206
306
47
53
237
7
72
95
160
117
120
257
183
159
226
179
258
303
49
115
99
46
285
274
181
58
59
36
75
307
278
213
269
136
245

>  <PUBCHEM_MMFF94_PARTIAL_CHARGES>  (1) 
12
1 -0.46
10 0.71
11 -0.12
12 0.14
13 -0.3
2 -0.43
3 -0.57
30 0.15
31 0.15
6 0.23
7 0.23
9 0.28

>  <PUBCHEM_EFFECTIVE_ROTOR_COUNT>  (1) 
8

>  <PUBCHEM_PHARMACOPHORE_FEATURES>  (1) 
3
1 3 acceptor
1 8 hydrophobe
5 1 4 5 6 7 hydrophobe

>  <PUBCHEM_HEAVY_ATOM_COUNT>  (1) 
13

>  <PUBCHEM_ATOM_DEF_STEREO_COUNT>  (1) 
0

>  <PUBCHEM_ATOM_UDEF_STEREO_COUNT>  (1) 
0

>  <PUBCHEM_BOND_DEF_STEREO_COUNT>  (1) 
0

>  <PUBCHEM_BOND_UDEF_STEREO_COUNT>  (1) 
0

>  <PUBCHEM_ISOTOPIC_ATOM_COUNT>  (1) 
0

>  <PUBCHEM_COMPONENT_COUNT>  (1) 
1

>  <PUBCHEM_CACTVS_TAUTO_COUNT>  (1) 
1

>  <PUBCHEM_CONFORMER_ID>  (1) 
00007C5400000001

>  <PUBCHEM_MMFF94_ENERGY>  (1) 
14.2993

>  <PUBCHEM_FEATURE_SELFOVERLAP>  (1) 
15.223

>  <PUBCHEM_SHAPE_FINGERPRINT>  (1) 
122479 349 18334296512836696067
12596602 18 14346092897015326157
13081056 2 18410859871560949083
14123255 352 18335419080128303477
14123255 52 18410571795082490855
1420 369 9151165472498860277
14252887 29 13551457169140295912
14415576 193 18412547608618566591
15196674 1 18410293614287407605
17834072 32 18412263900907441985
17834072 33 18272081704700263663
18186145 218 18334008389266305575
20281475 54 9655579638407203171
20621476 13 18200304567073226465
20621476 66 18336267959425259796
20645477 70 17632029588833835414
212847 35 18334295353490528950
21652331 79 18409449181105113541
22289505 5 18272373057780105524
22959321 60 18186527617984055667
23402655 69 18202003243796674156
23403322 49 10303819778484003597
23500284 214 18186802525512749947
23590187 173 18342451551966961458
4028521 119 18343304786017526681
548570 60 18334291002541062501
633830 44 18408599258068522231

>  <PUBCHEM_SHAPE_MULTIPOLES>  (1) 
259.64
10.83
2.45
0.74
7.08
0.41
-0.01
7.08
1.3
0.06
-0.21
-0.04
0.01
0.65

>  <PUBCHEM_SHAPE_SELFOVERLAP>  (1) 
468.772

>  <PUBCHEM_SHAPE_VOLUME>  (1) 
167.7

>  <PUBCHEM_COORDINATE_TYPE>  (1) 
2
5
10

$$$$
