31836
     RDKit          3D

 23 25  0  0  1  0  0  0  0  0999 V2000
   -2.9589   -1.6692   -1.4269 O   0  0  0  0  0  0  0  0  0  0  0  0
    3.7673   -2.0566    0.2407 O   0  0  0  0  0  0  0  0  0  0  0  0
    4.9683    0.4410    0.4226 O   0  0  0  0  0  0  0  0  0  0  0  0
   -1.3345    1.3187   -0.4708 N   0  0  0  0  0  0  0  0  0  0  0  0
   -2.8472   -1.1557   -0.0897 C   0  0  0  0  0  0  0  0  0  0  0  0
   -3.5285    0.2328   -0.0509 C   0  0  0  0  0  0  0  0  0  0  0  0
   -0.6274    0.0246   -0.6424 C   0  0  0  0  0  0  0  0  0  0  0  0
   -1.3429   -1.0429    0.2249 C   0  0  0  0  0  0  0  0  0  0  0  0
   -2.7309    1.2293   -0.9165 C   0  0  0  0  0  0  0  0  0  0  0  0
   -3.5091   -2.1821    0.8337 C   0  0  0  0  0  0  0  0  0  0  0  0
   -0.6323    2.3943   -1.1751 C   0  0  0  0  0  0  0  0  0  0  0  0
    0.8675    0.1263   -0.3309 C   0  0  0  0  0  0  0  0  0  0  0  0
   -3.7202    0.7869    1.3679 C   0  0  0  0  0  0  0  0  0  0  0  0
    0.7046    2.6497   -0.4838 C   0  0  0  0  0  0  0  0  0  0  0  0
    1.4981    1.3858   -0.2858 C   0  0  0  0  0  0  0  0  0  0  0  0
   -4.9826   -2.3319    0.5184 C   0  0  0  0  0  0  0  0  0  0  0  0
    1.6624   -1.0216   -0.1731 C   0  0  0  0  0  0  0  0  0  0  0  0
   -4.5038    2.0813    1.3457 C   0  0  0  0  0  0  0  0  0  0  0  0
    2.8723    1.4785   -0.0163 C   0  0  0  0  0  0  0  0  0  0  0  0
    3.0317   -0.9206    0.0824 C   0  0  0  0  0  0  0  0  0  0  0  0
    3.6351    0.3289    0.1688 C   0  0  0  0  0  0  0  0  0  0  0  0
    4.3474   -2.6216   -0.9332 C   0  0  0  0  0  0  0  0  0  0  0  0
    5.3634    0.5240    1.7907 C   0  0  0  0  0  0  0  0  0  0  0  0
  1  5  1  0
  2 20  1  0
  2 22  1  0
  3 21  1  0
  3 23  1  0
  4  7  1  0
  4  9  1  0
  4 11  1  0
  5  6  1  0
  5  8  1  0
  5 10  1  0
  6  9  1  0
  6 13  1  0
  7  8  1  0
  7 12  1  0
 10 16  1  0
 11 14  1  0
 12 15  2  0
 12 17  1  0
 13 18  1  0
 14 15  1  0
 15 19  1  0
 17 20  2  0
 19 21  2  0
 20 21  1  0
M  END
>  <PUBCHEM_COMPOUND_CID>  (1) 
31836

>  <PUBCHEM_CONFORMER_RMSD>  (1) 
0.8

>  <PUBCHEM_CONFORMER_DIVERSEORDER>  (1) 
2
5
25
24
11
16
13
23
14
3
20
19
12
26
6
8
15
9
7
22
27
18
1
17
21
10
4

>  <PUBCHEM_MMFF94_PARTIAL_CHARGES>  (1) 
20
1 -0.68
11 0.27
12 -0.14
14 0.14
15 -0.14
17 -0.15
19 -0.15
2 -0.36
20 0.08
21 0.08
22 0.28
23 0.28
3 -0.36
38 0.4
4 -0.81
42 0.15
46 0.15
5 0.28
7 0.41
9 0.27

>  <PUBCHEM_EFFECTIVE_ROTOR_COUNT>  (1) 
5.2

>  <PUBCHEM_PHARMACOPHORE_FEATURES>  (1) 
10
1 1 acceptor
1 1 donor
1 16 hydrophobe
1 18 hydrophobe
1 2 acceptor
1 3 acceptor
1 4 cation
6 12 15 17 19 20 21 rings
6 4 5 6 7 8 9 rings
6 4 7 11 12 14 15 rings

>  <PUBCHEM_HEAVY_ATOM_COUNT>  (1) 
23

>  <PUBCHEM_ATOM_DEF_STEREO_COUNT>  (1) 
0

>  <PUBCHEM_ATOM_UDEF_STEREO_COUNT>  (1) 
3

>  <PUBCHEM_BOND_DEF_STEREO_COUNT>  (1) 
0

>  <PUBCHEM_BOND_UDEF_STEREO_COUNT>  (1) 
0

>  <PUBCHEM_ISOTOPIC_ATOM_COUNT>  (1) 
0

>  <PUBCHEM_COMPONENT_COUNT>  (1) 
1

>  <PUBCHEM_CACTVS_TAUTO_COUNT>  (1) 
1

>  <PUBCHEM_CONFORMER_ID>  (1) 
00007C5C00000002

>  <PUBCHEM_MMFF94_ENERGY>  (1) 
80.2667

>  <PUBCHEM_FEATURE_SELFOVERLAP>  (1) 
50.792

>  <PUBCHEM_SHAPE_FINGERPRINT>  (1) 
10906281 52 18187660145431734672
11132069 177 18408599236667194204
11370993 144 18130789988710391552
11405975 8 18270681957119770570
11552529 35 18060412564525485991
12107183 9 18053391998071961371
12507560 40 18131636681299087002
12553582 1 18187926110469169202
12633257 1 18267307538622205955
12714826 92 17386005018580501397
12892183 10 18131913779846470120
13140716 1 18411704244560959947
13224815 77 18259988205658904948
13533116 47 18267872851398464379
13544653 18 18186239528382948316
13583140 156 15984813857040979271
14178342 30 18412268341545014465
14420673 8 18124889953503075294
14787075 74 18040720320241669432
14790565 3 18121510308753329548
15196674 1 18409731750691771334
15209289 33 17967540081639191771
15209294 21 18131070428510638089
15442244 35 18410301319553721121
15537594 2 17896048662948913594
15788980 27 16081358661909373162
17492 89 18339931523151878259
1813 80 17313110751896457668
19141452 34 18410578353597499305
200 152 18201147871543576751
20281475 54 18334866016867733892
21033648 29 17560790044099285594
21065199 12 18343865519562120954
21267235 1 18335426815095417134
21403212 168 18123195602622804529
221490 88 18409449163962102894
22182313 1 18267571422156482676
22950370 63 18336278855239909502
23184049 59 18339090280697125353
23402539 116 18040703780100910500
23503953 91 18410577279434104665
23559900 14 18264482893888603646
25147074 1 18189347925185993093
2838139 119 15624525732813143393
312423 11 18262815067550407735
335352 9 18265616477043611157
5104073 3 18341609287595680202
56633871 153 18337963264315174355
7097593 13 18338807813656686013
9709674 26 18335139812722792686

>  <PUBCHEM_SHAPE_MULTIPOLES>  (1) 
450.74
10.73
2.96
1.22
3.91
0.31
-0.25
3.84
-4.24
-0.96
0.38
-0.09
-0.23
0.39

>  <PUBCHEM_SHAPE_SELFOVERLAP>  (1) 
945.785

>  <PUBCHEM_SHAPE_VOLUME>  (1) 
255.1

>  <PUBCHEM_COORDINATE_TYPE>  (1) 
2
5
10

$$$$
