3184
     RDKit          3D

 28 30  0  0  0  0  0  0  0  0999 V2000
   -5.8737    2.1351   -0.2824 S   0  0  0  0  0  0  0  0  0  0  0  0
   -0.8026   -3.3873    0.0026 O   0  0  0  0  0  0  0  0  0  0  0  0
   -7.2183    2.6538   -0.1135 O   0  0  0  0  0  0  0  0  0  0  0  0
   -4.7528    2.7595    0.3918 O   0  0  0  0  0  0  0  0  0  0  0  0
    2.4868   -1.2449   -0.4697 N   0  0  0  0  0  0  0  0  0  0  0  0
    4.0834    1.4602   -0.0749 N   0  0  0  0  0  0  0  0  0  0  0  0
   -5.9035    0.4388    0.0145 N   0  0  0  0  0  0  0  0  0  0  0  0
    1.2656   -0.3791   -0.6579 C   0  0  0  0  0  0  0  0  0  0  0  0
    2.1330   -2.6320    0.0069 C   0  0  0  0  0  0  0  0  0  0  0  0
    0.1697   -1.6235    1.2707 C   0  0  0  0  0  0  0  0  0  0  0  0
    0.5158   -0.2631    0.6637 C   0  0  0  0  0  0  0  0  0  0  0  0
    1.3926   -2.5398    1.3356 C   0  0  0  0  0  0  0  0  0  0  0  0
    3.3352   -1.2845   -1.7110 C   0  0  0  0  0  0  0  0  0  0  0  0
    3.8083    0.1194   -2.0723 C   0  0  0  0  0  0  0  0  0  0  0  0
   -0.9497   -2.2784    0.5114 C   0  0  0  0  0  0  0  0  0  0  0  0
    4.6884    0.7501   -1.0216 C   0  0  0  0  0  0  0  0  0  0  0  0
   -2.2513   -1.5647    0.3807 C   0  0  0  0  0  0  0  0  0  0  0  0
   -2.6392   -0.7074    1.3864 C   0  0  0  0  0  0  0  0  0  0  0  0
   -3.0191   -1.7884   -0.7406 C   0  0  0  0  0  0  0  0  0  0  0  0
    6.0545    0.5942   -1.0491 C   0  0  0  0  0  0  0  0  0  0  0  0
    4.7783    2.0598    0.9015 C   0  0  0  0  0  0  0  0  0  0  0  0
   -3.8577   -0.0394    1.2646 C   0  0  0  0  0  0  0  0  0  0  0  0
   -4.2374   -1.1204   -0.8625 C   0  0  0  0  0  0  0  0  0  0  0  0
    6.8015    1.2058   -0.0467 C   0  0  0  0  0  0  0  0  0  0  0  0
   -4.6569   -0.2460    0.1401 C   0  0  0  0  0  0  0  0  0  0  0  0
    6.1608    1.9474    0.9410 C   0  0  0  0  0  0  0  0  0  0  0  0
    4.0214    2.8323    1.9192 C   0  0  0  0  0  0  0  0  0  0  0  0
   -5.5332    2.1425   -2.0284 C   0  0  0  0  0  0  0  0  0  0  0  0
  1  3  2  0
  1  4  2  0
  1  7  1  0
  1 28  1  0
  2 15  2  0
  5  8  1  0
  5  9  1  0
  5 13  1  0
  6 16  2  0
  6 21  1  0
  7 25  1  0
  8 11  1  0
  9 12  1  0
 10 11  1  0
 10 12  1  0
 10 15  1  0
 13 14  1  0
 14 16  1  0
 15 17  1  0
 16 20  1  0
 17 18  2  0
 17 19  1  0
 18 22  1  0
 19 23  2  0
 20 24  2  0
 21 26  2  0
 21 27  1  0
 22 25  2  0
 23 25  1  0
 24 26  1  0
M  CHG  2   5   1   6   1
M  END
>  <PUBCHEM_COMPOUND_CID>  (1) 
3184

>  <PUBCHEM_CONFORMER_RMSD>  (1) 
1.2

>  <PUBCHEM_CONFORMER_DIVERSEORDER>  (1) 
1
149
82
80
114
76
36
30
92
153
53
104
130
22
131
68
136
32
111
65
93
160
166
74
117
147
75
129
156
155
165
9
152
56
120
150
47
17
159
87
96
91
21
110
28
144
98
64
26
44
62
54
55
172
39
109
35
134
27
105
2
168
122
161
73
99
108
157
16
171
124
174
164
4
112
158
11
106
173
41
123
43
42
140
20
79
38
49
135
145
12
14
46
8
25
51
113
6
162
170
167
45
66
67
5
10
126
59
125
69
146
103
118
88
101
23
72
97
81
50
18
127
86
85
60
70
63
142
48
94
84
57
3
107
132
138
154
33
24
31
13
141
121
40
169
151
119
58
139
29
19
148
100
61
77
102
137
7
83
128
15
95
89
37
78
90
52
116
163
71
133
143
34
115

>  <PUBCHEM_MMFF94_PARTIAL_CHARGES>  (1) 
36
1 1.33
10 0.06
13 0.5
14 0.14
15 0.42
16 0.22
17 0.09
18 -0.15
19 -0.15
2 -0.57
20 -0.15
21 0.22
22 -0.15
23 -0.15
24 -0.15
25 0.2
26 -0.15
27 0.14
28 0.11
29 0.45
3 -0.65
4 -0.65
43 0.46
44 0.15
45 0.15
46 0.15
47 0.15
48 0.15
49 0.15
5 -0.96
50 0.15
54 0.42
6 -0.18
7 -0.76
8 0.5
9 0.5

>  <PUBCHEM_EFFECTIVE_ROTOR_COUNT>  (1) 
8.2

>  <PUBCHEM_PHARMACOPHORE_FEATURES>  (1) 
11
1 2 acceptor
1 3 acceptor
1 4 acceptor
1 5 cation
1 5 donor
1 6 acceptor
1 6 donor
1 7 donor
6 17 18 19 22 23 25 rings
6 5 8 9 10 11 12 rings
6 6 16 20 21 24 26 rings

>  <PUBCHEM_HEAVY_ATOM_COUNT>  (1) 
28

>  <PUBCHEM_ATOM_DEF_STEREO_COUNT>  (1) 
0

>  <PUBCHEM_ATOM_UDEF_STEREO_COUNT>  (1) 
0

>  <PUBCHEM_BOND_DEF_STEREO_COUNT>  (1) 
0

>  <PUBCHEM_BOND_UDEF_STEREO_COUNT>  (1) 
0

>  <PUBCHEM_ISOTOPIC_ATOM_COUNT>  (1) 
0

>  <PUBCHEM_COMPONENT_COUNT>  (1) 
1

>  <PUBCHEM_CACTVS_TAUTO_COUNT>  (1) 
14

>  <PUBCHEM_CONFORMER_ID>  (1) 
00000C7000000001

>  <PUBCHEM_MMFF94_ENERGY>  (1) 
73.7937

>  <PUBCHEM_FEATURE_SELFOVERLAP>  (1) 
55.84

>  <PUBCHEM_SHAPE_FINGERPRINT>  (1) 
10042902 136 10303815397163973458
10319926 262 12252175239301655891
10883706 89 16082194208941689968
11069576 57 15266237829913272422
11479125 193 17129843166264187736
11796584 16 10951782832440472131
12293681 160 18131073723019508635
12422481 6 16950553351141936438
12623949 98 7997967990367894906
12633257 1 15357988896901902955
12778500 126 18040709261191291928
12895836 83 18343019987184853271
13627167 48 18058170527758521289
13690498 29 17273685658687624575
13947930 73 11095297756430858333
14123256 34 11167935871011206325
14251764 30 9439141844274176044
14251764 38 17980764054152796776
14556957 393 15769791159884709625
14739800 52 18408876322049983922
14950920 106 14707219845947702805
16989378 47 12247390250132580728
1813 80 10879727480871410234
18608769 82 18267871760614467171
19438510 23 18259988141624675563
20511986 3 18130783473699184582
20715895 44 18410858776402245992
21033648 144 18114457869626289775
21033648 29 18259993681620933431
21424621 283 18334579048617412426
21774942 28 18130508527130682080
21859007 373 18114741525934736054
21968339 14 17847062160620617634
22393880 68 18130783507626048699
23559900 14 16845569846397341683
25122255 55 10159692500159846085
2748736 6 18187364350153143565
2838139 119 18341610468700922014
312425 54 11602803684658061261
3459 39 18114451336100350180
376196 1 18411139168942385082
4015057 19 17060065890479436586
508706 21 18336825415313305473
5104073 3 17530970155247008011
5283173 99 18271247234976835322
5385378 56 17894908504014502842
59682541 52 16702302325745963497
7970288 3 10087646995869462576

>  <PUBCHEM_SHAPE_MULTIPOLES>  (1) 
547.53
17.95
3.63
1.68
3.23
0.16
0.28
18.74
2.97
1.77
-0.75
-0.93
0.37
2.25

>  <PUBCHEM_SHAPE_SELFOVERLAP>  (1) 
1139.852

>  <PUBCHEM_SHAPE_VOLUME>  (1) 
313.8

>  <PUBCHEM_COORDINATE_TYPE>  (1) 
2
5
10

$$$$
