31846
     RDKit          3D

 20 21  0  0  1  0  0  0  0  0999 V2000
    3.0397   -2.6825    0.0057 Cl  0  0  0  0  0  0  0  0  0  0  0  0
    3.9411    0.4219    0.0366 S   0  0  0  0  0  0  0  0  0  0  0  0
   -4.2057   -1.8446    0.8132 O   0  0  0  0  0  0  0  0  0  0  0  0
   -0.7785    2.8141    0.0993 O   0  0  0  0  0  0  0  0  0  0  0  0
    4.0301    1.7512    0.6193 O   0  0  0  0  0  0  0  0  0  0  0  0
    4.7334   -0.6678    0.5838 O   0  0  0  0  0  0  0  0  0  0  0  0
   -2.4338    1.1589    0.0915 N   0  0  0  0  0  0  0  0  0  0  0  0
   -1.8097   -1.1355    0.0617 N   0  0  0  0  0  0  0  0  0  0  0  0
    4.2351    0.5302   -1.6419 N   0  0  0  0  0  0  0  0  0  0  0  0
   -0.0683    0.5869    0.0682 C   0  0  0  0  0  0  0  0  0  0  0  0
   -2.7136   -0.2062    0.0791 C   0  0  0  0  0  0  0  0  0  0  0  0
   -0.4618   -0.7537    0.0557 C   0  0  0  0  0  0  0  0  0  0  0  0
   -4.1615   -0.6363    0.0837 C   0  0  0  0  0  0  0  0  0  0  0  0
   -1.1130    1.6328    0.0878 C   0  0  0  0  0  0  0  0  0  0  0  0
    2.2577   -0.0653    0.0433 C   0  0  0  0  0  0  0  0  0  0  0  0
    1.2871    0.9353    0.0622 C   0  0  0  0  0  0  0  0  0  0  0  0
    0.5237   -1.7473    0.0366 C   0  0  0  0  0  0  0  0  0  0  0  0
    1.8769   -1.4054    0.0304 C   0  0  0  0  0  0  0  0  0  0  0  0
   -3.5127    2.1456    0.1101 C   0  0  0  0  0  0  0  0  0  0  0  0
   -4.6661   -0.8322   -1.3262 C   0  0  0  0  0  0  0  0  0  0  0  0
  1 18  1  0
  2  5  2  0
  2  6  2  0
  2  9  1  0
  2 15  1  0
  3 13  1  0
  4 14  2  0
  7 11  1  0
  7 14  1  0
  7 19  1  0
  8 11  2  0
  8 12  1  0
 10 12  2  0
 10 14  1  0
 10 16  1  0
 11 13  1  0
 12 17  1  0
 13 20  1  0
 15 16  2  0
 15 18  1  0
 17 18  2  0
M  END
>  <PUBCHEM_COMPOUND_CID>  (1) 
31846

>  <PUBCHEM_CONFORMER_RMSD>  (1) 
0.6

>  <PUBCHEM_CONFORMER_DIVERSEORDER>  (1) 
1
4
2
3

>  <PUBCHEM_MMFF94_PARTIAL_CHARGES>  (1) 
24
1 -0.18
10 0.09
11 0.45
12 0.18
13 0.34
14 0.54
15 -0.01
16 -0.15
17 -0.15
18 0.18
19 0.3
2 1.45
22 0.15
23 0.15
3 -0.68
30 0.4
31 0.42
32 0.42
4 -0.57
5 -0.65
6 -0.65
7 -0.42
8 -0.63
9 -0.98

>  <PUBCHEM_EFFECTIVE_ROTOR_COUNT>  (1) 
2

>  <PUBCHEM_PHARMACOPHORE_FEATURES>  (1) 
8
1 3 acceptor
1 3 donor
1 4 acceptor
1 5 acceptor
1 6 acceptor
1 9 donor
6 10 12 15 16 17 18 rings
6 7 8 10 11 12 14 rings

>  <PUBCHEM_HEAVY_ATOM_COUNT>  (1) 
20

>  <PUBCHEM_ATOM_DEF_STEREO_COUNT>  (1) 
0

>  <PUBCHEM_ATOM_UDEF_STEREO_COUNT>  (1) 
1

>  <PUBCHEM_BOND_DEF_STEREO_COUNT>  (1) 
0

>  <PUBCHEM_BOND_UDEF_STEREO_COUNT>  (1) 
0

>  <PUBCHEM_ISOTOPIC_ATOM_COUNT>  (1) 
0

>  <PUBCHEM_COMPONENT_COUNT>  (1) 
1

>  <PUBCHEM_CACTVS_TAUTO_COUNT>  (1) 
1

>  <PUBCHEM_CONFORMER_ID>  (1) 
00007C6600000001

>  <PUBCHEM_MMFF94_ENERGY>  (1) 
37.4705

>  <PUBCHEM_FEATURE_SELFOVERLAP>  (1) 
40.644

>  <PUBCHEM_SHAPE_FINGERPRINT>  (1) 
10366900 7 18409737278805064642
10498660 4 18410575050372438668
10608611 8 18339077073614544528
10616163 171 18412264995459607175
10906281 52 18340500984754982311
10967382 1 18411136978286738514
11578080 2 17025140827236500422
11806522 49 18410289254937832719
12236239 1 17676765453103618400
12403259 226 18339636734013582640
12403260 363 18410567371535110504
12553582 1 18341047527480139439
13140716 1 17835805566396299939
13224815 77 18410575058898556426
13862211 1 18339918307131021279
14576447 43 18128521834104855399
14787075 74 17987512796025395696
14790565 3 17836651829768717649
15196674 1 18411136892160506786
15375462 6 18411419483939763542
15442244 35 18122061992700844122
15536298 74 18341613651329814466
16945 1 18337958990268456346
17349148 13 18113337518136789082
17492 89 18338234843123369050
18186145 218 17677334904952067931
18769570 83 15719935953007742477
19050596 39 18337390435651758744
19591789 44 18340486789054612722
200 152 18272923943307334487
20510252 161 18343303643450880585
20645477 70 18411694353383828439
21029758 11 18342170111788241633
21029758 27 18262807379627584453
21267235 1 18411144627555245666
21501502 16 18267305339451062458
221490 88 18339648824093404202
2334 1 18410857624897284507
23366157 5 17897170126439622626
23402539 116 18343012311751000799
23557571 272 18200887204960709077
23558518 356 18117848693949209538
23559900 14 18196648489315978474
2748010 2 18411978027652098717
2871803 45 18410289215934922007
312423 11 18338244747602244482
335352 9 17978792311527910047
34934 24 18339915017434005423
350125 39 18337674101504823854
4409770 3 16022247486950936254
474 4 17531536464054297020
474229 33 18338795719076181802
4990 188 17918000455836875444
5104073 3 18339079289553815634
5283173 99 18042389250017468733
537710 114 18335707182065407124
57096353 35 18409732863056503511
633830 44 17096381543879390816
7097593 13 17611174966900531490
7364860 26 18197497321140940918
9709674 26 18339365154056147818

>  <PUBCHEM_SHAPE_MULTIPOLES>  (1) 
378.89
9.32
2.54
0.85
0.01
0.24
0.27
-1.17
0.9
0.13
-0.23
-0.06
-0.06
-0.16

>  <PUBCHEM_SHAPE_SELFOVERLAP>  (1) 
791.648

>  <PUBCHEM_SHAPE_VOLUME>  (1) 
218.4

>  <PUBCHEM_COORDINATE_TYPE>  (1) 
2
5
10

$$$$
