3186
     RDKit          3D

 25 24  0  0  1  0  0  0  0  0999 V2000
   -0.0194    1.7829   -1.5266 O   0  0  0  0  0  0  0  0  0  0  0  0
    0.2936   -2.3029   -1.4927 O   0  0  0  0  0  0  0  0  0  0  0  0
    0.4498   -0.7313    1.4905 O   0  0  0  0  0  0  0  0  0  0  0  0
   -0.3091   -5.6448    1.1496 O   0  0  0  0  0  0  0  0  0  0  0  0
    1.2369   -5.1946   -0.4511 O   0  0  0  0  0  0  0  0  0  0  0  0
    1.6302   -0.0872   -0.4030 N   0  0  0  0  0  0  0  0  0  0  0  0
    0.2321    3.0559    0.3992 N   0  0  0  0  0  0  0  0  0  0  0  0
   -3.7071    0.5129    0.4086 N   0  0  0  0  0  0  0  0  0  0  0  0
   -4.5716    0.5111   -1.8347 N   0  0  0  0  0  0  0  0  0  0  0  0
   -4.8418   -1.4483   -0.4773 N   0  0  0  0  0  0  0  0  0  0  0  0
    3.0915    1.8869   -0.6597 C   0  0  0  0  0  0  0  0  0  0  0  0
    1.8253    1.2903   -0.0319 C   0  0  0  0  0  0  0  0  0  0  0  0
    4.4001    1.1560   -0.2961 C   0  0  0  0  0  0  0  0  0  0  0  0
    0.5931    2.0597   -0.4973 C   0  0  0  0  0  0  0  0  0  0  0  0
    5.6187    1.7604   -0.9947 C   0  0  0  0  0  0  0  0  0  0  0  0
    4.6058    1.1898    1.2209 C   0  0  0  0  0  0  0  0  0  0  0  0
   -0.9284    3.8990    0.2221 C   0  0  0  0  0  0  0  0  0  0  0  0
   -1.9223    3.7699    1.3721 C   0  0  0  0  0  0  0  0  0  0  0  0
   -2.4670    2.3449    1.5201 C   0  0  0  0  0  0  0  0  0  0  0  0
    0.9503   -0.9947    0.3992 C   0  0  0  0  0  0  0  0  0  0  0  0
    0.8958   -2.3904   -0.2095 C   0  0  0  0  0  0  0  0  0  0  0  0
   -3.2074    1.8790    0.2708 C   0  0  0  0  0  0  0  0  0  0  0  0
    0.1006   -3.3545    0.6744 C   0  0  0  0  0  0  0  0  0  0  0  0
    0.4228   -4.8027    0.3733 C   0  0  0  0  0  0  0  0  0  0  0  0
   -4.3726   -0.1473   -0.6261 C   0  0  0  0  0  0  0  0  0  0  0  0
  1 14  2  0
  2 21  1  0
  3 20  2  0
  4 24  1  0
  5 24  2  0
  6 12  1  0
  6 20  1  0
  7 14  1  0
  7 17  1  0
  8 22  1  0
  8 25  2  3
  9 25  1  0
 10 25  1  0
 11 12  1  0
 11 13  1  0
 12 14  1  0
 13 15  1  0
 13 16  1  0
 17 18  1  0
 18 19  1  0
 19 22  1  0
 20 21  1  0
 21 23  1  0
 23 24  1  0
M  CHG  1   8   1
M  END
>  <PUBCHEM_COMPOUND_CID>  (1) 
3186

>  <PUBCHEM_CONFORMER_RMSD>  (1) 
1.2

>  <PUBCHEM_CONFORMER_DIVERSEORDER>  (1) 
5
82
147
26
38
92
25
40
85
37
116
44
144
68
126
123
124
105
70
6
45
86
69
20
75
128
18
96
118
12
104
117
135
49
54
98
79
90
57
27
71
36
140
8
66
109
22
32
73
63
21
35
150
94
142
10
48
122
146
7
78
133
136
107
50
56
64
59
62
137
29
58
95
83
99
108
24
4
65
103
129
80
39
60
121
91
141
11
19
127
14
119
139
72
67
143
101
51
84
47
93
148
28
131
112
134
30
53
130
88
34
81
43
138
2
31
100
42
17
1
125
52
97
23
41
120
74
61
145
113
33
114
87
13
16
132
115
149
9
55
77
106
15
46
76
110
111
3
89
102

>  <PUBCHEM_MMFF94_PARTIAL_CHARGES>  (1) 
28
1 -0.57
10 -0.97
12 0.36
14 0.57
17 0.3
2 -0.68
20 0.57
21 0.34
22 0.33
23 0.06
24 0.66
25 1.2
3 -0.57
30 0.37
4 -0.65
41 0.37
49 0.45
5 -0.57
50 0.4
51 0.45
52 0.45
53 0.45
54 0.45
55 0.5
6 -0.73
7 -0.73
8 -0.84
9 -0.97

>  <PUBCHEM_EFFECTIVE_ROTOR_COUNT>  (1) 
14

>  <PUBCHEM_PHARMACOPHORE_FEATURES>  (1) 
14
1 1 acceptor
1 10 donor
1 2 acceptor
1 2 donor
1 3 acceptor
1 4 acceptor
1 5 acceptor
1 6 donor
1 7 donor
1 8 donor
1 9 donor
3 13 15 16 hydrophobe
3 4 5 24 anion
4 8 9 10 25 cation

>  <PUBCHEM_HEAVY_ATOM_COUNT>  (1) 
25

>  <PUBCHEM_ATOM_DEF_STEREO_COUNT>  (1) 
0

>  <PUBCHEM_ATOM_UDEF_STEREO_COUNT>  (1) 
2

>  <PUBCHEM_BOND_DEF_STEREO_COUNT>  (1) 
0

>  <PUBCHEM_BOND_UDEF_STEREO_COUNT>  (1) 
0

>  <PUBCHEM_ISOTOPIC_ATOM_COUNT>  (1) 
0

>  <PUBCHEM_COMPONENT_COUNT>  (1) 
1

>  <PUBCHEM_CACTVS_TAUTO_COUNT>  (1) 
8

>  <PUBCHEM_CONFORMER_ID>  (1) 
00000C7200000005

>  <PUBCHEM_MMFF94_ENERGY>  (1) 
25.5073

>  <PUBCHEM_FEATURE_SELFOVERLAP>  (1) 
71.202

>  <PUBCHEM_SHAPE_FINGERPRINT>  (1) 
10074138 170 18124850577975473192
1100329 8 18123467451886538917
11014199 57 18123467177615839243
12839892 36 18265602200762496224
13032168 30 18201730547754989009
13692115 46 17766038173764893182
14251757 5 18120942969062736988
14787075 74 18131071579979312848
14863182 85 18191894299515787137
20028762 73 18272651298150375502
23566358 27 17978798904434928636
283562 15 18342178851461672305
4409770 3 18192726758714206778

>  <PUBCHEM_SHAPE_MULTIPOLES>  (1) 
460.24
8.39
7.38
1.37
1.19
12.14
0.04
-5.8
2.37
-0.93
-2.25
-0.45
-0.29
-1.04

>  <PUBCHEM_SHAPE_SELFOVERLAP>  (1) 
885.641

>  <PUBCHEM_SHAPE_VOLUME>  (1) 
275.2

>  <PUBCHEM_COORDINATE_TYPE>  (1) 
2
5
10

$$$$
