31862
     RDKit          3D

 13 14  0  0  0  0  0  0  0  0999 V2000
    0.9196   -0.6255    1.6970 N   0  0  0  0  0  0  0  0  0  0  0  0
    0.6540   -0.1088    0.3398 C   0  0  0  0  0  0  0  0  0  0  0  0
    1.3788    1.2633    0.2312 C   0  0  0  0  0  0  0  0  0  0  0  0
    1.2928   -1.0740   -0.6997 C   0  0  0  0  0  0  0  0  0  0  0  0
    2.9045    1.1722    0.3273 C   0  0  0  0  0  0  0  0  0  0  0  0
    2.8194   -1.1586   -0.6164 C   0  0  0  0  0  0  0  0  0  0  0  0
    3.4708    0.2140   -0.7115 C   0  0  0  0  0  0  0  0  0  0  0  0
   -0.8684   -0.0239    0.1112 C   0  0  0  0  0  0  0  0  0  0  0  0
   -1.4580    1.2066   -0.1615 C   0  0  0  0  0  0  0  0  0  0  0  0
   -1.6425   -1.1780    0.1794 C   0  0  0  0  0  0  0  0  0  0  0  0
   -2.8352    1.2836   -0.3683 C   0  0  0  0  0  0  0  0  0  0  0  0
   -3.0198   -1.1009   -0.0273 C   0  0  0  0  0  0  0  0  0  0  0  0
   -3.6162    0.1299   -0.3012 C   0  0  0  0  0  0  0  0  0  0  0  0
  1  2  1  0
  2  3  1  0
  2  4  1  0
  2  8  1  0
  3  5  1  0
  4  6  1  0
  5  7  1  0
  6  7  1  0
  8  9  2  0
  8 10  1  0
  9 11  1  0
 10 12  2  0
 11 13  2  0
 12 13  1  0
M  END
>  <PUBCHEM_COMPOUND_CID>  (1) 
31862

>  <PUBCHEM_CONFORMER_RMSD>  (1) 
0.6

>  <PUBCHEM_CONFORMER_DIVERSEORDER>  (1) 
1
4
3
2

>  <PUBCHEM_MMFF94_PARTIAL_CHARGES>  (1) 
15
1 -0.99
10 -0.15
11 -0.15
12 -0.15
13 -0.15
2 0.41
24 0.36
25 0.36
26 0.15
27 0.15
28 0.15
29 0.15
30 0.15
8 -0.14
9 -0.15

>  <PUBCHEM_EFFECTIVE_ROTOR_COUNT>  (1) 
2.2

>  <PUBCHEM_PHARMACOPHORE_FEATURES>  (1) 
4
1 1 cation
1 1 donor
6 2 3 4 5 6 7 rings
6 8 9 10 11 12 13 rings

>  <PUBCHEM_HEAVY_ATOM_COUNT>  (1) 
13

>  <PUBCHEM_ATOM_DEF_STEREO_COUNT>  (1) 
0

>  <PUBCHEM_ATOM_UDEF_STEREO_COUNT>  (1) 
0

>  <PUBCHEM_BOND_DEF_STEREO_COUNT>  (1) 
0

>  <PUBCHEM_BOND_UDEF_STEREO_COUNT>  (1) 
0

>  <PUBCHEM_ISOTOPIC_ATOM_COUNT>  (1) 
0

>  <PUBCHEM_COMPONENT_COUNT>  (1) 
1

>  <PUBCHEM_CACTVS_TAUTO_COUNT>  (1) 
1

>  <PUBCHEM_CONFORMER_ID>  (1) 
00007C7600000001

>  <PUBCHEM_MMFF94_ENERGY>  (1) 
26.7934

>  <PUBCHEM_FEATURE_SELFOVERLAP>  (1) 
20.297

>  <PUBCHEM_SHAPE_FINGERPRINT>  (1) 
10608611 8 18412541020096698781
12491281 212 18268727038029663449
12716758 59 18334861610321023795
12897270 3 18413392046370030500
12932764 1 17894625907892669141
13296908 3 18409450306017169547
13705890 14 18131072623692223558
14144814 61 18410291393636269921
14325111 11 18411981368625114492
15219456 202 18343021107469352941
15775835 57 17822008666604595989
16945 1 18264774426908445096
17844478 74 18337121154224351483
18186145 218 18041000609343001022
200 152 17489867133297522333
20201158 50 18272655618856014878
20279233 1 18342737433516892006
20361792 2 15123506995248044641
20645477 70 18059857225048359327
20671657 53 17773894016709582878
21501502 16 18341052912915032175
22802520 49 18341901757450901261
23402539 116 18261382390819250414
23402655 69 18271804584219303213
23559900 14 18269553841510949974
2748010 2 18412261765659881989
276578 36 17095526149549797305
3248919 1 18130498652599539057
528886 8 18343580746261432366
57812782 119 18411698802932348052
6333449 129 18410011048467995261
7364860 26 18189888721629471354
8030462 33 17676481727236964699
93112 12 18413671305180526855

>  <PUBCHEM_SHAPE_MULTIPOLES>  (1) 
262.55
6.01
1.52
0.93
0.61
0.1
-0.24
0.27
1.2
0.03
0.07
-0.35
-0.13
0.43

>  <PUBCHEM_SHAPE_SELFOVERLAP>  (1) 
547.128

>  <PUBCHEM_SHAPE_VOLUME>  (1) 
148.3

>  <PUBCHEM_COORDINATE_TYPE>  (1) 
2
5
10

$$$$
