31866
     RDKit          3D

 30 33  0  0  1  0  0  0  0  0999 V2000
    1.5975    0.7833   -2.6431 Cl  0  0  0  0  0  0  0  0  0  0  0  0
   -2.7856    0.7400    2.0488 S   0  0  0  0  0  0  0  0  0  0  0  0
    4.6820   -2.2760   -0.9515 S   0  0  0  0  0  0  0  0  0  0  0  0
    4.2899    1.3191    1.6764 F   0  0  0  0  0  0  0  0  0  0  0  0
   -2.5689   -2.9330   -0.3595 O   0  0  0  0  0  0  0  0  0  0  0  0
   -4.0462   -0.1715   -2.3457 O   0  0  0  0  0  0  0  0  0  0  0  0
   -6.1164    0.1070   -1.4331 O   0  0  0  0  0  0  0  0  0  0  0  0
    1.4267   -1.0924    2.1751 O   0  0  0  0  0  0  0  0  0  0  0  0
   -2.7895   -0.5901   -0.1775 N   0  0  0  0  0  0  0  0  0  0  0  0
    0.2346   -1.3063    0.2136 N   0  0  0  0  0  0  0  0  0  0  0  0
    4.5054   -0.6258   -1.0413 N   0  0  0  0  0  0  0  0  0  0  0  0
   -1.7993    0.1182    0.6394 C   0  0  0  0  0  0  0  0  0  0  0  0
   -4.2903    0.9110    0.9661 C   0  0  0  0  0  0  0  0  0  0  0  0
   -4.2002   -0.2978    0.0083 C   0  0  0  0  0  0  0  0  0  0  0  0
   -1.0910   -1.2291    0.8348 C   0  0  0  0  0  0  0  0  0  0  0  0
   -2.2182   -1.8216   -0.0333 C   0  0  0  0  0  0  0  0  0  0  0  0
   -5.5437    0.8450    1.8408 C   0  0  0  0  0  0  0  0  0  0  0  0
   -4.2115    2.2737    0.2625 C   0  0  0  0  0  0  0  0  0  0  0  0
   -4.9174   -0.0954   -1.3102 C   0  0  0  0  0  0  0  0  0  0  0  0
    1.4217   -1.2299    0.9522 C   0  0  0  0  0  0  0  0  0  0  0  0
    2.6710   -1.3536    0.1894 C   0  0  0  0  0  0  0  0  0  0  0  0
    3.3936   -0.2941   -0.3890 C   0  0  0  0  0  0  0  0  0  0  0  0
    3.2637   -2.5597   -0.0338 C   0  0  0  0  0  0  0  0  0  0  0  0
    3.0299    1.1045   -0.3314 C   0  0  0  0  0  0  0  0  0  0  0  0
    2.8884   -3.9307    0.3642 C   0  0  0  0  0  0  0  0  0  0  0  0
    2.2219    1.6842   -1.3049 C   0  0  0  0  0  0  0  0  0  0  0  0
    3.5105    1.8648    0.7307 C   0  0  0  0  0  0  0  0  0  0  0  0
    1.8911    3.0365   -1.2154 C   0  0  0  0  0  0  0  0  0  0  0  0
    3.1798    3.2170    0.8201 C   0  0  0  0  0  0  0  0  0  0  0  0
    2.3703    3.8028   -0.1528 C   0  0  0  0  0  0  0  0  0  0  0  0
  1 26  1  0
  2 12  1  0
  2 13  1  0
  3 11  1  0
  3 23  1  0
  4 27  1  0
  5 16  2  0
  6 19  1  0
  7 19  2  0
  8 20  2  0
  9 12  1  0
  9 14  1  0
  9 16  1  0
 10 15  1  0
 10 20  1  0
 11 22  2  0
 12 15  1  0
 13 14  1  0
 13 17  1  0
 13 18  1  0
 14 19  1  0
 15 16  1  0
 20 21  1  0
 21 22  1  0
 21 23  2  0
 22 24  1  0
 23 25  1  0
 24 26  2  0
 24 27  1  0
 26 28  1  0
 27 29  2  0
 28 30  2  0
 29 30  1  0
M  END
>  <PUBCHEM_COMPOUND_CID>  (1) 
31866

>  <PUBCHEM_CONFORMER_RMSD>  (1) 
0.8

>  <PUBCHEM_CONFORMER_DIVERSEORDER>  (1) 
14
194
136
170
198
113
175
139
135
72
142
192
1
183
15
197
100
69
138
111
199
21
30
176
201
144
89
182
27
171
150
104
177
203
63
57
108
55
205
130
110
143
78
145
22
20
161
86
96
186
77
156
38
71
190
200
105
202
76
58
37
189
51
93
6
195
193
35
25
204
131
98
8
59
165
53
116
141
49
31
178
102
112
196
29
155
101
159
56
84
82
32
47
94
4
99
172
34
97
180
154
45
106
28
60
164
52
43
137
54
133
132
74
62
50
46
179
162
36
128
79
115
114
73
23
158
16
147
95
129
146
118
19
41
127
185
48
26
119
174
148
107
168
173
140
152
2
188
33
7
81
134
18
169
66
103
13
70
24
92
83
9
68
191
88
109
90
12
11
80
40
5
184
85
87
17
151
10
3
167
75
181
166
117
44
67
91
187
120
39
149
157
64
42
121
125
153
124
160
122
61
65
163
126
123

>  <PUBCHEM_MMFF94_PARTIAL_CHARGES>  (1) 
33
1 -0.18
10 -0.65
11 -0.51
12 0.44
13 0.23
14 0.36
15 0.28
16 0.58
19 0.66
2 -0.45
20 0.72
21 -0.09
22 0.23
23 -0.14
24 0.05
25 0.18
26 0.18
27 0.19
28 -0.15
29 -0.15
3 0.18
30 -0.15
4 -0.19
40 0.37
41 0.5
45 0.15
46 0.15
47 0.15
5 -0.57
6 -0.65
7 -0.57
8 -0.57
9 -0.59

>  <PUBCHEM_EFFECTIVE_ROTOR_COUNT>  (1) 
5.8

>  <PUBCHEM_PHARMACOPHORE_FEATURES>  (1) 
12
1 10 donor
1 11 acceptor
1 5 acceptor
1 6 acceptor
1 7 acceptor
1 8 acceptor
3 13 17 18 hydrophobe
3 6 7 19 anion
4 9 12 15 16 rings
5 3 11 21 22 23 rings
6 24 26 27 28 29 30 rings
7 2 9 12 13 14 15 16 rings

>  <PUBCHEM_HEAVY_ATOM_COUNT>  (1) 
30

>  <PUBCHEM_ATOM_DEF_STEREO_COUNT>  (1) 
0

>  <PUBCHEM_ATOM_UDEF_STEREO_COUNT>  (1) 
3

>  <PUBCHEM_BOND_DEF_STEREO_COUNT>  (1) 
0

>  <PUBCHEM_BOND_UDEF_STEREO_COUNT>  (1) 
0

>  <PUBCHEM_ISOTOPIC_ATOM_COUNT>  (1) 
0

>  <PUBCHEM_COMPONENT_COUNT>  (1) 
1

>  <PUBCHEM_CACTVS_TAUTO_COUNT>  (1) 
2

>  <PUBCHEM_CONFORMER_ID>  (1) 
00007C7A0000000E

>  <PUBCHEM_MMFF94_ENERGY>  (1) 
78.1561

>  <PUBCHEM_FEATURE_SELFOVERLAP>  (1) 
64.695

>  <PUBCHEM_SHAPE_FINGERPRINT>  (1) 
11582403 64 16914250969703239368
11595378 159 12829488139017888927
12156800 1 14153742455793034406
12166972 35 18272088249760872257
12616971 3 18202008690337373729
12633257 1 18115011035191010584
12788726 201 17829620457425350298
13134695 92 18336555915264442462
13533116 47 18412826910737282717
13726171 33 16271092681821233369
14068700 675 17631453372106010642
14347329 18 16371564770077211269
15210252 30 17749973102118795676
15420108 30 18199453524452572090
17349148 13 17988929929311710407
18335252 114 18120932807619066093
21033648 144 18410853282780242239
21033648 29 17530962471555373933
21033650 10 16772138880510065483
21133410 127 17968943140045125709
21133410 230 11326317059106598157
21133410 62 16885542326034498677
21860390 5 18341615940731993588
22122407 14 18194706786584449921
22149856 69 18193298484151445595
22289505 5 18113617837931120206
22749437 52 18264773348893168648
23559900 14 18412823603417669066
3388396 114 18272086158070731189
340366 18 18271257027370862806
474 4 18262801890390166704
5081480 168 18337402530168842940
508706 21 17458622247311142789
5895379 119 17201661972930967520
6328613 192 17898854810746384732
6823239 73 16370738035959258421
9981440 41 17906171012123581032

>  <PUBCHEM_SHAPE_MULTIPOLES>  (1) 
581.26
11.92
4
1.94
12.48
0.76
0.44
0.24
1.09
-5.53
-0.17
1.02
0.48
-0.5

>  <PUBCHEM_SHAPE_SELFOVERLAP>  (1) 
1230.659

>  <PUBCHEM_SHAPE_VOLUME>  (1) 
332.4

>  <PUBCHEM_COORDINATE_TYPE>  (1) 
2
5
10

$$$$
