31881
     RDKit          3D

 17 16  0  0  0  0  0  0  0  0999 V2000
    5.0727   -0.3078    0.0291 S   0  0  0  0  0  0  0  0  0  0  0  0
   -5.0725   -0.3080   -0.0291 S   0  0  0  0  0  0  0  0  0  0  0  0
    3.5896    0.3775    0.0364 O   0  0  0  0  0  0  0  0  0  0  0  0
   -3.5914    0.3790   -0.0365 O   0  0  0  0  0  0  0  0  0  0  0  0
    5.2971   -0.9548   -1.2476 O   0  0  0  0  0  0  0  0  0  0  0  0
    5.2925   -0.9929    1.2867 O   0  0  0  0  0  0  0  0  0  0  0  0
   -5.2969   -0.9551    1.2475 O   0  0  0  0  0  0  0  0  0  0  0  0
   -5.2921   -0.9930   -1.2867 O   0  0  0  0  0  0  0  0  0  0  0  0
    0.0009   -0.4229    0.0000 N   0  0  0  0  0  0  0  0  0  0  0  0
    1.1996    0.4016    0.0321 C   0  0  0  0  0  0  0  0  0  0  0  0
   -1.1996    0.4023   -0.0321 C   0  0  0  0  0  0  0  0  0  0  0  0
    2.4482   -0.4659    0.0217 C   0  0  0  0  0  0  0  0  0  0  0  0
   -2.4479   -0.4654   -0.0217 C   0  0  0  0  0  0  0  0  0  0  0  0
    6.0013    1.2043    0.0535 C   0  0  0  0  0  0  0  0  0  0  0  0
   -6.0014    1.2040   -0.0534 C   0  0  0  0  0  0  0  0  0  0  0  0
    7.4818    0.9488   -0.1192 C   0  0  0  0  0  0  0  0  0  0  0  0
   -7.4819    0.9482    0.1193 C   0  0  0  0  0  0  0  0  0  0  0  0
  1  3  1  0
  1  5  2  0
  1  6  2  0
  1 14  1  0
  2  4  1  0
  2  7  2  0
  2  8  2  0
  2 15  1  0
  3 12  1  0
  4 13  1  0
  9 10  1  0
  9 11  1  0
 10 12  1  0
 11 13  1  0
 14 16  1  0
 15 17  1  0
M  END
>  <PUBCHEM_COMPOUND_CID>  (1) 
31881

>  <PUBCHEM_CONFORMER_RMSD>  (1) 
0.8

>  <PUBCHEM_CONFORMER_DIVERSEORDER>  (1) 
1
250
317
253
21
107
109
321
110
104
31
199
347
180
271
55
204
175
23
14
49
206
239
305
7
30
365
42
12
211
28
223
401
59
85
394
398
138
4
232
156
167
231
225
142
178
126
267
141
18
68
385
224
33
198
270
266
77
201
139
25
196
37
249
46
93
181
51
186
298
346
242
343
35
334
146
315
113
152
309
157
289
380
158
376
313
75
122
50
140
44
285
101
39
373
36
150
79
370
244
226
123
179
319
91
166
358
22
188
290
337
297
235
276
390
29
326
331
286
342
121
260
361
374
168
62
229
215
115
322
64
2
263
241
396
217
372
111
302
159
291
243
89
96
261
306
137
135
308
345
127
399
230
149
354
221
268
272
393
114
98
348
154
189
145
219
194
364
254
118
245
34
281
378
92
349
240
86
369
129
264
19
38
163
143
379
148
388
227
202
190
144
377
304
344
27
350
11
292
314
320
67
151
387
210
265
383
353
47
316
256
187
203
283
128
193
220
8
274
81
279
269
329
327
341
170
280
43
15
70
359
312
176
192
205
117
375
88
26
161
102
212
177
105
384
299
339
45
236
296
17
134
237
382
106
355
74
136
99
352
246
228
58
80
303
208
294
171
301
282
165
60
330
336
293
325
335
216
248
71
381
400
53
395
257
222
173
87
368
162
402
300
183
357
197
218
95
100
332
132
362
287
234
124
328
351
209
340
233
73
184
367
147
200
277
16
252
371
169
66
48
160
76
284
258
72
247
363
41
116
255
20
120
90
131
318
172
24
311
94
295
155
119
97
125
214
164
397
389
32
191
174
288
108
323
366
56
195
133
65
356
307
182
392
391
310
360
207
238
69
386
338
103
83
57
13
251
6
153
84
54
259
112
82
275
333
213
185
324
10
52
61
278
78
3
40
63
273
130
262
9
5

>  <PUBCHEM_MMFF94_PARTIAL_CHARGES>  (1) 
16
1 1.38
10 0.27
11 0.27
12 0.28
13 0.28
14 0.11
15 0.11
2 1.38
26 0.36
3 -0.46
4 -0.46
5 -0.65
6 -0.65
7 -0.65
8 -0.65
9 -0.9

>  <PUBCHEM_EFFECTIVE_ROTOR_COUNT>  (1) 
10

>  <PUBCHEM_PHARMACOPHORE_FEATURES>  (1) 
6
1 5 acceptor
1 6 acceptor
1 7 acceptor
1 8 acceptor
1 9 cation
1 9 donor

>  <PUBCHEM_HEAVY_ATOM_COUNT>  (1) 
17

>  <PUBCHEM_ATOM_DEF_STEREO_COUNT>  (1) 
0

>  <PUBCHEM_ATOM_UDEF_STEREO_COUNT>  (1) 
0

>  <PUBCHEM_BOND_DEF_STEREO_COUNT>  (1) 
0

>  <PUBCHEM_BOND_UDEF_STEREO_COUNT>  (1) 
0

>  <PUBCHEM_ISOTOPIC_ATOM_COUNT>  (1) 
0

>  <PUBCHEM_COMPONENT_COUNT>  (1) 
1

>  <PUBCHEM_CACTVS_TAUTO_COUNT>  (1) 
1

>  <PUBCHEM_CONFORMER_ID>  (1) 
00007C8900000001

>  <PUBCHEM_MMFF94_ENERGY>  (1) 
-2.4473

>  <PUBCHEM_FEATURE_SELFOVERLAP>  (1) 
30.48

>  <PUBCHEM_SHAPE_FINGERPRINT>  (1) 
11315181 36 16487256595534373475
12091667 2 18341895208174401007
13533116 47 17967806108141031738
1420 363 18259707800123866995
14251764 18 18334011701355730851
14251764 46 18410575084663098408
14729087 3 18187079530125013181
14933364 13 18410857663446741920
15183329 4 17060341816131456187
15716309 27 18410571777701914771
17093844 174 18040435504112588689
20281389 69 17895192173613909013
20621476 66 18410014351060663855
20621476 8 18334013860970017396
21130983 4 18334014999416172308
220451 1 18408881836777805647
23035841 295 11674881091491193713
23081809 10 18408316683648391427
23402539 116 18272928328484742037
23521765 1 18341895194640743589
33532 11 9799422113804271076
42788 4 18410855460128168292
4463277 17 18410855460128493089
57583515 80 15985104103190000481
8209 1 18202002126931220748

>  <PUBCHEM_SHAPE_MULTIPOLES>  (1) 
317.35
23.84
1.15
0.89
0
0.12
0
5.08
0
0
0
0
-0.29
-0.1

>  <PUBCHEM_SHAPE_SELFOVERLAP>  (1) 
569.389

>  <PUBCHEM_SHAPE_VOLUME>  (1) 
204.6

>  <PUBCHEM_COORDINATE_TYPE>  (1) 
2
5
10

$$$$
