31902
     RDKit          3D

 17 17  0  0  0  0  0  0  0  0999 V2000
   -1.9466    4.0299    0.3297 Cl  0  0  0  0  0  0  0  0  0  0  0  0
   -5.5127   -1.8357   -0.3829 Cl  0  0  0  0  0  0  0  0  0  0  0  0
    2.7759   -0.0046   -2.5012 Cl  0  0  0  0  0  0  0  0  0  0  0  0
    4.3497   -0.3014    0.0432 O   0  0  0  0  0  0  0  0  0  0  0  0
   -1.9531    0.0207   -0.0571 N   0  0  0  0  0  0  0  0  0  0  0  0
   -1.2145   -1.0205    0.6564 C   0  0  0  0  0  0  0  0  0  0  0  0
   -1.5962    1.3431    0.4555 C   0  0  0  0  0  0  0  0  0  0  0  0
   -3.3936   -0.2018    0.0617 C   0  0  0  0  0  0  0  0  0  0  0  0
    0.2667   -0.8280    0.4847 C   0  0  0  0  0  0  0  0  0  0  0  0
   -2.3894    2.4155   -0.2750 C   0  0  0  0  0  0  0  0  0  0  0  0
   -3.7579   -1.5649   -0.5061 C   0  0  0  0  0  0  0  0  0  0  0  0
    0.7795   -0.5405   -0.7736 C   0  0  0  0  0  0  0  0  0  0  0  0
    1.1040   -0.9396    1.5871 C   0  0  0  0  0  0  0  0  0  0  0  0
    2.1537   -0.3614   -0.9322 C   0  0  0  0  0  0  0  0  0  0  0  0
    2.4782   -0.7608    1.4283 C   0  0  0  0  0  0  0  0  0  0  0  0
    3.0030   -0.4717    0.1687 C   0  0  0  0  0  0  0  0  0  0  0  0
    4.8533    1.0217    0.2128 C   0  0  0  0  0  0  0  0  0  0  0  0
  1 10  1  0
  2 11  1  0
  3 14  1  0
  4 16  1  0
  4 17  1  0
  5  6  1  0
  5  7  1  0
  5  8  1  0
  6  9  1  0
  7 10  1  0
  8 11  1  0
  9 12  2  0
  9 13  1  0
 12 14  1  0
 13 15  2  0
 14 16  2  0
 15 16  1  0
M  END
>  <PUBCHEM_COMPOUND_CID>  (1) 
31902

>  <PUBCHEM_CONFORMER_RMSD>  (1) 
0.8

>  <PUBCHEM_CONFORMER_DIVERSEORDER>  (1) 
1
26
25
12
35
4
34
15
21
32
39
3
33
7
29
24
36
2
11
31
8
41
23
30
14
37
22
38
20
6
19
28
13
27
5
9
40
16
10
17
18

>  <PUBCHEM_MMFF94_PARTIAL_CHARGES>  (1) 
20
1 -0.29
10 0.29
11 0.29
12 -0.15
13 -0.15
14 0.18
15 -0.15
16 0.08
17 0.28
2 -0.29
28 0.15
29 0.15
3 -0.18
30 0.15
4 -0.36
5 -0.81
6 0.41
7 0.27
8 0.27
9 -0.14

>  <PUBCHEM_EFFECTIVE_ROTOR_COUNT>  (1) 
7

>  <PUBCHEM_PHARMACOPHORE_FEATURES>  (1) 
3
1 4 acceptor
1 5 cation
6 9 12 13 14 15 16 rings

>  <PUBCHEM_HEAVY_ATOM_COUNT>  (1) 
17

>  <PUBCHEM_ATOM_DEF_STEREO_COUNT>  (1) 
0

>  <PUBCHEM_ATOM_UDEF_STEREO_COUNT>  (1) 
0

>  <PUBCHEM_BOND_DEF_STEREO_COUNT>  (1) 
0

>  <PUBCHEM_BOND_UDEF_STEREO_COUNT>  (1) 
0

>  <PUBCHEM_ISOTOPIC_ATOM_COUNT>  (1) 
0

>  <PUBCHEM_COMPONENT_COUNT>  (1) 
1

>  <PUBCHEM_CACTVS_TAUTO_COUNT>  (1) 
1

>  <PUBCHEM_CONFORMER_ID>  (1) 
00007C9E00000001

>  <PUBCHEM_MMFF94_ENERGY>  (1) 
51.4613

>  <PUBCHEM_FEATURE_SELFOVERLAP>  (1) 
15.223

>  <PUBCHEM_SHAPE_FINGERPRINT>  (1) 
10498660 4 18339359665261893477
11640471 11 17897173411625224393
12236239 1 17968088742210558227
12788726 201 18334287644377842883
13583140 156 17558235814485679802
13965767 371 17391919149987807220
1813 80 18201163260501088247
18186145 218 17702678631198364206
192875 21 17822295716348669492
200 152 17822285808270820635
20344682 1 17846500378286670255
20510252 161 18412545375404202561
21524375 3 17685221569220612321
21618674 57 12613020695813345326
23352939 185 18130792325394524057
23402539 116 18410287025823601367
23419403 2 15737355867956177986
235170 7 17775293742008787148
23557571 272 18202567280350512561
23558518 356 18044943372579158155
23559900 14 17841991079797243630
3268164 11 18412822473809206157
6049 1 17560805372805896185
6442390 28 17482572793314296457
68521 5 18410569575022001841
7164475 11 18335697183582060495
7615 1 17895474709188721421
7808743 9 18268148647859262936
81228 2 18341058424154599857

>  <PUBCHEM_SHAPE_MULTIPOLES>  (1) 
344.61
9.13
2.79
1.47
1.72
4.48
0.61
-2.86
1.41
4.19
-0.3
-1.61
-0.33
-0.61

>  <PUBCHEM_SHAPE_SELFOVERLAP>  (1) 
665.531

>  <PUBCHEM_SHAPE_VOLUME>  (1) 
214.5

>  <PUBCHEM_COORDINATE_TYPE>  (1) 
2
5
10

$$$$
