31948
     RDKit          3D

 23 25  0  0  1  0  0  0  0  0999 V2000
   -4.1290   -1.0671    0.2360 N   0  0  0  0  0  0  0  0  0  0  0  0
    0.1163   -0.2885   -0.4875 C   0  0  0  0  0  0  0  0  0  0  0  0
   -1.2891   -0.9210   -0.4924 C   0  0  0  0  0  0  0  0  0  0  0  0
   -2.3465   -0.0335   -1.1659 C   0  0  0  0  0  0  0  0  0  0  0  0
    0.1894    1.0660    0.2106 C   0  0  0  0  0  0  0  0  0  0  0  0
    1.2133   -1.2077    0.0410 C   0  0  0  0  0  0  0  0  0  0  0  0
    1.0155    2.1016   -0.2828 C   0  0  0  0  0  0  0  0  0  0  0  0
    2.5066   -1.2094   -0.5296 C   0  0  0  0  0  0  0  0  0  0  0  0
   -3.7335   -0.7064   -1.1217 C   0  0  0  0  0  0  0  0  0  0  0  0
    1.8225    1.9803   -1.5566 C   0  0  0  0  0  0  0  0  0  0  0  0
    2.8819   -0.3708   -1.7316 C   0  0  0  0  0  0  0  0  0  0  0  0
    3.0864    1.1201   -1.4357 C   0  0  0  0  0  0  0  0  0  0  0  0
   -1.9902    0.2796   -2.6236 C   0  0  0  0  0  0  0  0  0  0  0  0
   -0.5093    1.2803    1.4157 C   0  0  0  0  0  0  0  0  0  0  0  0
    0.9759   -2.0177    1.1696 C   0  0  0  0  0  0  0  0  0  0  0  0
    1.1005    3.3127    0.4326 C   0  0  0  0  0  0  0  0  0  0  0  0
    3.5051   -2.0287    0.0336 C   0  0  0  0  0  0  0  0  0  0  0  0
   -0.4163    2.4889    2.1059 C   0  0  0  0  0  0  0  0  0  0  0  0
    1.9766   -2.8260    1.7091 C   0  0  0  0  0  0  0  0  0  0  0  0
    0.3884    3.5064    1.6138 C   0  0  0  0  0  0  0  0  0  0  0  0
    3.2420   -2.8326    1.1401 C   0  0  0  0  0  0  0  0  0  0  0  0
   -5.4247   -1.7475    0.2303 C   0  0  0  0  0  0  0  0  0  0  0  0
   -4.1820    0.1208    1.0891 C   0  0  0  0  0  0  0  0  0  0  0  0
  1  9  1  0
  1 22  1  0
  1 23  1  0
  2  3  1  0
  2  5  1  0
  2  6  1  0
  3  4  1  0
  4  9  1  0
  4 13  1  0
  5  7  2  0
  5 14  1  0
  6  8  2  0
  6 15  1  0
  7 10  1  0
  7 16  1  0
  8 11  1  0
  8 17  1  0
 10 12  1  0
 11 12  1  0
 14 18  2  0
 15 19  2  0
 16 20  2  0
 17 21  2  0
 18 20  1  0
 19 21  1  0
M  END
>  <PUBCHEM_COMPOUND_CID>  (1) 
31948

>  <PUBCHEM_CONFORMER_RMSD>  (1) 
0.8

>  <PUBCHEM_CONFORMER_DIVERSEORDER>  (1) 
1
20
15
14
22
21
9
19
12
16
18
13
3
6
4
17
10
2
7
5
11
8

>  <PUBCHEM_MMFF94_PARTIAL_CHARGES>  (1) 
27
1 -0.81
10 0.14
11 0.14
14 -0.15
15 -0.15
16 -0.15
17 -0.15
18 -0.15
19 -0.15
2 0.29
20 -0.15
21 -0.15
22 0.27
23 0.27
39 0.15
40 0.15
41 0.15
42 0.15
43 0.15
44 0.15
45 0.15
46 0.15
5 -0.14
6 -0.14
7 -0.14
8 -0.14
9 0.27

>  <PUBCHEM_EFFECTIVE_ROTOR_COUNT>  (1) 
4.8

>  <PUBCHEM_PHARMACOPHORE_FEATURES>  (1) 
4
1 1 cation
1 13 hydrophobe
6 5 7 14 16 18 20 rings
6 6 8 15 17 19 21 rings

>  <PUBCHEM_HEAVY_ATOM_COUNT>  (1) 
23

>  <PUBCHEM_ATOM_DEF_STEREO_COUNT>  (1) 
0

>  <PUBCHEM_ATOM_UDEF_STEREO_COUNT>  (1) 
1

>  <PUBCHEM_BOND_DEF_STEREO_COUNT>  (1) 
0

>  <PUBCHEM_BOND_UDEF_STEREO_COUNT>  (1) 
0

>  <PUBCHEM_ISOTOPIC_ATOM_COUNT>  (1) 
0

>  <PUBCHEM_COMPONENT_COUNT>  (1) 
1

>  <PUBCHEM_CACTVS_TAUTO_COUNT>  (1) 
1

>  <PUBCHEM_CONFORMER_ID>  (1) 
00007CCC00000001

>  <PUBCHEM_MMFF94_ENERGY>  (1) 
72.9502

>  <PUBCHEM_FEATURE_SELFOVERLAP>  (1) 
20.297

>  <PUBCHEM_SHAPE_FINGERPRINT>  (1) 
10165383 225 17972327475430979093
10906281 52 17626123188685114840
11578080 2 18195223569264654952
12160290 23 17411612493914769173
12553582 1 18059853952515381807
12778500 126 18266481887869669081
12788726 201 18127710256646402088
13009979 54 18195529182168136962
13134695 92 18126536034094109093
13140716 1 17836634593431085617
133893 2 17768208587773780501
13533116 47 18336546136115000515
14787075 74 18339935904091925016
14955137 171 18273217520969661582
15238133 3 18197777692395433061
16945 1 18337664329963790876
1813 80 17917424307069398623
19078846 21 18201442450291323345
20567600 347 17264383918405398414
20600515 1 17393280418343982640
21041028 32 18271804592830187081
21421861 104 18272088326701408528
22112679 90 18128827351912485960
23419403 2 17115720845764283860
23559900 14 17677315174673969215
23598288 3 18127972997086498733
5845 1 11535763080251874061
5895379 119 16772419278077849513
6442390 28 17543632388728862851
6786 2 17617374429995510440
7471813 234 18410854317883509322
81228 2 17621300356421114750
9981440 41 16047299377699711920

>  <PUBCHEM_SHAPE_MULTIPOLES>  (1) 
468.35
6.95
3.89
2.11
9.15
1.97
0.33
-5.97
0.77
-2.82
-2.49
-0.06
0.65
-1.33

>  <PUBCHEM_SHAPE_SELFOVERLAP>  (1) 
983.953

>  <PUBCHEM_SHAPE_VOLUME>  (1) 
260.8

>  <PUBCHEM_COORDINATE_TYPE>  (1) 
2
5
10

$$$$
