31957
     RDKit          3D

 21 21  0  0  0  0  0  0  0  0999 V2000
    1.8746    1.0433    2.5303 S   0  0  0  0  0  0  0  0  0  0  0  0
    2.2402    0.4483    0.7093 P   0  0  0  0  0  0  0  0  0  0  0  0
    1.4931   -0.9025    0.2136 O   0  0  0  0  0  0  0  0  0  0  0  0
    3.7902    0.1408    0.3216 O   0  0  0  0  0  0  0  0  0  0  0  0
    1.8258    1.4867   -0.4748 O   0  0  0  0  0  0  0  0  0  0  0  0
   -2.8102    0.8985    0.2880 N   0  0  0  0  0  0  0  0  0  0  0  0
   -0.6404    0.0061    0.2550 N   0  0  0  0  0  0  0  0  0  0  0  0
   -2.5411   -1.3385   -0.3670 N   0  0  0  0  0  0  0  0  0  0  0  0
   -4.2396    0.7703    0.0906 C   0  0  0  0  0  0  0  0  0  0  0  0
   -2.2695    2.1608    0.7491 C   0  0  0  0  0  0  0  0  0  0  0  0
   -1.9550   -0.1987    0.0468 C   0  0  0  0  0  0  0  0  0  0  0  0
   -4.9020    0.2884    1.3669 C   0  0  0  0  0  0  0  0  0  0  0  0
   -1.8916    3.0306   -0.4344 C   0  0  0  0  0  0  0  0  0  0  0  0
    0.1482   -1.0627    0.0154 C   0  0  0  0  0  0  0  0  0  0  0  0
   -1.6951   -2.3662   -0.5876 C   0  0  0  0  0  0  0  0  0  0  0  0
   -0.3290   -2.2858   -0.4114 C   0  0  0  0  0  0  0  0  0  0  0  0
   -2.3029   -3.6490   -1.0464 C   0  0  0  0  0  0  0  0  0  0  0  0
    4.4495   -0.9781    0.8897 C   0  0  0  0  0  0  0  0  0  0  0  0
    2.1959    1.2121   -1.8156 C   0  0  0  0  0  0  0  0  0  0  0  0
    5.8689   -1.0322    0.3660 C   0  0  0  0  0  0  0  0  0  0  0  0
    1.6902    2.3278   -2.7051 C   0  0  0  0  0  0  0  0  0  0  0  0
  1  2  2  0
  2  3  1  0
  2  4  1  0
  2  5  1  0
  3 14  1  0
  4 18  1  0
  5 19  1  0
  6  9  1  0
  6 10  1  0
  6 11  1  0
  7 11  2  0
  7 14  1  0
  8 11  1  0
  8 15  2  0
  9 12  1  0
 10 13  1  0
 14 16  2  0
 15 16  1  0
 15 17  1  0
 18 20  1  0
 19 21  1  0
M  END
>  <PUBCHEM_COMPOUND_CID>  (1) 
31957

>  <PUBCHEM_CONFORMER_RMSD>  (1) 
0.8

>  <PUBCHEM_CONFORMER_DIVERSEORDER>  (1) 
1
46
16
251
253
208
240
212
57
218
68
26
24
52
180
145
61
242
107
113
237
227
4
120
97
241
144
78
250
152
146
182
110
204
85
35
82
131
69
70
95
3
59
43
170
239
15
18
122
148
235
96
159
164
196
17
104
168
202
87
21
75
124
175
28
160
167
158
232
63
111
88
123
178
127
39
192
105
143
139
64
10
11
203
114
30
119
198
142
80
245
60
72
166
55
6
50
128
255
176
74
187
125
7
38
58
150
149
129
99
206
225
84
89
90
236
56
256
199
116
231
215
141
184
108
92
121
42
23
53
91
130
22
83
238
189
135
219
229
62
169
228
31
213
171
177
163
155
223
2
209
162
33
103
27
254
118
205
37
151
154
47
19
14
183
73
221
214
194
201
207
211
243
222
226
102
100
136
76
81
51
32
45
115
66
224
179
197
77
36
34
94
186
20
101
29
156
153
200
132
65
165
174
5
190
216
79
193
195
98
210
41
244
126
247
44
48
112
93
188
172
246
133
13
40
25
147
230
8
134
157
54
233
138
185
234
117
49
12
106
109
173
9
217
140
137
181
161
220
248
86
249
252
67
191
71

>  <PUBCHEM_MMFF94_PARTIAL_CHARGES>  (1) 
18
1 -0.68
10 0.37
11 0.72
14 0.39
15 0.17
16 -0.15
17 0.14
18 0.28
19 0.28
2 1.49
3 -0.35
32 0.15
4 -0.55
5 -0.55
6 -0.84
7 -0.62
8 -0.62
9 0.37

>  <PUBCHEM_EFFECTIVE_ROTOR_COUNT>  (1) 
9

>  <PUBCHEM_PHARMACOPHORE_FEATURES>  (1) 
2
4 6 7 8 11 cation
6 7 8 11 14 15 16 rings

>  <PUBCHEM_HEAVY_ATOM_COUNT>  (1) 
21

>  <PUBCHEM_ATOM_DEF_STEREO_COUNT>  (1) 
0

>  <PUBCHEM_ATOM_UDEF_STEREO_COUNT>  (1) 
0

>  <PUBCHEM_BOND_DEF_STEREO_COUNT>  (1) 
0

>  <PUBCHEM_BOND_UDEF_STEREO_COUNT>  (1) 
0

>  <PUBCHEM_ISOTOPIC_ATOM_COUNT>  (1) 
0

>  <PUBCHEM_COMPONENT_COUNT>  (1) 
1

>  <PUBCHEM_CACTVS_TAUTO_COUNT>  (1) 
1

>  <PUBCHEM_CONFORMER_ID>  (1) 
00007CD500000001

>  <PUBCHEM_MMFF94_ENERGY>  (1) 
34.9997

>  <PUBCHEM_FEATURE_SELFOVERLAP>  (1) 
10.148

>  <PUBCHEM_SHAPE_FINGERPRINT>  (1) 
10906281 52 16558481858763836000
12403259 226 17915445306493620114
12553582 1 17458328737877798786
12633257 1 17917992784619349984
13009979 54 18335422425981569598
13140716 1 18340770458981372363
13583140 156 17130971209765086922
14115302 16 18342745125951070760
14955137 171 18041008314878242280
15042514 8 18340768238710555659
15295992 7 17560793376972892691
17804303 29 18272364291683237178
1813 80 17677055634105788366
20645477 56 18272930496879068402
21033648 29 18198041617381671800
21524375 3 18341896247340566339
22112679 90 18263643042586873965
23402539 116 18201990028509274231
23557571 272 17844535619537127677
23558518 356 18043535134175219178
23559900 14 17989481940621531338
23598288 3 18265339580513074399
23598291 2 18187926231234538982
2748010 2 17905607705582268071
312423 11 18043535120952583486
350125 39 18270116795389846361
44154327 71 18336562585348821997
5104073 3 18271796982449099290
6992083 37 18260825977943138732
7164475 11 18194957676212529358
7615 1 18118119401300633903
81228 2 18053927731171315275
9981440 41 17177727026835140508

>  <PUBCHEM_SHAPE_MULTIPOLES>  (1) 
407.32
8.7
3.35
1.83
5.22
1.3
0.37
0.9
-2.86
-2.53
1.65
1.31
-1.37
-1.53

>  <PUBCHEM_SHAPE_SELFOVERLAP>  (1) 
777.127

>  <PUBCHEM_SHAPE_VOLUME>  (1) 
254

>  <PUBCHEM_COORDINATE_TYPE>  (1) 
2
5
10

$$$$
