31981
     RDKit          3D

 17 17  0  0  0  0  0  0  0  0999 V2000
   -5.2535   -0.9972   -0.0061 F   0  0  0  0  0  0  0  0  0  0  0  0
   -2.7993   -1.9673    0.0031 O   0  0  0  0  0  0  0  0  0  0  0  0
    0.8595    3.2713    0.0010 O   0  0  0  0  0  0  0  0  0  0  0  0
   -1.2344    2.5977   -0.0001 O   0  0  0  0  0  0  0  0  0  0  0  0
    4.0295   -2.0439    0.0001 O   0  0  0  0  0  0  0  0  0  0  0  0
    4.4509    0.1149   -0.0017 O   0  0  0  0  0  0  0  0  0  0  0  0
   -1.8615    0.1944    0.0004 N   0  0  0  0  0  0  0  0  0  0  0  0
   -0.0037    2.3638    0.0004 N   0  0  0  0  0  0  0  0  0  0  0  0
    3.6482   -0.8491   -0.0003 N   0  0  0  0  0  0  0  0  0  0  0  0
   -0.4834   -0.0437    0.0000 C   0  0  0  0  0  0  0  0  0  0  0  0
    0.4320    1.0088   -0.0005 C   0  0  0  0  0  0  0  0  0  0  0  0
   -0.0298   -1.3628    0.0005 C   0  0  0  0  0  0  0  0  0  0  0  0
    1.8013    0.7422   -0.0007 C   0  0  0  0  0  0  0  0  0  0  0  0
    2.2549   -0.5769   -0.0003 C   0  0  0  0  0  0  0  0  0  0  0  0
    1.3393   -1.6293    0.0003 C   0  0  0  0  0  0  0  0  0  0  0  0
   -2.8987   -0.7449    0.0020 C   0  0  0  0  0  0  0  0  0  0  0  0
   -4.2512   -0.0779    0.0019 C   0  0  0  0  0  0  0  0  0  0  0  0
  1 17  1  0
  2 16  2  0
  3  8  1  0
  4  8  2  0
  5  9  1  0
  6  9  2  0
  7 10  1  0
  7 16  1  0
  8 11  1  0
  9 14  1  0
 10 11  2  0
 10 12  1  0
 11 13  1  0
 12 15  2  0
 13 14  2  0
 14 15  1  0
 16 17  1  0
M  CHG  4   3  -1   5  -1   8   1   9   1
M  END
>  <PUBCHEM_COMPOUND_CID>  (1) 
31981

>  <PUBCHEM_CONFORMER_RMSD>  (1) 
0.6

>  <PUBCHEM_CONFORMER_DIVERSEORDER>  (1) 
1
2
3

>  <PUBCHEM_MMFF94_PARTIAL_CHARGES>  (1) 
21
1 -0.34
10 0.12
11 0.13
12 -0.15
13 -0.15
14 0.13
15 -0.15
16 0.57
17 0.4
18 0.15
19 0.15
2 -0.57
20 0.15
21 0.37
3 -0.52
4 -0.52
5 -0.52
6 -0.52
7 -0.55
8 0.91
9 0.91

>  <PUBCHEM_EFFECTIVE_ROTOR_COUNT>  (1) 
5

>  <PUBCHEM_PHARMACOPHORE_FEATURES>  (1) 
9
1 2 acceptor
1 3 acceptor
1 3 anion
1 4 acceptor
1 5 acceptor
1 5 anion
1 6 acceptor
1 7 donor
6 10 11 12 13 14 15 rings

>  <PUBCHEM_HEAVY_ATOM_COUNT>  (1) 
17

>  <PUBCHEM_ATOM_DEF_STEREO_COUNT>  (1) 
0

>  <PUBCHEM_ATOM_UDEF_STEREO_COUNT>  (1) 
0

>  <PUBCHEM_BOND_DEF_STEREO_COUNT>  (1) 
0

>  <PUBCHEM_BOND_UDEF_STEREO_COUNT>  (1) 
0

>  <PUBCHEM_ISOTOPIC_ATOM_COUNT>  (1) 
0

>  <PUBCHEM_COMPONENT_COUNT>  (1) 
1

>  <PUBCHEM_CACTVS_TAUTO_COUNT>  (1) 
2

>  <PUBCHEM_CONFORMER_ID>  (1) 
00007CED00000001

>  <PUBCHEM_MMFF94_ENERGY>  (1) 
57.8069

>  <PUBCHEM_FEATURE_SELFOVERLAP>  (1) 
45.833

>  <PUBCHEM_SHAPE_FINGERPRINT>  (1) 
10967382 1 18410856606926653826
11471102 20 18410007784324570263
11680986 33 18121221149361701210
11806522 49 18410574006758331847
12032990 46 18410576167132305886
13862211 1 18410569578547303586
14115302 16 17749401381140697663
14252887 29 18202292385169137126
15042514 8 18122343467571793346
15196674 1 18410573942212334181
15442244 35 18412830209351371457
15848700 24 18341324552464140343
16945 1 17762056536875106412
20510252 161 18270115704615696832
20645477 70 18191860331157240471
20671657 1 18196376042333916357
20871998 184 18129940053469120364
20871998 22 18272098140685653998
21029758 11 18411134740614168953
21267235 1 18410865347227773415
21296965 67 18411417297706308360
21501502 16 18048316644066798498
221490 88 18119534494715645699
23402539 116 18342449309973323655
23419403 2 18116970326040808956
23557571 272 18201165334753839196
2748010 2 18339906152674266988
3071541 12 18122627416170533277
3071541 158 18261109716051428205
3091708 16 9210952512127928144
537710 114 18335146427140980572
54173680 148 18050567339947034618
68521 5 18337393733975820876
7364860 26 18196653114615811665
81228 2 18194138321021964504
8809292 202 18187650240715060275

>  <PUBCHEM_SHAPE_MULTIPOLES>  (1) 
298.29
7.5
2.68
0.56
3.3
2.22
0
-4.24
0.01
-0.48
0
0.01
-0.02
0

>  <PUBCHEM_SHAPE_SELFOVERLAP>  (1) 
629.016

>  <PUBCHEM_SHAPE_VOLUME>  (1) 
167

>  <PUBCHEM_COORDINATE_TYPE>  (1) 
2
5
10

$$$$
