31987
     RDKit          3D

 17 17  0  0  1  0  0  0  0  0999 V2000
    6.8293    0.1312    0.4265 Cl  0  0  0  0  0  0  0  0  0  0  0  0
    0.4025    0.3348   -1.4805 O   0  0  0  0  0  0  0  0  0  0  0  0
    2.8591    0.0786   -0.2508 N   0  0  0  0  0  0  0  0  0  0  0  0
   -0.6166    0.2989    0.6343 N   0  0  0  0  0  0  0  0  0  0  0  0
    1.7432    0.6530    0.4999 C   0  0  0  0  0  0  0  0  0  0  0  0
   -1.9795    0.0734    0.3267 C   0  0  0  0  0  0  0  0  0  0  0  0
    4.1255    0.3483    0.4294 C   0  0  0  0  0  0  0  0  0  0  0  0
   -2.8183    1.1571    0.1138 C   0  0  0  0  0  0  0  0  0  0  0  0
   -2.4530   -1.2275    0.2437 C   0  0  0  0  0  0  0  0  0  0  0  0
    0.4484    0.4134   -0.2571 C   0  0  0  0  0  0  0  0  0  0  0  0
    2.6698   -1.3608   -0.4265 C   0  0  0  0  0  0  0  0  0  0  0  0
    5.2850   -0.1758   -0.4036 C   0  0  0  0  0  0  0  0  0  0  0  0
   -4.1615    0.9349   -0.1894 C   0  0  0  0  0  0  0  0  0  0  0  0
   -3.7963   -1.4497   -0.0595 C   0  0  0  0  0  0  0  0  0  0  0  0
   -2.3244    2.5651    0.1995 C   0  0  0  0  0  0  0  0  0  0  0  0
   -1.5627   -2.4063    0.4697 C   0  0  0  0  0  0  0  0  0  0  0  0
   -4.6506   -0.3686   -0.2761 C   0  0  0  0  0  0  0  0  0  0  0  0
  1 12  1  0
  2 10  2  0
  3  5  1  0
  3  7  1  0
  3 11  1  0
  4  6  1  0
  4 10  1  0
  5 10  1  0
  6  8  2  0
  6  9  1  0
  7 12  1  0
  8 13  1  0
  8 15  1  0
  9 14  2  0
  9 16  1  0
 13 17  2  0
 14 17  1  0
M  END
>  <PUBCHEM_COMPOUND_CID>  (1) 
31987

>  <PUBCHEM_CONFORMER_RMSD>  (1) 
0.8

>  <PUBCHEM_CONFORMER_DIVERSEORDER>  (1) 
3
13
12
14
8
11
10
2
16
9
15
5
6
1
7
4

>  <PUBCHEM_MMFF94_PARTIAL_CHARGES>  (1) 
21
1 -0.29
10 0.57
11 0.27
12 0.29
13 -0.15
14 -0.15
15 0.14
16 0.14
17 -0.15
2 -0.57
22 0.37
28 0.15
29 0.15
3 -0.81
36 0.15
4 -0.55
5 0.33
6 0.12
7 0.27
8 -0.14
9 -0.14

>  <PUBCHEM_EFFECTIVE_ROTOR_COUNT>  (1) 
6

>  <PUBCHEM_PHARMACOPHORE_FEATURES>  (1) 
4
1 2 acceptor
1 3 cation
1 4 donor
6 6 8 9 13 14 17 rings

>  <PUBCHEM_HEAVY_ATOM_COUNT>  (1) 
17

>  <PUBCHEM_ATOM_DEF_STEREO_COUNT>  (1) 
0

>  <PUBCHEM_ATOM_UDEF_STEREO_COUNT>  (1) 
0

>  <PUBCHEM_BOND_DEF_STEREO_COUNT>  (1) 
0

>  <PUBCHEM_BOND_UDEF_STEREO_COUNT>  (1) 
0

>  <PUBCHEM_ISOTOPIC_ATOM_COUNT>  (1) 
0

>  <PUBCHEM_COMPONENT_COUNT>  (1) 
1

>  <PUBCHEM_CACTVS_TAUTO_COUNT>  (1) 
2

>  <PUBCHEM_CONFORMER_ID>  (1) 
00007CF300000003

>  <PUBCHEM_MMFF94_ENERGY>  (1) 
65.1775

>  <PUBCHEM_FEATURE_SELFOVERLAP>  (1) 
20.297

>  <PUBCHEM_SHAPE_FINGERPRINT>  (1) 
10 15 18059843009945968568
10366900 7 18060133245680107554
11045977 3 18271803575471259208
11315181 36 18187085078916518416
12107183 9 17687460162025297424
12236239 1 17530965782510967696
12500047 106 18410853252573078394
13288520 33 18410856576830208269
14573314 32 18342182133316963150
15042514 8 18264212594401596587
15196674 1 18410856512575082050
15375358 24 18342741814600117110
17834072 33 18334580174447496284
17870717 6 18271259251978896734
19489759 90 18412824677196052448
200 152 17060337422490720907
20279233 1 18272378572254304366
20510252 161 18342740672349774313
20645477 56 18409450250251484913
20645477 70 16988008185352646774
21033648 29 16916488286554582072
21267235 1 18335708281925252987
2297311 6 18342184374794233468
23402539 116 18413101767296055661
23557571 272 18201444649051373884
23559900 14 18341604958126253120
300161 21 18186794773581765466
34797466 226 18130241449021504492
3545911 37 18411700971764270904
4214541 1 18410575072047507752
5104073 3 18341055099185547794
542803 24 17385445423386642172
559249 180 18261106349071355114
573450 72 18261383417268883736
6327066 14 17680135293029688733
67856867 119 18189338038508985260
9709674 26 18341620312476255983

>  <PUBCHEM_SHAPE_MULTIPOLES>  (1) 
335.89
12.36
1.9
0.82
19.62
0.07
0.11
0
-0.31
-2.29
-0.21
0.19
0
0.26

>  <PUBCHEM_SHAPE_SELFOVERLAP>  (1) 
669.271

>  <PUBCHEM_SHAPE_VOLUME>  (1) 
201.7

>  <PUBCHEM_COORDINATE_TYPE>  (1) 
2
5
10

$$$$
