31996
     RDKit          3D

 19 21  0  0  0  0  0  0  0  0999 V2000
    0.8479    0.0644   -0.6486 N   0  0  0  0  0  0  0  0  0  0  0  0
    1.2290    0.6183    1.6553 N   0  0  0  0  0  0  0  0  0  0  0  0
    5.7747   -0.4410   -0.2361 N   0  0  0  0  0  0  0  0  0  0  0  0
   -2.7424   -0.6022   -0.0012 C   0  0  0  0  0  0  0  0  0  0  0  0
   -3.2944    0.6788   -0.2402 C   0  0  0  0  0  0  0  0  0  0  0  0
   -1.3578   -0.7906   -0.1416 C   0  0  0  0  0  0  0  0  0  0  0  0
   -0.5291    0.2686   -0.5128 C   0  0  0  0  0  0  0  0  0  0  0  0
   -2.4454    1.7337   -0.6129 C   0  0  0  0  0  0  0  0  0  0  0  0
   -1.0720    1.5282   -0.7480 C   0  0  0  0  0  0  0  0  0  0  0  0
   -3.5913   -1.6570    0.3718 C   0  0  0  0  0  0  0  0  0  0  0  0
   -4.6790    0.8672   -0.0999 C   0  0  0  0  0  0  0  0  0  0  0  0
   -4.9647   -1.4520    0.5064 C   0  0  0  0  0  0  0  0  0  0  0  0
   -5.5075   -0.1924    0.2709 C   0  0  0  0  0  0  0  0  0  0  0  0
    1.6273    0.2399    0.3881 C   0  0  0  0  0  0  0  0  0  0  0  0
    3.0912   -0.0004    0.1677 C   0  0  0  0  0  0  0  0  0  0  0  0
    3.4667   -0.9205   -0.7724 C   0  0  0  0  0  0  0  0  0  0  0  0
    3.9886    0.7108    0.9162 C   0  0  0  0  0  0  0  0  0  0  0  0
    4.8298   -1.1059   -0.9380 C   0  0  0  0  0  0  0  0  0  0  0  0
    5.3283    0.4522    0.6752 C   0  0  0  0  0  0  0  0  0  0  0  0
  1  7  1  0
  1 14  2  0
  2 14  1  0
  3 18  2  0
  3 19  1  0
  4  5  1  0
  4  6  2  0
  4 10  1  0
  5  8  2  0
  5 11  1  0
  6  7  1  0
  7  9  2  0
  8  9  1  0
 10 12  2  0
 11 13  2  0
 12 13  1  0
 14 15  1  0
 15 16  2  0
 15 17  1  0
 16 18  1  0
 17 19  2  0
M  END
>  <PUBCHEM_COMPOUND_CID>  (1) 
31996

>  <PUBCHEM_CONFORMER_RMSD>  (1) 
0.6

>  <PUBCHEM_CONFORMER_DIVERSEORDER>  (1) 
1
2

>  <PUBCHEM_MMFF94_PARTIAL_CHARGES>  (1) 
30
1 -0.63
10 -0.15
11 -0.15
12 -0.15
13 -0.15
14 0.41
15 0.09
16 -0.15
17 -0.15
18 0.16
19 0.16
2 -0.85
20 0.15
21 0.15
22 0.15
23 0.15
24 0.15
25 0.15
26 0.15
27 0.15
28 0.15
29 0.4
3 -0.62
30 0.4
31 0.15
32 0.15
6 -0.15
7 0.18
8 -0.15
9 -0.15

>  <PUBCHEM_EFFECTIVE_ROTOR_COUNT>  (1) 
2

>  <PUBCHEM_PHARMACOPHORE_FEATURES>  (1) 
6
1 2 donor
1 3 acceptor
3 1 2 14 cation
6 3 15 16 17 18 19 rings
6 4 5 10 11 12 13 rings
6 4 5 6 7 8 9 rings

>  <PUBCHEM_HEAVY_ATOM_COUNT>  (1) 
19

>  <PUBCHEM_ATOM_DEF_STEREO_COUNT>  (1) 
0

>  <PUBCHEM_ATOM_UDEF_STEREO_COUNT>  (1) 
0

>  <PUBCHEM_BOND_DEF_STEREO_COUNT>  (1) 
0

>  <PUBCHEM_BOND_UDEF_STEREO_COUNT>  (1) 
0

>  <PUBCHEM_ISOTOPIC_ATOM_COUNT>  (1) 
0

>  <PUBCHEM_COMPONENT_COUNT>  (1) 
1

>  <PUBCHEM_CACTVS_TAUTO_COUNT>  (1) 
2

>  <PUBCHEM_CONFORMER_ID>  (1) 
00007CFC00000001

>  <PUBCHEM_MMFF94_ENERGY>  (1) 
65.8154

>  <PUBCHEM_FEATURE_SELFOVERLAP>  (1) 
30.472

>  <PUBCHEM_SHAPE_FINGERPRINT>  (1) 
10 15 18270668871061022456
11045977 3 18343016714140120809
11128504 68 16950290619713728734
11287383 113 18410011052963591440
11315181 36 18113057146840235429
11552529 35 16772661312037941775
12107183 9 17393590394644782304
12236239 1 16877661249248061868
12616971 3 16660370272335487229
128620 24 16225764108048688682
12916748 109 18259985963965648536
13288520 33 18260831510130047695
13533116 47 15195292984861734686
13668630 136 14779547868321910432
13675066 3 18273212019036849316
13760787 5 16415473853122064600
1420 363 18410577288034166286
14341114 176 18201723967711506312
14386348 63 18272653441449929550
14573314 32 18342177739085325694
15042514 8 18264212585896051267
15961568 22 17896037805910510396
17138139 8 16082774961671905675
17349148 13 15936124153901046312
17804303 29 18409731781283991613
17834072 33 17531249473801534148
17844677 252 18413395332278981536
1813 80 17458065966839993358
18785283 64 18056467585851998816
19141452 34 18130506430970376943
20567600 347 17822009775091898130
20645477 70 17560803178668608150
20681677 155 18040152903427016265
21033648 29 17774424019399599809
21033650 10 17460614515198874796
21065201 7 18261387798409838224
21267235 1 18114752620294391915
21623969 137 17704076187860792086
21682296 61 17559969722705376102
22122407 14 16271939250246293803
2297311 6 18409175393492044117
23035841 295 17967250888332047347
23175994 123 17703791418216884385
23402539 116 17967810552635454631
23557571 272 18337957796558023628
23559900 14 18409442618115659849
239999 70 18342178865263802862
26918003 58 17847063289464001515
2838139 119 15841272524727058441
314173 85 18334296478814301461
335352 9 18260548931826822781
345986 75 15625385585244955822
34797466 226 18340502135590258812
351380 3 17385722512859001851
4214541 1 18409730634005620613
4325135 7 18114185276494475092
5104073 3 18199745860947445978
542803 24 14261351366597787042
5924683 9 17774432927710651319
59755656 215 18336265656578971255
602551 16 18261391186954795578
67856867 119 17750524051385193164
7495541 125 18413107290518606976

>  <PUBCHEM_SHAPE_MULTIPOLES>  (1) 
376.07
13.52
1.47
0.99
5.97
0.02
0.14
-2.9
0.95
-1.33
-0.14
0.71
0.07
1.25

>  <PUBCHEM_SHAPE_SELFOVERLAP>  (1) 
834.385

>  <PUBCHEM_SHAPE_VOLUME>  (1) 
198

>  <PUBCHEM_COORDINATE_TYPE>  (1) 
2
5
10

$$$$
