32
     RDKit          3D

 13 12  0  0  0  0  0  0  0  0999 V2000
   -3.7359    0.1771    0.0374 O   0  0  0  0  0  0  0  0  0  0  0  0
   -1.4744   -1.7944   -1.2152 O   0  0  0  0  0  0  0  0  0  0  0  0
   -2.7054    2.2126    0.0045 O   0  0  0  0  0  0  0  0  0  0  0  0
   -1.4356   -2.0093    1.0481 O   0  0  0  0  0  0  0  0  0  0  0  0
    4.5365    0.9644   -0.0198 O   0  0  0  0  0  0  0  0  0  0  0  0
    3.6713   -1.1460    0.0330 O   0  0  0  0  0  0  0  0  0  0  0  0
   -1.4179    0.1799    0.0270 C   0  0  0  0  0  0  0  0  0  0  0  0
   -0.2051    0.7646    0.0090 C   0  0  0  0  0  0  0  0  0  0  0  0
    1.0898    0.1089    0.0098 C   0  0  0  0  0  0  0  0  0  0  0  0
   -2.6568    0.9936    0.0233 C   0  0  0  0  0  0  0  0  0  0  0  0
   -1.4353   -1.3086    0.0482 C   0  0  0  0  0  0  0  0  0  0  0  0
    2.2426    0.7928   -0.0094 C   0  0  0  0  0  0  0  0  0  0  0  0
    3.5261    0.0643    0.0042 C   0  0  0  0  0  0  0  0  0  0  0  0
  1 10  1  0
  2 11  1  0
  3 10  2  0
  4 11  2  0
  5 13  1  0
  6 13  2  0
  7  8  2  0
  7 10  1  0
  7 11  1  0
  8  9  1  0
  9 12  2  0
 12 13  1  0
M  END
>  <PUBCHEM_COMPOUND_CID>  (1) 
32

>  <PUBCHEM_CONFORMER_RMSD>  (1) 
0.6

>  <PUBCHEM_CONFORMER_DIVERSEORDER>  (1) 
1
10
9
5
4
6
8
11
3
7
2

>  <PUBCHEM_MMFF94_PARTIAL_CHARGES>  (1) 
19
1 -0.65
10 0.71
11 0.71
12 -0.14
13 0.71
14 0.15
15 0.15
16 0.15
17 0.5
18 0.5
19 0.5
2 -0.65
3 -0.57
4 -0.57
5 -0.65
6 -0.57
7 0.03
8 -0.15
9 -0.15

>  <PUBCHEM_EFFECTIVE_ROTOR_COUNT>  (1) 
4

>  <PUBCHEM_PHARMACOPHORE_FEATURES>  (1) 
10
1 1 acceptor
1 2 acceptor
1 3 acceptor
1 4 acceptor
1 5 acceptor
1 6 acceptor
1 7 anion
3 1 3 10 anion
3 2 4 11 anion
3 5 6 13 anion

>  <PUBCHEM_HEAVY_ATOM_COUNT>  (1) 
13

>  <PUBCHEM_ATOM_DEF_STEREO_COUNT>  (1) 
0

>  <PUBCHEM_ATOM_UDEF_STEREO_COUNT>  (1) 
0

>  <PUBCHEM_BOND_DEF_STEREO_COUNT>  (1) 
0

>  <PUBCHEM_BOND_UDEF_STEREO_COUNT>  (1) 
1

>  <PUBCHEM_ISOTOPIC_ATOM_COUNT>  (1) 
0

>  <PUBCHEM_COMPONENT_COUNT>  (1) 
1

>  <PUBCHEM_CACTVS_TAUTO_COUNT>  (1) 
1

>  <PUBCHEM_CONFORMER_ID>  (1) 
0000002000000001

>  <PUBCHEM_MMFF94_ENERGY>  (1) 
30.3186

>  <PUBCHEM_FEATURE_SELFOVERLAP>  (1) 
51.514

>  <PUBCHEM_SHAPE_FINGERPRINT>  (1) 
12500047 106 18342168969221166464
12932764 1 17988367099759674664
13380535 76 18411419479597375479
14144814 61 18335983086522360328
14325111 11 18410575041808656816
14577589 140 18343023306614090374
15669948 3 18341325673693275622
200 152 10881681351171176241
20279233 1 17704078399905657646
20524608 308 18273210911062049991
20645477 56 18409448098356863992
20645477 70 17417539016982330038
20871998 184 18270970149435699743
21524375 3 18339360739240996837
23402539 116 18343293769737876381
23559900 14 18272647914681445072
3248919 1 18042115613323884972
366044 4 18342455920402368895
58051976 100 18410295856281325084
69090 78 18272928323810044511
93112 12 18410575115181829532
9709674 26 18413112757875013262

>  <PUBCHEM_SHAPE_MULTIPOLES>  (1) 
232.32
6.98
1.83
0.73
6.42
0.35
0.04
-1.52
-0.03
-1.32
-0.03
-0.23
0.3
-0.03

>  <PUBCHEM_SHAPE_SELFOVERLAP>  (1) 
466.358

>  <PUBCHEM_SHAPE_VOLUME>  (1) 
135.6

>  <PUBCHEM_COORDINATE_TYPE>  (1) 
2
5
10

$$$$
