32004
     RDKit          3D

 16 17  0  0  0  0  0  0  0  0999 V2000
    5.8720   -0.1842    0.1276 Cl  0  0  0  0  0  0  0  0  0  0  0  0
    0.0198    0.4668   -0.3705 N   0  0  0  0  0  0  0  0  0  0  0  0
   -0.3832   -1.3912    1.0941 N   0  0  0  0  0  0  0  0  0  0  0  0
   -4.9447    0.2966   -0.2124 N   0  0  0  0  0  0  0  0  0  0  0  0
   -2.2458   -0.1221    0.1024 C   0  0  0  0  0  0  0  0  0  0  0  0
    1.4048    0.3127   -0.2527 C   0  0  0  0  0  0  0  0  0  0  0  0
   -0.7735   -0.3503    0.2743 C   0  0  0  0  0  0  0  0  0  0  0  0
    2.0934   -0.5110   -1.1432 C   0  0  0  0  0  0  0  0  0  0  0  0
    2.0978    0.9826    0.7556 C   0  0  0  0  0  0  0  0  0  0  0  0
   -2.6852    1.1524   -0.1308 C   0  0  0  0  0  0  0  0  0  0  0  0
   -3.0867   -1.1978    0.1863 C   0  0  0  0  0  0  0  0  0  0  0  0
    3.4747   -0.6648   -1.0255 C   0  0  0  0  0  0  0  0  0  0  0  0
    3.4791    0.8289    0.8735 C   0  0  0  0  0  0  0  0  0  0  0  0
    4.1676    0.0050   -0.0171 C   0  0  0  0  0  0  0  0  0  0  0  0
   -4.0533    1.3107   -0.2823 C   0  0  0  0  0  0  0  0  0  0  0  0
   -4.4368   -0.9343    0.0207 C   0  0  0  0  0  0  0  0  0  0  0  0
  1 14  1  0
  2  6  1  0
  2  7  2  0
  3  7  1  0
  4 15  2  0
  4 16  1  0
  5  7  1  0
  5 10  2  0
  5 11  1  0
  6  8  2  0
  6  9  1  0
  8 12  1  0
  9 13  2  0
 10 15  1  0
 11 16  2  0
 12 14  2  0
 13 14  1  0
M  END
>  <PUBCHEM_COMPOUND_CID>  (1) 
32004

>  <PUBCHEM_CONFORMER_RMSD>  (1) 
0.6

>  <PUBCHEM_CONFORMER_DIVERSEORDER>  (1) 
1

>  <PUBCHEM_MMFF94_PARTIAL_CHARGES>  (1) 
26
1 -0.18
10 -0.15
11 -0.15
12 -0.15
13 -0.15
14 0.18
15 0.16
16 0.16
17 0.15
18 0.15
19 0.15
2 -0.63
20 0.15
21 0.15
22 0.15
23 0.15
24 0.15
25 0.4
26 0.4
3 -0.85
4 -0.62
5 0.09
6 0.18
7 0.41
8 -0.15
9 -0.15

>  <PUBCHEM_EFFECTIVE_ROTOR_COUNT>  (1) 
2

>  <PUBCHEM_PHARMACOPHORE_FEATURES>  (1) 
5
1 3 donor
1 4 acceptor
3 2 3 7 cation
6 4 5 10 11 15 16 rings
6 6 8 9 12 13 14 rings

>  <PUBCHEM_HEAVY_ATOM_COUNT>  (1) 
16

>  <PUBCHEM_ATOM_DEF_STEREO_COUNT>  (1) 
0

>  <PUBCHEM_ATOM_UDEF_STEREO_COUNT>  (1) 
0

>  <PUBCHEM_BOND_DEF_STEREO_COUNT>  (1) 
0

>  <PUBCHEM_BOND_UDEF_STEREO_COUNT>  (1) 
0

>  <PUBCHEM_ISOTOPIC_ATOM_COUNT>  (1) 
0

>  <PUBCHEM_COMPONENT_COUNT>  (1) 
1

>  <PUBCHEM_CACTVS_TAUTO_COUNT>  (1) 
2

>  <PUBCHEM_CONFORMER_ID>  (1) 
00007D0400000001

>  <PUBCHEM_MMFF94_ENERGY>  (1) 
51.2919

>  <PUBCHEM_FEATURE_SELFOVERLAP>  (1) 
25.371

>  <PUBCHEM_SHAPE_FINGERPRINT>  (1) 
11287383 113 17988923400655393739
11401426 45 18335138691419466639
12236239 1 16660082204847759884
13760787 5 15791452633994268742
14123238 8 17846499239935415012
14573314 32 18412547574495971340
15048467 5 17895197736234705020
15242439 84 18343019982156344348
15375358 24 18272654549546288694
17834072 33 18334298712308123852
18186145 218 18272095976280378681
19026448 4 18202565085695940869
19489759 90 18408039606638895257
1986462 14 18408324384793577253
200 152 16630527314823095537
20279233 1 18272939322952316166
20645477 56 18411139104791617037
20645477 70 17489030361999404694
21065201 7 18334855013219498259
21267235 1 18261117409012919435
23402539 116 18408035221403452740
23402655 69 17703791396741898180
23557571 272 18341897376732361709
23559900 14 18412262848424267608
26918003 58 17632859736923033018
3268164 11 18260819406907004813
33824 294 17846221025556755454
351380 180 18342454850517798736
3545911 37 18410012118020359861
42 15 18410293614134335902
4214541 1 18412826880456330817
42788 4 18409448094256620748
474 4 15720817920247060668
4990 188 18412266120804290262
5104073 3 18342458174706338226
542803 24 17458347442032961756
573450 72 18040707061318612545
69090 78 18131348639581222591
7495541 125 16414908785786715651
9709674 26 18342745155931907159

>  <PUBCHEM_SHAPE_MULTIPOLES>  (1) 
316.2
11.46
1.24
0.93
2.28
0.05
-0.01
0.03
-0.32
-0.74
0.09
0.48
-0.11
0.83

>  <PUBCHEM_SHAPE_SELFOVERLAP>  (1) 
672.661

>  <PUBCHEM_SHAPE_VOLUME>  (1) 
176.3

>  <PUBCHEM_COORDINATE_TYPE>  (1) 
2
5
10

$$$$
