32005
     RDKit          3D

 16 17  0  0  0  0  0  0  0  0999 V2000
   -4.3915   -1.7280    0.8466 F   0  0  0  0  0  0  0  0  0  0  0  0
   -0.1228    0.4014    0.4457 N   0  0  0  0  0  0  0  0  0  0  0  0
    0.2999   -0.6981   -1.6452 N   0  0  0  0  0  0  0  0  0  0  0  0
    4.8324    0.0185    0.4300 N   0  0  0  0  0  0  0  0  0  0  0  0
    2.1441   -0.0702   -0.1392 C   0  0  0  0  0  0  0  0  0  0  0  0
   -1.5027    0.3927    0.2187 C   0  0  0  0  0  0  0  0  0  0  0  0
    0.6777   -0.1184   -0.4499 C   0  0  0  0  0  0  0  0  0  0  0  0
   -2.2740   -0.6850    0.6540 C   0  0  0  0  0  0  0  0  0  0  0  0
   -2.1078    1.4613   -0.4428 C   0  0  0  0  0  0  0  0  0  0  0  0
    2.6154    0.9627    0.6240 C   0  0  0  0  0  0  0  0  0  0  0  0
    2.9480   -1.0611   -0.6325 C   0  0  0  0  0  0  0  0  0  0  0  0
   -3.6504   -0.6939    0.4280 C   0  0  0  0  0  0  0  0  0  0  0  0
   -3.4841    1.4523   -0.6689 C   0  0  0  0  0  0  0  0  0  0  0  0
   -4.2554    0.3747   -0.2335 C   0  0  0  0  0  0  0  0  0  0  0  0
    3.9766    0.9621    0.8827 C   0  0  0  0  0  0  0  0  0  0  0  0
    4.2945   -0.9710   -0.3178 C   0  0  0  0  0  0  0  0  0  0  0  0
  1 12  1  0
  2  6  1  0
  2  7  2  0
  3  7  1  0
  4 15  2  0
  4 16  1  0
  5  7  1  0
  5 10  2  0
  5 11  1  0
  6  8  2  0
  6  9  1  0
  8 12  1  0
  9 13  2  0
 10 15  1  0
 11 16  2  0
 12 14  2  0
 13 14  1  0
M  END
>  <PUBCHEM_COMPOUND_CID>  (1) 
32005

>  <PUBCHEM_CONFORMER_RMSD>  (1) 
0.6

>  <PUBCHEM_CONFORMER_DIVERSEORDER>  (1) 
1
2

>  <PUBCHEM_MMFF94_PARTIAL_CHARGES>  (1) 
26
1 -0.19
10 -0.15
11 -0.15
12 0.19
13 -0.15
14 -0.15
15 0.16
16 0.16
17 0.15
18 0.15
19 0.15
2 -0.63
20 0.15
21 0.15
22 0.15
23 0.15
24 0.15
25 0.4
26 0.4
3 -0.85
4 -0.62
5 0.09
6 0.18
7 0.41
8 -0.15
9 -0.15

>  <PUBCHEM_EFFECTIVE_ROTOR_COUNT>  (1) 
2

>  <PUBCHEM_PHARMACOPHORE_FEATURES>  (1) 
5
1 3 donor
1 4 acceptor
3 2 3 7 cation
6 4 5 10 11 15 16 rings
6 6 8 9 12 13 14 rings

>  <PUBCHEM_HEAVY_ATOM_COUNT>  (1) 
16

>  <PUBCHEM_ATOM_DEF_STEREO_COUNT>  (1) 
0

>  <PUBCHEM_ATOM_UDEF_STEREO_COUNT>  (1) 
0

>  <PUBCHEM_BOND_DEF_STEREO_COUNT>  (1) 
0

>  <PUBCHEM_BOND_UDEF_STEREO_COUNT>  (1) 
0

>  <PUBCHEM_ISOTOPIC_ATOM_COUNT>  (1) 
0

>  <PUBCHEM_COMPONENT_COUNT>  (1) 
1

>  <PUBCHEM_CACTVS_TAUTO_COUNT>  (1) 
2

>  <PUBCHEM_CONFORMER_ID>  (1) 
00007D0500000001

>  <PUBCHEM_MMFF94_ENERGY>  (1) 
50.5785

>  <PUBCHEM_FEATURE_SELFOVERLAP>  (1) 
25.371

>  <PUBCHEM_SHAPE_FINGERPRINT>  (1) 
11615757 297 17060336327216083736
12236239 1 16298105371965779801
12500047 106 18187360991546538383
12507560 40 18413105065619929068
13167823 11 18040994025279709122
13214271 11 18343017783745161645
13296908 3 18410857650587947489
13583140 156 18412254021818101118
13675066 3 18341609330492215108
13760787 5 16774077367044650680
14289901 80 18259709999147135544
15219456 202 18343301448601110213
15309172 13 17418657271056159527
15653759 3 18407761421575627696
15961568 22 17677332844059448004
17834072 33 17676777547567968092
18175812 5 18412825772117398445
18186145 218 18341057319604277512
19026448 4 18410854343542237836
19489759 90 18040711454996394041
1986462 14 18187085031418495189
200 152 17418086599226364837
20279233 1 18412266120672324007
204376 136 17418091039932398974
20645477 56 18188209780812634069
20645477 70 17845931814921704742
21065199 12 18411135827272355096
21065201 7 18113333077029738048
21079973 296 18408324410421021155
22485316 2 18186800253680603202
22646028 1 16588023519619029040
22854114 59 18131632292100687536
23402539 116 18260541230443954725
23557571 272 18337112267942739221
23559900 14 18335419007187569454
26918003 58 18343863299005935240
3268164 11 17749098989957605263
351380 180 18412820274569782773
42 15 18408041797346555266
4214541 1 18334857186441444281
474 4 15337683142029933450
5104073 3 18341892948641783128
573450 72 17531236236591145097
57812782 119 18411418392965114924
69090 78 18273491286332155399
74978 22 15141260869652365109
77779 3 18408323272202024568
9709674 26 18334583442364077859

>  <PUBCHEM_SHAPE_MULTIPOLES>  (1) 
307.06
10.02
1.38
1
1.73
0.01
-0.14
-0.81
1.33
-0.63
0.03
-0.04
-0.1
1.38

>  <PUBCHEM_SHAPE_SELFOVERLAP>  (1) 
664.651

>  <PUBCHEM_SHAPE_VOLUME>  (1) 
168

>  <PUBCHEM_COORDINATE_TYPE>  (1) 
2
5
10

$$$$
