3201
     RDKit          3D

 18 19  0  0  1  0  0  0  0  0999 V2000
   -1.3563   -1.2211    1.4205 O   0  0  0  0  0  0  0  0  0  0  0  0
   -4.1306   -0.4227    0.5928 O   0  0  0  0  0  0  0  0  0  0  0  0
   -3.2514    1.0265   -2.2747 O   0  0  0  0  0  0  0  0  0  0  0  0
   -0.0260    2.6231    0.7240 O   0  0  0  0  0  0  0  0  0  0  0  0
    4.1451    0.8788   -0.1170 O   0  0  0  0  0  0  0  0  0  0  0  0
    0.1692    0.3053    0.5204 N   0  0  0  0  0  0  0  0  0  0  0  0
    2.0485    1.7398    0.3040 N   0  0  0  0  0  0  0  0  0  0  0  0
   -2.0111   -0.0855   -0.5622 C   0  0  0  0  0  0  0  0  0  0  0  0
   -1.2230    0.0364    0.7390 C   0  0  0  0  0  0  0  0  0  0  0  0
   -3.1076   -1.0581   -0.1647 C   0  0  0  0  0  0  0  0  0  0  0  0
   -2.3556   -2.0073    0.7478 C   0  0  0  0  0  0  0  0  0  0  0  0
   -2.4803    1.2541   -1.1072 C   0  0  0  0  0  0  0  0  0  0  0  0
    1.0266   -0.7661    0.2947 C   0  0  0  0  0  0  0  0  0  0  0  0
    0.6724    1.6257    0.5311 C   0  0  0  0  0  0  0  0  0  0  0  0
    2.3429   -0.6534    0.0777 C   0  0  0  0  0  0  0  0  0  0  0  0
    2.9444    0.7066    0.0750 C   0  0  0  0  0  0  0  0  0  0  0  0
    3.2446   -1.8214   -0.1626 C   0  0  0  0  0  0  0  0  0  0  0  0
    3.3483   -2.1607   -1.6385 C   0  0  0  0  0  0  0  0  0  0  0  0
  1  9  1  0
  1 11  1  0
  2 10  1  0
  3 12  1  0
  4 14  2  0
  5 16  2  0
  6  9  1  0
  6 13  1  0
  6 14  1  0
  7 14  1  0
  7 16  1  0
  8  9  1  0
  8 10  1  0
  8 12  1  0
 10 11  1  0
 13 15  2  0
 15 16  1  0
 15 17  1  0
 17 18  1  0
M  END
>  <PUBCHEM_COMPOUND_CID>  (1) 
3201

>  <PUBCHEM_CONFORMER_RMSD>  (1) 
0.6

>  <PUBCHEM_CONFORMER_DIVERSEORDER>  (1) 
3
134
82
117
112
71
16
101
114
129
99
91
79
75
88
87
110
131
111
115
78
24
104
133
18
130
96
45
46
98
102
109
120
66
25
127
84
63
72
89
67
32
92
59
53
107
52
12
77
58
93
76
119
123
34
50
73
64
97
23
68
86
80
56
8
108
20
113
47
85
95
29
118
132
69
11
17
15
6
83
51
39
62
48
19
60
35
44
22
70
125
94
103
49
40
90
128
55
57
122
26
2
106
13
30
14
4
43
10
5
38
74
37
33
126
31
27
9
42
65
105
1
7
121
28
116
61
21
36
81
100
41
124
54

>  <PUBCHEM_MMFF94_PARTIAL_CHARGES>  (1) 
20
1 -0.56
10 0.28
11 0.28
12 0.28
13 -0.04
14 0.69
15 -0.12
16 0.62
17 0.14
2 -0.68
26 0.15
27 0.4
28 0.4
29 0.37
3 -0.68
4 -0.57
5 -0.57
6 -0.47
7 -0.49
9 0.58

>  <PUBCHEM_EFFECTIVE_ROTOR_COUNT>  (1) 
4

>  <PUBCHEM_PHARMACOPHORE_FEATURES>  (1) 
11
1 1 acceptor
1 18 hydrophobe
1 2 acceptor
1 2 donor
1 3 acceptor
1 3 donor
1 4 acceptor
1 5 acceptor
1 7 donor
5 1 8 9 10 11 rings
6 6 7 13 14 15 16 rings

>  <PUBCHEM_HEAVY_ATOM_COUNT>  (1) 
18

>  <PUBCHEM_ATOM_DEF_STEREO_COUNT>  (1) 
0

>  <PUBCHEM_ATOM_UDEF_STEREO_COUNT>  (1) 
3

>  <PUBCHEM_BOND_DEF_STEREO_COUNT>  (1) 
0

>  <PUBCHEM_BOND_UDEF_STEREO_COUNT>  (1) 
0

>  <PUBCHEM_ISOTOPIC_ATOM_COUNT>  (1) 
0

>  <PUBCHEM_COMPONENT_COUNT>  (1) 
1

>  <PUBCHEM_CACTVS_TAUTO_COUNT>  (1) 
3

>  <PUBCHEM_CONFORMER_ID>  (1) 
00000C8100000003

>  <PUBCHEM_MMFF94_ENERGY>  (1) 
38.9383

>  <PUBCHEM_FEATURE_SELFOVERLAP>  (1) 
55.824

>  <PUBCHEM_SHAPE_FINGERPRINT>  (1) 
10498660 4 17096069308800516213
10608611 8 18187919633605726221
10610426 29 15911606118211583733
10922523 26 18334292101873225343
11127187 94 18263933150247681895
11137873 295 18342743974762906207
116883 192 18127981806159348472
12186901 62 17458626662573945751
12824470 246 16127506316189215149
13296908 3 18411982438251416634
15219456 202 18408037416131695223
16945 1 18130494348831487344
18186145 218 18115585941900444957
19049666 15 18334286557128481505
19433438 38 18260543463473578890
19591789 44 16540756287961724248
200 152 17917432072227669546
20201158 50 18336829796269527442
20645477 70 18272371957962769534
20671657 53 18339930286295885258
21864079 5 13912609286244002310
22802520 49 18335690655042080941
23114952 82 18261122914733803276
23402539 116 17386836378246479227
23419403 2 17186376523969687728
23526113 38 18267001921523548253
23557571 272 18040154037024335676
23559900 14 18263634083860419482
25 1 18189884341010359205
2748010 2 18410293622845726354
5161694 15 18335132047136767007
6049 1 18260274057170444627
77492 1 16702023114369816787
81228 2 17983292630132985160
9709674 26 18336549407766899450

>  <PUBCHEM_SHAPE_MULTIPOLES>  (1) 
331.12
6.85
2.35
1.31
0.82
0.26
-0.66
-1.96
-1.91
0.95
0.03
-0.84
-0.1
1.6

>  <PUBCHEM_SHAPE_SELFOVERLAP>  (1) 
690.946

>  <PUBCHEM_SHAPE_VOLUME>  (1) 
187.8

>  <PUBCHEM_COORDINATE_TYPE>  (1) 
2
5
10

$$$$
