32012
     RDKit          3D

  9  8  0  0  0  0  0  0  0  0999 V2000
   -2.8941   -1.2738   -0.4397 O   0  0  0  0  0  0  0  0  0  0  0  0
    1.8615    1.3008   -0.3621 C   0  0  0  0  0  0  0  0  0  0  0  0
    0.6931    1.5977    0.5866 C   0  0  0  0  0  0  0  0  0  0  0  0
    1.9339   -0.1441   -0.8726 C   0  0  0  0  0  0  0  0  0  0  0  0
   -0.6462    1.2926   -0.0196 C   0  0  0  0  0  0  0  0  0  0  0  0
    2.1323   -1.1469    0.2256 C   0  0  0  0  0  0  0  0  0  0  0  0
   -1.5127    0.4077    0.4945 C   0  0  0  0  0  0  0  0  0  0  0  0
   -2.8459    0.1065   -0.1071 C   0  0  0  0  0  0  0  0  0  0  0  0
    1.2782   -2.1406    0.4944 C   0  0  0  0  0  0  0  0  0  0  0  0
  1  8  1  0
  2  3  1  0
  2  4  1  0
  3  5  1  0
  4  6  1  0
  5  7  2  0
  6  9  2  0
  7  8  1  0
M  END
>  <PUBCHEM_COMPOUND_CID>  (1) 
32012

>  <PUBCHEM_CONFORMER_RMSD>  (1) 
0.6

>  <PUBCHEM_CONFORMER_DIVERSEORDER>  (1) 
1
34
60
19
62
38
65
40
57
72
30
56
7
71
10
22
63
61
4
46
12
5
69
18
25
54
11
21
9
3
48
45
24
67
53
42
32
15
26
68
28
49
37
47
55
39
8
20
64
2
33
41
66
73
31
16
58
59
44
23
17
27
35
36
50
70
51
52
6
29
13
43
14

>  <PUBCHEM_MMFF94_PARTIAL_CHARGES>  (1) 
14
1 -0.68
16 0.15
17 0.15
18 0.15
21 0.15
22 0.15
23 0.4
3 0.14
4 0.14
5 -0.29
6 -0.29
7 -0.29
8 0.42
9 -0.3

>  <PUBCHEM_EFFECTIVE_ROTOR_COUNT>  (1) 
5

>  <PUBCHEM_PHARMACOPHORE_FEATURES>  (1) 
4
1 1 acceptor
1 1 donor
1 9 hydrophobe
5 2 3 4 5 6 hydrophobe

>  <PUBCHEM_HEAVY_ATOM_COUNT>  (1) 
9

>  <PUBCHEM_ATOM_DEF_STEREO_COUNT>  (1) 
0

>  <PUBCHEM_ATOM_UDEF_STEREO_COUNT>  (1) 
0

>  <PUBCHEM_BOND_DEF_STEREO_COUNT>  (1) 
0

>  <PUBCHEM_BOND_UDEF_STEREO_COUNT>  (1) 
1

>  <PUBCHEM_ISOTOPIC_ATOM_COUNT>  (1) 
0

>  <PUBCHEM_COMPONENT_COUNT>  (1) 
1

>  <PUBCHEM_CACTVS_TAUTO_COUNT>  (1) 
1

>  <PUBCHEM_CONFORMER_ID>  (1) 
00007D0C00000001

>  <PUBCHEM_MMFF94_ENERGY>  (1) 
1.0424

>  <PUBCHEM_FEATURE_SELFOVERLAP>  (1) 
20.301

>  <PUBCHEM_SHAPE_FINGERPRINT>  (1) 
12897270 3 18260837015639999597
14128692 85 18338804394762303148
14251711 518 17540535712818690843
15757776 16 18340481278601068111
18185500 45 17975703796487824226
20201158 50 18261392221788524259
20645477 70 18272087240754898239
20653091 64 18202005434240850160
20724930 33 17759514470297731506
23552333 60 18273502272984982232
23552423 10 18409173229113558181
23552449 11 18060129951292719129
66348 1 18338239391588096331
8199 65 18409727408554019371

>  <PUBCHEM_SHAPE_MULTIPOLES>  (1) 
179.35
4.12
2.11
0.83
2.74
0.5
-0.03
1.44
-0.6
-0.8
0.28
-0.16
-0.01
-0.44

>  <PUBCHEM_SHAPE_SELFOVERLAP>  (1) 
323.343

>  <PUBCHEM_SHAPE_VOLUME>  (1) 
114.9

>  <PUBCHEM_COORDINATE_TYPE>  (1) 
2
5
10

$$$$
