32027
     RDKit          3D

 41 45  0  0  0  0  0  0  0  0999 V2000
    3.7661    0.1819   -2.1875 O   0  0  0  0  0  0  0  0  0  0  0  0
    2.9077   -1.9627   -2.1736 O   0  0  0  0  0  0  0  0  0  0  0  0
    6.4803    0.3711   -1.5128 O   0  0  0  0  0  0  0  0  0  0  0  0
   -1.0812    0.1398   -0.6198 N   0  0  0  0  0  0  0  0  0  0  0  0
   -4.3021    0.1817    3.1518 N   0  0  0  0  0  0  0  0  0  0  0  0
    1.8725   -0.2181   -0.8511 C   0  0  0  0  0  0  0  0  0  0  0  0
    0.8794   -1.3505   -0.4761 C   0  0  0  0  0  0  0  0  0  0  0  0
    1.0610    0.8285   -1.6610 C   0  0  0  0  0  0  0  0  0  0  0  0
   -0.3729   -0.8232    0.2302 C   0  0  0  0  0  0  0  0  0  0  0  0
   -0.2239    1.2821   -0.9553 C   0  0  0  0  0  0  0  0  0  0  0  0
   -2.3108    0.5927    0.0295 C   0  0  0  0  0  0  0  0  0  0  0  0
    2.6371    0.3185    0.3680 C   0  0  0  0  0  0  0  0  0  0  0  0
    2.8926   -0.7945   -1.8101 C   0  0  0  0  0  0  0  0  0  0  0  0
   -3.4028   -0.4841   -0.1038 C   0  0  0  0  0  0  0  0  0  0  0  0
   -4.7852   -0.1236    0.5579 C   0  0  0  0  0  0  0  0  0  0  0  0
    2.5523    1.6693    0.7055 C   0  0  0  0  0  0  0  0  0  0  0  0
    3.4169   -0.5450    1.1375 C   0  0  0  0  0  0  0  0  0  0  0  0
   -5.3400    1.1479   -0.1294 C   0  0  0  0  0  0  0  0  0  0  0  0
   -5.8307   -1.2651    0.4454 C   0  0  0  0  0  0  0  0  0  0  0  0
    3.2471    2.1564    1.8126 C   0  0  0  0  0  0  0  0  0  0  0  0
    4.1116   -0.0578    2.2447 C   0  0  0  0  0  0  0  0  0  0  0  0
   -4.5155    0.0568    2.0174 C   0  0  0  0  0  0  0  0  0  0  0  0
    4.7904   -0.2281   -3.0990 C   0  0  0  0  0  0  0  0  0  0  0  0
    4.0267    1.2929    2.5821 C   0  0  0  0  0  0  0  0  0  0  0  0
   -5.5405    2.3113    0.6137 C   0  0  0  0  0  0  0  0  0  0  0  0
   -7.0793   -1.1296    1.0524 C   0  0  0  0  0  0  0  0  0  0  0  0
   -5.6390    1.1305   -1.4918 C   0  0  0  0  0  0  0  0  0  0  0  0
   -5.5221   -2.4264   -0.2631 C   0  0  0  0  0  0  0  0  0  0  0  0
    5.9946   -0.7030   -2.3089 C   0  0  0  0  0  0  0  0  0  0  0  0
   -6.0401    3.4570   -0.0054 C   0  0  0  0  0  0  0  0  0  0  0  0
   -8.0192   -2.1553    0.9512 C   0  0  0  0  0  0  0  0  0  0  0  0
   -6.1384    2.2764   -2.1109 C   0  0  0  0  0  0  0  0  0  0  0  0
   -6.4621   -3.4520   -0.3645 C   0  0  0  0  0  0  0  0  0  0  0  0
   -6.3390    3.4396   -1.3676 C   0  0  0  0  0  0  0  0  0  0  0  0
   -7.7106   -3.3163    0.2428 C   0  0  0  0  0  0  0  0  0  0  0  0
    7.0700    0.0387   -0.3215 C   0  0  0  0  0  0  0  0  0  0  0  0
    7.7332   -1.1812   -0.1878 C   0  0  0  0  0  0  0  0  0  0  0  0
    7.0067    0.9201    0.7578 C   0  0  0  0  0  0  0  0  0  0  0  0
    8.3328   -1.5197    1.0253 C   0  0  0  0  0  0  0  0  0  0  0  0
    7.6065    0.5815    1.9708 C   0  0  0  0  0  0  0  0  0  0  0  0
    8.2695   -0.6385    2.1044 C   0  0  0  0  0  0  0  0  0  0  0  0
  1 13  1  0
  1 23  1  0
  2 13  2  0
  3 29  1  0
  3 36  1  0
  4  9  1  0
  4 10  1  0
  4 11  1  0
  5 22  3  0
  6  7  1  0
  6  8  1  0
  6 12  1  0
  6 13  1  0
  7  9  1  0
  8 10  1  0
 11 14  1  0
 12 16  2  0
 12 17  1  0
 14 15  1  0
 15 18  1  0
 15 19  1  0
 15 22  1  0
 16 20  1  0
 17 21  2  0
 18 25  2  0
 18 27  1  0
 19 26  2  0
 19 28  1  0
 20 24  2  0
 21 24  1  0
 23 29  1  0
 25 30  1  0
 26 31  1  0
 27 32  2  0
 28 33  2  0
 30 34  2  0
 31 35  2  0
 32 34  1  0
 33 35  1  0
 36 37  2  0
 36 38  1  0
 37 39  1  0
 38 40  2  0
 39 41  2  0
 40 41  1  0
M  END
>  <PUBCHEM_COMPOUND_CID>  (1) 
32027

>  <PUBCHEM_CONFORMER_RMSD>  (1) 
1.4

>  <PUBCHEM_CONFORMER_DIVERSEORDER>  (1) 
2
81
51
90
39
89
18
37
26
76
45
111
50
74
99
44
3
63
108
102
40
72
110
24
59
11
112
42
52
83
53
79
49
67
101
91
38
114
60
118
87
84
58
4
68
66
43
117
107
109
56
61
57
48
88
113
35
70
62
41
75
92
106
7
33
93
20
73
65
54
28
96
85
23
46
94
6
27
116
78
105
71
25
80
103
9
115
47
15
30
8
22
86
36
100
98
55
104
21
77
64
82
12
31
97
14
32
17
95
19
5
34
29
16
10
1
69
13

>  <PUBCHEM_MMFF94_PARTIAL_CHARGES>  (1) 
58
1 -0.43
10 0.27
11 0.27
12 -0.14
13 0.66
15 0.49
16 -0.15
17 -0.15
18 -0.14
19 -0.14
2 -0.57
20 -0.15
21 -0.15
22 0.36
23 0.28
24 -0.15
25 -0.15
26 -0.15
27 -0.15
28 -0.15
29 0.28
3 -0.36
30 -0.15
31 -0.15
32 -0.15
33 -0.15
34 -0.15
35 -0.15
36 0.08
37 -0.15
38 -0.15
39 -0.15
4 -0.81
40 -0.15
41 -0.15
5 -0.56
54 0.15
55 0.15
56 0.15
57 0.15
6 0.2
60 0.15
61 0.15
62 0.15
63 0.15
64 0.15
67 0.15
68 0.15
69 0.15
70 0.15
71 0.15
72 0.15
73 0.15
74 0.15
75 0.15
76 0.15
77 0.15
9 0.27

>  <PUBCHEM_EFFECTIVE_ROTOR_COUNT>  (1) 
13.2

>  <PUBCHEM_PHARMACOPHORE_FEATURES>  (1) 
9
1 2 acceptor
1 3 acceptor
1 4 cation
1 5 acceptor
6 12 16 17 20 21 24 rings
6 18 25 27 30 32 34 rings
6 19 26 28 31 33 35 rings
6 36 37 38 39 40 41 rings
6 4 6 7 8 9 10 rings

>  <PUBCHEM_HEAVY_ATOM_COUNT>  (1) 
41

>  <PUBCHEM_ATOM_DEF_STEREO_COUNT>  (1) 
0

>  <PUBCHEM_ATOM_UDEF_STEREO_COUNT>  (1) 
0

>  <PUBCHEM_BOND_DEF_STEREO_COUNT>  (1) 
0

>  <PUBCHEM_BOND_UDEF_STEREO_COUNT>  (1) 
0

>  <PUBCHEM_ISOTOPIC_ATOM_COUNT>  (1) 
0

>  <PUBCHEM_COMPONENT_COUNT>  (1) 
1

>  <PUBCHEM_CACTVS_TAUTO_COUNT>  (1) 
1

>  <PUBCHEM_CONFORMER_ID>  (1) 
00007D1B00000002

>  <PUBCHEM_MMFF94_ENERGY>  (1) 
127.3025

>  <PUBCHEM_FEATURE_SELFOVERLAP>  (1) 
45.674

>  <PUBCHEM_SHAPE_FINGERPRINT>  (1) 
12616971 3 14979966848181091885
12664476 115 18060421331065004851
12717326 120 18192435400812896707
12728208 25 16805322210989323672
13560911 23 17748829627005394897
13811026 1 18202280307704997264
13947934 56 17822289055777403439
14170010 4 16630532838973957882
14849402 71 15410610406768422690
15461852 350 18186796994227687011
15554971 5 17530965791697099004
1577012 14 17313116241418439724
3178227 256 17275106167469859234
32027 91 17984145864241975519
4169191 19 16845853507892129496
4918590 53 17489582364281654453
5028188 123 18187083941224704910
504579 68 16298384699427297871
6086070 43 17749100119735114213

>  <PUBCHEM_SHAPE_MULTIPOLES>  (1) 
816.19
28.42
3.07
2.67
7.96
0.29
-0.11
-7.91
5.15
-9.98
-0.39
4
0.39
2.23

>  <PUBCHEM_SHAPE_SELFOVERLAP>  (1) 
1763.944

>  <PUBCHEM_SHAPE_VOLUME>  (1) 
441.5

>  <PUBCHEM_COORDINATE_TYPE>  (1) 
2
5
10

$$$$
