32033
     RDKit          3D

  7  7  0  0  1  0  0  0  0  0999 V2000
    0.0000    1.4818    0.0002 S   0  0  0  0  0  0  0  0  0  0  0  0
    0.6421   -1.3491    0.7948 S   0  0  0  0  0  0  0  0  0  0  0  0
   -0.6419   -1.3493   -0.7946 S   0  0  0  0  0  0  0  0  0  0  0  0
    1.3163    0.3123    0.5332 C   0  0  0  0  0  0  0  0  0  0  0  0
   -1.3163    0.3122   -0.5333 C   0  0  0  0  0  0  0  0  0  0  0  0
    2.4416    0.2961   -0.4966 C   0  0  0  0  0  0  0  0  0  0  0  0
   -2.4418    0.2961    0.4963 C   0  0  0  0  0  0  0  0  0  0  0  0
  1  4  1  0
  1  5  1  0
  2  3  1  0
  2  4  1  0
  3  5  1  0
  4  6  1  0
  5  7  1  0
M  END
>  <PUBCHEM_COMPOUND_CID>  (1) 
32033

>  <PUBCHEM_CONFORMER_RMSD>  (1) 
0.4

>  <PUBCHEM_CONFORMER_DIVERSEORDER>  (1) 
2
6
1
4
3
5

>  <PUBCHEM_MMFF94_PARTIAL_CHARGES>  (1) 
5
1 -0.46
2 -0.23
3 -0.23
4 0.46
5 0.46

>  <PUBCHEM_EFFECTIVE_ROTOR_COUNT>  (1) 
1

>  <PUBCHEM_PHARMACOPHORE_FEATURES>  (1) 
1
5 1 2 3 4 5 rings

>  <PUBCHEM_HEAVY_ATOM_COUNT>  (1) 
7

>  <PUBCHEM_ATOM_DEF_STEREO_COUNT>  (1) 
0

>  <PUBCHEM_ATOM_UDEF_STEREO_COUNT>  (1) 
2

>  <PUBCHEM_BOND_DEF_STEREO_COUNT>  (1) 
0

>  <PUBCHEM_BOND_UDEF_STEREO_COUNT>  (1) 
0

>  <PUBCHEM_ISOTOPIC_ATOM_COUNT>  (1) 
0

>  <PUBCHEM_COMPONENT_COUNT>  (1) 
1

>  <PUBCHEM_CACTVS_TAUTO_COUNT>  (1) 
1

>  <PUBCHEM_CONFORMER_ID>  (1) 
00007D2100000002

>  <PUBCHEM_MMFF94_ENERGY>  (1) 
5.7514

>  <PUBCHEM_FEATURE_SELFOVERLAP>  (1) 
5.074

>  <PUBCHEM_SHAPE_FINGERPRINT>  (1) 
137420 1 11075959940514329370
15310529 11 17240475901490357684
16714656 1 18341897389485089516
18185500 45 18265873874085435302
20096714 4 18412254060425249355
21040471 1 18341602707378344570
23235685 24 18410857659151573253
24536 1 16987129794998152481
29004967 10 17749108868018674641
5084963 1 18339641251844047517
528862 383 18041553637858912002

>  <PUBCHEM_SHAPE_MULTIPOLES>  (1) 
155.61
2.82
1.62
0.99
0
0.2
0
-0.48
0
0
0
0
0.22
-0.26

>  <PUBCHEM_SHAPE_SELFOVERLAP>  (1) 
255.975

>  <PUBCHEM_SHAPE_VOLUME>  (1) 
107.8

>  <PUBCHEM_COORDINATE_TYPE>  (1) 
2
5
10

$$$$
