32041
     RDKit          3D

 12 12  0  0  1  0  0  0  0  0999 V2000
   -1.4824   -0.4032    0.0164 O   0  0  0  0  0  0  0  0  0  0  0  0
   -0.2678    0.8525   -1.4905 O   0  0  0  0  0  0  0  0  0  0  0  0
    3.2953   -0.6549    0.2917 N   0  0  0  0  0  0  0  0  0  0  0  0
    4.5621   -0.1883   -0.2535 C   0  0  0  0  0  0  0  0  0  0  0  0
    4.0171    0.3740    1.0268 C   0  0  0  0  0  0  0  0  0  0  0  0
    2.1759   -0.0737   -0.4389 C   0  0  0  0  0  0  0  0  0  0  0  0
    0.8523   -0.5361    0.1632 C   0  0  0  0  0  0  0  0  0  0  0  0
   -2.6045    0.4839   -0.0325 C   0  0  0  0  0  0  0  0  0  0  0  0
   -0.3339    0.0691   -0.5534 C   0  0  0  0  0  0  0  0  0  0  0  0
   -3.8067   -0.1917    0.6304 C   0  0  0  0  0  0  0  0  0  0  0  0
   -2.2387    1.7796    0.6789 C   0  0  0  0  0  0  0  0  0  0  0  0
   -4.1687   -1.5112   -0.0386 C   0  0  0  0  0  0  0  0  0  0  0  0
  1  8  1  0
  1  9  1  0
  2  9  2  0
  3  4  1  0
  3  5  1  0
  3  6  1  0
  4  5  1  0
  6  7  1  0
  7  9  1  0
  8 10  1  0
  8 11  1  0
 10 12  1  0
M  END
>  <PUBCHEM_COMPOUND_CID>  (1) 
32041

>  <PUBCHEM_CONFORMER_RMSD>  (1) 
0.6

>  <PUBCHEM_CONFORMER_DIVERSEORDER>  (1) 
2
127
179
287
272
220
308
14
209
290
174
59
231
247
102
242
136
92
274
1
288
64
265
154
302
4
145
58
230
80
6
157
105
195
233
114
309
45
261
151
187
27
67
306
125
202
123
256
62
264
38
305
140
178
149
175
304
76
150
300
142
88
194
85
292
295
229
180
44
126
106
54
97
137
111
262
258
147
182
81
132
257
63
7
131
11
252
299
238
284
93
216
129
25
60
243
35
278
298
3
53
173
172
47
251
139
143
32
188
160
57
29
199
241
285
130
39
74
267
275
135
240
176
116
279
219
138
75
9
204
307
210
68
260
87
270
206
78
282
15
110
201
255
277
177
249
19
71
191
225
17
33
23
250
122
109
79
301
294
46
184
24
246
158
16
113
112
234
232
244
269
48
56
190
181
162
271
69
239
211
18
30
70
164
303
55
155
159
94
61
212
82
286
185
133
280
84
77
171
13
26
207
221
101
121
50
169
5
107
276
248
37
83
100
52
253
167
95
72
128
103
198
223
90
98
42
12
144
86
31
124
205
235
152
66
192
228
208
218
163
20
8
21
266
119
297
117
296
263
214
108
51
153
193
227
213
49
170
65
161
215
118
183
40
273
237
224
141
156
293
236
245
91
73
203
166
168
148
186
200
254
28
115
99
259
189
146
222
226
268
165
291
36
22
120
289
196
41
197
134
281
10
283
96
104
43
34
217
89

>  <PUBCHEM_MMFF94_PARTIAL_CHARGES>  (1) 
13
1 -0.43
13 0.1
14 0.1
15 0.1
16 0.1
2 -0.57
3 -0.59
4 -0.04
5 -0.04
6 0.27
7 0.06
8 0.28
9 0.66

>  <PUBCHEM_EFFECTIVE_ROTOR_COUNT>  (1) 
6.6

>  <PUBCHEM_PHARMACOPHORE_FEATURES>  (1) 
3
1 12 hydrophobe
1 2 acceptor
1 3 cation

>  <PUBCHEM_HEAVY_ATOM_COUNT>  (1) 
12

>  <PUBCHEM_ATOM_DEF_STEREO_COUNT>  (1) 
0

>  <PUBCHEM_ATOM_UDEF_STEREO_COUNT>  (1) 
1

>  <PUBCHEM_BOND_DEF_STEREO_COUNT>  (1) 
0

>  <PUBCHEM_BOND_UDEF_STEREO_COUNT>  (1) 
0

>  <PUBCHEM_ISOTOPIC_ATOM_COUNT>  (1) 
0

>  <PUBCHEM_COMPONENT_COUNT>  (1) 
1

>  <PUBCHEM_CACTVS_TAUTO_COUNT>  (1) 
1

>  <PUBCHEM_CONFORMER_ID>  (1) 
00007D2900000002

>  <PUBCHEM_MMFF94_ENERGY>  (1) 
18.071

>  <PUBCHEM_FEATURE_SELFOVERLAP>  (1) 
15.223

>  <PUBCHEM_SHAPE_FINGERPRINT>  (1) 
11062470 55 9367344838449219274
11401426 45 17530678814656142431
12251169 10 18409449206505411958
12932764 1 16629947855247574854
13214271 11 17203331092138474737
13237642 15 18130504231662037986
13296909 8 18337392643450006917
14123238 8 17775284988675273402
15375358 24 13045943508119875632
17834072 33 18262243321514468340
18186145 218 12175614053856845242
190213 19 18408602539554859156
19026448 4 17917435280705318270
200 152 16153421748957206610
20211469 26 17967813859955353747
20645477 56 16630514155649903720
20645477 70 14346066504409208800
20711985 327 17749398061025164916
20724930 69 9439412332582092759
20828058 21 18412830170590988926
20828058 44 18411983559232593203
20871999 31 7925620077978741929
21119208 17 8214145157200065530
21501925 9 18040435516179728508
22485316 2 11314311659246493192
23380061 127 18412261714262686209
23402539 116 18271801333298006919
23402655 69 9727633912704001482
23557571 272 17917724456738154217
366044 4 13183020717744575348
42 15 18343023268165099842
449060 50 17846779624349154582
93112 12 8070018965412819922
9882013 296 18334295361890650386

>  <PUBCHEM_SHAPE_MULTIPOLES>  (1) 
230.23
9.18
1.24
0.96
4.09
0.28
-0.16
-1.71
2.08
-1.37
0.14
0.2
0.16
0.11

>  <PUBCHEM_SHAPE_SELFOVERLAP>  (1) 
436.665

>  <PUBCHEM_SHAPE_VOLUME>  (1) 
144.4

>  <PUBCHEM_COORDINATE_TYPE>  (1) 
2
5
10

$$$$
