32040
     RDKit          3D

 11 11  0  0  0  0  0  0  0  0999 V2000
    1.8043   -0.1523    0.6903 O   0  0  0  0  0  0  0  0  0  0  0  0
    0.7070    1.5908   -0.3492 O   0  0  0  0  0  0  0  0  0  0  0  0
   -2.9764   -0.3905    0.4584 N   0  0  0  0  0  0  0  0  0  0  0  0
   -4.1963    0.2565   -0.0031 C   0  0  0  0  0  0  0  0  0  0  0  0
   -3.6017   -0.8987   -0.7544 C   0  0  0  0  0  0  0  0  0  0  0  0
   -1.8097    0.4204    0.1329 C   0  0  0  0  0  0  0  0  0  0  0  0
   -0.5328   -0.2826    0.5842 C   0  0  0  0  0  0  0  0  0  0  0  0
    0.7027    0.5179    0.2385 C   0  0  0  0  0  0  0  0  0  0  0  0
    3.0019    0.0495   -0.0670 C   0  0  0  0  0  0  0  0  0  0  0  0
    4.1382   -0.7311    0.5758 C   0  0  0  0  0  0  0  0  0  0  0  0
    2.7626   -0.3799   -1.5064 C   0  0  0  0  0  0  0  0  0  0  0  0
  1  8  1  0
  1  9  1  0
  2  8  2  0
  3  4  1  0
  3  5  1  0
  3  6  1  0
  4  5  1  0
  6  7  1  0
  7  8  1  0
  9 10  1  0
  9 11  1  0
M  END
>  <PUBCHEM_COMPOUND_CID>  (1) 
32040

>  <PUBCHEM_CONFORMER_RMSD>  (1) 
0.6

>  <PUBCHEM_CONFORMER_DIVERSEORDER>  (1) 
1
54
90
47
24
74
37
78
56
20
48
55
12
18
53
49
8
84
102
46
95
108
107
83
22
2
97
17
59
9
79
100
65
62
81
105
34
98
61
30
27
93
99
86
26
67
57
16
89
28
23
109
70
50
87
19
106
6
21
60
10
25
36
103
92
51
44
3
77
63
58
7
32
82
88
71
35
41
69
75
31
68
40
101
64
38
13
29
14
91
96
42
72
4
94
52
45
43
5
76
66
73
15
104
33
85
11
39
80

>  <PUBCHEM_MMFF94_PARTIAL_CHARGES>  (1) 
13
1 -0.43
12 0.1
13 0.1
14 0.1
15 0.1
2 -0.57
3 -0.59
4 -0.04
5 -0.04
6 0.27
7 0.06
8 0.66
9 0.28

>  <PUBCHEM_EFFECTIVE_ROTOR_COUNT>  (1) 
5.6

>  <PUBCHEM_PHARMACOPHORE_FEATURES>  (1) 
3
1 2 acceptor
1 3 cation
3 9 10 11 hydrophobe

>  <PUBCHEM_HEAVY_ATOM_COUNT>  (1) 
11

>  <PUBCHEM_ATOM_DEF_STEREO_COUNT>  (1) 
0

>  <PUBCHEM_ATOM_UDEF_STEREO_COUNT>  (1) 
0

>  <PUBCHEM_BOND_DEF_STEREO_COUNT>  (1) 
0

>  <PUBCHEM_BOND_UDEF_STEREO_COUNT>  (1) 
0

>  <PUBCHEM_ISOTOPIC_ATOM_COUNT>  (1) 
0

>  <PUBCHEM_COMPONENT_COUNT>  (1) 
1

>  <PUBCHEM_CACTVS_TAUTO_COUNT>  (1) 
1

>  <PUBCHEM_CONFORMER_ID>  (1) 
00007D2800000001

>  <PUBCHEM_MMFF94_ENERGY>  (1) 
18.1611

>  <PUBCHEM_FEATURE_SELFOVERLAP>  (1) 
15.223

>  <PUBCHEM_SHAPE_FINGERPRINT>  (1) 
11062470 55 14548737309139800539
11987891 27 18410005537745671846
12251169 10 14333402367623564880
12932764 1 16733251452633858177
14252887 29 17131839759088754870
14350558 41 17417820559966379927
177051 138 16630532829608576511
18186145 218 15357699686398714504
190213 19 17022903458106415715
1986462 14 18261109686582502463
20279233 1 17346600772498694487
20281407 28 17275110530613104835
20606313 2 15213025972502283358
20645477 70 16950282875972408642
20671657 53 18408041818558069829
20711985 327 18413671313965990896
21119208 17 16153708713028832514
21293036 1 17894633668624194968
22485316 2 18202560661705728054
23402539 116 18410565167900077676
23402655 69 16081084870381319942
42 15 16773802493501232775
449060 50 16056873654813686192
57812782 119 17275385404330602619
581208 293 17489871535749939502
93112 12 15791735217072580618

>  <PUBCHEM_SHAPE_MULTIPOLES>  (1) 
209.66
8.23
1.02
0.97
2.21
0.39
-0.15
1.59
1.38
-0.13
-0.11
-0.41
-0.08
0.35

>  <PUBCHEM_SHAPE_SELFOVERLAP>  (1) 
398.134

>  <PUBCHEM_SHAPE_VOLUME>  (1) 
131.9

>  <PUBCHEM_COORDINATE_TYPE>  (1) 
2
5
10

$$$$
