32044
     RDKit          3D

 20 19  0  0  1  0  0  0  0  0999 V2000
   -1.3575    0.3552    1.1215 S   0  0  0  0  0  0  0  0  0  0  0  0
   -4.4678   -1.0278    1.9975 S   0  0  0  0  0  0  0  0  0  0  0  0
   -3.2668   -0.4055    0.5762 P   0  0  0  0  0  0  0  0  0  0  0  0
    3.2684   -2.0264    0.2077 O   0  0  0  0  0  0  0  0  0  0  0  0
    5.2047   -0.9758    0.7058 O   0  0  0  0  0  0  0  0  0  0  0  0
    1.1184    2.3392   -0.0524 O   0  0  0  0  0  0  0  0  0  0  0  0
   -3.9710    0.7159   -0.3834 O   0  0  0  0  0  0  0  0  0  0  0  0
   -3.0179   -1.5527   -0.5623 O   0  0  0  0  0  0  0  0  0  0  0  0
    1.8516    0.1352    0.0164 N   0  0  0  0  0  0  0  0  0  0  0  0
    3.2410    0.4071    0.3212 C   0  0  0  0  0  0  0  0  0  0  0  0
    3.8788    1.2322   -0.8181 C   0  0  0  0  0  0  0  0  0  0  0  0
    3.3313    1.1154    1.6772 C   0  0  0  0  0  0  0  0  0  0  0  0
    4.0100   -0.9144    0.4323 C   0  0  0  0  0  0  0  0  0  0  0  0
    3.8479    0.5627   -2.1876 C   0  0  0  0  0  0  0  0  0  0  0  0
    0.9051    1.1315   -0.1450 C   0  0  0  0  0  0  0  0  0  0  0  0
   -0.4735    0.5887   -0.4392 C   0  0  0  0  0  0  0  0  0  0  0  0
   -4.3942    1.9571    0.1560 C   0  0  0  0  0  0  0  0  0  0  0  0
   -2.4028   -2.7830   -0.2179 C   0  0  0  0  0  0  0  0  0  0  0  0
   -5.0054    2.7922   -0.9488 C   0  0  0  0  0  0  0  0  0  0  0  0
   -2.3002   -3.6468   -1.4569 C   0  0  0  0  0  0  0  0  0  0  0  0
  1  3  1  0
  1 16  1  0
  2  3  2  0
  3  7  1  0
  3  8  1  0
  4 13  1  0
  5 13  2  0
  6 15  2  0
  7 17  1  0
  8 18  1  0
  9 10  1  0
  9 15  1  0
 10 11  1  0
 10 12  1  0
 10 13  1  0
 11 14  1  0
 15 16  1  0
 17 19  1  0
 18 20  1  0
M  END
>  <PUBCHEM_COMPOUND_CID>  (1) 
32044

>  <PUBCHEM_CONFORMER_RMSD>  (1) 
1

>  <PUBCHEM_CONFORMER_DIVERSEORDER>  (1) 
1
71
45
49
62
117
148
57
105
22
85
44
26
151
18
42
56
81
60
41
30
108
175
144
149
68
33
61
157
167
82
14
51
121
87
20
40
112
89
5
182
47
66
113
55
173
9
16
99
155
46
17
86
177
74
101
69
67
131
31
76
75
53
12
25
80
119
154
4
106
146
27
123
100
54
136
93
8
95
79
159
38
120
28
97
88
52
92
39
23
172
178
109
72
133
50
161
128
150
183
156
64
181
125
36
65
43
168
126
103
90
29
98
180
138
158
116
21
83
137
124
111
48
34
35
84
7
130
139
132
3
118
166
2
37
32
15
115
73
6
163
77
63
162
147
174
179
127
19
94
160
141
110
58
11
169
153
70
171
170
104
140
176
78
102
135
13
91
164
59
142
10
122
107
145
129
143
134
96
24
152
165
114

>  <PUBCHEM_MMFF94_PARTIAL_CHARGES>  (1) 
17
1 -0.48
10 0.36
13 0.66
15 0.57
16 0.29
17 0.28
18 0.28
2 -0.68
26 0.37
3 1.47
32 0.5
4 -0.65
5 -0.57
6 -0.57
7 -0.55
8 -0.55
9 -0.73

>  <PUBCHEM_EFFECTIVE_ROTOR_COUNT>  (1) 
11

>  <PUBCHEM_PHARMACOPHORE_FEATURES>  (1) 
6
1 14 hydrophobe
1 4 acceptor
1 5 acceptor
1 6 acceptor
1 9 donor
3 4 5 13 anion

>  <PUBCHEM_HEAVY_ATOM_COUNT>  (1) 
20

>  <PUBCHEM_ATOM_DEF_STEREO_COUNT>  (1) 
0

>  <PUBCHEM_ATOM_UDEF_STEREO_COUNT>  (1) 
1

>  <PUBCHEM_BOND_DEF_STEREO_COUNT>  (1) 
0

>  <PUBCHEM_BOND_UDEF_STEREO_COUNT>  (1) 
0

>  <PUBCHEM_ISOTOPIC_ATOM_COUNT>  (1) 
0

>  <PUBCHEM_COMPONENT_COUNT>  (1) 
1

>  <PUBCHEM_CACTVS_TAUTO_COUNT>  (1) 
2

>  <PUBCHEM_CONFORMER_ID>  (1) 
00007D2C00000001

>  <PUBCHEM_MMFF94_ENERGY>  (1) 
21.3632

>  <PUBCHEM_FEATURE_SELFOVERLAP>  (1) 
30.508

>  <PUBCHEM_SHAPE_FINGERPRINT>  (1) 
10366900 7 16845572006733807728
12346177 29 18130503128171836839
12500047 106 18342450444086990457
12553582 1 18336270157709426326
12596599 1 17916882312498797802
12633257 1 18059303144423884875
13167823 11 18187367648640177018
13583140 156 17630311155001258193
13675066 3 18335422378584039881
14251751 93 18334289894867060747
15537594 2 18264223558840848514
17349148 13 17418099810482632825
17844677 252 17822588160809270193
18186145 218 17988651829846946201
20281475 54 18335136548388937636
20645477 70 16950567714066371136
23559900 14 18261392183529360128
23598288 3 18260553355258002315
268830 7 16515404088061600484
5104073 3 18186240632047801344
5281201 14 12252173040167156872
5385378 56 18053388691717542665
559249 180 18335414621767692571
633830 44 17313104154926774640

>  <PUBCHEM_SHAPE_MULTIPOLES>  (1) 
388.81
11.75
3.23
1.61
1.4
1.81
0
-1.84
-0.55
-4.22
1.51
0.03
0.22
0.05

>  <PUBCHEM_SHAPE_SELFOVERLAP>  (1) 
703.001

>  <PUBCHEM_SHAPE_VOLUME>  (1) 
252.1

>  <PUBCHEM_COORDINATE_TYPE>  (1) 
2
5
10

$$$$
