32053
     RDKit          3D

 12 12  0  0  0  0  0  0  0  0999 V2000
   -3.3935   -0.3410    0.0065 N   0  0  0  0  0  0  0  0  0  0  0  0
    0.1453    0.7285   -0.0036 N   0  0  0  0  0  0  0  0  0  0  0  0
   -2.2642    0.5802    0.0302 C   0  0  0  0  0  0  0  0  0  0  0  0
   -0.9505   -0.1904    0.0000 C   0  0  0  0  0  0  0  0  0  0  0  0
   -4.6562    0.3844   -0.0037 C   0  0  0  0  0  0  0  0  0  0  0  0
    1.4933    0.3129   -0.0022 C   0  0  0  0  0  0  0  0  0  0  0  0
   -5.8378   -0.5705   -0.0187 C   0  0  0  0  0  0  0  0  0  0  0  0
    1.8035   -1.0470    0.0029 C   0  0  0  0  0  0  0  0  0  0  0  0
    2.5160    1.2614   -0.0068 C   0  0  0  0  0  0  0  0  0  0  0  0
    3.1363   -1.4584    0.0033 C   0  0  0  0  0  0  0  0  0  0  0  0
    3.8488    0.8500   -0.0064 C   0  0  0  0  0  0  0  0  0  0  0  0
    4.1590   -0.5099   -0.0014 C   0  0  0  0  0  0  0  0  0  0  0  0
  1  3  1  0
  1  5  1  0
  2  4  1  0
  2  6  1  0
  3  4  1  0
  5  7  1  0
  6  8  2  0
  6  9  1  0
  8 10  1  0
  9 11  2  0
 10 12  2  0
 11 12  1  0
M  END
>  <PUBCHEM_COMPOUND_CID>  (1) 
32053

>  <PUBCHEM_CONFORMER_RMSD>  (1) 
0.6

>  <PUBCHEM_CONFORMER_DIVERSEORDER>  (1) 
1
29
6
25
15
19
21
32
24
17
37
14
23
10
27
30
28
8
4
31
11
9
26
34
7
16
36
20
22
5
3
12
33
13
35
2
18

>  <PUBCHEM_MMFF94_PARTIAL_CHARGES>  (1) 
18
1 -0.9
10 -0.15
11 -0.15
12 -0.15
17 0.36
18 0.4
2 -0.87
24 0.15
25 0.15
26 0.15
27 0.15
28 0.15
3 0.27
4 0.37
5 0.27
6 0.1
8 -0.15
9 -0.15

>  <PUBCHEM_EFFECTIVE_ROTOR_COUNT>  (1) 
5

>  <PUBCHEM_PHARMACOPHORE_FEATURES>  (1) 
5
1 1 cation
1 1 donor
1 2 cation
1 2 donor
6 6 8 9 10 11 12 rings

>  <PUBCHEM_HEAVY_ATOM_COUNT>  (1) 
12

>  <PUBCHEM_ATOM_DEF_STEREO_COUNT>  (1) 
0

>  <PUBCHEM_ATOM_UDEF_STEREO_COUNT>  (1) 
0

>  <PUBCHEM_BOND_DEF_STEREO_COUNT>  (1) 
0

>  <PUBCHEM_BOND_UDEF_STEREO_COUNT>  (1) 
0

>  <PUBCHEM_ISOTOPIC_ATOM_COUNT>  (1) 
0

>  <PUBCHEM_COMPONENT_COUNT>  (1) 
1

>  <PUBCHEM_CACTVS_TAUTO_COUNT>  (1) 
1

>  <PUBCHEM_CONFORMER_ID>  (1) 
00007D3500000001

>  <PUBCHEM_MMFF94_ENERGY>  (1) 
23.2213

>  <PUBCHEM_FEATURE_SELFOVERLAP>  (1) 
25.371

>  <PUBCHEM_SHAPE_FINGERPRINT>  (1) 
11287383 113 18040437728457125065
11471102 20 18409730664439435852
13167823 11 18343017809504500311
14123238 8 18411138043718085815
1420 363 17822298998505426347
14251717 144 18411138017642651690
14252887 29 17989214715544779910
15242433 33 18342176687171947943
15477762 27 18410013204705186038
17834072 33 18342737451113453687
17834076 25 18187085065809830180
200 152 18272931613929040521
20279233 1 17676494942619213147
20645477 70 18410575046040554574
20719005 15 18410856559966850177
22485316 2 18410854369644409479
23402539 116 18059850658913625957
23402655 69 18412261726920864821
23557571 272 17240479169923456381
33824 294 18334856100084016770
42 15 18410576167401045429
4214541 1 18410573951493618565
42788 4 18410292510818338181
522135 26 18410575080616050998
5374978 207 18060133241168901496
57483677 66 18412260658165221375
69090 78 18409165528289970003
77779 3 18410575067942282061

>  <PUBCHEM_SHAPE_MULTIPOLES>  (1) 
236.99
11.39
1.23
0.6
15.77
0.11
0
1.4
-0.05
-1.1
0
-0.02
0
-0.01

>  <PUBCHEM_SHAPE_SELFOVERLAP>  (1) 
466.726

>  <PUBCHEM_SHAPE_VOLUME>  (1) 
142.2

>  <PUBCHEM_COORDINATE_TYPE>  (1) 
2
5
10

$$$$
