32056
     RDKit          3D

 16 17  0  0  1  0  0  0  0  0999 V2000
    5.6185   -0.1196   -0.7255 N   0  0  0  0  0  0  0  0  0  0  0  0
    3.4756   -0.7264    0.3076 C   0  0  0  0  0  0  0  0  0  0  0  0
    4.2781    0.3785   -0.4032 C   0  0  0  0  0  0  0  0  0  0  0  0
    1.9800   -0.5364    0.2242 C   0  0  0  0  0  0  0  0  0  0  0  0
   -0.7652   -0.1887    0.0719 C   0  0  0  0  0  0  0  0  0  0  0  0
    1.3318    0.1892    1.2110 C   0  0  0  0  0  0  0  0  0  0  0  0
    1.2831   -1.0917   -0.8369 C   0  0  0  0  0  0  0  0  0  0  0  0
    4.4256    1.6375    0.4515 C   0  0  0  0  0  0  0  0  0  0  0  0
   -0.0500    0.3640    1.1342 C   0  0  0  0  0  0  0  0  0  0  0  0
   -0.0986   -0.9167   -0.9138 C   0  0  0  0  0  0  0  0  0  0  0  0
   -2.1985   -0.0066   -0.0079 C   0  0  0  0  0  0  0  0  0  0  0  0
   -3.0536   -0.9325    0.5892 C   0  0  0  0  0  0  0  0  0  0  0  0
   -2.7243    1.0941   -0.6840 C   0  0  0  0  0  0  0  0  0  0  0  0
   -4.4353   -0.7574    0.5102 C   0  0  0  0  0  0  0  0  0  0  0  0
   -4.1059    1.2693   -0.7628 C   0  0  0  0  0  0  0  0  0  0  0  0
   -4.9614    0.3435   -0.1656 C   0  0  0  0  0  0  0  0  0  0  0  0
  1  3  1  0
  2  3  1  0
  2  4  1  0
  3  8  1  0
  4  6  2  0
  4  7  1  0
  5  9  2  0
  5 10  1  0
  5 11  1  0
  6  9  1  0
  7 10  2  0
 11 12  2  0
 11 13  1  0
 12 14  1  0
 13 15  2  0
 14 16  2  0
 15 16  1  0
M  END
>  <PUBCHEM_COMPOUND_CID>  (1) 
32056

>  <PUBCHEM_CONFORMER_RMSD>  (1) 
0.6

>  <PUBCHEM_CONFORMER_DIVERSEORDER>  (1) 
1
8
2
4
6
7
3
9
5

>  <PUBCHEM_MMFF94_PARTIAL_CHARGES>  (1) 
24
1 -0.99
10 -0.15
12 -0.15
13 -0.15
14 -0.15
15 -0.15
16 -0.15
2 0.14
20 0.15
21 0.15
25 0.15
26 0.15
27 0.36
28 0.36
29 0.15
3 0.27
30 0.15
31 0.15
32 0.15
33 0.15
4 -0.14
6 -0.15
7 -0.15
9 -0.15

>  <PUBCHEM_EFFECTIVE_ROTOR_COUNT>  (1) 
3

>  <PUBCHEM_PHARMACOPHORE_FEATURES>  (1) 
4
1 1 cation
1 1 donor
6 11 12 13 14 15 16 rings
6 4 5 6 7 9 10 rings

>  <PUBCHEM_HEAVY_ATOM_COUNT>  (1) 
16

>  <PUBCHEM_ATOM_DEF_STEREO_COUNT>  (1) 
0

>  <PUBCHEM_ATOM_UDEF_STEREO_COUNT>  (1) 
1

>  <PUBCHEM_BOND_DEF_STEREO_COUNT>  (1) 
0

>  <PUBCHEM_BOND_UDEF_STEREO_COUNT>  (1) 
0

>  <PUBCHEM_ISOTOPIC_ATOM_COUNT>  (1) 
0

>  <PUBCHEM_COMPONENT_COUNT>  (1) 
1

>  <PUBCHEM_CACTVS_TAUTO_COUNT>  (1) 
1

>  <PUBCHEM_CONFORMER_ID>  (1) 
00007D3800000001

>  <PUBCHEM_MMFF94_ENERGY>  (1) 
40.6547

>  <PUBCHEM_FEATURE_SELFOVERLAP>  (1) 
20.297

>  <PUBCHEM_SHAPE_FINGERPRINT>  (1) 
106641 1 13768222622086179884
11128504 68 16486972929628729528
11132069 177 15285358409770976915
11287383 113 18409168835213931656
11471102 20 17561080315358837418
12107183 9 16957579054355300624
12236239 1 16443061686705799403
12670546 56 17531517703014675331
13081056 2 18411699898339139940
13675066 3 15936412182881604503
13760787 19 18334290963781238674
13760787 5 17274824657758668738
13862211 1 16917066629591761382
14123238 8 17967814950703006111
14252887 29 13045936872669787848
14911166 2 17203325615654083182
14993402 34 16200426970619536015
15048467 5 17894349968817631844
15209294 21 16588017979148374525
15239154 128 18261110777003276052
17834072 33 18186799192581074898
1813 80 15410905067205236496
18186145 218 16702008799117270915
19026448 4 18260550000261063010
200 152 16630237048755185659
204376 136 18059855077712527551
20645477 56 18186803543931448581
20645477 70 18129664088962454374
231179 274 18413103966050136120
23227448 37 18196087965902762236
23402539 116 17894346700621910583
23402655 69 17274820195620171985
23557571 272 18260836972758937637
23559900 14 18121209892527355026
296302 2 18335139774094123003
300161 21 17168134625300229375
34797466 226 18262815045816933358
3545911 37 18187367614275170229
3759504 43 18341330075856042902
465052 167 11025800868838109368
474 4 16443357519478716540
4990 188 13902193685850713836
5104073 3 17968094171006717953
542803 24 18343584019126797305
77779 3 18187363207675764747
9971528 1 15936411100771807902

>  <PUBCHEM_SHAPE_MULTIPOLES>  (1) 
324.29
11.05
1.26
1.05
3.57
0.26
0.07
2.41
-1.19
0.06
-0.1
0.09
0
0.81

>  <PUBCHEM_SHAPE_SELFOVERLAP>  (1) 
688.809

>  <PUBCHEM_SHAPE_VOLUME>  (1) 
180.1

>  <PUBCHEM_COORDINATE_TYPE>  (1) 
2
5
10

$$$$
