32068
     RDKit          3D

 22 22  0  0  0  0  0  0  0  0999 V2000
   -1.0183   -2.3155    0.1183 F   0  0  0  0  0  0  0  0  0  0  0  0
   -2.3355   -1.3132    1.5418 F   0  0  0  0  0  0  0  0  0  0  0  0
   -2.8780   -1.4034   -0.5709 F   0  0  0  0  0  0  0  0  0  0  0  0
   -3.0492    1.2614   -0.5110 F   0  0  0  0  0  0  0  0  0  0  0  0
   -2.4865    1.1569    1.5958 F   0  0  0  0  0  0  0  0  0  0  0  0
   -1.3150    2.3730    0.2121 F   0  0  0  0  0  0  0  0  0  0  0  0
    2.4850   -1.3269    1.3528 F   0  0  0  0  0  0  0  0  0  0  0  0
    1.1741   -2.3085   -0.0907 F   0  0  0  0  0  0  0  0  0  0  0  0
    2.9994   -1.3214   -0.7688 F   0  0  0  0  0  0  0  0  0  0  0  0
    3.1517    1.2085   -0.7258 F   0  0  0  0  0  0  0  0  0  0  0  0
    1.4564    2.3836   -0.0105 F   0  0  0  0  0  0  0  0  0  0  0  0
    2.6375    1.2031    1.3958 F   0  0  0  0  0  0  0  0  0  0  0  0
    0.0921    0.0710    0.8727 N   0  0  0  0  0  0  0  0  0  0  0  0
    0.7302    0.1004   -1.4662 N   0  0  0  0  0  0  0  0  0  0  0  0
   -1.4279    0.1252   -2.4358 N   0  0  0  0  0  0  0  0  0  0  0  0
   -1.1197    0.0342    0.0440 C   0  0  0  0  0  0  0  0  0  0  0  0
    1.2131    0.0441   -0.0754 C   0  0  0  0  0  0  0  0  0  0  0  0
   -0.5664    0.0927   -1.3722 C   0  0  0  0  0  0  0  0  0  0  0  0
   -1.8559   -1.2819    0.2894 C   0  0  0  0  0  0  0  0  0  0  0  0
   -2.0156    1.2371    0.3430 C   0  0  0  0  0  0  0  0  0  0  0  0
    1.9884   -1.2630    0.1094 C   0  0  0  0  0  0  0  0  0  0  0  0
    2.1400    1.2426    0.1522 C   0  0  0  0  0  0  0  0  0  0  0  0
  1 19  1  0
  2 19  1  0
  3 19  1  0
  4 20  1  0
  5 20  1  0
  6 20  1  0
  7 21  1  0
  8 21  1  0
  9 21  1  0
 10 22  1  0
 11 22  1  0
 12 22  1  0
 13 16  1  0
 13 17  1  0
 14 17  1  0
 14 18  2  0
 15 18  1  0
 16 18  1  0
 16 19  1  0
 16 20  1  0
 17 21  1  0
 17 22  1  0
M  END
>  <PUBCHEM_COMPOUND_CID>  (1) 
32068

>  <PUBCHEM_CONFORMER_RMSD>  (1) 
0.8

>  <PUBCHEM_CONFORMER_DIVERSEORDER>  (1) 
1

>  <PUBCHEM_MMFF94_PARTIAL_CHARGES>  (1) 
25
1 -0.34
10 -0.34
11 -0.34
12 -0.34
13 -0.9
14 -0.7
15 -0.85
16 0.33
17 0.52
18 0.44
19 1.02
2 -0.34
20 1.02
21 1.02
22 1.02
23 0.36
24 0.4
25 0.4
3 -0.34
4 -0.34
5 -0.34
6 -0.34
7 -0.34
8 -0.34
9 -0.34

>  <PUBCHEM_EFFECTIVE_ROTOR_COUNT>  (1) 
4.6

>  <PUBCHEM_PHARMACOPHORE_FEATURES>  (1) 
5
1 13 cation
1 13 donor
1 15 donor
3 14 15 18 cation
5 13 14 16 17 18 rings

>  <PUBCHEM_HEAVY_ATOM_COUNT>  (1) 
22

>  <PUBCHEM_ATOM_DEF_STEREO_COUNT>  (1) 
0

>  <PUBCHEM_ATOM_UDEF_STEREO_COUNT>  (1) 
0

>  <PUBCHEM_BOND_DEF_STEREO_COUNT>  (1) 
0

>  <PUBCHEM_BOND_UDEF_STEREO_COUNT>  (1) 
0

>  <PUBCHEM_ISOTOPIC_ATOM_COUNT>  (1) 
0

>  <PUBCHEM_COMPONENT_COUNT>  (1) 
1

>  <PUBCHEM_CACTVS_TAUTO_COUNT>  (1) 
2

>  <PUBCHEM_CONFORMER_ID>  (1) 
00007D4400000001

>  <PUBCHEM_MMFF94_ENERGY>  (1) 
37.4659

>  <PUBCHEM_FEATURE_SELFOVERLAP>  (1) 
25.379

>  <PUBCHEM_SHAPE_FINGERPRINT>  (1) 
10863032 1 18343298180463261837
12423570 1 15393971127821841767
13027679 85 17831862343852811022
13140716 1 18410858715750347970
13172582 1 18044930169437856610
14223421 5 18338802332866823314
144361 1 17458346342299930959
14787075 74 17114665670592826237
15852999 172 17827035685211527990
16945 1 18124878958401764087
18981168 100 18341606040515819352
20082192 1 17822558461046848404
20511035 2 17988645142662221232
20525323 117 18200870806854797945
21501502 16 18410293609728644274
2334 1 18410577318077773466
23419403 2 17178519735799336701
23559900 14 18412542111076018110
2748010 2 18410577288007727566
74978 22 18338234868971332566

>  <PUBCHEM_SHAPE_MULTIPOLES>  (1) 
350.52
4.33
2.23
1.45
0.67
0.05
0.39
-0.23
-0.52
0.1
-0.35
-0.41
-0.04
0.01

>  <PUBCHEM_SHAPE_SELFOVERLAP>  (1) 
769.282

>  <PUBCHEM_SHAPE_VOLUME>  (1) 
189.3

>  <PUBCHEM_COORDINATE_TYPE>  (1) 
2
5
10

$$$$
