32073
     RDKit          3D

 30 32  0  0  0  0  0  0  0  0999 V2000
   -7.7970    2.8389   -0.0350 F   0  0  0  0  0  0  0  0  0  0  0  0
    2.9695   -3.1056    0.6478 O   0  0  0  0  0  0  0  0  0  0  0  0
    3.7723    1.8947   -2.3797 O   0  0  0  0  0  0  0  0  0  0  0  0
    4.4578    1.4674    2.3409 O   0  0  0  0  0  0  0  0  0  0  0  0
    4.6257    2.9748    0.0235 O   0  0  0  0  0  0  0  0  0  0  0  0
   -1.0972   -2.1861    0.1577 N   0  0  0  0  0  0  0  0  0  0  0  0
   -3.4573   -0.5777    0.2042 N   0  0  0  0  0  0  0  0  0  0  0  0
   -1.5410   -1.5534    1.4057 C   0  0  0  0  0  0  0  0  0  0  0  0
   -2.2617   -2.5531   -0.6577 C   0  0  0  0  0  0  0  0  0  0  0  0
   -2.3520   -0.2865    1.1223 C   0  0  0  0  0  0  0  0  0  0  0  0
   -3.0957   -1.3193   -1.0104 C   0  0  0  0  0  0  0  0  0  0  0  0
   -0.2788   -3.3642    0.4425 C   0  0  0  0  0  0  0  0  0  0  0  0
    0.5584   -3.7355   -0.7832 C   0  0  0  0  0  0  0  0  0  0  0  0
   -4.5558    0.2872    0.1439 C   0  0  0  0  0  0  0  0  0  0  0  0
    1.5042   -2.6072   -1.2040 C   0  0  0  0  0  0  0  0  0  0  0  0
   -5.8175   -0.2097   -0.1831 C   0  0  0  0  0  0  0  0  0  0  0  0
   -4.3889    1.6463    0.4101 C   0  0  0  0  0  0  0  0  0  0  0  0
    2.5502   -2.2709   -0.1505 C   0  0  0  0  0  0  0  0  0  0  0  0
   -6.9123    0.6525   -0.2437 C   0  0  0  0  0  0  0  0  0  0  0  0
   -5.4836    2.5084    0.3494 C   0  0  0  0  0  0  0  0  0  0  0  0
    3.0971   -0.8847   -0.1042 C   0  0  0  0  0  0  0  0  0  0  0  0
   -6.7453    2.0115    0.0225 C   0  0  0  0  0  0  0  0  0  0  0  0
    3.5267   -0.3445    1.1080 C   0  0  0  0  0  0  0  0  0  0  0  0
    3.1812   -0.1289   -1.2734 C   0  0  0  0  0  0  0  0  0  0  0  0
    3.6952    1.1672   -1.2305 C   0  0  0  0  0  0  0  0  0  0  0  0
    4.0409    0.9515    1.1508 C   0  0  0  0  0  0  0  0  0  0  0  0
    4.1251    1.7073   -0.0185 C   0  0  0  0  0  0  0  0  0  0  0  0
    3.3117    1.2684   -3.5754 C   0  0  0  0  0  0  0  0  0  0  0  0
    4.3374    0.6291    3.4884 C   0  0  0  0  0  0  0  0  0  0  0  0
    6.0307    3.1221   -0.1683 C   0  0  0  0  0  0  0  0  0  0  0  0
  1 22  1  0
  2 18  2  0
  3 25  1  0
  3 28  1  0
  4 26  1  0
  4 29  1  0
  5 27  1  0
  5 30  1  0
  6  8  1  0
  6  9  1  0
  6 12  1  0
  7 10  1  0
  7 11  1  0
  7 14  1  0
  8 10  1  0
  9 11  1  0
 12 13  1  0
 13 15  1  0
 14 16  2  0
 14 17  1  0
 15 18  1  0
 16 19  1  0
 17 20  2  0
 18 21  1  0
 19 22  2  0
 20 22  1  0
 21 23  2  0
 21 24  1  0
 23 26  1  0
 24 25  2  0
 25 27  1  0
 26 27  2  0
M  END
>  <PUBCHEM_COMPOUND_CID>  (1) 
32073

>  <PUBCHEM_CONFORMER_RMSD>  (1) 
1

>  <PUBCHEM_CONFORMER_DIVERSEORDER>  (1) 
2
4
38
21
60
30
46
40
87
66
26
52
12
35
5
84
37
49
36
32
79
10
58
45
43
7
56
18
23
89
33
92
78
29
65
17
75
88
81
82
47
70
31
8
22
3
51
67
62
55
39
85
13
1
16
68
76
61
64
53
57
44
50
71
54
34
74
72
86
14
73
48
24
42
6
15
19
9
90
59
11
80
69
41
20
77
91
63
83
25
28
27

>  <PUBCHEM_MMFF94_PARTIAL_CHARGES>  (1) 
35
1 -0.19
10 0.37
11 0.37
12 0.27
14 0.1
15 0.06
16 -0.15
17 -0.15
18 0.42
19 -0.15
2 -0.57
20 -0.15
21 0.09
22 0.19
23 -0.15
24 -0.15
25 0.08
26 0.08
27 0.08
28 0.28
29 0.28
3 -0.36
30 0.28
4 -0.36
45 0.15
46 0.15
47 0.15
48 0.15
49 0.15
5 -0.36
50 0.15
6 -0.81
7 -0.84
8 0.27
9 0.27

>  <PUBCHEM_EFFECTIVE_ROTOR_COUNT>  (1) 
10.2

>  <PUBCHEM_PHARMACOPHORE_FEATURES>  (1) 
9
1 2 acceptor
1 3 acceptor
1 4 acceptor
1 5 acceptor
1 6 cation
1 7 cation
6 14 16 17 19 20 22 rings
6 21 23 24 25 26 27 rings
6 6 7 8 9 10 11 rings

>  <PUBCHEM_HEAVY_ATOM_COUNT>  (1) 
30

>  <PUBCHEM_ATOM_DEF_STEREO_COUNT>  (1) 
0

>  <PUBCHEM_ATOM_UDEF_STEREO_COUNT>  (1) 
0

>  <PUBCHEM_BOND_DEF_STEREO_COUNT>  (1) 
0

>  <PUBCHEM_BOND_UDEF_STEREO_COUNT>  (1) 
0

>  <PUBCHEM_ISOTOPIC_ATOM_COUNT>  (1) 
0

>  <PUBCHEM_COMPONENT_COUNT>  (1) 
1

>  <PUBCHEM_CACTVS_TAUTO_COUNT>  (1) 
2

>  <PUBCHEM_CONFORMER_ID>  (1) 
00007D4900000002

>  <PUBCHEM_MMFF94_ENERGY>  (1) 
114.0667

>  <PUBCHEM_FEATURE_SELFOVERLAP>  (1) 
45.684

>  <PUBCHEM_SHAPE_FINGERPRINT>  (1) 
10190108 129 16950552278455523912
10439779 11 18266168620875288912
10498660 4 18058741324152435482
10622 236 12749868052079908708
10673678 19 18271244920453972199
10675989 125 18341899532605751129
11720765 8 17914917348335157310
1200032 147 17531827826003427956
12047536 79 15213021549002746767
12422481 6 17531241713212394661
12633257 1 16443905110655584358
13878862 14 18264474097479083807
13965767 371 17968650636013059638
14117953 113 18341328912378522860
14294032 229 18126851727271198995
14468879 13 18336274517254739451
15198563 99 17481702370414710215
15979999 66 17553213107631008854
16988056 13 18125733279253701070
17810953 82 18409449159028825574
19053607 189 18341322357688996976
20715895 44 18340764845364359331
20982279 24 14926430523952633072
21968339 14 17274832333303089982
22956985 138 8488409627151994934
23559900 14 18338804394557399831
23569914 2 16483286387801542912
241686 156 17547019528841437289
245318 6 18261126166092351967
2748736 6 18409721872826289797
345986 75 12468648209638701231
34797466 226 16773793693561558295
44249763 50 17345175891455231543
44317340 157 18271251504760039323
508180 173 17837230189557796886
5109719 28 18335712628917551145
513532 50 17917715665092794894
5372103 7 16127223754606969274
56633871 153 11530478965214015889
57091435 61 18337952290678747987
57724786 102 17894635872264509518
59025328 239 14691475892242741640
5951187 136 17632295653267037744
6036956 94 17397549083435218813
6677587 24 15840681038430998064
7288768 16 18114181986069913467
9849439 229 18410290345622214051

>  <PUBCHEM_SHAPE_MULTIPOLES>  (1) 
576.67
17.35
4.37
2.25
24.8
1.83
-0.12
-19.85
0.92
-1.21
-0.55
-5.04
-1.01
-0.54

>  <PUBCHEM_SHAPE_SELFOVERLAP>  (1) 
1212.926

>  <PUBCHEM_SHAPE_VOLUME>  (1) 
328.1

>  <PUBCHEM_COORDINATE_TYPE>  (1) 
2
5
10

$$$$
