32089
     RDKit          3D

 24 26  0  0  1  0  0  0  0  0999 V2000
    1.2242    0.3707   -1.8527 S   0  0  0  0  0  0  0  0  0  0  0  0
    1.0168    1.5817   -2.6291 O   0  0  0  0  0  0  0  0  0  0  0  0
    1.8862   -0.7724   -2.4561 O   0  0  0  0  0  0  0  0  0  0  0  0
    0.3680    0.0094    2.4852 O   0  0  0  0  0  0  0  0  0  0  0  0
   -4.8062    1.1489    0.5417 N   0  0  0  0  0  0  0  0  0  0  0  0
   -0.3821   -0.1433   -1.3085 C   0  0  0  0  0  0  0  0  0  0  0  0
   -1.1991    0.9548   -0.6363 C   0  0  0  0  0  0  0  0  0  0  0  0
   -0.2196   -1.4190   -0.5296 C   0  0  0  0  0  0  0  0  0  0  0  0
   -2.6314    0.4966   -0.3813 C   0  0  0  0  0  0  0  0  0  0  0  0
    2.2339    0.8368   -0.4793 C   0  0  0  0  0  0  0  0  0  0  0  0
    0.3936   -1.4772    0.7234 C   0  0  0  0  0  0  0  0  0  0  0  0
   -3.4340    1.5900    0.3217 C   0  0  0  0  0  0  0  0  0  0  0  0
    1.9831    0.5436    0.8631 C   0  0  0  0  0  0  0  0  0  0  0  0
    0.8746   -0.2733    1.4026 C   0  0  0  0  0  0  0  0  0  0  0  0
   -0.6916   -2.6223   -1.0848 C   0  0  0  0  0  0  0  0  0  0  0  0
    3.3569    1.6081   -0.8278 C   0  0  0  0  0  0  0  0  0  0  0  0
    0.5151   -2.6888    1.4178 C   0  0  0  0  0  0  0  0  0  0  0  0
    2.8623    1.0513    1.8395 C   0  0  0  0  0  0  0  0  0  0  0  0
   -0.5618   -3.8348   -0.4040 C   0  0  0  0  0  0  0  0  0  0  0  0
    0.0411   -3.8674    0.8489 C   0  0  0  0  0  0  0  0  0  0  0  0
    4.2213    2.0954    0.1497 C   0  0  0  0  0  0  0  0  0  0  0  0
    3.9716    1.8199    1.4864 C   0  0  0  0  0  0  0  0  0  0  0  0
   -5.4486    0.8093   -0.7291 C   0  0  0  0  0  0  0  0  0  0  0  0
   -5.5744    2.1821    1.2386 C   0  0  0  0  0  0  0  0  0  0  0  0
  1  2  2  0
  1  3  2  0
  1  6  1  0
  1 10  1  0
  4 14  2  0
  5 12  1  0
  5 23  1  0
  5 24  1  0
  6  7  1  0
  6  8  1  0
  7  9  1  0
  8 11  2  0
  8 15  1  0
  9 12  1  0
 10 13  2  0
 10 16  1  0
 11 14  1  0
 11 17  1  0
 13 14  1  0
 13 18  1  0
 15 19  2  0
 16 21  2  0
 17 20  2  0
 18 22  2  0
 19 20  1  0
 21 22  1  0
M  END
>  <PUBCHEM_COMPOUND_CID>  (1) 
32089

>  <PUBCHEM_CONFORMER_RMSD>  (1) 
0.8

>  <PUBCHEM_CONFORMER_DIVERSEORDER>  (1) 
1
36
22
29
18
10
20
8
35
16
7
15
11
5
19
2
24
34
4
33
38
32
31
23
13
26
40
28
12
9
21
3
41
14
27
39
37
30
6
17
25

>  <PUBCHEM_MMFF94_PARTIAL_CHARGES>  (1) 
30
1 1.2
10 -0.01
11 0.09
12 0.27
13 0.09
14 0.4
15 -0.15
16 -0.15
17 -0.15
18 -0.15
19 -0.15
2 -0.65
20 -0.15
21 -0.15
22 -0.15
23 0.27
24 0.27
3 -0.65
32 0.15
33 0.15
34 0.15
35 0.15
36 0.15
37 0.15
38 0.15
39 0.15
4 -0.57
5 -0.81
6 0.25
8 -0.14

>  <PUBCHEM_EFFECTIVE_ROTOR_COUNT>  (1) 
4.2

>  <PUBCHEM_PHARMACOPHORE_FEATURES>  (1) 
7
1 2 acceptor
1 3 acceptor
1 4 acceptor
1 5 cation
6 10 13 16 18 21 22 rings
6 8 11 15 17 19 20 rings
7 1 6 8 10 11 13 14 rings

>  <PUBCHEM_HEAVY_ATOM_COUNT>  (1) 
24

>  <PUBCHEM_ATOM_DEF_STEREO_COUNT>  (1) 
0

>  <PUBCHEM_ATOM_UDEF_STEREO_COUNT>  (1) 
1

>  <PUBCHEM_BOND_DEF_STEREO_COUNT>  (1) 
0

>  <PUBCHEM_BOND_UDEF_STEREO_COUNT>  (1) 
0

>  <PUBCHEM_ISOTOPIC_ATOM_COUNT>  (1) 
0

>  <PUBCHEM_COMPONENT_COUNT>  (1) 
1

>  <PUBCHEM_CACTVS_TAUTO_COUNT>  (1) 
1

>  <PUBCHEM_CONFORMER_ID>  (1) 
00007D5900000001

>  <PUBCHEM_MMFF94_ENERGY>  (1) 
72.7482

>  <PUBCHEM_FEATURE_SELFOVERLAP>  (1) 
35.553

>  <PUBCHEM_SHAPE_FINGERPRINT>  (1) 
10863032 1 18270953669951925606
11578080 2 17411101539135886468
11823591 26 18338784680593889633
12035758 1 18116413874942398042
12788726 201 17613170971410038047
13955234 65 18122637063400121603
13965767 371 18115017503258803725
14251757 17 15913330229779916241
14468879 13 17273122729781394264
14863182 85 18114191787205725621
16945 1 17979902028420260054
18785283 64 18262790749271810138
20600515 1 16678608120877139219
20723712 36 17967816054536416972
23419403 2 17627834981706279222
23558518 356 17103136140320337980
23559900 14 17752497451987969517
404807 78 18044092578877417811
427121 178 18412548699571758701
57527585 21 16978120581494395052
59755656 520 18412255164437683420
6442390 28 18341897419898150107
6786 2 18413113869944586139
9999458 23 18340201869572347774

>  <PUBCHEM_SHAPE_MULTIPOLES>  (1) 
475.17
7.87
3.76
2.19
10.84
4.86
-0.4
-10.28
2.13
0.64
0.71
-1.23
-0.27
-0.54

>  <PUBCHEM_SHAPE_SELFOVERLAP>  (1) 
1010.467

>  <PUBCHEM_SHAPE_VOLUME>  (1) 
264.8

>  <PUBCHEM_COORDINATE_TYPE>  (1) 
2
5
10

$$$$
