32092
     RDKit          3D

 18 20  0  0  0  0  0  0  0  0999 V2000
   -1.6520   -2.7129   -0.0052 O   0  0  0  0  0  0  0  0  0  0  0  0
   -1.6518    2.7128   -0.0052 O   0  0  0  0  0  0  0  0  0  0  0  0
   -3.9834   -1.3560    0.0060 O   0  0  0  0  0  0  0  0  0  0  0  0
   -3.9834    1.3562    0.0080 O   0  0  0  0  0  0  0  0  0  0  0  0
    0.8085   -1.3794   -0.0019 N   0  0  0  0  0  0  0  0  0  0  0  0
    0.8086    1.3793   -0.0024 N   0  0  0  0  0  0  0  0  0  0  0  0
   -0.3858   -0.6774   -0.0026 C   0  0  0  0  0  0  0  0  0  0  0  0
   -0.3858    0.6773   -0.0028 C   0  0  0  0  0  0  0  0  0  0  0  0
    2.0487   -0.7094   -0.0007 C   0  0  0  0  0  0  0  0  0  0  0  0
    2.0487    0.7093   -0.0009 C   0  0  0  0  0  0  0  0  0  0  0  0
   -1.6297   -1.4924   -0.0031 C   0  0  0  0  0  0  0  0  0  0  0  0
   -1.6295    1.4924   -0.0030 C   0  0  0  0  0  0  0  0  0  0  0  0
    3.2593   -1.4042    0.0020 C   0  0  0  0  0  0  0  0  0  0  0  0
    3.2594    1.4041    0.0009 C   0  0  0  0  0  0  0  0  0  0  0  0
   -2.9293   -0.7474    0.0014 C   0  0  0  0  0  0  0  0  0  0  0  0
   -2.9293    0.7474    0.0019 C   0  0  0  0  0  0  0  0  0  0  0  0
    4.4633   -0.6984    0.0041 C   0  0  0  0  0  0  0  0  0  0  0  0
    4.4634    0.6984    0.0035 C   0  0  0  0  0  0  0  0  0  0  0  0
  1 11  2  0
  2 12  2  0
  3 15  2  0
  4 16  2  0
  5  7  1  0
  5  9  1  0
  6  8  1  0
  6 10  1  0
  7  8  2  0
  7 11  1  0
  8 12  1  0
  9 10  2  0
  9 13  1  0
 10 14  1  0
 11 15  1  0
 12 16  1  0
 13 17  2  0
 14 18  2  0
 15 16  1  0
 17 18  1  0
M  END
>  <PUBCHEM_COMPOUND_CID>  (1) 
32092

>  <PUBCHEM_CONFORMER_RMSD>  (1) 
0.6

>  <PUBCHEM_CONFORMER_DIVERSEORDER>  (1) 
1

>  <PUBCHEM_MMFF94_PARTIAL_CHARGES>  (1) 
24
1 -0.57
10 0.1
11 0.56
12 0.56
13 -0.15
14 -0.15
15 0.57
16 0.57
17 -0.15
18 -0.15
19 0.4
2 -0.57
20 0.4
21 0.15
22 0.15
23 0.15
24 0.15
3 -0.57
4 -0.57
5 -0.6
6 -0.6
7 0.11
8 0.11
9 0.1

>  <PUBCHEM_EFFECTIVE_ROTOR_COUNT>  (1) 
0.4

>  <PUBCHEM_PHARMACOPHORE_FEATURES>  (1) 
13
1 1 acceptor
1 15 anion
1 16 anion
1 2 acceptor
1 3 acceptor
1 4 acceptor
1 5 cation
1 5 donor
1 6 cation
1 6 donor
6 5 6 7 8 9 10 rings
6 7 8 11 12 15 16 rings
6 9 10 13 14 17 18 rings

>  <PUBCHEM_HEAVY_ATOM_COUNT>  (1) 
18

>  <PUBCHEM_ATOM_DEF_STEREO_COUNT>  (1) 
0

>  <PUBCHEM_ATOM_UDEF_STEREO_COUNT>  (1) 
0

>  <PUBCHEM_BOND_DEF_STEREO_COUNT>  (1) 
0

>  <PUBCHEM_BOND_UDEF_STEREO_COUNT>  (1) 
0

>  <PUBCHEM_ISOTOPIC_ATOM_COUNT>  (1) 
0

>  <PUBCHEM_COMPONENT_COUNT>  (1) 
1

>  <PUBCHEM_CACTVS_TAUTO_COUNT>  (1) 
7

>  <PUBCHEM_CONFORMER_ID>  (1) 
00007D5C00000001

>  <PUBCHEM_MMFF94_ENERGY>  (1) 
51.9591

>  <PUBCHEM_FEATURE_SELFOVERLAP>  (1) 
67.133

>  <PUBCHEM_SHAPE_FINGERPRINT>  (1) 
10608611 8 18412542119972089576
10616163 171 18411984693294084374
10967382 1 18338517568029533830
11132069 177 18411133636807547992
12173636 292 18338794511810758701
13140716 1 18267027343403052179
13221675 6 18410572881545426570
13380535 76 18341612572987055262
14144814 61 18410292493285060738
14790565 3 18196943162822668153
15196674 1 18410856564013878150
15442244 35 18265330608531686066
15536298 74 18413952784995478022
16945 1 18410575089010793734
17492 89 18409729534747928050
17804303 29 18413111658289207436
17834074 16 18411419501393646934
18186145 218 18040992921610094918
200 152 17917705807747094245
20510252 161 18343303643403355777
21029758 11 18342451599723466725
21267235 1 18337963371177692490
21501502 16 18410856564261804492
221490 88 18337398240002961402
23402539 116 18271800255271947127
23463225 33 18408604760263999764
23557571 272 18272100430203773182
23559900 14 18342454821101763688
2748010 2 17979911932224272529
335352 9 18338798888355767260
4028521 119 18334005078009771477
4214541 1 18410573976936108384
474 4 17168996758544443372
5104073 3 18410855460397181618
54173680 148 18265335186502840259
69090 78 18412259510733421271
7364860 26 18196371420960012590
77779 3 18410857659504825742
8809292 202 18334579095936055234
9709674 26 18413112757869783966

>  <PUBCHEM_SHAPE_MULTIPOLES>  (1) 
336.99
7.87
2.32
0.59
3.07
0
0
0
-0.02
-1.29
0
0.06
0
0

>  <PUBCHEM_SHAPE_SELFOVERLAP>  (1) 
756.022

>  <PUBCHEM_SHAPE_VOLUME>  (1) 
174.5

>  <PUBCHEM_COORDINATE_TYPE>  (1) 
2
5
10

$$$$
