321
     RDKit          3D

 48 52  0  0  0  0  0  0  0  0999 V2000
    4.7366    5.5594   -0.5953 O   0  0  0  0  0  0  0  0  0  0  0  0
    1.7685   -5.1042    2.9894 O   0  0  0  0  0  0  0  0  0  0  0  0
   -0.3155   -6.1897   -0.2018 O   0  0  0  0  0  0  0  0  0  0  0  0
   -8.1865    2.9290   -0.2447 O   0  0  0  0  0  0  0  0  0  0  0  0
    6.4810    4.1932   -1.0852 O   0  0  0  0  0  0  0  0  0  0  0  0
    3.0667   -4.0171    4.5002 O   0  0  0  0  0  0  0  0  0  0  0  0
   -0.8894   -6.2739   -2.3956 O   0  0  0  0  0  0  0  0  0  0  0  0
   -7.7633    0.7423    0.1895 O   0  0  0  0  0  0  0  0  0  0  0  0
    2.3822   -0.8249   -1.0550 N   0  0  0  0  0  0  0  0  0  0  0  0
    1.6778    1.5902    1.5603 N   0  0  0  0  0  0  0  0  0  0  0  0
   -0.6920    0.2059   -2.6778 N   0  0  0  0  0  0  0  0  0  0  0  0
   -1.4570    2.1938    0.1089 N   0  0  0  0  0  0  0  0  0  0  0  0
    3.2853    0.0552   -0.5063 C   0  0  0  0  0  0  0  0  0  0  0  0
    2.4065    0.4465    1.7898 C   0  0  0  0  0  0  0  0  0  0  0  0
   -0.1770   -1.0613   -2.8224 C   0  0  0  0  0  0  0  0  0  0  0  0
    3.5891    0.0738    0.9559 C   0  0  0  0  0  0  0  0  0  0  0  0
    2.2256   -0.5663   -2.3964 C   0  0  0  0  0  0  0  0  0  0  0  0
   -2.6282    1.7076   -0.4218 C   0  0  0  0  0  0  0  0  0  0  0  0
    1.2376   -1.3051   -3.2381 C   0  0  0  0  0  0  0  0  0  0  0  0
   -1.9851    0.1432   -2.2168 C   0  0  0  0  0  0  0  0  0  0  0  0
    0.6056    1.6501    2.4179 C   0  0  0  0  0  0  0  0  0  0  0  0
   -2.7554    1.3739   -1.8710 C   0  0  0  0  0  0  0  0  0  0  0  0
   -1.5713    2.3221    1.4727 C   0  0  0  0  0  0  0  0  0  0  0  0
   -0.4157    2.7341    2.3229 C   0  0  0  0  0  0  0  0  0  0  0  0
    3.7724    0.8353   -1.5361 C   0  0  0  0  0  0  0  0  0  0  0  0
    1.8284   -0.1932    2.8687 C   0  0  0  0  0  0  0  0  0  0  0  0
   -1.1918   -1.9483   -2.5211 C   0  0  0  0  0  0  0  0  0  0  0  0
   -3.5342    1.6068    0.6151 C   0  0  0  0  0  0  0  0  0  0  0  0
    3.1069    0.4451   -2.7229 C   0  0  0  0  0  0  0  0  0  0  0  0
   -2.3280   -1.1920   -2.1428 C   0  0  0  0  0  0  0  0  0  0  0  0
    0.6987    0.5636    3.2647 C   0  0  0  0  0  0  0  0  0  0  0  0
   -2.8702    1.9928    1.8054 C   0  0  0  0  0  0  0  0  0  0  0  0
    4.7882    1.9027   -1.4168 C   0  0  0  0  0  0  0  0  0  0  0  0
    2.3151   -1.4329    3.5107 C   0  0  0  0  0  0  0  0  0  0  0  0
   -1.1137   -3.4226   -2.6008 C   0  0  0  0  0  0  0  0  0  0  0  0
   -4.9489    1.1940    0.5013 C   0  0  0  0  0  0  0  0  0  0  0  0
    3.3040    1.0310   -4.0658 C   0  0  0  0  0  0  0  0  0  0  0  0
   -3.6491   -1.7344   -1.7626 C   0  0  0  0  0  0  0  0  0  0  0  0
   -0.2025    0.2581    4.3953 C   0  0  0  0  0  0  0  0  0  0  0  0
   -3.4681    2.0551    3.1557 C   0  0  0  0  0  0  0  0  0  0  0  0
    4.2134    3.2988   -1.1044 C   0  0  0  0  0  0  0  0  0  0  0  0
    1.7152   -2.7301    2.9320 C   0  0  0  0  0  0  0  0  0  0  0  0
   -0.6675   -4.1103   -1.2948 C   0  0  0  0  0  0  0  0  0  0  0  0
   -5.9314    2.3501    0.2266 C   0  0  0  0  0  0  0  0  0  0  0  0
    5.2779    4.3636   -0.9477 C   0  0  0  0  0  0  0  0  0  0  0  0
    2.2614   -3.9841    3.5804 C   0  0  0  0  0  0  0  0  0  0  0  0
   -0.6356   -5.6204   -1.3936 C   0  0  0  0  0  0  0  0  0  0  0  0
   -7.3665    1.8933    0.0747 C   0  0  0  0  0  0  0  0  0  0  0  0
  1 45  1  0
  2 46  1  0
  3 47  1  0
  4 48  1  0
  5 45  2  0
  6 46  2  0
  7 47  2  0
  8 48  2  0
  9 13  1  0
  9 17  1  0
 10 14  1  0
 10 21  1  0
 11 15  1  0
 11 20  1  0
 12 18  1  0
 12 23  1  0
 13 16  1  0
 13 25  2  0
 14 16  1  0
 14 26  2  0
 15 19  1  0
 15 27  2  0
 17 19  1  0
 17 29  2  0
 18 22  1  0
 18 28  2  0
 20 22  1  0
 20 30  2  0
 21 24  1  0
 21 31  2  0
 23 24  1  0
 23 32  2  0
 25 29  1  0
 25 33  1  0
 26 31  1  0
 26 34  1  0
 27 30  1  0
 27 35  1  0
 28 32  1  0
 28 36  1  0
 29 37  1  0
 30 38  1  0
 31 39  1  0
 32 40  1  0
 33 41  1  0
 34 42  1  0
 35 43  1  0
 36 44  1  0
 41 45  1  0
 42 46  1  0
 43 47  1  0
 44 48  1  0
M  END
>  <PUBCHEM_COMPOUND_CID>  (1) 
321

>  <PUBCHEM_CONFORMER_RMSD>  (1) 
1.4

>  <PUBCHEM_CONFORMER_DIVERSEORDER>  (1) 
1
8
3
7
20
4
2
21
23
19
10
9
11
18
24
15
13
25
17
14
6
27
16
12
26
5
22

>  <PUBCHEM_MMFF94_PARTIAL_CHARGES>  (1) 
56
1 -0.65
10 0.03
11 0.03
12 0.03
13 -0.33
14 -0.33
15 -0.33
16 0.36
17 -0.33
18 -0.33
19 0.36
2 -0.65
20 -0.33
21 -0.33
22 0.36
23 -0.33
24 0.36
25 -0.18
26 -0.18
27 -0.18
28 -0.18
29 -0.18
3 -0.65
30 -0.18
31 -0.18
32 -0.18
33 0.18
34 0.18
35 0.18
36 0.18
37 0.18
38 0.18
39 0.18
4 -0.65
40 0.18
41 0.06
42 0.06
43 0.06
44 0.06
45 0.66
46 0.66
47 0.66
48 0.66
5 -0.57
57 0.27
58 0.27
59 0.27
6 -0.57
60 0.27
7 -0.57
8 -0.57
89 0.5
9 0.03
90 0.5
91 0.5
92 0.5

>  <PUBCHEM_EFFECTIVE_ROTOR_COUNT>  (1) 
12.8

>  <PUBCHEM_PHARMACOPHORE_FEATURES>  (1) 
24
1 1 acceptor
1 10 cation
1 10 donor
1 11 cation
1 11 donor
1 12 cation
1 12 donor
1 2 acceptor
1 3 acceptor
1 4 acceptor
1 5 acceptor
1 6 acceptor
1 7 acceptor
1 8 acceptor
1 9 cation
1 9 donor
3 1 5 45 anion
3 2 6 46 anion
3 3 7 47 anion
3 4 8 48 anion
5 10 14 21 26 31 rings
5 11 15 20 27 30 rings
5 12 18 23 28 32 rings
5 9 13 17 25 29 rings

>  <PUBCHEM_HEAVY_ATOM_COUNT>  (1) 
48

>  <PUBCHEM_ATOM_DEF_STEREO_COUNT>  (1) 
0

>  <PUBCHEM_ATOM_UDEF_STEREO_COUNT>  (1) 
0

>  <PUBCHEM_BOND_DEF_STEREO_COUNT>  (1) 
0

>  <PUBCHEM_BOND_UDEF_STEREO_COUNT>  (1) 
0

>  <PUBCHEM_ISOTOPIC_ATOM_COUNT>  (1) 
0

>  <PUBCHEM_COMPONENT_COUNT>  (1) 
1

>  <PUBCHEM_CACTVS_TAUTO_COUNT>  (1) 
1

>  <PUBCHEM_CONFORMER_ID>  (1) 
0000014100000001

>  <PUBCHEM_MMFF94_ENERGY>  (1) 
36.1559

>  <PUBCHEM_FEATURE_SELFOVERLAP>  (1) 
122.039

>  <PUBCHEM_SHAPE_FINGERPRINT>  (1) 
11513181 2 16082522993078215931
12156800 1 13747743238924401428
13726171 33 18128817640965900324
14114207 22 16329570980612031950
14932702 115 16916518076574950952
19315092 285 17693395347551958543
19319366 153 18130793296072658503
20587220 17 17603578596247532645
20764821 26 17917130724785699567
24941158 1 17604695674037873544
27425 322 18261959668784415692
469060 322 17265285492893395124
508180 173 14764359223111680179
86090 222 17489301976231999321

>  <PUBCHEM_SHAPE_MULTIPOLES>  (1) 
920.94
11.81
7.48
5.62
17.86
10.85
4.75
-17.72
-3.86
-4.21
-0.21
-5.05
3.97
-6.29

>  <PUBCHEM_SHAPE_SELFOVERLAP>  (1) 
1974.052

>  <PUBCHEM_SHAPE_VOLUME>  (1) 
512.3

>  <PUBCHEM_COORDINATE_TYPE>  (1) 
2
5
10

$$$$
