32100
     RDKit          3D

 17 18  0  0  0  0  0  0  0  0999 V2000
    4.9562    0.8376   -0.6676 O   0  0  0  0  0  0  0  0  0  0  0  0
    0.8580    0.6878    0.0791 N   0  0  0  0  0  0  0  0  0  0  0  0
    4.3666   -2.1397    0.8002 N   0  0  0  0  0  0  0  0  0  0  0  0
    3.7566    0.2216   -0.1972 C   0  0  0  0  0  0  0  0  0  0  0  0
    2.7743    0.0932   -1.3692 C   0  0  0  0  0  0  0  0  0  0  0  0
    3.1563    1.1326    0.8809 C   0  0  0  0  0  0  0  0  0  0  0  0
    1.3583   -0.2727   -0.9136 C   0  0  0  0  0  0  0  0  0  0  0  0
    1.7277    0.7326    1.2624 C   0  0  0  0  0  0  0  0  0  0  0  0
   -0.5139    0.3580    0.4643 C   0  0  0  0  0  0  0  0  0  0  0  0
   -1.4553    0.4404   -0.7378 C   0  0  0  0  0  0  0  0  0  0  0  0
    4.0980   -1.0999    0.3609 C   0  0  0  0  0  0  0  0  0  0  0  0
   -2.8777    0.1245   -0.3496 C   0  0  0  0  0  0  0  0  0  0  0  0
   -3.3239   -1.1873   -0.4075 C   0  0  0  0  0  0  0  0  0  0  0  0
   -3.7162    1.1506    0.0593 C   0  0  0  0  0  0  0  0  0  0  0  0
   -4.6396   -1.4798   -0.0482 C   0  0  0  0  0  0  0  0  0  0  0  0
   -5.0318    0.8579    0.4187 C   0  0  0  0  0  0  0  0  0  0  0  0
   -5.4935   -0.4573    0.3649 C   0  0  0  0  0  0  0  0  0  0  0  0
  1  4  1  0
  2  7  1  0
  2  8  1  0
  2  9  1  0
  3 11  3  0
  4  5  1  0
  4  6  1  0
  4 11  1  0
  5  7  1  0
  6  8  1  0
  9 10  1  0
 10 12  1  0
 12 13  2  0
 12 14  1  0
 13 15  1  0
 14 16  2  0
 15 17  2  0
 16 17  1  0
M  END
>  <PUBCHEM_COMPOUND_CID>  (1) 
32100

>  <PUBCHEM_CONFORMER_RMSD>  (1) 
0.6

>  <PUBCHEM_CONFORMER_DIVERSEORDER>  (1) 
1
20
12
22
7
10
21
23
2
14
3
15
18
13
16
9
5
19
6
8
17
4
11

>  <PUBCHEM_MMFF94_PARTIAL_CHARGES>  (1) 
21
1 -0.68
10 0.14
11 0.36
12 -0.14
13 -0.15
14 -0.15
15 -0.15
16 -0.15
17 -0.15
2 -0.81
3 -0.56
30 0.4
31 0.15
32 0.15
33 0.15
34 0.15
35 0.15
4 0.48
7 0.27
8 0.27
9 0.27

>  <PUBCHEM_EFFECTIVE_ROTOR_COUNT>  (1) 
4.2

>  <PUBCHEM_PHARMACOPHORE_FEATURES>  (1) 
6
1 1 acceptor
1 1 donor
1 2 cation
1 3 acceptor
6 12 13 14 15 16 17 rings
6 2 4 5 6 7 8 rings

>  <PUBCHEM_HEAVY_ATOM_COUNT>  (1) 
17

>  <PUBCHEM_ATOM_DEF_STEREO_COUNT>  (1) 
0

>  <PUBCHEM_ATOM_UDEF_STEREO_COUNT>  (1) 
0

>  <PUBCHEM_BOND_DEF_STEREO_COUNT>  (1) 
0

>  <PUBCHEM_BOND_UDEF_STEREO_COUNT>  (1) 
0

>  <PUBCHEM_ISOTOPIC_ATOM_COUNT>  (1) 
0

>  <PUBCHEM_COMPONENT_COUNT>  (1) 
1

>  <PUBCHEM_CACTVS_TAUTO_COUNT>  (1) 
1

>  <PUBCHEM_CONFORMER_ID>  (1) 
00007D6400000001

>  <PUBCHEM_MMFF94_ENERGY>  (1) 
30.6995

>  <PUBCHEM_FEATURE_SELFOVERLAP>  (1) 
30.446

>  <PUBCHEM_SHAPE_FINGERPRINT>  (1) 
10912923 1 18410016532851328753
11089746 13 12247681556500200622
11128504 68 17167867477838507284
11405975 8 18202561795988466817
11796584 16 18340487772724008014
12107183 9 17761211016380245969
12236239 1 17748547039563329501
128620 24 15213014960053070593
12916748 109 16081090372139408972
13073987 5 18410855451622799073
13167823 11 18334573529621418795
13533116 47 18408884010099888066
13675066 3 15985104115357568549
14123238 8 18343022207302838165
14252887 29 16272216266830328228
14341114 176 18272937158568555809
15375358 24 17346884438040497711
15788980 27 17749107772991690901
17834072 33 18261395580447739900
17844677 252 18413112779371098193
200 152 15502370149864798349
20279233 1 17704078399837098901
20281475 54 18335135418907549287
20645477 70 18187083915165218570
21618674 57 18202846535140322499
220451 1 18408612460966314127
22485316 2 18410855468886895053
22646028 1 18335137592139914887
22950370 63 18334859415613840921
23402539 116 17821443560614574205
23559900 14 17917441903798122686
239999 70 18060425737775362092
26918003 58 17560802134632585755
29717793 49 17385721392030799743
300161 21 18260543441708754628
3004659 81 18336831905615609614
3060560 45 15502374526441735002
42 15 18411698772899192943
4214541 1 18343302552930159121
4340502 62 18409441519241913666
465052 167 18202285788711073014
5104073 3 18131632313786696819
5281201 14 17240762852708457902
5374978 207 17346596370109672072
54040823 5 18412548725958741032
542803 24 17821730541850147285
573450 72 18411133611269709891
5924683 9 17273967112257810359
7495541 125 18342174496654328400
77779 3 18413670231739551921
9971528 1 17458346334137180060

>  <PUBCHEM_SHAPE_MULTIPOLES>  (1) 
334.02
12.8
1.45
1.06
4.95
0.49
-0.06
2.19
1.2
-0.23
0.33
-0.86
-0.02
-0.39

>  <PUBCHEM_SHAPE_SELFOVERLAP>  (1) 
692.287

>  <PUBCHEM_SHAPE_VOLUME>  (1) 
188.3

>  <PUBCHEM_COORDINATE_TYPE>  (1) 
2
5
10

$$$$
