32107
     RDKit          3D

 19 20  0  0  1  0  0  0  0  0999 V2000
    2.7928   -2.6081   -0.8597 O   0  0  0  0  0  0  0  0  0  0  0  0
   -2.4747   -0.0493    0.2715 O   0  0  0  0  0  0  0  0  0  0  0  0
   -0.9393   -0.1108   -1.4534 O   0  0  0  0  0  0  0  0  0  0  0  0
    4.7621    2.0668   -0.4830 O   0  0  0  0  0  0  0  0  0  0  0  0
   -0.1691   -1.7431    1.1661 N   0  0  0  0  0  0  0  0  0  0  0  0
   -0.2204   -0.3123    0.8348 C   0  0  0  0  0  0  0  0  0  0  0  0
    2.1089   -2.0113    0.2397 C   0  0  0  0  0  0  0  0  0  0  0  0
    1.1137    0.3021    0.4782 C   0  0  0  0  0  0  0  0  0  0  0  0
    2.2238   -0.5059    0.1659 C   0  0  0  0  0  0  0  0  0  0  0  0
    0.6545   -2.4886    0.2149 C   0  0  0  0  0  0  0  0  0  0  0  0
   -1.2248   -0.1480   -0.2642 C   0  0  0  0  0  0  0  0  0  0  0  0
    1.2445    1.6996    0.4408 C   0  0  0  0  0  0  0  0  0  0  0  0
    3.4505    0.1023   -0.1435 C   0  0  0  0  0  0  0  0  0  0  0  0
   -4.8776    0.2098    0.0611 C   0  0  0  0  0  0  0  0  0  0  0  0
   -3.5375    0.1130   -0.6731 C   0  0  0  0  0  0  0  0  0  0  0  0
    3.5670    1.4919   -0.1756 C   0  0  0  0  0  0  0  0  0  0  0  0
    2.4643    2.2900    0.1136 C   0  0  0  0  0  0  0  0  0  0  0  0
   -4.9102    1.4135    1.0051 C   0  0  0  0  0  0  0  0  0  0  0  0
   -6.0287    0.2885   -0.9393 C   0  0  0  0  0  0  0  0  0  0  0  0
  1  7  1  0
  2 11  1  0
  2 15  1  0
  3 11  2  0
  4 16  1  0
  5  6  1  0
  5 10  1  0
  6  8  1  0
  6 11  1  0
  7  9  1  0
  7 10  1  0
  8  9  2  0
  8 12  1  0
  9 13  1  0
 12 17  2  0
 13 16  2  0
 14 15  1  0
 14 18  1  0
 14 19  1  0
 16 17  1  0
M  END
>  <PUBCHEM_COMPOUND_CID>  (1) 
32107

>  <PUBCHEM_CONFORMER_RMSD>  (1) 
0.6

>  <PUBCHEM_CONFORMER_DIVERSEORDER>  (1) 
1
11
168
53
24
94
41
89
31
112
30
62
26
156
169
126
71
131
37
157
158
16
46
97
43
67
75
98
155
29
28
178
113
65
39
15
21
121
7
170
139
172
45
85
116
101
63
180
77
151
159
106
2
153
134
142
60
68
167
88
125
40
51
162
8
5
107
70
108
14
144
120
87
179
93
54
48
81
161
82
49
150
78
163
145
6
119
73
176
114
12
135
96
32
25
148
171
64
92
76
165
84
123
22
133
152
128
58
57
66
102
129
166
175
44
42
18
79
38
36
23
19
140
35
59
127
83
55
90
91
130
27
34
111
13
69
10
50
95
115
138
99
149
147
33
3
160
47
103
177
80
122
104
154
20
105
86
72
56
136
52
4
17
124
132
61
117
137
118
74
9
141
110
164
109
173
100
174
146
143

>  <PUBCHEM_MMFF94_PARTIAL_CHARGES>  (1) 
22
1 -0.68
10 0.27
11 0.66
12 -0.15
13 -0.15
15 0.28
16 0.08
17 -0.15
2 -0.43
24 0.36
25 0.15
26 0.15
3 -0.57
30 0.15
31 0.4
38 0.45
4 -0.53
5 -0.9
6 0.47
7 0.42
8 -0.14
9 -0.14

>  <PUBCHEM_EFFECTIVE_ROTOR_COUNT>  (1) 
4.8

>  <PUBCHEM_PHARMACOPHORE_FEATURES>  (1) 
9
1 1 acceptor
1 1 donor
1 3 acceptor
1 4 donor
1 5 cation
1 5 donor
3 14 18 19 hydrophobe
6 5 6 7 8 9 10 rings
6 8 9 12 13 16 17 rings

>  <PUBCHEM_HEAVY_ATOM_COUNT>  (1) 
19

>  <PUBCHEM_ATOM_DEF_STEREO_COUNT>  (1) 
0

>  <PUBCHEM_ATOM_UDEF_STEREO_COUNT>  (1) 
2

>  <PUBCHEM_BOND_DEF_STEREO_COUNT>  (1) 
0

>  <PUBCHEM_BOND_UDEF_STEREO_COUNT>  (1) 
0

>  <PUBCHEM_ISOTOPIC_ATOM_COUNT>  (1) 
0

>  <PUBCHEM_COMPONENT_COUNT>  (1) 
1

>  <PUBCHEM_CACTVS_TAUTO_COUNT>  (1) 
3

>  <PUBCHEM_CONFORMER_ID>  (1) 
00007D6B00000001

>  <PUBCHEM_MMFF94_ENERGY>  (1) 
39.2655

>  <PUBCHEM_FEATURE_SELFOVERLAP>  (1) 
45.69

>  <PUBCHEM_SHAPE_FINGERPRINT>  (1) 
10411042 1 17905325131210870578
10693767 8 18059861602269283550
11471102 20 18410291406468495728
11796584 16 14764357023898936804
12107183 9 17695352473922504713
12236239 1 17775565308158081995
12644460 14 18259981548375226426
12730499 353 18335145314544036267
13167823 11 18272645732748706327
13760787 19 18131064974461140047
16945 1 18340782506770676498
17834072 33 18341887516083282887
17980427 26 17630297931293059496
1813 80 17771350764394426950
18186145 218 18408881841104083773
20612939 158 18411136900977288191
20645477 70 18340765957929654919
21041028 32 18195801869393619176
21120745 212 16165501791059653746
21503847 285 18266181634805453145
22289505 5 18336817594404901421
23402655 69 18343021124702132053
25 1 18410572924621674176
2748010 2 18051426351060818650
29717793 49 18059566929062975029
3060560 45 18412825793956166886
3286 77 17750789939719812026
335352 9 18409450311076950228
4047638 21 18113617906639819672
4072396 5 18336532881586942920
42630746 31 18410569574251959546
474 4 18335983163831914425
495365 180 18129370656891405968
5281201 14 18336543794661005013
543358 83 18270686367939958939
602551 16 16009327503479704969
633830 44 18338234865225101927
6442390 28 17968381242299752915
7164475 11 17986395494548205720
8272917 22 18341899550027751703
90127 26 18114466639817950745
9999458 23 16515678953679215506

>  <PUBCHEM_SHAPE_MULTIPOLES>  (1) 
362.55
10.15
2.49
0.99
14.97
0.73
-0.04
-4.86
-1.81
-3.28
0.1
0.57
0.07
-0.33

>  <PUBCHEM_SHAPE_SELFOVERLAP>  (1) 
757.342

>  <PUBCHEM_SHAPE_VOLUME>  (1) 
205

>  <PUBCHEM_COORDINATE_TYPE>  (1) 
2
5
10

$$$$
