3210
     RDKit          3D

 22 21  0  0  0  0  0  0  0  0999 V2000
    4.7124   -3.4764    0.0133 O   0  0  0  0  0  0  0  0  0  0  0  0
    3.8257   -1.4032   -0.2432 O   0  0  0  0  0  0  0  0  0  0  0  0
   -2.7532   -2.6725    0.4586 C   0  0  0  0  0  0  0  0  0  0  0  0
   -3.9709   -1.7565    0.2884 C   0  0  0  0  0  0  0  0  0  0  0  0
   -1.3882   -2.0172    0.2235 C   0  0  0  0  0  0  0  0  0  0  0  0
   -4.1080   -1.0753   -1.0771 C   0  0  0  0  0  0  0  0  0  0  0  0
   -0.2169   -2.9952    0.3363 C   0  0  0  0  0  0  0  0  0  0  0  0
   -5.3709   -0.2180   -1.2064 C   0  0  0  0  0  0  0  0  0  0  0  0
    1.1497   -2.3429    0.0873 C   0  0  0  0  0  0  0  0  0  0  0  0
   -5.4417    0.9090   -0.1709 C   0  0  0  0  0  0  0  0  0  0  0  0
    2.3474   -3.2917    0.1691 C   0  0  0  0  0  0  0  0  0  0  0  0
   -4.2536    1.8269   -0.2129 C   0  0  0  0  0  0  0  0  0  0  0  0
    3.6765   -2.5986   -0.0311 C   0  0  0  0  0  0  0  0  0  0  0  0
   -3.3637    2.0414    0.7685 C   0  0  0  0  0  0  0  0  0  0  0  0
   -2.1762    2.9581    0.7280 C   0  0  0  0  0  0  0  0  0  0  0  0
   -0.8906    2.2023    0.8931 C   0  0  0  0  0  0  0  0  0  0  0  0
    0.0866    2.1808   -0.0262 C   0  0  0  0  0  0  0  0  0  0  0  0
    1.3662    1.4128    0.1336 C   0  0  0  0  0  0  0  0  0  0  0  0
    2.5587    2.3243    0.1505 C   0  0  0  0  0  0  0  0  0  0  0  0
    3.5698    2.2465   -0.7278 C   0  0  0  0  0  0  0  0  0  0  0  0
    4.7624    3.1558   -0.7091 C   0  0  0  0  0  0  0  0  0  0  0  0
    5.8786    2.5895    0.1547 C   0  0  0  0  0  0  0  0  0  0  0  0
  1 13  1  0
  2 13  2  0
  3  4  1  0
  3  5  1  0
  4  6  1  0
  5  7  1  0
  6  8  1  0
  7  9  1  0
  8 10  1  0
  9 11  1  0
 10 12  1  0
 11 13  1  0
 12 14  2  0
 14 15  1  0
 15 16  1  0
 16 17  2  0
 17 18  1  0
 18 19  1  0
 19 20  2  0
 20 21  1  0
 21 22  1  0
M  END
>  <PUBCHEM_COMPOUND_CID>  (1) 
3210

>  <PUBCHEM_CONFORMER_RMSD>  (1) 
1.6

>  <PUBCHEM_CONFORMER_DIVERSEORDER>  (1) 
1
9
7
36
58
63
31
39
27
5
53
47
22
3
18
61
43
66
64
38
8
4
12
60
52
41
21
57
20
59
24
32
50
15
26
49
28
17
30
48
23
11
34
19
6
65
56
67
13
14
42
35
10
37
16
40
33
29
51
54
62
45
68
46
44
55
25
2

>  <PUBCHEM_MMFF94_PARTIAL_CHARGES>  (1) 
21
1 -0.65
10 0.14
11 0.06
12 -0.29
13 0.66
14 -0.29
15 0.28
16 -0.29
17 -0.29
18 0.28
19 -0.29
2 -0.57
20 -0.29
21 0.14
41 0.15
42 0.15
45 0.15
46 0.5
47 0.15
50 0.15
51 0.15

>  <PUBCHEM_EFFECTIVE_ROTOR_COUNT>  (1) 
15

>  <PUBCHEM_PHARMACOPHORE_FEATURES>  (1) 
4
1 1 acceptor
1 2 acceptor
1 22 hydrophobe
3 1 2 13 anion

>  <PUBCHEM_HEAVY_ATOM_COUNT>  (1) 
22

>  <PUBCHEM_ATOM_DEF_STEREO_COUNT>  (1) 
0

>  <PUBCHEM_ATOM_UDEF_STEREO_COUNT>  (1) 
0

>  <PUBCHEM_BOND_DEF_STEREO_COUNT>  (1) 
0

>  <PUBCHEM_BOND_UDEF_STEREO_COUNT>  (1) 
3

>  <PUBCHEM_ISOTOPIC_ATOM_COUNT>  (1) 
0

>  <PUBCHEM_COMPONENT_COUNT>  (1) 
1

>  <PUBCHEM_CACTVS_TAUTO_COUNT>  (1) 
1

>  <PUBCHEM_CONFORMER_ID>  (1) 
00000C8A00000001

>  <PUBCHEM_MMFF94_ENERGY>  (1) 
4.0511

>  <PUBCHEM_FEATURE_SELFOVERLAP>  (1) 
20.356

>  <PUBCHEM_SHAPE_FINGERPRINT>  (1) 
1100329 8 18195252121963671273
11513181 2 18202003239470630918
14117953 113 16897639087994097165
14251757 5 17471023939334082652
14251764 38 18340771455207874615
14931854 50 18340759447212779029
16067689 302 18412265074067199071
16719943 64 18192710274798367240
18336668 15 18043819679778700807
20721686 56 18336269020181728083
21796203 349 17474713496386971410
23559900 14 18270386188476029329
338550 245 18409448051064543068
373842 8 18410006650637950554
5085150 59 18268700775153890216
5312544 6 18410294696656278052
59755656 215 18411139182016723556

>  <PUBCHEM_SHAPE_MULTIPOLES>  (1) 
441.01
12.77
5.88
0.9
2.6
2.74
0.09
-4.56
2.97
5.83
-0.67
-0.6
-0.25
-0.9

>  <PUBCHEM_SHAPE_SELFOVERLAP>  (1) 
820.872

>  <PUBCHEM_SHAPE_VOLUME>  (1) 
274.3

>  <PUBCHEM_COORDINATE_TYPE>  (1) 
2
5
10

$$$$
