32102
     RDKit          3D

 19 19  0  0  1  0  0  0  0  0999 V2000
    1.4309   -0.0372   -1.0417 S   0  0  0  0  0  0  0  0  0  0  0  0
    5.0810    0.5075   -0.8487 O   0  0  0  0  0  0  0  0  0  0  0  0
    4.2309    0.7205    1.2437 O   0  0  0  0  0  0  0  0  0  0  0  0
   -1.2208    3.1411    0.3607 O   0  0  0  0  0  0  0  0  0  0  0  0
    0.7199    2.3691   -0.3152 O   0  0  0  0  0  0  0  0  0  0  0  0
   -4.8939   -1.8203    0.1957 O   0  0  0  0  0  0  0  0  0  0  0  0
   -5.0374    0.3088    0.7108 O   0  0  0  0  0  0  0  0  0  0  0  0
    4.2540   -2.2107    0.9719 N   0  0  0  0  0  0  0  0  0  0  0  0
   -0.4912    2.2048   -0.0397 N   0  0  0  0  0  0  0  0  0  0  0  0
   -4.3777   -0.6829    0.3159 N   0  0  0  0  0  0  0  0  0  0  0  0
    3.6976   -1.2779   -0.0100 C   0  0  0  0  0  0  0  0  0  0  0  0
    2.1766   -1.2082    0.1373 C   0  0  0  0  0  0  0  0  0  0  0  0
   -0.3028   -0.1815   -0.6276 C   0  0  0  0  0  0  0  0  0  0  0  0
   -1.0586    0.9068   -0.1865 C   0  0  0  0  0  0  0  0  0  0  0  0
   -0.9025   -1.4358   -0.7559 C   0  0  0  0  0  0  0  0  0  0  0  0
   -2.4081    0.7412    0.1249 C   0  0  0  0  0  0  0  0  0  0  0  0
   -3.0049   -0.5130   -0.0042 C   0  0  0  0  0  0  0  0  0  0  0  0
   -2.2522   -1.6014   -0.4447 C   0  0  0  0  0  0  0  0  0  0  0  0
    4.3591    0.0692    0.2134 C   0  0  0  0  0  0  0  0  0  0  0  0
  1 12  1  0
  1 13  1  0
  2 19  1  0
  3 19  2  0
  4  9  1  0
  5  9  2  0
  6 10  1  0
  7 10  2  0
  8 11  1  0
  9 14  1  0
 10 17  1  0
 11 12  1  0
 11 19  1  0
 13 14  2  0
 13 15  1  0
 14 16  1  0
 15 18  2  0
 16 17  2  0
 17 18  1  0
M  CHG  4   4  -1   6  -1   9   1  10   1
M  END
>  <PUBCHEM_COMPOUND_CID>  (1) 
32102

>  <PUBCHEM_CONFORMER_RMSD>  (1) 
0.8

>  <PUBCHEM_CONFORMER_DIVERSEORDER>  (1) 
1
11
27
19
16
21
8
26
17
31
22
4
10
15
3
24
23
20
29
7
13
14
12
6
25
2
30
9
5
18
28

>  <PUBCHEM_MMFF94_PARTIAL_CHARGES>  (1) 
25
1 -0.33
10 0.91
11 0.33
12 0.23
13 0.1
14 0.13
15 -0.15
16 -0.15
17 0.13
18 -0.15
19 0.66
2 -0.65
23 0.15
24 0.15
25 0.15
26 0.36
27 0.36
28 0.5
3 -0.57
4 -0.52
5 -0.52
6 -0.52
7 -0.52
8 -0.99
9 0.91

>  <PUBCHEM_EFFECTIVE_ROTOR_COUNT>  (1) 
6

>  <PUBCHEM_PHARMACOPHORE_FEATURES>  (1) 
12
1 2 acceptor
1 3 acceptor
1 4 acceptor
1 4 anion
1 5 acceptor
1 6 acceptor
1 6 anion
1 7 acceptor
1 8 cation
1 8 donor
3 2 3 19 anion
6 13 14 15 16 17 18 rings

>  <PUBCHEM_HEAVY_ATOM_COUNT>  (1) 
19

>  <PUBCHEM_ATOM_DEF_STEREO_COUNT>  (1) 
1

>  <PUBCHEM_ATOM_UDEF_STEREO_COUNT>  (1) 
0

>  <PUBCHEM_BOND_DEF_STEREO_COUNT>  (1) 
0

>  <PUBCHEM_BOND_UDEF_STEREO_COUNT>  (1) 
0

>  <PUBCHEM_ISOTOPIC_ATOM_COUNT>  (1) 
0

>  <PUBCHEM_COMPONENT_COUNT>  (1) 
1

>  <PUBCHEM_CACTVS_TAUTO_COUNT>  (1) 
1

>  <PUBCHEM_CONFORMER_ID>  (1) 
00007D6600000001

>  <PUBCHEM_MMFF94_ENERGY>  (1) 
60.644

>  <PUBCHEM_FEATURE_SELFOVERLAP>  (1) 
61.121

>  <PUBCHEM_SHAPE_FINGERPRINT>  (1) 
10366900 7 18335427885101177066
11796584 16 17023182756073141875
12251169 10 18272089430486533927
12553582 1 18340477954597249758
12633257 1 17418082222533656962
14420673 8 17546724851377754178
14787075 74 18114747139193383730
15196674 1 18409729526056876606
15375462 189 18260822722184121146
17492 89 18263923233580217210
1813 80 17749103417779165724
19784866 170 18201445761315846703
20510252 161 18200033932403163417
21029758 27 18408889568103755237
21267235 1 18410020939841286870
21637258 2 16153995750621272747
21652331 79 18413668015689193594
22218785 32 9151175354606542188
2297311 6 18271257044982807206
23366157 5 17902512923874083685
23402539 116 18201714046875142455
23557571 272 18200886093007297604
23559900 14 18124874556482707926
26918003 58 17822010929910079218
2748010 2 17838917940417603871
2838139 119 13613689432778363123
3009799 131 18339067247377990871
312423 11 18188776025011070542
495365 180 13335031542433860382
4990 188 12035445047298819731
5104073 3 18269264665668012106
5374978 207 18411133615591271810
90316 7 18338241457530708245

>  <PUBCHEM_SHAPE_MULTIPOLES>  (1) 
344.7
10.02
2.43
0.9
2.46
1.4
-0.02
-3.58
2.57
-0.42
0.23
0.54
-0.08
-0.49

>  <PUBCHEM_SHAPE_SELFOVERLAP>  (1) 
704.344

>  <PUBCHEM_SHAPE_VOLUME>  (1) 
200.5

>  <PUBCHEM_COORDINATE_TYPE>  (1) 
2
5
10

$$$$
