32128
     RDKit          3D

 27 30  0  0  1  0  0  0  0  0999 V2000
   -7.3413    2.3716    1.0100 F   0  0  0  0  0  0  0  0  0  0  0  0
   -2.1630    0.0370   -1.6538 O   0  0  0  0  0  0  0  0  0  0  0  0
    0.5974   -2.6207    0.4044 N   0  0  0  0  0  0  0  0  0  0  0  0
    3.6954    0.4423    1.5146 N   0  0  0  0  0  0  0  0  0  0  0  0
    2.6152   -0.2725    1.0667 C   0  0  0  0  0  0  0  0  0  0  0  0
    2.6319   -0.2514   -0.3160 C   0  0  0  0  0  0  0  0  0  0  0  0
    1.6529   -0.9144    2.0043 C   0  0  0  0  0  0  0  0  0  0  0  0
    1.6265   -0.9047   -1.2055 C   0  0  0  0  0  0  0  0  0  0  0  0
    1.3551   -2.3736    1.6352 C   0  0  0  0  0  0  0  0  0  0  0  0
    1.3348   -2.3665   -0.8374 C   0  0  0  0  0  0  0  0  0  0  0  0
    3.7764    0.5140   -0.7114 C   0  0  0  0  0  0  0  0  0  0  0  0
   -0.7434   -2.0502    0.4172 C   0  0  0  0  0  0  0  0  0  0  0  0
    4.4203    0.9314    0.4544 C   0  0  0  0  0  0  0  0  0  0  0  0
   -1.5718   -2.6211   -0.7355 C   0  0  0  0  0  0  0  0  0  0  0  0
    4.0406    0.6696    2.9053 C   0  0  0  0  0  0  0  0  0  0  0  0
    4.3278    0.8939   -1.9539 C   0  0  0  0  0  0  0  0  0  0  0  0
    5.5859    1.7063    0.4426 C   0  0  0  0  0  0  0  0  0  0  0  0
   -2.9920   -2.0498   -0.7688 C   0  0  0  0  0  0  0  0  0  0  0  0
    5.4930    1.6686   -1.9825 C   0  0  0  0  0  0  0  0  0  0  0  0
    6.1114    2.0675   -0.8004 C   0  0  0  0  0  0  0  0  0  0  0  0
   -3.0336   -0.5480   -1.0138 C   0  0  0  0  0  0  0  0  0  0  0  0
   -4.1839    0.2318   -0.4743 C   0  0  0  0  0  0  0  0  0  0  0  0
   -5.4053   -0.3920   -0.3508 C   0  0  0  0  0  0  0  0  0  0  0  0
   -3.9824    1.5467   -0.1183 C   0  0  0  0  0  0  0  0  0  0  0  0
   -6.4813    0.3373    0.1553 C   0  0  0  0  0  0  0  0  0  0  0  0
   -5.0585    2.2758    0.3879 C   0  0  0  0  0  0  0  0  0  0  0  0
   -6.3080    1.6712    0.5246 C   0  0  0  0  0  0  0  0  0  0  0  0
  1 27  1  0
  2 21  2  0
  3  9  1  0
  3 10  1  0
  3 12  1  0
  4  5  1  0
  4 13  1  0
  4 15  1  0
  5  6  2  0
  5  7  1  0
  6  8  1  0
  6 11  1  0
  7  9  1  0
  8 10  1  0
 11 13  2  0
 11 16  1  0
 12 14  1  0
 13 17  1  0
 14 18  1  0
 16 19  2  0
 17 20  2  0
 18 21  1  0
 19 20  1  0
 21 22  1  0
 22 23  2  0
 22 24  1  0
 23 25  1  0
 24 26  2  0
 25 27  2  0
 26 27  1  0
M  END
>  <PUBCHEM_COMPOUND_CID>  (1) 
32128

>  <PUBCHEM_CONFORMER_RMSD>  (1) 
0.8

>  <PUBCHEM_CONFORMER_DIVERSEORDER>  (1) 
1
268
139
142
14
106
185
172
115
81
65
109
203
244
17
27
200
114
91
278
34
230
78
260
247
273
132
141
108
218
100
258
52
53
272
134
86
246
228
11
177
155
169
237
3
48
138
209
5
151
63
214
56
72
242
168
212
129
206
276
150
211
85
231
167
284
73
121
145
186
210
233
49
171
36
283
154
226
25
117
135
239
261
194
187
60
143
245
101
80
62
87
51
285
290
295
31
219
282
105
243
39
88
32
4
225
178
201
196
77
119
279
66
128
126
69
131
116
262
89
234
205
137
255
181
68
2
264
265
133
221
227
8
215
40
229
240
38
192
299
47
162
236
254
263
33
217
251
104
160
9
270
97
207
26
176
301
280
208
103
195
292
112
19
275
277
202
266
6
110
238
50
163
92
241
173
271
293
183
198
58
175
252
188
179
79
256
94
23
82
193
190
54
288
90
220
287
269
71
41
250
156
136
30
111
184
64
153
67
189
123
197
297
125
291
223
140
43
24
102
120
300
130
83
259
74
18
199
122
124
75
298
144
235
22
29
159
21
16
76
61
294
113
161
289
99
15
20
59
148
12
42
95
182
28
118
158
96
267
146
10
216
257
107
281
174
166
222
7
296
149
232
224
84
55
248
57
164
13
147
213
93
45
44
37
249
204
191
35
127
46
157
286
98
253
70
180
274
170
165
152

>  <PUBCHEM_MMFF94_PARTIAL_CHARGES>  (1) 
33
1 -0.19
10 0.27
12 0.27
13 -0.15
15 0.26
16 -0.15
17 -0.15
18 0.06
19 -0.15
2 -0.57
20 -0.15
21 0.42
22 0.09
23 -0.15
24 -0.15
25 -0.15
26 -0.15
27 0.19
3 -0.81
4 0.05
43 0.15
44 0.15
47 0.15
48 0.15
49 0.15
5 -0.33
50 0.15
51 0.15
52 0.15
6 -0.18
7 0.18
8 0.18
9 0.27

>  <PUBCHEM_EFFECTIVE_ROTOR_COUNT>  (1) 
6

>  <PUBCHEM_PHARMACOPHORE_FEATURES>  (1) 
7
1 2 acceptor
1 3 cation
1 4 cation
5 4 5 6 11 13 rings
6 11 13 16 17 19 20 rings
6 22 23 24 25 26 27 rings
7 3 5 6 7 8 9 10 rings

>  <PUBCHEM_HEAVY_ATOM_COUNT>  (1) 
27

>  <PUBCHEM_ATOM_DEF_STEREO_COUNT>  (1) 
0

>  <PUBCHEM_ATOM_UDEF_STEREO_COUNT>  (1) 
0

>  <PUBCHEM_BOND_DEF_STEREO_COUNT>  (1) 
0

>  <PUBCHEM_BOND_UDEF_STEREO_COUNT>  (1) 
0

>  <PUBCHEM_ISOTOPIC_ATOM_COUNT>  (1) 
0

>  <PUBCHEM_COMPONENT_COUNT>  (1) 
1

>  <PUBCHEM_CACTVS_TAUTO_COUNT>  (1) 
2

>  <PUBCHEM_CONFORMER_ID>  (1) 
00007D8000000001

>  <PUBCHEM_MMFF94_ENERGY>  (1) 
61.8171

>  <PUBCHEM_FEATURE_SELFOVERLAP>  (1) 
35.644

>  <PUBCHEM_SHAPE_FINGERPRINT>  (1) 
10721379 63 18129393596639333982
11720765 8 16915665770405873790
1200032 147 18338248084606977098
12390115 104 18343589559925149099
12596602 18 17894915122780190641
12892183 10 15285904854302379342
12895836 83 17846498149562608367
12895837 130 18128257985188436108
13627167 48 17202495411798941409
13885169 86 18114471174538830228
14114211 68 18341627979071623643
14341114 328 18040991864837195447
14347329 18 18341332292364459984
14537116 161 16629676225038021001
14765038 42 17895761819579750372
14840074 17 17967254212821708493
14848178 5 11746938668496737795
14849402 71 18116151069672123114
14950920 106 16153975847099419961
15001296 14 18189335838884661277
15163728 17 18409450310397065678
15183329 4 15482680069569285255
15188451 53 11097853012694082433
15238133 3 18130495371318599074
15297060 5 18341620338762692960
15510800 12 11891325457171655873
15575132 122 18335983069854648957
16991971 28 17698147798002139791
1768 23 17604440707710220572
18608769 82 18271529818556651431
19377110 9 17894630379375916435
19438510 23 18334579070139533682
1979834 28 14996570555607108131
20775438 99 10229456461350391613
21033648 29 17845928667011103194
21033650 10 18195808698893000866
21315763 87 14707211007026411601
21585480 29 15069199994623648489
21623969 137 15430033270782561156
221357 26 15482676766433635784
22393880 68 16773507875708650414
2838139 119 18201430411102477358
312425 54 13479396229185915357
3680242 22 18040711455044009716
3729539 64 14764358102457701397
38570 142 17968389995791060222
392239 28 16226046742545185015
397830 11 10881675871447379062
4098825 35 18202287995744274542
44062 13 9943518618924532129
50009960 94 10738434833570285409
5252454 2 18340193133777666455
54583773 228 18342734085067856677
57035037 87 18200874093850497480
5718773 13 8646772175219995477
59682541 52 15841558435428915756
7288768 16 18186524315149255083
7808743 9 18412542137136212519
960060 61 12967120631905417003

>  <PUBCHEM_SHAPE_MULTIPOLES>  (1) 
532.54
17.23
2.94
1.97
15.84
0.95
0.75
-16.96
0.16
1.37
0.06
-3.03
-0.09
-2.3

>  <PUBCHEM_SHAPE_SELFOVERLAP>  (1) 
1154.838

>  <PUBCHEM_SHAPE_VOLUME>  (1) 
292.6

>  <PUBCHEM_COORDINATE_TYPE>  (1) 
2
5
10

$$$$
