32126
     RDKit          3D

 21 22  0  0  1  0  0  0  0  0999 V2000
   -5.9743    2.5130   -0.5370 Cl  0  0  0  0  0  0  0  0  0  0  0  0
    0.4726    0.8190    0.0760 N   0  0  0  0  0  0  0  0  0  0  0  0
    4.1797    0.5749    0.3733 N   0  0  0  0  0  0  0  0  0  0  0  0
   -0.6295    0.0399    0.6220 C   0  0  0  0  0  0  0  0  0  0  0  0
    1.7561    0.2804    0.5126 C   0  0  0  0  0  0  0  0  0  0  0  0
   -1.9840    0.6680    0.3291 C   0  0  0  0  0  0  0  0  0  0  0  0
   -0.5769   -1.4190    0.1930 C   0  0  0  0  0  0  0  0  0  0  0  0
    2.8989    1.1016   -0.0768 C   0  0  0  0  0  0  0  0  0  0  0  0
    5.2846    1.3324   -0.2022 C   0  0  0  0  0  0  0  0  0  0  0  0
   -2.1389    1.4135   -0.8220 C   0  0  0  0  0  0  0  0  0  0  0  0
   -3.0176    0.4723    1.2222 C   0  0  0  0  0  0  0  0  0  0  0  0
   -1.0914   -2.3819    1.0373 C   0  0  0  0  0  0  0  0  0  0  0  0
   -0.0157   -1.7361   -1.0273 C   0  0  0  0  0  0  0  0  0  0  0  0
    6.6197    0.7762    0.2864 C   0  0  0  0  0  0  0  0  0  0  0  0
   -3.3810    1.9882   -1.0913 C   0  0  0  0  0  0  0  0  0  0  0  0
   -4.2597    1.0471    0.9528 C   0  0  0  0  0  0  0  0  0  0  0  0
   -1.0428   -3.7194    0.6443 C   0  0  0  0  0  0  0  0  0  0  0  0
    0.0328   -3.0735   -1.4204 C   0  0  0  0  0  0  0  0  0  0  0  0
   -4.4414    1.8051   -0.2040 C   0  0  0  0  0  0  0  0  0  0  0  0
   -0.4807   -4.0652   -0.5845 C   0  0  0  0  0  0  0  0  0  0  0  0
    7.7896    1.5635   -0.2833 C   0  0  0  0  0  0  0  0  0  0  0  0
  1 19  1  0
  2  4  1  0
  2  5  1  0
  3  8  1  0
  3  9  1  0
  4  6  1  0
  4  7  1  0
  5  8  1  0
  6 10  2  0
  6 11  1  0
  7 12  2  0
  7 13  1  0
  9 14  1  0
 10 15  1  0
 11 16  2  0
 12 17  1  0
 13 18  2  0
 14 21  1  0
 15 19  2  0
 16 19  1  0
 17 20  2  0
 18 20  1  0
M  END
>  <PUBCHEM_COMPOUND_CID>  (1) 
32126

>  <PUBCHEM_CONFORMER_RMSD>  (1) 
0.8

>  <PUBCHEM_CONFORMER_DIVERSEORDER>  (1) 
1
89
51
82
68
62
99
91
29
58
49
105
101
36
50
15
33
63
73
90
77
81
69
97
102
57
103
38
17
87
47
66
9
74
30
27
92
41
76
85
16
43
100
64
46
78
70
83
22
55
44
13
61
104
45
93
79
53
28
94
40
59
23
52
42
14
96
20
75
24
34
39
80
8
26
84
88
6
65
60
37
67
56
48
95
2
54
98
3
72
86
32
21
12
7
18
11
71
35
5
25
4
19
10
31

>  <PUBCHEM_MMFF94_PARTIAL_CHARGES>  (1) 
30
1 -0.18
10 -0.15
11 -0.15
12 -0.15
13 -0.15
15 -0.15
16 -0.15
17 -0.15
18 -0.15
19 0.18
2 -0.9
20 -0.15
25 0.36
28 0.36
3 -0.9
31 0.15
32 0.15
33 0.15
34 0.15
37 0.15
38 0.15
39 0.15
4 0.56
40 0.15
44 0.15
5 0.27
6 -0.14
7 -0.14
8 0.27
9 0.27

>  <PUBCHEM_EFFECTIVE_ROTOR_COUNT>  (1) 
8

>  <PUBCHEM_PHARMACOPHORE_FEATURES>  (1) 
7
1 2 cation
1 2 donor
1 21 hydrophobe
1 3 cation
1 3 donor
6 6 10 11 15 16 19 rings
6 7 12 13 17 18 20 rings

>  <PUBCHEM_HEAVY_ATOM_COUNT>  (1) 
21

>  <PUBCHEM_ATOM_DEF_STEREO_COUNT>  (1) 
0

>  <PUBCHEM_ATOM_UDEF_STEREO_COUNT>  (1) 
1

>  <PUBCHEM_BOND_DEF_STEREO_COUNT>  (1) 
0

>  <PUBCHEM_BOND_UDEF_STEREO_COUNT>  (1) 
0

>  <PUBCHEM_ISOTOPIC_ATOM_COUNT>  (1) 
0

>  <PUBCHEM_COMPONENT_COUNT>  (1) 
1

>  <PUBCHEM_CACTVS_TAUTO_COUNT>  (1) 
1

>  <PUBCHEM_CONFORMER_ID>  (1) 
00007D7E00000001

>  <PUBCHEM_MMFF94_ENERGY>  (1) 
40.6253

>  <PUBCHEM_FEATURE_SELFOVERLAP>  (1) 
35.52

>  <PUBCHEM_SHAPE_FINGERPRINT>  (1) 
10369192 42 18334857186790091725
10411042 1 17689157133311021811
105312 117 18410014338344469996
10764073 3 15869105436605644595
107951 10 18259990379345594626
12293681 160 17846776273937574096
12516196 113 9007048071908588292
12597179 24 18201443566867133630
12643181 29 18342462539680364222
12788726 201 18193821867811340843
13004483 165 17764022871350353179
13257819 101 17604697868771495565
13911987 19 18411974737549602549
15042514 8 18049728713276221187
15230672 131 18408888413675963470
15927050 60 18410853248474257826
167882 2 18267866077918806622
17093844 174 18271804692526960864
17539 30 18054219105625773503
17980427 23 17167870768353337581
1813 80 16838537104133902391
20554085 129 18058428950838002769
20645477 56 18408040728084711144
20645477 70 18052812547735013509
20681677 155 18409164446464380088
21033648 29 18338220618576852232
22224240 67 18412832391442730089
23419403 2 17269526098477236591
23559900 14 17462305542665670751
23598288 3 18117567446816911406
3759504 43 18411135857200034470
4015057 19 16916498281059764768
4409770 3 18266456688801261955
559249 180 18410571812779116994
59755656 520 18410003347333235884
6327066 14 18408037398968163796
6669772 16 18342742866967611262
77188 2 17255685716573868795
81228 2 17834939138306629475
81539 233 18266173942444997335

>  <PUBCHEM_SHAPE_MULTIPOLES>  (1) 
424.08
13.53
4.26
1.13
27.29
6.11
0.08
-18.09
0.52
-2.76
0.98
-0.75
0.36
0.75

>  <PUBCHEM_SHAPE_SELFOVERLAP>  (1) 
868.297

>  <PUBCHEM_SHAPE_VOLUME>  (1) 
245.5

>  <PUBCHEM_COORDINATE_TYPE>  (1) 
2
5
10

$$$$
