32130
     RDKit          3D

 28 31  0  0  1  0  0  0  0  0999 V2000
   -7.4909    2.0034    1.5234 F   0  0  0  0  0  0  0  0  0  0  0  0
    3.8851    1.2604   -2.2020 O   0  0  0  0  0  0  0  0  0  0  0  0
   -2.1403    0.5079   -1.3920 O   0  0  0  0  0  0  0  0  0  0  0  0
    0.4205   -2.7823   -0.1526 N   0  0  0  0  0  0  0  0  0  0  0  0
    3.4479   -0.3777    2.1419 N   0  0  0  0  0  0  0  0  0  0  0  0
    2.5284   -0.3827    0.1126 C   0  0  0  0  0  0  0  0  0  0  0  0
    1.2575   -2.1551   -1.1805 C   0  0  0  0  0  0  0  0  0  0  0  0
    1.5920   -0.6657   -1.0150 C   0  0  0  0  0  0  0  0  0  0  0  0
    1.0801   -2.9875    1.1408 C   0  0  0  0  0  0  0  0  0  0  0  0
    2.4008   -0.8633    1.4031 C   0  0  0  0  0  0  0  0  0  0  0  0
    1.3608   -1.7469    1.9988 C   0  0  0  0  0  0  0  0  0  0  0  0
   -0.9110   -2.2007   -0.0457 C   0  0  0  0  0  0  0  0  0  0  0  0
    3.7078    0.4301    0.0811 C   0  0  0  0  0  0  0  0  0  0  0  0
    4.2596    0.4119    1.3630 C   0  0  0  0  0  0  0  0  0  0  0  0
   -1.6507   -2.3236   -1.3793 C   0  0  0  0  0  0  0  0  0  0  0  0
    4.3603    1.1834   -0.9184 C   0  0  0  0  0  0  0  0  0  0  0  0
   -3.0580   -1.7231   -1.3205 C   0  0  0  0  0  0  0  0  0  0  0  0
    5.4286    1.1053    1.6968 C   0  0  0  0  0  0  0  0  0  0  0  0
    5.5306    1.8822   -0.6005 C   0  0  0  0  0  0  0  0  0  0  0  0
    6.0551    1.8423    0.6887 C   0  0  0  0  0  0  0  0  0  0  0  0
   -3.0650   -0.2252   -1.0497 C   0  0  0  0  0  0  0  0  0  0  0  0
   -4.2470    0.3709   -0.3639 C   0  0  0  0  0  0  0  0  0  0  0  0
    2.9729    2.3147   -2.4843 C   0  0  0  0  0  0  0  0  0  0  0  0
   -5.4804   -0.2138   -0.5449 C   0  0  0  0  0  0  0  0  0  0  0  0
   -4.0615    1.4830    0.4266 C   0  0  0  0  0  0  0  0  0  0  0  0
   -6.5861    0.3428    0.0979 C   0  0  0  0  0  0  0  0  0  0  0  0
   -5.1672    2.0397    1.0694 C   0  0  0  0  0  0  0  0  0  0  0  0
   -6.4295    1.4696    0.9051 C   0  0  0  0  0  0  0  0  0  0  0  0
  1 28  1  0
  2 16  1  0
  2 23  1  0
  3 21  2  0
  4  7  1  0
  4  9  1  0
  4 12  1  0
  5 10  1  0
  5 14  1  0
  6  8  1  0
  6 10  2  0
  6 13  1  0
  7  8  1  0
  9 11  1  0
 10 11  1  0
 12 15  1  0
 13 14  2  0
 13 16  1  0
 14 18  1  0
 15 17  1  0
 16 19  2  0
 17 21  1  0
 18 20  2  0
 19 20  1  0
 21 22  1  0
 22 24  2  0
 22 25  1  0
 24 26  1  0
 25 27  2  0
 26 28  2  0
 27 28  1  0
M  END
>  <PUBCHEM_COMPOUND_CID>  (1) 
32130

>  <PUBCHEM_CONFORMER_RMSD>  (1) 
0.8

>  <PUBCHEM_CONFORMER_DIVERSEORDER>  (1) 
1
369
283
412
433
151
461
284
442
98
193
24
16
91
191
429
379
255
197
419
384
181
304
377
322
47
382
360
276
285
11
184
240
465
173
403
147
162
230
33
213
294
332
312
96
135
271
129
337
401
265
258
460
179
85
235
195
30
445
31
13
194
351
373
430
59
424
150
366
370
287
416
138
365
311
405
132
250
35
341
264
470
54
105
168
314
299
157
329
356
270
306
458
441
210
208
38
121
417
226
358
125
201
83
279
70
308
452
437
103
313
108
77
385
423
163
410
292
392
316
156
359
353
159
17
380
291
180
6
324
74
354
411
120
57
245
267
25
262
346
318
198
155
76
65
277
115
37
336
395
422
383
246
391
309
93
149
280
234
126
10
435
243
148
154
229
199
22
237
289
249
408
342
453
244
325
406
111
459
28
345
27
448
169
263
381
171
319
5
269
327
50
143
224
328
106
275
101
4
87
204
347
333
52
78
302
339
272
68
75
415
334
58
200
398
172
40
451
393
375
7
467
376
178
364
236
140
296
472
371
142
89
444
187
177
400
20
260
190
434
315
305
141
164
372
355
317
331
222
220
257
63
113
39
363
238
446
48
404
183
55
170
466
321
397
202
139
211
110
386
128
368
456
99
29
166
228
290
450
390
182
127
46
67
72
66
26
343
71
209
49
56
438
212
73
69
440
215
413
217
307
176
186
100
94
256
216
428
439
362
254
463
286
116
326
298
185
161
426
152
107
300
471
281
394
242
374
414
32
469
335
418
131
109
192
84
86
44
468
145
42
146
409
130
102
9
21
303
223
323
165
137
407
34
92
80
12
455
41
449
293
447
436
188
420
158
338
357
122
274
64
268
88
189
387
348
248
330
14
18
462
15
278
123
133
320
118
90
206
232
175
352
97
19
295
402
252
79
396
350
247
239
344
340
36
203
443
174
227
427
82
367
119
297
241
288
431
61
114
51
378
259
144
421
361
231
95
218
425
207
464
153
62
251
196
60
219
454
205
134
124
457
2
266
225
112
221
349
160
273
136
43
253
3
389
399
261
301
81
233
310
8
53
23
117
282
388
432
45
104
214
167

>  <PUBCHEM_MMFF94_PARTIAL_CHARGES>  (1) 
34
1 -0.19
10 -0.33
11 0.18
12 0.27
14 -0.15
16 0.08
17 0.06
18 -0.15
19 -0.15
2 -0.36
20 -0.15
21 0.42
22 0.09
23 0.28
24 -0.15
25 -0.15
26 -0.15
27 -0.15
28 0.19
3 -0.57
39 0.27
4 -0.81
44 0.15
45 0.15
46 0.15
5 0.03
50 0.15
51 0.15
52 0.15
53 0.15
6 -0.18
7 0.27
8 0.18
9 0.27

>  <PUBCHEM_EFFECTIVE_ROTOR_COUNT>  (1) 
7

>  <PUBCHEM_PHARMACOPHORE_FEATURES>  (1) 
9
1 2 acceptor
1 3 acceptor
1 4 cation
1 5 cation
1 5 donor
5 5 6 10 13 14 rings
6 13 14 16 18 19 20 rings
6 22 24 25 26 27 28 rings
7 4 6 7 8 9 10 11 rings

>  <PUBCHEM_HEAVY_ATOM_COUNT>  (1) 
28

>  <PUBCHEM_ATOM_DEF_STEREO_COUNT>  (1) 
0

>  <PUBCHEM_ATOM_UDEF_STEREO_COUNT>  (1) 
0

>  <PUBCHEM_BOND_DEF_STEREO_COUNT>  (1) 
0

>  <PUBCHEM_BOND_UDEF_STEREO_COUNT>  (1) 
0

>  <PUBCHEM_ISOTOPIC_ATOM_COUNT>  (1) 
0

>  <PUBCHEM_COMPONENT_COUNT>  (1) 
1

>  <PUBCHEM_CACTVS_TAUTO_COUNT>  (1) 
2

>  <PUBCHEM_CONFORMER_ID>  (1) 
00007D8200000001

>  <PUBCHEM_MMFF94_ENERGY>  (1) 
70.7656

>  <PUBCHEM_FEATURE_SELFOVERLAP>  (1) 
45.793

>  <PUBCHEM_SHAPE_FINGERPRINT>  (1) 
10042902 136 8286203863813897110
10721379 63 17559689351741261766
11720765 8 16127819522516573334
1200032 147 18272379641543094339
12596602 18 18333732403959140179
12633257 1 16877944957708214251
12895836 83 17275100648352462119
12895837 130 17773590718471719972
13627167 48 16557922108956708689
13627175 23 17749390433527055892
13782708 43 14201385067481376112
13885169 86 18335985379792634460
14341114 328 18187359960706927815
14537116 161 15266774396421073457
14705955 166 15213560266460364613
14747281 78 16271105734907301439
14765038 42 18042125521972375228
14840074 17 18259704510300614725
14848178 5 11530482225067566051
14849402 71 18265614273615417330
15163728 17 18342738537461319334
15183329 4 14117524242226458739
15188451 53 12540693726185757635
15297060 5 18272653467551906576
15475509 8 18186522099652616086
1768 23 18114467859293309564
18222031 100 8862943887691503318
19319366 153 18260259741954913315
19377110 9 18260830410829741219
19438510 23 18412260661784969050
21033648 29 17273964908691283898
21033650 10 18125731321107069494
21585480 29 14780693679439135777
21623969 137 16805319989784563825
2838139 119 17846204583809762722
3459 110 16298386923951280339
3680242 22 18114177532035326948
3729539 64 13398638229944955229
38570 142 18335711533099678846
392239 28 17095239258925378715
397830 11 12324234006055462950
5104073 3 16880457454253967000
57035037 87 18059857325225595816
57307002 182 17676489479753238901
59682541 52 14476965558102833149
7808743 9 18202273723952837363
86090 222 14418689186999256200
960060 61 11959722776948001827
9689198 14 16558485136499180643

>  <PUBCHEM_SHAPE_MULTIPOLES>  (1) 
547.25
16.9
3.05
2.08
17.9
1.3
-0.17
-15.75
4.93
0.08
-0.1
-1.75
-0.33
-3

>  <PUBCHEM_SHAPE_SELFOVERLAP>  (1) 
1185.568

>  <PUBCHEM_SHAPE_VOLUME>  (1) 
300.7

>  <PUBCHEM_COORDINATE_TYPE>  (1) 
2
5
10

$$$$
