32132
     RDKit          3D

 28 31  0  0  1  0  0  0  0  0999 V2000
   -7.6045    2.1563    1.5334 F   0  0  0  0  0  0  0  0  0  0  0  0
    6.1237    2.4002   -1.2535 O   0  0  0  0  0  0  0  0  0  0  0  0
   -2.2629    0.6643   -1.4002 O   0  0  0  0  0  0  0  0  0  0  0  0
    0.1269   -2.8267   -0.3897 N   0  0  0  0  0  0  0  0  0  0  0  0
    3.2059   -0.7539    2.1470 N   0  0  0  0  0  0  0  0  0  0  0  0
    2.3302   -0.5532    0.1083 C   0  0  0  0  0  0  0  0  0  0  0  0
    1.0117   -2.1564   -1.3479 C   0  0  0  0  0  0  0  0  0  0  0  0
    1.4066   -0.7017   -1.0551 C   0  0  0  0  0  0  0  0  0  0  0  0
    0.7495   -3.1654    0.8940 C   0  0  0  0  0  0  0  0  0  0  0  0
    2.1547   -1.1307    1.3526 C   0  0  0  0  0  0  0  0  0  0  0  0
    1.0652   -2.0122    1.8555 C   0  0  0  0  0  0  0  0  0  0  0  0
   -1.1803   -2.1968   -0.2589 C   0  0  0  0  0  0  0  0  0  0  0  0
    3.5440    0.2059    0.1642 C   0  0  0  0  0  0  0  0  0  0  0  0
    4.0672    0.0591    1.4498 C   0  0  0  0  0  0  0  0  0  0  0  0
   -1.8962   -2.1780   -1.6109 C   0  0  0  0  0  0  0  0  0  0  0  0
    4.2494    1.0078   -0.7587 C   0  0  0  0  0  0  0  0  0  0  0  0
   -3.2772   -1.5218   -1.5279 C   0  0  0  0  0  0  0  0  0  0  0  0
    5.2577    0.6703    1.8597 C   0  0  0  0  0  0  0  0  0  0  0  0
    5.4417    1.6255   -0.3640 C   0  0  0  0  0  0  0  0  0  0  0  0
    5.9366    1.4578    0.9266 C   0  0  0  0  0  0  0  0  0  0  0  0
   -3.2253   -0.0521   -1.1354 C   0  0  0  0  0  0  0  0  0  0  0  0
   -4.3947    0.5388   -0.4240 C   0  0  0  0  0  0  0  0  0  0  0  0
   -5.6482    0.0263   -0.6739 C   0  0  0  0  0  0  0  0  0  0  0  0
   -4.1782    1.5737    0.4581 C   0  0  0  0  0  0  0  0  0  0  0  0
    5.5651    2.5323   -2.5589 C   0  0  0  0  0  0  0  0  0  0  0  0
   -6.7422    0.5779   -0.0073 C   0  0  0  0  0  0  0  0  0  0  0  0
   -5.2723    2.1253    1.1248 C   0  0  0  0  0  0  0  0  0  0  0  0
   -6.5542    1.6274    0.8922 C   0  0  0  0  0  0  0  0  0  0  0  0
  1 28  1  0
  2 19  1  0
  2 25  1  0
  3 21  2  0
  4  7  1  0
  4  9  1  0
  4 12  1  0
  5 10  1  0
  5 14  1  0
  6  8  1  0
  6 10  2  0
  6 13  1  0
  7  8  1  0
  9 11  1  0
 10 11  1  0
 12 15  1  0
 13 14  2  0
 13 16  1  0
 14 18  1  0
 15 17  1  0
 16 19  2  0
 17 21  1  0
 18 20  2  0
 19 20  1  0
 21 22  1  0
 22 23  2  0
 22 24  1  0
 23 26  1  0
 24 27  2  0
 26 28  2  0
 27 28  1  0
M  END
>  <PUBCHEM_COMPOUND_CID>  (1) 
32132

>  <PUBCHEM_CONFORMER_RMSD>  (1) 
0.8

>  <PUBCHEM_CONFORMER_DIVERSEORDER>  (1) 
2
373
84
70
315
429
451
287
384
353
450
406
241
22
55
46
146
405
65
176
220
69
390
140
249
400
348
141
200
435
4
120
432
338
92
379
399
50
14
172
360
391
366
407
256
124
283
103
320
324
299
377
242
460
302
244
300
143
351
252
78
378
203
308
47
341
262
150
303
160
253
271
346
8
408
129
178
368
409
411
37
264
439
359
381
410
230
304
64
269
454
343
166
231
51
260
255
458
145
357
195
307
415
444
171
382
23
223
280
335
91
342
144
386
111
177
25
57
413
457
370
403
196
401
121
394
387
301
238
164
313
453
333
367
179
285
53
7
323
216
396
293
162
210
445
3
72
168
130
250
385
209
434
267
95
42
317
66
137
433
277
245
61
194
94
318
257
268
425
327
363
248
12
395
62
90
311
229
286
221
291
126
43
186
374
438
151
174
459
48
127
182
167
372
288
157
447
148
77
345
100
98
416
27
75
105
202
9
159
322
218
383
427
67
227
63
369
362
426
201
355
328
361
208
76
321
261
349
310
214
52
213
418
422
119
442
138
294
240
149
392
6
331
404
274
412
424
161
54
428
187
26
13
275
456
430
398
154
197
270
365
215
319
347
38
73
1
246
282
82
217
235
234
276
108
284
188
185
290
135
314
112
131
354
212
312
402
233
184
336
455
104
87
86
97
30
122
180
226
309
136
441
329
134
40
125
68
278
170
419
71
41
296
96
305
169
225
128
115
266
21
17
206
18
259
325
340
28
243
155
440
205
237
89
371
88
232
20
436
110
44
420
356
31
273
279
364
35
45
339
295
298
236
265
446
56
251
330
173
393
59
109
114
449
199
437
142
332
258
326
224
452
189
380
448
33
102
204
15
423
116
153
289
352
334
29
388
207
158
99
192
39
198
239
316
10
247
350
85
152
34
147
376
389
281
81
344
443
337
306
191
190
106
211
156
16
24
175
193
107
181
297
83
123
397
254
101
32
183
93
133
80
228
292
421
417
60
132
358
222
431
49
74
263
58
219
165
163
272
36
414
113
5
79
118
19
375
139
117
11

>  <PUBCHEM_MMFF94_PARTIAL_CHARGES>  (1) 
34
1 -0.19
10 -0.33
11 0.18
12 0.27
14 -0.15
16 -0.15
17 0.06
18 -0.15
19 0.08
2 -0.36
20 -0.15
21 0.42
22 0.09
23 -0.15
24 -0.15
25 0.28
26 -0.15
27 -0.15
28 0.19
3 -0.57
39 0.27
4 -0.81
42 0.15
45 0.15
46 0.15
47 0.15
48 0.15
5 0.03
52 0.15
53 0.15
6 -0.18
7 0.27
8 0.18
9 0.27

>  <PUBCHEM_EFFECTIVE_ROTOR_COUNT>  (1) 
7

>  <PUBCHEM_PHARMACOPHORE_FEATURES>  (1) 
9
1 2 acceptor
1 3 acceptor
1 4 cation
1 5 cation
1 5 donor
5 5 6 10 13 14 rings
6 13 14 16 18 19 20 rings
6 22 23 24 26 27 28 rings
7 4 6 7 8 9 10 11 rings

>  <PUBCHEM_HEAVY_ATOM_COUNT>  (1) 
28

>  <PUBCHEM_ATOM_DEF_STEREO_COUNT>  (1) 
0

>  <PUBCHEM_ATOM_UDEF_STEREO_COUNT>  (1) 
0

>  <PUBCHEM_BOND_DEF_STEREO_COUNT>  (1) 
0

>  <PUBCHEM_BOND_UDEF_STEREO_COUNT>  (1) 
0

>  <PUBCHEM_ISOTOPIC_ATOM_COUNT>  (1) 
0

>  <PUBCHEM_COMPONENT_COUNT>  (1) 
1

>  <PUBCHEM_CACTVS_TAUTO_COUNT>  (1) 
2

>  <PUBCHEM_CONFORMER_ID>  (1) 
00007D8400000002

>  <PUBCHEM_MMFF94_ENERGY>  (1) 
70.0412

>  <PUBCHEM_FEATURE_SELFOVERLAP>  (1) 
45.793

>  <PUBCHEM_SHAPE_FINGERPRINT>  (1) 
10721379 63 17417540090540213470
11475781 23 17275383231636430824
11720765 8 16055477141966293454
1200032 147 18271254841047600474
12373685 5 15068918511695312123
12390115 104 18059858389580692463
12596602 18 18334294245826816819
12633257 1 16805329894316778171
13782708 43 13190331357614843824
13828863 39 18260270763283924007
13885169 86 18115312296797282556
14114211 68 17988093205289770387
14251764 75 18408888455311755401
14341114 328 18333724736741039519
14765038 42 18187367692086274756
14840074 17 18260830410228634365
14849402 71 18264770943923005722
15001296 14 18268423706028395121
15163728 17 18342176687130243830
15183329 4 14476965583951459247
15188451 53 12396298158360420531
15338160 23 18042693982168246843
15575132 122 18270960138389587897
15684389 69 18335703901633825467
1768 23 18187650240799293908
18222031 100 8646487453121265466
21033648 29 16987700450560895882
21033650 10 18128537270417737958
21315763 87 15357696375153327873
21458453 9 16951132905592359497
21585480 29 15575287613049984921
21623969 137 17022618663246891209
23569914 152 15336615313938550036
2838139 119 17846203479997918926
312425 54 14418679304464052029
3552219 110 18046056327866378647
3610482 184 18341613775693891310
3729539 64 13183026207193120149
38570 142 18335431161961069102
392239 28 17313095375997946627
397830 11 12757143619631957310
3986486 107 15769503049415965913
5104073 3 16662594709904417144
57035037 87 17917424389966546648
5718773 13 11674884398885030761
5911458 16 18335145327497997252
59682541 52 15195291888990965884
6523845 18 17313391080739937902
7808743 9 18059563703247584447

>  <PUBCHEM_SHAPE_MULTIPOLES>  (1) 
547.25
18.35
3.21
2.09
14.19
1.09
-0.1
-19.72
2.49
-0.27
-0.32
-1.95
-0.23
-4.09

>  <PUBCHEM_SHAPE_SELFOVERLAP>  (1) 
1185.99

>  <PUBCHEM_SHAPE_VOLUME>  (1) 
301.1

>  <PUBCHEM_COORDINATE_TYPE>  (1) 
2
5
10

$$$$
