32135
     RDKit          3D

 31 34  0  0  1  0  0  0  0  0999 V2000
   -7.7257   -3.4317    1.3238 Cl  0  0  0  0  0  0  0  0  0  0  0  0
   -1.2294    1.4355   -1.6921 O   0  0  0  0  0  0  0  0  0  0  0  0
    3.1430   -0.7925   -0.7805 N   0  0  0  0  0  0  0  0  0  0  0  0
    0.3919   -0.1794   -1.2934 N   0  0  0  0  0  0  0  0  0  0  0  0
    2.0756   -1.4995   -0.0576 C   0  0  0  0  0  0  0  0  0  0  0  0
    2.7306    0.5846   -1.0883 C   0  0  0  0  0  0  0  0  0  0  0  0
    0.7847   -1.5291   -0.8778 C   0  0  0  0  0  0  0  0  0  0  0  0
    1.4566    0.5924   -1.9325 C   0  0  0  0  0  0  0  0  0  0  0  0
    4.3805   -0.7961   -0.0014 C   0  0  0  0  0  0  0  0  0  0  0  0
   -0.9011    0.3386   -1.2330 C   0  0  0  0  0  0  0  0  0  0  0  0
   -1.9394   -0.5178   -0.5529 C   0  0  0  0  0  0  0  0  0  0  0  0
   -3.3270    0.1412   -0.6544 C   0  0  0  0  0  0  0  0  0  0  0  0
    5.5267   -0.1628   -0.7909 C   0  0  0  0  0  0  0  0  0  0  0  0
   -4.4444   -0.7671   -0.1525 C   0  0  0  0  0  0  0  0  0  0  0  0
   -3.3877    1.5149    0.0046 C   0  0  0  0  0  0  0  0  0  0  0  0
    6.8147   -0.1803   -0.0069 C   0  0  0  0  0  0  0  0  0  0  0  0
   -5.7001   -0.6438   -0.7073 C   0  0  0  0  0  0  0  0  0  0  0  0
   -4.1618   -1.6810    0.8401 C   0  0  0  0  0  0  0  0  0  0  0  0
   -4.2617    2.4548   -0.4986 C   0  0  0  0  0  0  0  0  0  0  0  0
   -2.5669    1.7717    1.0820 C   0  0  0  0  0  0  0  0  0  0  0  0
    7.1242    0.8905    0.8182 C   0  0  0  0  0  0  0  0  0  0  0  0
    7.6683   -1.2670   -0.1235 C   0  0  0  0  0  0  0  0  0  0  0  0
   -6.7224   -1.4739   -0.2475 C   0  0  0  0  0  0  0  0  0  0  0  0
   -5.1841   -2.5113    1.3001 C   0  0  0  0  0  0  0  0  0  0  0  0
   -4.3175    3.7114    0.1042 C   0  0  0  0  0  0  0  0  0  0  0  0
   -2.6228    3.0284    1.6847 C   0  0  0  0  0  0  0  0  0  0  0  0
    8.3154    0.8742    1.5437 C   0  0  0  0  0  0  0  0  0  0  0  0
    8.8595   -1.2831    0.6021 C   0  0  0  0  0  0  0  0  0  0  0  0
   -6.4645   -2.4078    0.7562 C   0  0  0  0  0  0  0  0  0  0  0  0
   -3.4981    3.9982    1.1958 C   0  0  0  0  0  0  0  0  0  0  0  0
    9.1830   -0.2124    1.4357 C   0  0  0  0  0  0  0  0  0  0  0  0
  1 29  1  0
  2 10  2  0
  3  5  1  0
  3  6  1  0
  3  9  1  0
  4  7  1  0
  4  8  1  0
  4 10  1  0
  5  7  1  0
  6  8  1  0
  9 13  1  0
 10 11  1  0
 11 12  1  0
 12 14  1  0
 12 15  1  0
 13 16  1  0
 14 17  2  0
 14 18  1  0
 15 19  2  0
 15 20  1  0
 16 21  2  0
 16 22  1  0
 17 23  1  0
 18 24  2  0
 19 25  1  0
 20 26  2  0
 21 27  1  0
 22 28  2  0
 23 29  2  0
 24 29  1  0
 25 30  2  0
 26 30  1  0
 27 31  2  0
 28 31  1  0
M  END
>  <PUBCHEM_COMPOUND_CID>  (1) 
32135

>  <PUBCHEM_CONFORMER_RMSD>  (1) 
1

>  <PUBCHEM_CONFORMER_DIVERSEORDER>  (1) 
1
190
68
51
71
207
32
201
87
162
105
119
200
89
173
48
169
136
42
121
210
111
195
41
86
157
92
50
149
110
62
93
219
40
123
8
5
186
130
140
53
221
126
103
75
20
163
197
36
165
170
172
29
146
142
191
98
215
125
224
56
97
81
145
226
113
166
67
137
80
132
77
153
196
228
182
49
151
158
64
11
107
184
24
106
37
58
206
57
16
63
96
227
198
43
156
33
114
181
15
138
187
212
175
205
70
88
31
180
69
18
38
209
109
131
178
124
2
104
90
152
171
134
9
59
26
120
214
91
192
3
150
189
44
108
213
61
28
222
139
129
19
161
185
66
21
133
202
141
211
147
72
73
164
117
78
160
23
27
159
74
127
204
83
174
35
179
193
76
30
54
34
116
216
79
22
177
118
128
55
82
52
208
39
12
94
95
168
218
46
148
176
17
203
188
115
85
183
135
100
45
102
194
65
60
223
4
122
144
217
112
14
155
7
84
199
47
13
143
10
101
167
99
25
6
225
154
220

>  <PUBCHEM_MMFF94_PARTIAL_CHARGES>  (1) 
45
1 -0.18
10 0.57
11 0.06
12 0.29
13 0.14
14 -0.14
15 -0.14
16 -0.14
17 -0.15
18 -0.15
19 -0.15
2 -0.57
20 -0.15
21 -0.15
22 -0.15
23 -0.15
24 -0.15
25 -0.15
26 -0.15
27 -0.15
28 -0.15
29 0.18
3 -0.81
30 -0.15
31 -0.15
4 -0.66
47 0.15
48 0.15
49 0.15
5 0.27
50 0.15
51 0.15
52 0.15
53 0.15
54 0.15
55 0.15
56 0.15
57 0.15
58 0.15
59 0.15
6 0.27
60 0.15
7 0.3
8 0.3
9 0.27

>  <PUBCHEM_EFFECTIVE_ROTOR_COUNT>  (1) 
9.2

>  <PUBCHEM_PHARMACOPHORE_FEATURES>  (1) 
6
1 2 acceptor
1 3 cation
6 14 17 18 23 24 29 rings
6 15 19 20 25 26 30 rings
6 16 21 22 27 28 31 rings
6 3 4 5 6 7 8 rings

>  <PUBCHEM_HEAVY_ATOM_COUNT>  (1) 
31

>  <PUBCHEM_ATOM_DEF_STEREO_COUNT>  (1) 
0

>  <PUBCHEM_ATOM_UDEF_STEREO_COUNT>  (1) 
1

>  <PUBCHEM_BOND_DEF_STEREO_COUNT>  (1) 
0

>  <PUBCHEM_BOND_UDEF_STEREO_COUNT>  (1) 
0

>  <PUBCHEM_ISOTOPIC_ATOM_COUNT>  (1) 
0

>  <PUBCHEM_COMPONENT_COUNT>  (1) 
1

>  <PUBCHEM_CACTVS_TAUTO_COUNT>  (1) 
1

>  <PUBCHEM_CONFORMER_ID>  (1) 
00007D8700000001

>  <PUBCHEM_MMFF94_ENERGY>  (1) 
86.9533

>  <PUBCHEM_FEATURE_SELFOVERLAP>  (1) 
30.448

>  <PUBCHEM_SHAPE_FINGERPRINT>  (1) 
10 15 18202281429466895614
10100884 174 18115588299923166946
10369192 42 14692576528403064477
11135609 99 17968663855390458391
11315181 36 18113621187646538061
11411753 3 17915758482591937398
11443803 9 16444736153290932565
11672396 43 17822300140154584187
12144600 37 18342178809445662942
12596602 18 18410852119308296154
12788726 201 18266763388531761383
13073987 5 18342458093709023166
13383668 90 14996274856369626427
13540713 4 17629501712954032719
13631057 29 18334296479072952699
14068700 675 18188777266256443887
14150022 121 17917721184484551249
15183329 4 8142095264529168558
15347590 135 18342181076349495794
17686467 74 18334853961306419244
18603816 31 14490468733238666427
18608769 82 18202279234031894346
19611394 137 18342176712661982346
20721686 146 12174805913781602299
21130935 74 18335981957685005002
21814621 53 17987526910005283918
22956985 138 17620472845911276211
23522609 53 17460909261772756620
23569943 247 17535176758413809746
23576562 1 10087342414433332843
249057 25 17967545579324158860
2747138 104 18341905124647765359
3383291 50 18187931719760450410
3418910 222 18341060695998205048
3663271 9 18336824191996667162
4616759 239 18408599257989031202
484985 159 15719974496323948417
5028188 123 18261405391292482198
5104073 3 18338235938919719546
9896288 288 18340495461095022507
9953998 17 18342179943047263257

>  <PUBCHEM_SHAPE_MULTIPOLES>  (1) 
624
26.96
3.73
1.56
55.65
2.8
0.03
-14.23
12.66
-10.69
1.97
0.23
0.31
1.46

>  <PUBCHEM_SHAPE_SELFOVERLAP>  (1) 
1329.884

>  <PUBCHEM_SHAPE_VOLUME>  (1) 
346.7

>  <PUBCHEM_COORDINATE_TYPE>  (1) 
2
5
10

$$$$
