32140
     RDKit          3D

 30 33  0  0  1  0  0  0  0  0999 V2000
    7.4110    3.0889    1.3939 Cl  0  0  0  0  0  0  0  0  0  0  0  0
    0.8023   -0.9885   -2.3919 O   0  0  0  0  0  0  0  0  0  0  0  0
   -0.8523    0.1350   -1.2090 N   0  0  0  0  0  0  0  0  0  0  0  0
   -3.6151    0.4865   -0.4199 N   0  0  0  0  0  0  0  0  0  0  0  0
   -1.9380   -0.5846   -1.8700 C   0  0  0  0  0  0  0  0  0  0  0  0
   -1.2445    1.1242   -0.2026 C   0  0  0  0  0  0  0  0  0  0  0  0
   -3.1315   -0.7953   -0.9410 C   0  0  0  0  0  0  0  0  0  0  0  0
   -2.6813    1.6148   -0.3828 C   0  0  0  0  0  0  0  0  0  0  0  0
    1.5314    0.6409   -0.8261 C   0  0  0  0  0  0  0  0  0  0  0  0
    0.4701   -0.1506   -1.5502 C   0  0  0  0  0  0  0  0  0  0  0  0
    2.8497   -0.1520   -0.7780 C   0  0  0  0  0  0  0  0  0  0  0  0
   -4.9376    0.6329   -0.0084 C   0  0  0  0  0  0  0  0  0  0  0  0
    4.0086    0.6710   -0.2258 C   0  0  0  0  0  0  0  0  0  0  0  0
    2.7189   -1.4866   -0.0523 C   0  0  0  0  0  0  0  0  0  0  0  0
   -5.6702   -0.4561    0.5207 C   0  0  0  0  0  0  0  0  0  0  0  0
   -5.6044    1.8777   -0.1005 C   0  0  0  0  0  0  0  0  0  0  0  0
   -6.9942   -0.3085    0.9342 C   0  0  0  0  0  0  0  0  0  0  0  0
    5.2859    0.3985   -0.6667 C   0  0  0  0  0  0  0  0  0  0  0  0
    3.7406    1.6607    0.6954 C   0  0  0  0  0  0  0  0  0  0  0  0
    3.5311   -2.5328   -0.4346 C   0  0  0  0  0  0  0  0  0  0  0  0
    1.7926   -1.6035    0.9619 C   0  0  0  0  0  0  0  0  0  0  0  0
   -6.9284    2.0251    0.3130 C   0  0  0  0  0  0  0  0  0  0  0  0
   -7.6234    0.9319    0.8302 C   0  0  0  0  0  0  0  0  0  0  0  0
    6.3459    1.1518   -0.1621 C   0  0  0  0  0  0  0  0  0  0  0  0
    4.8006    2.4140    1.2001 C   0  0  0  0  0  0  0  0  0  0  0  0
    3.4116   -3.7538    0.2291 C   0  0  0  0  0  0  0  0  0  0  0  0
    1.6730   -2.8244    1.6256 C   0  0  0  0  0  0  0  0  0  0  0  0
   -7.7377   -1.4770    1.4870 C   0  0  0  0  0  0  0  0  0  0  0  0
    6.1033    2.1595    0.7713 C   0  0  0  0  0  0  0  0  0  0  0  0
    2.4825   -3.8997    1.2592 C   0  0  0  0  0  0  0  0  0  0  0  0
  1 29  1  0
  2 10  2  0
  3  5  1  0
  3  6  1  0
  3 10  1  0
  4  7  1  0
  4  8  1  0
  4 12  1  0
  5  7  1  0
  6  8  1  0
  9 10  1  0
  9 11  1  0
 11 13  1  0
 11 14  1  0
 12 15  2  0
 12 16  1  0
 13 18  2  0
 13 19  1  0
 14 20  2  0
 14 21  1  0
 15 17  1  0
 16 22  2  0
 17 23  2  0
 17 28  1  0
 18 24  1  0
 19 25  2  0
 20 26  1  0
 21 27  2  0
 22 23  1  0
 24 29  2  0
 25 29  1  0
 26 30  2  0
 27 30  1  0
M  END
>  <PUBCHEM_COMPOUND_CID>  (1) 
32140

>  <PUBCHEM_CONFORMER_RMSD>  (1) 
1

>  <PUBCHEM_CONFORMER_DIVERSEORDER>  (1) 
1
81
27
13
21
95
83
62
65
41
85
36
56
74
63
77
18
110
80
59
53
64
93
94
100
7
30
22
35
87
49
99
31
108
34
102
96
66
57
106
109
28
10
25
43
98
69
73
12
112
6
14
103
105
32
47
92
51
104
86
91
45
54
101
37
44
19
84
72
60
15
33
67
90
50
58
70
52
2
79
75
97
26
78
29
68
24
107
11
3
17
71
111
89
42
61
40
88
48
46
39
55
8
23
16
38
4
9
82
76
5
20

>  <PUBCHEM_MMFF94_PARTIAL_CHARGES>  (1) 
43
1 -0.18
10 0.57
11 0.29
12 0.1
13 -0.14
14 -0.14
15 -0.15
16 -0.15
17 -0.14
18 -0.15
19 -0.15
2 -0.57
20 -0.15
21 -0.15
22 -0.15
23 -0.15
24 -0.15
25 -0.15
26 -0.15
27 -0.15
28 0.14
29 0.18
3 -0.66
30 -0.15
4 -0.84
42 0.15
43 0.15
44 0.15
45 0.15
46 0.15
47 0.15
48 0.15
49 0.15
5 0.3
50 0.15
51 0.15
52 0.15
53 0.15
57 0.15
6 0.3
7 0.37
8 0.37
9 0.06

>  <PUBCHEM_EFFECTIVE_ROTOR_COUNT>  (1) 
7.2

>  <PUBCHEM_PHARMACOPHORE_FEATURES>  (1) 
6
1 2 acceptor
1 4 cation
6 12 15 16 17 22 23 rings
6 13 18 19 24 25 29 rings
6 14 20 21 26 27 30 rings
6 3 4 5 6 7 8 rings

>  <PUBCHEM_HEAVY_ATOM_COUNT>  (1) 
30

>  <PUBCHEM_ATOM_DEF_STEREO_COUNT>  (1) 
0

>  <PUBCHEM_ATOM_UDEF_STEREO_COUNT>  (1) 
1

>  <PUBCHEM_BOND_DEF_STEREO_COUNT>  (1) 
0

>  <PUBCHEM_BOND_UDEF_STEREO_COUNT>  (1) 
0

>  <PUBCHEM_ISOTOPIC_ATOM_COUNT>  (1) 
0

>  <PUBCHEM_COMPONENT_COUNT>  (1) 
1

>  <PUBCHEM_CACTVS_TAUTO_COUNT>  (1) 
1

>  <PUBCHEM_CONFORMER_ID>  (1) 
00007D8C00000001

>  <PUBCHEM_MMFF94_ENERGY>  (1) 
101.3988

>  <PUBCHEM_FEATURE_SELFOVERLAP>  (1) 
30.448

>  <PUBCHEM_SHAPE_FINGERPRINT>  (1) 
10 15 18272091625842842373
10006869 2 18129092338457487157
10165383 225 18187372030693645038
10763959 59 10879994653416536211
11475781 23 16371829765897481663
11479125 193 17485924447656894249
1200032 147 17703796950529997390
12596602 18 18412269402808034379
12730499 353 18408888425821867426
12788726 201 17346602920145957977
12977781 61 15360191094064713226
13073987 5 18336551526092819321
13533116 47 18263366902017787899
13540713 4 17533199878596001766
13692114 37 18115874164434977386
13726171 33 17489023889209350019
14347329 18 16200158668291886587
14347424 109 18265893558426870675
14394314 77 18410017620501720521
14461889 52 18114187457826054803
14565420 104 18410570713109188352
14747282 305 17241588582100248762
15183329 4 10735888261307348861
15347590 135 18410575106454979585
1577012 14 17560795572112949124
16992610 120 18116165523302379692
16994733 274 17345743231276563088
18393751 57 18042397092896782476
20505436 4 18060132176528858246
21033648 29 18196924690632084376
21130935 74 18337116666611671067
21315764 119 8862946061525080357
21792965 39 18201722851885881006
22149856 69 18042144102258957721
22224240 67 18261107521692229320
23576562 1 12031206468549776440
25222932 49 18411420652698545055
3383291 50 17313682546316683523
3411729 13 18343018887451276652
3663271 9 18339930329635533041
4073 2 18336269028444342027
4093350 32 17988927739147895710
4339292 15 8429779192799782936
4340502 62 18261110777219352486
437795 51 18409736153502884566
4516262 110 18340755009905231852
4874694 18 18113612388239782179
5104073 3 18339931394698063369
5109719 28 18338527450776442112
5385378 56 18335413561601678514
54076057 127 18131359604769989814
54076057 255 16415478276806342576
5758199 1 18409448124379589532
6086070 43 13470682663607028511
6697151 62 17542476376432288310
9689198 14 18059862795742254436
9896288 288 18054783155360361406

>  <PUBCHEM_SHAPE_MULTIPOLES>  (1) 
603.42
21.37
3.73
1.57
26.68
2.91
-0.3
-13.7
9.86
-6.55
1.97
-0.18
0.43
1.62

>  <PUBCHEM_SHAPE_SELFOVERLAP>  (1) 
1292.323

>  <PUBCHEM_SHAPE_VOLUME>  (1) 
334.3

>  <PUBCHEM_COORDINATE_TYPE>  (1) 
2
5
10

$$$$
