32144
     RDKit          3D

 16 17  0  0  1  0  0  0  0  0999 V2000
   -1.9568   -1.4008   -1.4156 O   0  0  0  0  0  0  0  0  0  0  0  0
   -3.5927    0.3152    0.2217 N   0  0  0  0  0  0  0  0  0  0  0  0
   -1.3657   -0.3563   -0.6346 C   0  0  0  0  0  0  0  0  0  0  0  0
    0.0262   -0.7623   -0.2605 C   0  0  0  0  0  0  0  0  0  0  0  0
   -2.2377   -0.0771    0.6028 C   0  0  0  0  0  0  0  0  0  0  0  0
    1.0675    0.1723   -0.1392 C   0  0  0  0  0  0  0  0  0  0  0  0
    2.3619   -0.2759    0.2168 C   0  0  0  0  0  0  0  0  0  0  0  0
    0.2578   -2.1193   -0.0341 C   0  0  0  0  0  0  0  0  0  0  0  0
    0.8525    1.5419   -0.3633 C   0  0  0  0  0  0  0  0  0  0  0  0
    2.5768   -1.6455    0.4408 C   0  0  0  0  0  0  0  0  0  0  0  0
    1.5307   -2.5600    0.3159 C   0  0  0  0  0  0  0  0  0  0  0  0
    3.4032    0.6588    0.3380 C   0  0  0  0  0  0  0  0  0  0  0  0
   -3.5663    1.5438   -0.5718 C   0  0  0  0  0  0  0  0  0  0  0  0
   -4.4280    0.4930    1.4094 C   0  0  0  0  0  0  0  0  0  0  0  0
    1.8987    2.4564   -0.2382 C   0  0  0  0  0  0  0  0  0  0  0  0
    3.1717    2.0158    0.1118 C   0  0  0  0  0  0  0  0  0  0  0  0
  1  3  1  0
  2  5  1  0
  2 13  1  0
  2 14  1  0
  3  4  1  0
  3  5  1  0
  4  6  2  0
  4  8  1  0
  6  7  1  0
  6  9  1  0
  7 10  2  0
  7 12  1  0
  8 11  2  0
  9 15  2  0
 10 11  1  0
 12 16  2  0
 15 16  1  0
M  END
>  <PUBCHEM_COMPOUND_CID>  (1) 
32144

>  <PUBCHEM_CONFORMER_RMSD>  (1) 
0.6

>  <PUBCHEM_CONFORMER_DIVERSEORDER>  (1) 
2
10
12
6
4
7
5
3
8
11
9
1

>  <PUBCHEM_MMFF94_PARTIAL_CHARGES>  (1) 
22
1 -0.68
10 -0.15
11 -0.15
12 -0.15
13 0.27
14 0.27
15 -0.15
16 -0.15
2 -0.81
20 0.15
21 0.15
22 0.15
23 0.15
24 0.15
3 0.42
31 0.4
32 0.15
33 0.15
4 -0.14
5 0.27
8 -0.15
9 -0.15

>  <PUBCHEM_EFFECTIVE_ROTOR_COUNT>  (1) 
3

>  <PUBCHEM_PHARMACOPHORE_FEATURES>  (1) 
5
1 1 acceptor
1 1 donor
1 2 cation
6 4 6 7 8 10 11 rings
6 6 7 9 12 15 16 rings

>  <PUBCHEM_HEAVY_ATOM_COUNT>  (1) 
16

>  <PUBCHEM_ATOM_DEF_STEREO_COUNT>  (1) 
0

>  <PUBCHEM_ATOM_UDEF_STEREO_COUNT>  (1) 
1

>  <PUBCHEM_BOND_DEF_STEREO_COUNT>  (1) 
0

>  <PUBCHEM_BOND_UDEF_STEREO_COUNT>  (1) 
0

>  <PUBCHEM_ISOTOPIC_ATOM_COUNT>  (1) 
0

>  <PUBCHEM_COMPONENT_COUNT>  (1) 
1

>  <PUBCHEM_CACTVS_TAUTO_COUNT>  (1) 
1

>  <PUBCHEM_CONFORMER_ID>  (1) 
00007D9000000002

>  <PUBCHEM_MMFF94_ENERGY>  (1) 
51.1259

>  <PUBCHEM_FEATURE_SELFOVERLAP>  (1) 
25.398

>  <PUBCHEM_SHAPE_FINGERPRINT>  (1) 
10382601 240 18333445448324682344
10465860 228 18413395319150986352
10608611 8 18261108522435537549
10967382 1 18409726244796866476
10980938 120 18410011026613376501
11471102 20 18336822005114280908
11471102 22 18187937161440783217
11640471 11 17989494017399784329
12390115 104 17906753727453791880
12491281 212 18119808264488781056
12553582 1 18121486969737434514
12644460 14 18335427837350186666
13140716 1 18263920119870527592
13583140 156 16372105893160126032
14178342 30 18194947759523264178
14790565 3 18335149725908758548
15219456 202 18187645756800513693
15442244 35 18195525883263715641
15490181 8 18121497118660148422
15775835 57 18200879573014969793
15906896 17 17912084163861611846
16945 1 18262506091971882206
18186145 218 18343587347378324580
18219364 16 18187632626842858085
19049666 15 17679013808052884453
201361 129 18412265055625858250
20157964 124 18337666426715024181
20510252 161 17402610143930838938
20559304 39 18339086986140535920
20645477 70 18337663106167130303
20681677 76 18261108531304878093
21041028 32 18048312250331091922
21524375 3 18198625621348582469
21665062 11 18410864226188503441
22094290 62 18413105048044245622
22182313 1 18049422774613470678
22854114 111 18410578387735730649
23184049 59 18269554948952791427
23557571 272 15194709263966336867
23558518 356 17902794394772020058
23598291 2 18201992214315630599
25 1 18408322215861466494
2748010 2 17902790005436477102
276578 36 18341902908523274704
2838139 119 15625360472623515776
293599 30 18336554936196976484
305870 269 18409445929302985724
3091708 16 9475854515871627178
474 4 18337952397588745505
49207404 50 18189354492422519323
7364860 26 18341334401024727006
77492 1 17917418822570137447
7832392 63 18343016705259762950
81228 2 17114094470149803730
8272917 22 18339651044601578099
84936 182 18129934714830501072

>  <PUBCHEM_SHAPE_MULTIPOLES>  (1) 
318.42
6.64
2.65
0.95
6.38
0.2
0.02
-2.8
1.8
-2.07
-0.15
0.82
0.08
-0.31

>  <PUBCHEM_SHAPE_SELFOVERLAP>  (1) 
677.081

>  <PUBCHEM_SHAPE_VOLUME>  (1) 
179.8

>  <PUBCHEM_COORDINATE_TYPE>  (1) 
2
5
10

$$$$
