32153
     RDKit          3D

 16 17  0  0  0  0  0  0  0  0999 V2000
    4.7518   -1.7315    0.4551 O   0  0  0  0  0  0  0  0  0  0  0  0
    3.3061   -1.2209   -1.2193 O   0  0  0  0  0  0  0  0  0  0  0  0
   -0.5639    0.6524   -0.0272 C   0  0  0  0  0  0  0  0  0  0  0  0
    1.8010    0.5158    0.4479 C   0  0  0  0  0  0  0  0  0  0  0  0
    0.5285   -0.0546    0.4754 C   0  0  0  0  0  0  0  0  0  0  0  0
   -1.8839    0.0608    0.0011 C   0  0  0  0  0  0  0  0  0  0  0  0
    2.9699   -0.2397    0.9841 C   0  0  0  0  0  0  0  0  0  0  0  0
   -0.3837    1.9301   -0.5571 C   0  0  0  0  0  0  0  0  0  0  0  0
    1.9812    1.7935   -0.0819 C   0  0  0  0  0  0  0  0  0  0  0  0
    0.8889    2.5006   -0.5845 C   0  0  0  0  0  0  0  0  0  0  0  0
   -2.7129    0.2569    1.1057 C   0  0  0  0  0  0  0  0  0  0  0  0
   -2.3281   -0.7042   -1.0772 C   0  0  0  0  0  0  0  0  0  0  0  0
   -3.9862   -0.3120    1.1316 C   0  0  0  0  0  0  0  0  0  0  0  0
   -3.6015   -1.2730   -1.0511 C   0  0  0  0  0  0  0  0  0  0  0  0
   -4.4306   -1.0769    0.0532 C   0  0  0  0  0  0  0  0  0  0  0  0
    3.6636   -1.0973   -0.0558 C   0  0  0  0  0  0  0  0  0  0  0  0
  1 16  1  0
  2 16  2  0
  3  5  1  0
  3  6  1  0
  3  8  2  0
  4  5  2  0
  4  7  1  0
  4  9  1  0
  6 11  2  0
  6 12  1  0
  7 16  1  0
  8 10  1  0
  9 10  2  0
 11 13  1  0
 12 14  2  0
 13 15  2  0
 14 15  1  0
M  END
>  <PUBCHEM_COMPOUND_CID>  (1) 
32153

>  <PUBCHEM_CONFORMER_RMSD>  (1) 
0.6

>  <PUBCHEM_CONFORMER_DIVERSEORDER>  (1) 
1
5
12
4
9
8
10
3
6
11
2
7

>  <PUBCHEM_MMFF94_PARTIAL_CHARGES>  (1) 
24
1 -0.65
10 -0.15
11 -0.15
12 -0.15
13 -0.15
14 -0.15
15 -0.15
16 0.66
17 0.15
2 -0.57
20 0.15
21 0.15
22 0.15
23 0.15
24 0.15
25 0.15
26 0.15
27 0.15
28 0.5
4 -0.14
5 -0.15
7 0.2
8 -0.15
9 -0.15

>  <PUBCHEM_EFFECTIVE_ROTOR_COUNT>  (1) 
3

>  <PUBCHEM_PHARMACOPHORE_FEATURES>  (1) 
5
1 1 acceptor
1 2 acceptor
3 1 2 16 anion
6 3 4 5 8 9 10 rings
6 6 11 12 13 14 15 rings

>  <PUBCHEM_HEAVY_ATOM_COUNT>  (1) 
16

>  <PUBCHEM_ATOM_DEF_STEREO_COUNT>  (1) 
0

>  <PUBCHEM_ATOM_UDEF_STEREO_COUNT>  (1) 
0

>  <PUBCHEM_BOND_DEF_STEREO_COUNT>  (1) 
0

>  <PUBCHEM_BOND_UDEF_STEREO_COUNT>  (1) 
0

>  <PUBCHEM_ISOTOPIC_ATOM_COUNT>  (1) 
0

>  <PUBCHEM_COMPONENT_COUNT>  (1) 
1

>  <PUBCHEM_CACTVS_TAUTO_COUNT>  (1) 
1

>  <PUBCHEM_CONFORMER_ID>  (1) 
00007D9900000001

>  <PUBCHEM_MMFF94_ENERGY>  (1) 
43.8657

>  <PUBCHEM_FEATURE_SELFOVERLAP>  (1) 
25.43

>  <PUBCHEM_SHAPE_FINGERPRINT>  (1) 
10618630 7 18409446968795893084
11543360 7 14490196020010770891
11578080 2 17986927787558286185
11769659 78 18273493485360380233
12032990 46 18333449841548601305
12363563 72 18260545602388417506
12553582 1 18261669290250323138
12707595 3 17968090940943163560
12892183 10 16271925982817885442
12916754 54 18337105787216546599
13296908 3 18187918504234951805
13533116 47 18198060473005298123
13583140 156 15841256069757410571
13675066 3 18201719574376447201
14252887 29 18337102453973824144
15848700 24 18335133194146086448
1813 80 18338528468746332188
18186145 218 17240758514902453177
19141452 34 18130506336359465031
193927 3 18341341062561558435
19422 9 18272092755287060587
19766037 51 17821454559920258849
20281475 54 18342454880434746862
20339313 130 18409169943194473488
20361792 2 18334855021698734485
20388580 30 18259989288159631028
20645477 70 18189041157262433415
20671657 53 18259701202927616625
20693207 138 17313673779607715491
20871998 22 18409162208338246432
20871999 31 17895473622630665092
21713013 43 16588031233559952747
22094290 60 16805321080890542189
2255824 54 18337394962584205356
22646028 28 18343018930184859871
23402539 116 18042123172603690394
23598291 2 18341618148128814581
2748010 2 18189032279386282220
328317 168 9367339323547797923
4028521 119 11241970377923153679
42 15 17632860823644749987
449060 23 18411981330207642754
5104073 3 18129951186520393179
573450 72 17489590086791010811
6049 1 17241040011422663253
7364860 26 18269555116757664152
77492 1 18129387175615083833
7970288 3 18335136471049021410
83771 10 18411981338913628336

>  <PUBCHEM_SHAPE_MULTIPOLES>  (1) 
317.53
8.35
2.01
1.13
0.2
0.92
0.01
-5.92
-0.69
-1.68
0.5
0.47
-0.17
-0.39

>  <PUBCHEM_SHAPE_SELFOVERLAP>  (1) 
685.087

>  <PUBCHEM_SHAPE_VOLUME>  (1) 
174.8

>  <PUBCHEM_COORDINATE_TYPE>  (1) 
2
5
10

$$$$
