32150
     RDKit          3D

 16 17  0  0  0  0  0  0  0  0999 V2000
   -2.2700   -1.4873    0.1128 O   0  0  0  0  0  0  0  0  0  0  0  0
   -3.2375    1.0539   -0.2460 O   0  0  0  0  0  0  0  0  0  0  0  0
    3.1904    1.2836    0.0313 N   0  0  0  0  0  0  0  0  0  0  0  0
    0.8787    0.4364    0.0259 C   0  0  0  0  0  0  0  0  0  0  0  0
   -0.0046   -0.6654    0.1196 C   0  0  0  0  0  0  0  0  0  0  0  0
    2.2627    0.2168    0.1186 C   0  0  0  0  0  0  0  0  0  0  0  0
   -1.3887   -0.4459    0.0269 C   0  0  0  0  0  0  0  0  0  0  0  0
    0.3519    1.7252   -0.1576 C   0  0  0  0  0  0  0  0  0  0  0  0
    0.5221   -1.9544    0.3031 C   0  0  0  0  0  0  0  0  0  0  0  0
   -1.8946    0.8414   -0.1555 C   0  0  0  0  0  0  0  0  0  0  0  0
    2.7686   -1.0706    0.3010 C   0  0  0  0  0  0  0  0  0  0  0  0
   -1.0259    1.9249   -0.2475 C   0  0  0  0  0  0  0  0  0  0  0  0
    1.8999   -2.1540    0.3931 C   0  0  0  0  0  0  0  0  0  0  0  0
    4.5084    1.1181   -0.4899 C   0  0  0  0  0  0  0  0  0  0  0  0
   -2.6250   -2.1320   -1.1063 C   0  0  0  0  0  0  0  0  0  0  0  0
   -3.9363    1.3095    0.9706 C   0  0  0  0  0  0  0  0  0  0  0  0
  1  7  1  0
  1 15  1  0
  2 10  1  0
  2 16  1  0
  3  6  1  0
  3 14  1  0
  4  5  1  0
  4  6  2  0
  4  8  1  0
  5  7  1  0
  5  9  2  0
  6 11  1  0
  7 10  2  0
  8 12  2  0
  9 13  1  0
 10 12  1  0
 11 13  2  0
M  END
>  <PUBCHEM_COMPOUND_CID>  (1) 
32150

>  <PUBCHEM_CONFORMER_RMSD>  (1) 
0.6

>  <PUBCHEM_CONFORMER_DIVERSEORDER>  (1) 
2
3
4
1

>  <PUBCHEM_MMFF94_PARTIAL_CHARGES>  (1) 
20
1 -0.36
10 0.08
11 -0.15
12 -0.15
13 -0.15
14 0.37
15 0.28
16 0.28
17 0.15
18 0.15
19 0.15
2 -0.36
20 0.15
21 0.15
22 0.4
3 -0.87
6 0.1
7 0.08
8 -0.15
9 -0.15

>  <PUBCHEM_EFFECTIVE_ROTOR_COUNT>  (1) 
3

>  <PUBCHEM_PHARMACOPHORE_FEATURES>  (1) 
6
1 1 acceptor
1 2 acceptor
1 3 cation
1 3 donor
6 4 5 6 9 11 13 rings
6 4 5 7 8 10 12 rings

>  <PUBCHEM_HEAVY_ATOM_COUNT>  (1) 
16

>  <PUBCHEM_ATOM_DEF_STEREO_COUNT>  (1) 
0

>  <PUBCHEM_ATOM_UDEF_STEREO_COUNT>  (1) 
0

>  <PUBCHEM_BOND_DEF_STEREO_COUNT>  (1) 
0

>  <PUBCHEM_BOND_UDEF_STEREO_COUNT>  (1) 
0

>  <PUBCHEM_ISOTOPIC_ATOM_COUNT>  (1) 
0

>  <PUBCHEM_COMPONENT_COUNT>  (1) 
1

>  <PUBCHEM_CACTVS_TAUTO_COUNT>  (1) 
1

>  <PUBCHEM_CONFORMER_ID>  (1) 
00007D9600000002

>  <PUBCHEM_MMFF94_ENERGY>  (1) 
82.7086

>  <PUBCHEM_FEATURE_SELFOVERLAP>  (1) 
30.478

>  <PUBCHEM_SHAPE_FINGERPRINT>  (1) 
10062212 137 18336816563728619330
10411042 1 17184193280577351450
10493431 412 18411708685721018913
10608611 8 18189331260448997292
10967382 1 18337107865368768608
10980938 120 18337108969080353313
11132069 177 18410001131330707440
11206711 2 18336540646064783734
11471102 20 18336542712033970373
12251169 10 18266171734552368978
12382932 28 18411419488339940233
12644460 14 18115596928801289544
13140716 1 18409725127968421274
13221675 6 18264770965165005971
13380535 21 18411985740922875323
13897977 150 18409443683019447508
14178342 30 18340751736944499217
14614273 12 18114449119844218261
15196674 1 18409167696915820267
15536298 74 18341049632135089414
15775835 57 18411985753987125248
16945 1 18193548965683525134
17844478 74 17678184806371573813
20525323 117 18409725196613960107
20645477 70 18192986028968329997
20739085 24 17905357051265253345
21267235 1 18410299081712573915
21501502 16 18410566280080680258
2334 1 18409442622152008418
23388829 49 18195238047535320287
23402539 116 18339920515524686708
23463225 33 18335134237786294042
23557571 272 18058741315525285406
23559900 14 18343305895005669580
25147074 1 18338504287964716178
2748010 2 18409446990175888006
3312278 4 18411983580570234208
34934 24 18408600349174474061
43471831 8 18334006220782704850
45790113 53 17976255733965704913
5104073 3 18409448072407316826
528886 8 18409443691640861928
53812653 166 18413106177895308632
69090 78 18339917109367486391
7364860 26 18267867186257440542
7832392 63 18413388722176171617

>  <PUBCHEM_SHAPE_MULTIPOLES>  (1) 
312.55
6.24
2.51
0.79
1.33
0.76
0.03
-2.09
-0.01
-0.36
0.17
-0.34
0.11
-0.97

>  <PUBCHEM_SHAPE_SELFOVERLAP>  (1) 
670.57

>  <PUBCHEM_SHAPE_VOLUME>  (1) 
174.9

>  <PUBCHEM_COORDINATE_TYPE>  (1) 
2
5
10

$$$$
