32166
     RDKit          3D

 22 22  0  0  0  0  0  0  0  0999 V2000
   -0.4569    1.3007   -0.9225 O   0  0  0  0  0  0  0  0  0  0  0  0
    1.2494   -0.9972   -0.4505 O   0  0  0  0  0  0  0  0  0  0  0  0
    3.9841   -1.3852   -0.5723 O   0  0  0  0  0  0  0  0  0  0  0  0
   -0.4463    1.8547    1.3119 O   0  0  0  0  0  0  0  0  0  0  0  0
   -4.0092    0.3455   -0.6889 N   0  0  0  0  0  0  0  0  0  0  0  0
   -2.5560    0.1848   -0.6575 C   0  0  0  0  0  0  0  0  0  0  0  0
   -4.6631   -0.9500   -0.8692 C   0  0  0  0  0  0  0  0  0  0  0  0
   -4.4789    0.9889    0.5376 C   0  0  0  0  0  0  0  0  0  0  0  0
   -1.8634    1.4989   -0.9811 C   0  0  0  0  0  0  0  0  0  0  0  0
   -4.3676   -1.8808    0.2947 C   0  0  0  0  0  0  0  0  0  0  0  0
   -5.9799    1.2197    0.4964 C   0  0  0  0  0  0  0  0  0  0  0  0
    1.5909    1.2756    0.2168 C   0  0  0  0  0  0  0  0  0  0  0  0
    2.0970    0.0289   -0.1515 C   0  0  0  0  0  0  0  0  0  0  0  0
    0.1272    1.5135    0.2890 C   0  0  0  0  0  0  0  0  0  0  0  0
    0.8519   -1.8418    0.6267 C   0  0  0  0  0  0  0  0  0  0  0  0
    3.4758   -0.1731   -0.2142 C   0  0  0  0  0  0  0  0  0  0  0  0
    2.4635    2.3201    0.5222 C   0  0  0  0  0  0  0  0  0  0  0  0
   -0.0678   -2.9266    0.0874 C   0  0  0  0  0  0  0  0  0  0  0  0
    4.3483    0.8714    0.0914 C   0  0  0  0  0  0  0  0  0  0  0  0
    3.8420    2.1180    0.4596 C   0  0  0  0  0  0  0  0  0  0  0  0
   -0.5455   -3.8596    1.1855 C   0  0  0  0  0  0  0  0  0  0  0  0
    5.4047   -1.5065   -0.6113 C   0  0  0  0  0  0  0  0  0  0  0  0
  1  9  1  0
  1 14  1  0
  2 13  1  0
  2 15  1  0
  3 16  1  0
  3 22  1  0
  4 14  2  0
  5  6  1  0
  5  7  1  0
  5  8  1  0
  6  9  1  0
  7 10  1  0
  8 11  1  0
 12 13  2  0
 12 14  1  0
 12 17  1  0
 13 16  1  0
 15 18  1  0
 16 19  2  0
 17 20  2  0
 18 21  1  0
 19 20  1  0
M  END
>  <PUBCHEM_COMPOUND_CID>  (1) 
32166

>  <PUBCHEM_CONFORMER_RMSD>  (1) 
1

>  <PUBCHEM_CONFORMER_DIVERSEORDER>  (1) 
3
58
38
32
1
49
78
30
34
65
27
14
51
19
2
87
85
12
8
80
44
10
11
55
13
26
67
43
76
88
86
35
4
48
45
37
56
82
61
6
59
39
21
53
31
36
23
72
89
64
5
46
68
47
40
16
7
57
66
22
70
52
81
15
54
73
18
25
62
17
75
71
84
63
20
29
33
79
77
74
9
28
90
50
41
24
42
83
69
60

>  <PUBCHEM_MMFF94_PARTIAL_CHARGES>  (1) 
21
1 -0.43
12 0.09
13 0.08
14 0.63
15 0.28
16 0.08
17 -0.15
19 -0.15
2 -0.36
20 -0.15
22 0.28
3 -0.36
4 -0.57
41 0.15
42 0.15
43 0.15
5 -0.81
6 0.27
7 0.27
8 0.27
9 0.28

>  <PUBCHEM_EFFECTIVE_ROTOR_COUNT>  (1) 
11

>  <PUBCHEM_PHARMACOPHORE_FEATURES>  (1) 
6
1 2 acceptor
1 21 hydrophobe
1 3 acceptor
1 4 acceptor
1 5 cation
6 12 13 16 17 19 20 rings

>  <PUBCHEM_HEAVY_ATOM_COUNT>  (1) 
22

>  <PUBCHEM_ATOM_DEF_STEREO_COUNT>  (1) 
0

>  <PUBCHEM_ATOM_UDEF_STEREO_COUNT>  (1) 
0

>  <PUBCHEM_BOND_DEF_STEREO_COUNT>  (1) 
0

>  <PUBCHEM_BOND_UDEF_STEREO_COUNT>  (1) 
0

>  <PUBCHEM_ISOTOPIC_ATOM_COUNT>  (1) 
0

>  <PUBCHEM_COMPONENT_COUNT>  (1) 
1

>  <PUBCHEM_CACTVS_TAUTO_COUNT>  (1) 
1

>  <PUBCHEM_CONFORMER_ID>  (1) 
00007DA600000003

>  <PUBCHEM_MMFF94_ENERGY>  (1) 
63.6154

>  <PUBCHEM_FEATURE_SELFOVERLAP>  (1) 
30.451

>  <PUBCHEM_SHAPE_FINGERPRINT>  (1) 
10064457 181 18336830904676843217
108634 29 18265336294736472822
11578080 2 16627976607356908466
11680986 33 18341333405214689560
12107183 9 17697044630834071337
12236239 1 17703789211067878537
12507557 5 10303515218269249093
12596599 1 17774459229926405943
12788726 201 17561096799496652088
13402501 40 18335139847325293163
14178342 30 17909252599550547856
14341114 176 18341899580182687117
14617045 38 18262243214477804823
14787075 74 18271236248165740101
15196674 1 18412825815330607439
15209289 33 18412260649079284807
19591789 44 18408880741603310774
20028762 73 18201431459159653998
20832881 197 18202284680087284232
21279426 13 18411984641490505486
21421861 104 18120375354812009137
21673915 165 18339076120411373295
221490 88 18412545409901175180
22393880 68 18263071150348031789
23559900 14 18341048610223068768
2871803 45 18336535067239947781
3680242 22 18336540517268856898
5104073 3 18343299284169845193
59755656 215 18261669260665431053
633830 44 18342167882425506037

>  <PUBCHEM_SHAPE_MULTIPOLES>  (1) 
424.29
11.3
3.44
0.99
6.65
2.96
0.04
-1.16
-0.9
-0.44
1.13
0.34
0.04
0.66

>  <PUBCHEM_SHAPE_SELFOVERLAP>  (1) 
848.98

>  <PUBCHEM_SHAPE_VOLUME>  (1) 
252.2

>  <PUBCHEM_COORDINATE_TYPE>  (1) 
2
5
10

$$$$
