32175
     RDKit          3D

 22 22  0  0  0  0  0  0  0  0999 V2000
    2.3973    0.5902   -0.6650 O   0  0  0  0  0  0  0  0  0  0  0  0
   -1.5040   -0.5376   -0.1915 O   0  0  0  0  0  0  0  0  0  0  0  0
    4.3755   -1.1550    0.1740 O   0  0  0  0  0  0  0  0  0  0  0  0
   -0.1627    0.6906   -1.6028 O   0  0  0  0  0  0  0  0  0  0  0  0
   -5.0156    0.5856   -0.0867 N   0  0  0  0  0  0  0  0  0  0  0  0
   -6.1876    0.1092    0.6361 C   0  0  0  0  0  0  0  0  0  0  0  0
   -3.8465   -0.2230    0.2249 C   0  0  0  0  0  0  0  0  0  0  0  0
    2.7403    2.9211   -0.2383 C   0  0  0  0  0  0  0  0  0  0  0  0
   -2.6306    0.2736   -0.5409 C   0  0  0  0  0  0  0  0  0  0  0  0
    2.3760    1.5710    0.3628 C   0  0  0  0  0  0  0  0  0  0  0  0
    2.7522    4.0231    0.8173 C   0  0  0  0  0  0  0  0  0  0  0  0
   -6.7792   -1.1123   -0.0617 C   0  0  0  0  0  0  0  0  0  0  0  0
   -7.2138    1.2333    0.7366 C   0  0  0  0  0  0  0  0  0  0  0  0
    2.0742   -0.6919   -0.3034 C   0  0  0  0  0  0  0  0  0  0  0  0
    0.7495   -1.1256   -0.3561 C   0  0  0  0  0  0  0  0  0  0  0  0
    3.0775   -1.5648    0.1177 C   0  0  0  0  0  0  0  0  0  0  0  0
    3.1584    5.3613    0.2211 C   0  0  0  0  0  0  0  0  0  0  0  0
   -0.3142   -0.2307   -0.7916 C   0  0  0  0  0  0  0  0  0  0  0  0
    0.4280   -2.4320    0.0125 C   0  0  0  0  0  0  0  0  0  0  0  0
    2.7560   -2.8712    0.4861 C   0  0  0  0  0  0  0  0  0  0  0  0
    1.4311   -3.3047    0.4335 C   0  0  0  0  0  0  0  0  0  0  0  0
    5.3382   -2.1102    0.6154 C   0  0  0  0  0  0  0  0  0  0  0  0
  1 10  1  0
  1 14  1  0
  2  9  1  0
  2 18  1  0
  3 16  1  0
  3 22  1  0
  4 18  2  0
  5  6  1  0
  5  7  1  0
  6 12  1  0
  6 13  1  0
  7  9  1  0
  8 10  1  0
  8 11  1  0
 11 17  1  0
 14 15  2  0
 14 16  1  0
 15 18  1  0
 15 19  1  0
 16 20  2  0
 19 21  2  0
 20 21  1  0
M  END
>  <PUBCHEM_COMPOUND_CID>  (1) 
32175

>  <PUBCHEM_CONFORMER_RMSD>  (1) 
1

>  <PUBCHEM_CONFORMER_DIVERSEORDER>  (1) 
2
59
29
3
54
8
21
28
61
53
58
57
24
10
46
35
18
22
11
62
51
38
15
16
14
4
36
25
1
37
45
42
39
56
23
13
44
5
52
31
34
47
17
19
26
41
43
12
30
27
63
9
32
60
20
6
33
49
7
50
48
40
55

>  <PUBCHEM_MMFF94_PARTIAL_CHARGES>  (1) 
21
1 -0.36
10 0.28
14 0.08
15 0.09
16 0.08
18 0.63
19 -0.15
2 -0.43
20 -0.15
21 -0.15
22 0.28
26 0.36
3 -0.36
4 -0.57
44 0.15
45 0.15
46 0.15
5 -0.9
6 0.27
7 0.27
9 0.28

>  <PUBCHEM_EFFECTIVE_ROTOR_COUNT>  (1) 
11

>  <PUBCHEM_PHARMACOPHORE_FEATURES>  (1) 
8
1 1 acceptor
1 17 hydrophobe
1 3 acceptor
1 4 acceptor
1 5 cation
1 5 donor
3 6 12 13 hydrophobe
6 14 15 16 19 20 21 rings

>  <PUBCHEM_HEAVY_ATOM_COUNT>  (1) 
22

>  <PUBCHEM_ATOM_DEF_STEREO_COUNT>  (1) 
0

>  <PUBCHEM_ATOM_UDEF_STEREO_COUNT>  (1) 
0

>  <PUBCHEM_BOND_DEF_STEREO_COUNT>  (1) 
0

>  <PUBCHEM_BOND_UDEF_STEREO_COUNT>  (1) 
0

>  <PUBCHEM_ISOTOPIC_ATOM_COUNT>  (1) 
0

>  <PUBCHEM_COMPONENT_COUNT>  (1) 
1

>  <PUBCHEM_CACTVS_TAUTO_COUNT>  (1) 
1

>  <PUBCHEM_CONFORMER_ID>  (1) 
00007DAF00000002

>  <PUBCHEM_MMFF94_ENERGY>  (1) 
53.304

>  <PUBCHEM_FEATURE_SELFOVERLAP>  (1) 
40.605

>  <PUBCHEM_SHAPE_FINGERPRINT>  (1) 
10165383 225 18188779478101824596
10411042 1 18122908621192383078
12035758 1 18263622058004420154
12616971 3 18130782365781667079
13140716 1 18335416932523654362
13533116 47 18335426747061411323
13878862 14 18337371787394987605
13899415 154 18338241466595214702
13955234 65 18408323289461060923
13965767 371 17899117580560038820
14849402 71 18410576218967604944
14955137 171 18339645547255033438
15142526 21 18125157397064054225
15348495 7 18334021605734984291
15475509 35 16877928413609988576
15927050 60 18052257585909222270
17844677 252 18411424978089119457
17980427 26 18269545212515302316
18785283 64 18336258033280760312
21049683 271 18187653483800257132
21267235 1 18191025600090322878
21315764 268 18336546015808566901
22224240 67 18335416851056666482
23558518 356 17762336212271102718
23559900 14 18409444765847072107
23845131 108 18118963830657874651
24771293 8 18129359628069108312
31174 14 18335133159538545398
3178227 256 18335143063912750786
44555599 121 18201445719495536185
5104073 3 18335427902492315939
67856867 119 18411700993972213457
9999458 23 18410013251580626494

>  <PUBCHEM_SHAPE_MULTIPOLES>  (1) 
424.29
14.17
5.18
0.89
34.74
7.46
0.1
1.47
-3.79
-10.86
-1.29
0.06
0.13
-0.49

>  <PUBCHEM_SHAPE_SELFOVERLAP>  (1) 
845.72

>  <PUBCHEM_SHAPE_VOLUME>  (1) 
252.9

>  <PUBCHEM_COORDINATE_TYPE>  (1) 
2
5
10

$$$$
