32170
     RDKit          3D

 19 19  0  0  1  0  0  0  0  0999 V2000
    3.4015    1.7659    0.2174 S   0  0  0  0  0  0  0  0  0  0  0  0
   -1.3207    0.6286   -1.8669 O   0  0  0  0  0  0  0  0  0  0  0  0
    2.0422   -1.9038    0.5278 O   0  0  0  0  0  0  0  0  0  0  0  0
    4.1600   -1.0721    0.8772 O   0  0  0  0  0  0  0  0  0  0  0  0
   -3.2029   -0.9702   -0.3721 N   0  0  0  0  0  0  0  0  0  0  0  0
    0.0882   -0.2537   -0.2082 N   0  0  0  0  0  0  0  0  0  0  0  0
   -1.9037   -1.4626   -0.8239 C   0  0  0  0  0  0  0  0  0  0  0  0
   -3.0663   -0.2077    0.8596 C   0  0  0  0  0  0  0  0  0  0  0  0
   -1.0229   -0.2353   -1.0470 C   0  0  0  0  0  0  0  0  0  0  0  0
   -4.4288    0.3048    1.3193 C   0  0  0  0  0  0  0  0  0  0  0  0
   -2.0775   -2.2734   -2.1028 C   0  0  0  0  0  0  0  0  0  0  0  0
    1.1081    0.7030   -0.1346 C   0  0  0  0  0  0  0  0  0  0  0  0
    0.9303    2.0789   -0.4107 C   0  0  0  0  0  0  0  0  0  0  0  0
    2.3906    0.3838    0.2179 C   0  0  0  0  0  0  0  0  0  0  0  0
   -4.3107    1.1243    2.5951 C   0  0  0  0  0  0  0  0  0  0  0  0
    2.1060    2.7801   -0.2572 C   0  0  0  0  0  0  0  0  0  0  0  0
   -0.3501    2.7092   -0.8153 C   0  0  0  0  0  0  0  0  0  0  0  0
    2.9620   -0.8787    0.5658 C   0  0  0  0  0  0  0  0  0  0  0  0
    2.4947   -3.2211    0.8588 C   0  0  0  0  0  0  0  0  0  0  0  0
  1 14  1  0
  1 16  1  0
  2  9  2  0
  3 18  1  0
  3 19  1  0
  4 18  2  0
  5  7  1  0
  5  8  1  0
  6  9  1  0
  6 12  1  0
  7  9  1  0
  7 11  1  0
  8 10  1  0
 10 15  1  0
 12 13  1  0
 12 14  2  0
 13 16  2  0
 13 17  1  0
 14 18  1  0
M  END
>  <PUBCHEM_COMPOUND_CID>  (1) 
32170

>  <PUBCHEM_CONFORMER_RMSD>  (1) 
0.8

>  <PUBCHEM_CONFORMER_DIVERSEORDER>  (1) 
4
12
41
120
15
130
23
177
53
107
84
5
129
114
88
154
14
169
122
172
170
149
139
128
52
146
90
161
75
8
10
35
135
109
100
83
78
119
31
131
136
137
111
21
43
174
102
11
167
112
97
18
34
147
40
141
2
101
95
3
176
57
92
24
85
27
7
61
145
98
140
160
168
28
86
22
73
155
148
115
104
125
1
126
173
79
138
105
30
59
89
55
70
159
124
17
44
69
152
36
118
67
133
142
117
42
45
76
110
13
29
150
94
6
96
49
93
134
132
171
16
153
72
164
26
38
121
46
37
158
58
9
165
68
106
56
19
39
143
82
63
175
116
74
64
103
156
77
33
48
81
32
62
25
87
144
151
20
65
162
157
166
66
54
91
113
163
50
127
51
123
99
60
80
47
108
71

>  <PUBCHEM_MMFF94_PARTIAL_CHARGES>  (1) 
19
1 -0.08
12 0.06
13 -0.18
14 -0.05
16 -0.11
17 0.18
18 0.81
19 0.28
2 -0.57
23 0.36
29 0.37
3 -0.43
33 0.15
4 -0.57
5 -0.9
6 -0.49
7 0.33
8 0.27
9 0.57

>  <PUBCHEM_EFFECTIVE_ROTOR_COUNT>  (1) 
8

>  <PUBCHEM_PHARMACOPHORE_FEATURES>  (1) 
7
1 15 hydrophobe
1 2 acceptor
1 4 acceptor
1 5 cation
1 5 donor
1 6 donor
5 1 12 13 14 16 rings

>  <PUBCHEM_HEAVY_ATOM_COUNT>  (1) 
19

>  <PUBCHEM_ATOM_DEF_STEREO_COUNT>  (1) 
0

>  <PUBCHEM_ATOM_UDEF_STEREO_COUNT>  (1) 
1

>  <PUBCHEM_BOND_DEF_STEREO_COUNT>  (1) 
0

>  <PUBCHEM_BOND_UDEF_STEREO_COUNT>  (1) 
0

>  <PUBCHEM_ISOTOPIC_ATOM_COUNT>  (1) 
0

>  <PUBCHEM_COMPONENT_COUNT>  (1) 
1

>  <PUBCHEM_CACTVS_TAUTO_COUNT>  (1) 
3

>  <PUBCHEM_CONFORMER_ID>  (1) 
00007DAA00000004

>  <PUBCHEM_MMFF94_ENERGY>  (1) 
38.5934

>  <PUBCHEM_FEATURE_SELFOVERLAP>  (1) 
35.52

>  <PUBCHEM_SHAPE_FINGERPRINT>  (1) 
10064457 181 17974865165442194424
10382601 240 18410586097217903200
11086676 242 18410299077269783776
11578080 2 17555974217661850625
11640471 11 18058184971326608385
11725454 13 14261062113445840107
12553582 1 18335973182612885098
12596599 1 18201154455280412406
12633257 1 18259988171289039755
12892183 10 18263380195289553849
13032168 30 17476344475794799158
13140716 1 18190733323122546594
13583140 156 18262809591841430955
13965767 371 18130517348624204089
14178342 30 18126271185025400426
14739800 52 17345462881138666576
14790565 3 17973456678384716604
14844126 61 17253954621484061786
14957384 54 16845572045272884728
15527383 91 18333455330501150297
15842332 3 18128253582978475375
16945 1 17972020698918004620
19433438 48 18270662251862589834
201361 129 18268436904488639128
20645477 70 17970320789173964718
20739085 24 18187936113717273692
21041028 32 18261672575968862944
21427221 339 18272663320016979433
22445834 79 18268144438869615429
23598291 2 18200308947749288614
2748010 2 18118374359750879532
352729 6 17330542156262017220
458136 41 18042693977946866148
633830 44 18123201365962611068
6992083 37 18343579659771869791
7097593 13 18411986879416198027
7615 1 18129652148973768741
81228 2 17543878267153761288

>  <PUBCHEM_SHAPE_MULTIPOLES>  (1) 
367.29
7.45
3.28
1.76
4.16
0.64
0.12
-0.03
4.72
-2.33
-0.23
2.34
0.2
-2.53

>  <PUBCHEM_SHAPE_SELFOVERLAP>  (1) 
730.104

>  <PUBCHEM_SHAPE_VOLUME>  (1) 
219.8

>  <PUBCHEM_COORDINATE_TYPE>  (1) 
2
5
10

$$$$
