32176
     RDKit          3D

 16 17  0  0  0  0  0  0  0  0999 V2000
   -4.4636   -0.3676    0.4035 O   0  0  0  0  0  0  0  0  0  0  0  0
    5.3842    0.6160    0.1380 O   0  0  0  0  0  0  0  0  0  0  0  0
    3.6008    0.5067    1.5386 O   0  0  0  0  0  0  0  0  0  0  0  0
   -0.4507    0.4712   -0.3576 C   0  0  0  0  0  0  0  0  0  0  0  0
   -0.8496   -0.8495   -0.0420 C   0  0  0  0  0  0  0  0  0  0  0  0
    1.8533   -0.2845   -0.5545 C   0  0  0  0  0  0  0  0  0  0  0  0
    0.9048    0.7370   -0.6112 C   0  0  0  0  0  0  0  0  0  0  0  0
    0.1187   -1.8654    0.0106 C   0  0  0  0  0  0  0  0  0  0  0  0
    1.4610   -1.5832   -0.2442 C   0  0  0  0  0  0  0  0  0  0  0  0
   -2.2050   -1.1155    0.2117 C   0  0  0  0  0  0  0  0  0  0  0  0
   -1.4190    1.4870   -0.4102 C   0  0  0  0  0  0  0  0  0  0  0  0
    3.2887    0.0155   -0.8261 C   0  0  0  0  0  0  0  0  0  0  0  0
   -3.1536   -0.0940    0.1551 C   0  0  0  0  0  0  0  0  0  0  0  0
   -2.7612    1.2048   -0.1553 C   0  0  0  0  0  0  0  0  0  0  0  0
    4.0714    0.3986    0.4146 C   0  0  0  0  0  0  0  0  0  0  0  0
   -5.3803    0.7230    0.3288 C   0  0  0  0  0  0  0  0  0  0  0  0
  1 13  1  0
  1 16  1  0
  2 15  1  0
  3 15  2  0
  4  5  2  0
  4  7  1  0
  4 11  1  0
  5  8  1  0
  5 10  1  0
  6  7  2  0
  6  9  1  0
  6 12  1  0
  8  9  2  0
 10 13  2  0
 11 14  2  0
 12 15  1  0
 13 14  1  0
M  END
>  <PUBCHEM_COMPOUND_CID>  (1) 
32176

>  <PUBCHEM_CONFORMER_RMSD>  (1) 
0.6

>  <PUBCHEM_CONFORMER_DIVERSEORDER>  (1) 
1
10
9
2
5
8
7
3
6
4

>  <PUBCHEM_MMFF94_PARTIAL_CHARGES>  (1) 
21
1 -0.36
10 -0.15
11 -0.15
12 0.2
13 0.08
14 -0.15
15 0.66
16 0.28
17 0.15
18 0.15
19 0.15
2 -0.65
20 0.15
23 0.15
24 0.15
28 0.5
3 -0.57
6 -0.14
7 -0.15
8 -0.15
9 -0.15

>  <PUBCHEM_EFFECTIVE_ROTOR_COUNT>  (1) 
3

>  <PUBCHEM_PHARMACOPHORE_FEATURES>  (1) 
6
1 1 acceptor
1 2 acceptor
1 3 acceptor
3 2 3 15 anion
6 4 5 10 11 13 14 rings
6 4 5 6 7 8 9 rings

>  <PUBCHEM_HEAVY_ATOM_COUNT>  (1) 
16

>  <PUBCHEM_ATOM_DEF_STEREO_COUNT>  (1) 
0

>  <PUBCHEM_ATOM_UDEF_STEREO_COUNT>  (1) 
0

>  <PUBCHEM_BOND_DEF_STEREO_COUNT>  (1) 
0

>  <PUBCHEM_BOND_UDEF_STEREO_COUNT>  (1) 
0

>  <PUBCHEM_ISOTOPIC_ATOM_COUNT>  (1) 
0

>  <PUBCHEM_COMPONENT_COUNT>  (1) 
1

>  <PUBCHEM_CACTVS_TAUTO_COUNT>  (1) 
1

>  <PUBCHEM_CONFORMER_ID>  (1) 
00007DB000000001

>  <PUBCHEM_MMFF94_ENERGY>  (1) 
48.669

>  <PUBCHEM_FEATURE_SELFOVERLAP>  (1) 
30.532

>  <PUBCHEM_SHAPE_FINGERPRINT>  (1) 
11132069 177 18409735066701864567
11401426 45 18409729565186199653
11543360 7 15769485495556981581
12119455 92 17489868245926284190
12236239 1 17385725811641733364
12251169 10 18113336431620761644
12390115 104 18199765655861622433
12403259 415 18411413978176877044
13140716 1 18191029108486967609
13214271 11 18410857689759845391
13288520 33 8430320138326509802
13380535 76 18334582338689175975
13583140 156 16588569994046280589
13760787 19 16443641193431332922
15042514 8 18262806301248473499
15048467 5 17703795791173820409
15196674 1 18336549300793182471
15209294 21 18201727210818048841
15375358 24 18333736797489163399
15536298 74 18340210674186927863
16945 1 18334866025542096991
17834072 33 16415471671331322021
17846911 113 18410292518764675077
1813 80 16153986821569178974
18186145 218 17775851203062270086
18522853 276 18408608045824453333
19784866 170 18335423456446646987
200 152 18273210898751927277
20510252 161 18270121206200141297
20645477 56 18273215308918527079
22854114 59 18342460335096012225
23402539 116 18336259124197029527
23402655 69 18340483358204087525
23557571 272 17916872446690075495
23559900 14 18341902883349680622
26918003 58 16515688857425595505
2748010 2 18118408336799119999
29717793 49 11674886628125908491
34934 24 18409725141401812559
4047638 21 17704075092538304806
4072396 5 18114453492400584531
42 15 15285357314606888363
474 4 16701727371807259104
5104073 3 18191595155538987057
53812653 166 18342455950124255154
57005193 9 18261108574012035935
69090 78 18060135457372208071
7364860 26 18198342849550932366
90316 7 17458617878902043828

>  <PUBCHEM_SHAPE_MULTIPOLES>  (1) 
311.66
9.33
1.5
0.85
0.11
0.4
-0.13
-2.79
-2.2
-0.29
0.07
0.6
-0.1
0.34

>  <PUBCHEM_SHAPE_SELFOVERLAP>  (1) 
673.433

>  <PUBCHEM_SHAPE_VOLUME>  (1) 
172

>  <PUBCHEM_COORDINATE_TYPE>  (1) 
2
5
10

$$$$
