32178
     RDKit          3D

 23 24  0  0  0  0  0  0  0  0999 V2000
   -3.6293    1.0807   -0.4988 N   0  0  0  0  0  0  0  0  0  0  0  0
    3.6528    1.0585   -0.4896 N   0  0  0  0  0  0  0  0  0  0  0  0
   -4.4468   -1.4000    1.5312 C   0  0  0  0  0  0  0  0  0  0  0  0
   -4.7665   -2.4150    0.4334 C   0  0  0  0  0  0  0  0  0  0  0  0
    4.3775   -1.3853    1.5247 C   0  0  0  0  0  0  0  0  0  0  0  0
    4.7749   -2.3925    0.4455 C   0  0  0  0  0  0  0  0  0  0  0  0
   -5.5395   -0.3455    1.7310 C   0  0  0  0  0  0  0  0  0  0  0  0
   -4.9030   -1.8371   -0.9771 C   0  0  0  0  0  0  0  0  0  0  0  0
    5.4512   -0.3308    1.8083 C   0  0  0  0  0  0  0  0  0  0  0  0
    5.0096   -1.8090   -0.9499 C   0  0  0  0  0  0  0  0  0  0  0  0
   -5.0541    1.1002    1.5816 C   0  0  0  0  0  0  0  0  0  0  0  0
   -3.6174   -1.1997   -1.5185 C   0  0  0  0  0  0  0  0  0  0  0  0
    4.9722    1.1146    1.6452 C   0  0  0  0  0  0  0  0  0  0  0  0
    3.7670   -1.1742   -1.5849 C   0  0  0  0  0  0  0  0  0  0  0  0
   -4.8865    1.5821    0.1404 C   0  0  0  0  0  0  0  0  0  0  0  0
   -3.7295    0.3008   -1.7724 C   0  0  0  0  0  0  0  0  0  0  0  0
    4.8403    1.5848    0.1923 C   0  0  0  0  0  0  0  0  0  0  0  0
    3.8678    0.3437   -1.7522 C   0  0  0  0  0  0  0  0  0  0  0  0
   -2.4746    1.4288   -0.0479 C   0  0  0  0  0  0  0  0  0  0  0  0
    2.3862    1.3838   -0.0805 C   0  0  0  0  0  0  0  0  0  0  0  0
   -1.2164    0.9604   -0.6446 C   0  0  0  0  0  0  0  0  0  0  0  0
    1.2278    0.9739   -0.6130 C   0  0  0  0  0  0  0  0  0  0  0  0
   -0.0640    1.3767   -0.1041 C   0  0  0  0  0  0  0  0  0  0  0  0
  1 15  1  0
  1 16  1  0
  1 19  2  0
  2 17  1  0
  2 18  1  0
  2 20  1  0
  3  4  1  0
  3  7  1  0
  4  8  1  0
  5  6  1  0
  5  9  1  0
  6 10  1  0
  7 11  1  0
  8 12  1  0
  9 13  1  0
 10 14  1  0
 11 15  1  0
 12 16  1  0
 13 17  1  0
 14 18  1  0
 19 21  1  0
 20 22  2  0
 21 23  2  0
 22 23  1  0
M  CHG  1   1   1
M  END
>  <PUBCHEM_COMPOUND_CID>  (1) 
32178

>  <PUBCHEM_CONFORMER_RMSD>  (1) 
0.8

>  <PUBCHEM_CONFORMER_DIVERSEORDER>  (1) 
1
97
169
174
41
154
32
160
140
166
136
42
67
77
186
128
149
72
2
185
76
157
25
17
159
99
116
145
130
21
172
56
53
181
7
107
59
168
38
57
94
124
9
184
132
162
5
163
139
92
39
150
183
102
180
89
61
147
120
16
23
40
28
52
119
54
118
66
167
133
123
178
96
137
24
12
86
27
113
152
47
156
82
112
11
177
49
71
105
187
10
122
143
8
55
179
62
125
13
104
182
115
3
141
173
78
129
22
80
70
29
6
135
158
20
146
165
84
103
14
95
35
148
93
51
34
117
31
4
30
15
65
90
75
50
101
164
63
19
121
91
33
110
138
45
43
88
142
81
127
74
36
108
48
151
83
131
46
126
98
100
175
170
58
18
37
114
155
69
64
85
176
161
60
106
144
68
87
73
79
171
26
111
44
109
134
153

>  <PUBCHEM_MMFF94_PARTIAL_CHARGES>  (1) 
16
1 -0.09
15 0.35
16 0.35
17 0.37
18 0.37
19 0.33
2 -0.84
20 -0.05
21 -0.14
22 -0.15
23 -0.15
56 0.06
57 0.15
58 0.15
59 0.15
60 0.15

>  <PUBCHEM_EFFECTIVE_ROTOR_COUNT>  (1) 
6.4

>  <PUBCHEM_PHARMACOPHORE_FEATURES>  (1) 
1
1 2 cation

>  <PUBCHEM_HEAVY_ATOM_COUNT>  (1) 
23

>  <PUBCHEM_ATOM_DEF_STEREO_COUNT>  (1) 
0

>  <PUBCHEM_ATOM_UDEF_STEREO_COUNT>  (1) 
0

>  <PUBCHEM_BOND_DEF_STEREO_COUNT>  (1) 
1

>  <PUBCHEM_BOND_UDEF_STEREO_COUNT>  (1) 
2

>  <PUBCHEM_ISOTOPIC_ATOM_COUNT>  (1) 
0

>  <PUBCHEM_COMPONENT_COUNT>  (1) 
1

>  <PUBCHEM_CACTVS_TAUTO_COUNT>  (1) 
1

>  <PUBCHEM_CONFORMER_ID>  (1) 
00007DB200000001

>  <PUBCHEM_MMFF94_ENERGY>  (1) 
52.2217

>  <PUBCHEM_FEATURE_SELFOVERLAP>  (1) 
5.074

>  <PUBCHEM_SHAPE_FINGERPRINT>  (1) 
10670039 82 9079115592127497266
10763959 59 9727366722857322984
11089746 13 9439133022142415948
11595378 159 15698007331510091802
12422481 6 18130795516460214303
12596602 18 17418375821997218722
12616971 3 16515685528736581949
13941219 33 18334301972515108793
14211702 104 18261670458339093635
14251740 57 18413669102585360838
14251751 18 17385999547097913370
14251758 9 17917435280794937117
14528608 73 8142082061435846212
15183329 4 17603305968175048475
15348495 7 17989488519609601953
15799311 1 18114760281661492754
16067690 210 14979680940329634235
17349148 13 17313391105944628340
17857418 61 18186797002300605027
19377110 9 17846494884970685960
19958102 18 16008749143167599859
20691028 202 10087654723191186263
220451 1 18412549812137405452
22061861 79 15574712499685759841
23559900 14 17274830138469813612
25122255 55 17967809470467336867
312425 54 18272940409895404097
44317340 157 12396301434951111975
484985 159 18262512715429111951
497634 4 13623823700413624237
5104073 3 17917992771628712179
90127 26 10735878391256179588

>  <PUBCHEM_SHAPE_MULTIPOLES>  (1) 
463.37
17.6
2.49
1.97
0.07
1.05
0.26
5.05
5.36
0.07
0.1
-0.13
0.4
0.04

>  <PUBCHEM_SHAPE_SELFOVERLAP>  (1) 
900.54

>  <PUBCHEM_SHAPE_VOLUME>  (1) 
272.4

>  <PUBCHEM_COORDINATE_TYPE>  (1) 
2
5
10

$$$$
