32208
     RDKit          3D

 19 21  0  0  0  0  0  0  0  0999 V2000
   -0.2756   -2.4554    0.0971 O   0  0  0  0  0  0  0  0  0  0  0  0
   -1.2237    2.8022   -0.0308 O   0  0  0  0  0  0  0  0  0  0  0  0
    4.9566   -0.4380   -1.0338 O   0  0  0  0  0  0  0  0  0  0  0  0
    2.2931   -2.1103    0.2110 N   0  0  0  0  0  0  0  0  0  0  0  0
    0.6504   -0.2720    0.1059 C   0  0  0  0  0  0  0  0  0  0  0  0
    0.3917    1.0998    0.0720 C   0  0  0  0  0  0  0  0  0  0  0  0
   -1.8487   -0.7461   -0.0039 C   0  0  0  0  0  0  0  0  0  0  0  0
    1.9709   -0.7320    0.1749 C   0  0  0  0  0  0  0  0  0  0  0  0
   -2.1074    0.6258   -0.0382 C   0  0  0  0  0  0  0  0  0  0  0  0
   -0.4603   -1.2452    0.0694 C   0  0  0  0  0  0  0  0  0  0  0  0
   -0.9967    1.5988   -0.0016 C   0  0  0  0  0  0  0  0  0  0  0  0
    3.0260    0.1801    0.2101 C   0  0  0  0  0  0  0  0  0  0  0  0
    1.4535    2.0117    0.1077 C   0  0  0  0  0  0  0  0  0  0  0  0
    2.7679    1.5491    0.1767 C   0  0  0  0  0  0  0  0  0  0  0  0
   -2.9105   -1.6580   -0.0395 C   0  0  0  0  0  0  0  0  0  0  0  0
   -3.4279    1.0858   -0.1079 C   0  0  0  0  0  0  0  0  0  0  0  0
    4.4486   -0.2746    0.2833 C   0  0  0  0  0  0  0  0  0  0  0  0
   -4.2249   -1.1953   -0.1092 C   0  0  0  0  0  0  0  0  0  0  0  0
   -4.4830    0.1736   -0.1432 C   0  0  0  0  0  0  0  0  0  0  0  0
  1 10  2  0
  2 11  2  0
  3 17  1  0
  4  8  1  0
  5  6  1  0
  5  8  2  0
  5 10  1  0
  6 11  1  0
  6 13  2  0
  7  9  2  0
  7 10  1  0
  7 15  1  0
  8 12  1  0
  9 11  1  0
  9 16  1  0
 12 14  2  0
 12 17  1  0
 13 14  1  0
 15 18  2  0
 16 19  2  0
 18 19  1  0
M  END
>  <PUBCHEM_COMPOUND_CID>  (1) 
32208

>  <PUBCHEM_CONFORMER_RMSD>  (1) 
0.6

>  <PUBCHEM_CONFORMER_DIVERSEORDER>  (1) 
1

>  <PUBCHEM_MMFF94_PARTIAL_CHARGES>  (1) 
28
1 -0.57
10 0.4
11 0.4
12 -0.14
13 -0.15
14 -0.15
15 -0.15
16 -0.15
17 0.42
18 -0.15
19 -0.15
2 -0.57
20 0.15
21 0.15
22 0.15
23 0.15
26 0.15
27 0.15
28 0.4
29 0.4
3 -0.68
30 0.4
4 -0.9
5 0.09
6 0.09
7 0.09
8 0.1
9 0.09

>  <PUBCHEM_EFFECTIVE_ROTOR_COUNT>  (1) 
1

>  <PUBCHEM_PHARMACOPHORE_FEATURES>  (1) 
9
1 1 acceptor
1 2 acceptor
1 3 acceptor
1 3 donor
1 4 cation
1 4 donor
6 5 6 7 9 10 11 rings
6 5 6 8 12 13 14 rings
6 7 9 15 16 18 19 rings

>  <PUBCHEM_HEAVY_ATOM_COUNT>  (1) 
19

>  <PUBCHEM_ATOM_DEF_STEREO_COUNT>  (1) 
0

>  <PUBCHEM_ATOM_UDEF_STEREO_COUNT>  (1) 
0

>  <PUBCHEM_BOND_DEF_STEREO_COUNT>  (1) 
0

>  <PUBCHEM_BOND_UDEF_STEREO_COUNT>  (1) 
0

>  <PUBCHEM_ISOTOPIC_ATOM_COUNT>  (1) 
0

>  <PUBCHEM_COMPONENT_COUNT>  (1) 
1

>  <PUBCHEM_CACTVS_TAUTO_COUNT>  (1) 
4

>  <PUBCHEM_CONFORMER_ID>  (1) 
00007DD000000001

>  <PUBCHEM_MMFF94_ENERGY>  (1) 
73.215

>  <PUBCHEM_FEATURE_SELFOVERLAP>  (1) 
45.713

>  <PUBCHEM_SHAPE_FINGERPRINT>  (1) 
10062212 137 18411409640138471651
10616163 171 18411982446946807351
10967382 1 18410290328568769995
11132069 177 18342168994537244313
11458722 379 18409451383890450062
11471102 20 18338510940805409844
11680986 33 18121500429837054841
12011746 2 18410855447301328030
12032990 46 18338518646261529977
12236239 1 17749106669749526682
12553582 1 18410283714102830307
12954195 1 18128833945177869908
13140716 1 18193548094095184930
13221675 6 18411134740582409970
13288520 33 18413392025190580204
13862211 1 18410567401003951418
14115302 16 18114189678334631054
14178342 30 18195232326924069800
14790565 3 18337683000092297772
15196674 1 18410854412267106281
15442244 35 18266736879028337194
15536298 74 18342736372781477648
15848702 151 17703520912523175326
16945 1 18410568461855306504
17804303 29 18412546526313136112
18186145 218 18334848446261962421
193761 8 17978226059034794625
19591789 44 18338516472855526139
200 152 17988921193300640475
20028762 73 18057885947362485727
20510252 161 18272367551173297768
21029758 27 18187652439743265581
21267235 1 18410863187238843291
21421861 104 17897158009830154355
21501502 16 18193556666580843146
221490 88 18191873528937509587
23175994 123 17203613687521375312
2334 1 18338232790576413465
23402539 116 18342729736882860735
23463225 33 18409164433046649841
23559900 14 18342453785814672616
23566358 2 18195808470784616950
2748010 2 18266455593167233489
2871803 45 18408879646344107996
3004659 81 18261116232577275150
3286 77 17203325662650868977
335352 9 18410854339168123669
34934 24 18410564077052399843
350125 39 18410014316643390417
43471831 8 18262795164382269026
474 4 16879078644902721188
5104073 3 18411417357814758992
59755656 215 18409448055649654543
69090 78 18343296006904056359
7364860 26 18270116962878097200
8809292 202 18261394489515412939
9709674 26 18194683889216533867

>  <PUBCHEM_SHAPE_MULTIPOLES>  (1) 
368.42
8.03
2.39
0.66
1.45
0.33
-0.04
-1.43
-0.87
-0.27
0.07
0.23
-0.02
0.11

>  <PUBCHEM_SHAPE_SELFOVERLAP>  (1) 
830.186

>  <PUBCHEM_SHAPE_VOLUME>  (1) 
192.9

>  <PUBCHEM_COORDINATE_TYPE>  (1) 
2
5
10

$$$$
