32201
     RDKit          3D

 20 20  0  0  0  0  0  0  0  0999 V2000
   -1.9225    1.1102    0.6391 O   0  0  0  0  0  0  0  0  0  0  0  0
    1.7200   -0.6524    0.1427 O   0  0  0  0  0  0  0  0  0  0  0  0
   -4.1722   -0.3008   -0.1304 O   0  0  0  0  0  0  0  0  0  0  0  0
    0.6106    0.8054    1.5368 O   0  0  0  0  0  0  0  0  0  0  0  0
    5.3632   -0.1214   -0.0336 N   0  0  0  0  0  0  0  0  0  0  0  0
    4.0667   -0.7384   -0.3121 C   0  0  0  0  0  0  0  0  0  0  0  0
    2.9604   -0.0327    0.4557 C   0  0  0  0  0  0  0  0  0  0  0  0
   -1.8189   -0.2088    0.3073 C   0  0  0  0  0  0  0  0  0  0  0  0
   -0.6049   -0.8654    0.3470 C   0  0  0  0  0  0  0  0  0  0  0  0
   -1.7582    2.0565   -0.4142 C   0  0  0  0  0  0  0  0  0  0  0  0
   -1.8876    3.4589    0.1601 C   0  0  0  0  0  0  0  0  0  0  0  0
   -2.9576   -0.9156   -0.0796 C   0  0  0  0  0  0  0  0  0  0  0  0
    0.6202   -0.1326    0.7548 C   0  0  0  0  0  0  0  0  0  0  0  0
   -0.4831   -2.2009    0.0151 C   0  0  0  0  0  0  0  0  0  0  0  0
    5.3412    1.2969   -0.3895 C   0  0  0  0  0  0  0  0  0  0  0  0
    6.4258   -0.8145   -0.7609 C   0  0  0  0  0  0  0  0  0  0  0  0
   -2.8590   -2.2650   -0.4191 C   0  0  0  0  0  0  0  0  0  0  0  0
   -1.6217   -2.9075   -0.3717 C   0  0  0  0  0  0  0  0  0  0  0  0
   -1.7380    4.5240   -0.9113 C   0  0  0  0  0  0  0  0  0  0  0  0
   -5.2845   -1.0960   -0.5360 C   0  0  0  0  0  0  0  0  0  0  0  0
  1  8  1  0
  1 10  1  0
  2  7  1  0
  2 13  1  0
  3 12  1  0
  3 20  1  0
  4 13  2  0
  5  6  1  0
  5 15  1  0
  5 16  1  0
  6  7  1  0
  8  9  2  0
  8 12  1  0
  9 13  1  0
  9 14  1  0
 10 11  1  0
 11 19  1  0
 12 17  2  0
 14 18  2  0
 17 18  1  0
M  END
>  <PUBCHEM_COMPOUND_CID>  (1) 
32201

>  <PUBCHEM_CONFORMER_RMSD>  (1) 
0.8

>  <PUBCHEM_CONFORMER_DIVERSEORDER>  (1) 
1
110
273
37
201
184
29
193
214
216
79
198
130
72
164
195
185
90
213
68
207
48
93
188
168
212
65
34
8
61
107
97
221
269
215
262
272
165
53
183
192
103
288
196
166
203
242
145
138
85
231
256
129
290
286
80
157
81
173
197
125
150
158
60
26
123
70
115
63
280
49
267
83
59
124
78
255
200
140
181
119
263
236
177
209
289
171
253
224
281
136
109
234
147
261
199
159
106
266
219
247
27
162
133
32
167
225
276
122
274
35
101
186
28
189
155
232
75
257
233
264
202
270
143
248
285
67
77
87
226
238
190
52
161
252
21
194
258
146
19
105
243
99
251
2
151
66
210
222
237
126
132
5
142
139
51
211
191
279
16
187
111
144
74
116
230
94
62
102
121
291
175
58
118
246
180
153
217
84
98
271
4
178
112
275
50
277
149
245
176
148
141
128
54
135
46
12
15
55
169
31
38
117
127
114
287
100
88
57
73
131
71
205
89
104
235
113
239
3
30
179
9
241
40
156
14
43
254
10
96
7
208
229
134
204
18
268
24
22
265
282
223
17
174
36
284
39
206
20
13
108
283
182
163
228
42
152
218
250
45
170
160
44
154
278
56
249
244
82
259
120
69
33
23
41
25
220
11
92
86
260
6
64
91
137
240
47
172
227
76
95

>  <PUBCHEM_MMFF94_PARTIAL_CHARGES>  (1) 
21
1 -0.36
10 0.28
12 0.08
13 0.63
14 -0.15
15 0.27
16 0.27
17 -0.15
18 -0.15
2 -0.43
20 0.28
29 0.15
3 -0.36
36 0.15
37 0.15
4 -0.57
5 -0.81
6 0.27
7 0.28
8 0.08
9 0.09

>  <PUBCHEM_EFFECTIVE_ROTOR_COUNT>  (1) 
9

>  <PUBCHEM_PHARMACOPHORE_FEATURES>  (1) 
6
1 1 acceptor
1 19 hydrophobe
1 3 acceptor
1 4 acceptor
1 5 cation
6 8 9 12 14 17 18 rings

>  <PUBCHEM_HEAVY_ATOM_COUNT>  (1) 
20

>  <PUBCHEM_ATOM_DEF_STEREO_COUNT>  (1) 
0

>  <PUBCHEM_ATOM_UDEF_STEREO_COUNT>  (1) 
0

>  <PUBCHEM_BOND_DEF_STEREO_COUNT>  (1) 
0

>  <PUBCHEM_BOND_UDEF_STEREO_COUNT>  (1) 
0

>  <PUBCHEM_ISOTOPIC_ATOM_COUNT>  (1) 
0

>  <PUBCHEM_COMPONENT_COUNT>  (1) 
1

>  <PUBCHEM_CACTVS_TAUTO_COUNT>  (1) 
1

>  <PUBCHEM_CONFORMER_ID>  (1) 
00007DC900000001

>  <PUBCHEM_MMFF94_ENERGY>  (1) 
65.9331

>  <PUBCHEM_FEATURE_SELFOVERLAP>  (1) 
30.457

>  <PUBCHEM_SHAPE_FINGERPRINT>  (1) 
10165383 225 18055642715765566673
11833330 49 18335978752668431937
12107183 9 17685203985993651170
12173636 292 18337947879425594636
12788726 201 18333724698065098851
12954195 1 18271244911088363192
14508225 48 18269544100065868717
14910302 57 18272642481199864000
14955137 171 18191035697510092939
15961568 22 18120648291848188432
200 152 16272213006776583674
20645477 56 18341339877224113072
20645477 70 16916798332181435190
20871999 31 18343580711791132296
21029758 27 18336548326131057467
21033650 10 18191049836742761428
21267235 1 18270120240381443907
21285901 2 18131075917642334023
22907989 373 18190721073622584845
2297311 6 18411705404165421078
23352939 185 18272375325011486041
23402539 116 18343297098058020847
23557571 272 18273220776976514220
23558518 356 17829313697833295131
23559900 14 18129376159123995434
266924 87 18266730286902468951
283562 15 18411136888440474731
3004659 81 18412265043680505270
4214541 1 18341616997510082834
559249 180 18266176124769048930
6327066 14 17972316205358309804

>  <PUBCHEM_SHAPE_MULTIPOLES>  (1) 
383.13
11.11
3.95
0.89
19.14
5.34
0.1
-2.53
-3.21
-4.82
-1.15
0.11
0.2
0.05

>  <PUBCHEM_SHAPE_SELFOVERLAP>  (1) 
772.117

>  <PUBCHEM_SHAPE_VOLUME>  (1) 
226.5

>  <PUBCHEM_COORDINATE_TYPE>  (1) 
2
5
10

$$$$
