32216
     RDKit          3D

 12 12  0  0  0  0  0  0  0  0999 V2000
    1.2479    0.1646   -0.2365 O   0  0  0  0  0  0  0  0  0  0  0  0
   -0.1640    1.9013    0.3234 O   0  0  0  0  0  0  0  0  0  0  0  0
    3.8178   -0.7344    0.4317 O   0  0  0  0  0  0  0  0  0  0  0  0
   -3.4164   -0.8466    0.1959 N   0  0  0  0  0  0  0  0  0  0  0  0
   -4.7446   -0.3208    0.4773 C   0  0  0  0  0  0  0  0  0  0  0  0
   -4.3029   -0.5933   -0.9310 C   0  0  0  0  0  0  0  0  0  0  0  0
   -2.4131    0.2051    0.3060 C   0  0  0  0  0  0  0  0  0  0  0  0
   -1.0297   -0.3446   -0.0288 C   0  0  0  0  0  0  0  0  0  0  0  0
    0.0353    0.7260    0.0486 C   0  0  0  0  0  0  0  0  0  0  0  0
    2.3646    1.0593   -0.2020 C   0  0  0  0  0  0  0  0  0  0  0  0
    3.6267    0.2887   -0.5379 C   0  0  0  0  0  0  0  0  0  0  0  0
    4.9782   -1.5054    0.1533 C   0  0  0  0  0  0  0  0  0  0  0  0
  1  9  1  0
  1 10  1  0
  2  9  2  0
  3 11  1  0
  3 12  1  0
  4  5  1  0
  4  6  1  0
  4  7  1  0
  5  6  1  0
  7  8  1  0
  8  9  1  0
 10 11  1  0
M  END
>  <PUBCHEM_COMPOUND_CID>  (1) 
32216

>  <PUBCHEM_CONFORMER_RMSD>  (1) 
0.8

>  <PUBCHEM_CONFORMER_DIVERSEORDER>  (1) 
1
46
71
40
100
2
80
102
95
31
64
78
12
3
94
51
88
11
39
49
76
67
91
60
77
42
37
72
52
70
28
29
35
81
10
48
55
82
62
83
101
14
33
58
73
24
105
7
13
96
69
9
6
85
45
50
53
17
97
21
87
25
16
61
43
104
26
19
65
18
75
23
36
59
63
4
74
90
8
15
22
41
54
109
30
27
44
47
34
79
89
57
68
110
20
107
93
5
103
84
106
92
99
32
38
108
66
56
98
86

>  <PUBCHEM_MMFF94_PARTIAL_CHARGES>  (1) 
16
1 -0.43
10 0.28
11 0.28
12 0.28
13 0.1
14 0.1
15 0.1
16 0.1
2 -0.57
3 -0.56
4 -0.59
5 -0.04
6 -0.04
7 0.27
8 0.06
9 0.66

>  <PUBCHEM_EFFECTIVE_ROTOR_COUNT>  (1) 
7.6

>  <PUBCHEM_PHARMACOPHORE_FEATURES>  (1) 
3
1 2 acceptor
1 3 acceptor
1 4 cation

>  <PUBCHEM_HEAVY_ATOM_COUNT>  (1) 
12

>  <PUBCHEM_ATOM_DEF_STEREO_COUNT>  (1) 
0

>  <PUBCHEM_ATOM_UDEF_STEREO_COUNT>  (1) 
0

>  <PUBCHEM_BOND_DEF_STEREO_COUNT>  (1) 
0

>  <PUBCHEM_BOND_UDEF_STEREO_COUNT>  (1) 
0

>  <PUBCHEM_ISOTOPIC_ATOM_COUNT>  (1) 
0

>  <PUBCHEM_COMPONENT_COUNT>  (1) 
1

>  <PUBCHEM_CACTVS_TAUTO_COUNT>  (1) 
1

>  <PUBCHEM_CONFORMER_ID>  (1) 
00007DD800000001

>  <PUBCHEM_MMFF94_ENERGY>  (1) 
19.6059

>  <PUBCHEM_FEATURE_SELFOVERLAP>  (1) 
15.223

>  <PUBCHEM_SHAPE_FINGERPRINT>  (1) 
114248 4 16081371872996595606
12032990 46 18408044026170889729
12555020 224 18335132107704749951
13237642 15 12823292429244044455
13690532 89 18409449189077668302
14123238 8 10592042462143650763
1420 369 18343022151558291406
14251717 144 18409449167824884610
14252887 29 17704079465084206590
14455015 7 18040444290898375131
177051 138 18411419488709172618
17834072 8 17894623734644531447
18186145 218 16588022441666945549
200 152 18410291393488524784
20281475 54 18337956800167418813
20621476 91 13829547904911213015
20645477 70 18186523211305476698
20671657 53 18334863830740351973
21119208 17 16515402975564480151
21354914 88 18412546483648260830
21652331 79 10519987054128499898
22485316 2 18339922713740658012
23218964 4 18334856091852375397
23402539 116 18060133228737666981
23590187 198 18060138725847692327
32948 21 17385997339031114213
42 15 18202283597718361714
4990 188 14996281418355837648
573450 72 17846500322710402307
81539 233 7853587798014190416

>  <PUBCHEM_SHAPE_MULTIPOLES>  (1) 
224.37
10.84
1.33
0.75
0.96
0.21
-0.08
-5.33
-0.14
1.07
0.1
-0.32
-0.04
-0.42

>  <PUBCHEM_SHAPE_SELFOVERLAP>  (1) 
423.505

>  <PUBCHEM_SHAPE_VOLUME>  (1) 
140.9

>  <PUBCHEM_COORDINATE_TYPE>  (1) 
2
5
10

$$$$
