32210
     RDKit          3D

 18 18  0  0  0  0  0  0  0  0999 V2000
    5.2885   -2.0124   -0.2301 Cl  0  0  0  0  0  0  0  0  0  0  0  0
    3.2564    2.7257    0.4000 O   0  0  0  0  0  0  0  0  0  0  0  0
    1.0642    2.5636    0.3260 O   0  0  0  0  0  0  0  0  0  0  0  0
   -3.7708   -0.2709   -0.1782 N   0  0  0  0  0  0  0  0  0  0  0  0
   -0.1144    0.4059   -0.0106 N   0  0  0  0  0  0  0  0  0  0  0  0
    2.2069    2.0526    0.2796 N   0  0  0  0  0  0  0  0  0  0  0  0
   -2.5541    0.5221   -0.0052 C   0  0  0  0  0  0  0  0  0  0  0  0
   -1.3228   -0.3602   -0.1494 C   0  0  0  0  0  0  0  0  0  0  0  0
   -4.9548    0.5815   -0.0778 C   0  0  0  0  0  0  0  0  0  0  0  0
   -3.8274   -1.3433    0.8145 C   0  0  0  0  0  0  0  0  0  0  0  0
   -4.9129    1.7024   -1.1027 C   0  0  0  0  0  0  0  0  0  0  0  0
   -5.0548   -2.2152    0.6112 C   0  0  0  0  0  0  0  0  0  0  0  0
    1.1611   -0.1425   -0.0589 C   0  0  0  0  0  0  0  0  0  0  0  0
    2.3174    0.6477    0.0811 C   0  0  0  0  0  0  0  0  0  0  0  0
    1.3189   -1.5265   -0.2538 C   0  0  0  0  0  0  0  0  0  0  0  0
    3.5872    0.0728    0.0278 C   0  0  0  0  0  0  0  0  0  0  0  0
    2.5886   -2.1015   -0.3072 C   0  0  0  0  0  0  0  0  0  0  0  0
    3.7228   -1.3018   -0.1663 C   0  0  0  0  0  0  0  0  0  0  0  0
  1 18  1  0
  2  6  1  0
  3  6  2  0
  4  7  1  0
  4  9  1  0
  4 10  1  0
  5  8  1  0
  5 13  1  0
  6 14  1  0
  7  8  1  0
  9 11  1  0
 10 12  1  0
 13 14  2  0
 13 15  1  0
 14 16  1  0
 15 17  2  0
 16 18  2  0
 17 18  1  0
M  CHG  2   2  -1   6   1
M  END
>  <PUBCHEM_COMPOUND_CID>  (1) 
32210

>  <PUBCHEM_CONFORMER_RMSD>  (1) 
0.8

>  <PUBCHEM_CONFORMER_DIVERSEORDER>  (1) 
1
12
11
20
4
10
16
3
19
6
17
21
22
9
18
5
8
13
15
2
14
7

>  <PUBCHEM_MMFF94_PARTIAL_CHARGES>  (1) 
20
1 -0.18
10 0.27
13 0.1
14 0.13
15 -0.15
16 -0.15
17 -0.15
18 0.18
2 -0.52
27 0.4
3 -0.52
34 0.15
35 0.15
36 0.15
4 -0.81
5 -0.87
6 0.91
7 0.27
8 0.37
9 0.27

>  <PUBCHEM_EFFECTIVE_ROTOR_COUNT>  (1) 
7

>  <PUBCHEM_PHARMACOPHORE_FEATURES>  (1) 
7
1 2 acceptor
1 2 anion
1 3 acceptor
1 4 cation
1 5 cation
1 5 donor
6 13 14 15 16 17 18 rings

>  <PUBCHEM_HEAVY_ATOM_COUNT>  (1) 
18

>  <PUBCHEM_ATOM_DEF_STEREO_COUNT>  (1) 
0

>  <PUBCHEM_ATOM_UDEF_STEREO_COUNT>  (1) 
0

>  <PUBCHEM_BOND_DEF_STEREO_COUNT>  (1) 
0

>  <PUBCHEM_BOND_UDEF_STEREO_COUNT>  (1) 
0

>  <PUBCHEM_ISOTOPIC_ATOM_COUNT>  (1) 
0

>  <PUBCHEM_COMPONENT_COUNT>  (1) 
1

>  <PUBCHEM_CACTVS_TAUTO_COUNT>  (1) 
1

>  <PUBCHEM_CONFORMER_ID>  (1) 
00007DD200000001

>  <PUBCHEM_MMFF94_ENERGY>  (1) 
54.6213

>  <PUBCHEM_FEATURE_SELFOVERLAP>  (1) 
35.6

>  <PUBCHEM_SHAPE_FINGERPRINT>  (1) 
11405975 8 18409450267699898985
11471102 20 18413105044055259524
12507557 5 18342738498874613819
12507560 40 18409167753319983935
12916754 54 18411986884017146523
13167823 11 18412824716062137879
14341114 176 18410018736586231041
15196674 1 18410013255938974827
15242439 84 18261391105518864583
15961568 22 17314229045474904549
17844677 252 18411144636593228897
18186145 218 17822284682930931607
18222031 100 18059571331135817630
18785283 64 18263360459952069716
200 152 17917705769567083719
20645477 56 18114180788469863381
20645477 70 18273495667467524103
20681677 76 18409726292378954469
21065198 57 18408885131565958119
21065199 12 18336265742947120409
21065201 7 17821443573794673691
21267235 1 18342465790042439126
21452121 103 18341320180715311280
21709351 56 18413383229076745215
221490 88 18409735079328401027
22289505 5 18337666400085435948
22943178 12 18334855043811653403
23402539 116 16660370242223665430
23557571 272 17821723966545289845
23559900 14 18411131407729908587
26918003 58 18340767048729957227
3421961 26 18412825785519005066
3545911 37 18335140856773885405
4214541 1 18408887309299012991
5104073 3 18410576206108466995
5281201 14 18335987549146225237
57124632 79 17985815167537160208
7471813 234 17561071480368977928
7495541 125 18334861623448739598
77779 3 18409731781262762651
9709674 26 18262241148329887131

>  <PUBCHEM_SHAPE_MULTIPOLES>  (1) 
345.62
12.06
2.77
0.76
8.34
0.94
0.05
-3.88
0.68
-1.12
-0.32
0.48
0.02
1.78

>  <PUBCHEM_SHAPE_SELFOVERLAP>  (1) 
688.271

>  <PUBCHEM_SHAPE_VOLUME>  (1) 
206.9

>  <PUBCHEM_COORDINATE_TYPE>  (1) 
2
5
10

$$$$
