32218
     RDKit          3D

 16 16  0  0  0  0  0  0  0  0999 V2000
    2.3607    1.1387   -1.2323 F   0  0  0  0  0  0  0  0  0  0  0  0
    2.2933    1.4120    0.9294 F   0  0  0  0  0  0  0  0  0  0  0  0
    3.9259   -1.1163   -0.8981 F   0  0  0  0  0  0  0  0  0  0  0  0
    3.8607   -0.8379    1.2654 F   0  0  0  0  0  0  0  0  0  0  0  0
    4.7492    0.6963   -0.0058 F   0  0  0  0  0  0  0  0  0  0  0  0
    0.0109    0.2401   -0.1063 O   0  0  0  0  0  0  0  0  0  0  0  0
   -1.1778   -1.7252    0.1118 O   0  0  0  0  0  0  0  0  0  0  0  0
   -4.7678    0.5253   -0.3267 N   0  0  0  0  0  0  0  0  0  0  0  0
   -6.0249   -0.2064   -0.2642 C   0  0  0  0  0  0  0  0  0  0  0  0
   -5.5311    0.5847    0.9117 C   0  0  0  0  0  0  0  0  0  0  0  0
   -3.6365   -0.3835   -0.1891 C   0  0  0  0  0  0  0  0  0  0  0  0
   -2.3245    0.3950   -0.2159 C   0  0  0  0  0  0  0  0  0  0  0  0
   -1.1274   -0.5134   -0.0482 C   0  0  0  0  0  0  0  0  0  0  0  0
    1.2372   -0.4839    0.0366 C   0  0  0  0  0  0  0  0  0  0  0  0
    2.4068    0.4776   -0.0480 C   0  0  0  0  0  0  0  0  0  0  0  0
    3.7453   -0.2031    0.0796 C   0  0  0  0  0  0  0  0  0  0  0  0
  1 15  1  0
  2 15  1  0
  3 16  1  0
  4 16  1  0
  5 16  1  0
  6 13  1  0
  6 14  1  0
  7 13  2  0
  8  9  1  0
  8 10  1  0
  8 11  1  0
  9 10  1  0
 11 12  1  0
 12 13  1  0
 14 15  1  0
 15 16  1  0
M  END
>  <PUBCHEM_COMPOUND_CID>  (1) 
32218

>  <PUBCHEM_CONFORMER_RMSD>  (1) 
0.8

>  <PUBCHEM_CONFORMER_DIVERSEORDER>  (1) 
1
107
28
104
25
91
88
45
110
48
4
100
64
52
85
93
39
62
57
2
95
82
7
106
38
37
92
101
81
42
53
99
40
66
94
72
26
10
58
23
49
109
108
43
105
29
5
78
44
15
50
76
75
70
84
86
12
90
65
21
96
19
102
74
17
3
97
20
30
56
41
69
47
6
83
89
14
22
98
27
87
61
51
11
18
33
68
34
79
32
80
73
103
31
35
60
71
77
46
9
55
36
54
8
24
13
16
67
59
63

>  <PUBCHEM_MMFF94_PARTIAL_CHARGES>  (1) 
20
1 -0.34
10 -0.04
11 0.27
12 0.06
13 0.66
14 0.28
15 0.68
16 1.02
17 0.1
18 0.1
19 0.1
2 -0.34
20 0.1
3 -0.34
4 -0.34
5 -0.34
6 -0.43
7 -0.57
8 -0.59
9 -0.04

>  <PUBCHEM_EFFECTIVE_ROTOR_COUNT>  (1) 
7.6

>  <PUBCHEM_PHARMACOPHORE_FEATURES>  (1) 
2
1 7 acceptor
1 8 cation

>  <PUBCHEM_HEAVY_ATOM_COUNT>  (1) 
16

>  <PUBCHEM_ATOM_DEF_STEREO_COUNT>  (1) 
0

>  <PUBCHEM_ATOM_UDEF_STEREO_COUNT>  (1) 
0

>  <PUBCHEM_BOND_DEF_STEREO_COUNT>  (1) 
0

>  <PUBCHEM_BOND_UDEF_STEREO_COUNT>  (1) 
0

>  <PUBCHEM_ISOTOPIC_ATOM_COUNT>  (1) 
0

>  <PUBCHEM_COMPONENT_COUNT>  (1) 
1

>  <PUBCHEM_CACTVS_TAUTO_COUNT>  (1) 
1

>  <PUBCHEM_CONFORMER_ID>  (1) 
00007DDA00000001

>  <PUBCHEM_MMFF94_ENERGY>  (1) 
15.0754

>  <PUBCHEM_FEATURE_SELFOVERLAP>  (1) 
10.148

>  <PUBCHEM_SHAPE_FINGERPRINT>  (1) 
10354089 29 17749392571998885828
114248 4 15482670182876290695
12815109 37 9439402424197814991
12916748 109 18410015416354984561
13081056 2 18411979161544875669
13533116 47 16343427206834734822
14123238 8 18409729560685497421
1420 363 17967258602932015987
14252887 29 8358262574416812421
15048467 5 18334296517828015236
15375358 24 11239995672472524237
17834072 33 17917988408712131351
17834076 25 17704353277543608460
18186145 218 18340757209165383053
187816 3 17060340730064107211
200 152 16917350329472015051
20279233 1 13038907763199393389
20645477 56 18335698385866922309
20645477 70 17703797968432368750
20767249 13 10447927265641325693
212847 35 18411138047554506961
22485316 2 10952048944788299589
23402539 116 17489863830789626453
23402655 69 18060700610606636423
23536379 177 16630529510126448615
23557571 272 11815629578814636227
23559900 14 18060136578690682600
26918003 58 13038902235539488671
351380 180 17989205945501116849
366044 4 18410573994295715435
4047638 21 18409449197957668810
42 15 17749106673422138171
42788 4 18131070433232502685
4990 188 17561086908323566959
5104073 3 18337669831938216795
522135 26 17385442116045572294
5374978 207 18272645753484902200
542803 24 18341896294521643013

>  <PUBCHEM_SHAPE_MULTIPOLES>  (1) 
276.18
12.93
1.12
0.87
10.21
0.11
0.06
-1.09
0.72
-0.48
0.04
-0.32
-0.07
-0.22

>  <PUBCHEM_SHAPE_SELFOVERLAP>  (1) 
552.86

>  <PUBCHEM_SHAPE_VOLUME>  (1) 
164.2

>  <PUBCHEM_COORDINATE_TYPE>  (1) 
2
5
10

$$$$
