32226
     RDKit          3D

 24 27  0  0  0  0  0  0  0  0999 V2000
    2.0998    0.4741   -1.3940 O   0  0  0  0  0  0  0  0  0  0  0  0
   -1.8508    3.4812    1.0118 O   0  0  0  0  0  0  0  0  0  0  0  0
   -1.3744   -1.4615   -0.2487 N   0  0  0  0  0  0  0  0  0  0  0  0
   -4.1824   -1.9214   -0.1711 N   0  0  0  0  0  0  0  0  0  0  0  0
   -2.1842   -1.2067   -1.4368 C   0  0  0  0  0  0  0  0  0  0  0  0
   -1.9228   -2.4443    0.6817 C   0  0  0  0  0  0  0  0  0  0  0  0
   -3.6203   -0.8704   -1.0319 C   0  0  0  0  0  0  0  0  0  0  0  0
   -3.3648   -2.0811    1.0402 C   0  0  0  0  0  0  0  0  0  0  0  0
   -0.1252   -0.9615   -0.1107 C   0  0  0  0  0  0  0  0  0  0  0  0
    0.0078    0.5193   -0.1411 C   0  0  0  0  0  0  0  0  0  0  0  0
   -5.5673   -1.6108    0.1810 C   0  0  0  0  0  0  0  0  0  0  0  0
    0.9424   -1.7671    0.0608 C   0  0  0  0  0  0  0  0  0  0  0  0
    1.0838    1.1665   -0.7725 C   0  0  0  0  0  0  0  0  0  0  0  0
    2.3456   -1.3529    0.1867 C   0  0  0  0  0  0  0  0  0  0  0  0
   -0.9721    1.3294    0.4618 C   0  0  0  0  0  0  0  0  0  0  0  0
    2.8735   -0.2748   -0.5356 C   0  0  0  0  0  0  0  0  0  0  0  0
    1.1561    2.5631   -0.8423 C   0  0  0  0  0  0  0  0  0  0  0  0
   -0.8913    2.7244    0.4117 C   0  0  0  0  0  0  0  0  0  0  0  0
    3.2105   -2.1064    0.9920 C   0  0  0  0  0  0  0  0  0  0  0  0
    0.1691    3.3406   -0.2454 C   0  0  0  0  0  0  0  0  0  0  0  0
    4.2326    0.0440   -0.4631 C   0  0  0  0  0  0  0  0  0  0  0  0
    4.5653   -1.7774    1.0827 C   0  0  0  0  0  0  0  0  0  0  0  0
    5.0757   -0.7042    0.3549 C   0  0  0  0  0  0  0  0  0  0  0  0
   -1.7064    4.8980    0.9279 C   0  0  0  0  0  0  0  0  0  0  0  0
  1 13  1  0
  1 16  1  0
  2 18  1  0
  2 24  1  0
  3  5  1  0
  3  6  1  0
  3  9  1  0
  4  7  1  0
  4  8  1  0
  4 11  1  0
  5  7  1  0
  6  8  1  0
  9 10  1  0
  9 12  2  0
 10 13  2  0
 10 15  1  0
 12 14  1  0
 13 17  1  0
 14 16  2  0
 14 19  1  0
 15 18  2  0
 16 21  1  0
 17 20  2  0
 18 20  1  0
 19 22  2  0
 21 23  2  0
 22 23  1  0
M  END
>  <PUBCHEM_COMPOUND_CID>  (1) 
32226

>  <PUBCHEM_CONFORMER_RMSD>  (1) 
0.6

>  <PUBCHEM_CONFORMER_DIVERSEORDER>  (1) 
4
2
6
5
1
7
3
8
9
10

>  <PUBCHEM_MMFF94_PARTIAL_CHARGES>  (1) 
32
1 -0.17
10 0.03
11 0.27
12 -0.18
13 0.08
14 0.03
15 -0.15
16 0.08
17 -0.15
18 0.08
19 -0.15
2 -0.36
20 -0.15
21 -0.15
22 -0.15
23 -0.15
24 0.28
3 -0.84
36 0.15
37 0.15
38 0.15
39 0.15
4 -0.81
40 0.15
41 0.15
42 0.15
43 0.15
5 0.37
6 0.37
7 0.27
8 0.27
9 0.07

>  <PUBCHEM_EFFECTIVE_ROTOR_COUNT>  (1) 
3.4

>  <PUBCHEM_PHARMACOPHORE_FEATURES>  (1) 
8
1 1 acceptor
1 2 acceptor
1 3 cation
1 4 cation
6 10 13 15 17 18 20 rings
6 14 16 19 21 22 23 rings
6 3 4 5 6 7 8 rings
7 1 9 10 12 13 14 16 rings

>  <PUBCHEM_HEAVY_ATOM_COUNT>  (1) 
24

>  <PUBCHEM_ATOM_DEF_STEREO_COUNT>  (1) 
0

>  <PUBCHEM_ATOM_UDEF_STEREO_COUNT>  (1) 
0

>  <PUBCHEM_BOND_DEF_STEREO_COUNT>  (1) 
0

>  <PUBCHEM_BOND_UDEF_STEREO_COUNT>  (1) 
0

>  <PUBCHEM_ISOTOPIC_ATOM_COUNT>  (1) 
0

>  <PUBCHEM_COMPONENT_COUNT>  (1) 
1

>  <PUBCHEM_CACTVS_TAUTO_COUNT>  (1) 
1

>  <PUBCHEM_CONFORMER_ID>  (1) 
00007DE200000004

>  <PUBCHEM_MMFF94_ENERGY>  (1) 
100.0641

>  <PUBCHEM_FEATURE_SELFOVERLAP>  (1) 
40.625

>  <PUBCHEM_SHAPE_FINGERPRINT>  (1) 
10006869 2 18269828869689001708
104564 63 18341614772031305878
1100329 8 18410576141668853545
11265709 11 18410292531871220566
11578080 2 17703496775150078129
12293681 160 17687777199268642884
12293681 4 18335711550411443131
12403259 226 18118116103462394375
12422481 6 17914635868625479347
12516196 113 18339074994671525467
12553582 1 18337974357746201266
12633257 1 18266194975206489915
12788726 201 18411428297254567126
13004483 165 18410843365817085834
13052359 8 18121496860761890965
13134695 92 18268705198437214717
13140716 1 18411986879316315593
13540713 5 18115878395699878486
138480 1 15384155731438489129
140371 6 18335709342597896402
14178342 30 18119798124409235794
14400156 260 18195840477282424497
14464042 87 18409731746449551643
14790565 3 17398960864686315556
14866123 147 17471001489334804914
14955137 171 18340774861043866862
15042514 8 18266179422564869088
15131766 46 15767776949773336274
15238133 3 18335995215910794695
15420108 30 17271155759261091316
15475509 84 18189921827785443905
15927050 60 17473550625955635918
17980427 26 17550939730185802213
1813 80 18202010957373653071
18785283 64 17681835433783011741
19301679 30 18339646624912464899
20600515 1 18059304282437315390
21041028 32 18411136956970060221
21250096 35 18335134332212803650
21267235 1 18260831488666514114
21731228 192 17690842259618411880
23175994 123 18408604794508174423
23419403 2 18051657132032717348
23557571 272 18272371915455948270
23558518 356 18120098281776297994
23559900 14 17606392405495889791
25147074 1 18114754720522739846
283562 15 18336823109100717858
3091708 16 9063749890884685840
345986 75 18188755189465484835
58807428 26 17544476353971004248
6438718 38 18059290933731479925
7164475 11 18338517426570381014
7471813 234 18270953669656591727
7495541 125 18115591607384983499
79837 15 17836934399460467881
81228 2 18338234838991041954

>  <PUBCHEM_SHAPE_MULTIPOLES>  (1) 
472.21
8.48
4.74
1.14
0.64
7.13
-0.09
-7.78
1.02
-3.7
1.74
-0.11
0.04
-1.39

>  <PUBCHEM_SHAPE_SELFOVERLAP>  (1) 
1032.353

>  <PUBCHEM_SHAPE_VOLUME>  (1) 
256

>  <PUBCHEM_COORDINATE_TYPE>  (1) 
2
5
10

$$$$
