32220
     RDKit          3D

 15 15  0  0  0  0  0  0  0  0999 V2000
    0.1923   -0.9135   -0.0169 O   0  0  0  0  0  0  0  0  0  0  0  0
    1.6246    0.9034   -0.0022 N   0  0  0  0  0  0  0  0  0  0  0  0
    2.4655   -1.3440   -0.0017 N   0  0  0  0  0  0  0  0  0  0  0  0
    3.9914    0.5079    0.0132 N   0  0  0  0  0  0  0  0  0  0  0  0
    3.1401    2.6929    0.0120 N   0  0  0  0  0  0  0  0  0  0  0  0
    4.7833   -1.6995    0.0135 N   0  0  0  0  0  0  0  0  0  0  0  0
   -3.3615    0.3058   -0.0345 C   0  0  0  0  0  0  0  0  0  0  0  0
   -4.7311   -0.3778    0.0064 C   0  0  0  0  0  0  0  0  0  0  0  0
   -2.1913   -0.6764   -0.0135 C   0  0  0  0  0  0  0  0  0  0  0  0
   -5.9023    0.6043   -0.0396 C   0  0  0  0  0  0  0  0  0  0  0  0
   -0.8525    0.0496   -0.0221 C   0  0  0  0  0  0  0  0  0  0  0  0
   -7.2361   -0.1181    0.0765 C   0  0  0  0  0  0  0  0  0  0  0  0
    1.4762   -0.4332   -0.0066 C   0  0  0  0  0  0  0  0  0  0  0  0
    2.9074    1.3004    0.0075 C   0  0  0  0  0  0  0  0  0  0  0  0
    3.6938   -0.8016    0.0080 C   0  0  0  0  0  0  0  0  0  0  0  0
  1 11  1  0
  1 13  1  0
  2 13  2  0
  2 14  1  0
  3 13  1  0
  3 15  2  0
  4 14  2  0
  4 15  1  0
  5 14  1  0
  6 15  1  0
  7  8  1  0
  7  9  1  0
  8 10  1  0
  9 11  1  0
 10 12  1  0
M  END
>  <PUBCHEM_COMPOUND_CID>  (1) 
32220

>  <PUBCHEM_CONFORMER_RMSD>  (1) 
0.6

>  <PUBCHEM_CONFORMER_DIVERSEORDER>  (1) 
1
118
145
61
98
11
127
59
86
56
99
143
4
151
159
105
31
160
139
153
47
122
158
14
41
45
26
46
92
13
126
156
125
18
6
83
133
138
108
30
12
132
129
124
113
3
58
39
22
82
88
44
157
7
5
137
94
111
80
25
87
78
90
128
42
97
134
85
33
103
48
23
75
95
96
32
62
35
93
144
101
28
34
19
112
63
21
2
120
67
53
130
15
40
29
146
51
149
24
69
104
50
10
52
117
17
107
8
141
102
57
20
64
74
68
76
84
131
9
110
49
148
77
106
38
100
140
154
119
121
54
135
123
70
150
27
43
109
136
60
65
72
115
147
79
114
73
155
91
142
55
16
81
89
36
66
152
37
71
116

>  <PUBCHEM_MMFF94_PARTIAL_CHARGES>  (1) 
14
1 -0.36
11 0.28
13 0.7
14 0.72
15 0.72
2 -0.62
29 0.4
3 -0.62
30 0.4
31 0.4
32 0.4
4 -0.62
5 -0.9
6 -0.9

>  <PUBCHEM_EFFECTIVE_ROTOR_COUNT>  (1) 
6

>  <PUBCHEM_PHARMACOPHORE_FEATURES>  (1) 
7
1 12 hydrophobe
1 5 donor
1 6 donor
4 2 4 5 14 cation
4 3 4 6 15 cation
4 7 8 9 10 hydrophobe
6 2 3 4 13 14 15 rings

>  <PUBCHEM_HEAVY_ATOM_COUNT>  (1) 
15

>  <PUBCHEM_ATOM_DEF_STEREO_COUNT>  (1) 
0

>  <PUBCHEM_ATOM_UDEF_STEREO_COUNT>  (1) 
0

>  <PUBCHEM_BOND_DEF_STEREO_COUNT>  (1) 
0

>  <PUBCHEM_BOND_UDEF_STEREO_COUNT>  (1) 
0

>  <PUBCHEM_ISOTOPIC_ATOM_COUNT>  (1) 
0

>  <PUBCHEM_COMPONENT_COUNT>  (1) 
1

>  <PUBCHEM_CACTVS_TAUTO_COUNT>  (1) 
5

>  <PUBCHEM_CONFORMER_ID>  (1) 
00007DDC00000001

>  <PUBCHEM_MMFF94_ENERGY>  (1) 
30.704

>  <PUBCHEM_FEATURE_SELFOVERLAP>  (1) 
35.564

>  <PUBCHEM_SHAPE_FINGERPRINT>  (1) 
11287383 113 18408324415211906155
11471102 20 18410575089464454910
12616971 3 18131062745415110199
13081056 2 18333447638737001549
13167372 99 18272375222697051337
13167823 11 18341327877249369127
13533116 47 17168133491434262347
1420 363 17967538969823020987
14251718 22 10447921768404972703
14251732 16 18337111289349299147
15242439 84 17968099707383072587
17834072 33 18343300397030468015
17834076 25 15791732992886137139
17844677 252 18410018715406994893
18186145 218 17822283604540926763
19433438 28 17967531255882493725
20281389 69 18335139774817166809
20645477 70 18412546474694680326
21267235 1 18340493274371067470
212847 35 18131350825708864345
23402539 116 17989199335894354709
23402655 69 18342737463544733502
23557571 272 16950563225836356471
29717793 49 17704077274175950149
3545911 37 18407761456325528837
42788 4 18410573973068434991
5104073 3 18336827593273162483
522135 26 18410012135010396470
54446538 1 18342175540832521721
77779 3 18410856598764156047
9999458 23 18333450945724890382

>  <PUBCHEM_SHAPE_MULTIPOLES>  (1) 
277.92
14.88
1.62
0.58
24.25
0.8
0
-0.16
-0.21
-2.89
-0.01
0.11
0
0.02

>  <PUBCHEM_SHAPE_SELFOVERLAP>  (1) 
546.937

>  <PUBCHEM_SHAPE_VOLUME>  (1) 
162.8

>  <PUBCHEM_COORDINATE_TYPE>  (1) 
2
5
10

$$$$
