32234
     RDKit          3D

 15 16  0  0  0  0  0  0  0  0999 V2000
   -1.3080    2.4863    0.2801 Cl  0  0  0  0  0  0  0  0  0  0  0  0
    0.3710    0.1948    1.6309 O   0  0  0  0  0  0  0  0  0  0  0  0
    2.3047   -0.4248   -0.3275 N   0  0  0  0  0  0  0  0  0  0  0  0
    4.3906   -0.1387    0.3130 N   0  0  0  0  0  0  0  0  0  0  0  0
    0.9541   -0.9866   -0.3862 C   0  0  0  0  0  0  0  0  0  0  0  0
   -0.0365   -0.3012    0.5628 C   0  0  0  0  0  0  0  0  0  0  0  0
   -1.4489   -0.2374    0.2070 C   0  0  0  0  0  0  0  0  0  0  0  0
    2.7676    0.5944   -1.0890 C   0  0  0  0  0  0  0  0  0  0  0  0
    3.2947   -0.8407    0.4983 C   0  0  0  0  0  0  0  0  0  0  0  0
   -2.1173    0.9773    0.0547 C   0  0  0  0  0  0  0  0  0  0  0  0
   -2.1327   -1.4383    0.0176 C   0  0  0  0  0  0  0  0  0  0  0  0
    4.0686    0.7580   -0.6748 C   0  0  0  0  0  0  0  0  0  0  0  0
   -3.4696    0.9911   -0.2868 C   0  0  0  0  0  0  0  0  0  0  0  0
   -3.4850   -1.4245   -0.3239 C   0  0  0  0  0  0  0  0  0  0  0  0
   -4.1534   -0.2098   -0.4762 C   0  0  0  0  0  0  0  0  0  0  0  0
  1 10  1  0
  2  6  2  0
  3  5  1  0
  3  8  1  0
  3  9  1  0
  4  9  2  0
  4 12  1  0
  5  6  1  0
  6  7  1  0
  7 10  2  0
  7 11  1  0
  8 12  2  0
 10 13  1  0
 11 14  2  0
 13 15  2  0
 14 15  1  0
M  END
>  <PUBCHEM_COMPOUND_CID>  (1) 
32234

>  <PUBCHEM_CONFORMER_RMSD>  (1) 
0.6

>  <PUBCHEM_CONFORMER_DIVERSEORDER>  (1) 
1
20
39
18
30
55
45
53
27
19
7
42
16
17
14
37
51
29
43
28
56
13
54
38
41
15
11
8
12
5
9
4
10
6
40
59
52
60
3
2
23
24
57
46
58
44
47
48
26
22
21
49
36
35
50
31
32
25
33
34

>  <PUBCHEM_MMFF94_PARTIAL_CHARGES>  (1) 
22
1 -0.18
10 0.18
11 -0.15
12 0.08
13 -0.15
14 -0.15
15 -0.15
18 0.15
19 0.15
2 -0.57
20 0.15
21 0.15
22 0.15
23 0.15
24 0.15
3 0.05
4 -0.57
5 0.32
6 0.42
7 0.09
8 -0.3
9 0.04

>  <PUBCHEM_EFFECTIVE_ROTOR_COUNT>  (1) 
3

>  <PUBCHEM_PHARMACOPHORE_FEATURES>  (1) 
4
1 2 acceptor
3 3 4 9 cation
5 3 4 8 9 12 rings
6 7 10 11 13 14 15 rings

>  <PUBCHEM_HEAVY_ATOM_COUNT>  (1) 
15

>  <PUBCHEM_ATOM_DEF_STEREO_COUNT>  (1) 
0

>  <PUBCHEM_ATOM_UDEF_STEREO_COUNT>  (1) 
0

>  <PUBCHEM_BOND_DEF_STEREO_COUNT>  (1) 
0

>  <PUBCHEM_BOND_UDEF_STEREO_COUNT>  (1) 
0

>  <PUBCHEM_ISOTOPIC_ATOM_COUNT>  (1) 
0

>  <PUBCHEM_COMPONENT_COUNT>  (1) 
1

>  <PUBCHEM_CACTVS_TAUTO_COUNT>  (1) 
2

>  <PUBCHEM_CONFORMER_ID>  (1) 
00007DEA00000001

>  <PUBCHEM_MMFF94_ENERGY>  (1) 
31.9656

>  <PUBCHEM_FEATURE_SELFOVERLAP>  (1) 
20.297

>  <PUBCHEM_SHAPE_FINGERPRINT>  (1) 
10062212 137 18334293188732014303
12119455 92 14201392794211709939
12162725 195 18259990361959308212
12173636 292 18126565626767288733
12236239 1 17822006502141499851
124424 183 10881398751066183511
13296908 3 15913332351366783208
13675066 3 12035725440302370486
15442244 35 18046343033632583426
17134986 127 17328867595753315445
17492 89 18335139748050915890
17802600 8 18334572443269084036
17959699 21 17822004298860532189
1813 80 13901640657414450864
18186145 218 16877943836721730218
19107657 47 15719390624988462164
192875 21 17821449066868428580
200 152 18261108595070108510
20279233 1 17203609285179994086
20300324 65 18411982472605750373
20645476 183 17894620457943537827
20645477 70 15266787594106351116
20871999 31 18410282628325411375
22094290 60 18272088292620835265
22213442 358 18270116945755652597
23048698 100 17458063763943710964
23402539 116 18409158909396876151
23402655 69 18186802456951366556
23419403 2 17027436882498938913
23557571 272 18130796632961748332
23559900 14 18199746956117055222
265663 24 18040149621813792346
3082319 5 18335423465126239366
351380 180 18408881850253388800
4028521 119 18187643574751535765
42 15 10879996869276808407
4340502 62 16443357412669134113
474 4 17240771730469343956
5706482 22 8142090845113438925
573450 72 18335127666328264290
58051976 378 18343301444459377398
9709674 26 18410863135377950214

>  <PUBCHEM_SHAPE_MULTIPOLES>  (1) 
294.73
8.21
1.7
0.95
4.1
0.78
0.12
-0.4
-1.54
-1.23
0.04
0.37
0.07
-0.47

>  <PUBCHEM_SHAPE_SELFOVERLAP>  (1) 
623.456

>  <PUBCHEM_SHAPE_VOLUME>  (1) 
166.3

>  <PUBCHEM_COORDINATE_TYPE>  (1) 
2
5
10

$$$$
