3225
     RDKit          3D

 13 14  0  0  1  0  0  0  0  0999 V2000
   -0.3858    1.6723    0.9651 O   0  0  0  0  0  0  0  0  0  0  0  0
   -1.9377   -2.0576   -0.0321 O   0  0  0  0  0  0  0  0  0  0  0  0
    2.4942   -1.4602    0.8517 O   0  0  0  0  0  0  0  0  0  0  0  0
   -2.9925   -0.0635    0.2947 O   0  0  0  0  0  0  0  0  0  0  0  0
    1.5108   -1.7325   -1.1867 O   0  0  0  0  0  0  0  0  0  0  0  0
   -0.7700    1.4211   -0.4104 C   0  0  0  0  0  0  0  0  0  0  0  0
    0.8823    0.9726    0.9271 C   0  0  0  0  0  0  0  0  0  0  0  0
   -0.7037   -0.1099   -0.4816 C   0  0  0  0  0  0  0  0  0  0  0  0
    0.4118   -0.4293    0.5234 C   0  0  0  0  0  0  0  0  0  0  0  0
    0.4137    2.0350   -1.1549 C   0  0  0  0  0  0  0  0  0  0  0  0
    1.5767    1.7275   -0.2097 C   0  0  0  0  0  0  0  0  0  0  0  0
   -2.0041   -0.7039   -0.0317 C   0  0  0  0  0  0  0  0  0  0  0  0
    1.5043   -1.2716   -0.0549 C   0  0  0  0  0  0  0  0  0  0  0  0
  1  6  1  0
  1  7  1  0
  2 12  1  0
  3 13  1  0
  4 12  2  0
  5 13  2  0
  6  8  1  0
  6 10  1  0
  7  9  1  0
  7 11  1  0
  8  9  1  0
  8 12  1  0
  9 13  1  0
 10 11  1  0
M  END
>  <PUBCHEM_COMPOUND_CID>  (1) 
3225

>  <PUBCHEM_CONFORMER_RMSD>  (1) 
0.6

>  <PUBCHEM_CONFORMER_DIVERSEORDER>  (1) 
1
5
3
10
4
11
6
13
7
12
2
14
15
8
9

>  <PUBCHEM_MMFF94_PARTIAL_CHARGES>  (1) 
13
1 -0.56
12 0.66
13 0.66
2 -0.65
22 0.5
23 0.5
3 -0.65
4 -0.57
5 -0.57
6 0.28
7 0.28
8 0.06
9 0.06

>  <PUBCHEM_EFFECTIVE_ROTOR_COUNT>  (1) 
3

>  <PUBCHEM_PHARMACOPHORE_FEATURES>  (1) 
8
1 1 acceptor
1 2 acceptor
1 3 acceptor
1 4 acceptor
1 5 acceptor
3 2 4 12 anion
3 3 5 13 anion
7 1 6 7 8 9 10 11 rings

>  <PUBCHEM_HEAVY_ATOM_COUNT>  (1) 
13

>  <PUBCHEM_ATOM_DEF_STEREO_COUNT>  (1) 
0

>  <PUBCHEM_ATOM_UDEF_STEREO_COUNT>  (1) 
4

>  <PUBCHEM_BOND_DEF_STEREO_COUNT>  (1) 
0

>  <PUBCHEM_BOND_UDEF_STEREO_COUNT>  (1) 
0

>  <PUBCHEM_ISOTOPIC_ATOM_COUNT>  (1) 
0

>  <PUBCHEM_COMPONENT_COUNT>  (1) 
1

>  <PUBCHEM_CACTVS_TAUTO_COUNT>  (1) 
1

>  <PUBCHEM_CONFORMER_ID>  (1) 
00000C9900000001

>  <PUBCHEM_MMFF94_ENERGY>  (1) 
34.5422

>  <PUBCHEM_FEATURE_SELFOVERLAP>  (1) 
40.711

>  <PUBCHEM_SHAPE_FINGERPRINT>  (1) 
1 1 17976257164100254284
12423570 1 12330227438936561825
12524768 44 18412542098286302039
13024252 1 15361676474106814376
14128692 85 18410863165473609734
161256 15 18408323276328316813
16945 1 18341895164612986752
21040471 1 17329426658333669505
23552423 10 18262522631584906015
23559900 14 16687380575059759454
241688 4 18189614943117863592
2748010 2 18193829345396122141
369184 2 17539686898689905778
5084963 1 17393865684968643933
81228 2 18050571742035370667

>  <PUBCHEM_SHAPE_MULTIPOLES>  (1) 
238.19
2.85
2.39
1.02
1.69
0.15
-0.06
1.04
0.25
-0.95
-0.36
-0.31
-0.12
-0.13

>  <PUBCHEM_SHAPE_SELFOVERLAP>  (1) 
513.306

>  <PUBCHEM_SHAPE_VOLUME>  (1) 
133.8

>  <PUBCHEM_COORDINATE_TYPE>  (1) 
2
5
10

$$$$
