32262
     RDKit          3D

 12 13  0  0  0  0  0  0  0  0999 V2000
    4.1283    1.2925    0.2215 Cl  0  0  0  0  0  0  0  0  0  0  0  0
    2.8031   -1.3572   -0.2034 S   0  0  0  0  0  0  0  0  0  0  0  0
    1.4918    0.7851    0.1310 N   0  0  0  0  0  0  0  0  0  0  0  0
    1.1381   -1.5222   -0.2365 N   0  0  0  0  0  0  0  0  0  0  0  0
   -0.7762   -0.0820   -0.0162 C   0  0  0  0  0  0  0  0  0  0  0  0
    0.6434   -0.2973   -0.0441 C   0  0  0  0  0  0  0  0  0  0  0  0
   -1.2923    1.1955   -0.2339 C   0  0  0  0  0  0  0  0  0  0  0  0
   -1.6390   -1.1503    0.2290 C   0  0  0  0  0  0  0  0  0  0  0  0
   -2.6711    1.4046   -0.2065 C   0  0  0  0  0  0  0  0  0  0  0  0
   -3.0178   -0.9413    0.2562 C   0  0  0  0  0  0  0  0  0  0  0  0
   -3.5340    0.3362    0.0385 C   0  0  0  0  0  0  0  0  0  0  0  0
    2.7259    0.3362    0.0645 C   0  0  0  0  0  0  0  0  0  0  0  0
  1 12  1  0
  2  4  1  0
  2 12  1  0
  3  6  1  0
  3 12  2  0
  4  6  2  0
  5  6  1  0
  5  7  2  0
  5  8  1  0
  7  9  1  0
  8 10  2  0
  9 11  2  0
 10 11  1  0
M  END
>  <PUBCHEM_COMPOUND_CID>  (1) 
32262

>  <PUBCHEM_CONFORMER_RMSD>  (1) 
0.4

>  <PUBCHEM_CONFORMER_DIVERSEORDER>  (1) 
1

>  <PUBCHEM_MMFF94_PARTIAL_CHARGES>  (1) 
17
1 -0.12
10 -0.15
11 -0.15
12 0.5
13 0.15
14 0.15
15 0.15
16 0.15
17 0.15
2 0.18
3 -0.57
4 -0.51
5 0.05
6 0.46
7 -0.15
8 -0.15
9 -0.15

>  <PUBCHEM_EFFECTIVE_ROTOR_COUNT>  (1) 
1

>  <PUBCHEM_PHARMACOPHORE_FEATURES>  (1) 
4
1 3 acceptor
3 3 4 6 cation
5 2 3 4 6 12 rings
6 5 7 8 9 10 11 rings

>  <PUBCHEM_HEAVY_ATOM_COUNT>  (1) 
12

>  <PUBCHEM_ATOM_DEF_STEREO_COUNT>  (1) 
0

>  <PUBCHEM_ATOM_UDEF_STEREO_COUNT>  (1) 
0

>  <PUBCHEM_BOND_DEF_STEREO_COUNT>  (1) 
0

>  <PUBCHEM_BOND_UDEF_STEREO_COUNT>  (1) 
0

>  <PUBCHEM_ISOTOPIC_ATOM_COUNT>  (1) 
0

>  <PUBCHEM_COMPONENT_COUNT>  (1) 
1

>  <PUBCHEM_CACTVS_TAUTO_COUNT>  (1) 
1

>  <PUBCHEM_CONFORMER_ID>  (1) 
00007E0600000001

>  <PUBCHEM_MMFF94_ENERGY>  (1) 
21.4832

>  <PUBCHEM_FEATURE_SELFOVERLAP>  (1) 
20.297

>  <PUBCHEM_SHAPE_FINGERPRINT>  (1) 
10608611 8 18410290272565714892
11132069 177 18333730234188538365
12932764 1 17531807935345325762
13214271 11 18337106868999516687
13380535 76 18409447003039801314
14144814 61 18408886209080516611
14325111 11 18410573968003275956
14445660 50 18271535238377643665
14897335 6 18411695487185882046
15219456 202 18411702062675382094
15442244 35 18123188996361339418
15536298 74 18341896268899525854
15775835 57 18130788992320183374
16945 1 18336272343916364815
170605 34 18407758144958491242
18186145 218 18338521824342163252
19973954 147 18410858715755791077
200 152 17988633108701544975
20201158 50 18412262809437259035
20279233 1 18408887334346247203
20510252 161 18412827958720079793
20528008 55 18410006628899181325
20645477 56 18187927236083124629
20645477 70 18200591397704856391
20871998 184 18270969050182846679
21501502 16 18411134701780050267
23402539 116 18189324822736028303
23402655 69 18271796883717383989
23463225 33 18334856095762142806
23552423 10 18187088338548769727
23559900 14 18268424634352656346
2748010 2 18409732820117412287
3248919 1 17346320340993373223
369184 2 18411419484303474515
449060 50 18410014359518814069
5104073 3 18410013212783444595
53812653 166 18271802462663558608
6333449 129 18410290320168687471
69090 78 18412820266517957487
7364860 26 18341612552002978454

>  <PUBCHEM_SHAPE_MULTIPOLES>  (1) 
242.71
6.73
1.65
0.65
2.12
0.07
0
-1.51
-0.36
0.37
0.05
0.02
0.01
0.42

>  <PUBCHEM_SHAPE_SELFOVERLAP>  (1) 
502.254

>  <PUBCHEM_SHAPE_VOLUME>  (1) 
140.8

>  <PUBCHEM_COORDINATE_TYPE>  (1) 
2
5
10

$$$$
