32281
     RDKit          3D

 26 28  0  0  1  0  0  0  0  0999 V2000
    0.3238    1.2829   -1.4643 O   0  0  0  0  0  0  0  0  0  0  0  0
    3.4747    1.7243   -1.5121 O   0  0  0  0  0  0  0  0  0  0  0  0
   -1.9077    0.1139    1.4236 O   0  0  0  0  0  0  0  0  0  0  0  0
   -5.5070    2.1084    1.0928 O   0  0  0  0  0  0  0  0  0  0  0  0
    1.7475    1.1657    0.3566 N   0  0  0  0  0  0  0  0  0  0  0  0
   -1.0605   -0.7241   -0.5779 N   0  0  0  0  0  0  0  0  0  0  0  0
   -4.3580    0.1232    0.6229 N   0  0  0  0  0  0  0  0  0  0  0  0
    3.6580    3.9535   -0.9729 N   0  0  0  0  0  0  0  0  0  0  0  0
    2.1561   -3.8395   -0.0352 N   0  0  0  0  0  0  0  0  0  0  0  0
    0.4130   -5.1631    0.3413 N   0  0  0  0  0  0  0  0  0  0  0  0
    2.1818    2.5559    0.3183 C   0  0  0  0  0  0  0  0  0  0  0  0
    2.8494    2.7905    1.6684 C   0  0  0  0  0  0  0  0  0  0  0  0
    2.3243    0.4648    1.5011 C   0  0  0  0  0  0  0  0  0  0  0  0
    3.3846    1.4109    2.0441 C   0  0  0  0  0  0  0  0  0  0  0  0
    0.3278   -0.7452   -0.2171 C   0  0  0  0  0  0  0  0  0  0  0  0
    0.7880    0.6611   -0.5072 C   0  0  0  0  0  0  0  0  0  0  0  0
   -3.4223   -0.3509   -0.3573 C   0  0  0  0  0  0  0  0  0  0  0  0
    3.1559    2.6836   -0.8140 C   0  0  0  0  0  0  0  0  0  0  0  0
    1.1469   -1.7452   -1.0233 C   0  0  0  0  0  0  0  0  0  0  0  0
   -3.5749    0.6281   -1.5059 C   0  0  0  0  0  0  0  0  0  0  0  0
   -2.0693   -0.2941    0.2765 C   0  0  0  0  0  0  0  0  0  0  0  0
   -4.0483    1.9200   -0.8404 C   0  0  0  0  0  0  0  0  0  0  0  0
   -4.7558    1.4374    0.4021 C   0  0  0  0  0  0  0  0  0  0  0  0
    1.0578   -3.1377   -0.4456 C   0  0  0  0  0  0  0  0  0  0  0  0
   -0.0056   -3.9752   -0.2037 C   0  0  0  0  0  0  0  0  0  0  0  0
    1.7198   -5.0491    0.4292 C   0  0  0  0  0  0  0  0  0  0  0  0
  1 16  2  0
  2 18  2  0
  3 21  2  0
  4 23  2  0
  5 11  1  0
  5 13  1  0
  5 16  1  0
  6 15  1  0
  6 21  1  0
  7 17  1  0
  7 23  1  0
  8 18  1  0
  9 24  1  0
  9 26  1  0
 10 25  1  0
 10 26  2  0
 11 12  1  0
 11 18  1  0
 12 14  1  0
 13 14  1  0
 15 16  1  0
 15 19  1  0
 17 20  1  0
 17 21  1  0
 19 24  1  0
 20 22  1  0
 22 23  1  0
 24 25  2  0
M  END
>  <PUBCHEM_COMPOUND_CID>  (1) 
32281

>  <PUBCHEM_CONFORMER_RMSD>  (1) 
1.2

>  <PUBCHEM_CONFORMER_DIVERSEORDER>  (1) 
1
113
292
288
290
228
46
89
139
132
178
155
281
6
216
265
329
117
328
285
71
244
144
120
260
56
182
92
199
171
52
158
205
293
200
63
209
298
289
105
87
108
339
83
299
208
17
306
224
194
147
252
232
275
79
237
303
156
243
196
309
102
53
51
264
294
49
181
195
257
280
111
50
85
180
341
330
186
258
248
297
66
65
316
77
131
36
342
262
126
236
189
302
319
261
169
263
235
286
133
20
137
215
157
335
272
332
193
61
223
12
101
206
93
245
67
146
11
161
29
312
39
150
255
153
13
321
95
159
274
60
43
238
287
82
172
33
191
259
45
8
214
84
267
91
142
202
242
247
99
15
327
54
326
301
149
219
334
343
229
340
47
231
317
100
176
283
81
88
279
278
254
151
168
48
145
152
197
166
307
21
118
164
251
296
250
212
198
227
207
338
72
30
337
114
277
188
170
107
90
291
311
268
239
104
284
222
135
70
80
324
130
4
225
115
31
23
162
129
78
190
313
273
28
253
69
141
140
160
40
37
300
112
269
163
38
2
57
116
35
165
177
213
86
310
55
167
187
103
315
134
128
266
44
124
5
325
73
183
98
218
94
226
3
318
203
173
26
174
24
14
34
154
282
322
64
336
10
123
295
58
42
109
75
201
308
331
179
110
16
270
22
220
184
233
25
185
240
230
122
19
119
323
271
18
125
276
221
96
148
121
138
41
333
304
256
9
7
106
74
217
32
59
249
68
204
234
211
241
27
127
246
192
76
97
305
320
143
314
62
175
136
210

>  <PUBCHEM_MMFF94_PARTIAL_CHARGES>  (1) 
30
1 -0.57
10 -0.57
11 0.36
13 0.3
15 0.36
16 0.57
17 0.36
18 0.57
19 0.18
2 -0.57
21 0.57
22 0.06
23 0.57
24 -0.33
25 0.08
26 0.04
3 -0.57
4 -0.57
40 0.37
43 0.37
44 0.37
45 0.37
46 0.27
47 0.15
48 0.15
5 -0.66
6 -0.73
7 -0.73
8 -0.8
9 0.03

>  <PUBCHEM_EFFECTIVE_ROTOR_COUNT>  (1) 
9.8

>  <PUBCHEM_PHARMACOPHORE_FEATURES>  (1) 
12
1 1 acceptor
1 2 acceptor
1 3 acceptor
1 4 acceptor
1 6 donor
1 7 donor
1 8 donor
1 9 donor
3 9 10 26 cation
5 5 11 12 13 14 rings
5 7 17 20 22 23 rings
5 9 10 24 25 26 rings

>  <PUBCHEM_HEAVY_ATOM_COUNT>  (1) 
26

>  <PUBCHEM_ATOM_DEF_STEREO_COUNT>  (1) 
0

>  <PUBCHEM_ATOM_UDEF_STEREO_COUNT>  (1) 
3

>  <PUBCHEM_BOND_DEF_STEREO_COUNT>  (1) 
0

>  <PUBCHEM_BOND_UDEF_STEREO_COUNT>  (1) 
0

>  <PUBCHEM_ISOTOPIC_ATOM_COUNT>  (1) 
0

>  <PUBCHEM_COMPONENT_COUNT>  (1) 
1

>  <PUBCHEM_CACTVS_TAUTO_COUNT>  (1) 
24

>  <PUBCHEM_CONFORMER_ID>  (1) 
00007E1900000001

>  <PUBCHEM_MMFF94_ENERGY>  (1) 
55.4277

>  <PUBCHEM_FEATURE_SELFOVERLAP>  (1) 
60.898

>  <PUBCHEM_SHAPE_FINGERPRINT>  (1) 
12160290 23 17625255699283970950
12788726 201 17617929679157336302
13004483 165 17474380275818948523
13134695 92 17979348669044356631
13140716 1 18340761615337864962
13533116 47 18340207376690780735
13590594 115 17545048100302732609
13681431 1 18054238626246742078
14856354 85 16154268468007172776
15230672 131 18262811782765505756
15842332 3 17392454986271378008
17868525 174 17907300953579240113
17876694 64 17056397692377753683
17980427 23 16984044325427594105
17980427 26 18271792510881312884
18785283 64 18336266734836977243
20600515 1 16973932013528233492
20739085 24 18264754490261068768
21033648 29 18197784499212294057
21049683 271 18119824516450292438
21120745 212 17261612677264103670
21304303 172 8188380228729586918
2255824 54 18270122305696029287
22907989 373 17545599418961762820
23366157 5 18338231557926392567
23419403 2 17760905378012369406
23558518 356 18125987494057334766
23559900 14 18263084310581617455
3091708 16 9476698979097697015
458136 41 18409735053727512981
57124632 79 18410857638098567649
633830 44 17917428778209949245
6442390 28 18265625453388005581
6443956 14 18196367018507355370
7399639 24 18190201138146525483
7808743 9 17905048406309798716
79837 15 18194673998002024323
81228 2 17333931353135703895
84936 182 18272934903710686425
9981440 41 18339633555600186065

>  <PUBCHEM_SHAPE_MULTIPOLES>  (1) 
481.7
8.19
6.41
1.51
11.02
10.2
0.22
-9.46
1.26
-6.89
0.09
-0.75
-1.11
-0.43

>  <PUBCHEM_SHAPE_SELFOVERLAP>  (1) 
1024.615

>  <PUBCHEM_SHAPE_VOLUME>  (1) 
269.8

>  <PUBCHEM_COORDINATE_TYPE>  (1) 
2
5
10

$$$$
