32285
     RDKit          3D

 13 13  0  0  0  0  0  0  0  0999 V2000
   -1.0811    1.6969    0.2914 O   0  0  0  0  0  0  0  0  0  0  0  0
   -2.3021   -0.7059   -0.3474 O   0  0  0  0  0  0  0  0  0  0  0  0
    1.6628    1.7853    0.6586 O   0  0  0  0  0  0  0  0  0  0  0  0
    1.9631   -2.9280   -0.2538 N   0  0  0  0  0  0  0  0  0  0  0  0
   -0.3350    0.5634    0.1577 C   0  0  0  0  0  0  0  0  0  0  0  0
   -0.9534   -0.6447   -0.1642 C   0  0  0  0  0  0  0  0  0  0  0  0
    1.0466    0.6119    0.3431 C   0  0  0  0  0  0  0  0  0  0  0  0
    1.1914   -1.7557   -0.1157 C   0  0  0  0  0  0  0  0  0  0  0  0
   -0.1902   -1.8042   -0.3009 C   0  0  0  0  0  0  0  0  0  0  0  0
    1.8098   -0.5476    0.2064 C   0  0  0  0  0  0  0  0  0  0  0  0
   -1.8250    2.1198   -0.8490 C   0  0  0  0  0  0  0  0  0  0  0  0
   -3.1001   -0.9843    0.8013 C   0  0  0  0  0  0  0  0  0  0  0  0
    2.1130    2.5932   -0.4272 C   0  0  0  0  0  0  0  0  0  0  0  0
  1  5  1  0
  1 11  1  0
  2  6  1  0
  2 12  1  0
  3  7  1  0
  3 13  1  0
  4  8  1  0
  5  6  2  0
  5  7  1  0
  6  9  1  0
  7 10  2  0
  8  9  2  0
  8 10  1  0
M  END
>  <PUBCHEM_COMPOUND_CID>  (1) 
32285

>  <PUBCHEM_CONFORMER_RMSD>  (1) 
0.6

>  <PUBCHEM_CONFORMER_DIVERSEORDER>  (1) 
1
2
3

>  <PUBCHEM_MMFF94_PARTIAL_CHARGES>  (1) 
17
1 -0.36
10 -0.15
11 0.28
12 0.28
13 0.28
14 0.15
15 0.15
16 0.4
17 0.4
2 -0.36
3 -0.36
4 -0.9
5 0.08
6 0.08
7 0.08
8 0.1
9 -0.15

>  <PUBCHEM_EFFECTIVE_ROTOR_COUNT>  (1) 
3

>  <PUBCHEM_PHARMACOPHORE_FEATURES>  (1) 
6
1 1 acceptor
1 2 acceptor
1 3 acceptor
1 4 cation
1 4 donor
6 5 6 7 8 9 10 rings

>  <PUBCHEM_HEAVY_ATOM_COUNT>  (1) 
13

>  <PUBCHEM_ATOM_DEF_STEREO_COUNT>  (1) 
0

>  <PUBCHEM_ATOM_UDEF_STEREO_COUNT>  (1) 
0

>  <PUBCHEM_BOND_DEF_STEREO_COUNT>  (1) 
0

>  <PUBCHEM_BOND_UDEF_STEREO_COUNT>  (1) 
0

>  <PUBCHEM_ISOTOPIC_ATOM_COUNT>  (1) 
0

>  <PUBCHEM_COMPONENT_COUNT>  (1) 
1

>  <PUBCHEM_CACTVS_TAUTO_COUNT>  (1) 
1

>  <PUBCHEM_CONFORMER_ID>  (1) 
00007E1D00000001

>  <PUBCHEM_MMFF94_ENERGY>  (1) 
74.8646

>  <PUBCHEM_FEATURE_SELFOVERLAP>  (1) 
30.455

>  <PUBCHEM_SHAPE_FINGERPRINT>  (1) 
11206711 2 18410578344569708790
11680986 33 18268419140419260073
12138202 78 18410291402426735999
12423570 1 14152704860339911410
13140716 1 18195523924969865954
14648413 74 18336821983724178169
14993402 34 17761208126078134965
161256 15 18411427214959809727
16945 1 18411131450500551582
17990270 104 18338510833521034715
193761 8 18339078194347768657
20511035 2 18129085732823646253
21040471 1 17836640099805719882
21501502 16 18339364059155582713
2334 1 17835234923930000518
23552423 10 18411138030405981023
241688 4 17979353062595472714
2748010 2 18125714595939974566
3250762 1 18335701590128900333
528886 8 17979351189847196265
81228 2 17333651574992588354

>  <PUBCHEM_SHAPE_MULTIPOLES>  (1) 
244.94
3.44
3.19
0.78
1.36
0.7
0
-0.93
0.44
-1.43
-0.69
0.14
-0.16
0.26

>  <PUBCHEM_SHAPE_SELFOVERLAP>  (1) 
503.14

>  <PUBCHEM_SHAPE_VOLUME>  (1) 
143.3

>  <PUBCHEM_COORDINATE_TYPE>  (1) 
2
5
10

$$$$
