32297
     RDKit          3D

 22 22  0  0  1  0  0  0  0  0999 V2000
   -0.0911    2.2877   -0.6036 I   0  0  0  0  0  0  0  0  0  0  0  0
    3.5822   -2.4367    0.7227 I   0  0  0  0  0  0  0  0  0  0  0  0
   -2.2300   -3.3940   -0.2165 I   0  0  0  0  0  0  0  0  0  0  0  0
   -2.0981   -0.1944   -0.6288 O   0  0  0  0  0  0  0  0  0  0  0  0
   -3.2741    2.2495    1.5822 O   0  0  0  0  0  0  0  0  0  0  0  0
    4.3293    1.7783   -0.9781 O   0  0  0  0  0  0  0  0  0  0  0  0
   -3.3546    2.2900   -0.6906 O   0  0  0  0  0  0  0  0  0  0  0  0
    2.5933    0.6200    0.1220 N   0  0  0  0  0  0  0  0  0  0  0  0
   -2.9114    0.1937    0.4672 C   0  0  0  0  0  0  0  0  0  0  0  0
    1.5054   -0.2607    0.0416 C   0  0  0  0  0  0  0  0  0  0  0  0
   -4.1759   -0.6666    0.4898 C   0  0  0  0  0  0  0  0  0  0  0  0
   -0.8422   -0.6612   -0.3351 C   0  0  0  0  0  0  0  0  0  0  0  0
    2.8443    1.3143    1.4193 C   0  0  0  0  0  0  0  0  0  0  0  0
    0.2316    0.2215   -0.2587 C   0  0  0  0  0  0  0  0  0  0  0  0
    1.7005   -1.6237    0.2647 C   0  0  0  0  0  0  0  0  0  0  0  0
   -0.6520   -2.0223   -0.1131 C   0  0  0  0  0  0  0  0  0  0  0  0
    0.6218   -2.5046    0.1874 C   0  0  0  0  0  0  0  0  0  0  0  0
    3.4160    0.9496   -1.0055 C   0  0  0  0  0  0  0  0  0  0  0  0
   -5.0051   -0.5740   -0.7864 C   0  0  0  0  0  0  0  0  0  0  0  0
    3.8497    0.5512    2.2649 C   0  0  0  0  0  0  0  0  0  0  0  0
   -3.2122    1.6731    0.3555 C   0  0  0  0  0  0  0  0  0  0  0  0
    3.1727    0.2091   -2.3007 C   0  0  0  0  0  0  0  0  0  0  0  0
  1 14  1  0
  2 15  1  0
  3 16  1  0
  4  9  1  0
  4 12  1  0
  5 21  1  0
  6 18  2  0
  7 21  2  0
  8 10  1  0
  8 13  1  0
  8 18  1  0
  9 11  1  0
  9 21  1  0
 10 14  2  0
 10 15  1  0
 11 19  1  0
 12 14  1  0
 12 16  2  0
 13 20  1  0
 15 17  2  0
 16 17  1  0
 18 22  1  0
M  END
>  <PUBCHEM_COMPOUND_CID>  (1) 
32297

>  <PUBCHEM_CONFORMER_RMSD>  (1) 
0.8

>  <PUBCHEM_CONFORMER_DIVERSEORDER>  (1) 
1
29
51
41
62
38
22
13
60
53
50
70
64
54
58
59
34
20
47
65
63
67
49
11
14
61
31
69
56
23
33
46
25
66
48
6
39
43
45
32
7
28
15
55
19
12
26
4
42
37
10
17
52
36
40
27
44
18
68
57
35
21
8
16
9
24
30
2
3
5

>  <PUBCHEM_MMFF94_PARTIAL_CHARGES>  (1) 
21
1 -0.08
10 0.12
12 0.08
13 0.3
14 0.08
15 0.08
16 0.08
17 -0.15
18 0.57
2 -0.08
21 0.66
22 0.06
28 0.15
3 -0.08
38 0.5
4 -0.36
5 -0.65
6 -0.57
7 -0.57
8 -0.48
9 0.34

>  <PUBCHEM_EFFECTIVE_ROTOR_COUNT>  (1) 
7

>  <PUBCHEM_PHARMACOPHORE_FEATURES>  (1) 
10
1 1 hydrophobe
1 19 hydrophobe
1 2 hydrophobe
1 3 hydrophobe
1 4 acceptor
1 5 acceptor
1 6 acceptor
1 7 acceptor
3 5 7 21 anion
6 10 12 14 15 16 17 rings

>  <PUBCHEM_HEAVY_ATOM_COUNT>  (1) 
22

>  <PUBCHEM_ATOM_DEF_STEREO_COUNT>  (1) 
0

>  <PUBCHEM_ATOM_UDEF_STEREO_COUNT>  (1) 
1

>  <PUBCHEM_BOND_DEF_STEREO_COUNT>  (1) 
0

>  <PUBCHEM_BOND_UDEF_STEREO_COUNT>  (1) 
0

>  <PUBCHEM_ISOTOPIC_ATOM_COUNT>  (1) 
0

>  <PUBCHEM_COMPONENT_COUNT>  (1) 
1

>  <PUBCHEM_CACTVS_TAUTO_COUNT>  (1) 
1

>  <PUBCHEM_CONFORMER_ID>  (1) 
00007E2900000001

>  <PUBCHEM_MMFF94_ENERGY>  (1) 
99.7639

>  <PUBCHEM_FEATURE_SELFOVERLAP>  (1) 
50.809

>  <PUBCHEM_SHAPE_FINGERPRINT>  (1) 
10366900 7 18340488979862447977
10498660 4 18265336281724385911
10967382 1 18409166631980319183
1100329 8 18122071063919387643
11725454 13 16843293904994225594
12173636 292 18342733031476568431
12236239 1 17603862373146813228
12403260 363 18338507535392651491
12553582 1 18337111288837544239
12644460 14 17603872178710143866
12788726 201 17832147499584689930
13140716 1 17978788244610651075
13224815 77 18334579005841708837
14081887 123 18270671108042839587
14178342 30 18266446784400644042
14787075 74 17773300447750179281
14790565 3 18266187123852629076
15238133 3 17484812515015125209
16945 1 18337387270055224127
17349148 13 18114169865571548447
1813 80 17241876607065271138
18186145 218 17846785095831580201
19591789 44 18337676304137738375
20510252 161 17981047732051786250
20671657 1 18335706018287700702
20691752 17 17749960950801460330
20739085 24 18116450158055798685
21524375 3 18412260597571689355
2334 1 18337955593461073655
23526113 38 17273722934302246934
23557571 272 17985275315748817359
23559900 14 18117271450244627426
2748010 2 18264773164636570111
3052486 1 18191587669068227918
312423 11 18337395941868650627
3286 77 18272359833053464218
350125 39 18336827468318060054
469060 322 17974585881110185235
5104073 3 18339924823329373403
633830 44 17203329966508974649
7808743 9 18337680831402637396

>  <PUBCHEM_SHAPE_MULTIPOLES>  (1) 
460.1
8.61
3.56
1.51
2.59
1.6
0.08
-1.42
0.65
0.98
0.04
-1.62
-0.65
-1.04

>  <PUBCHEM_SHAPE_SELFOVERLAP>  (1) 
880.901

>  <PUBCHEM_SHAPE_VOLUME>  (1) 
290

>  <PUBCHEM_COORDINATE_TYPE>  (1) 
2
5
10

$$$$
