32290
     RDKit          3D

  9  8  0  0  1  0  0  0  0  0999 V2000
    3.1174   -0.4931   -0.0538 Br  0  0  0  0  0  0  0  0  0  0  0  0
   -2.8393   -0.9933   -0.0511 Cl  0  0  0  0  0  0  0  0  0  0  0  0
    0.0406   -0.7532   -0.1001 P   0  0  0  0  0  0  0  0  0  0  0  0
   -0.1141    0.8008   -0.5271 O   0  0  0  0  0  0  0  0  0  0  0  0
    0.1301   -1.6697   -1.2883 O   0  0  0  0  0  0  0  0  0  0  0  0
    1.4802   -0.8189    0.9396 C   0  0  0  0  0  0  0  0  0  0  0  0
   -1.3704   -1.0812    0.9327 C   0  0  0  0  0  0  0  0  0  0  0  0
   -0.1462    1.8416    0.4318 C   0  0  0  0  0  0  0  0  0  0  0  0
   -0.2982    3.1669   -0.2839 C   0  0  0  0  0  0  0  0  0  0  0  0
  1  6  1  0
  2  7  1  0
  3  4  1  0
  3  5  2  0
  3  6  1  0
  3  7  1  0
  4  8  1  0
  8  9  1  0
M  END
>  <PUBCHEM_COMPOUND_CID>  (1) 
32290

>  <PUBCHEM_CONFORMER_RMSD>  (1) 
0.6

>  <PUBCHEM_CONFORMER_DIVERSEORDER>  (1) 
1
14
41
11
39
38
21
46
47
44
28
50
8
45
49
48
9
24
52
16
33
22
13
53
43
15
51
37
54
35
40
7
23
6
10
32
20
27
4
36
2
42
30
12
5
17
31
34
29
19
18
26
25
3

>  <PUBCHEM_MMFF94_PARTIAL_CHARGES>  (1) 
8
1 -0.23
2 -0.29
3 0.97
4 -0.55
5 -0.7
6 0.23
7 0.29
8 0.28

>  <PUBCHEM_EFFECTIVE_ROTOR_COUNT>  (1) 
4

>  <PUBCHEM_PHARMACOPHORE_FEATURES>  (1) 
1
1 1 hydrophobe

>  <PUBCHEM_HEAVY_ATOM_COUNT>  (1) 
9

>  <PUBCHEM_ATOM_DEF_STEREO_COUNT>  (1) 
0

>  <PUBCHEM_ATOM_UDEF_STEREO_COUNT>  (1) 
1

>  <PUBCHEM_BOND_DEF_STEREO_COUNT>  (1) 
0

>  <PUBCHEM_BOND_UDEF_STEREO_COUNT>  (1) 
0

>  <PUBCHEM_ISOTOPIC_ATOM_COUNT>  (1) 
0

>  <PUBCHEM_COMPONENT_COUNT>  (1) 
1

>  <PUBCHEM_CACTVS_TAUTO_COUNT>  (1) 
1

>  <PUBCHEM_CONFORMER_ID>  (1) 
00007E2200000001

>  <PUBCHEM_MMFF94_ENERGY>  (1) 
2.9244

>  <PUBCHEM_FEATURE_SELFOVERLAP>  (1) 
5.074

>  <PUBCHEM_SHAPE_FINGERPRINT>  (1) 
100427 49 18338510971149879240
10219947 1 18272093828723364715
14993402 34 18200313350101459214
21040471 1 17617372879665076504
23526114 1 17976260454029346182
23595355 12 17760081113716772912
3250762 1 17766286370628546654
68250623 7 17975974259137259210

>  <PUBCHEM_SHAPE_MULTIPOLES>  (1) 
185.14
3.46
2.83
1
1.24
3.55
-0.04
-1.97
0.1
-0.91
-0.27
0.04
-0.34
0.05

>  <PUBCHEM_SHAPE_SELFOVERLAP>  (1) 
298.157

>  <PUBCHEM_SHAPE_VOLUME>  (1) 
132.3

>  <PUBCHEM_COORDINATE_TYPE>  (1) 
2
5
10

$$$$
