32293
     RDKit          3D

 20 20  0  0  1  0  0  0  0  0999 V2000
    0.1777    2.1493   -1.1939 I   0  0  0  0  0  0  0  0  0  0  0  0
   -1.8875   -3.3915    0.2360 I   0  0  0  0  0  0  0  0  0  0  0  0
    3.9966   -2.4133    0.2808 I   0  0  0  0  0  0  0  0  0  0  0  0
   -1.8131   -0.2806   -0.6263 O   0  0  0  0  0  0  0  0  0  0  0  0
   -2.7027    2.4569    1.3635 O   0  0  0  0  0  0  0  0  0  0  0  0
   -3.0707    2.1924   -0.8656 O   0  0  0  0  0  0  0  0  0  0  0  0
    3.2446    1.5006    1.5372 O   0  0  0  0  0  0  0  0  0  0  0  0
    2.9351    0.5508   -0.5966 N   0  0  0  0  0  0  0  0  0  0  0  0
   -2.4813    0.2643    0.5005 C   0  0  0  0  0  0  0  0  0  0  0  0
   -3.7315   -0.5652    0.7984 C   0  0  0  0  0  0  0  0  0  0  0  0
   -0.5294   -0.7234   -0.4325 C   0  0  0  0  0  0  0  0  0  0  0  0
   -4.7161   -0.6319   -0.3641 C   0  0  0  0  0  0  0  0  0  0  0  0
    0.5444    0.1437   -0.6148 C   0  0  0  0  0  0  0  0  0  0  0  0
    1.8469   -0.3146   -0.4168 C   0  0  0  0  0  0  0  0  0  0  0  0
   -2.7960    1.7197    0.2282 C   0  0  0  0  0  0  0  0  0  0  0  0
   -0.3108   -2.0452   -0.0539 C   0  0  0  0  0  0  0  0  0  0  0  0
    2.0705   -1.6381   -0.0375 C   0  0  0  0  0  0  0  0  0  0  0  0
    0.9917   -2.5034    0.1440 C   0  0  0  0  0  0  0  0  0  0  0  0
    3.5429    1.3748    0.3540 C   0  0  0  0  0  0  0  0  0  0  0  0
    4.6886    2.1547   -0.2407 C   0  0  0  0  0  0  0  0  0  0  0  0
  1 13  1  0
  2 16  1  0
  3 17  1  0
  4  9  1  0
  4 11  1  0
  5 15  1  0
  6 15  2  0
  7 19  2  0
  8 14  1  0
  8 19  1  0
  9 10  1  0
  9 15  1  0
 10 12  1  0
 11 13  2  0
 11 16  1  0
 13 14  1  0
 14 17  2  0
 16 18  2  0
 17 18  1  0
 19 20  1  0
M  END
>  <PUBCHEM_COMPOUND_CID>  (1) 
32293

>  <PUBCHEM_CONFORMER_RMSD>  (1) 
0.8

>  <PUBCHEM_CONFORMER_DIVERSEORDER>  (1) 
1
14
10
15
12
18
23
22
20
13
4
8
11
5
17
21
9
2
16
19
6
7
3

>  <PUBCHEM_MMFF94_PARTIAL_CHARGES>  (1) 
21
1 -0.08
11 0.08
13 0.08
14 0.12
15 0.66
16 0.08
17 0.08
18 -0.15
19 0.57
2 -0.08
20 0.06
27 0.15
28 0.37
29 0.5
3 -0.08
4 -0.36
5 -0.65
6 -0.57
7 -0.57
8 -0.55
9 0.34

>  <PUBCHEM_EFFECTIVE_ROTOR_COUNT>  (1) 
6

>  <PUBCHEM_PHARMACOPHORE_FEATURES>  (1) 
11
1 1 hydrophobe
1 12 hydrophobe
1 2 hydrophobe
1 3 hydrophobe
1 4 acceptor
1 5 acceptor
1 6 acceptor
1 7 acceptor
1 8 donor
3 5 6 15 anion
6 11 13 14 16 17 18 rings

>  <PUBCHEM_HEAVY_ATOM_COUNT>  (1) 
20

>  <PUBCHEM_ATOM_DEF_STEREO_COUNT>  (1) 
0

>  <PUBCHEM_ATOM_UDEF_STEREO_COUNT>  (1) 
1

>  <PUBCHEM_BOND_DEF_STEREO_COUNT>  (1) 
0

>  <PUBCHEM_BOND_UDEF_STEREO_COUNT>  (1) 
0

>  <PUBCHEM_ISOTOPIC_ATOM_COUNT>  (1) 
0

>  <PUBCHEM_COMPONENT_COUNT>  (1) 
1

>  <PUBCHEM_CACTVS_TAUTO_COUNT>  (1) 
2

>  <PUBCHEM_CONFORMER_ID>  (1) 
00007E2500000001

>  <PUBCHEM_MMFF94_ENERGY>  (1) 
89.9395

>  <PUBCHEM_FEATURE_SELFOVERLAP>  (1) 
55.883

>  <PUBCHEM_SHAPE_FINGERPRINT>  (1) 
10366900 7 18129096886848393993
10967382 1 18335987540261021583
11680986 33 18335427910212221083
12403259 226 18264483980066994998
12403260 363 18341324492461659939
12633257 1 18123191190810247992
12788726 201 17542806642553433694
13140716 1 18335423417881989002
14081887 123 18268987759814057739
14178342 30 18263921219276932818
14223421 5 18409453557233572615
14787075 74 18058164106312440353
14790565 3 18192725445050170228
15196674 1 18409449150539130765
15442244 35 18409450250182978022
16945 1 18263092152917613055
17804303 29 18264212405116820542
18186145 218 18270689657790007580
19591789 44 18263927644368705222
20510252 161 17980483682945472168
21524375 3 18342176674181706870
2334 1 18335710386327287839
23402539 116 18196647612767857215
23557571 272 17912939557905992118
23558518 356 18260833743107639234
23559900 14 18264763251392984892
2748010 2 18189906326837190951
3286 77 18339641144501780086
34934 24 18336260258068668287
350125 39 18338239262723136231
5104073 3 18336274453151405403
7808743 9 18265899249364656480
81228 2 18116154552642309514
84936 182 18200593583974805928

>  <PUBCHEM_SHAPE_MULTIPOLES>  (1) 
418.94
8.17
3.98
1.06
1.26
1.27
-0.15
-1.72
-1.38
0.45
-0.09
-0.06
-0.54
-0.08

>  <PUBCHEM_SHAPE_SELFOVERLAP>  (1) 
800.168

>  <PUBCHEM_SHAPE_VOLUME>  (1) 
264.1

>  <PUBCHEM_COORDINATE_TYPE>  (1) 
2
5
10

$$$$
