32306
     RDKit          3D

 25 25  0  0  1  0  0  0  0  0999 V2000
   -0.5581   -1.7677    1.7264 I   0  0  0  0  0  0  0  0  0  0  0  0
   -3.9898    2.4168   -1.1489 I   0  0  0  0  0  0  0  0  0  0  0  0
    1.8263    3.4424   -0.3144 I   0  0  0  0  0  0  0  0  0  0  0  0
    1.5544    0.5354    1.0669 O   0  0  0  0  0  0  0  0  0  0  0  0
    2.6489   -2.5398   -0.2324 O   0  0  0  0  0  0  0  0  0  0  0  0
    2.6798   -1.8606    1.9310 O   0  0  0  0  0  0  0  0  0  0  0  0
   -4.4546   -2.0525   -0.5148 O   0  0  0  0  0  0  0  0  0  0  0  0
   -3.1478   -0.3276    0.4094 N   0  0  0  0  0  0  0  0  0  0  0  0
    3.6819    0.5777   -0.0743 C   0  0  0  0  0  0  0  0  0  0  0  0
    4.8989   -0.2407   -0.5293 C   0  0  0  0  0  0  0  0  0  0  0  0
    2.3848   -0.1983    0.1818 C   0  0  0  0  0  0  0  0  0  0  0  0
    6.1980    0.5584   -0.6090 C   0  0  0  0  0  0  0  0  0  0  0  0
   -2.0266    0.4998    0.2569 C   0  0  0  0  0  0  0  0  0  0  0  0
    0.3283    0.9244    0.5894 C   0  0  0  0  0  0  0  0  0  0  0  0
   -0.7836    0.0967    0.7447 C   0  0  0  0  0  0  0  0  0  0  0  0
   -4.0154   -0.2142    1.6192 C   0  0  0  0  0  0  0  0  0  0  0  0
    7.3581   -0.3139   -1.0659 C   0  0  0  0  0  0  0  0  0  0  0  0
    2.5990   -1.5931    0.7389 C   0  0  0  0  0  0  0  0  0  0  0  0
   -2.1577    1.7306   -0.3862 C   0  0  0  0  0  0  0  0  0  0  0  0
   -3.4810   -1.2993   -0.5968 C   0  0  0  0  0  0  0  0  0  0  0  0
    0.1972    2.1551   -0.0536 C   0  0  0  0  0  0  0  0  0  0  0  0
   -1.0458    2.5583   -0.5414 C   0  0  0  0  0  0  0  0  0  0  0  0
   -2.5509   -1.4128   -1.8013 C   0  0  0  0  0  0  0  0  0  0  0  0
   -5.1340    0.7851    1.4081 C   0  0  0  0  0  0  0  0  0  0  0  0
   -3.0102   -2.4600   -2.8044 C   0  0  0  0  0  0  0  0  0  0  0  0
  1 15  1  0
  2 19  1  0
  3 21  1  0
  4 11  1  0
  4 14  1  0
  5 18  1  0
  6 18  2  0
  7 20  2  0
  8 13  1  0
  8 16  1  0
  8 20  1  0
  9 10  1  0
  9 11  1  0
 10 12  1  0
 11 18  1  0
 12 17  1  0
 13 15  2  0
 13 19  1  0
 14 15  1  0
 14 21  2  0
 16 24  1  0
 19 22  2  0
 20 23  1  0
 21 22  1  0
 23 25  1  0
M  END
>  <PUBCHEM_COMPOUND_CID>  (1) 
32306

>  <PUBCHEM_CONFORMER_RMSD>  (1) 
1

>  <PUBCHEM_CONFORMER_DIVERSEORDER>  (1) 
1
69
14
88
5
54
28
103
9
98
91
67
108
99
104
12
92
70
100
56
106
72
89
11
86
93
44
25
2
95
65
74
57
34
60
40
59
8
102
94
38
51
105
36
71
26
30
77
85
32
53
47
83
107
87
20
97
27
23
80
81
43
33
17
46
37
3
55
96
78
48
73
31
58
42
19
75
15
6
49
62
39
76
13
64
7
82
21
63
35
10
24
66
22
52
90
45
16
29
4
18
79
84
61
68
101
41
50

>  <PUBCHEM_MMFF94_PARTIAL_CHARGES>  (1) 
21
1 -0.08
11 0.34
13 0.12
14 0.08
15 0.08
16 0.3
18 0.66
19 0.08
2 -0.08
20 0.57
21 0.08
22 -0.15
23 0.06
3 -0.08
38 0.15
4 -0.36
47 0.5
5 -0.65
6 -0.57
7 -0.57
8 -0.48

>  <PUBCHEM_EFFECTIVE_ROTOR_COUNT>  (1) 
10

>  <PUBCHEM_PHARMACOPHORE_FEATURES>  (1) 
11
1 1 hydrophobe
1 17 hydrophobe
1 2 hydrophobe
1 25 hydrophobe
1 3 hydrophobe
1 4 acceptor
1 5 acceptor
1 6 acceptor
1 7 acceptor
3 5 6 18 anion
6 13 14 15 19 21 22 rings

>  <PUBCHEM_HEAVY_ATOM_COUNT>  (1) 
25

>  <PUBCHEM_ATOM_DEF_STEREO_COUNT>  (1) 
0

>  <PUBCHEM_ATOM_UDEF_STEREO_COUNT>  (1) 
1

>  <PUBCHEM_BOND_DEF_STEREO_COUNT>  (1) 
0

>  <PUBCHEM_BOND_UDEF_STEREO_COUNT>  (1) 
0

>  <PUBCHEM_ISOTOPIC_ATOM_COUNT>  (1) 
0

>  <PUBCHEM_COMPONENT_COUNT>  (1) 
1

>  <PUBCHEM_CACTVS_TAUTO_COUNT>  (1) 
1

>  <PUBCHEM_CONFORMER_ID>  (1) 
00007E3200000001

>  <PUBCHEM_MMFF94_ENERGY>  (1) 
102.5062

>  <PUBCHEM_FEATURE_SELFOVERLAP>  (1) 
55.887

>  <PUBCHEM_SHAPE_FINGERPRINT>  (1) 
10042902 136 17559383871727811238
11578080 2 15864898834293690917
12166972 35 17313397733912928276
12553582 1 18335132111592892472
12788726 201 18266177227974335608
13009979 54 17701256069532271303
13140716 1 17972044905258765592
13911987 19 17676201407353723274
14790565 3 17687184192675569917
15537594 2 18410579465661830138
17349148 13 18040713671737608528
17492 54 18260818332543259651
20602899 9 17559367212504048957
20871999 31 18333726909936566348
21709351 56 18334857229887178244
22393880 68 18411409618858833684
23402539 116 18260266339625942708
23559900 14 18410285905090805888
23598288 3 18265603291398956143
23598291 2 18056757852525822653
34934 24 18262514775979341537
350125 39 18114190722176013041

>  <PUBCHEM_SHAPE_MULTIPOLES>  (1) 
521.84
11.99
3.48
1.84
16.98
1.61
-0.7
-1.29
-3.54
-1.05
-0.68
-1.9
-1.46
-0.94

>  <PUBCHEM_SHAPE_SELFOVERLAP>  (1) 
994.151

>  <PUBCHEM_SHAPE_VOLUME>  (1) 
328.4

>  <PUBCHEM_COORDINATE_TYPE>  (1) 
2
5
10

$$$$
