32307
     RDKit          3D

  7  7  0  0  0  0  0  0  0  0999 V2000
    0.7306    1.4447    0.0001 S   0  0  0  0  0  0  0  0  0  0  0  0
   -0.9069    1.1595   -0.0001 N   0  0  0  0  0  0  0  0  0  0  0  0
    2.4933   -0.6035   -0.0002 N   0  0  0  0  0  0  0  0  0  0  0  0
   -1.0958   -0.1580    0.0000 C   0  0  0  0  0  0  0  0  0  0  0  0
    0.0651   -0.9831    0.0001 C   0  0  0  0  0  0  0  0  0  0  0  0
    1.2007   -0.2024    0.0001 C   0  0  0  0  0  0  0  0  0  0  0  0
   -2.4869   -0.6573   -0.0001 C   0  0  0  0  0  0  0  0  0  0  0  0
  1  2  1  0
  1  6  1  0
  2  4  2  0
  3  6  1  0
  4  5  1  0
  4  7  1  0
  5  6  2  0
M  END
>  <PUBCHEM_COMPOUND_CID>  (1) 
32307

>  <PUBCHEM_CONFORMER_RMSD>  (1) 
0.4

>  <PUBCHEM_CONFORMER_DIVERSEORDER>  (1) 
1

>  <PUBCHEM_MMFF94_PARTIAL_CHARGES>  (1) 
10
1 0.18
12 0.4
13 0.4
2 -0.51
3 -0.88
4 0.11
5 -0.15
6 0.12
7 0.18
8 0.15

>  <PUBCHEM_EFFECTIVE_ROTOR_COUNT>  (1) 
0

>  <PUBCHEM_PHARMACOPHORE_FEATURES>  (1) 
4
1 2 acceptor
1 3 cation
1 3 donor
5 1 2 4 5 6 rings

>  <PUBCHEM_HEAVY_ATOM_COUNT>  (1) 
7

>  <PUBCHEM_ATOM_DEF_STEREO_COUNT>  (1) 
0

>  <PUBCHEM_ATOM_UDEF_STEREO_COUNT>  (1) 
0

>  <PUBCHEM_BOND_DEF_STEREO_COUNT>  (1) 
0

>  <PUBCHEM_BOND_UDEF_STEREO_COUNT>  (1) 
0

>  <PUBCHEM_ISOTOPIC_ATOM_COUNT>  (1) 
0

>  <PUBCHEM_COMPONENT_COUNT>  (1) 
1

>  <PUBCHEM_CACTVS_TAUTO_COUNT>  (1) 
3

>  <PUBCHEM_CONFORMER_ID>  (1) 
00007E3300000001

>  <PUBCHEM_MMFF94_ENERGY>  (1) 
4.4958

>  <PUBCHEM_FEATURE_SELFOVERLAP>  (1) 
20.297

>  <PUBCHEM_SHAPE_FINGERPRINT>  (1) 
16714656 1 18412266103661324910
20096714 4 18195247947308258849
21040471 1 17906453586163577669
23552423 10 18189347770746394734
29004967 10 18410577300887452267
5460574 1 9295290542751125730

>  <PUBCHEM_SHAPE_MULTIPOLES>  (1) 
137.94
2.82
1.38
0.61
0.5
0.44
0
-0.82
0
-0.29
0
0.01
0.01
0

>  <PUBCHEM_SHAPE_SELFOVERLAP>  (1) 
267.184

>  <PUBCHEM_SHAPE_VOLUME>  (1) 
85.7

>  <PUBCHEM_COORDINATE_TYPE>  (1) 
2
5
10

$$$$
