32300
     RDKit          3D

 25 25  0  0  1  0  0  0  0  0999 V2000
   -0.5163   -2.1484    0.9638 I   0  0  0  0  0  0  0  0  0  0  0  0
   -3.7434    2.6391   -1.0905 I   0  0  0  0  0  0  0  0  0  0  0  0
    1.9676    3.3810    0.4611 I   0  0  0  0  0  0  0  0  0  0  0  0
    1.6158    0.2279    1.0663 O   0  0  0  0  0  0  0  0  0  0  0  0
    2.8548   -2.4485   -0.8429 O   0  0  0  0  0  0  0  0  0  0  0  0
    2.6936   -2.3160    1.4151 O   0  0  0  0  0  0  0  0  0  0  0  0
   -4.2221   -1.9208   -1.5189 O   0  0  0  0  0  0  0  0  0  0  0  0
   -3.0026   -0.4090   -0.1798 N   0  0  0  0  0  0  0  0  0  0  0  0
    3.8317    0.5281    0.1554 C   0  0  0  0  0  0  0  0  0  0  0  0
    5.0930   -0.1655   -0.3793 C   0  0  0  0  0  0  0  0  0  0  0  0
    2.5273   -0.2758    0.1037 C   0  0  0  0  0  0  0  0  0  0  0  0
    6.3842    0.6177   -0.1513 C   0  0  0  0  0  0  0  0  0  0  0  0
   -3.8834   -0.6257    1.0060 C   0  0  0  0  0  0  0  0  0  0  0  0
   -1.8829    0.4209   -0.0304 C   0  0  0  0  0  0  0  0  0  0  0  0
    0.4299    0.7318    0.5950 C   0  0  0  0  0  0  0  0  0  0  0  0
   -5.3351   -0.2565    0.7258 C   0  0  0  0  0  0  0  0  0  0  0  0
   -0.6808   -0.0993    0.4491 C   0  0  0  0  0  0  0  0  0  0  0  0
    7.5897   -0.1272   -0.7059 C   0  0  0  0  0  0  0  0  0  0  0  0
    2.7108   -1.7659    0.3214 C   0  0  0  0  0  0  0  0  0  0  0  0
   -1.9743    1.7723   -0.3640 C   0  0  0  0  0  0  0  0  0  0  0  0
    0.3385    2.0831    0.2615 C   0  0  0  0  0  0  0  0  0  0  0  0
   -3.2873   -1.1264   -1.3887 C   0  0  0  0  0  0  0  0  0  0  0  0
   -0.8636    2.6033   -0.2180 C   0  0  0  0  0  0  0  0  0  0  0  0
   -6.2364   -0.4538    1.9364 C   0  0  0  0  0  0  0  0  0  0  0  0
   -2.4088   -0.8663   -2.5908 C   0  0  0  0  0  0  0  0  0  0  0  0
  1 17  1  0
  2 20  1  0
  3 21  1  0
  4 11  1  0
  4 15  1  0
  5 19  1  0
  6 19  2  0
  7 22  2  0
  8 13  1  0
  8 14  1  0
  8 22  1  0
  9 10  1  0
  9 11  1  0
 10 12  1  0
 11 19  1  0
 12 18  1  0
 13 16  1  0
 14 17  2  0
 14 20  1  0
 15 17  1  0
 15 21  2  0
 16 24  1  0
 20 23  2  0
 21 23  1  0
 22 25  1  0
M  END
>  <PUBCHEM_COMPOUND_CID>  (1) 
32300

>  <PUBCHEM_CONFORMER_RMSD>  (1) 
1

>  <PUBCHEM_CONFORMER_DIVERSEORDER>  (1) 
1
94
54
103
55
101
52
40
31
39
84
16
27
70
95
79
8
72
62
60
93
53
96
89
86
83
34
6
5
46
80
11
18
91
97
59
42
44
58
10
25
43
45
99
56
22
75
38
82
41
23
90
67
105
65
100
61
9
30
17
76
29
92
12
51
32
73
85
7
87
74
88
77
3
47
50
57
104
102
26
63
2
19
68
28
49
36
24
21
71
64
78
14
81
15
69
13
35
98
33
4
37
66
48
20

>  <PUBCHEM_MMFF94_PARTIAL_CHARGES>  (1) 
21
1 -0.08
11 0.34
13 0.3
14 0.12
15 0.08
17 0.08
19 0.66
2 -0.08
20 0.08
21 0.08
22 0.57
23 -0.15
25 0.06
3 -0.08
4 -0.36
40 0.15
47 0.5
5 -0.65
6 -0.57
7 -0.57
8 -0.48

>  <PUBCHEM_EFFECTIVE_ROTOR_COUNT>  (1) 
10

>  <PUBCHEM_PHARMACOPHORE_FEATURES>  (1) 
11
1 1 hydrophobe
1 18 hydrophobe
1 2 hydrophobe
1 24 hydrophobe
1 3 hydrophobe
1 4 acceptor
1 5 acceptor
1 6 acceptor
1 7 acceptor
3 5 6 19 anion
6 14 15 17 20 21 23 rings

>  <PUBCHEM_HEAVY_ATOM_COUNT>  (1) 
25

>  <PUBCHEM_ATOM_DEF_STEREO_COUNT>  (1) 
0

>  <PUBCHEM_ATOM_UDEF_STEREO_COUNT>  (1) 
1

>  <PUBCHEM_BOND_DEF_STEREO_COUNT>  (1) 
0

>  <PUBCHEM_BOND_UDEF_STEREO_COUNT>  (1) 
0

>  <PUBCHEM_ISOTOPIC_ATOM_COUNT>  (1) 
0

>  <PUBCHEM_COMPONENT_COUNT>  (1) 
1

>  <PUBCHEM_CACTVS_TAUTO_COUNT>  (1) 
1

>  <PUBCHEM_CONFORMER_ID>  (1) 
00007E2C00000001

>  <PUBCHEM_MMFF94_ENERGY>  (1) 
98.6196

>  <PUBCHEM_FEATURE_SELFOVERLAP>  (1) 
55.887

>  <PUBCHEM_SHAPE_FINGERPRINT>  (1) 
11578080 2 16806993360524515413
12166972 35 17749114400764922252
12553582 1 18411125952947375850
12788726 201 18270116799379105728
13140716 1 18047751782631267912
15461852 350 13695878034360118122
15537594 2 18343021086031784102
17492 89 18045781187217336474
20871999 31 18409439276477986564
21267235 1 18335711558510663200
21709351 56 18408881837474255316
22182313 1 18115568453242729621
22393880 68 18342163467552943140
23402539 116 18408317766528763356
23559900 14 18342443838591586208
2748010 2 18189313780459863461
34934 24 18266452118412421813
350125 39 18334582347485118361
5104073 3 18263076617878544304

>  <PUBCHEM_SHAPE_MULTIPOLES>  (1) 
521.84
13.33
3.33
1.57
13.6
1.84
-0.6
-2.36
-0.56
-0.16
0.12
-2.1
-0.62
0.6

>  <PUBCHEM_SHAPE_SELFOVERLAP>  (1) 
992.492

>  <PUBCHEM_SHAPE_VOLUME>  (1) 
328.5

>  <PUBCHEM_COORDINATE_TYPE>  (1) 
2
5
10

$$$$
