32329
     RDKit          3D

 20 21  0  0  1  0  0  0  0  0999 V2000
    1.5387   -1.7442    0.0412 O   0  0  0  0  0  0  0  0  0  0  0  0
   -0.0323   -1.9360   -1.6416 O   0  0  0  0  0  0  0  0  0  0  0  0
   -2.1153    1.4481   -0.2902 N   0  0  0  0  0  0  0  0  0  0  0  0
   -0.2835   -0.2466    0.0860 C   0  0  0  0  0  0  0  0  0  0  0  0
   -1.5992    0.1291   -0.6883 C   0  0  0  0  0  0  0  0  0  0  0  0
   -0.6582   -0.7654    1.5025 C   0  0  0  0  0  0  0  0  0  0  0  0
   -1.6332   -1.9524    1.4750 C   0  0  0  0  0  0  0  0  0  0  0  0
    0.7205    0.9216    0.0833 C   0  0  0  0  0  0  0  0  0  0  0  0
   -2.6973   -0.8954   -0.5213 C   0  0  0  0  0  0  0  0  0  0  0  0
    0.3989   -1.4064   -0.6264 C   0  0  0  0  0  0  0  0  0  0  0  0
   -2.7024   -1.8320    0.4358 C   0  0  0  0  0  0  0  0  0  0  0  0
    1.1804    1.4322   -1.1259 C   0  0  0  0  0  0  0  0  0  0  0  0
    1.1588    1.4566    1.2900 C   0  0  0  0  0  0  0  0  0  0  0  0
   -2.5453    1.4194    1.1041 C   0  0  0  0  0  0  0  0  0  0  0  0
   -3.2160    1.8414   -1.1642 C   0  0  0  0  0  0  0  0  0  0  0  0
    2.0895    2.4901   -1.1285 C   0  0  0  0  0  0  0  0  0  0  0  0
    2.0678    2.5146    1.2872 C   0  0  0  0  0  0  0  0  0  0  0  0
    2.5331    3.0313    0.0780 C   0  0  0  0  0  0  0  0  0  0  0  0
    2.2838   -2.8278   -0.5234 C   0  0  0  0  0  0  0  0  0  0  0  0
    3.5111   -3.0782    0.3267 C   0  0  0  0  0  0  0  0  0  0  0  0
  1 10  1  0
  1 19  1  0
  2 10  2  0
  3  5  1  0
  3 14  1  0
  3 15  1  0
  4  5  1  0
  4  6  1  0
  4  8  1  0
  4 10  1  0
  5  9  1  0
  6  7  1  0
  7 11  1  0
  8 12  2  0
  8 13  1  0
  9 11  2  0
 12 16  1  0
 13 17  2  0
 16 18  2  0
 17 18  1  0
 19 20  1  0
M  END
>  <PUBCHEM_COMPOUND_CID>  (1) 
32329

>  <PUBCHEM_CONFORMER_RMSD>  (1) 
0.8

>  <PUBCHEM_CONFORMER_DIVERSEORDER>  (1) 
1
21
7
20
9
14
16
10
8
15
6
2
3
17
4
5
13
22
23
25
26
18
12
27
11
24
19

>  <PUBCHEM_MMFF94_PARTIAL_CHARGES>  (1) 
25
1 -0.43
10 0.66
11 -0.29
12 -0.15
13 -0.15
14 0.27
15 0.27
16 -0.15
17 -0.15
18 -0.15
19 0.28
2 -0.57
26 0.15
27 0.15
28 0.15
29 0.15
3 -0.81
36 0.15
37 0.15
38 0.15
4 0.2
5 0.41
7 0.14
8 -0.14
9 -0.29

>  <PUBCHEM_EFFECTIVE_ROTOR_COUNT>  (1) 
5.8

>  <PUBCHEM_PHARMACOPHORE_FEATURES>  (1) 
4
1 2 acceptor
1 3 cation
6 4 5 6 7 9 11 rings
6 8 12 13 16 17 18 rings

>  <PUBCHEM_HEAVY_ATOM_COUNT>  (1) 
20

>  <PUBCHEM_ATOM_DEF_STEREO_COUNT>  (1) 
0

>  <PUBCHEM_ATOM_UDEF_STEREO_COUNT>  (1) 
2

>  <PUBCHEM_BOND_DEF_STEREO_COUNT>  (1) 
0

>  <PUBCHEM_BOND_UDEF_STEREO_COUNT>  (1) 
0

>  <PUBCHEM_ISOTOPIC_ATOM_COUNT>  (1) 
0

>  <PUBCHEM_COMPONENT_COUNT>  (1) 
1

>  <PUBCHEM_CACTVS_TAUTO_COUNT>  (1) 
1

>  <PUBCHEM_CONFORMER_ID>  (1) 
00007E4900000001

>  <PUBCHEM_MMFF94_ENERGY>  (1) 
68.7436

>  <PUBCHEM_FEATURE_SELFOVERLAP>  (1) 
20.297

>  <PUBCHEM_SHAPE_FINGERPRINT>  (1) 
11578080 2 12552895998434998165
11680986 33 18339069419729433619
12035758 1 18192142698869892841
12592029 89 18268147737531352658
12788726 201 17615125482515266298
13083527 12 18269542991738199663
13132413 78 18050572845847253324
13140716 1 18339367370770378169
13149001 5 18263366884858933503
14142880 1 16966335488124042692
14181834 199 18129929109897653462
14614273 12 18264204893276951005
14955137 171 17912104771119654251
15309172 13 17835249213090658441
15490181 7 18128255794839146998
15852999 172 18116693292091521037
16945 1 17483951584556913231
18981168 100 18259708917042360349
20028762 73 16614782630453040174
20510252 161 17909273824978477705
20511035 2 18341325634816991519
20600515 1 17978242555988503918
21041028 32 17908719336242615425
21501502 16 18340218439877929171
21524375 3 17912939562543409022
23402539 116 17694498547733832220
23419403 2 17479696500607188680
23558518 356 18411136901547104409
23559900 14 18261108642256590118
2748010 2 18339650052142736813
3250762 1 18334584554965926475
350125 39 18410020927008982921
43471831 8 18122347040805514770
589210 1 18411703188130822035
7364860 26 18413384341225055708
81228 2 17476938856651182206
90525 40 17973439103187889820
9981440 41 18124854996753431297

>  <PUBCHEM_SHAPE_MULTIPOLES>  (1) 
394.87
4.69
4.07
1.47
0.44
1.79
0.16
-0.74
0.01
-3.57
-0.2
0.17
-0.21
0.68

>  <PUBCHEM_SHAPE_SELFOVERLAP>  (1) 
827.589

>  <PUBCHEM_SHAPE_VOLUME>  (1) 
220.9

>  <PUBCHEM_COORDINATE_TYPE>  (1) 
2
5
10

$$$$
