32334
     RDKit          3D

 16 17  0  0  1  0  0  0  0  0999 V2000
   -0.7797   -2.7325   -0.1572 S   0  0  0  0  0  0  0  0  0  0  0  0
   -3.5372    2.4239    0.2316 O   0  0  0  0  0  0  0  0  0  0  0  0
    2.9442   -0.8129    1.4672 O   0  0  0  0  0  0  0  0  0  0  0  0
    4.4684    0.0014   -0.0111 O   0  0  0  0  0  0  0  0  0  0  0  0
    2.8911    2.2704   -0.2183 N   0  0  0  0  0  0  0  0  0  0  0  0
    1.4120    0.4791   -1.0685 C   0  0  0  0  0  0  0  0  0  0  0  0
    0.3732   -0.5078   -0.6813 C   0  0  0  0  0  0  0  0  0  0  0  0
   -0.9696   -0.1585   -0.3137 C   0  0  0  0  0  0  0  0  0  0  0  0
    2.2437    1.0025    0.1246 C   0  0  0  0  0  0  0  0  0  0  0  0
   -1.7199   -1.2958    0.0014 C   0  0  0  0  0  0  0  0  0  0  0  0
    0.6049   -1.8621   -0.6376 C   0  0  0  0  0  0  0  0  0  0  0  0
   -1.6028    1.1051   -0.2309 C   0  0  0  0  0  0  0  0  0  0  0  0
   -3.0702   -1.2023    0.3917 C   0  0  0  0  0  0  0  0  0  0  0  0
   -2.9419    1.2012    0.1564 C   0  0  0  0  0  0  0  0  0  0  0  0
    3.3499    0.0302    0.4826 C   0  0  0  0  0  0  0  0  0  0  0  0
   -3.6662    0.0582    0.4634 C   0  0  0  0  0  0  0  0  0  0  0  0
  1 10  1  0
  1 11  1  0
  2 14  1  0
  3 15  1  0
  4 15  2  0
  5  9  1  0
  6  7  1  0
  6  9  1  0
  7  8  1  0
  7 11  2  0
  8 10  2  0
  8 12  1  0
  9 15  1  0
 10 13  1  0
 12 14  2  0
 13 16  2  0
 14 16  1  0
M  END
>  <PUBCHEM_COMPOUND_CID>  (1) 
32334

>  <PUBCHEM_CONFORMER_RMSD>  (1) 
0.6

>  <PUBCHEM_CONFORMER_DIVERSEORDER>  (1) 
2
20
24
10
9
23
3
14
18
21
19
8
15
12
5
17
22
6
16
13
1
7
4
11

>  <PUBCHEM_MMFF94_PARTIAL_CHARGES>  (1) 
23
1 -0.08
10 0.04
11 -0.11
12 -0.15
13 -0.15
14 0.08
15 0.66
16 -0.15
2 -0.53
20 0.15
21 0.15
22 0.15
23 0.36
24 0.36
25 0.15
26 0.45
27 0.5
3 -0.65
4 -0.57
5 -0.99
6 0.18
7 -0.18
9 0.33

>  <PUBCHEM_EFFECTIVE_ROTOR_COUNT>  (1) 
3

>  <PUBCHEM_PHARMACOPHORE_FEATURES>  (1) 
8
1 2 donor
1 3 acceptor
1 4 acceptor
1 5 cation
1 5 donor
3 3 4 15 anion
5 1 7 8 10 11 rings
6 8 10 12 13 14 16 rings

>  <PUBCHEM_HEAVY_ATOM_COUNT>  (1) 
16

>  <PUBCHEM_ATOM_DEF_STEREO_COUNT>  (1) 
0

>  <PUBCHEM_ATOM_UDEF_STEREO_COUNT>  (1) 
1

>  <PUBCHEM_BOND_DEF_STEREO_COUNT>  (1) 
0

>  <PUBCHEM_BOND_UDEF_STEREO_COUNT>  (1) 
0

>  <PUBCHEM_ISOTOPIC_ATOM_COUNT>  (1) 
0

>  <PUBCHEM_COMPONENT_COUNT>  (1) 
1

>  <PUBCHEM_CACTVS_TAUTO_COUNT>  (1) 
3

>  <PUBCHEM_CONFORMER_ID>  (1) 
00007E4E00000002

>  <PUBCHEM_MMFF94_ENERGY>  (1) 
26.6041

>  <PUBCHEM_FEATURE_SELFOVERLAP>  (1) 
40.711

>  <PUBCHEM_SHAPE_FINGERPRINT>  (1) 
10608611 8 18341336617206804781
12077114 3 18409445869257846085
12251169 10 18334855039105287926
12403260 363 18341041986834755373
13380535 76 18412545392684519223
13538477 17 18117842324602646710
13581323 91 18334294296601662886
13583140 156 17458059374497735961
15042514 8 18194690482551093483
15219456 202 18272095937504646103
15375462 189 17822279172783264402
15669948 3 18197219371699235006
15775835 57 18335704965883296944
16945 1 18339375170331059695
17804303 29 18410017637074564422
17846911 113 18343866628053943353
1813 80 17023185960451170702
18186145 218 17845671256272103935
19422 9 18040717000173667470
20510252 161 18271815686772651081
21524375 3 18273496779890622159
21731228 192 18410580565331811011
22445834 79 18113608010972022266
23382010 3 13254495574872473103
23402539 116 18270391815310539423
23419403 2 15969015756082457667
23463225 33 18334012804513563956
23559900 14 18200883855487793470
23598291 2 18042127724999778516
2748010 2 18265915578814186695
305870 269 18338235942855919159
474 4 18269557135444904433
5706482 22 18413100663241715807
58807428 26 18335702676729330851
6333272 397 18412266142416133839
7097593 13 18188195547000709106
7364860 26 18054513500053956047
90316 7 17749385936496440845

>  <PUBCHEM_SHAPE_MULTIPOLES>  (1) 
310.53
6.76
2.46
0.89
2.85
0.26
-0.06
-2.73
-1.68
-1.13
0.12
0.41
0.13
-0.25

>  <PUBCHEM_SHAPE_SELFOVERLAP>  (1) 
654.352

>  <PUBCHEM_SHAPE_VOLUME>  (1) 
176

>  <PUBCHEM_COORDINATE_TYPE>  (1) 
2
5
10

$$$$
