32333
     RDKit          3D

 25 25  0  0  1  0  0  0  0  0999 V2000
   -1.1853    0.3195    2.0139 O   0  0  0  0  0  0  0  0  0  0  0  0
   -2.9602   -3.9786   -0.9720 O   0  0  0  0  0  0  0  0  0  0  0  0
   -2.8521   -0.2702   -0.4758 N   0  0  0  0  0  0  0  0  0  0  0  0
   -1.3729   -0.2289   -0.3343 C   0  0  0  0  0  0  0  0  0  0  0  0
   -0.9916   -0.7221    1.0584 C   0  0  0  0  0  0  0  0  0  0  0  0
   -3.3723   -1.7050   -0.3214 C   0  0  0  0  0  0  0  0  0  0  0  0
   -3.5238    0.6006    0.5937 C   0  0  0  0  0  0  0  0  0  0  0  0
   -3.2801    0.2488   -1.8546 C   0  0  0  0  0  0  0  0  0  0  0  0
    0.4548   -1.2326    1.1399 C   0  0  0  0  0  0  0  0  0  0  0  0
    1.5231   -0.1997    0.7585 C   0  0  0  0  0  0  0  0  0  0  0  0
   -2.4634   -2.6513   -1.0810 C   0  0  0  0  0  0  0  0  0  0  0  0
   -4.9409    0.9591    0.2550 C   0  0  0  0  0  0  0  0  0  0  0  0
    2.9274   -0.8053    0.8459 C   0  0  0  0  0  0  0  0  0  0  0  0
    4.0383    0.1717    0.4499 C   0  0  0  0  0  0  0  0  0  0  0  0
    5.4352   -0.4551    0.4660 C   0  0  0  0  0  0  0  0  0  0  0  0
    6.4938    0.5445   -0.0077 C   0  0  0  0  0  0  0  0  0  0  0  0
   -5.2125    2.1198   -0.4694 C   0  0  0  0  0  0  0  0  0  0  0  0
   -5.9866    0.1315    0.6642 C   0  0  0  0  0  0  0  0  0  0  0  0
    7.9101   -0.0375   -0.0382 C   0  0  0  0  0  0  0  0  0  0  0  0
    8.9720    0.9684   -0.4878 C   0  0  0  0  0  0  0  0  0  0  0  0
   -6.5298    2.4531   -0.7844 C   0  0  0  0  0  0  0  0  0  0  0  0
   -7.3039    0.4649    0.3489 C   0  0  0  0  0  0  0  0  0  0  0  0
   -7.5754    1.6257   -0.3755 C   0  0  0  0  0  0  0  0  0  0  0  0
   10.3656    0.3382   -0.4885 C   0  0  0  0  0  0  0  0  0  0  0  0
   11.4305    1.3408   -0.9038 C   0  0  0  0  0  0  0  0  0  0  0  0
  1  5  1  0
  2 11  1  0
  3  4  1  0
  3  6  1  0
  3  7  1  0
  3  8  1  0
  4  5  1  0
  5  9  1  0
  6 11  1  0
  7 12  1  0
  9 10  1  0
 10 13  1  0
 12 17  2  0
 12 18  1  0
 13 14  1  0
 14 15  1  0
 15 16  1  0
 16 19  1  0
 17 21  1  0
 18 22  2  0
 19 20  1  0
 20 24  1  0
 21 23  2  0
 22 23  1  0
 24 25  1  0
M  CHG  1   3   1
M  END
>  <PUBCHEM_COMPOUND_CID>  (1) 
32333

>  <PUBCHEM_CONFORMER_RMSD>  (1) 
1.4

>  <PUBCHEM_CONFORMER_DIVERSEORDER>  (1) 
1
21
35
113
60
73
87
135
62
61
7
23
66
145
69
137
86
42
10
88
55
49
37
104
99
11
141
125
105
31
93
144
34
120
38
39
148
115
136
95
15
84
8
17
63
45
85
53
80
103
110
142
9
20
126
90
129
36
22
112
77
114
54
100
91
109
40
124
75
24
149
68
121
133
128
25
139
140
65
134
47
70
59
64
57
13
130
152
50
143
108
97
138
146
78
83
82
43
96
89
147
81
27
132
101
33
51
16
32
106
116
4
71
12
56
30
127
94
28
92
102
19
117
72
76
46
58
3
98
2
29
5
107
150
44
118
14
122
6
131
67
26
111
18
48
151
41
119
79
52
74
123

>  <PUBCHEM_MMFF94_PARTIAL_CHARGES>  (1) 
22
1 -0.68
11 0.28
12 -0.14
17 -0.15
18 -0.15
2 -0.68
21 -0.15
22 -0.15
23 -0.15
3 -1.01
4 0.5
46 0.4
5 0.28
51 0.15
52 0.15
55 0.4
58 0.15
59 0.15
6 0.5
60 0.15
7 0.65
8 0.5

>  <PUBCHEM_EFFECTIVE_ROTOR_COUNT>  (1) 
15

>  <PUBCHEM_PHARMACOPHORE_FEATURES>  (1) 
7
1 1 acceptor
1 1 donor
1 2 acceptor
1 2 donor
1 25 hydrophobe
1 3 cation
6 12 17 18 21 22 23 rings

>  <PUBCHEM_HEAVY_ATOM_COUNT>  (1) 
25

>  <PUBCHEM_ATOM_DEF_STEREO_COUNT>  (1) 
0

>  <PUBCHEM_ATOM_UDEF_STEREO_COUNT>  (1) 
2

>  <PUBCHEM_BOND_DEF_STEREO_COUNT>  (1) 
0

>  <PUBCHEM_BOND_UDEF_STEREO_COUNT>  (1) 
0

>  <PUBCHEM_ISOTOPIC_ATOM_COUNT>  (1) 
0

>  <PUBCHEM_COMPONENT_COUNT>  (1) 
1

>  <PUBCHEM_CACTVS_TAUTO_COUNT>  (1) 
1

>  <PUBCHEM_CONFORMER_ID>  (1) 
00007E4D00000001

>  <PUBCHEM_MMFF94_ENERGY>  (1) 
60.2229

>  <PUBCHEM_FEATURE_SELFOVERLAP>  (1) 
35.521

>  <PUBCHEM_SHAPE_FINGERPRINT>  (1) 
10 15 15936408936261037904
10165383 225 18272088276179444507
10369192 42 18260264131538116255
106641 1 15791454824491036161
10670039 82 17632577102827815009
11135609 99 10735578220445513488
11315181 36 16272209716952662298
12082328 90 18040998475414720194
12643181 29 15051728703323850572
12664476 115 15285358444895515804
13383668 90 15554439674993939725
13540713 4 17272550975060692227
14251764 46 17530966882671474624
14428016 248 17458070374505372772
15183329 4 17131828737885870010
155225 1 18040998423157694116
15690457 1 11167938057445192608
15706992 2 18114190708858191824
1577012 14 18187076270476827330
1818759 1 11455891356856790816
18643901 69 14405186157897663616
20505436 4 18260259729091766667
20721686 146 18115862989726554797
21057603 285 10446804802200062135
21360443 89 14201690805118862289
21756936 100 17894630361911145971
21792961 116 17418097628428366850
22224240 67 16008751290656503001
23559900 14 17489293231177555474
249057 3 17989202664072334232
3711267 37 18187097139523062692
44280117 145 17970075641643086594
44802255 64 18413105040082429271
5758199 1 17240202119058349232
59521270 166 15626232282033127880
59682541 35 15719400524661635560
636775 72 17749109958919944788
9663363 56 12540695925715467161
9953998 17 14923950054365153664

>  <PUBCHEM_SHAPE_MULTIPOLES>  (1) 
497.77
32.77
2.35
1.26
99.83
1.68
0.02
-22.15
8.14
-4.58
1.14
-0.69
0.27
-1.09

>  <PUBCHEM_SHAPE_SELFOVERLAP>  (1) 
964.635

>  <PUBCHEM_SHAPE_VOLUME>  (1) 
302.4

>  <PUBCHEM_COORDINATE_TYPE>  (1) 
2
5
10

$$$$
