32344
     RDKit          3D

 16 18  0  0  0  0  0  0  0  0999 V2000
   -0.7297   -1.5562   -0.1414 N   0  0  0  0  0  0  0  0  0  0  0  0
   -2.0927   -1.6099   -0.1472 N   0  0  0  0  0  0  0  0  0  0  0  0
   -4.2104   -0.5303    0.0091 N   0  0  0  0  0  0  0  0  0  0  0  0
   -4.9780    0.6016   -0.1163 N   0  0  0  0  0  0  0  0  0  0  0  0
    1.2677    2.1384   -0.3459 C   0  0  0  0  0  0  0  0  0  0  0  0
   -0.0810    2.1157    0.3810 C   0  0  0  0  0  0  0  0  0  0  0  0
    2.0559    0.8662   -0.1309 C   0  0  0  0  0  0  0  0  0  0  0  0
   -0.8134    0.8207    0.1576 C   0  0  0  0  0  0  0  0  0  0  0  0
    1.3718   -0.3633    0.0104 C   0  0  0  0  0  0  0  0  0  0  0  0
   -0.0990   -0.3686    0.0105 C   0  0  0  0  0  0  0  0  0  0  0  0
    3.4570    0.9001   -0.1503 C   0  0  0  0  0  0  0  0  0  0  0  0
   -2.2011    0.7606    0.1673 C   0  0  0  0  0  0  0  0  0  0  0  0
    2.1322   -1.5360    0.1506 C   0  0  0  0  0  0  0  0  0  0  0  0
    4.1896   -0.2757   -0.0061 C   0  0  0  0  0  0  0  0  0  0  0  0
   -2.7975   -0.4721    0.0063 C   0  0  0  0  0  0  0  0  0  0  0  0
    3.5286   -1.4911    0.1451 C   0  0  0  0  0  0  0  0  0  0  0  0
  1  2  2  0
  1 10  1  0
  2 15  1  0
  3  4  1  0
  3 15  1  0
  5  6  1  0
  5  7  1  0
  6  8  1  0
  7  9  2  0
  7 11  1  0
  8 10  2  0
  8 12  1  0
  9 10  1  0
  9 13  1  0
 11 14  2  0
 12 15  2  0
 13 16  2  0
 14 16  1  0
M  END
>  <PUBCHEM_COMPOUND_CID>  (1) 
32344

>  <PUBCHEM_CONFORMER_RMSD>  (1) 
0.6

>  <PUBCHEM_CONFORMER_DIVERSEORDER>  (1) 
1
2

>  <PUBCHEM_MMFF94_PARTIAL_CHARGES>  (1) 
23
1 -0.31
10 0.31
11 -0.15
12 -0.15
13 -0.15
14 -0.15
15 0.41
16 -0.15
2 -0.31
21 0.15
22 0.15
23 0.15
24 0.15
25 0.15
26 0.4
27 0.36
28 0.36
3 -0.51
4 -0.71
5 0.14
6 0.14
7 -0.14
8 -0.14

>  <PUBCHEM_EFFECTIVE_ROTOR_COUNT>  (1) 
1.4

>  <PUBCHEM_PHARMACOPHORE_FEATURES>  (1) 
7
1 1 acceptor
1 3 donor
1 4 donor
3 2 3 15 cation
6 1 2 8 10 12 15 rings
6 5 6 7 8 9 10 rings
6 7 9 11 13 14 16 rings

>  <PUBCHEM_HEAVY_ATOM_COUNT>  (1) 
16

>  <PUBCHEM_ATOM_DEF_STEREO_COUNT>  (1) 
0

>  <PUBCHEM_ATOM_UDEF_STEREO_COUNT>  (1) 
0

>  <PUBCHEM_BOND_DEF_STEREO_COUNT>  (1) 
0

>  <PUBCHEM_BOND_UDEF_STEREO_COUNT>  (1) 
0

>  <PUBCHEM_ISOTOPIC_ATOM_COUNT>  (1) 
0

>  <PUBCHEM_COMPONENT_COUNT>  (1) 
1

>  <PUBCHEM_CACTVS_TAUTO_COUNT>  (1) 
3

>  <PUBCHEM_CONFORMER_ID>  (1) 
00007E5800000001

>  <PUBCHEM_MMFF94_ENERGY>  (1) 
49.5715

>  <PUBCHEM_FEATURE_SELFOVERLAP>  (1) 
37.109

>  <PUBCHEM_SHAPE_FINGERPRINT>  (1) 
10062212 137 18202277044104910871
10130415 120 18410291419274198483
10967382 1 18410856564262018866
11132069 177 18412821404415025250
11471102 20 18409445903401267748
12032990 46 18410860940712354698
13140716 1 18194677292573931512
13221675 6 18410294726436036962
13571099 22 18410856568229737164
13690532 89 18410012117561456451
14115302 16 17968107442365965190
14144814 61 18411702075723801402
14993402 34 18413110558482031206
15196674 1 18410856598310364967
15375462 189 18260828193893283426
15442244 35 18339645542416292440
15536298 74 18343020021254168184
16945 1 18337676416012369352
18186145 218 17603577556316339459
18522853 276 18413669106289276440
200 152 18201716258545669271
20201158 50 18408324401704583442
20510252 161 18130507410053985560
20645477 70 18410855447365008183
21029758 11 18343578534406438393
21267235 1 18410865338912002514
21501502 16 18194682798521538207
21501925 9 18411132524563849744
221490 88 18191031311710478915
2334 1 17690564504004180184
23402539 116 18201429268583167431
23402655 69 18411698785604792469
23463225 33 18410576180196244078
23559900 14 18342454881178818280
2748010 2 16248007988625114524
2871803 45 18335139752719526326
335352 9 18410575054630021759
34934 24 18341044215996582916
5104073 3 18410293648414966907
537710 114 18411141341957849372
57005193 9 18411974771623900054
69090 78 18342172271813809215
7364860 26 18270398425017222840
8809292 202 18188213203162941418
9709674 26 18410862087263440142

>  <PUBCHEM_SHAPE_MULTIPOLES>  (1) 
309.35
7.44
2.01
0.62
4.3
0.43
-0.01
-1.33
0.19
-0.63
0
-0.07
0.05
-0.24

>  <PUBCHEM_SHAPE_SELFOVERLAP>  (1) 
681.152

>  <PUBCHEM_SHAPE_VOLUME>  (1) 
163.3

>  <PUBCHEM_COORDINATE_TYPE>  (1) 
2
5
10

$$$$
