32348
     RDKit          3D

 19 22  0  0  1  0  0  0  0  0999 V2000
   -0.1002    1.7635   -0.1107 N   0  0  0  0  0  0  0  0  0  0  0  0
   -0.4329   -0.7125   -0.2914 C   0  0  0  0  0  0  0  0  0  0  0  0
    0.3994    0.4444    0.3355 C   0  0  0  0  0  0  0  0  0  0  0  0
    0.1168   -2.0384    0.2604 C   0  0  0  0  0  0  0  0  0  0  0  0
   -1.9245   -0.4912   -0.0750 C   0  0  0  0  0  0  0  0  0  0  0  0
    1.9051    0.2477    0.1929 C   0  0  0  0  0  0  0  0  0  0  0  0
    1.5578   -2.2454   -0.2087 C   0  0  0  0  0  0  0  0  0  0  0  0
   -1.4626    1.9713    0.4075 C   0  0  0  0  0  0  0  0  0  0  0  0
    2.4395   -1.0364   -0.0299 C   0  0  0  0  0  0  0  0  0  0  0  0
   -2.4062    0.8035    0.2163 C   0  0  0  0  0  0  0  0  0  0  0  0
   -0.0304    1.9932   -1.5546 C   0  0  0  0  0  0  0  0  0  0  0  0
   -2.8546   -1.5271   -0.2560 C   0  0  0  0  0  0  0  0  0  0  0  0
    2.7915    1.3227    0.3880 C   0  0  0  0  0  0  0  0  0  0  0  0
    3.8309   -1.2037   -0.1261 C   0  0  0  0  0  0  0  0  0  0  0  0
   -3.7835    1.0176    0.3837 C   0  0  0  0  0  0  0  0  0  0  0  0
    4.1723    1.1412    0.3013 C   0  0  0  0  0  0  0  0  0  0  0  0
   -4.2232   -1.2996   -0.0981 C   0  0  0  0  0  0  0  0  0  0  0  0
    4.6917   -0.1207    0.0367 C   0  0  0  0  0  0  0  0  0  0  0  0
   -4.6871   -0.0302    0.2280 C   0  0  0  0  0  0  0  0  0  0  0  0
  1  3  1  0
  1  8  1  0
  1 11  1  0
  2  3  1  0
  2  4  1  0
  2  5  1  0
  3  6  1  0
  4  7  1  0
  5 10  2  0
  5 12  1  0
  6  9  2  0
  6 13  1  0
  7  9  1  0
  8 10  1  0
  9 14  1  0
 10 15  1  0
 12 17  2  0
 13 16  2  0
 14 18  2  0
 15 19  2  0
 16 18  1  0
 17 19  1  0
M  END
>  <PUBCHEM_COMPOUND_CID>  (1) 
32348

>  <PUBCHEM_CONFORMER_RMSD>  (1) 
0.6

>  <PUBCHEM_CONFORMER_DIVERSEORDER>  (1) 
1
2
3

>  <PUBCHEM_MMFF94_PARTIAL_CHARGES>  (1) 
26
1 -0.81
10 -0.14
11 0.27
12 -0.15
13 -0.15
14 -0.15
15 -0.15
16 -0.15
17 -0.15
18 -0.15
19 -0.15
2 0.14
3 0.41
31 0.15
32 0.15
33 0.15
34 0.15
35 0.15
36 0.15
37 0.15
38 0.15
5 -0.14
6 -0.14
7 0.14
8 0.41
9 -0.14

>  <PUBCHEM_EFFECTIVE_ROTOR_COUNT>  (1) 
0.8

>  <PUBCHEM_PHARMACOPHORE_FEATURES>  (1) 
5
1 1 cation
6 1 2 3 5 8 10 rings
6 2 3 4 6 7 9 rings
6 5 10 12 15 17 19 rings
6 6 9 13 14 16 18 rings

>  <PUBCHEM_HEAVY_ATOM_COUNT>  (1) 
19

>  <PUBCHEM_ATOM_DEF_STEREO_COUNT>  (1) 
2

>  <PUBCHEM_ATOM_UDEF_STEREO_COUNT>  (1) 
0

>  <PUBCHEM_BOND_DEF_STEREO_COUNT>  (1) 
0

>  <PUBCHEM_BOND_UDEF_STEREO_COUNT>  (1) 
0

>  <PUBCHEM_ISOTOPIC_ATOM_COUNT>  (1) 
0

>  <PUBCHEM_COMPONENT_COUNT>  (1) 
1

>  <PUBCHEM_CACTVS_TAUTO_COUNT>  (1) 
1

>  <PUBCHEM_CONFORMER_ID>  (1) 
00007E5C00000001

>  <PUBCHEM_MMFF94_ENERGY>  (1) 
61.6347

>  <PUBCHEM_FEATURE_SELFOVERLAP>  (1) 
25.432

>  <PUBCHEM_SHAPE_FINGERPRINT>  (1) 
10062212 137 18339640139743111887
10616163 171 18342177760782097895
10967382 1 18411699885221980026
11132069 177 18410568487677831920
11471102 20 18412822482362223542
11578080 2 17098330896412314798
11806522 49 18339921623225335119
12011746 2 18410855460149261102
12107183 9 17694227664246414899
12403259 226 18263919935281866060
12403814 3 18113897135343379405
12839892 36 18266159670337901154
13132413 78 18341895203668710141
13140716 1 18121500425320476555
13224815 77 18409444769614369034
13862211 1 18410287038418554155
14223421 5 18267021652597888430
14787075 74 18200590427084230809
14790565 3 18265904729521555596
15196674 1 18412262835022381586
15536298 74 18344148085550227818
15848702 151 17988650636009847606
16945 1 18196651787407262865
17357779 13 18115849902369879333
17804303 29 18343586252341122529
1813 80 17603872195193759093
18186145 218 18408600344916436686
18769570 83 16009297709423448005
19141452 34 18342739633052006463
19591789 44 18340205198399141318
200 152 18131345324140471095
20510252 161 18272933791018783865
21267235 1 18412272743881490843
21304253 335 18264779766212736045
21421861 104 17824820031753137122
21501502 16 18266458698549998890
21673915 165 18412825793560345744
23402539 116 18410285934791157838
23463225 33 18409449184756236301
23559900 14 18343581811692877250
2748010 2 18409727335433612742
2871803 45 18408880715801696087
335352 9 18268430135535434071
34934 24 18337947901295952715
350125 39 18411135823552595504
4214541 1 18341895160492157881
474 4 18114466755217299020
4990 188 17917721188447033086
5104073 3 18413107238509436946
537710 114 18336833077561328860
69090 78 18273212014810720078
7364860 26 18199752436416288174
77779 3 18342459235542218962
9709674 26 18413114943707528558
9981440 41 17111565048098852513

>  <PUBCHEM_SHAPE_MULTIPOLES>  (1) 
386.03
8.51
2.3
0.8
0.07
0.1
-0.19
0.66
0.83
-0.06
-0.23
0.02
-0.28
-0.02

>  <PUBCHEM_SHAPE_SELFOVERLAP>  (1) 
851.202

>  <PUBCHEM_SHAPE_VOLUME>  (1) 
205.1

>  <PUBCHEM_COORDINATE_TYPE>  (1) 
2
5
10

$$$$
