3235
     RDKit          3D

 21 22  0  0  0  0  0  0  0  0999 V2000
    0.6350   -0.9768    0.6960 S   0  0  0  0  0  0  0  0  0  0  0  0
    2.9905   -2.8274    0.9720 S   0  0  0  0  0  0  0  0  0  0  0  0
    2.6962    2.1929    0.1807 O   0  0  0  0  0  0  0  0  0  0  0  0
    4.1446   -0.4154   -1.8245 O   0  0  0  0  0  0  0  0  0  0  0  0
    6.2890   -0.2598   -1.0997 O   0  0  0  0  0  0  0  0  0  0  0  0
    3.0548   -0.1031    0.5363 N   0  0  0  0  0  0  0  0  0  0  0  0
    0.8527    0.7032    0.4283 C   0  0  0  0  0  0  0  0  0  0  0  0
    2.2914    1.0521    0.3615 C   0  0  0  0  0  0  0  0  0  0  0  0
    4.5144   -0.0611    0.5146 C   0  0  0  0  0  0  0  0  0  0  0  0
   -1.5681    1.3458    0.3477 C   0  0  0  0  0  0  0  0  0  0  0  0
   -0.1262    1.5996    0.2958 C   0  0  0  0  0  0  0  0  0  0  0  0
    2.3675   -1.2953    0.7321 C   0  0  0  0  0  0  0  0  0  0  0  0
   -2.0513    0.2334   -0.2440 C   0  0  0  0  0  0  0  0  0  0  0  0
   -3.4610   -0.1680   -0.2994 C   0  0  0  0  0  0  0  0  0  0  0  0
   -2.4266    2.3479    1.0783 C   0  0  0  0  0  0  0  0  0  0  0  0
    5.0865   -0.2530   -0.8664 C   0  0  0  0  0  0  0  0  0  0  0  0
   -3.9882   -0.9594    0.7129 C   0  0  0  0  0  0  0  0  0  0  0  0
   -4.2508    0.2482   -1.3631 C   0  0  0  0  0  0  0  0  0  0  0  0
   -5.3287   -1.3415    0.6603 C   0  0  0  0  0  0  0  0  0  0  0  0
   -5.5914   -0.1338   -1.4156 C   0  0  0  0  0  0  0  0  0  0  0  0
   -6.1303   -0.9286   -0.4038 C   0  0  0  0  0  0  0  0  0  0  0  0
  1  7  1  0
  1 12  1  0
  2 12  2  0
  3  8  2  0
  4 16  1  0
  5 16  2  0
  6  8  1  0
  6  9  1  0
  6 12  1  0
  7  8  1  0
  7 11  2  0
  9 16  1  0
 10 11  1  0
 10 13  2  0
 10 15  1  0
 13 14  1  0
 14 17  2  0
 14 18  1  0
 17 19  1  0
 18 20  2  0
 19 21  2  0
 20 21  1  0
M  END
>  <PUBCHEM_COMPOUND_CID>  (1) 
3235

>  <PUBCHEM_CONFORMER_RMSD>  (1) 
0.6

>  <PUBCHEM_CONFORMER_DIVERSEORDER>  (1) 
4
7
6
3
5
8
1
2

>  <PUBCHEM_MMFF94_PARTIAL_CHARGES>  (1) 
29
1 -0.24
10 -0.14
11 -0.15
12 0.58
13 -0.18
14 0.03
15 0.14
16 0.66
17 -0.15
18 -0.15
19 -0.15
2 -0.38
20 -0.15
21 -0.15
24 0.15
25 0.15
29 0.15
3 -0.57
30 0.15
31 0.15
32 0.15
33 0.15
34 0.5
4 -0.65
5 -0.57
6 -0.42
7 0.12
8 0.62
9 0.36

>  <PUBCHEM_EFFECTIVE_ROTOR_COUNT>  (1) 
4.4

>  <PUBCHEM_PHARMACOPHORE_FEATURES>  (1) 
8
1 15 hydrophobe
1 2 acceptor
1 3 acceptor
1 4 acceptor
1 5 acceptor
3 4 5 16 anion
5 1 6 7 8 12 rings
6 14 17 18 19 20 21 rings

>  <PUBCHEM_HEAVY_ATOM_COUNT>  (1) 
21

>  <PUBCHEM_ATOM_DEF_STEREO_COUNT>  (1) 
0

>  <PUBCHEM_ATOM_UDEF_STEREO_COUNT>  (1) 
0

>  <PUBCHEM_BOND_DEF_STEREO_COUNT>  (1) 
0

>  <PUBCHEM_BOND_UDEF_STEREO_COUNT>  (1) 
2

>  <PUBCHEM_ISOTOPIC_ATOM_COUNT>  (1) 
0

>  <PUBCHEM_COMPONENT_COUNT>  (1) 
1

>  <PUBCHEM_CACTVS_TAUTO_COUNT>  (1) 
1

>  <PUBCHEM_CONFORMER_ID>  (1) 
00000CA300000004

>  <PUBCHEM_MMFF94_ENERGY>  (1) 
53.7601

>  <PUBCHEM_FEATURE_SELFOVERLAP>  (1) 
40.656

>  <PUBCHEM_SHAPE_FINGERPRINT>  (1) 
10366900 7 18334298668883541600
11545043 162 16487256517381054120
12553582 1 18130211718893637295
12596602 18 15410890790776226603
12670546 177 17167864175045599407
12778500 126 14835860442765334071
12788726 201 18200873981194196315
13464513 79 18202565086007216318
13668630 136 17988920111454555967
13968360 50 17821445743218090098
14251764 18 11383821676005061770
14576447 43 18410571765091170216
14617045 38 18261114088834797435
15142383 8 13901916565891921770
15183329 4 18336255766123532029
15188451 53 14836109006140580413
15475509 35 15267340695889959294
15527383 91 12535343498167873906
15537594 2 18413385449612162959
15880784 105 16916780833877762459
17844677 252 17132119034889437568
1813 80 17775014500251844989
18222031 100 17774991402165036125
193927 3 18201446882238857773
19784866 140 18342740710571625099
200 152 18341323449185202465
20645477 70 18343578577155430413
20871999 31 18040714736599665781
21033650 10 15503494808051209213
21054139 6 18335141986303136202
21267235 1 18342181085365963611
21475661 188 13624392259499025446
21637258 2 16917065530090481622
2215653 11 18334842928015035775
23198884 109 15357693081218950841
23559900 14 18262231243913866881
23569914 152 17121687727779871005
239999 70 18343582975629053380
25147074 1 18264770943668980000
2767999 5 11314024686479632623
2838139 119 14707211036869383550
2871803 45 18409444795320979873
2916195 48 12684810017999636967
29717793 49 17989203759304903349
3004659 81 18334288795091402625
312423 11 18266178331479951274
314173 85 17988921176337244273
34797466 226 16515407365680660775
351380 3 18131628993655702591
465052 167 18131635616162950863
5104073 3 18199457784020497696
5207 217 18113623413004021558
542803 24 15285352921076903685
59755656 215 18334574646402729426

>  <PUBCHEM_SHAPE_MULTIPOLES>  (1) 
417.28
14.26
2.15
1.27
3.38
0.23
-0.41
4.67
-5.43
-0.7
0.95
-0.11
0.02
-0.33

>  <PUBCHEM_SHAPE_SELFOVERLAP>  (1) 
860.748

>  <PUBCHEM_SHAPE_VOLUME>  (1) 
240.8

>  <PUBCHEM_COORDINATE_TYPE>  (1) 
2
5
10

$$$$
