32354
     RDKit          3D

 33 37  0  0  1  0  0  0  0  0999 V2000
    6.8747    2.8851   -0.0161 Cl  0  0  0  0  0  0  0  0  0  0  0  0
   -8.3161   -1.3776   -0.8102 Cl  0  0  0  0  0  0  0  0  0  0  0  0
   -1.0759    2.6170   -0.6145 N   0  0  0  0  0  0  0  0  0  0  0  0
    2.1723   -0.7502    0.1005 N   0  0  0  0  0  0  0  0  0  0  0  0
   -3.1836    1.0892    0.8116 N   0  0  0  0  0  0  0  0  0  0  0  0
   -0.1074   -2.4755    0.1639 N   0  0  0  0  0  0  0  0  0  0  0  0
   -0.8290    1.6714    0.4830 C   0  0  0  0  0  0  0  0  0  0  0  0
    0.8827   -0.2055    0.2478 C   0  0  0  0  0  0  0  0  0  0  0  0
   -1.9133    0.6267    0.5871 C   0  0  0  0  0  0  0  0  0  0  0  0
    0.5533    1.0978    0.3402 C   0  0  0  0  0  0  0  0  0  0  0  0
   -0.2509   -1.1904    0.2864 C   0  0  0  0  0  0  0  0  0  0  0  0
   -0.1008    3.6925   -0.5872 C   0  0  0  0  0  0  0  0  0  0  0  0
   -1.6312   -0.6799    0.4896 C   0  0  0  0  0  0  0  0  0  0  0  0
    2.3239   -2.1722   -0.0361 C   0  0  0  0  0  0  0  0  0  0  0  0
    1.1824   -2.9961   -0.0093 C   0  0  0  0  0  0  0  0  0  0  0  0
    3.3045    0.1251    0.0722 C   0  0  0  0  0  0  0  0  0  0  0  0
   -0.1711    4.4367    0.7433 C   0  0  0  0  0  0  0  0  0  0  0  0
   -0.3541    4.6374   -1.7576 C   0  0  0  0  0  0  0  0  0  0  0  0
    3.5835   -2.7856   -0.1879 C   0  0  0  0  0  0  0  0  0  0  0  0
    1.3136   -4.3862   -0.1446 C   0  0  0  0  0  0  0  0  0  0  0  0
   -4.3939    0.5077    0.4294 C   0  0  0  0  0  0  0  0  0  0  0  0
    3.7488    0.6569   -1.1400 C   0  0  0  0  0  0  0  0  0  0  0  0
    3.9682    0.4500    1.2570 C   0  0  0  0  0  0  0  0  0  0  0  0
    3.7019   -4.1707   -0.3214 C   0  0  0  0  0  0  0  0  0  0  0  0
    2.5669   -4.9711   -0.3019 C   0  0  0  0  0  0  0  0  0  0  0  0
   -5.5499    0.6980    1.1996 C   0  0  0  0  0  0  0  0  0  0  0  0
   -4.4719   -0.2757   -0.7308 C   0  0  0  0  0  0  0  0  0  0  0  0
    4.8521    1.5099   -1.1674 C   0  0  0  0  0  0  0  0  0  0  0  0
    5.0715    1.3030    1.2296 C   0  0  0  0  0  0  0  0  0  0  0  0
    5.5135    1.8328    0.0174 C   0  0  0  0  0  0  0  0  0  0  0  0
   -6.7590    0.1169    0.8176 C   0  0  0  0  0  0  0  0  0  0  0  0
   -5.6810   -0.8568   -1.1129 C   0  0  0  0  0  0  0  0  0  0  0  0
   -6.8245   -0.6606   -0.3386 C   0  0  0  0  0  0  0  0  0  0  0  0
  1 30  1  0
  2 33  1  0
  3  7  1  0
  3 12  1  0
  4  8  1  0
  4 14  1  0
  4 16  1  0
  5  9  1  0
  5 21  1  0
  6 11  2  0
  6 15  1  0
  7  9  1  0
  7 10  1  0
  8 10  2  0
  8 11  1  0
  9 13  2  0
 11 13  1  0
 12 17  1  0
 12 18  1  0
 14 15  2  0
 14 19  1  0
 15 20  1  0
 16 22  2  0
 16 23  1  0
 19 24  2  0
 20 25  2  0
 21 26  2  0
 21 27  1  0
 22 28  1  0
 23 29  2  0
 24 25  1  0
 26 31  1  0
 27 32  2  0
 28 30  2  0
 29 30  1  0
 31 33  2  0
 32 33  1  0
M  END
>  <PUBCHEM_COMPOUND_CID>  (1) 
32354

>  <PUBCHEM_CONFORMER_RMSD>  (1) 
0.8

>  <PUBCHEM_CONFORMER_DIVERSEORDER>  (1) 
1
5
3
4
2

>  <PUBCHEM_MMFF94_PARTIAL_CHARGES>  (1) 
47
1 -0.18
10 -0.29
11 0.42
12 0.27
13 -0.14
14 0.1
15 0.18
16 0.1
19 -0.15
2 -0.18
20 -0.15
21 0.1
22 -0.15
23 -0.15
24 -0.15
25 -0.15
26 -0.15
27 -0.15
28 -0.15
29 -0.15
3 -0.9
30 0.18
31 -0.15
32 -0.15
33 0.18
35 0.15
36 0.36
38 0.15
39 0.4
4 -0.3
46 0.15
47 0.15
48 0.15
49 0.15
5 -0.6
50 0.15
51 0.15
52 0.15
53 0.15
54 0.15
55 0.15
56 0.15
57 0.15
6 -0.63
7 0.55
8 0.11
9 -0.04

>  <PUBCHEM_EFFECTIVE_ROTOR_COUNT>  (1) 
5.4

>  <PUBCHEM_PHARMACOPHORE_FEATURES>  (1) 
12
1 3 cation
1 3 donor
1 4 cation
1 5 cation
1 5 donor
1 6 acceptor
3 12 17 18 hydrophobe
6 14 15 19 20 24 25 rings
6 16 22 23 28 29 30 rings
6 21 26 27 31 32 33 rings
6 4 6 8 11 14 15 rings
6 7 8 9 10 11 13 rings

>  <PUBCHEM_HEAVY_ATOM_COUNT>  (1) 
33

>  <PUBCHEM_ATOM_DEF_STEREO_COUNT>  (1) 
0

>  <PUBCHEM_ATOM_UDEF_STEREO_COUNT>  (1) 
1

>  <PUBCHEM_BOND_DEF_STEREO_COUNT>  (1) 
0

>  <PUBCHEM_BOND_UDEF_STEREO_COUNT>  (1) 
0

>  <PUBCHEM_ISOTOPIC_ATOM_COUNT>  (1) 
0

>  <PUBCHEM_COMPONENT_COUNT>  (1) 
1

>  <PUBCHEM_CACTVS_TAUTO_COUNT>  (1) 
9

>  <PUBCHEM_CONFORMER_ID>  (1) 
00007E6200000001

>  <PUBCHEM_MMFF94_ENERGY>  (1) 
115.7875

>  <PUBCHEM_FEATURE_SELFOVERLAP>  (1) 
60.953

>  <PUBCHEM_SHAPE_FINGERPRINT>  (1) 
10050765 1 18195809566043767401
10165383 225 18342740754371046832
102385 1 17977100163275817440
10595046 47 18272089371127229139
10906281 52 18261407670928371441
11135609 187 18411135870327925937
11135926 11 18411693296937561031
11445158 3 17679590205543557677
13150687 139 18337404824688856598
13165053 371 18343582945897696721
1361 2 18411139177246931056
13617811 41 18261685830728595092
13690498 29 17835540222858454103
13835254 42 18341335483494434857
13911987 19 18190197839068492316
140371 6 18188789313233943153
14117953 113 18335708295069138028
14790565 3 18266746968149576152
15081414 286 18408609145478505845
15361156 5 17828790359703413219
15890870 6 18338237184745364356
16728300 4 17680395929188192808
17492 89 18122623855848373250
18365409 1 17985263234158951007
18393751 57 18197758090069931416
19315092 285 17987799601024762194
19319366 153 18342171180971588454
20028762 73 18200030771655315509
20554085 129 18059563746571616250
21703447 108 18190456056807649634
22149856 69 18338814342513177547
22311459 1 18410855507979814441
23522609 53 17773900652666300769
23559900 14 17977096856303629568
23569917 315 18412547621905317370
24771293 8 18341615957516918761
24771750 20 17608949903770018821
3178227 256 18264782119986124537
350125 39 18194690263601882064
4073 2 18408890650989960771
45377200 153 15697147604513896423
57527306 92 17385997434212198892
6004065 56 18337952411048699505
70251023 43 18193562155560227451

>  <PUBCHEM_SHAPE_MULTIPOLES>  (1) 
662.94
16.26
6.08
1.13
24.23
2.19
-0.12
-1.21
-0.99
-7.73
-1.54
0.22
-0.73
-0.42

>  <PUBCHEM_SHAPE_SELFOVERLAP>  (1) 
1436.585

>  <PUBCHEM_SHAPE_VOLUME>  (1) 
361.8

>  <PUBCHEM_COORDINATE_TYPE>  (1) 
2
5
10

$$$$
