32379
     RDKit          3D

 11 11  0  0  1  0  0  0  0  0999 V2000
    1.4915    1.4798    1.1687 O   0  0  0  0  0  0  0  0  0  0  0  0
    2.4545   -1.6471   -0.3357 N   0  0  0  0  0  0  0  0  0  0  0  0
    2.5055    0.5573   -1.1700 N   0  0  0  0  0  0  0  0  0  0  0  0
    1.1448    0.1481    0.7948 C   0  0  0  0  0  0  0  0  0  0  0  0
   -0.2820    0.0529    0.3706 C   0  0  0  0  0  0  0  0  0  0  0  0
   -0.8951    1.1342   -0.2622 C   0  0  0  0  0  0  0  0  0  0  0  0
   -1.0033   -1.1172    0.6072 C   0  0  0  0  0  0  0  0  0  0  0  0
    2.1024   -0.3224   -0.3038 C   0  0  0  0  0  0  0  0  0  0  0  0
   -2.2296    1.0454   -0.6584 C   0  0  0  0  0  0  0  0  0  0  0  0
   -2.3377   -1.2062    0.2109 C   0  0  0  0  0  0  0  0  0  0  0  0
   -2.9509   -0.1248   -0.4220 C   0  0  0  0  0  0  0  0  0  0  0  0
  1  4  1  0
  2  8  1  0
  3  8  2  0
  4  5  1  0
  4  8  1  0
  5  6  2  0
  5  7  1  0
  6  9  1  0
  7 10  2  0
  9 11  2  0
 10 11  1  0
M  END
>  <PUBCHEM_COMPOUND_CID>  (1) 
32379

>  <PUBCHEM_CONFORMER_RMSD>  (1) 
0.4

>  <PUBCHEM_CONFORMER_DIVERSEORDER>  (1) 
1
8
6
4
2
7
5
3

>  <PUBCHEM_MMFF94_PARTIAL_CHARGES>  (1) 
20
1 -0.68
10 -0.15
11 -0.15
13 0.15
14 0.15
15 0.15
16 0.15
17 0.15
18 0.4
19 0.4
2 -0.85
20 0.4
21 0.4
3 -0.85
4 0.48
5 -0.14
6 -0.15
7 -0.15
8 0.44
9 -0.15

>  <PUBCHEM_EFFECTIVE_ROTOR_COUNT>  (1) 
2

>  <PUBCHEM_PHARMACOPHORE_FEATURES>  (1) 
6
1 1 acceptor
1 1 donor
1 2 donor
1 3 donor
3 2 3 8 cation
6 5 6 7 9 10 11 rings

>  <PUBCHEM_HEAVY_ATOM_COUNT>  (1) 
11

>  <PUBCHEM_ATOM_DEF_STEREO_COUNT>  (1) 
0

>  <PUBCHEM_ATOM_UDEF_STEREO_COUNT>  (1) 
1

>  <PUBCHEM_BOND_DEF_STEREO_COUNT>  (1) 
0

>  <PUBCHEM_BOND_UDEF_STEREO_COUNT>  (1) 
0

>  <PUBCHEM_ISOTOPIC_ATOM_COUNT>  (1) 
0

>  <PUBCHEM_COMPONENT_COUNT>  (1) 
1

>  <PUBCHEM_CACTVS_TAUTO_COUNT>  (1) 
1

>  <PUBCHEM_CONFORMER_ID>  (1) 
00007E7B00000001

>  <PUBCHEM_MMFF94_ENERGY>  (1) 
27.172

>  <PUBCHEM_FEATURE_SELFOVERLAP>  (1) 
30.491

>  <PUBCHEM_SHAPE_FINGERPRINT>  (1) 
12326174 3 17274820294240811552
12524768 44 18265042716625772417
12716758 59 18334851689120487419
12897270 3 18261403294377522862
12932764 1 18202003265340166839
15310529 11 18410859871144114038
15775835 57 15791729719593498262
16945 1 18336260262363180801
20201158 50 18343299249662484574
20361792 2 16988568957256482028
20645464 45 18268693056475102073
20653085 51 17604440587055321381
21040471 1 18042669642466845209
22802520 49 18409732846045419467
23552423 10 18040431062304235659
23559900 14 18196643000885857602
2748010 2 18263071262354732763
29004967 10 17489584562919554330
369184 2 11167939134906685191
5084963 1 18188204304127483541

>  <PUBCHEM_SHAPE_MULTIPOLES>  (1) 
210.54
4.25
1.48
0.98
0.08
0.14
-0.07
0.47
1.1
-0.01
-0.03
0.42
-0.19
0.45

>  <PUBCHEM_SHAPE_SELFOVERLAP>  (1) 
434.815

>  <PUBCHEM_SHAPE_VOLUME>  (1) 
120.3

>  <PUBCHEM_COORDINATE_TYPE>  (1) 
2
5
10

$$$$
