32375
     RDKit          3D

 25 27  0  0  1  0  0  0  0  0999 V2000
    1.5211    0.2591    1.8769 O   0  0  0  0  0  0  0  0  0  0  0  0
   -3.1728   -1.7666    1.6505 O   0  0  0  0  0  0  0  0  0  0  0  0
    2.7928   -1.4149   -0.8777 N   0  0  0  0  0  0  0  0  0  0  0  0
    2.9544   -0.4356    0.1129 N   0  0  0  0  0  0  0  0  0  0  0  0
   -7.2184    2.2328   -1.1621 N   0  0  0  0  0  0  0  0  0  0  0  0
    0.8466   -1.3945    0.2952 C   0  0  0  0  0  0  0  0  0  0  0  0
    1.4984   -1.9181   -0.7558 C   0  0  0  0  0  0  0  0  0  0  0  0
   -0.5082   -1.6224    0.8474 C   0  0  0  0  0  0  0  0  0  0  0  0
    1.8057   -0.4283    0.9088 C   0  0  0  0  0  0  0  0  0  0  0  0
   -1.5519   -0.6820    0.2335 C   0  0  0  0  0  0  0  0  0  0  0  0
    3.9586    0.5634    0.0668 C   0  0  0  0  0  0  0  0  0  0  0  0
    0.9910   -2.9544   -1.7020 C   0  0  0  0  0  0  0  0  0  0  0  0
    3.9160   -2.3003   -1.1700 C   0  0  0  0  0  0  0  0  0  0  0  0
   -2.9480   -0.9174    0.7912 C   0  0  0  0  0  0  0  0  0  0  0  0
    4.2399    1.3322    1.2005 C   0  0  0  0  0  0  0  0  0  0  0  0
    4.6750    0.7885   -1.1128 C   0  0  0  0  0  0  0  0  0  0  0  0
   -4.0760   -0.0868    0.2749 C   0  0  0  0  0  0  0  0  0  0  0  0
    5.2278    2.3158    1.1551 C   0  0  0  0  0  0  0  0  0  0  0  0
    5.6629    1.7721   -1.1581 C   0  0  0  0  0  0  0  0  0  0  0  0
   -3.8095    0.8608   -0.6865 C   0  0  0  0  0  0  0  0  0  0  0  0
   -5.3376   -0.3001    0.7809 C   0  0  0  0  0  0  0  0  0  0  0  0
    5.9393    2.5358   -0.0242 C   0  0  0  0  0  0  0  0  0  0  0  0
   -4.8628    1.6379   -1.1686 C   0  0  0  0  0  0  0  0  0  0  0  0
   -6.3910    0.4769    0.2989 C   0  0  0  0  0  0  0  0  0  0  0  0
   -6.1535    1.4461   -0.6757 C   0  0  0  0  0  0  0  0  0  0  0  0
  1  9  2  0
  2 14  2  0
  3  4  1  0
  3  7  1  0
  3 13  1  0
  4  9  1  0
  4 11  1  0
  5 25  1  0
  6  7  2  0
  6  8  1  0
  6  9  1  0
  7 12  1  0
  8 10  1  0
 10 14  1  0
 11 15  2  0
 11 16  1  0
 14 17  1  0
 15 18  1  0
 16 19  2  0
 17 20  2  0
 17 21  1  0
 18 22  2  0
 19 22  1  0
 20 23  1  0
 21 24  2  0
 23 25  2  0
 24 25  1  0
M  END
>  <PUBCHEM_COMPOUND_CID>  (1) 
32375

>  <PUBCHEM_CONFORMER_RMSD>  (1) 
0.8

>  <PUBCHEM_CONFORMER_DIVERSEORDER>  (1) 
1
56
32
3
65
72
8
79
42
26
95
51
99
33
89
44
83
53
87
2
94
100
5
21
82
61
54
60
4
18
80
9
57
93
37
50
11
81
41
46
35
92
88
17
10
62
63
39
86
6
59
14
76
71
20
66
78
16
101
29
91
34
47
24
74
43
36
45
48
7
64
70
22
96
75
98
67
27
97
25
84
23
49
12
52
40
77
13
90
85
69
73
55
28
30
58
15
19
68
38
31

>  <PUBCHEM_MMFF94_PARTIAL_CHARGES>  (1) 
36
1 -0.57
10 0.06
11 0.12
12 0.14
13 0.37
14 0.42
15 -0.15
16 -0.15
17 0.09
18 -0.15
19 -0.15
2 -0.57
20 -0.15
21 -0.15
22 -0.15
23 -0.15
24 -0.15
25 0.1
3 -0.49
36 0.15
37 0.15
38 0.15
39 0.15
4 -0.16
40 0.15
41 0.15
42 0.15
43 0.15
44 0.15
45 0.4
46 0.4
5 -0.9
6 -0.12
7 -0.04
8 0.14
9 0.62

>  <PUBCHEM_EFFECTIVE_ROTOR_COUNT>  (1) 
5

>  <PUBCHEM_PHARMACOPHORE_FEATURES>  (1) 
7
1 1 acceptor
1 2 acceptor
1 5 cation
1 5 donor
5 3 4 6 7 9 rings
6 11 15 16 18 19 22 rings
6 17 20 21 23 24 25 rings

>  <PUBCHEM_HEAVY_ATOM_COUNT>  (1) 
25

>  <PUBCHEM_ATOM_DEF_STEREO_COUNT>  (1) 
0

>  <PUBCHEM_ATOM_UDEF_STEREO_COUNT>  (1) 
0

>  <PUBCHEM_BOND_DEF_STEREO_COUNT>  (1) 
0

>  <PUBCHEM_BOND_UDEF_STEREO_COUNT>  (1) 
0

>  <PUBCHEM_ISOTOPIC_ATOM_COUNT>  (1) 
0

>  <PUBCHEM_COMPONENT_COUNT>  (1) 
1

>  <PUBCHEM_CACTVS_TAUTO_COUNT>  (1) 
7

>  <PUBCHEM_CONFORMER_ID>  (1) 
00007E7700000001

>  <PUBCHEM_MMFF94_ENERGY>  (1) 
92.0209

>  <PUBCHEM_FEATURE_SELFOVERLAP>  (1) 
35.522

>  <PUBCHEM_SHAPE_FINGERPRINT>  (1) 
10 15 17531251686058098033
105312 117 18269835470642155846
10693767 8 16414930647433971398
10763959 59 18335146436005481604
11720765 8 17833265320452963483
12403259 118 17970065750074161044
12403259 415 18335151885649145003
12596602 18 15936407879272133569
12633257 1 12685101388290860491
12661589 4 12319154244765164469
12730499 353 18272096006229540362
12769317 202 18201997759350355872
12838862 33 17917712423394610844
12969540 114 17917434280336692690
13257819 101 18410291449623806342
13402501 40 18334855030552926237
13685833 64 9151178649068088780
13878862 14 18340754967224019180
14123256 34 8646499530717131480
14251751 18 11023832764251176768
14341114 328 16877941689412071052
14528608 73 17917992793172100855
14739800 52 17967521372440215481
14840074 17 17489869337022563925
15081414 286 18340216236132834817
15183329 4 15554452906917214533
15238133 3 16588030099508939614
15961568 22 18259987076130661317
17980427 23 17749952283810938215
18222031 100 14333408934692098243
19377110 9 15574720222448337155
20028762 73 12324242797199923305
20612939 158 18060145310327981922
20715895 44 18201437047560614712
21033648 29 18114187444714454915
23559900 14 17896893062394461367
2748736 6 18187356636787693917
2838139 119 18337100263461420444
2916195 48 18260267447743199467
3004659 81 14189568642166986681
3472631 163 18040152924775239005
34797466 226 18342741776520190751
44249763 50 18270389624370380633
46194498 28 18129382596720972175
5104073 3 17313103004471632345
5718773 13 9799395729957347769
59682541 52 17632295623138768495
6327066 14 18270396230526428204
653340 110 17387403541753223357
7808743 9 18187081801698099411
960060 61 16559032683702573146
9980921 177 17896023370044594848

>  <PUBCHEM_SHAPE_MULTIPOLES>  (1) 
487.81
17.77
2.92
1.51
15.52
0.48
0.05
-16.08
-3.4
-2.64
-0.98
-0.27
0.14
2.79

>  <PUBCHEM_SHAPE_SELFOVERLAP>  (1) 
1050.609

>  <PUBCHEM_SHAPE_VOLUME>  (1) 
269.3

>  <PUBCHEM_COORDINATE_TYPE>  (1) 
2
5
10

$$$$
