32382
     RDKit          3D

 13 14  0  0  1  0  0  0  0  0999 V2000
    1.4702   -1.2578    0.9440 O   0  0  0  0  0  0  0  0  0  0  0  0
    1.4772    1.4303    1.2415 O   0  0  0  0  0  0  0  0  0  0  0  0
    2.7201    1.7586   -0.6668 N   0  0  0  0  0  0  0  0  0  0  0  0
    0.6909   -1.1803   -0.2495 C   0  0  0  0  0  0  0  0  0  0  0  0
    1.9808   -0.4378   -0.1150 C   0  0  0  0  0  0  0  0  0  0  0  0
   -0.6168   -0.4724   -0.1528 C   0  0  0  0  0  0  0  0  0  0  0  0
    0.6761   -2.4460   -1.0208 C   0  0  0  0  0  0  0  0  0  0  0  0
    2.0278    0.9873    0.2365 C   0  0  0  0  0  0  0  0  0  0  0  0
   -0.9265    0.5467   -1.0536 C   0  0  0  0  0  0  0  0  0  0  0  0
   -1.5308   -0.8279    0.8391 C   0  0  0  0  0  0  0  0  0  0  0  0
   -2.1503    1.2099   -0.9623 C   0  0  0  0  0  0  0  0  0  0  0  0
   -2.7545   -0.1648    0.9303 C   0  0  0  0  0  0  0  0  0  0  0  0
   -3.0643    0.8541    0.0294 C   0  0  0  0  0  0  0  0  0  0  0  0
  1  4  1  0
  1  5  1  0
  2  8  2  0
  3  8  1  0
  4  5  1  0
  4  6  1  0
  4  7  1  0
  5  8  1  0
  6  9  2  0
  6 10  1  0
  9 11  1  0
 10 12  2  0
 11 13  2  0
 12 13  1  0
M  END
>  <PUBCHEM_COMPOUND_CID>  (1) 
32382

>  <PUBCHEM_CONFORMER_RMSD>  (1) 
0.6

>  <PUBCHEM_CONFORMER_DIVERSEORDER>  (1) 
6
3
9
12
7
8
4
5
13
11
15
1
2
10
16
14

>  <PUBCHEM_MMFF94_PARTIAL_CHARGES>  (1) 
21
1 -0.3
10 -0.15
11 -0.15
12 -0.15
13 -0.15
14 0.1
18 0.15
19 0.15
2 -0.57
20 0.15
21 0.15
22 0.37
23 0.37
24 0.15
3 -0.8
4 0.09
5 0.05
6 -0.03
7 0.09
8 0.63
9 -0.15

>  <PUBCHEM_EFFECTIVE_ROTOR_COUNT>  (1) 
2.6

>  <PUBCHEM_PHARMACOPHORE_FEATURES>  (1) 
4
1 1 acceptor
1 2 acceptor
1 3 donor
6 6 9 10 11 12 13 rings

>  <PUBCHEM_HEAVY_ATOM_COUNT>  (1) 
13

>  <PUBCHEM_ATOM_DEF_STEREO_COUNT>  (1) 
0

>  <PUBCHEM_ATOM_UDEF_STEREO_COUNT>  (1) 
2

>  <PUBCHEM_BOND_DEF_STEREO_COUNT>  (1) 
0

>  <PUBCHEM_BOND_UDEF_STEREO_COUNT>  (1) 
0

>  <PUBCHEM_ISOTOPIC_ATOM_COUNT>  (1) 
0

>  <PUBCHEM_COMPONENT_COUNT>  (1) 
1

>  <PUBCHEM_CACTVS_TAUTO_COUNT>  (1) 
2

>  <PUBCHEM_CONFORMER_ID>  (1) 
00007E7E00000006

>  <PUBCHEM_MMFF94_ENERGY>  (1) 
26.6481

>  <PUBCHEM_FEATURE_SELFOVERLAP>  (1) 
20.304

>  <PUBCHEM_SHAPE_FINGERPRINT>  (1) 
1 1 18342737403668574350
107287 299 18410865355869968431
10857977 72 17458636613854791337
11031198 65 18272938202060764909
12326174 3 18268424625266934010
12423570 1 14641911831321997815
12524768 44 18262241010764014727
12696612 119 18113058233335086188
14648413 74 18263646156216695357
15219456 202 18261396619797891047
15775835 57 18341333404428835932
16945 1 18263641762459948215
17990270 104 18194119620787183079
19973954 147 18265333902476241885
20201158 50 18265612074586061675
20379382 53 18126873519844840939
20511035 2 18263340560909248706
21028194 46 18412542149699055720
21501502 16 18408599262611058251
21524375 3 18339358694651720322
21947302 44 18262789658334025729
23211744 41 18261112967505214379
23419403 2 17039583075739560490
2748010 2 18409449210594625076
369184 2 17894627020436794475
430814 3 18270406112749862436
5084963 1 18335420213778000130
549884 4 17489587904388715272
81228 2 17478038827735119746

>  <PUBCHEM_SHAPE_MULTIPOLES>  (1) 
250.81
4.1
1.98
1.16
1.38
0.44
0.02
-1.68
0.32
-1.21
-0.39
0.15
0
0.47

>  <PUBCHEM_SHAPE_SELFOVERLAP>  (1) 
532.747

>  <PUBCHEM_SHAPE_VOLUME>  (1) 
140.8

>  <PUBCHEM_COORDINATE_TYPE>  (1) 
2
5
10

$$$$
