32380
     RDKit          3D

 29 32  0  0  1  0  0  0  0  0999 V2000
   -7.5839    1.7268    1.8975 F   0  0  0  0  0  0  0  0  0  0  0  0
    3.6791    1.6407   -2.2234 O   0  0  0  0  0  0  0  0  0  0  0  0
   -2.3149    0.7192   -1.3562 O   0  0  0  0  0  0  0  0  0  0  0  0
    0.3010   -2.6890   -0.6776 N   0  0  0  0  0  0  0  0  0  0  0  0
    3.3821   -0.6086    1.8504 N   0  0  0  0  0  0  0  0  0  0  0  0
    2.4021   -0.3314   -0.1310 C   0  0  0  0  0  0  0  0  0  0  0  0
    2.3161   -0.9936    1.0801 C   0  0  0  0  0  0  0  0  0  0  0  0
    1.4338   -0.4589   -1.2601 C   0  0  0  0  0  0  0  0  0  0  0  0
    1.2996   -1.9639    1.5723 C   0  0  0  0  0  0  0  0  0  0  0  0
    1.1031   -1.9124   -1.6283 C   0  0  0  0  0  0  0  0  0  0  0  0
    1.0004   -3.0713    0.5533 C   0  0  0  0  0  0  0  0  0  0  0  0
    3.5752    0.4893   -0.0794 C   0  0  0  0  0  0  0  0  0  0  0  0
    4.1654    0.2927    1.1701 C   0  0  0  0  0  0  0  0  0  0  0  0
   -1.0300   -2.1422   -0.4496 C   0  0  0  0  0  0  0  0  0  0  0  0
   -1.8088   -2.0798   -1.7650 C   0  0  0  0  0  0  0  0  0  0  0  0
    4.1930    1.3848   -0.9786 C   0  0  0  0  0  0  0  0  0  0  0  0
    3.6605   -1.0680    3.1978 C   0  0  0  0  0  0  0  0  0  0  0  0
    5.3400    0.9427    1.5661 C   0  0  0  0  0  0  0  0  0  0  0  0
   -3.2171   -1.5080   -1.5798 C   0  0  0  0  0  0  0  0  0  0  0  0
    5.3684    2.0424   -0.5974 C   0  0  0  0  0  0  0  0  0  0  0  0
    5.9316    1.8231    0.6569 C   0  0  0  0  0  0  0  0  0  0  0  0
   -3.2246   -0.0647   -1.0962 C   0  0  0  0  0  0  0  0  0  0  0  0
   -4.3888    0.4148   -0.2980 C   0  0  0  0  0  0  0  0  0  0  0  0
    2.7529    2.7156   -2.3245 C   0  0  0  0  0  0  0  0  0  0  0  0
   -5.6238   -0.1502   -0.5254 C   0  0  0  0  0  0  0  0  0  0  0  0
   -4.1860    1.4037    0.6385 C   0  0  0  0  0  0  0  0  0  0  0  0
   -6.7128    0.2972    0.2224 C   0  0  0  0  0  0  0  0  0  0  0  0
   -5.2751    1.8512    1.3865 C   0  0  0  0  0  0  0  0  0  0  0  0
   -6.5385    1.2980    1.1784 C   0  0  0  0  0  0  0  0  0  0  0  0
  1 29  1  0
  2 16  1  0
  2 24  1  0
  3 22  2  0
  4 10  1  0
  4 11  1  0
  4 14  1  0
  5  7  1  0
  5 13  1  0
  5 17  1  0
  6  7  2  0
  6  8  1  0
  6 12  1  0
  7  9  1  0
  8 10  1  0
  9 11  1  0
 12 13  2  0
 12 16  1  0
 13 18  1  0
 14 15  1  0
 15 19  1  0
 16 20  2  0
 18 21  2  0
 19 22  1  0
 20 21  1  0
 22 23  1  0
 23 25  2  0
 23 26  1  0
 25 27  1  0
 26 28  2  0
 27 29  2  0
 28 29  1  0
M  END
>  <PUBCHEM_COMPOUND_CID>  (1) 
32380

>  <PUBCHEM_CONFORMER_RMSD>  (1) 
0.8

>  <PUBCHEM_CONFORMER_DIVERSEORDER>  (1) 
1
456
393
403
217
351
7
338
332
236
105
104
144
242
368
472
131
255
189
353
228
177
391
53
256
470
183
373
184
273
287
231
400
17
172
367
293
195
210
319
279
42
182
408
457
260
282
222
467
395
432
415
371
233
166
390
334
453
188
110
284
416
34
448
193
152
374
174
382
129
44
330
51
327
447
392
355
251
132
411
362
298
176
424
344
349
73
413
325
12
452
428
126
252
37
148
376
459
464
418
61
78
417
317
97
407
267
383
75
237
276
103
122
175
101
117
186
163
439
441
81
235
116
309
438
120
265
107
64
370
299
320
76
264
360
209
281
328
94
364
473
134
196
2
106
58
143
70
223
471
348
62
468
314
278
83
389
372
455
60
313
234
406
214
321
169
65
340
250
266
165
402
63
379
412
257
95
39
52
261
15
315
347
248
125
263
272
146
366
161
310
398
137
422
397
270
331
124
463
297
100
85
194
208
4
90
268
399
377
405
474
71
409
74
361
162
45
300
343
156
114
305
288
77
160
308
238
430
206
401
249
21
427
80
154
24
191
469
50
458
25
57
26
434
322
304
10
111
245
6
224
445
243
28
285
98
292
151
221
294
149
410
38
119
363
450
303
259
446
358
11
155
31
454
461
246
202
88
203
318
72
33
109
207
283
336
286
68
141
41
92
46
173
67
35
18
280
345
352
40
442
99
316
414
112
451
341
440
115
421
167
289
346
102
59
226
307
170
178
387
199
118
56
465
69
205
254
84
423
79
425
201
462
47
404
342
357
354
311
164
36
30
20
216
244
443
179
29
139
108
460
429
19
8
312
239
247
133
359
187
306
181
219
324
32
198
253
13
185
113
16
444
140
192
365
14
326
136
204
54
138
388
356
386
262
290
419
385
378
394
145
218
158
93
123
240
96
180
396
291
87
130
227
436
157
89
350
232
335
200
171
128
466
426
323
142
55
275
384
135
269
48
27
437
295
3
49
168
381
197
420
215
274
380
339
333
121
369
337
82
449
190
225
86
329
150
271
301
213
9
302
159
435
147
230
127
220
91
66
258
212
375
153
431
229
211
296
277
5
43
23
433
22
241

>  <PUBCHEM_MMFF94_PARTIAL_CHARGES>  (1) 
34
1 -0.19
10 0.27
11 0.27
13 -0.15
14 0.27
16 0.08
17 0.26
18 -0.15
19 0.06
2 -0.36
20 -0.15
21 -0.15
22 0.42
23 0.09
24 0.28
25 -0.15
26 -0.15
27 -0.15
28 -0.15
29 0.19
3 -0.57
4 -0.81
45 0.15
48 0.15
49 0.15
5 0.05
53 0.15
54 0.15
55 0.15
56 0.15
6 -0.18
7 -0.33
8 0.18
9 0.18

>  <PUBCHEM_EFFECTIVE_ROTOR_COUNT>  (1) 
7

>  <PUBCHEM_PHARMACOPHORE_FEATURES>  (1) 
8
1 2 acceptor
1 3 acceptor
1 4 cation
1 5 cation
5 5 6 7 12 13 rings
6 12 13 16 18 20 21 rings
6 23 25 26 27 28 29 rings
7 4 6 7 8 9 10 11 rings

>  <PUBCHEM_HEAVY_ATOM_COUNT>  (1) 
29

>  <PUBCHEM_ATOM_DEF_STEREO_COUNT>  (1) 
0

>  <PUBCHEM_ATOM_UDEF_STEREO_COUNT>  (1) 
0

>  <PUBCHEM_BOND_DEF_STEREO_COUNT>  (1) 
0

>  <PUBCHEM_BOND_UDEF_STEREO_COUNT>  (1) 
0

>  <PUBCHEM_ISOTOPIC_ATOM_COUNT>  (1) 
0

>  <PUBCHEM_COMPONENT_COUNT>  (1) 
1

>  <PUBCHEM_CACTVS_TAUTO_COUNT>  (1) 
2

>  <PUBCHEM_CONFORMER_ID>  (1) 
00007E7C00000001

>  <PUBCHEM_MMFF94_ENERGY>  (1) 
77.0709

>  <PUBCHEM_FEATURE_SELFOVERLAP>  (1) 
40.719

>  <PUBCHEM_SHAPE_FINGERPRINT>  (1) 
10674148 151 18409733989688486020
10721379 63 17345770568395743198
11720765 8 15266508297005145958
1200032 147 18272943699555866810
12373685 5 17749390387184819883
12633257 1 17240485831602523691
13583140 156 16733244803455116391
13627167 48 16127829452660011601
13627175 23 17968096490346969548
13782708 43 14779534660975897280
13885169 86 18338518658925483413
14341114 328 18408877447663964735
14347329 18 17917424367293828002
14537116 161 14764063386571694289
14705955 166 15575257814883630253
14747281 78 15912506618899227783
14765038 42 18188773989080898668
14840074 17 18335420179656048077
14849402 71 18268432321790845306
14950920 106 17313659344185638969
15001296 14 18338518667626454109
15163728 17 18273495693132449902
15183329 4 13542471960097108467
15188451 53 13190337976792280955
15297060 5 18131354128723123392
15475509 8 18333734611941693046
16114785 44 12836315152797010406
18222031 100 8070028878139310446
19377110 9 18334857238756602807
21033648 29 16916490584346169514
21223535 225 14692308221896629155
21315763 87 16226054379635380489
21458453 9 15865213453290821089
21585480 29 16443922694452109667
21623969 137 16950279611359387249
22393880 68 15482377750773701695
312425 54 15213567933119489805
3178227 256 16950560000600941548
3459 110 16515964881883202795
3459 39 18130493167921462549
3680242 22 18260264144291019148
3729539 64 12751245779273598821
38570 142 18335995220042439558
3918712 181 17989200430937845409
392239 28 17313382370197465059
397830 11 13045934751045692870
5104073 3 17243276487262379248
57307002 182 17894632591020115589
59682541 52 13614244754653418921
7808743 9 18060412534756087991
86090 222 14996560625468718656
960060 61 11023816284730732963
9689198 14 16056615253066356851
9849439 229 18202561770276834343

>  <PUBCHEM_SHAPE_MULTIPOLES>  (1) 
567.83
16.8
2.99
2.43
21.75
0.88
0.53
-14
7.32
-0.97
-0.59
-1.57
-0.1
-3.86

>  <PUBCHEM_SHAPE_SELFOVERLAP>  (1) 
1227.021

>  <PUBCHEM_SHAPE_VOLUME>  (1) 
313.5

>  <PUBCHEM_COORDINATE_TYPE>  (1) 
2
5
10

$$$$
