32381
     RDKit          3D

  8  7  0  0  1  0  0  0  0  0999 V2000
    0.1768    2.3032   -0.3705 Br  0  0  0  0  0  0  0  0  0  0  0  0
    2.7734   -1.4666    0.3283 Br  0  0  0  0  0  0  0  0  0  0  0  0
   -0.1539   -0.4548   -0.2385 O   0  0  0  0  0  0  0  0  0  0  0  0
   -1.9701    0.5691    0.7615 O   0  0  0  0  0  0  0  0  0  0  0  0
    0.7557    0.5409    0.2599 C   0  0  0  0  0  0  0  0  0  0  0  0
    2.1400    0.2720   -0.2985 C   0  0  0  0  0  0  0  0  0  0  0  0
   -1.4713   -0.3195    0.0845 C   0  0  0  0  0  0  0  0  0  0  0  0
   -2.2507   -1.4441   -0.5267 C   0  0  0  0  0  0  0  0  0  0  0  0
  1  5  1  0
  2  6  1  0
  3  5  1  0
  3  7  1  0
  4  7  2  0
  5  6  1  0
  7  8  1  0
M  END
>  <PUBCHEM_COMPOUND_CID>  (1) 
32381

>  <PUBCHEM_CONFORMER_RMSD>  (1) 
0.6

>  <PUBCHEM_CONFORMER_DIVERSEORDER>  (1) 
1
7
6
5
12
8
11
9
10
2
4
14
3
13

>  <PUBCHEM_MMFF94_PARTIAL_CHARGES>  (1) 
8
1 -0.23
2 -0.23
3 -0.43
4 -0.57
5 0.51
6 0.23
7 0.66
8 0.06

>  <PUBCHEM_EFFECTIVE_ROTOR_COUNT>  (1) 
3

>  <PUBCHEM_PHARMACOPHORE_FEATURES>  (1) 
3
1 1 hydrophobe
1 2 hydrophobe
1 4 acceptor

>  <PUBCHEM_HEAVY_ATOM_COUNT>  (1) 
8

>  <PUBCHEM_ATOM_DEF_STEREO_COUNT>  (1) 
0

>  <PUBCHEM_ATOM_UDEF_STEREO_COUNT>  (1) 
1

>  <PUBCHEM_BOND_DEF_STEREO_COUNT>  (1) 
0

>  <PUBCHEM_BOND_UDEF_STEREO_COUNT>  (1) 
0

>  <PUBCHEM_ISOTOPIC_ATOM_COUNT>  (1) 
0

>  <PUBCHEM_COMPONENT_COUNT>  (1) 
1

>  <PUBCHEM_CACTVS_TAUTO_COUNT>  (1) 
1

>  <PUBCHEM_CONFORMER_ID>  (1) 
00007E7D00000001

>  <PUBCHEM_MMFF94_ENERGY>  (1) 
10.4613

>  <PUBCHEM_FEATURE_SELFOVERLAP>  (1) 
15.223

>  <PUBCHEM_SHAPE_FINGERPRINT>  (1) 
18185500 45 18339365261445621804
20653091 64 18268715093899446160
22082395 3 18261960647872610290
23211744 41 13110976309277312255
23552423 10 18123470746094631167
29004967 10 18187088390172669552

>  <PUBCHEM_SHAPE_MULTIPOLES>  (1) 
164.78
3.74
2.19
0.78
1.23
1.09
0.02
-2.43
0.15
-0.07
-0.31
-0.1
0.01
-0.41

>  <PUBCHEM_SHAPE_SELFOVERLAP>  (1) 
277.522

>  <PUBCHEM_SHAPE_VOLUME>  (1) 
114.6

>  <PUBCHEM_COORDINATE_TYPE>  (1) 
2
5
10

$$$$
