32400
     RDKit          3D

 16 18  0  0  0  0  0  0  0  0999 V2000
    4.0598    1.3779    0.3092 N   0  0  0  0  0  0  0  0  0  0  0  0
    2.2221   -0.7794    0.0300 C   0  0  0  0  0  0  0  0  0  0  0  0
    3.7062   -1.0400    0.0756 C   0  0  0  0  0  0  0  0  0  0  0  0
    1.7368    0.5396   -0.0162 C   0  0  0  0  0  0  0  0  0  0  0  0
    2.6921    1.7039   -0.1113 C   0  0  0  0  0  0  0  0  0  0  0  0
    4.5298    0.1703   -0.3686 C   0  0  0  0  0  0  0  0  0  0  0  0
    0.3541    0.7662   -0.0362 C   0  0  0  0  0  0  0  0  0  0  0  0
    1.3193   -1.8485    0.0927 C   0  0  0  0  0  0  0  0  0  0  0  0
   -0.5368   -0.3056    0.0164 C   0  0  0  0  0  0  0  0  0  0  0  0
   -0.0549   -1.6111    0.0832 C   0  0  0  0  0  0  0  0  0  0  0  0
   -1.9629   -0.0619    0.0015 C   0  0  0  0  0  0  0  0  0  0  0  0
   -2.6487   -0.0071   -1.2119 C   0  0  0  0  0  0  0  0  0  0  0  0
   -2.6522    0.1164    1.2009 C   0  0  0  0  0  0  0  0  0  0  0  0
   -4.0240    0.2258   -1.2258 C   0  0  0  0  0  0  0  0  0  0  0  0
   -4.0275    0.3494    1.1869 C   0  0  0  0  0  0  0  0  0  0  0  0
   -4.7133    0.4041   -0.0264 C   0  0  0  0  0  0  0  0  0  0  0  0
  1  5  1  0
  1  6  1  0
  2  3  1  0
  2  4  2  0
  2  8  1  0
  3  6  1  0
  4  5  1  0
  4  7  1  0
  7  9  2  0
  8 10  2  0
  9 10  1  0
  9 11  1  0
 11 12  2  0
 11 13  1  0
 12 14  1  0
 13 15  2  0
 14 16  2  0
 15 16  1  0
M  END
>  <PUBCHEM_COMPOUND_CID>  (1) 
32400

>  <PUBCHEM_CONFORMER_RMSD>  (1) 
0.6

>  <PUBCHEM_CONFORMER_DIVERSEORDER>  (1) 
1
2

>  <PUBCHEM_MMFF94_PARTIAL_CHARGES>  (1) 
23
1 -0.9
10 -0.15
12 -0.15
13 -0.15
14 -0.15
15 -0.15
16 -0.15
2 -0.14
23 0.36
24 0.15
25 0.15
26 0.15
27 0.15
28 0.15
29 0.15
3 0.14
30 0.15
31 0.15
4 -0.14
5 0.41
6 0.27
7 -0.15
8 -0.15

>  <PUBCHEM_EFFECTIVE_ROTOR_COUNT>  (1) 
1.8

>  <PUBCHEM_PHARMACOPHORE_FEATURES>  (1) 
5
1 1 cation
1 1 donor
6 1 2 3 4 5 6 rings
6 11 12 13 14 15 16 rings
6 2 4 7 8 9 10 rings

>  <PUBCHEM_HEAVY_ATOM_COUNT>  (1) 
16

>  <PUBCHEM_ATOM_DEF_STEREO_COUNT>  (1) 
0

>  <PUBCHEM_ATOM_UDEF_STEREO_COUNT>  (1) 
0

>  <PUBCHEM_BOND_DEF_STEREO_COUNT>  (1) 
0

>  <PUBCHEM_BOND_UDEF_STEREO_COUNT>  (1) 
0

>  <PUBCHEM_ISOTOPIC_ATOM_COUNT>  (1) 
0

>  <PUBCHEM_COMPONENT_COUNT>  (1) 
1

>  <PUBCHEM_CACTVS_TAUTO_COUNT>  (1) 
1

>  <PUBCHEM_CONFORMER_ID>  (1) 
00007E9000000001

>  <PUBCHEM_MMFF94_ENERGY>  (1) 
44.6202

>  <PUBCHEM_FEATURE_SELFOVERLAP>  (1) 
25.393

>  <PUBCHEM_SHAPE_FINGERPRINT>  (1) 
11471102 20 18410011022719335862
11543360 7 16056879186504865808
11615757 297 18342175557547874851
11796584 16 14764358102299523724
12119455 92 18259980487465595243
12236239 1 17846779590237303457
12500047 106 16732701649280145435
12644460 14 18260546684820669586
13140716 1 18337388361504503258
13581323 91 14996002142492157147
13583140 156 16154249732763157020
13675066 3 17676490561705091650
13760787 5 18412262809537453430
14897335 6 18341327889870136958
14911166 2 18411142429059257742
15219456 202 17967250880000510343
15309172 13 18408887338852314995
15375358 24 17821726122333834011
15653759 3 16950284009521682977
15848702 151 17773885211763213422
16945 1 18410291376672918802
17834072 33 18202279225800402719
1813 80 17698735700944962222
18175812 5 17749111101480698935
18186145 218 18412829096685582636
19026448 4 16950282879850468562
19026448 5 17346880035350924286
19422 9 17775283850588217383
19862831 5 17704070698586274889
200 152 18272082799716314319
20279233 1 17603869992334361299
204376 136 18335423503659788122
20645477 70 18336821992219362230
21033648 29 17968082131923574189
22854114 111 18408887330024763204
22854114 59 18259988179962895497
231179 274 18113330912418948686
23402539 116 16988842761184354912
23402655 69 18271804605493458645
23557571 272 16660926565374592471
23559900 14 16443624580482163890
25 1 18409729569106847766
2748010 2 18265904746864428806
4047638 21 18410857672600789186
474 4 18341330093067183568
4990 188 17775574138885090958
5104073 3 18410572928795576354
542803 24 17775569728022301401
602551 16 16081381789981085336
633830 44 18201450163514523468
69090 78 18341890818227519550
77492 1 17775000163935340659
8272917 22 18270685242859318839
9971528 1 18060419093466262092
9981440 41 16694109014420464232

>  <PUBCHEM_SHAPE_MULTIPOLES>  (1) 
324.29
9.28
1.46
1
1.53
0.2
-0.02
-2.16
-0.21
-1.52
0.05
1.17
-0.06
-0.02

>  <PUBCHEM_SHAPE_SELFOVERLAP>  (1) 
709.889

>  <PUBCHEM_SHAPE_VOLUME>  (1) 
172.2

>  <PUBCHEM_COORDINATE_TYPE>  (1) 
2
5
10

$$$$
