32408
     RDKit          3D

 17 19  0  0  1  0  0  0  0  0999 V2000
    3.1512    1.3015   -0.3270 N   0  0  0  0  0  0  0  0  0  0  0  0
    0.7190    1.3561    0.0076 C   0  0  0  0  0  0  0  0  0  0  0  0
    0.7260   -0.1503    0.0299 C   0  0  0  0  0  0  0  0  0  0  0  0
    2.0671    1.9632    0.4093 C   0  0  0  0  0  0  0  0  0  0  0  0
    1.9435   -0.8525    0.0211 C   0  0  0  0  0  0  0  0  0  0  0  0
    3.2585   -0.1096    0.0838 C   0  0  0  0  0  0  0  0  0  0  0  0
   -0.4827   -0.8579   -0.0011 C   0  0  0  0  0  0  0  0  0  0  0  0
    1.9322   -2.2539    0.0190 C   0  0  0  0  0  0  0  0  0  0  0  0
    4.4221    1.9926   -0.1124 C   0  0  0  0  0  0  0  0  0  0  0  0
   -0.4824   -2.2523   -0.0146 C   0  0  0  0  0  0  0  0  0  0  0  0
   -1.7667   -0.1814   -0.0099 C   0  0  0  0  0  0  0  0  0  0  0  0
    0.7237   -2.9496   -0.0024 C   0  0  0  0  0  0  0  0  0  0  0  0
   -2.3945    0.1300    1.1934 C   0  0  0  0  0  0  0  0  0  0  0  0
   -2.3638    0.1548   -1.2222 C   0  0  0  0  0  0  0  0  0  0  0  0
   -3.6275    0.7820    1.1844 C   0  0  0  0  0  0  0  0  0  0  0  0
   -3.5969    0.8069   -1.2311 C   0  0  0  0  0  0  0  0  0  0  0  0
   -4.2288    1.1204   -0.0278 C   0  0  0  0  0  0  0  0  0  0  0  0
  1  4  1  0
  1  6  1  0
  1  9  1  0
  2  3  1  0
  2  4  1  0
  3  5  2  0
  3  7  1  0
  5  6  1  0
  5  8  1  0
  7 10  2  0
  7 11  1  0
  8 12  2  0
 10 12  1  0
 11 13  2  0
 11 14  1  0
 13 15  1  0
 14 16  2  0
 15 17  2  0
 16 17  1  0
M  END
>  <PUBCHEM_COMPOUND_CID>  (1) 
32408

>  <PUBCHEM_CONFORMER_RMSD>  (1) 
0.6

>  <PUBCHEM_CONFORMER_DIVERSEORDER>  (1) 
1

>  <PUBCHEM_MMFF94_PARTIAL_CHARGES>  (1) 
23
1 -0.81
10 -0.15
12 -0.15
13 -0.15
14 -0.15
15 -0.15
16 -0.15
17 -0.15
2 0.14
24 0.15
28 0.15
29 0.15
3 -0.14
30 0.15
31 0.15
32 0.15
33 0.15
34 0.15
4 0.27
5 -0.14
6 0.41
8 -0.15
9 0.27

>  <PUBCHEM_EFFECTIVE_ROTOR_COUNT>  (1) 
1.8

>  <PUBCHEM_PHARMACOPHORE_FEATURES>  (1) 
4
1 1 cation
6 1 2 3 4 5 6 rings
6 11 13 14 15 16 17 rings
6 3 5 7 8 10 12 rings

>  <PUBCHEM_HEAVY_ATOM_COUNT>  (1) 
17

>  <PUBCHEM_ATOM_DEF_STEREO_COUNT>  (1) 
0

>  <PUBCHEM_ATOM_UDEF_STEREO_COUNT>  (1) 
0

>  <PUBCHEM_BOND_DEF_STEREO_COUNT>  (1) 
0

>  <PUBCHEM_BOND_UDEF_STEREO_COUNT>  (1) 
0

>  <PUBCHEM_ISOTOPIC_ATOM_COUNT>  (1) 
0

>  <PUBCHEM_COMPONENT_COUNT>  (1) 
1

>  <PUBCHEM_CACTVS_TAUTO_COUNT>  (1) 
1

>  <PUBCHEM_CONFORMER_ID>  (1) 
00007E9800000001

>  <PUBCHEM_MMFF94_ENERGY>  (1) 
53.1037

>  <PUBCHEM_FEATURE_SELFOVERLAP>  (1) 
20.319

>  <PUBCHEM_SHAPE_FINGERPRINT>  (1) 
10411042 1 17618222801890577514
10608611 8 18115868503925959205
10967382 1 18410855417199594352
10980938 120 18411416172424779411
11471102 20 18338515240067569148
11543360 7 15626223571702203824
11640471 11 17559969727110755729
11725454 13 16880439711205821727
12236239 1 17703785869604024961
12390115 104 18194982952559263660
12654215 9 18262513676578113390
12730499 353 18335422348946315387
13009979 54 17344065161299369891
13134695 92 17902785267407593902
13140716 1 18409165524163950994
13583140 156 16588567820930277320
14123255 52 18411138077798632624
15219456 202 18113903719554416363
15309172 13 18408605889523984905
15342168 16 18408612473993946357
15775835 57 18343019999621167245
16945 1 18338797793139463642
1741750 31 18268709583762341000
1813 80 17411911569778638566
18186145 218 18341900679456301654
18219364 16 18336553793059961913
19049666 15 17606960586365406397
19784866 34 18413388760957705264
204376 136 18409168848104160096
20510252 161 17765712816479505698
20645477 70 18265325128000429255
21499 59 18411979178312995935
21524375 3 18336543936073366898
21639500 275 18339632361361945711
2255824 54 18270117881600314815
22854114 111 18410294670785948477
231179 274 18114177536420081796
23175994 123 17903078828564648135
2334 1 18266457805228579554
23558518 356 17685491349064348136
23559900 14 16588872239495871211
23598291 2 17916860210697040277
238 59 17830129642228314637
25 1 18411418414582285276
2748010 2 18338247071253411158
283562 15 17833543875194531530
3091708 16 9189875960866161762
350125 39 18049449436984532113
474 4 18413106139150568289
633830 44 18201732720854836101
7364860 26 18340770317168427454
77492 1 17631726059341990219
81228 2 17472411531244615282
81539 233 18261112963188868554
8272917 22 18269559338773202557
84936 182 18130498673869063464
9981440 41 16265420417382543960

>  <PUBCHEM_SHAPE_MULTIPOLES>  (1) 
344.87
7.17
2.63
0.98
1.34
1.47
-0.01
-5.08
-0.21
-2.36
0.03
1
-0.18
-0.03

>  <PUBCHEM_SHAPE_SELFOVERLAP>  (1) 
751.876

>  <PUBCHEM_SHAPE_VOLUME>  (1) 
185

>  <PUBCHEM_COORDINATE_TYPE>  (1) 
2
5
10

$$$$
