32424
     RDKit          3D

 22 23  0  0  0  0  0  0  0  0999 V2000
   -4.3293    0.7645    1.8271 Cl  0  0  0  0  0  0  0  0  0  0  0  0
   -3.9630    2.8856   -0.0896 Cl  0  0  0  0  0  0  0  0  0  0  0  0
   -4.8709    0.3065   -1.0123 Cl  0  0  0  0  0  0  0  0  0  0  0  0
   -1.5540   -3.5507   -1.0429 Cl  0  0  0  0  0  0  0  0  0  0  0  0
    1.1284   -3.0443   -0.1181 Cl  0  0  0  0  0  0  0  0  0  0  0  0
   -1.0269   -3.0969    1.7999 Cl  0  0  0  0  0  0  0  0  0  0  0  0
    3.0148   -0.1244   -2.4630 Cl  0  0  0  0  0  0  0  0  0  0  0  0
    1.1238    2.1046   -0.9330 S   0  0  0  0  0  0  0  0  0  0  0  0
   -2.1618   -0.7195    0.1345 N   0  0  0  0  0  0  0  0  0  0  0  0
    0.1496   -0.3148   -0.3666 N   0  0  0  0  0  0  0  0  0  0  0  0
   -1.4124    1.5067   -0.3559 N   0  0  0  0  0  0  0  0  0  0  0  0
   -2.3492    0.5991   -0.0364 C   0  0  0  0  0  0  0  0  0  0  0  0
   -0.8882   -1.1043   -0.0463 C   0  0  0  0  0  0  0  0  0  0  0  0
   -0.1902    0.9751   -0.5040 C   0  0  0  0  0  0  0  0  0  0  0  0
    2.5291    1.2999   -0.1667 C   0  0  0  0  0  0  0  0  0  0  0  0
   -3.7383    1.1072    0.1503 C   0  0  0  0  0  0  0  0  0  0  0  0
   -0.5954   -2.5559    0.1276 C   0  0  0  0  0  0  0  0  0  0  0  0
    3.3174    0.3593   -0.8298 C   0  0  0  0  0  0  0  0  0  0  0  0
    2.8223    1.6508    1.1511 C   0  0  0  0  0  0  0  0  0  0  0  0
    4.3988   -0.2302   -0.1749 C   0  0  0  0  0  0  0  0  0  0  0  0
    3.9036    1.0612    1.8059 C   0  0  0  0  0  0  0  0  0  0  0  0
    4.6918    0.1206    1.1430 C   0  0  0  0  0  0  0  0  0  0  0  0
  1 16  1  0
  2 16  1  0
  3 16  1  0
  4 17  1  0
  5 17  1  0
  6 17  1  0
  7 18  1  0
  8 14  1  0
  8 15  1  0
  9 12  2  0
  9 13  1  0
 10 13  2  0
 10 14  1  0
 11 12  1  0
 11 14  2  0
 12 16  1  0
 13 17  1  0
 15 18  2  0
 15 19  1  0
 18 20  1  0
 19 21  2  0
 20 22  2  0
 21 22  1  0
M  END
>  <PUBCHEM_COMPOUND_CID>  (1) 
32424

>  <PUBCHEM_CONFORMER_RMSD>  (1) 
0.6

>  <PUBCHEM_CONFORMER_DIVERSEORDER>  (1) 
1
55
9
17
32
12
39
33
7
53
58
49
52
35
34
42
27
30
10
40
44
36
19
23
56
43
41
8
45
38
57
24
59
46
48
2
13
37
6
31
47
28
3
4
54
51
25
16
29
14
50
15
18
21
11
5
20
26
22

>  <PUBCHEM_MMFF94_PARTIAL_CHARGES>  (1) 
26
1 -0.29
10 -0.62
11 -0.62
12 0.48
13 0.48
14 0.72
15 0.1
16 1.01
17 1.01
18 0.18
19 -0.15
2 -0.29
20 -0.15
21 -0.15
22 -0.15
23 0.15
24 0.15
25 0.15
26 0.15
3 -0.29
4 -0.29
5 -0.29
6 -0.29
7 -0.18
8 -0.2
9 -0.62

>  <PUBCHEM_EFFECTIVE_ROTOR_COUNT>  (1) 
4

>  <PUBCHEM_PHARMACOPHORE_FEATURES>  (1) 
5
3 10 11 14 cation
3 9 10 13 cation
3 9 11 12 cation
6 15 18 19 20 21 22 rings
6 9 10 11 12 13 14 rings

>  <PUBCHEM_HEAVY_ATOM_COUNT>  (1) 
22

>  <PUBCHEM_ATOM_DEF_STEREO_COUNT>  (1) 
0

>  <PUBCHEM_ATOM_UDEF_STEREO_COUNT>  (1) 
0

>  <PUBCHEM_BOND_DEF_STEREO_COUNT>  (1) 
0

>  <PUBCHEM_BOND_UDEF_STEREO_COUNT>  (1) 
0

>  <PUBCHEM_ISOTOPIC_ATOM_COUNT>  (1) 
0

>  <PUBCHEM_COMPONENT_COUNT>  (1) 
1

>  <PUBCHEM_CACTVS_TAUTO_COUNT>  (1) 
1

>  <PUBCHEM_CONFORMER_ID>  (1) 
00007EA800000001

>  <PUBCHEM_MMFF94_ENERGY>  (1) 
44.0304

>  <PUBCHEM_FEATURE_SELFOVERLAP>  (1) 
28.152

>  <PUBCHEM_SHAPE_FINGERPRINT>  (1) 
10366900 7 17632582677747988432
121448 382 18201145642508148013
12160290 23 18194135229099373815
12346177 29 18267577077763410470
12592029 89 18261966167200900649
12633257 1 18268688633223419792
12788726 201 17904766931010691463
13140716 1 18192158298133082713
13544592 145 18201447939333316004
13583140 156 16557899181930476324
13692114 37 18341624754432756995
13726171 33 17829649297819370292
14178342 30 18338791342436110734
14466204 15 18266452118407751457
15042514 8 18264770046712164483
15420108 30 18196076760612512229
16752209 62 18192153913177565598
17349148 13 18260546766572481165
17913733 40 18199484194723966401
18186145 218 18130798819290083941
20028762 73 18270120244570864703
20197701 30 18339911658943231029
20600515 1 18411698811802617652
20681677 155 18260834821702995476
20832881 197 17699586744323952468
21033648 29 18342443825216288673
212916 134 18341879780129920592
21478907 32 17979069711066745839
21524375 3 18408039589722997511
22956985 138 17534340033695284163
23184049 29 17975692002644688462
23419403 2 16957013914010769335
23557571 272 17986677171704584822
23558518 356 18047748483879950247
23559900 14 18272381901397408172
23728640 28 18336824311459387347
2748010 2 18045499712134383581
352729 6 18264500653256508733
465052 167 17386019381141134185
532947 4 18198061374167909999
5385378 56 18122629341023010793
58807428 26 18409732846135233515
59755656 215 18410008794027182341
633830 44 18060422378647323373
7164475 11 17979069706354527663
7364860 26 18051694335075851599
79837 15 18409453596321003379
81228 2 17975408328491812859
9709674 26 18130789026890879636
9862522 239 18334285449332958693
9981440 41 16337471384122481921

>  <PUBCHEM_SHAPE_MULTIPOLES>  (1) 
454.74
9.12
3.68
1.72
0.43
3.53
0.09
-5.27
1.56
2.25
0.13
-0.89
0.18
0.36

>  <PUBCHEM_SHAPE_SELFOVERLAP>  (1) 
879.441

>  <PUBCHEM_SHAPE_VOLUME>  (1) 
277.9

>  <PUBCHEM_COORDINATE_TYPE>  (1) 
2
5
10

$$$$
