32429
     RDKit          3D

 24 25  0  0  0  0  0  0  0  0999 V2000
   -5.0821   -0.0589    1.6610 Cl  0  0  0  0  0  0  0  0  0  0  0  0
   -4.7248    2.5365    0.4597 Cl  0  0  0  0  0  0  0  0  0  0  0  0
   -5.2077    0.2593   -1.2456 Cl  0  0  0  0  0  0  0  0  0  0  0  0
   -1.4920   -3.1709   -1.8012 Cl  0  0  0  0  0  0  0  0  0  0  0  0
    0.9774   -2.7427   -0.3781 Cl  0  0  0  0  0  0  0  0  0  0  0  0
   -1.3807   -3.4952    1.1053 Cl  0  0  0  0  0  0  0  0  0  0  0  0
    1.9104    1.7577   -2.6784 Cl  0  0  0  0  0  0  0  0  0  0  0  0
    4.4578   -0.3008    2.6420 Cl  0  0  0  0  0  0  0  0  0  0  0  0
    5.8234   -0.9185   -0.2243 Cl  0  0  0  0  0  0  0  0  0  0  0  0
    0.4834    2.4121    0.2220 S   0  0  0  0  0  0  0  0  0  0  0  0
   -2.5638   -0.8389   -0.0166 N   0  0  0  0  0  0  0  0  0  0  0  0
   -0.2696   -0.1357   -0.0338 N   0  0  0  0  0  0  0  0  0  0  0  0
   -2.0195    1.4855    0.2257 N   0  0  0  0  0  0  0  0  0  0  0  0
   -2.8784    0.4565    0.1447 C   0  0  0  0  0  0  0  0  0  0  0  0
   -1.2418   -1.0598   -0.0979 C   0  0  0  0  0  0  0  0  0  0  0  0
   -0.7354    1.1112    0.1286 C   0  0  0  0  0  0  0  0  0  0  0  0
    1.9992    1.4715    0.0513 C   0  0  0  0  0  0  0  0  0  0  0  0
   -4.3292    0.7847    0.2468 C   0  0  0  0  0  0  0  0  0  0  0  0
   -0.8084   -2.4751   -0.2759 C   0  0  0  0  0  0  0  0  0  0  0  0
    2.5878    1.2050   -1.1849 C   0  0  0  0  0  0  0  0  0  0  0  0
    2.5915    0.9988    1.2222 C   0  0  0  0  0  0  0  0  0  0  0  0
    3.7726    0.2594    1.1569 C   0  0  0  0  0  0  0  0  0  0  0  0
    3.7687    0.4656   -1.2503 C   0  0  0  0  0  0  0  0  0  0  0  0
    4.3612   -0.0073   -0.0792 C   0  0  0  0  0  0  0  0  0  0  0  0
  1 18  1  0
  2 18  1  0
  3 18  1  0
  4 19  1  0
  5 19  1  0
  6 19  1  0
  7 20  1  0
  8 22  1  0
  9 24  1  0
 10 16  1  0
 10 17  1  0
 11 14  2  0
 11 15  1  0
 12 15  2  0
 12 16  1  0
 13 14  1  0
 13 16  2  0
 14 18  1  0
 15 19  1  0
 17 20  2  0
 17 21  1  0
 20 23  1  0
 21 22  2  0
 22 24  1  0
 23 24  2  0
M  END
>  <PUBCHEM_COMPOUND_CID>  (1) 
32429

>  <PUBCHEM_CONFORMER_RMSD>  (1) 
0.8

>  <PUBCHEM_CONFORMER_DIVERSEORDER>  (1) 
1
8
13
5
7
14
3
20
15
6
19
2
4
16
11
9
17
10
12
18

>  <PUBCHEM_MMFF94_PARTIAL_CHARGES>  (1) 
26
1 -0.29
10 -0.2
11 -0.62
12 -0.62
13 -0.62
14 0.48
15 0.48
16 0.72
17 0.1
18 1.01
19 1.01
2 -0.29
20 0.18
21 -0.15
22 0.18
23 -0.15
24 0.18
25 0.15
26 0.15
3 -0.29
4 -0.29
5 -0.29
6 -0.29
7 -0.18
8 -0.18
9 -0.18

>  <PUBCHEM_EFFECTIVE_ROTOR_COUNT>  (1) 
4

>  <PUBCHEM_PHARMACOPHORE_FEATURES>  (1) 
5
3 11 12 15 cation
3 11 13 14 cation
3 12 13 16 cation
6 11 12 13 14 15 16 rings
6 17 20 21 22 23 24 rings

>  <PUBCHEM_HEAVY_ATOM_COUNT>  (1) 
24

>  <PUBCHEM_ATOM_DEF_STEREO_COUNT>  (1) 
0

>  <PUBCHEM_ATOM_UDEF_STEREO_COUNT>  (1) 
0

>  <PUBCHEM_BOND_DEF_STEREO_COUNT>  (1) 
0

>  <PUBCHEM_BOND_UDEF_STEREO_COUNT>  (1) 
0

>  <PUBCHEM_ISOTOPIC_ATOM_COUNT>  (1) 
0

>  <PUBCHEM_COMPONENT_COUNT>  (1) 
1

>  <PUBCHEM_CACTVS_TAUTO_COUNT>  (1) 
1

>  <PUBCHEM_CONFORMER_ID>  (1) 
00007EAD00000001

>  <PUBCHEM_MMFF94_ENERGY>  (1) 
46.9803

>  <PUBCHEM_FEATURE_SELFOVERLAP>  (1) 
28.152

>  <PUBCHEM_SHAPE_FINGERPRINT>  (1) 
10366900 7 16630256869945146640
11578080 2 17201077260119333739
12236239 1 17967820431561771936
12403259 327 17846205662426621304
12422481 6 18046052770720184336
12553582 1 17603852417660411002
12592029 89 18337402582046151467
12633257 1 18129075953758230880
12788726 201 17903927995228319751
13140716 1 18268713998535138281
13402501 40 18129668496083969374
13583140 156 16732985357892803851
13692114 37 18130227168493095727
13726171 33 17906488693474798820
14115302 16 18336553793392582980
15042514 8 18267306611479196659
15420108 30 18128810842706884157
15537594 2 17530961380892267106
15664445 248 16251387483373343214
16752209 62 18196092367891104983
17093844 170 18341337691444325606
17349148 13 18411140251284115069
1813 80 17603582972845028236
20511986 3 18187922954296188420
20600515 1 18201721786137749392
20645476 183 17822863094413210143
20681677 155 18335986441334780832
21033648 29 18201425944379240112
21478907 32 17839175556851745143
21524375 3 18410292510786813263
21781051 124 18263945370062953395
22907989 373 17902242444298201887
22956985 138 17900265204422222363
23402539 116 18059851740560011045
23419403 2 17538270749093436143
23558518 356 17827360191697659866
23559900 14 18202004374048708956
23598288 3 18192438682262342934
23598291 2 17751084810931173236
3298306 158 18410292476295141071
338550 245 18335990825810912702
340366 18 18040439931474823980
352729 6 18268440199187120709
38695281 34 18059295349474980895
46194498 28 13334737878614497882
465052 167 17749683951492045329
5385378 56 18054802685013895481
59755656 215 18269276759515221301
6138700 20 18269276772632504486
7164475 11 17910948372639538935
7226269 152 17989491792295976185
81228 2 17763172945173133443

>  <PUBCHEM_SHAPE_MULTIPOLES>  (1) 
499.64
11.06
3.4
1.92
0.73
2.85
-0.13
-2.74
2.54
2.05
-0.59
-1.39
-0.02
-0.91

>  <PUBCHEM_SHAPE_SELFOVERLAP>  (1) 
958.016

>  <PUBCHEM_SHAPE_VOLUME>  (1) 
309.4

>  <PUBCHEM_COORDINATE_TYPE>  (1) 
2
5
10

$$$$
