32420
     RDKit          3D

 23 24  0  0  0  0  0  0  0  0999 V2000
    4.5922    0.7028   -1.7221 Cl  0  0  0  0  0  0  0  0  0  0  0  0
    4.0465    2.9536   -0.0067 Cl  0  0  0  0  0  0  0  0  0  0  0  0
    4.9516    0.4811    1.1740 Cl  0  0  0  0  0  0  0  0  0  0  0  0
    1.7370   -3.4518    1.3025 Cl  0  0  0  0  0  0  0  0  0  0  0  0
   -0.8914   -3.1020    0.1732 Cl  0  0  0  0  0  0  0  0  0  0  0  0
    1.3844   -3.2438   -1.5954 Cl  0  0  0  0  0  0  0  0  0  0  0  0
   -1.0631    2.0953    0.5680 S   0  0  0  0  0  0  0  0  0  0  0  0
   -2.9767    0.0647    1.8266 O   0  0  0  0  0  0  0  0  0  0  0  0
    0.0025   -0.3323    0.2612 N   0  0  0  0  0  0  0  0  0  0  0  0
    1.5189    1.5264    0.2034 N   0  0  0  0  0  0  0  0  0  0  0  0
    2.3501   -0.7087   -0.0631 N   0  0  0  0  0  0  0  0  0  0  0  0
   -2.3946    1.1972   -0.2169 C   0  0  0  0  0  0  0  0  0  0  0  0
   -3.1843    0.2979    0.4993 C   0  0  0  0  0  0  0  0  0  0  0  0
    0.3031    0.9730    0.3176 C   0  0  0  0  0  0  0  0  0  0  0  0
    1.0768   -1.1145    0.0688 C   0  0  0  0  0  0  0  0  0  0  0  0
    2.4952    0.6239    0.0149 C   0  0  0  0  0  0  0  0  0  0  0  0
   -2.6365    1.4106   -1.5739 C   0  0  0  0  0  0  0  0  0  0  0  0
   -4.2159   -0.3884   -0.1416 C   0  0  0  0  0  0  0  0  0  0  0  0
   -3.6680    0.7244   -2.2148 C   0  0  0  0  0  0  0  0  0  0  0  0
   -4.4577   -0.1752   -1.4987 C   0  0  0  0  0  0  0  0  0  0  0  0
    3.8812    1.1563   -0.1198 C   0  0  0  0  0  0  0  0  0  0  0  0
    0.8321   -2.5834   -0.0034 C   0  0  0  0  0  0  0  0  0  0  0  0
   -3.6834    0.8928    2.7471 C   0  0  0  0  0  0  0  0  0  0  0  0
  1 21  1  0
  2 21  1  0
  3 21  1  0
  4 22  1  0
  5 22  1  0
  6 22  1  0
  7 12  1  0
  7 14  1  0
  8 13  1  0
  8 23  1  0
  9 14  2  0
  9 15  1  0
 10 14  1  0
 10 16  2  0
 11 15  2  0
 11 16  1  0
 12 13  2  0
 12 17  1  0
 13 18  1  0
 15 22  1  0
 16 21  1  0
 17 19  2  0
 18 20  2  0
 19 20  1  0
M  END
>  <PUBCHEM_COMPOUND_CID>  (1) 
32420

>  <PUBCHEM_CONFORMER_RMSD>  (1) 
0.8

>  <PUBCHEM_CONFORMER_DIVERSEORDER>  (1) 
2
19
10
22
11
5
26
20
17
18
14
16
12
21
23
6
9
1
3
24
25
7
15
13
4
8

>  <PUBCHEM_MMFF94_PARTIAL_CHARGES>  (1) 
27
1 -0.29
10 -0.62
11 -0.62
12 0.1
13 0.08
14 0.72
15 0.48
16 0.48
17 -0.15
18 -0.15
19 -0.15
2 -0.29
20 -0.15
21 1.01
22 1.01
23 0.28
24 0.15
25 0.15
26 0.15
27 0.15
3 -0.29
4 -0.29
5 -0.29
6 -0.29
7 -0.2
8 -0.36
9 -0.62

>  <PUBCHEM_EFFECTIVE_ROTOR_COUNT>  (1) 
5

>  <PUBCHEM_PHARMACOPHORE_FEATURES>  (1) 
6
1 8 acceptor
3 10 11 16 cation
3 9 10 14 cation
3 9 11 15 cation
6 12 13 17 18 19 20 rings
6 9 10 11 14 15 16 rings

>  <PUBCHEM_HEAVY_ATOM_COUNT>  (1) 
23

>  <PUBCHEM_ATOM_DEF_STEREO_COUNT>  (1) 
0

>  <PUBCHEM_ATOM_UDEF_STEREO_COUNT>  (1) 
0

>  <PUBCHEM_BOND_DEF_STEREO_COUNT>  (1) 
0

>  <PUBCHEM_BOND_UDEF_STEREO_COUNT>  (1) 
0

>  <PUBCHEM_ISOTOPIC_ATOM_COUNT>  (1) 
0

>  <PUBCHEM_COMPONENT_COUNT>  (1) 
1

>  <PUBCHEM_CACTVS_TAUTO_COUNT>  (1) 
1

>  <PUBCHEM_CONFORMER_ID>  (1) 
00007EA400000002

>  <PUBCHEM_MMFF94_ENERGY>  (1) 
58.7976

>  <PUBCHEM_FEATURE_SELFOVERLAP>  (1) 
33.226

>  <PUBCHEM_SHAPE_FINGERPRINT>  (1) 
11488393 25 18267307521864823838
121448 382 18272078439733762631
12160290 23 17978797032140456514
12553582 1 17329715314490547779
12596599 1 17700973250225723767
12788726 201 17416958436326009841
12969540 114 18336543932031633492
13052359 8 18263074586575459226
13140716 1 18267305519998087816
13583140 156 17385718145046463280
13911987 19 18334860575171089588
14787075 74 17774711078160998768
15209289 33 17917153896044487089
15238133 3 10231211419362670659
17138139 8 17626914785321782199
17349148 13 18343014468040763736
17492 54 18118661418301152295
18186145 218 18342463659844220252
20197701 30 18335967749484023656
20645477 70 18338229350054518943
21344244 181 17846506979567437822
21524375 3 18340763836247407058
23557571 272 16733274456383957917
23559900 14 17972579022832575027
23566358 27 17986130516624911031
23598291 2 17701265720238947595
238 59 18192124076287336271
352729 6 18339931523267195352
469060 322 17751651076879480243
474229 33 18339916108376336338
633830 44 18130522884905723968
81228 2 17689433115176515394

>  <PUBCHEM_SHAPE_MULTIPOLES>  (1) 
467.58
9.34
3.62
1.93
1.36
3.59
-0.18
-5.09
1.09
2.83
-0.09
-1.84
-0.11
-0.2

>  <PUBCHEM_SHAPE_SELFOVERLAP>  (1) 
912.3

>  <PUBCHEM_SHAPE_VOLUME>  (1) 
284.5

>  <PUBCHEM_COORDINATE_TYPE>  (1) 
2
5
10

$$$$
