32433
     RDKit          3D

 25 26  0  0  0  0  0  0  0  0999 V2000
    5.3107   -0.2581   -1.8420 Cl  0  0  0  0  0  0  0  0  0  0  0  0
   -5.1902   -0.5416   -1.7316 Cl  0  0  0  0  0  0  0  0  0  0  0  0
   -5.0360   -2.5320    0.3471 Cl  0  0  0  0  0  0  0  0  0  0  0  0
   -5.6469    0.1958    1.0636 Cl  0  0  0  0  0  0  0  0  0  0  0  0
   -1.9289    3.6566    0.7786 Cl  0  0  0  0  0  0  0  0  0  0  0  0
    0.6717    2.7877   -0.1094 Cl  0  0  0  0  0  0  0  0  0  0  0  0
   -1.4862    2.9247   -2.0203 Cl  0  0  0  0  0  0  0  0  0  0  0  0
    0.1148   -2.2492    1.1131 S   0  0  0  0  0  0  0  0  0  0  0  0
    4.1301    0.9445    2.1301 O   0  0  0  0  0  0  0  0  0  0  0  0
    5.4855    0.9840    0.4038 O   0  0  0  0  0  0  0  0  0  0  0  0
   -2.8550    0.8249   -0.1680 N   0  0  0  0  0  0  0  0  0  0  0  0
   -2.3474   -1.4243    0.4963 N   0  0  0  0  0  0  0  0  0  0  0  0
   -0.5961    0.2102    0.3581 N   0  0  0  0  0  0  0  0  0  0  0  0
    4.4468    0.5774    0.9747 N   0  0  0  0  0  0  0  0  0  0  0  0
    1.5879   -1.6760    0.2893 C   0  0  0  0  0  0  0  0  0  0  0  0
   -1.0740   -1.0187    0.5982 C   0  0  0  0  0  0  0  0  0  0  0  0
   -3.1830   -0.4476    0.1078 C   0  0  0  0  0  0  0  0  0  0  0  0
   -1.5451    1.0810   -0.0215 C   0  0  0  0  0  0  0  0  0  0  0  0
    2.4435   -0.7809    0.9312 C   0  0  0  0  0  0  0  0  0  0  0  0
    3.5970   -0.3340    0.2866 C   0  0  0  0  0  0  0  0  0  0  0  0
    1.8858   -2.1243   -0.9976 C   0  0  0  0  0  0  0  0  0  0  0  0
    3.8949   -0.7824   -1.0002 C   0  0  0  0  0  0  0  0  0  0  0  0
    3.0392   -1.6775   -1.6423 C   0  0  0  0  0  0  0  0  0  0  0  0
   -4.6214   -0.8135   -0.0343 C   0  0  0  0  0  0  0  0  0  0  0  0
   -1.0977    2.4734   -0.3113 C   0  0  0  0  0  0  0  0  0  0  0  0
  1 22  1  0
  2 24  1  0
  3 24  1  0
  4 24  1  0
  5 25  1  0
  6 25  1  0
  7 25  1  0
  8 15  1  0
  8 16  1  0
  9 14  1  0
 10 14  2  0
 11 17  2  0
 11 18  1  0
 12 16  2  0
 12 17  1  0
 13 16  1  0
 13 18  2  0
 14 20  1  0
 15 19  2  0
 15 21  1  0
 17 24  1  0
 18 25  1  0
 19 20  1  0
 20 22  2  0
 21 23  2  0
 22 23  1  0
M  CHG  2   9  -1  14   1
M  END
>  <PUBCHEM_COMPOUND_CID>  (1) 
32433

>  <PUBCHEM_CONFORMER_RMSD>  (1) 
0.8

>  <PUBCHEM_CONFORMER_DIVERSEORDER>  (1) 
1
11
20
10
23
14
18
3
17
5
25
2
26
12
22
21
15
9
19
13
24
7
16
6
4
8

>  <PUBCHEM_MMFF94_PARTIAL_CHARGES>  (1) 
28
1 -0.18
10 -0.52
11 -0.62
12 -0.62
13 -0.62
14 0.91
15 0.1
16 0.72
17 0.48
18 0.48
19 -0.15
2 -0.29
20 0.13
21 -0.15
22 0.18
23 -0.15
24 1.01
25 1.01
26 0.15
27 0.15
28 0.15
3 -0.29
4 -0.29
5 -0.29
6 -0.29
7 -0.29
8 -0.2
9 -0.52

>  <PUBCHEM_EFFECTIVE_ROTOR_COUNT>  (1) 
5

>  <PUBCHEM_PHARMACOPHORE_FEATURES>  (1) 
8
1 10 acceptor
1 9 acceptor
1 9 anion
3 11 12 17 cation
3 11 13 18 cation
3 12 13 16 cation
6 11 12 13 16 17 18 rings
6 15 19 20 21 22 23 rings

>  <PUBCHEM_HEAVY_ATOM_COUNT>  (1) 
25

>  <PUBCHEM_ATOM_DEF_STEREO_COUNT>  (1) 
0

>  <PUBCHEM_ATOM_UDEF_STEREO_COUNT>  (1) 
0

>  <PUBCHEM_BOND_DEF_STEREO_COUNT>  (1) 
0

>  <PUBCHEM_BOND_UDEF_STEREO_COUNT>  (1) 
0

>  <PUBCHEM_ISOTOPIC_ATOM_COUNT>  (1) 
0

>  <PUBCHEM_COMPONENT_COUNT>  (1) 
1

>  <PUBCHEM_CACTVS_TAUTO_COUNT>  (1) 
1

>  <PUBCHEM_CONFORMER_ID>  (1) 
00007EB100000001

>  <PUBCHEM_MMFF94_ENERGY>  (1) 
63.3643

>  <PUBCHEM_FEATURE_SELFOVERLAP>  (1) 
43.458

>  <PUBCHEM_SHAPE_FINGERPRINT>  (1) 
10366900 7 18340778078485613102
10498660 4 18263362503649302636
10670039 82 18187938235884149540
10906281 52 18263660587296325488
11646440 116 18336558199970753411
11759241 127 18272643563141174054
12156800 1 14782312083293264460
12166972 35 17313106345676873070
12236239 1 14549025390108924762
12516196 113 18413388752916234367
12553582 1 18408041784846950747
12596602 18 16443353117448370330
12730499 353 17988934396262976974
12778500 126 16558488412657037179
12788726 201 18261679177275380049
13140716 1 18191307289012701113
13402501 40 18341044216197433184
13782708 43 18130798806864527910
13911987 19 18040723588501012871
14466204 15 9367080921468542447
14787075 74 18187651344326300815
14790565 3 17617656558488531021
14840074 17 17989204875974938133
15295992 7 11242263913283823271
15849732 13 18202007604269784187
15961568 22 18335703901233132852
17349148 13 17095245786975306659
17357779 13 18410847755405355893
1813 80 18187091654627616717
192875 21 17095243601179396166
20715895 44 16662871550120668871
221357 26 18130795512518395046
23557571 272 18410578353143747198
23559900 14 18337962310521224276
312423 11 17898294904837651514
350125 39 18117842088448374490
3680242 22 18186802465351306386
46194498 28 17845948372627136452
469060 322 17604728672287757561
5252454 2 17757566152741150404
621550 34 18202560679123071546
6913067 236 18200293490220194026
7399639 24 18202274806263256642

>  <PUBCHEM_SHAPE_MULTIPOLES>  (1) 
499.76
11.9
3.5
1.65
0.69
2.83
-0.46
-3.43
-1.13
-2.21
-0.09
0.94
0.25
0.99

>  <PUBCHEM_SHAPE_SELFOVERLAP>  (1) 
980.496

>  <PUBCHEM_SHAPE_VOLUME>  (1) 
303

>  <PUBCHEM_COORDINATE_TYPE>  (1) 
2
5
10

$$$$
