32444
     RDKit          3D

 18 18  0  0  0  0  0  0  0  0999 V2000
   -0.8737    3.3852   -1.4252 Cl  0  0  0  0  0  0  0  0  0  0  0  0
   -3.3819    2.2312   -0.5982 Cl  0  0  0  0  0  0  0  0  0  0  0  0
   -1.6417    3.3760    1.3989 Cl  0  0  0  0  0  0  0  0  0  0  0  0
   -1.5478   -3.4114    1.4062 Cl  0  0  0  0  0  0  0  0  0  0  0  0
   -3.3075   -2.3257   -0.6016 Cl  0  0  0  0  0  0  0  0  0  0  0  0
   -0.7548   -3.4007   -1.4110 Cl  0  0  0  0  0  0  0  0  0  0  0  0
    0.4224   -1.1865    0.4389 N   0  0  0  0  0  0  0  0  0  0  0  0
    0.3844    1.2128    0.4365 N   0  0  0  0  0  0  0  0  0  0  0  0
   -1.5992   -0.0191   -0.1164 N   0  0  0  0  0  0  0  0  0  0  0  0
    3.3455    0.0592   -0.2237 C   0  0  0  0  0  0  0  0  0  0  0  0
    2.4212    0.0457    0.9958 C   0  0  0  0  0  0  0  0  0  0  0  0
    4.8155    0.0464    0.1954 C   0  0  0  0  0  0  0  0  0  0  0  0
    0.9686    0.0223    0.5940 C   0  0  0  0  0  0  0  0  0  0  0  0
    5.7391    0.0186   -1.0120 C   0  0  0  0  0  0  0  0  0  0  0  0
   -0.8707   -1.1296    0.0812 C   0  0  0  0  0  0  0  0  0  0  0  0
   -0.9062    1.1143    0.0791 C   0  0  0  0  0  0  0  0  0  0  0  0
   -1.6449    2.3936   -0.1212 C   0  0  0  0  0  0  0  0  0  0  0  0
   -1.5685   -2.4322   -0.1166 C   0  0  0  0  0  0  0  0  0  0  0  0
  1 17  1  0
  2 17  1  0
  3 17  1  0
  4 18  1  0
  5 18  1  0
  6 18  1  0
  7 13  2  0
  7 15  1  0
  8 13  1  0
  8 16  2  0
  9 15  2  0
  9 16  1  0
 10 11  1  0
 10 12  1  0
 11 13  1  0
 12 14  1  0
 15 18  1  0
 16 17  1  0
M  END
>  <PUBCHEM_COMPOUND_CID>  (1) 
32444

>  <PUBCHEM_CONFORMER_RMSD>  (1) 
0.6

>  <PUBCHEM_CONFORMER_DIVERSEORDER>  (1) 
1
35
26
19
16
11
40
25
17
36
14
2
3
38
10
34
18
13
30
33
8
12
9
5
39
22
27
32
6
20
37
7
4
15
28
31
23
29
24
21

>  <PUBCHEM_MMFF94_PARTIAL_CHARGES>  (1) 
15
1 -0.29
11 0.14
13 0.48
15 0.48
16 0.48
17 1.01
18 1.01
2 -0.29
3 -0.29
4 -0.29
5 -0.29
6 -0.29
7 -0.62
8 -0.62
9 -0.62

>  <PUBCHEM_EFFECTIVE_ROTOR_COUNT>  (1) 
5

>  <PUBCHEM_PHARMACOPHORE_FEATURES>  (1) 
5
1 14 hydrophobe
3 7 8 13 cation
3 7 9 15 cation
3 8 9 16 cation
6 7 8 9 13 15 16 rings

>  <PUBCHEM_HEAVY_ATOM_COUNT>  (1) 
18

>  <PUBCHEM_ATOM_DEF_STEREO_COUNT>  (1) 
0

>  <PUBCHEM_ATOM_UDEF_STEREO_COUNT>  (1) 
0

>  <PUBCHEM_BOND_DEF_STEREO_COUNT>  (1) 
0

>  <PUBCHEM_BOND_UDEF_STEREO_COUNT>  (1) 
0

>  <PUBCHEM_ISOTOPIC_ATOM_COUNT>  (1) 
0

>  <PUBCHEM_COMPONENT_COUNT>  (1) 
1

>  <PUBCHEM_CACTVS_TAUTO_COUNT>  (1) 
3

>  <PUBCHEM_CONFORMER_ID>  (1) 
00007EBC00000001

>  <PUBCHEM_MMFF94_ENERGY>  (1) 
23.3475

>  <PUBCHEM_FEATURE_SELFOVERLAP>  (1) 
28.17

>  <PUBCHEM_SHAPE_FINGERPRINT>  (1) 
11833330 49 18263636428311026664
12160290 23 18266718273287844978
12173636 292 18265604382463496476
12553582 1 18192419982048764818
12788726 201 18335974346121839378
12954195 1 18343023255259027590
13681431 1 17615959345571599992
14022347 108 18045763826811391211
14508225 48 18265888236656670132
15042514 8 18408326596311663051
16752209 62 18337936961444888594
17539 30 18340475772405632422
1813 80 17909570671727504390
18785283 64 16968861061658950793
20101258 96 18117014362598690920
20600515 1 17771644600049280835
20645476 183 18335417916097090756
20645477 56 18338518543609946672
20871999 31 18410288129640434150
21041028 32 18046920551956882395
21524375 3 18122052109648494424
2255824 54 17260182195245065633
22620623 9 18272650177454152414
22849341 161 18052840314150411027
23366157 5 17254276726681794337
23402539 116 18411694404690703887
23419403 2 17201619263786329521
23557571 272 18268698584541416032
23559900 14 18201434715788491930
23566358 27 17408246863569346701
23598288 3 17896906380765493746
2748010 2 17979052101262202785
3071541 12 17261315799917133352
3071541 250 17830459744798323810
3091708 16 9057852123366289160
352729 6 18195793086264509907
458136 41 17837498453220308697
5486654 2 18340483357961948749
559249 180 18337386021153963322
68521 5 18337106873099506370
6992083 37 17842010058798815019
7364860 26 17261582981469393249
81228 2 18337663217403594521

>  <PUBCHEM_SHAPE_MULTIPOLES>  (1) 
366.71
7.04
4.99
1.3
14.82
0.25
0.01
-0.32
1.84
-6.46
0.35
-0.21
0
0.01

>  <PUBCHEM_SHAPE_SELFOVERLAP>  (1) 
682.501

>  <PUBCHEM_SHAPE_VOLUME>  (1) 
225.3

>  <PUBCHEM_COORDINATE_TYPE>  (1) 
2
5
10

$$$$
