32448
     RDKit          3D

 24 26  0  0  0  0  0  0  0  0999 V2000
    2.5766   -3.3949   -1.3823 Cl  0  0  0  0  0  0  0  0  0  0  0  0
    4.3883   -2.2773    0.5608 Cl  0  0  0  0  0  0  0  0  0  0  0  0
    1.8836   -3.3923    1.4612 Cl  0  0  0  0  0  0  0  0  0  0  0  0
    1.8955    3.3927    1.4686 Cl  0  0  0  0  0  0  0  0  0  0  0  0
    4.3903    2.2773    0.5530 Cl  0  0  0  0  0  0  0  0  0  0  0  0
    2.5630    3.3944   -1.3809 Cl  0  0  0  0  0  0  0  0  0  0  0  0
    0.6060    1.1999   -0.3479 N   0  0  0  0  0  0  0  0  0  0  0  0
    0.6057   -1.1997   -0.3482 N   0  0  0  0  0  0  0  0  0  0  0  0
    2.6270   -0.0002    0.1350 N   0  0  0  0  0  0  0  0  0  0  0  0
   -2.3874   -0.0002    0.1574 C   0  0  0  0  0  0  0  0  0  0  0  0
   -1.3808    0.0003   -0.8219 C   0  0  0  0  0  0  0  0  0  0  0  0
   -3.7443    0.0002   -0.2448 C   0  0  0  0  0  0  0  0  0  0  0  0
    0.0331    0.0001   -0.4850 C   0  0  0  0  0  0  0  0  0  0  0  0
   -1.7073    0.0010   -2.1783 C   0  0  0  0  0  0  0  0  0  0  0  0
   -2.0771   -0.0009    1.5272 C   0  0  0  0  0  0  0  0  0  0  0  0
   -4.0546    0.0009   -1.6145 C   0  0  0  0  0  0  0  0  0  0  0  0
   -4.7509   -0.0002    0.7346 C   0  0  0  0  0  0  0  0  0  0  0  0
   -3.0417    0.0013   -2.5738 C   0  0  0  0  0  0  0  0  0  0  0  0
   -3.0901   -0.0013    2.4865 C   0  0  0  0  0  0  0  0  0  0  0  0
   -4.4244   -0.0010    2.0909 C   0  0  0  0  0  0  0  0  0  0  0  0
    1.9097    1.1221   -0.0364 C   0  0  0  0  0  0  0  0  0  0  0  0
    1.9096   -1.1222   -0.0367 C   0  0  0  0  0  0  0  0  0  0  0  0
    2.6351   -2.4128    0.1377 C   0  0  0  0  0  0  0  0  0  0  0  0
    2.6352    2.4127    0.1379 C   0  0  0  0  0  0  0  0  0  0  0  0
  1 23  1  0
  2 23  1  0
  3 23  1  0
  4 24  1  0
  5 24  1  0
  6 24  1  0
  7 13  2  0
  7 21  1  0
  8 13  1  0
  8 22  2  0
  9 21  2  0
  9 22  1  0
 10 11  1  0
 10 12  2  0
 10 15  1  0
 11 13  1  0
 11 14  2  0
 12 16  1  0
 12 17  1  0
 14 18  1  0
 15 19  2  0
 16 18  2  0
 17 20  2  0
 19 20  1  0
 21 24  1  0
 22 23  1  0
M  END
>  <PUBCHEM_COMPOUND_CID>  (1) 
32448

>  <PUBCHEM_CONFORMER_RMSD>  (1) 
0.6

>  <PUBCHEM_CONFORMER_DIVERSEORDER>  (1) 
1
3
4
5
2
6

>  <PUBCHEM_MMFF94_PARTIAL_CHARGES>  (1) 
28
1 -0.29
13 0.62
14 -0.15
15 -0.15
16 -0.15
17 -0.15
18 -0.15
19 -0.15
2 -0.29
20 -0.15
21 0.48
22 0.48
23 1.01
24 1.01
25 0.15
26 0.15
27 0.15
28 0.15
29 0.15
3 -0.29
30 0.15
31 0.15
4 -0.29
5 -0.29
6 -0.29
7 -0.62
8 -0.62
9 -0.62

>  <PUBCHEM_EFFECTIVE_ROTOR_COUNT>  (1) 
3

>  <PUBCHEM_PHARMACOPHORE_FEATURES>  (1) 
6
3 7 8 13 cation
3 7 9 21 cation
3 8 9 22 cation
6 10 11 12 14 16 18 rings
6 10 12 15 17 19 20 rings
6 7 8 9 13 21 22 rings

>  <PUBCHEM_HEAVY_ATOM_COUNT>  (1) 
24

>  <PUBCHEM_ATOM_DEF_STEREO_COUNT>  (1) 
0

>  <PUBCHEM_ATOM_UDEF_STEREO_COUNT>  (1) 
0

>  <PUBCHEM_BOND_DEF_STEREO_COUNT>  (1) 
0

>  <PUBCHEM_BOND_UDEF_STEREO_COUNT>  (1) 
0

>  <PUBCHEM_ISOTOPIC_ATOM_COUNT>  (1) 
0

>  <PUBCHEM_COMPONENT_COUNT>  (1) 
1

>  <PUBCHEM_CACTVS_TAUTO_COUNT>  (1) 
1

>  <PUBCHEM_CONFORMER_ID>  (1) 
00007EC000000001

>  <PUBCHEM_MMFF94_ENERGY>  (1) 
64.1842

>  <PUBCHEM_FEATURE_SELFOVERLAP>  (1) 
33.267

>  <PUBCHEM_SHAPE_FINGERPRINT>  (1) 
10165383 225 17827387627917358180
10369192 42 17534363394227882364
11049842 53 16128113155859669941
11640471 11 17703518795463182633
12236239 1 17775566455341663405
12363563 72 17975119960072188238
12549972 3 17823126835850166673
12553582 1 18198063582218976118
12707595 3 18190177888781956006
12788726 201 16964903936468887498
13009979 54 17417808413725435847
13140716 1 18266169724860887938
133893 2 18339911675854094558
13533116 47 18411149047830733979
13583140 156 18271533099895490985
13681431 1 18338516327221802820
13965767 371 16986891029281774553
14739800 52 16414611896277680882
14787075 74 17195440150383210095
14844126 61 17184716140710089058
14955137 171 18130522833645587462
15842332 3 17704066317957036303
1813 80 17985843527216466174
18785283 64 18260554467480504116
18915476 22 18260823812899800199
19049666 15 17677603177562956877
20101258 96 18049442544047247332
20511986 3 17704065209713620937
20645477 70 18336813234759661086
20693207 138 17604155835198093935
20739085 24 17844538694992870022
21041028 32 18269560429631982072
21756936 100 17700433630012375752
2255824 54 18342453759886301662
22849341 161 17987530208059963006
23175994 123 18189337857597703463
23526113 38 17750782264491544987
23557571 272 16805323288414146325
23559900 14 16805043999523230119
23598288 3 17475246699887614310
25147074 1 17775278387653372679
31174 14 18334865986866344039
458136 41 18191035684145383348
474 4 18129098003524475888
48014 12 15455336701779251113
513202 73 17408539337694046134
57527295 17 17753585989610606471
5895379 119 15913059719765016192
59755656 520 18055645163959734732
6049 1 17676210143538262445
633830 44 17986405600801665764
6823239 73 16877955931159491767
7097593 13 18130511829591033519
7615 1 17632567245750658661
77492 1 17703787029160773141
81228 2 17330541056850609556

>  <PUBCHEM_SHAPE_MULTIPOLES>  (1) 
490.18
8.91
3.89
2.22
4.84
0
0.12
0
-1.77
-8.26
-0.34
2.69
0
0.01

>  <PUBCHEM_SHAPE_SELFOVERLAP>  (1) 
1012.416

>  <PUBCHEM_SHAPE_VOLUME>  (1) 
276.3

>  <PUBCHEM_COORDINATE_TYPE>  (1) 
2
5
10

$$$$
