32443
     RDKit          3D

 18 18  0  0  0  0  0  0  0  0999 V2000
    2.1037   -2.7071    1.3750 Cl  0  0  0  0  0  0  0  0  0  0  0  0
   -0.4505   -3.8162    0.6315 Cl  0  0  0  0  0  0  0  0  0  0  0  0
    1.5201   -3.3400   -1.4222 Cl  0  0  0  0  0  0  0  0  0  0  0  0
   -3.4578    1.2749   -1.4317 Cl  0  0  0  0  0  0  0  0  0  0  0  0
   -3.7847   -0.7091    0.6331 Cl  0  0  0  0  0  0  0  0  0  0  0  0
   -2.8564    1.9253    1.3576 Cl  0  0  0  0  0  0  0  0  0  0  0  0
   -0.4653    1.2708   -0.5304 N   0  0  0  0  0  0  0  0  0  0  0  0
    1.2911   -0.3641   -0.5271 N   0  0  0  0  0  0  0  0  0  0  0  0
   -0.9391   -0.9978    0.0912 N   0  0  0  0  0  0  0  0  0  0  0  0
    2.4658    2.6598    0.0064 C   0  0  0  0  0  0  0  0  0  0  0  0
    1.7752    1.9157   -1.1533 C   0  0  0  0  0  0  0  0  0  0  0  0
    0.7933    0.8617   -0.7031 C   0  0  0  0  0  0  0  0  0  0  0  0
    1.4547    3.3078    0.9556 C   0  0  0  0  0  0  0  0  0  0  0  0
    3.3568    1.6901    0.7867 C   0  0  0  0  0  0  0  0  0  0  0  0
   -1.2806    0.2818   -0.1302 C   0  0  0  0  0  0  0  0  0  0  0  0
    0.3621   -1.2473   -0.1272 C   0  0  0  0  0  0  0  0  0  0  0  0
    0.8222   -2.6475    0.0973 C   0  0  0  0  0  0  0  0  0  0  0  0
   -2.7105    0.6411    0.0908 C   0  0  0  0  0  0  0  0  0  0  0  0
  1 17  1  0
  2 17  1  0
  3 17  1  0
  4 18  1  0
  5 18  1  0
  6 18  1  0
  7 12  2  0
  7 15  1  0
  8 12  1  0
  8 16  2  0
  9 15  2  0
  9 16  1  0
 10 11  1  0
 10 13  1  0
 10 14  1  0
 11 12  1  0
 15 18  1  0
 16 17  1  0
M  END
>  <PUBCHEM_COMPOUND_CID>  (1) 
32443

>  <PUBCHEM_CONFORMER_RMSD>  (1) 
0.6

>  <PUBCHEM_CONFORMER_DIVERSEORDER>  (1) 
1
10
9
5
11
4
6
12
7
8
3
2

>  <PUBCHEM_MMFF94_PARTIAL_CHARGES>  (1) 
15
1 -0.29
11 0.14
12 0.48
15 0.48
16 0.48
17 1.01
18 1.01
2 -0.29
3 -0.29
4 -0.29
5 -0.29
6 -0.29
7 -0.62
8 -0.62
9 -0.62

>  <PUBCHEM_EFFECTIVE_ROTOR_COUNT>  (1) 
4

>  <PUBCHEM_PHARMACOPHORE_FEATURES>  (1) 
5
3 10 13 14 hydrophobe
3 7 8 12 cation
3 7 9 15 cation
3 8 9 16 cation
6 7 8 9 12 15 16 rings

>  <PUBCHEM_HEAVY_ATOM_COUNT>  (1) 
18

>  <PUBCHEM_ATOM_DEF_STEREO_COUNT>  (1) 
0

>  <PUBCHEM_ATOM_UDEF_STEREO_COUNT>  (1) 
0

>  <PUBCHEM_BOND_DEF_STEREO_COUNT>  (1) 
0

>  <PUBCHEM_BOND_UDEF_STEREO_COUNT>  (1) 
0

>  <PUBCHEM_ISOTOPIC_ATOM_COUNT>  (1) 
0

>  <PUBCHEM_COMPONENT_COUNT>  (1) 
1

>  <PUBCHEM_CACTVS_TAUTO_COUNT>  (1) 
3

>  <PUBCHEM_CONFORMER_ID>  (1) 
00007EBB00000001

>  <PUBCHEM_MMFF94_ENERGY>  (1) 
28.5648

>  <PUBCHEM_FEATURE_SELFOVERLAP>  (1) 
28.174

>  <PUBCHEM_SHAPE_FINGERPRINT>  (1) 
12160290 23 17761222410875533076
12553582 1 17688600359752043911
12788726 201 17327464026167951736
13140716 1 18409453617188892248
13681431 1 18193837033398060188
14022347 108 16747647594446991622
14022349 108 18335692802841766122
14178342 30 18336841861276104761
14181834 199 18263630793176596319
14787075 74 17770221879938383129
15042514 8 17759528063541902770
15502708 68 18409724075733003884
15852999 172 18041270063075690573
16945 1 17685220478093054343
20510252 161 17618789492891648624
20600515 1 17464813467994641582
21029758 11 17760070827333467493
21041028 32 17619651093422468409
21524375 3 18266743669424210724
21731228 192 18266740366700004632
22112679 90 17480038396714035237
2334 1 18193282011927841580
23402539 116 17407113734921439023
23419403 2 17391036310969659998
23526113 38 17626429827753056004
23557571 272 17115527679473353740
23598294 1 17617661402683276016
2748010 2 18263097654570148815
305870 269 18409728469331742297
3071541 236 17832137599447429453
3091708 16 9117536887329150283
352729 6 18049733111084660215
5845 1 7972760367297634270
58807428 26 18264481961326767248
7364860 26 18341055120607402175
81228 2 17328033572806050230
84936 182 18342171142469921705

>  <PUBCHEM_SHAPE_MULTIPOLES>  (1) 
366.71
5.17
4.99
1.36
2.69
3.79
0.08
-4.01
-0.39
-2.69
-1.03
0.03
-0.08
0.1

>  <PUBCHEM_SHAPE_SELFOVERLAP>  (1) 
687.271

>  <PUBCHEM_SHAPE_VOLUME>  (1) 
224.2

>  <PUBCHEM_COORDINATE_TYPE>  (1) 
2
5
10

$$$$
