32460
     RDKit          3D

 25 26  0  0  0  0  0  0  0  0999 V2000
   -5.7980   -1.7950   -1.3181 Cl  0  0  0  0  0  0  0  0  0  0  0  0
   -4.0090   -3.7819   -0.2420 Cl  0  0  0  0  0  0  0  0  0  0  0  0
   -5.3947   -2.0166    1.5720 Cl  0  0  0  0  0  0  0  0  0  0  0  0
   -3.9544    2.8518    1.7753 Cl  0  0  0  0  0  0  0  0  0  0  0  0
   -1.8067    3.7113    0.0561 Cl  0  0  0  0  0  0  0  0  0  0  0  0
   -4.3693    3.0834   -1.1125 Cl  0  0  0  0  0  0  0  0  0  0  0  0
    0.3686   -0.9783   -0.6316 S   0  0  0  0  0  0  0  0  0  0  0  0
    7.5489    0.2158   -0.9889 O   0  0  0  0  0  0  0  0  0  0  0  0
    7.5058   -0.9883    0.8462 O   0  0  0  0  0  0  0  0  0  0  0  0
   -1.5559    0.8229   -0.2136 N   0  0  0  0  0  0  0  0  0  0  0  0
   -2.2332   -1.4771   -0.3073 N   0  0  0  0  0  0  0  0  0  0  0  0
   -3.8676    0.2410    0.0604 N   0  0  0  0  0  0  0  0  0  0  0  0
    6.9238   -0.3171   -0.0402 N   0  0  0  0  0  0  0  0  0  0  0  0
    2.7473    0.1625    0.1752 C   0  0  0  0  0  0  0  0  0  0  0  0
    1.2678    0.3331    0.2513 C   0  0  0  0  0  0  0  0  0  0  0  0
    3.4633    0.7457   -0.8701 C   0  0  0  0  0  0  0  0  0  0  0  0
    3.4152   -0.5797    1.1493 C   0  0  0  0  0  0  0  0  0  0  0  0
   -1.3293   -0.4898   -0.3522 C   0  0  0  0  0  0  0  0  0  0  0  0
    5.5152   -0.1555    0.0326 C   0  0  0  0  0  0  0  0  0  0  0  0
    4.8473    0.5867   -0.9413 C   0  0  0  0  0  0  0  0  0  0  0  0
    4.7991   -0.7387    1.0780 C   0  0  0  0  0  0  0  0  0  0  0  0
   -2.8506    1.1150   -0.0097 C   0  0  0  0  0  0  0  0  0  0  0  0
   -3.4841   -1.0363   -0.0971 C   0  0  0  0  0  0  0  0  0  0  0  0
   -4.5555   -2.0709   -0.0305 C   0  0  0  0  0  0  0  0  0  0  0  0
   -3.1942    2.5559    0.1588 C   0  0  0  0  0  0  0  0  0  0  0  0
  1 24  1  0
  2 24  1  0
  3 24  1  0
  4 25  1  0
  5 25  1  0
  6 25  1  0
  7 15  1  0
  7 18  1  0
  8 13  1  0
  9 13  2  0
 10 18  2  0
 10 22  1  0
 11 18  1  0
 11 23  2  0
 12 22  2  0
 12 23  1  0
 13 19  1  0
 14 15  1  0
 14 16  2  0
 14 17  1  0
 16 20  1  0
 17 21  2  0
 19 20  2  0
 19 21  1  0
 22 25  1  0
 23 24  1  0
M  CHG  2   8  -1  13   1
M  END
>  <PUBCHEM_COMPOUND_CID>  (1) 
32460

>  <PUBCHEM_CONFORMER_RMSD>  (1) 
0.8

>  <PUBCHEM_CONFORMER_DIVERSEORDER>  (1) 
1
17
3
4
13
12
14
21
25
20
10
11
2
23
18
19
8
22
5
16
24
6
7
9
15

>  <PUBCHEM_MMFF94_PARTIAL_CHARGES>  (1) 
29
1 -0.29
10 -0.62
11 -0.62
12 -0.62
13 0.91
14 -0.14
15 0.37
16 -0.15
17 -0.15
18 0.72
19 0.13
2 -0.29
20 -0.15
21 -0.15
22 0.48
23 0.48
24 1.01
25 1.01
28 0.15
29 0.15
3 -0.29
30 0.15
31 0.15
4 -0.29
5 -0.29
6 -0.29
7 -0.33
8 -0.52
9 -0.52

>  <PUBCHEM_EFFECTIVE_ROTOR_COUNT>  (1) 
6

>  <PUBCHEM_PHARMACOPHORE_FEATURES>  (1) 
8
1 8 acceptor
1 8 anion
1 9 acceptor
3 10 11 18 cation
3 10 12 22 cation
3 11 12 23 cation
6 10 11 12 18 22 23 rings
6 14 16 17 19 20 21 rings

>  <PUBCHEM_HEAVY_ATOM_COUNT>  (1) 
25

>  <PUBCHEM_ATOM_DEF_STEREO_COUNT>  (1) 
0

>  <PUBCHEM_ATOM_UDEF_STEREO_COUNT>  (1) 
0

>  <PUBCHEM_BOND_DEF_STEREO_COUNT>  (1) 
0

>  <PUBCHEM_BOND_UDEF_STEREO_COUNT>  (1) 
0

>  <PUBCHEM_ISOTOPIC_ATOM_COUNT>  (1) 
0

>  <PUBCHEM_COMPONENT_COUNT>  (1) 
1

>  <PUBCHEM_CACTVS_TAUTO_COUNT>  (1) 
1

>  <PUBCHEM_CONFORMER_ID>  (1) 
00007ECC00000001

>  <PUBCHEM_MMFF94_ENERGY>  (1) 
54.855

>  <PUBCHEM_FEATURE_SELFOVERLAP>  (1) 
43.46

>  <PUBCHEM_SHAPE_FINGERPRINT>  (1) 
10411042 1 18267020755873090967
10595046 47 18333732442603218012
10670039 82 18410291402569056876
10912923 1 17967527952978536936
11056379 131 18411421713296757167
11101153 10 18264774427041106724
11315181 36 17894632577681500350
11524674 6 16773519961863049559
11545043 162 18131627885680578536
12107183 9 17757260488613948810
12166972 35 17676770988688807228
12236239 1 18187082837386526172
12403259 415 17632570561692173816
12596602 18 18259703415489960244
12760667 363 18340484569226777935
12788726 201 18334005104159747571
13073987 5 18408881841932213482
13631057 29 18411696608399466075
13782708 43 17704071832695557590
14844126 61 18408325497601830299
14856354 85 18339084894639864231
15250474 111 18187914059002414482
1577012 14 18114185212243993196
15876981 60 18261116274530144037
17844677 252 18342178899243733176
18927931 339 18412265068996635239
19427546 20 18333729109492604589
20101258 96 18337676412176624201
21033648 29 17059760153517203490
21065198 48 18187076222662318722
21236236 1 18411699876784974293
21267235 1 18335425707046647714
2297311 6 18342178890120827599
23081809 10 17821730525308302114
23557571 272 18131080324637339197
23559900 14 18192985152847735897
249057 25 18041003968593119388
4015057 19 14201684220839071255
4214541 1 18409446968806644020
4409770 3 18408878535029006751
497634 4 18040711476386900031
5104073 3 18341048506753776082
5969126 39 18202272637700216807
6327066 14 18045494215083478581

>  <PUBCHEM_SHAPE_MULTIPOLES>  (1) 
497.89
18.09
3.8
1.26
33.56
1.84
0.28
-6.36
0.11
-9.63
0.14
-0.71
0.14
-0.96

>  <PUBCHEM_SHAPE_SELFOVERLAP>  (1) 
977.814

>  <PUBCHEM_SHAPE_VOLUME>  (1) 
301.7

>  <PUBCHEM_COORDINATE_TYPE>  (1) 
2
5
10

$$$$
