3247
     RDKit          3D

 20 23  0  0  1  0  0  0  0  0999 V2000
    5.0122    0.9818    0.2438 O   0  0  0  0  0  0  0  0  0  0  0  0
   -5.8462    0.2913    0.0503 O   0  0  0  0  0  0  0  0  0  0  0  0
    2.7035    0.2746    0.5666 C   0  0  0  0  0  0  0  0  0  0  0  0
    2.0465   -0.9201   -0.1685 C   0  0  0  0  0  0  0  0  0  0  0  0
    1.9568    1.6014    0.3391 C   0  0  0  0  0  0  0  0  0  0  0  0
   -0.1656    0.3888   -0.3589 C   0  0  0  0  0  0  0  0  0  0  0  0
    0.5382   -0.9223   -0.0683 C   0  0  0  0  0  0  0  0  0  0  0  0
    2.5876   -0.8291   -1.6006 C   0  0  0  0  0  0  0  0  0  0  0  0
    0.4445    1.4801    0.5435 C   0  0  0  0  0  0  0  0  0  0  0  0
    4.0467    0.3393   -0.1516 C   0  0  0  0  0  0  0  0  0  0  0  0
    4.0613   -0.4847   -1.4164 C   0  0  0  0  0  0  0  0  0  0  0  0
    2.8935   -0.0191    2.0560 C   0  0  0  0  0  0  0  0  0  0  0  0
   -1.6813    0.3407   -0.2341 C   0  0  0  0  0  0  0  0  0  0  0  0
   -0.1239   -2.0214    0.3277 C   0  0  0  0  0  0  0  0  0  0  0  0
   -1.6044   -2.0890    0.5156 C   0  0  0  0  0  0  0  0  0  0  0  0
   -2.3491   -0.8246    0.1800 C   0  0  0  0  0  0  0  0  0  0  0  0
   -2.4444    1.4717   -0.5766 C   0  0  0  0  0  0  0  0  0  0  0  0
   -3.7507   -0.8265    0.2779 C   0  0  0  0  0  0  0  0  0  0  0  0
   -3.8359    1.4577   -0.4788 C   0  0  0  0  0  0  0  0  0  0  0  0
   -4.4892    0.3094   -0.0467 C   0  0  0  0  0  0  0  0  0  0  0  0
  1 10  2  0
  2 20  1  0
  3  4  1  0
  3  5  1  0
  3 10  1  0
  3 12  1  0
  4  7  1  0
  4  8  1  0
  5  9  1  0
  6  7  1  0
  6  9  1  0
  6 13  1  0
  7 14  2  0
  8 11  1  0
 10 11  1  0
 13 16  2  0
 13 17  1  0
 14 15  1  0
 15 16  1  0
 16 18  1  0
 17 19  2  0
 18 20  2  0
 19 20  1  0
M  END
>  <PUBCHEM_COMPOUND_CID>  (1) 
3247

>  <PUBCHEM_CONFORMER_RMSD>  (1) 
0.6

>  <PUBCHEM_CONFORMER_DIVERSEORDER>  (1) 
1
3
4
5
7
2
6
8

>  <PUBCHEM_MMFF94_PARTIAL_CHARGES>  (1) 
21
1 -0.57
10 0.45
11 0.06
13 -0.14
14 -0.29
15 0.28
16 -0.14
17 -0.15
18 -0.15
19 -0.15
2 -0.53
20 0.08
3 0.06
34 0.15
37 0.15
38 0.15
39 0.15
4 0.14
40 0.45
6 0.28
7 -0.28

>  <PUBCHEM_EFFECTIVE_ROTOR_COUNT>  (1) 
1

>  <PUBCHEM_PHARMACOPHORE_FEATURES>  (1) 
6
1 1 acceptor
1 2 donor
5 3 4 8 10 11 rings
6 13 16 17 18 19 20 rings
6 3 4 5 6 7 9 rings
6 6 7 13 14 15 16 rings

>  <PUBCHEM_HEAVY_ATOM_COUNT>  (1) 
20

>  <PUBCHEM_ATOM_DEF_STEREO_COUNT>  (1) 
0

>  <PUBCHEM_ATOM_UDEF_STEREO_COUNT>  (1) 
3

>  <PUBCHEM_BOND_DEF_STEREO_COUNT>  (1) 
0

>  <PUBCHEM_BOND_UDEF_STEREO_COUNT>  (1) 
0

>  <PUBCHEM_ISOTOPIC_ATOM_COUNT>  (1) 
0

>  <PUBCHEM_COMPONENT_COUNT>  (1) 
1

>  <PUBCHEM_CACTVS_TAUTO_COUNT>  (1) 
18

>  <PUBCHEM_CONFORMER_ID>  (1) 
00000CAF00000001

>  <PUBCHEM_MMFF94_ENERGY>  (1) 
47.3595

>  <PUBCHEM_FEATURE_SELFOVERLAP>  (1) 
30.634

>  <PUBCHEM_SHAPE_FINGERPRINT>  (1) 
10366900 7 17418095433768221912
10498660 4 18261954033797463733
10646746 165 18407759235384351133
10759866 29 17749391434175430962
11132069 177 18341609339187768203
11471102 20 17989490718954474110
11578080 2 16341999121460696051
12011746 2 18410295804483248053
12236239 1 16877662370092075263
12403259 415 18410005538257641085
12403814 3 16950278499331752877
12670546 56 14056997196696083439
12730499 353 18202009815229045111
12788726 201 18272651195182580128
12916748 109 18335707130678786729
13134695 92 16988846068847197848
13140716 1 18190463955505305115
13533116 47 16200156456605268903
13538477 17 17313671558782711986
13544592 145 18342466915244639174
13583140 156 16443060621480147741
13760787 19 17167867482028310946
14115302 16 18260278464070511388
14386348 63 18273501177863039870
15196674 1 18336544919889623667
15375358 24 18272088314201108270
15848702 151 17203057287482634159
1601671 61 18334014964745152261
16945 1 18335976545033986811
17804303 29 18335985363028964001
18186145 218 18201721721738866547
19784866 240 15195018093821611734
200 152 16559033774582139635
20233049 118 18333170565964547700
20279233 1 18343306972129590950
20510252 161 18412545375415063737
20645477 70 17489596614993666742
21033648 29 17917982863503411065
21267235 1 18410020948568150439
21279426 13 18197220239235019660
21285901 2 18059305253442796844
221357 26 18060420175492461889
22892500 29 16630520765509633440
23402539 116 18411129268593641102
23493267 7 17676785213747293058
23557571 272 18200315558047120887
23559900 14 18412831261834708486
2748010 2 18268148836657643971
296302 2 18201439207306119758
3004659 81 18260553269490993006
3323516 105 18271529701959168207
4340502 62 15936415541514512009
495365 180 17203316845515578898
4990 188 18130792226309303167
5104073 3 18116436943063830777
633830 44 18343015584489836565
69090 78 18130784581731921807
7495541 125 16588601906107236533
77492 1 17022619801671609446
9709674 26 18269838773287344567

>  <PUBCHEM_SHAPE_MULTIPOLES>  (1) 
399.85
9.46
1.78
1.17
4.37
0.29
0.11
-2.04
-0.73
0.57
0.12
-1.34
0.11
0.85

>  <PUBCHEM_SHAPE_SELFOVERLAP>  (1) 
883.332

>  <PUBCHEM_SHAPE_VOLUME>  (1) 
213.9

>  <PUBCHEM_COORDINATE_TYPE>  (1) 
2
5
10

$$$$
