32477
     RDKit          3D

 11 12  0  0  0  0  0  0  0  0999 V2000
    1.3563   -1.7523    0.0410 S   0  0  0  0  0  0  0  0  0  0  0  0
    1.3563    1.7523   -0.0413 S   0  0  0  0  0  0  0  0  0  0  0  0
   -1.7227   -2.2940    0.0642 O   0  0  0  0  0  0  0  0  0  0  0  0
   -1.7228    2.2940   -0.0641 O   0  0  0  0  0  0  0  0  0  0  0  0
   -2.1190    0.0000   -0.0002 N   0  0  0  0  0  0  0  0  0  0  0  0
    0.0479   -0.6665    0.0123 C   0  0  0  0  0  0  0  0  0  0  0  0
    0.0479    0.6665   -0.0120 C   0  0  0  0  0  0  0  0  0  0  0  0
    2.7303   -0.6450   -0.4058 C   0  0  0  0  0  0  0  0  0  0  0  0
    2.7303    0.6451    0.4059 C   0  0  0  0  0  0  0  0  0  0  0  0
   -1.3523   -1.1333    0.0305 C   0  0  0  0  0  0  0  0  0  0  0  0
   -1.3522    1.1334   -0.0305 C   0  0  0  0  0  0  0  0  0  0  0  0
  1  6  1  0
  1  8  1  0
  2  7  1  0
  2  9  1  0
  3 10  2  0
  4 11  2  0
  5 10  1  0
  5 11  1  0
  6  7  2  0
  6 10  1  0
  7 11  1  0
  8  9  1  0
M  END
>  <PUBCHEM_COMPOUND_CID>  (1) 
32477

>  <PUBCHEM_CONFORMER_RMSD>  (1) 
0.4

>  <PUBCHEM_CONFORMER_DIVERSEORDER>  (1) 
1

>  <PUBCHEM_MMFF94_PARTIAL_CHARGES>  (1) 
12
1 -0.33
10 0.62
11 0.62
16 0.37
2 -0.33
3 -0.57
4 -0.57
5 -0.49
6 0.12
7 0.12
8 0.23
9 0.23

>  <PUBCHEM_EFFECTIVE_ROTOR_COUNT>  (1) 
1

>  <PUBCHEM_PHARMACOPHORE_FEATURES>  (1) 
5
1 3 acceptor
1 4 acceptor
1 5 donor
5 5 6 7 10 11 rings
6 1 2 6 7 8 9 rings

>  <PUBCHEM_HEAVY_ATOM_COUNT>  (1) 
11

>  <PUBCHEM_ATOM_DEF_STEREO_COUNT>  (1) 
0

>  <PUBCHEM_ATOM_UDEF_STEREO_COUNT>  (1) 
0

>  <PUBCHEM_BOND_DEF_STEREO_COUNT>  (1) 
0

>  <PUBCHEM_BOND_UDEF_STEREO_COUNT>  (1) 
0

>  <PUBCHEM_ISOTOPIC_ATOM_COUNT>  (1) 
0

>  <PUBCHEM_COMPONENT_COUNT>  (1) 
1

>  <PUBCHEM_CACTVS_TAUTO_COUNT>  (1) 
2

>  <PUBCHEM_CONFORMER_ID>  (1) 
00007EDD00000001

>  <PUBCHEM_MMFF94_ENERGY>  (1) 
18.5334

>  <PUBCHEM_FEATURE_SELFOVERLAP>  (1) 
25.417

>  <PUBCHEM_SHAPE_FINGERPRINT>  (1) 
12423570 1 17845096340724574742
12524768 44 18126570020223199518
12716758 59 18339645521083809198
12897270 3 18338796822661250294
13380535 76 18339914918369793031
16945 1 18410012139078471430
193761 8 18410575088963320967
19973954 147 18411139164530606660
20645477 70 16896226816970236911
20871998 184 18200597015548251718
21040471 1 18265615381652759892
2334 1 17977948217262767239
23552423 10 18189336930005820326
23559900 14 18198911297937991302
241688 4 18266179624233036619
2748010 2 18122341551752609223
5084963 1 18129668628852980170
66348 1 18267021665698957558

>  <PUBCHEM_SHAPE_MULTIPOLES>  (1) 
217.35
3.47
2.42
0.64
1.14
0
0
0
0
-0.67
0
0.15
0
0.16

>  <PUBCHEM_SHAPE_SELFOVERLAP>  (1) 
442.395

>  <PUBCHEM_SHAPE_VOLUME>  (1) 
127.5

>  <PUBCHEM_COORDINATE_TYPE>  (1) 
2
5
10

$$$$
