32471
     RDKit          3D

 19 19  0  0  0  0  0  0  0  0999 V2000
    3.9364   -1.8754    1.1091 Cl  0  0  0  0  0  0  0  0  0  0  0  0
    2.0400   -3.7822    0.0726 Cl  0  0  0  0  0  0  0  0  0  0  0  0
    3.3665   -1.9899   -1.7593 Cl  0  0  0  0  0  0  0  0  0  0  0  0
    2.0412    2.9151   -1.7229 Cl  0  0  0  0  0  0  0  0  0  0  0  0
    0.0157    3.7666    0.1423 Cl  0  0  0  0  0  0  0  0  0  0  0  0
    2.6229    3.0395    1.1427 Cl  0  0  0  0  0  0  0  0  0  0  0  0
   -2.2363   -0.8909    0.8004 S   0  0  0  0  0  0  0  0  0  0  0  0
   -0.2930    0.8775    0.3323 N   0  0  0  0  0  0  0  0  0  0  0  0
    0.3298   -1.4396    0.3130 N   0  0  0  0  0  0  0  0  0  0  0  0
    1.9842    0.2508   -0.0911 N   0  0  0  0  0  0  0  0  0  0  0  0
   -4.6656    0.3358    0.1667 C   0  0  0  0  0  0  0  0  0  0  0  0
   -5.2423   -0.9221   -0.4885 C   0  0  0  0  0  0  0  0  0  0  0  0
   -3.1504    0.4683    0.0141 C   0  0  0  0  0  0  0  0  0  0  0  0
   -6.7603   -0.9487   -0.3931 C   0  0  0  0  0  0  0  0  0  0  0  0
   -0.5444   -0.4333    0.4409 C   0  0  0  0  0  0  0  0  0  0  0  0
    0.9953    1.1456    0.0647 C   0  0  0  0  0  0  0  0  0  0  0  0
    1.5778   -1.0217    0.0466 C   0  0  0  0  0  0  0  0  0  0  0  0
    2.6170   -2.0783   -0.1142 C   0  0  0  0  0  0  0  0  0  0  0  0
    1.3655    2.5830   -0.0763 C   0  0  0  0  0  0  0  0  0  0  0  0
  1 18  1  0
  2 18  1  0
  3 18  1  0
  4 19  1  0
  5 19  1  0
  6 19  1  0
  7 13  1  0
  7 15  1  0
  8 15  2  0
  8 16  1  0
  9 15  1  0
  9 17  2  0
 10 16  2  0
 10 17  1  0
 11 12  1  0
 11 13  1  0
 12 14  1  0
 16 19  1  0
 17 18  1  0
M  END
>  <PUBCHEM_COMPOUND_CID>  (1) 
32471

>  <PUBCHEM_CONFORMER_RMSD>  (1) 
0.8

>  <PUBCHEM_CONFORMER_DIVERSEORDER>  (1) 
1
10
26
4
22
16
25
6
28
5
27
3
8
7
14
23
17
24
11
15
21
2
9
13
12
19
29
20
18
30

>  <PUBCHEM_MMFF94_PARTIAL_CHARGES>  (1) 
16
1 -0.29
10 -0.62
13 0.23
15 0.72
16 0.48
17 0.48
18 1.01
19 1.01
2 -0.29
3 -0.29
4 -0.29
5 -0.29
6 -0.29
7 -0.33
8 -0.62
9 -0.62

>  <PUBCHEM_EFFECTIVE_ROTOR_COUNT>  (1) 
6

>  <PUBCHEM_PHARMACOPHORE_FEATURES>  (1) 
6
1 14 hydrophobe
3 8 10 16 cation
3 8 9 15 cation
3 9 10 17 cation
4 7 11 12 13 hydrophobe
6 8 9 10 15 16 17 rings

>  <PUBCHEM_HEAVY_ATOM_COUNT>  (1) 
19

>  <PUBCHEM_ATOM_DEF_STEREO_COUNT>  (1) 
0

>  <PUBCHEM_ATOM_UDEF_STEREO_COUNT>  (1) 
0

>  <PUBCHEM_BOND_DEF_STEREO_COUNT>  (1) 
0

>  <PUBCHEM_BOND_UDEF_STEREO_COUNT>  (1) 
0

>  <PUBCHEM_ISOTOPIC_ATOM_COUNT>  (1) 
0

>  <PUBCHEM_COMPONENT_COUNT>  (1) 
1

>  <PUBCHEM_CACTVS_TAUTO_COUNT>  (1) 
1

>  <PUBCHEM_CONFORMER_ID>  (1) 
00007ED700000001

>  <PUBCHEM_MMFF94_ENERGY>  (1) 
25.2666

>  <PUBCHEM_FEATURE_SELFOVERLAP>  (1) 
33.234

>  <PUBCHEM_SHAPE_FINGERPRINT>  (1) 
10693767 8 18130518491249042278
12553582 1 18193016840679109378
12730499 353 18192159411215226251
13009979 54 17774173301247782537
13533116 47 18412267277062914559
13955234 65 18341331201627370491
14170010 4 18410851092246765737
14178000 15 18412262809527150833
14178000 29 18129670690179183415
14863182 85 18337951311036294868
15042514 8 17473546850025157570
15342816 4 18197223555098010870
15848700 24 18338518525881496626
17134986 127 17903366140291177020
17844677 252 18410859855008580579
1813 80 18200320900764696559
18222031 100 18270967838427101486
20369508 70 18408601444317547939
20388580 30 18341898463464361815
20645477 70 18410011065859218195
20671657 1 18341053012147783281
20671657 53 18339925896680884435
21054139 6 17697584847430350511
21304303 282 16907754036439589868
21478907 32 17832706768835612691
21524375 3 17690573300197305928
221357 26 18334852780659424317
221490 88 18335989761329046707
2255824 54 18409731785136113583
23419403 2 17971443300947774620
23557571 272 17981327790428222014
23559900 14 18410006680724061091
23598291 2 18130245778126667569
2748010 2 18048055235066395074
3060560 45 18196095662162812549
3091708 16 9071322227728572704
312423 11 18272103694906380329
3286 77 18333727997090572799
3421961 26 18411414003830233433
352729 6 17329996205514853338
3886686 26 16315238769857677562
5104073 3 18411141359939325891
5281201 14 18335135393728654373
59755656 215 18336545026995164068
6025842 7 18339641256513652351
7164475 11 17829898633465945446
7364860 26 18412544348759397016
7471813 234 18343577422115286729
81228 2 17903087629279055522
9709674 26 18263083370200350035
9841814 1 18334575724307522466

>  <PUBCHEM_SHAPE_MULTIPOLES>  (1) 
391.14
9.69
4.69
1.2
22.61
2.4
0.4
-5.92
1.39
-6.04
0.2
-1.19
0.18
-0.07

>  <PUBCHEM_SHAPE_SELFOVERLAP>  (1) 
714.489

>  <PUBCHEM_SHAPE_VOLUME>  (1) 
250.1

>  <PUBCHEM_COORDINATE_TYPE>  (1) 
2
5
10

$$$$
