32481
     RDKit          3D

 22 24  0  0  1  0  0  0  0  0999 V2000
   -0.6289    2.4932   -0.5883 O   0  0  0  0  0  0  0  0  0  0  0  0
    0.2071   -0.3359   -0.4855 N   0  0  0  0  0  0  0  0  0  0  0  0
   -3.5011   -0.3894   -0.0321 N   0  0  0  0  0  0  0  0  0  0  0  0
    2.2446    0.3699    0.0542 C   0  0  0  0  0  0  0  0  0  0  0  0
    0.9610    0.7814   -0.2488 C   0  0  0  0  0  0  0  0  0  0  0  0
    1.5774    3.1971    0.0878 C   0  0  0  0  0  0  0  0  0  0  0  0
    3.3381    1.3324    0.3641 C   0  0  0  0  0  0  0  0  0  0  0  0
    3.0111    2.7139   -0.2273 C   0  0  0  0  0  0  0  0  0  0  0  0
    2.2663   -1.0530    0.0101 C   0  0  0  0  0  0  0  0  0  0  0  0
    0.5181    2.1559   -0.3039 C   0  0  0  0  0  0  0  0  0  0  0  0
    0.9762   -1.4684   -0.3313 C   0  0  0  0  0  0  0  0  0  0  0  0
   -1.1953   -0.3469   -0.8495 C   0  0  0  0  0  0  0  0  0  0  0  0
   -2.1020   -0.4060    0.3765 C   0  0  0  0  0  0  0  0  0  0  0  0
    1.4013    3.5671    1.5583 C   0  0  0  0  0  0  0  0  0  0  0  0
    3.2571   -2.0320    0.2269 C   0  0  0  0  0  0  0  0  0  0  0  0
    0.6291   -2.8175   -0.4673 C   0  0  0  0  0  0  0  0  0  0  0  0
    2.9235   -3.3846    0.0940 C   0  0  0  0  0  0  0  0  0  0  0  0
    1.6289   -3.7691   -0.2478 C   0  0  0  0  0  0  0  0  0  0  0  0
   -3.8063    0.8328   -0.7782 C   0  0  0  0  0  0  0  0  0  0  0  0
   -4.3804   -0.5054    1.1329 C   0  0  0  0  0  0  0  0  0  0  0  0
   -5.2445    0.8326   -1.2677 C   0  0  0  0  0  0  0  0  0  0  0  0
   -4.0812   -1.7680    1.9230 C   0  0  0  0  0  0  0  0  0  0  0  0
  1 10  2  0
  2  5  1  0
  2 11  1  0
  2 12  1  0
  3 13  1  0
  3 19  1  0
  3 20  1  0
  4  5  2  0
  4  7  1  0
  4  9  1  0
  5 10  1  0
  6  8  1  0
  6 10  1  0
  6 14  1  0
  7  8  1  0
  9 11  2  0
  9 15  1  0
 11 16  1  0
 12 13  1  0
 15 17  2  0
 16 18  2  0
 17 18  1  0
 19 21  1  0
 20 22  1  0
M  END
>  <PUBCHEM_COMPOUND_CID>  (1) 
32481

>  <PUBCHEM_CONFORMER_RMSD>  (1) 
0.8

>  <PUBCHEM_CONFORMER_DIVERSEORDER>  (1) 
3
12
13
11
7
6
10
9
5
8
2
1
4

>  <PUBCHEM_MMFF94_PARTIAL_CHARGES>  (1) 
21
1 -0.57
10 0.59
11 -0.15
12 0.26
13 0.27
15 -0.15
16 -0.15
17 -0.15
18 -0.15
19 0.27
2 0.05
20 0.27
3 -0.81
35 0.15
36 0.15
37 0.15
4 -0.18
42 0.15
5 -0.24
6 0.06
7 0.18

>  <PUBCHEM_EFFECTIVE_ROTOR_COUNT>  (1) 
5.6

>  <PUBCHEM_PHARMACOPHORE_FEATURES>  (1) 
6
1 1 acceptor
1 2 cation
1 3 cation
5 2 4 5 9 11 rings
6 4 5 6 7 8 10 rings
6 9 11 15 16 17 18 rings

>  <PUBCHEM_HEAVY_ATOM_COUNT>  (1) 
22

>  <PUBCHEM_ATOM_DEF_STEREO_COUNT>  (1) 
0

>  <PUBCHEM_ATOM_UDEF_STEREO_COUNT>  (1) 
1

>  <PUBCHEM_BOND_DEF_STEREO_COUNT>  (1) 
0

>  <PUBCHEM_BOND_UDEF_STEREO_COUNT>  (1) 
0

>  <PUBCHEM_ISOTOPIC_ATOM_COUNT>  (1) 
0

>  <PUBCHEM_COMPONENT_COUNT>  (1) 
1

>  <PUBCHEM_CACTVS_TAUTO_COUNT>  (1) 
2

>  <PUBCHEM_CONFORMER_ID>  (1) 
00007EE100000003

>  <PUBCHEM_MMFF94_ENERGY>  (1) 
37.8314

>  <PUBCHEM_FEATURE_SELFOVERLAP>  (1) 
30.62

>  <PUBCHEM_SHAPE_FINGERPRINT>  (1) 
10064457 181 17836094737522271400
10165383 225 17977403937580219597
10411042 1 17979630143805334926
10493431 412 17979640353174342128
10967382 1 18411412895844813118
1100329 8 18268425905784002946
11582403 64 16599212231933071013
116883 192 17908138772337558679
12553582 1 18123767352062219207
12788726 201 17615401459659310627
13134695 92 18341041909419855781
13140716 1 18051122889972641456
13533116 47 18412546514335348785
13583140 156 18409731785684668551
138480 1 18339356345273051916
14178342 30 17186423085657727280
14790565 3 18337960116146948436
14866123 147 18051126201677081330
14955137 171 18411703188653509914
15475509 84 18055091877762260753
15927050 60 18124032592969607254
16945 1 18266724939689160812
19591789 44 18121782987361704414
20645477 70 18336254687606614975
20681677 76 18335420184235689223
20739085 24 18336278889589299536
21033648 29 18053657259753708785
21041028 32 18196933271374919230
21197605 99 17759821625111304563
21524375 3 17840874288887613125
221490 88 18335705987858601559
2334 1 17545308044723919580
23558518 356 17185597910412150862
23559900 14 18259703367733292479
23845131 108 18050567649216946019
2748010 2 17689143935413682012
3091708 16 9215997080086814574
3178227 256 18265069087883329728
350125 39 17834398199886422522
3886686 26 17335299081972850992
495365 180 18268411577509671173
54173680 148 17474387972558202286
6443956 14 18265613178176385710
7364860 26 18411416202616105644
7399639 24 18047195430285507737
7471813 234 17915721125240968965
7808743 9 17327746604757085556
81228 2 17619353104185409978
84936 182 18129653239806304385
9709674 26 18334290942880914959

>  <PUBCHEM_SHAPE_MULTIPOLES>  (1) 
436.92
7.78
4.76
1.16
12.02
0.21
0.4
0.72
0.61
-5.55
0.63
1.35
-0.15
1.51

>  <PUBCHEM_SHAPE_SELFOVERLAP>  (1) 
927.859

>  <PUBCHEM_SHAPE_VOLUME>  (1) 
247.3

>  <PUBCHEM_COORDINATE_TYPE>  (1) 
2
5
10

$$$$
