32487
     RDKit          3D

 16 16  0  0  0  0  0  0  0  0999 V2000
    3.7160    1.4862   -0.0005 F   0  0  0  0  0  0  0  0  0  0  0  0
    4.4718   -0.2458    1.0885 F   0  0  0  0  0  0  0  0  0  0  0  0
    4.4737   -0.2419   -1.0907 F   0  0  0  0  0  0  0  0  0  0  0  0
   -4.7281   -1.3206   -0.0025 O   0  0  0  0  0  0  0  0  0  0  0  0
    2.2227   -1.6905    0.0031 O   0  0  0  0  0  0  0  0  0  0  0  0
    1.3824    0.5116    0.0004 N   0  0  0  0  0  0  0  0  0  0  0  0
   -0.0019    0.3391    0.0011 C   0  0  0  0  0  0  0  0  0  0  0  0
   -2.7704   -0.0048    0.0005 C   0  0  0  0  0  0  0  0  0  0  0  0
   -0.8432    1.4518    0.0021 C   0  0  0  0  0  0  0  0  0  0  0  0
   -0.5451   -0.9458   -0.0003 C   0  0  0  0  0  0  0  0  0  0  0  0
   -2.2274    1.2799    0.0019 C   0  0  0  0  0  0  0  0  0  0  0  0
   -1.9294   -1.1177   -0.0006 C   0  0  0  0  0  0  0  0  0  0  0  0
   -4.2137   -0.1844   -0.0008 C   0  0  0  0  0  0  0  0  0  0  0  0
    2.3773   -0.4739   -0.0006 C   0  0  0  0  0  0  0  0  0  0  0  0
   -5.1391    1.0275   -0.0006 C   0  0  0  0  0  0  0  0  0  0  0  0
    3.7544    0.1292   -0.0011 C   0  0  0  0  0  0  0  0  0  0  0  0
  1 16  1  0
  2 16  1  0
  3 16  1  0
  4 13  2  0
  5 14  2  0
  6  7  1  0
  6 14  1  0
  7  9  2  0
  7 10  1  0
  8 11  2  0
  8 12  1  0
  8 13  1  0
  9 11  1  0
 10 12  2  0
 13 15  1  0
 14 16  1  0
M  END
>  <PUBCHEM_COMPOUND_CID>  (1) 
32487

>  <PUBCHEM_CONFORMER_RMSD>  (1) 
0.6

>  <PUBCHEM_CONFORMER_DIVERSEORDER>  (1) 
1
3
2
4

>  <PUBCHEM_MMFF94_PARTIAL_CHARGES>  (1) 
21
1 -0.34
10 -0.15
11 -0.15
12 -0.15
13 0.42
14 0.57
15 0.06
16 1.08
17 0.15
18 0.15
19 0.15
2 -0.34
20 0.15
21 0.37
3 -0.34
4 -0.57
5 -0.57
6 -0.55
7 0.12
8 0.09
9 -0.15

>  <PUBCHEM_EFFECTIVE_ROTOR_COUNT>  (1) 
4

>  <PUBCHEM_PHARMACOPHORE_FEATURES>  (1) 
4
1 4 acceptor
1 5 acceptor
1 6 donor
6 7 8 9 10 11 12 rings

>  <PUBCHEM_HEAVY_ATOM_COUNT>  (1) 
16

>  <PUBCHEM_ATOM_DEF_STEREO_COUNT>  (1) 
0

>  <PUBCHEM_ATOM_UDEF_STEREO_COUNT>  (1) 
0

>  <PUBCHEM_BOND_DEF_STEREO_COUNT>  (1) 
0

>  <PUBCHEM_BOND_UDEF_STEREO_COUNT>  (1) 
0

>  <PUBCHEM_ISOTOPIC_ATOM_COUNT>  (1) 
0

>  <PUBCHEM_COMPONENT_COUNT>  (1) 
1

>  <PUBCHEM_CACTVS_TAUTO_COUNT>  (1) 
9

>  <PUBCHEM_CONFORMER_ID>  (1) 
00007EE700000001

>  <PUBCHEM_MMFF94_ENERGY>  (1) 
39.1055

>  <PUBCHEM_FEATURE_SELFOVERLAP>  (1) 
20.297

>  <PUBCHEM_SHAPE_FINGERPRINT>  (1) 
11401426 45 18411415103658404701
12032990 46 18411141359522606523
12236239 1 17894630353384137654
13214271 11 18342736317563867087
13533116 47 17240756238337613514
13862211 1 18410287043193510835
14123238 8 17749108906815629671
14252887 29 17703519838865701694
15196674 1 18410856576846039013
15375358 24 18410013238753967355
15536298 74 18341896229807314582
17834072 33 18342737459571474013
200 152 18059855069238188921
20510252 161 18201440216692370273
20528008 55 18341610434045680585
20645477 70 18269836428151149399
21267235 1 18410865355812192918
22485316 2 18411417298170434583
23402539 116 18341886399106754501
23402655 69 18341327804229169653
23557571 272 18270127807317020628
23559900 14 18413108334190326630
42 15 18260546714494796691
474 4 17241618406152613596
4990 188 17988933249252813190
5104073 3 18409729590412886633
5374978 207 18408035217493724264
537710 114 18409453604309615780
542803 24 17312825974147755812
69090 78 18343016700991416247
77779 3 18411983546358026381
9709674 26 18410299094365503671

>  <PUBCHEM_SHAPE_MULTIPOLES>  (1) 
290.73
10.2
1.45
0.69
0.93
0.01
0
0.16
-0.01
-0.45
0
0.42
-0.01
0

>  <PUBCHEM_SHAPE_SELFOVERLAP>  (1) 
610.511

>  <PUBCHEM_SHAPE_VOLUME>  (1) 
164

>  <PUBCHEM_COORDINATE_TYPE>  (1) 
2
5
10

$$$$
