32490
     RDKit          3D

 13 12  0  0  0  0  0  0  0  0999 V2000
   -2.0637    0.2198   -0.3402 O   0  0  0  0  0  0  0  0  0  0  0  0
   -1.4305   -1.8769    0.3512 O   0  0  0  0  0  0  0  0  0  0  0  0
    3.4790    0.7489   -0.1849 N   0  0  0  0  0  0  0  0  0  0  0  0
    0.0762   -0.4143   -0.6376 N   0  0  0  0  0  0  0  0  0  0  0  0
    2.0481   -1.0762    0.6873 C   0  0  0  0  0  0  0  0  0  0  0  0
    2.5972    0.3373    0.9006 C   0  0  0  0  0  0  0  0  0  0  0  0
    1.2427   -1.2530   -0.5984 C   0  0  0  0  0  0  0  0  0  0  0  0
    4.6304   -0.1500   -0.2828 C   0  0  0  0  0  0  0  0  0  0  0  0
    3.9276    2.1288    0.0100 C   0  0  0  0  0  0  0  0  0  0  0  0
   -3.3971   -0.0400    0.1126 C   0  0  0  0  0  0  0  0  0  0  0  0
   -4.2573    1.1836   -0.1635 C   0  0  0  0  0  0  0  0  0  0  0  0
   -1.1652   -0.7939   -0.1600 C   0  0  0  0  0  0  0  0  0  0  0  0
   -5.6876    0.9861    0.3059 C   0  0  0  0  0  0  0  0  0  0  0  0
  1 10  1  0
  1 12  1  0
  2 12  2  0
  3  6  1  0
  3  8  1  0
  3  9  1  0
  4  7  1  0
  4 12  1  0
  5  6  1  0
  5  7  1  0
 10 11  1  0
 11 13  1  0
M  END
>  <PUBCHEM_COMPOUND_CID>  (1) 
32490

>  <PUBCHEM_CONFORMER_RMSD>  (1) 
0.8

>  <PUBCHEM_CONFORMER_DIVERSEORDER>  (1) 
1
189
145
204
144
59
214
157
180
135
28
113
183
4
203
169
158
44
188
219
147
190
41
91
185
213
53
162
13
17
195
175
191
82
33
161
48
36
205
122
120
87
148
111
206
95
72
75
22
3
197
139
119
100
108
15
114
207
51
152
94
208
8
209
211
2
181
149
199
187
23
50
26
130
43
166
88
20
125
140
184
68
116
129
124
71
55
35
31
70
9
103
215
134
165
210
133
168
11
96
179
21
174
18
176
69
52
212
86
78
19
16
126
172
37
110
137
98
159
123
171
62
164
93
109
90
117
194
74
138
186
216
92
202
128
79
5
57
167
173
99
146
153
154
196
200
156
136
104
42
102
89
218
27
127
193
38
39
10
81
163
217
177
142
60
29
170
76
80
67
132
63
66
30
118
47
61
46
12
49
121
64
40
107
106
160
32
143
151
201
155
56
115
24
131
112
85
65
101
198
6
105
34
25
97
58
192
141
150
54
178
7
77
83
14
73
45
84
182

>  <PUBCHEM_MMFF94_PARTIAL_CHARGES>  (1) 
11
1 -0.43
10 0.28
12 0.78
2 -0.57
20 0.37
3 -0.81
4 -0.73
6 0.27
7 0.3
8 0.27
9 0.27

>  <PUBCHEM_EFFECTIVE_ROTOR_COUNT>  (1) 
8

>  <PUBCHEM_PHARMACOPHORE_FEATURES>  (1) 
4
1 13 hydrophobe
1 2 acceptor
1 3 cation
1 4 donor

>  <PUBCHEM_HEAVY_ATOM_COUNT>  (1) 
13

>  <PUBCHEM_ATOM_DEF_STEREO_COUNT>  (1) 
0

>  <PUBCHEM_ATOM_UDEF_STEREO_COUNT>  (1) 
0

>  <PUBCHEM_BOND_DEF_STEREO_COUNT>  (1) 
0

>  <PUBCHEM_BOND_UDEF_STEREO_COUNT>  (1) 
0

>  <PUBCHEM_ISOTOPIC_ATOM_COUNT>  (1) 
0

>  <PUBCHEM_COMPONENT_COUNT>  (1) 
1

>  <PUBCHEM_CACTVS_TAUTO_COUNT>  (1) 
2

>  <PUBCHEM_CONFORMER_ID>  (1) 
00007EEA00000001

>  <PUBCHEM_MMFF94_ENERGY>  (1) 
9.7188

>  <PUBCHEM_FEATURE_SELFOVERLAP>  (1) 
20.297

>  <PUBCHEM_SHAPE_FINGERPRINT>  (1) 
100836 57 18411142432726509820
10354089 29 18113620079698170592
10447042 23 9151175316273928064
122479 349 18409729594649889211
12815109 37 8286196145573069308
14123255 352 18188202101400572477
14123260 362 17846506919848753929
1420 369 8214149568063335489
14251710 61 8213882395818266072
14252887 29 13912322344026624080
14445660 50 18113616823865033834
15501527 16 18410577296845673001
177051 138 8718558220113904192
17834072 32 18339644541594070784
17834072 8 18131359592364616198
20374829 77 10015579493906166917
20605781 2 18413388731130161545
20621476 66 18118404180289726820
20621476 91 17241346775736421753
20645477 56 18334862701617230959
20711983 171 18341891956805082406
20724930 31 7781512616079351527
21119208 17 15195562399126873497
212847 35 18272647922369449160
21354914 55 18408321086105868909
21501925 9 8646769997718860662
21652331 79 18408039598234155165
22485316 2 8214142953976794583
22959321 60 18187650253209117329
23402655 69 17775283858919494092
3060560 45 15482665767307181844
449060 50 18334295361974975063
449060 62 18272087167228594873
4990 188 13254792439017718077
633830 44 18335979874287730270

>  <PUBCHEM_SHAPE_MULTIPOLES>  (1) 
245.83
11.17
1.72
0.79
8.15
0.29
-0.06
6.44
-0.4
-0.82
-0.04
-0.25
-0.06
-0.02

>  <PUBCHEM_SHAPE_SELFOVERLAP>  (1) 
450.822

>  <PUBCHEM_SHAPE_VOLUME>  (1) 
157.2

>  <PUBCHEM_COORDINATE_TYPE>  (1) 
2
5
10

$$$$
