32507
     RDKit          3D

 18 17  0  0  1  0  0  0  0  0999 V2000
    0.1154    0.3826    0.0858 O   0  0  0  0  0  0  0  0  0  0  0  0
    1.0721    1.1707   -1.8520 O   0  0  0  0  0  0  0  0  0  0  0  0
   -3.4210   -0.5891   -0.3008 N   0  0  0  0  0  0  0  0  0  0  0  0
    2.4042    1.0563    0.1965 C   0  0  0  0  0  0  0  0  0  0  0  0
    2.8219   -0.3209    0.7915 C   0  0  0  0  0  0  0  0  0  0  0  0
    2.1041    2.0192    1.3811 C   0  0  0  0  0  0  0  0  0  0  0  0
    3.0865   -1.4299   -0.2368 C   0  0  0  0  0  0  0  0  0  0  0  0
    3.5436    1.6250   -0.6707 C   0  0  0  0  0  0  0  0  0  0  0  0
    1.1411    0.8889   -0.6615 C   0  0  0  0  0  0  0  0  0  0  0  0
    3.4166   -2.7541    0.4560 C   0  0  0  0  0  0  0  0  0  0  0  0
    1.6622    3.4253    0.9889 C   0  0  0  0  0  0  0  0  0  0  0  0
   -1.1180    0.1802   -0.6109 C   0  0  0  0  0  0  0  0  0  0  0  0
   -2.1418   -0.3829    0.3618 C   0  0  0  0  0  0  0  0  0  0  0  0
    3.7131   -3.8520   -0.5533 C   0  0  0  0  0  0  0  0  0  0  0  0
   -4.1398    0.6790   -0.4462 C   0  0  0  0  0  0  0  0  0  0  0  0
   -4.2396   -1.5517    0.4403 C   0  0  0  0  0  0  0  0  0  0  0  0
   -5.4459    0.4868   -1.1983 C   0  0  0  0  0  0  0  0  0  0  0  0
   -4.5747   -1.0333    1.8286 C   0  0  0  0  0  0  0  0  0  0  0  0
  1  9  1  0
  1 12  1  0
  2  9  2  0
  3 13  1  0
  3 15  1  0
  3 16  1  0
  4  5  1  0
  4  6  1  0
  4  8  1  0
  4  9  1  0
  5  7  1  0
  6 11  1  0
  7 10  1  0
 10 14  1  0
 12 13  1  0
 15 17  1  0
 16 18  1  0
M  END
>  <PUBCHEM_COMPOUND_CID>  (1) 
32507

>  <PUBCHEM_CONFORMER_RMSD>  (1) 
1.2

>  <PUBCHEM_CONFORMER_DIVERSEORDER>  (1) 
1
40
65
60
76
46
36
85
18
83
50
41
26
44
23
52
12
38
87
75
3
62
82
29
73
20
42
19
6
16
57
49
5
35
33
74
45
48
71
51
86
79
30
53
55
37
32
64
77
84
10
80
56
25
8
7
4
72
13
81
69
28
90
88
2
21
15
24
67
78
27
70
47
89
63
66
9
39
31
59
54
34
43
68
22
61
58
14
11
17

>  <PUBCHEM_MMFF94_PARTIAL_CHARGES>  (1) 
9
1 -0.43
12 0.28
13 0.27
15 0.27
16 0.27
2 -0.57
3 -0.81
4 0.06
9 0.66

>  <PUBCHEM_EFFECTIVE_ROTOR_COUNT>  (1) 
11

>  <PUBCHEM_PHARMACOPHORE_FEATURES>  (1) 
6
1 11 hydrophobe
1 14 hydrophobe
1 2 acceptor
1 3 cation
1 8 hydrophobe
5 4 5 6 7 10 hydrophobe

>  <PUBCHEM_HEAVY_ATOM_COUNT>  (1) 
18

>  <PUBCHEM_ATOM_DEF_STEREO_COUNT>  (1) 
0

>  <PUBCHEM_ATOM_UDEF_STEREO_COUNT>  (1) 
1

>  <PUBCHEM_BOND_DEF_STEREO_COUNT>  (1) 
0

>  <PUBCHEM_BOND_UDEF_STEREO_COUNT>  (1) 
0

>  <PUBCHEM_ISOTOPIC_ATOM_COUNT>  (1) 
0

>  <PUBCHEM_COMPONENT_COUNT>  (1) 
1

>  <PUBCHEM_CACTVS_TAUTO_COUNT>  (1) 
1

>  <PUBCHEM_CONFORMER_ID>  (1) 
00007EFB00000001

>  <PUBCHEM_MMFF94_ENERGY>  (1) 
24.3645

>  <PUBCHEM_FEATURE_SELFOVERLAP>  (1) 
30.483

>  <PUBCHEM_SHAPE_FINGERPRINT>  (1) 
11405975 8 18410013222037951793
12617007 42 17385446492532786678
13134695 92 18343011164741713564
13533116 47 18412822491474546963
13583140 156 18270676605853809079
13675066 3 18187079607328487473
13911882 115 17824280377770894370
13955234 65 18341895246465136354
14252887 29 18040438831884022424
14866123 147 17332245299335910843
18186145 218 17987807443983093281
20388580 30 18265337218655283310
20645477 70 18335975411342163783
20681651 13 17916585491994549411
20832881 197 18264206902868004203
21065201 7 17313098657901469915
21521721 280 18266474281440714172
2215653 11 18261386694730285919
22943178 12 18187078490541967027
23559900 14 18187080654878527773
268830 7 17632306721861970601
3421961 26 18340763754785524850
4463277 69 18339922602340995214
5207 123 18195241114015661598
633830 44 17240478126689579375
6443956 14 18339359635154788030
77188 2 18198899219972866552
9709674 26 18041002890303360459

>  <PUBCHEM_SHAPE_MULTIPOLES>  (1) 
353.71
10.55
3.55
1.37
14
1.44
0.12
4.94
-0.12
-6.32
0.58
0.73
-0.34
1.39

>  <PUBCHEM_SHAPE_SELFOVERLAP>  (1) 
661.975

>  <PUBCHEM_SHAPE_VOLUME>  (1) 
222.9

>  <PUBCHEM_COORDINATE_TYPE>  (1) 
2
5
10

$$$$
