32509
     RDKit          3D

 19 19  0  0  1  0  0  0  0  0999 V2000
   -0.5687    0.6358   -0.1403 O   0  0  0  0  0  0  0  0  0  0  0  0
   -1.4851    0.9153    1.9508 O   0  0  0  0  0  0  0  0  0  0  0  0
    3.1098    0.2916   -0.1083 N   0  0  0  0  0  0  0  0  0  0  0  0
   -2.9413    0.8797   -0.0145 C   0  0  0  0  0  0  0  0  0  0  0  0
   -3.1590   -0.4396   -0.8128 C   0  0  0  0  0  0  0  0  0  0  0  0
    4.1037    0.6153   -1.1414 C   0  0  0  0  0  0  0  0  0  0  0  0
    3.3621   -1.0336    0.4748 C   0  0  0  0  0  0  0  0  0  0  0  0
    5.5215    0.5985   -0.5678 C   0  0  0  0  0  0  0  0  0  0  0  0
    4.7556   -1.1046    1.1010 C   0  0  0  0  0  0  0  0  0  0  0  0
    5.8372   -0.7396    0.0905 C   0  0  0  0  0  0  0  0  0  0  0  0
   -2.9135    2.0565   -1.0316 C   0  0  0  0  0  0  0  0  0  0  0  0
    1.7572    0.3582   -0.6608 C   0  0  0  0  0  0  0  0  0  0  0  0
   -3.1393   -1.7268    0.0239 C   0  0  0  0  0  0  0  0  0  0  0  0
   -4.0871    1.0816    0.9956 C   0  0  0  0  0  0  0  0  0  0  0  0
   -1.6019    0.8172    0.7349 C   0  0  0  0  0  0  0  0  0  0  0  0
    0.7344    0.5594    0.4460 C   0  0  0  0  0  0  0  0  0  0  0  0
   -3.2883   -2.9629   -0.8661 C   0  0  0  0  0  0  0  0  0  0  0  0
   -2.6940    3.4404   -0.4292 C   0  0  0  0  0  0  0  0  0  0  0  0
   -3.3034   -4.2423   -0.0447 C   0  0  0  0  0  0  0  0  0  0  0  0
  1 15  1  0
  1 16  1  0
  2 15  2  0
  3  6  1  0
  3  7  1  0
  3 12  1  0
  4  5  1  0
  4 11  1  0
  4 14  1  0
  4 15  1  0
  5 13  1  0
  6  8  1  0
  7  9  1  0
  8 10  1  0
  9 10  1  0
 11 18  1  0
 12 16  1  0
 13 17  1  0
 17 19  1  0
M  END
>  <PUBCHEM_COMPOUND_CID>  (1) 
32509

>  <PUBCHEM_CONFORMER_RMSD>  (1) 
1

>  <PUBCHEM_CONFORMER_DIVERSEORDER>  (1) 
1
213
124
14
191
39
41
259
107
200
81
77
24
64
218
63
174
120
204
167
131
234
142
153
69
45
59
34
90
242
55
87
178
161
67
217
105
271
22
156
215
119
96
214
266
165
173
95
60
128
258
169
160
209
123
195
31
40
231
86
252
71
137
113
223
144
108
150
244
27
46
188
245
262
222
9
145
68
179
151
146
208
224
20
121
62
253
13
170
16
189
212
201
6
80
17
104
199
247
243
154
19
135
171
162
42
73
72
56
136
33
261
192
143
94
168
4
23
102
196
76
186
66
233
103
268
29
197
220
185
8
149
88
65
122
28
118
152
5
97
126
159
228
264
49
15
38
229
248
157
182
101
47
99
85
2
193
48
98
139
219
35
30
270
82
112
106
109
51
184
37
221
92
172
32
100
50
91
239
25
26
61
180
3
206
205
18
57
75
117
190
89
166
210
36
129
198
43
7
238
232
194
114
141
74
10
257
175
241
133
83
256
125
235
54
130
110
187
177
254
183
52
250
158
269
11
134
70
140
249
111
58
267
115
260
84
79
237
44
226
93
255
211
148
207
240
132
155
181
202
78
225
251
116
12
176
138
203
21
164
230
216
227
236
265
127
246
263
53
147
163

>  <PUBCHEM_MMFF94_PARTIAL_CHARGES>  (1) 
9
1 -0.43
12 0.27
15 0.66
16 0.28
2 -0.57
3 -0.81
4 0.06
6 0.27
7 0.27

>  <PUBCHEM_EFFECTIVE_ROTOR_COUNT>  (1) 
10.2

>  <PUBCHEM_PHARMACOPHORE_FEATURES>  (1) 
7
1 14 hydrophobe
1 18 hydrophobe
1 19 hydrophobe
1 2 acceptor
1 3 cation
5 4 5 11 13 17 hydrophobe
6 3 6 7 8 9 10 rings

>  <PUBCHEM_HEAVY_ATOM_COUNT>  (1) 
19

>  <PUBCHEM_ATOM_DEF_STEREO_COUNT>  (1) 
0

>  <PUBCHEM_ATOM_UDEF_STEREO_COUNT>  (1) 
1

>  <PUBCHEM_BOND_DEF_STEREO_COUNT>  (1) 
0

>  <PUBCHEM_BOND_UDEF_STEREO_COUNT>  (1) 
0

>  <PUBCHEM_ISOTOPIC_ATOM_COUNT>  (1) 
0

>  <PUBCHEM_COMPONENT_COUNT>  (1) 
1

>  <PUBCHEM_CACTVS_TAUTO_COUNT>  (1) 
1

>  <PUBCHEM_CONFORMER_ID>  (1) 
00007EFD00000001

>  <PUBCHEM_MMFF94_ENERGY>  (1) 
18.0218

>  <PUBCHEM_FEATURE_SELFOVERLAP>  (1) 
35.557

>  <PUBCHEM_SHAPE_FINGERPRINT>  (1) 
10366900 7 17274812511390728290
10616163 171 18412545426817794062
10680689 15 18335707121962407496
11056379 131 18411707573181661774
12107183 9 17539962876187904488
12523318 42 18270101492342431442
12616971 3 18113904849231041972
12757275 245 18412262865398590415
12760667 363 18200028581644799559
13167823 11 18260266326646043298
13583140 156 18058996329435331892
13631057 29 18269272533547483294
14251740 79 18261669376255547219
14251751 93 18334290933616071747
14251764 30 17753619245801583099
15250474 111 18261380140552514130
15463212 79 18260259716490986483
15788980 27 18187930534791736740
17834072 33 18334577949854675948
200 152 18113621153809344184
20645477 56 18339361842979377405
20645477 70 16732987471338558466
21054139 6 18261108638885256422
21728266 224 18411410739481411406
220451 1 18336554841728177662
23402539 116 17603304847325773020
23557571 272 18059863822334734692
23559900 14 18269823362860433577
4214541 1 18261673675601875124
4921388 177 18272094898259502423
5104073 3 18131350855947514400
531348 171 18116996589986895150
573450 72 18334850585424759648
58051976 100 18341612637443102773
5924683 9 18410570712407711039
633830 44 16950287261139012872

>  <PUBCHEM_SHAPE_MULTIPOLES>  (1) 
374.29
12.33
3.55
1.19
18.54
2.86
-0.24
2.91
0.58
-7.37
0.69
-0.15
-0.22
-1.17

>  <PUBCHEM_SHAPE_SELFOVERLAP>  (1) 
719.487

>  <PUBCHEM_SHAPE_VOLUME>  (1) 
229.3

>  <PUBCHEM_COORDINATE_TYPE>  (1) 
2
5
10

$$$$
