32503
     RDKit          3D

 14 15  0  0  0  0  0  0  0  0999 V2000
    1.6557   -0.9894   -1.3477 S   0  0  0  0  0  0  0  0  0  0  0  0
    1.5936   -0.1536    1.5568 S   0  0  0  0  0  0  0  0  0  0  0  0
   -1.2525    1.9276   -0.6765 O   0  0  0  0  0  0  0  0  0  0  0  0
    0.8084    0.0192   -0.0830 C   0  0  0  0  0  0  0  0  0  0  0  0
    3.9532   -0.2819    0.0710 C   0  0  0  0  0  0  0  0  0  0  0  0
    3.2917   -0.2004   -1.3010 C   0  0  0  0  0  0  0  0  0  0  0  0
    3.2389    0.5087    1.1626 C   0  0  0  0  0  0  0  0  0  0  0  0
   -0.6728   -0.3041   -0.0215 C   0  0  0  0  0  0  0  0  0  0  0  0
   -1.6291    0.6674   -0.3209 C   0  0  0  0  0  0  0  0  0  0  0  0
   -1.0774   -1.5901    0.3398 C   0  0  0  0  0  0  0  0  0  0  0  0
   -2.9868    0.3536   -0.2588 C   0  0  0  0  0  0  0  0  0  0  0  0
   -2.4350   -1.9038    0.4019 C   0  0  0  0  0  0  0  0  0  0  0  0
   -3.3898   -0.9319    0.1025 C   0  0  0  0  0  0  0  0  0  0  0  0
   -1.0982    2.8787    0.3749 C   0  0  0  0  0  0  0  0  0  0  0  0
  1  4  1  0
  1  6  1  0
  2  4  1  0
  2  7  1  0
  3  9  1  0
  3 14  1  0
  4  8  1  0
  5  6  1  0
  5  7  1  0
  8  9  2  0
  8 10  1  0
  9 11  1  0
 10 12  2  0
 11 13  2  0
 12 13  1  0
M  END
>  <PUBCHEM_COMPOUND_CID>  (1) 
32503

>  <PUBCHEM_CONFORMER_RMSD>  (1) 
0.6

>  <PUBCHEM_CONFORMER_DIVERSEORDER>  (1) 
1
15
17
11
3
14
16
10
6
7
12
9
5
8
4
2
18
13

>  <PUBCHEM_MMFF94_PARTIAL_CHARGES>  (1) 
17
1 -0.46
10 -0.15
11 -0.15
12 -0.15
13 -0.15
14 0.28
2 -0.46
22 0.15
23 0.15
24 0.15
25 0.15
3 -0.36
4 0.6
6 0.23
7 0.23
8 -0.14
9 0.08

>  <PUBCHEM_EFFECTIVE_ROTOR_COUNT>  (1) 
3.2

>  <PUBCHEM_PHARMACOPHORE_FEATURES>  (1) 
3
1 3 acceptor
6 1 2 4 5 6 7 rings
6 8 9 10 11 12 13 rings

>  <PUBCHEM_HEAVY_ATOM_COUNT>  (1) 
14

>  <PUBCHEM_ATOM_DEF_STEREO_COUNT>  (1) 
0

>  <PUBCHEM_ATOM_UDEF_STEREO_COUNT>  (1) 
0

>  <PUBCHEM_BOND_DEF_STEREO_COUNT>  (1) 
0

>  <PUBCHEM_BOND_UDEF_STEREO_COUNT>  (1) 
0

>  <PUBCHEM_ISOTOPIC_ATOM_COUNT>  (1) 
0

>  <PUBCHEM_COMPONENT_COUNT>  (1) 
1

>  <PUBCHEM_CACTVS_TAUTO_COUNT>  (1) 
1

>  <PUBCHEM_CONFORMER_ID>  (1) 
00007EF700000001

>  <PUBCHEM_MMFF94_ENERGY>  (1) 
40.9891

>  <PUBCHEM_FEATURE_SELFOVERLAP>  (1) 
15.223

>  <PUBCHEM_SHAPE_FINGERPRINT>  (1) 
11132069 177 18340762727871291393
11578080 2 13324863077984560954
12236239 1 17240198841734804474
12716758 59 18267028249773189014
12932764 1 17846775191927334462
13538477 17 17894345583740418514
13581323 91 18333445443824077322
13764800 53 18337114441021916169
13839132 238 18196929968302501548
14614273 12 18042400227805820317
15219456 202 17988924474555557778
15775835 57 17095527279368802230
16945 1 18335138683077438839
17844478 74 18131354111232102096
18175812 5 18059574736511931950
19049666 15 18057890130343100526
20201158 50 17989210334715204126
20279233 1 18131069350642671102
20510252 161 18411135801402558481
20645476 183 17240483628437554347
21061003 4 17418379116273746064
21501502 16 18195810665418095562
21524375 3 17550103658824694069
21639500 275 16128076936933212122
22802520 49 17915463796422521268
228727 97 17749118815194359662
23402539 116 18410845560239224383
23526113 38 17486778467691079438
23557571 272 18412549816352777158
23559900 14 18411140191355059302
23598294 1 18334007259821613569
25610 171 18339629105502558865
2748010 2 18194108840677732865
3286 77 16845287293251756139
474 4 14475806767821917090
5902787 121 18116717519928334155
6049 1 18060425685935223276
7364860 26 17836371819090089105
77492 1 17240199941256955762
81228 2 18337687320981878249

>  <PUBCHEM_SHAPE_MULTIPOLES>  (1) 
289.94
6.07
2.06
1.26
2.74
1.4
0.07
-1.08
-0.02
-1.74
0.05
1.1
-0.11
0.73

>  <PUBCHEM_SHAPE_SELFOVERLAP>  (1) 
570.629

>  <PUBCHEM_SHAPE_VOLUME>  (1) 
173.6

>  <PUBCHEM_COORDINATE_TYPE>  (1) 
2
5
10

$$$$
