32526
     RDKit          3D

 11 12  0  0  1  0  0  0  0  0999 V2000
   -2.6761    0.3287    0.1909 N   0  0  0  0  0  0  0  0  0  0  0  0
   -0.1825    0.6668   -0.3658 C   0  0  0  0  0  0  0  0  0  0  0  0
    1.0990    0.0790    0.3090 C   0  0  0  0  0  0  0  0  0  0  0  0
    0.4714   -1.3389    0.3611 C   0  0  0  0  0  0  0  0  0  0  0  0
   -1.2983    0.2844    0.6611 C   0  0  0  0  0  0  0  0  0  0  0  0
   -0.3422   -0.2396   -1.6218 C   0  0  0  0  0  0  0  0  0  0  0  0
   -0.8654   -1.1277    1.1137 C   0  0  0  0  0  0  0  0  0  0  0  0
    0.0997   -1.6207   -1.1110 C   0  0  0  0  0  0  0  0  0  0  0  0
   -0.1504    2.1450   -0.7108 C   0  0  0  0  0  0  0  0  0  0  0  0
    1.4475    0.6648    1.6934 C   0  0  0  0  0  0  0  0  0  0  0  0
    2.3973    0.1581   -0.5198 C   0  0  0  0  0  0  0  0  0  0  0  0
  1  5  1  0
  2  3  1  0
  2  5  1  0
  2  6  1  0
  2  9  1  0
  3  4  1  0
  3 10  1  0
  3 11  1  0
  4  7  1  0
  4  8  1  0
  5  7  1  0
  6  8  1  0
M  END
>  <PUBCHEM_COMPOUND_CID>  (1) 
32526

>  <PUBCHEM_CONFORMER_RMSD>  (1) 
0.4

>  <PUBCHEM_CONFORMER_DIVERSEORDER>  (1) 
1
3
4
2

>  <PUBCHEM_MMFF94_PARTIAL_CHARGES>  (1) 
4
1 -0.99
29 0.36
30 0.36
5 0.27

>  <PUBCHEM_EFFECTIVE_ROTOR_COUNT>  (1) 
1

>  <PUBCHEM_PHARMACOPHORE_FEATURES>  (1) 
4
1 1 cation
1 1 donor
3 3 10 11 hydrophobe
7 2 3 4 5 6 7 8 rings

>  <PUBCHEM_HEAVY_ATOM_COUNT>  (1) 
11

>  <PUBCHEM_ATOM_DEF_STEREO_COUNT>  (1) 
0

>  <PUBCHEM_ATOM_UDEF_STEREO_COUNT>  (1) 
3

>  <PUBCHEM_BOND_DEF_STEREO_COUNT>  (1) 
0

>  <PUBCHEM_BOND_UDEF_STEREO_COUNT>  (1) 
0

>  <PUBCHEM_ISOTOPIC_ATOM_COUNT>  (1) 
0

>  <PUBCHEM_COMPONENT_COUNT>  (1) 
1

>  <PUBCHEM_CACTVS_TAUTO_COUNT>  (1) 
1

>  <PUBCHEM_CONFORMER_ID>  (1) 
00007F0E00000001

>  <PUBCHEM_MMFF94_ENERGY>  (1) 
49.228

>  <PUBCHEM_FEATURE_SELFOVERLAP>  (1) 
20.297

>  <PUBCHEM_SHAPE_FINGERPRINT>  (1) 
12423570 1 11868651220624328314
13024252 1 16448915464820777016
137420 1 12993774704901788914
15557651 10 18273209768611266160
16945 1 17987257589094696618
21040471 1 18412824711239221275
369184 2 17466735680776628888
5084963 1 18267298742507870424
68250623 7 17907019469495220742

>  <PUBCHEM_SHAPE_MULTIPOLES>  (1) 
221.39
2.22
1.67
1.5
0.1
0.26
-0.03
0.34
-0.38
0.11
0.34
-0.18
-0.1
0.18

>  <PUBCHEM_SHAPE_SELFOVERLAP>  (1) 
463.55

>  <PUBCHEM_SHAPE_VOLUME>  (1) 
131.7

>  <PUBCHEM_COORDINATE_TYPE>  (1) 
2
5
10

$$$$
