32534
     RDKit          3D

 22 24  0  0  1  0  0  0  0  0999 V2000
   -6.0922    1.0199    0.6697 F   0  0  0  0  0  0  0  0  0  0  0  0
   -6.2416   -0.7316   -0.6007 F   0  0  0  0  0  0  0  0  0  0  0  0
   -5.6271   -0.9461    1.4742 F   0  0  0  0  0  0  0  0  0  0  0  0
    0.9545    0.3898    0.0069 N   0  0  0  0  0  0  0  0  0  0  0  0
    3.3992    0.3975    0.7479 C   0  0  0  0  0  0  0  0  0  0  0  0
    4.7151    0.1205   -0.0489 C   0  0  0  0  0  0  0  0  0  0  0  0
    4.0812   -1.1109   -0.7482 C   0  0  0  0  0  0  0  0  0  0  0  0
    2.3456    0.5391   -0.3989 C   0  0  0  0  0  0  0  0  0  0  0  0
    3.1558   -0.9600    1.4708 C   0  0  0  0  0  0  0  0  0  0  0  0
    2.7943   -0.5481   -1.4002 C   0  0  0  0  0  0  0  0  0  0  0  0
    3.6188   -1.9940    0.4312 C   0  0  0  0  0  0  0  0  0  0  0  0
    3.4193    1.5753    1.7062 C   0  0  0  0  0  0  0  0  0  0  0  0
    5.9598   -0.2133    0.7982 C   0  0  0  0  0  0  0  0  0  0  0  0
    5.1516    1.2399   -1.0169 C   0  0  0  0  0  0  0  0  0  0  0  0
    0.0650    0.4648   -1.1441 C   0  0  0  0  0  0  0  0  0  0  0  0
   -1.3786    0.3020   -0.7489 C   0  0  0  0  0  0  0  0  0  0  0  0
   -2.1272    1.4232   -0.4195 C   0  0  0  0  0  0  0  0  0  0  0  0
   -1.9403   -0.9667   -0.7201 C   0  0  0  0  0  0  0  0  0  0  0  0
   -3.4648    1.2725   -0.0536 C   0  0  0  0  0  0  0  0  0  0  0  0
   -3.2779   -1.1174   -0.3543 C   0  0  0  0  0  0  0  0  0  0  0  0
   -4.0401    0.0023   -0.0210 C   0  0  0  0  0  0  0  0  0  0  0  0
   -5.4702   -0.1588    0.3703 C   0  0  0  0  0  0  0  0  0  0  0  0
  1 22  1  0
  2 22  1  0
  3 22  1  0
  4  8  1  0
  4 15  1  0
  5  6  1  0
  5  8  1  0
  5  9  1  0
  5 12  1  0
  6  7  1  0
  6 13  1  0
  6 14  1  0
  7 10  1  0
  7 11  1  0
  8 10  1  0
  9 11  1  0
 15 16  1  0
 16 17  2  0
 16 18  1  0
 17 19  1  0
 18 20  2  0
 19 21  2  0
 20 21  1  0
 21 22  1  0
M  END
>  <PUBCHEM_COMPOUND_CID>  (1) 
32534

>  <PUBCHEM_CONFORMER_RMSD>  (1) 
0.8

>  <PUBCHEM_CONFORMER_DIVERSEORDER>  (1) 
1
8
17
10
6
15
14
18
16
11
5
12
2
3
4
13
9
7

>  <PUBCHEM_MMFF94_PARTIAL_CHARGES>  (1) 
18
1 -0.34
15 0.41
16 -0.14
17 -0.15
18 -0.15
19 -0.15
2 -0.34
20 -0.15
21 -0.14
22 1.16
3 -0.34
4 -0.9
40 0.36
43 0.15
44 0.15
45 0.15
46 0.15
8 0.27

>  <PUBCHEM_EFFECTIVE_ROTOR_COUNT>  (1) 
5

>  <PUBCHEM_PHARMACOPHORE_FEATURES>  (1) 
5
1 4 cation
1 4 donor
3 6 13 14 hydrophobe
6 16 17 18 19 20 21 rings
7 5 6 7 8 9 10 11 rings

>  <PUBCHEM_HEAVY_ATOM_COUNT>  (1) 
22

>  <PUBCHEM_ATOM_DEF_STEREO_COUNT>  (1) 
0

>  <PUBCHEM_ATOM_UDEF_STEREO_COUNT>  (1) 
3

>  <PUBCHEM_BOND_DEF_STEREO_COUNT>  (1) 
0

>  <PUBCHEM_BOND_UDEF_STEREO_COUNT>  (1) 
0

>  <PUBCHEM_ISOTOPIC_ATOM_COUNT>  (1) 
0

>  <PUBCHEM_COMPONENT_COUNT>  (1) 
1

>  <PUBCHEM_CACTVS_TAUTO_COUNT>  (1) 
1

>  <PUBCHEM_CONFORMER_ID>  (1) 
00007F1600000001

>  <PUBCHEM_MMFF94_ENERGY>  (1) 
73.5989

>  <PUBCHEM_FEATURE_SELFOVERLAP>  (1) 
25.372

>  <PUBCHEM_SHAPE_FINGERPRINT>  (1) 
10354089 29 17203609294117841196
10447042 23 14129051526432402000
11089746 13 13039183697494160114
11135609 99 14635140232208717080
11552529 35 17202193204487662831
11796584 16 16588024624032318323
12107183 9 17687461260999049696
12166972 35 11239998962096115746
12236239 1 17676489449382551661
12516196 113 17603307072250727333
12596602 18 18260553333292828625
12633257 1 17774994704588867454
12788726 201 17846223206845981352
128620 24 16443061690694831094
13167823 11 18187363194759136286
13533116 47 18341048527906936531
13583140 156 18268690771452455780
13668630 136 15936410022291651962
14341114 176 18202567267618630368
14528608 73 11239993443352588989
14849402 71 18263639732049031064
15183329 4 12107780801131488543
15348495 7 18201440324335376691
15537594 2 18260263061949120043
17844677 252 16298386846879122893
17857418 61 17312821585049894803
1813 80 17023190400624026303
18222031 100 17312822675734308981
200 152 14707205513509759381
20645477 70 13695858200064092632
21033648 29 16987988410743135929
21267235 1 18187086118599226038
212847 35 14261351362582433626
21503847 285 16630526263146919440
21623969 137 17458350744752328795
22061861 79 12757145771104376713
22224240 67 17240764025909957224
22289505 5 10303810991192341506
23402539 116 18060414712678917309
23557571 272 7997980067420642998
23559900 14 18131353033084723052
239999 70 16588027914019464694
2838139 119 13757803543191649211
29717793 49 11963388518913915242
3004659 81 7925914785760013572
3472631 163 11959715093124811642
351380 3 17167580501119570571
3545911 37 17775284967406165388
4325135 7 17894915148629252348
4340502 62 18333728027466683986
5104073 3 18337950065400463752
5374978 207 18202561778360282256
542803 24 18202846564909739628
57724786 102 16056590006235624736
5924683 9 17703217542563092127
633830 44 13901894614430181364
7495541 125 18413102879692708584
960060 61 13551193277206027647

>  <PUBCHEM_SHAPE_MULTIPOLES>  (1) 
425.95
15.49
1.51
1.32
14.3
0.07
0.22
0.8
3.15
-0.57
0.17
-0.89
-0.05
0.04

>  <PUBCHEM_SHAPE_SELFOVERLAP>  (1) 
913.785

>  <PUBCHEM_SHAPE_VOLUME>  (1) 
243.4

>  <PUBCHEM_COORDINATE_TYPE>  (1) 
2
5
10

$$$$
