32544
     RDKit          3D

 19 21  0  0  1  0  0  0  0  0999 V2000
   -0.3114    0.5246    0.7896 N   0  0  0  0  0  0  0  0  0  0  0  0
   -2.8574    0.6263    0.4019 C   0  0  0  0  0  0  0  0  0  0  0  0
   -3.7415   -0.0087   -0.7198 C   0  0  0  0  0  0  0  0  0  0  0  0
   -3.0008   -1.3660   -0.5925 C   0  0  0  0  0  0  0  0  0  0  0  0
   -1.4129    0.4075   -0.1563 C   0  0  0  0  0  0  0  0  0  0  0  0
   -3.0756   -0.3537    1.5920 C   0  0  0  0  0  0  0  0  0  0  0  0
   -1.5099   -0.9974   -0.7913 C   0  0  0  0  0  0  0  0  0  0  0  0
   -3.1629   -1.7242    0.9008 C   0  0  0  0  0  0  0  0  0  0  0  0
   -3.1586    2.0686    0.7683 C   0  0  0  0  0  0  0  0  0  0  0  0
   -5.2514   -0.0841   -0.4105 C   0  0  0  0  0  0  0  0  0  0  0  0
   -3.6286    0.6360   -2.1163 C   0  0  0  0  0  0  0  0  0  0  0  0
    0.9639    0.2537    0.1401 C   0  0  0  0  0  0  0  0  0  0  0  0
    2.1248    0.4226    1.1208 C   0  0  0  0  0  0  0  0  0  0  0  0
    3.4535    0.1667    0.4551 C   0  0  0  0  0  0  0  0  0  0  0  0
    3.9755   -1.1178    0.4484 C   0  0  0  0  0  0  0  0  0  0  0  0
    4.1313    1.2204   -0.1391 C   0  0  0  0  0  0  0  0  0  0  0  0
    5.2047   -1.3544   -0.1673 C   0  0  0  0  0  0  0  0  0  0  0  0
    5.3604    0.9838   -0.7549 C   0  0  0  0  0  0  0  0  0  0  0  0
    5.8970   -0.3036   -0.7690 C   0  0  0  0  0  0  0  0  0  0  0  0
  1  5  1  0
  1 12  1  0
  2  3  1  0
  2  5  1  0
  2  6  1  0
  2  9  1  0
  3  4  1  0
  3 10  1  0
  3 11  1  0
  4  7  1  0
  4  8  1  0
  5  7  1  0
  6  8  1  0
 12 13  1  0
 13 14  1  0
 14 15  2  0
 14 16  1  0
 15 17  1  0
 16 18  2  0
 17 19  2  0
 18 19  1  0
M  END
>  <PUBCHEM_COMPOUND_CID>  (1) 
32544

>  <PUBCHEM_CONFORMER_RMSD>  (1) 
0.6

>  <PUBCHEM_CONFORMER_DIVERSEORDER>  (1) 
6
35
20
7
38
27
25
10
4
31
39
36
11
1
22
14
37
29
15
8
18
32
34
24
2
16
26
17
30
19
5
40
9
21
12
33
3
13
28
23

>  <PUBCHEM_MMFF94_PARTIAL_CHARGES>  (1) 
16
1 -0.9
12 0.27
13 0.14
14 -0.14
15 -0.15
16 -0.15
17 -0.15
18 -0.15
19 -0.15
37 0.36
42 0.15
43 0.15
44 0.15
45 0.15
46 0.15
5 0.27

>  <PUBCHEM_EFFECTIVE_ROTOR_COUNT>  (1) 
5

>  <PUBCHEM_PHARMACOPHORE_FEATURES>  (1) 
5
1 1 cation
1 1 donor
3 3 10 11 hydrophobe
6 14 15 16 17 18 19 rings
7 2 3 4 5 6 7 8 rings

>  <PUBCHEM_HEAVY_ATOM_COUNT>  (1) 
19

>  <PUBCHEM_ATOM_DEF_STEREO_COUNT>  (1) 
0

>  <PUBCHEM_ATOM_UDEF_STEREO_COUNT>  (1) 
3

>  <PUBCHEM_BOND_DEF_STEREO_COUNT>  (1) 
0

>  <PUBCHEM_BOND_UDEF_STEREO_COUNT>  (1) 
0

>  <PUBCHEM_ISOTOPIC_ATOM_COUNT>  (1) 
0

>  <PUBCHEM_COMPONENT_COUNT>  (1) 
1

>  <PUBCHEM_CACTVS_TAUTO_COUNT>  (1) 
1

>  <PUBCHEM_CONFORMER_ID>  (1) 
00007F2000000006

>  <PUBCHEM_MMFF94_ENERGY>  (1) 
69.1055

>  <PUBCHEM_FEATURE_SELFOVERLAP>  (1) 
25.371

>  <PUBCHEM_SHAPE_FINGERPRINT>  (1) 
10366900 7 18060418027523290090
10680689 15 17917996078806388208
11315181 36 18411419522763196360
12107183 9 17691408512485859530
12236239 1 18334859415450271692
128620 24 15502374530552033690
12916754 54 15697707224996801737
12969540 37 12888532072370124589
13167823 11 18412829088422870890
13288520 33 17632859732944453297
13914758 101 14261076433373246299
14528608 73 17168143468585118430
15183329 4 18335425630538985838
15188451 53 14189278374886085573
15788980 27 17846500318462868628
17093844 174 16415200036156283306
17349148 13 16558749035546432700
17844677 252 17917715708201087136
17857418 61 17775562027341267982
18186145 218 17748826319679902824
18222031 100 16702299070635604512
19489759 90 14045744811402746707
200 152 17560796632473530987
20325693 3 17749106695150247195
20645477 56 16732978713546800485
20645477 70 18410291377005436046
22646028 1 17274819168795791096
2306618 200 16845575297127214521
23402539 116 17846216631198491264
23402655 69 18334860511463341776
23559900 14 18129369548489208736
300161 21 17603297168150776216
3004659 81 18342741776657457526
34797466 226 17749116607860777350
351380 3 17489587866034352014
4214541 1 18343022164316443328
4921388 177 17603594057427957411
497634 4 18259707809009246397
5104073 3 18272933817321058794
5281201 14 17967819357967251556
542803 24 18113336401207954248
543368 44 18263370342439917380
559249 180 18059009458833929130
5924683 9 10375571712321386717
59755656 215 16271931493355696765
59755656 520 18411700955454703459
633830 44 18040998427863631162
77779 3 18410859863060522984
90127 26 17022904523617287268
960060 61 18413952793749060012

>  <PUBCHEM_SHAPE_MULTIPOLES>  (1) 
386.03
13.76
1.54
1.34
15.37
0.01
0.21
0.6
3.05
-0.34
-0.17
-1.23
-0.11
-0.02

>  <PUBCHEM_SHAPE_SELFOVERLAP>  (1) 
817.675

>  <PUBCHEM_SHAPE_VOLUME>  (1) 
221.5

>  <PUBCHEM_COORDINATE_TYPE>  (1) 
2
5
10

$$$$
