32550
     RDKit          3D

 21 23  0  0  1  0  0  0  0  0999 V2000
   -7.5260   -0.2861    1.0135 F   0  0  0  0  0  0  0  0  0  0  0  0
    1.1068    0.3604    0.2895 N   0  0  0  0  0  0  0  0  0  0  0  0
    3.6213    0.4362    0.7338 C   0  0  0  0  0  0  0  0  0  0  0  0
    4.8387    0.1284   -0.1970 C   0  0  0  0  0  0  0  0  0  0  0  0
    4.1482   -1.1473   -0.7473 C   0  0  0  0  0  0  0  0  0  0  0  0
    2.4376    0.5013   -0.2861 C   0  0  0  0  0  0  0  0  0  0  0  0
    3.4883   -0.8807    1.5541 C   0  0  0  0  0  0  0  0  0  0  0  0
    2.7839   -0.6361   -1.2721 C   0  0  0  0  0  0  0  0  0  0  0  0
    3.8433   -1.9670    0.5254 C   0  0  0  0  0  0  0  0  0  0  0  0
    3.7339    1.6665    1.6166 C   0  0  0  0  0  0  0  0  0  0  0  0
    6.1801   -0.1435    0.5135 C   0  0  0  0  0  0  0  0  0  0  0  0
    5.1387    1.1957   -1.2701 C   0  0  0  0  0  0  0  0  0  0  0  0
    0.0868    0.3605   -0.7503 C   0  0  0  0  0  0  0  0  0  0  0  0
   -1.3044    0.2471   -0.1288 C   0  0  0  0  0  0  0  0  0  0  0  0
   -2.3922    0.2672   -1.2058 C   0  0  0  0  0  0  0  0  0  0  0  0
   -3.7691    0.1187   -0.6105 C   0  0  0  0  0  0  0  0  0  0  0  0
   -4.3079   -1.1486   -0.4478 C   0  0  0  0  0  0  0  0  0  0  0  0
   -4.4747    1.2521   -0.2350 C   0  0  0  0  0  0  0  0  0  0  0  0
   -5.5821   -1.2859    0.1031 C   0  0  0  0  0  0  0  0  0  0  0  0
   -5.7487    1.1150    0.3160 C   0  0  0  0  0  0  0  0  0  0  0  0
   -6.3025   -0.1541    0.4852 C   0  0  0  0  0  0  0  0  0  0  0  0
  1 21  1  0
  2  6  1  0
  2 13  1  0
  3  4  1  0
  3  6  1  0
  3  7  1  0
  3 10  1  0
  4  5  1  0
  4 11  1  0
  4 12  1  0
  5  8  1  0
  5  9  1  0
  6  8  1  0
  7  9  1  0
 13 14  1  0
 14 15  1  0
 15 16  1  0
 16 17  2  0
 16 18  1  0
 17 19  1  0
 18 20  2  0
 19 21  2  0
 20 21  1  0
M  END
>  <PUBCHEM_COMPOUND_CID>  (1) 
32550

>  <PUBCHEM_CONFORMER_RMSD>  (1) 
0.8

>  <PUBCHEM_CONFORMER_DIVERSEORDER>  (1) 
1
38
4
39
40
45
22
25
49
29
8
12
43
9
53
59
41
42
50
11
2
20
15
46
47
33
34
6
23
31
36
14
30
3
57
58
18
10
27
56
16
24
37
19
17
54
5
52
26
48
32
55
51
44
28
7
13
35
21

>  <PUBCHEM_MMFF94_PARTIAL_CHARGES>  (1) 
16
1 -0.19
13 0.27
15 0.14
16 -0.14
17 -0.15
18 -0.15
19 -0.15
2 -0.9
20 -0.15
21 0.19
39 0.36
46 0.15
47 0.15
48 0.15
49 0.15
6 0.27

>  <PUBCHEM_EFFECTIVE_ROTOR_COUNT>  (1) 
6

>  <PUBCHEM_PHARMACOPHORE_FEATURES>  (1) 
5
1 2 cation
1 2 donor
3 4 11 12 hydrophobe
6 16 17 18 19 20 21 rings
7 3 4 5 6 7 8 9 rings

>  <PUBCHEM_HEAVY_ATOM_COUNT>  (1) 
21

>  <PUBCHEM_ATOM_DEF_STEREO_COUNT>  (1) 
0

>  <PUBCHEM_ATOM_UDEF_STEREO_COUNT>  (1) 
3

>  <PUBCHEM_BOND_DEF_STEREO_COUNT>  (1) 
0

>  <PUBCHEM_BOND_UDEF_STEREO_COUNT>  (1) 
0

>  <PUBCHEM_ISOTOPIC_ATOM_COUNT>  (1) 
0

>  <PUBCHEM_COMPONENT_COUNT>  (1) 
1

>  <PUBCHEM_CACTVS_TAUTO_COUNT>  (1) 
1

>  <PUBCHEM_CONFORMER_ID>  (1) 
00007F2600000001

>  <PUBCHEM_MMFF94_ENERGY>  (1) 
68.9343

>  <PUBCHEM_FEATURE_SELFOVERLAP>  (1) 
25.371

>  <PUBCHEM_SHAPE_FINGERPRINT>  (1) 
10299344 5 18260551125421058359
11089746 13 12319734769434168302
11135609 99 14562800059366390840
12166972 35 17022621962230265524
12236239 1 17894351064408903717
12516196 113 16298386877154981117
12596602 18 18335140877953641377
12616971 3 17060047168495622284
12730499 353 18410856568931539194
12916748 109 17240763973462923613
13073987 5 18261388897462712089
13167823 11 18259981557197405463
13533116 47 18340768152352163602
13668630 136 16008750195403094347
13685833 64 16877666777451311373
13955234 65 17967806142611292776
1420 363 16225768514969951533
14251764 18 18343586261595650055
14341114 176 18272370880121013953
14933364 13 18202004339129619553
15142383 8 17346597439498623408
15183329 4 17632858603726744537
15348495 7 18060134392679124499
15537594 2 17894627063376489827
15716309 27 17967816055037030959
15788980 27 17275379911199345469
15799311 1 18114758074365047587
17844677 252 18342177769519914057
17857418 61 16587740949879318987
1813 80 17167869634339423447
20281389 69 14189578520829287203
21150785 3 13767932329662793139
21267235 1 18187646865318775134
21623969 137 17095528383254746123
220451 1 18413672422273145343
22950370 63 18260829289336771013
23522609 53 17970375692142505533
23559900 14 13686292509005369252
239999 70 18343585144714320502
2767999 5 13758356665969674555
29717793 49 8790887397391488312
300161 21 13254795729110373077
351380 3 17022902350442683815
4073 2 18337673130120054923
4340502 62 18334851732640054418
5104073 3 18341324479386601136
542803 24 18412261744158756412
5924683 9 17631721807752090727

>  <PUBCHEM_SHAPE_MULTIPOLES>  (1) 
419.92
18.95
1.45
1.28
22.77
0.16
0.11
0.74
3.36
-0.6
0.21
-1.15
-0.12
0.05

>  <PUBCHEM_SHAPE_SELFOVERLAP>  (1) 
886.83

>  <PUBCHEM_SHAPE_VOLUME>  (1) 
243.5

>  <PUBCHEM_COORDINATE_TYPE>  (1) 
2
5
10

$$$$
