32559
     RDKit          3D

 23 24  0  0  0  0  0  0  0  0999 V2000
   -8.2644   -2.6172    0.1647 O   0  0  0  0  0  0  0  0  0  0  0  0
   -0.9105    0.6149   -1.6769 O   0  0  0  0  0  0  0  0  0  0  0  0
    4.9295    0.0757    0.6281 O   0  0  0  0  0  0  0  0  0  0  0  0
    8.1903   -1.0804    0.1348 O   0  0  0  0  0  0  0  0  0  0  0  0
    7.2548   -0.0094    1.8128 O   0  0  0  0  0  0  0  0  0  0  0  0
   -5.6066   -0.0814    0.4561 N   0  0  0  0  0  0  0  0  0  0  0  0
   -3.1097    1.2427   -0.1532 N   0  0  0  0  0  0  0  0  0  0  0  0
    0.4722    1.0860    0.1225 N   0  0  0  0  0  0  0  0  0  0  0  0
    1.5458    0.5040   -0.4598 N   0  0  0  0  0  0  0  0  0  0  0  0
    7.1767   -0.5392    0.6658 N   0  0  0  0  0  0  0  0  0  0  0  0
   -5.5612    1.3512    0.1385 C   0  0  0  0  0  0  0  0  0  0  0  0
   -4.5130   -0.7906   -0.2194 C   0  0  0  0  0  0  0  0  0  0  0  0
   -4.2040    1.9516    0.5215 C   0  0  0  0  0  0  0  0  0  0  0  0
   -3.1555   -0.1904    0.1623 C   0  0  0  0  0  0  0  0  0  0  0  0
   -6.9006   -0.6534    0.0898 C   0  0  0  0  0  0  0  0  0  0  0  0
   -1.8160    1.8143    0.2151 C   0  0  0  0  0  0  0  0  0  0  0  0
   -6.9870   -2.1078    0.5245 C   0  0  0  0  0  0  0  0  0  0  0  0
   -0.7308    1.0985   -0.5610 C   0  0  0  0  0  0  0  0  0  0  0  0
    2.6219    0.5476    0.2582 C   0  0  0  0  0  0  0  0  0  0  0  0
    3.8757   -0.0260   -0.2015 C   0  0  0  0  0  0  0  0  0  0  0  0
    4.1801   -0.6664   -1.3568 C   0  0  0  0  0  0  0  0  0  0  0  0
    5.9610   -0.5258   -0.0205 C   0  0  0  0  0  0  0  0  0  0  0  0
    5.5514   -0.9986   -1.2455 C   0  0  0  0  0  0  0  0  0  0  0  0
  1 17  1  0
  2 18  2  0
  3 20  1  0
  3 22  1  0
  4 10  1  0
  5 10  2  0
  6 11  1  0
  6 12  1  0
  6 15  1  0
  7 13  1  0
  7 14  1  0
  7 16  1  0
  8  9  1  0
  8 18  1  0
  9 19  2  0
 10 22  1  0
 11 13  1  0
 12 14  1  0
 15 17  1  0
 16 18  1  0
 19 20  1  0
 20 21  2  0
 21 23  1  0
 22 23  2  0
M  CHG  2   4  -1  10   1
M  END
>  <PUBCHEM_COMPOUND_CID>  (1) 
32559

>  <PUBCHEM_CONFORMER_RMSD>  (1) 
1

>  <PUBCHEM_CONFORMER_DIVERSEORDER>  (1) 
1
14
12
23
11
19
21
9
13
17
16
6
24
8
22
25
5
15
18
20
4
2
7
3
10

>  <PUBCHEM_MMFF94_PARTIAL_CHARGES>  (1) 
28
1 -0.68
10 0.96
11 0.27
12 0.27
13 0.27
14 0.27
15 0.27
16 0.33
17 0.28
18 0.57
19 0.47
2 -0.57
20 0.05
21 -0.15
22 0.22
23 -0.15
3 -0.28
38 0.37
39 0.4
4 -0.52
40 0.06
41 0.15
42 0.15
5 -0.52
6 -0.81
7 -0.81
8 -0.37
9 -0.51

>  <PUBCHEM_EFFECTIVE_ROTOR_COUNT>  (1) 
9.2

>  <PUBCHEM_PHARMACOPHORE_FEATURES>  (1) 
13
1 1 acceptor
1 1 donor
1 2 acceptor
1 3 acceptor
1 4 acceptor
1 4 anion
1 5 acceptor
1 6 cation
1 7 cation
1 8 donor
1 9 acceptor
5 3 20 21 22 23 rings
6 6 7 11 12 13 14 rings

>  <PUBCHEM_HEAVY_ATOM_COUNT>  (1) 
23

>  <PUBCHEM_ATOM_DEF_STEREO_COUNT>  (1) 
0

>  <PUBCHEM_ATOM_UDEF_STEREO_COUNT>  (1) 
0

>  <PUBCHEM_BOND_DEF_STEREO_COUNT>  (1) 
0

>  <PUBCHEM_BOND_UDEF_STEREO_COUNT>  (1) 
1

>  <PUBCHEM_ISOTOPIC_ATOM_COUNT>  (1) 
0

>  <PUBCHEM_COMPONENT_COUNT>  (1) 
1

>  <PUBCHEM_CACTVS_TAUTO_COUNT>  (1) 
2

>  <PUBCHEM_CONFORMER_ID>  (1) 
00007F2F00000001

>  <PUBCHEM_MMFF94_ENERGY>  (1) 
38.7532

>  <PUBCHEM_FEATURE_SELFOVERLAP>  (1) 
66.071

>  <PUBCHEM_SHAPE_FINGERPRINT>  (1) 
10 15 17846774114333433632
10299344 5 18186524293447025878
106641 1 16558745737254019029
11315181 36 18409732846494377601
12091667 2 17022907809367807173
12516196 113 18131070420226710408
12596602 18 17203333260580085738
13073987 5 17346041048382197528
13288520 33 18408044014214623597
13668630 136 18186520998906702463
13685833 64 18342460352344550633
14251764 18 14404894799953174180
14556957 393 15575006022357233271
14729087 3 9583520902065801195
15183329 4 11891327647452080268
15188451 53 18334295383180760285
15419008 91 18339060636717583372
15510794 2 17988363676217111455
155225 1 10303821973814295851
15690457 1 18261108590690933578
15706992 2 13110685003157579322
15716309 27 18343299258605671708
17093844 174 18272652308391343233
1768 4 16486963034335069728
18335252 98 18202568380484632630
20281389 69 11959730447981112634
20526848 3 10735882772544794691
20621476 66 11455890273506485474
21095123 293 12895077335692838059
21130935 74 18270964523297885618
21267235 1 18336271223752690475
21315759 40 17603867801510877538
21424621 283 10880000155417478581
21623969 137 17489873708998038878
22224240 67 16630524038032074599
23035841 295 18040719160315461593
23081809 10 17095815325846436084
23522609 53 17752798803341136636
23559900 14 18115028644557190353
23569943 247 17762345717599101498
23576562 1 12902125266121184715
29717793 49 15647339594309233622
3383291 50 18410577327386062011
5104073 3 15194984090075113327
559249 180 18334014987190426101
5718773 13 18269838782879826399
5758199 1 13110965323088651053
59682541 35 18131346436726879266
59682541 52 13262667132795761832
5969126 39 16732697229906543453
9953998 17 16774078497285915431

>  <PUBCHEM_SHAPE_MULTIPOLES>  (1) 
419.08
25.57
1.86
1.06
10.09
0.35
0.08
15.75
-6.24
-4.62
-0.14
1.61
0.06
0.76

>  <PUBCHEM_SHAPE_SELFOVERLAP>  (1) 
862.016

>  <PUBCHEM_SHAPE_VOLUME>  (1) 
241.2

>  <PUBCHEM_COORDINATE_TYPE>  (1) 
2
5
10

$$$$
