32557
     RDKit          3D

 22 24  0  0  1  0  0  0  0  0999 V2000
    0.3113    0.3446   -1.5179 O   0  0  0  0  0  0  0  0  0  0  0  0
   -5.8131    0.3944    0.2706 O   0  0  0  0  0  0  0  0  0  0  0  0
    1.0570    0.7395    0.6661 N   0  0  0  0  0  0  0  0  0  0  0  0
   -5.6499   -0.9716    0.4663 N   0  0  0  0  0  0  0  0  0  0  0  0
    4.5523    0.0794   -0.4717 C   0  0  0  0  0  0  0  0  0  0  0  0
    3.0245    0.0765   -0.7515 C   0  0  0  0  0  0  0  0  0  0  0  0
    4.3364   -0.5287    0.9374 C   0  0  0  0  0  0  0  0  0  0  0  0
    2.4630    0.9118    0.4314 C   0  0  0  0  0  0  0  0  0  0  0  0
    3.3457    0.4543    1.6117 C   0  0  0  0  0  0  0  0  0  0  0  0
    2.6412   -1.4088   -0.5300 C   0  0  0  0  0  0  0  0  0  0  0  0
    3.5383   -1.8205    0.6496 C   0  0  0  0  0  0  0  0  0  0  0  0
    5.3853   -0.7935   -1.4300 C   0  0  0  0  0  0  0  0  0  0  0  0
    5.2135    1.4711   -0.4745 C   0  0  0  0  0  0  0  0  0  0  0  0
    0.6164    0.8630    2.0617 C   0  0  0  0  0  0  0  0  0  0  0  0
    0.0741    0.4687   -0.3136 C   0  0  0  0  0  0  0  0  0  0  0  0
   -1.3491    0.3305    0.2115 C   0  0  0  0  0  0  0  0  0  0  0  0
   -2.3615    0.0382   -0.9004 C   0  0  0  0  0  0  0  0  0  0  0  0
   -3.7615   -0.0817   -0.3775 C   0  0  0  0  0  0  0  0  0  0  0  0
   -4.6668    0.9144   -0.2378 C   0  0  0  0  0  0  0  0  0  0  0  0
   -4.4019   -1.2315    0.0665 C   0  0  0  0  0  0  0  0  0  0  0  0
   -4.6693    2.3584   -0.5069 C   0  0  0  0  0  0  0  0  0  0  0  0
   -3.8859   -2.6083    0.1390 C   0  0  0  0  0  0  0  0  0  0  0  0
  1 15  2  0
  2  4  1  0
  2 19  1  0
  3  8  1  0
  3 14  1  0
  3 15  1  0
  4 20  2  0
  5  6  1  0
  5  7  1  0
  5 12  1  0
  5 13  1  0
  6  8  1  0
  6 10  1  0
  7  9  1  0
  7 11  1  0
  8  9  1  0
 10 11  1  0
 15 16  1  0
 16 17  1  0
 17 18  1  0
 18 19  2  0
 18 20  1  0
 19 21  1  0
 20 22  1  0
M  END
>  <PUBCHEM_COMPOUND_CID>  (1) 
32557

>  <PUBCHEM_CONFORMER_RMSD>  (1) 
0.8

>  <PUBCHEM_CONFORMER_DIVERSEORDER>  (1) 
1
350
114
30
312
98
217
61
100
191
343
126
255
284
329
138
205
297
5
173
172
299
301
289
308
305
222
137
342
320
32
326
141
85
358
348
168
349
52
132
311
307
257
240
210
34
244
287
101
357
234
231
171
220
150
165
224
321
48
151
67
3
249
334
39
95
228
174
344
242
119
268
203
328
7
315
13
2
252
336
260
232
4
71
175
319
223
17
211
36
108
82
196
271
276
212
322
8
86
204
12
53
346
91
262
6
92
323
128
226
38
273
29
207
179
127
27
161
338
246
363
327
214
356
81
177
87
261
159
265
285
254
121
221
294
355
44
142
302
313
57
208
62
202
55
163
188
45
251
352
74
22
157
201
278
283
104
140
309
28
88
96
21
296
180
359
182
25
123
216
19
118
26
144
258
16
176
337
120
72
167
185
24
237
236
49
267
105
195
56
143
60
243
41
155
345
218
136
340
215
42
164
317
295
333
219
23
253
51
275
190
152
189
314
272
9
248
281
145
46
238
166
160
264
10
286
288
68
330
47
324
331
270
84
274
102
351
192
280
122
130
80
79
148
361
50
131
290
63
266
235
229
183
227
233
198
353
259
15
90
197
40
300
339
170
293
162
111
43
64
335
256
58
247
230
303
134
65
362
292
186
245
66
117
158
89
318
291
194
59
73
115
70
263
139
306
76
241
310
153
178
199
103
193
279
354
77
18
35
325
69
181
107
169
332
135
75
113
304
298
125
97
154
133
83
187
110
124
129
360
200
341
93
184
116
147
109
106
225
250
316
99
94
146
277
149
282
206
156
20
347
209
31
14
112
33
54
11
78
37
239
213
269

>  <PUBCHEM_MMFF94_PARTIAL_CHARGES>  (1) 
14
1 -0.57
14 0.3
15 0.57
16 0.06
17 0.18
18 -0.18
19 -0.04
2 -0.02
20 0.11
21 0.18
22 0.18
3 -0.66
4 -0.41
8 0.3

>  <PUBCHEM_EFFECTIVE_ROTOR_COUNT>  (1) 
6

>  <PUBCHEM_PHARMACOPHORE_FEATURES>  (1) 
5
1 1 acceptor
1 4 acceptor
3 5 12 13 hydrophobe
5 2 4 18 19 20 rings
7 5 6 7 8 9 10 11 rings

>  <PUBCHEM_HEAVY_ATOM_COUNT>  (1) 
22

>  <PUBCHEM_ATOM_DEF_STEREO_COUNT>  (1) 
0

>  <PUBCHEM_ATOM_UDEF_STEREO_COUNT>  (1) 
3

>  <PUBCHEM_BOND_DEF_STEREO_COUNT>  (1) 
0

>  <PUBCHEM_BOND_UDEF_STEREO_COUNT>  (1) 
0

>  <PUBCHEM_ISOTOPIC_ATOM_COUNT>  (1) 
0

>  <PUBCHEM_COMPONENT_COUNT>  (1) 
1

>  <PUBCHEM_CACTVS_TAUTO_COUNT>  (1) 
1

>  <PUBCHEM_CONFORMER_ID>  (1) 
00007F2D00000001

>  <PUBCHEM_MMFF94_ENERGY>  (1) 
75.9708

>  <PUBCHEM_FEATURE_SELFOVERLAP>  (1) 
25.371

>  <PUBCHEM_SHAPE_FINGERPRINT>  (1) 
10595046 47 18187367665904617589
10912923 1 17531242850898893849
11089746 13 12823292394857802198
11128504 68 16588025714384363926
11287383 113 18333732446407873644
11545043 162 18342736334506346369
11796584 16 18413390912578233902
12107183 9 17758109298594900585
12236239 1 17312820464089992733
12596602 18 15051726534418372935
12788726 201 17774726350853122306
128620 24 14490187198337822783
12916748 109 14779548967485495004
13167823 11 18186799179986303923
13583140 156 18060128865098204567
13675066 3 18060412543092600473
14341114 176 18342179990096886969
14573314 32 18411979135606123965
14617045 38 18410017637043474363
15183329 4 18335984181918148001
15250474 111 18261096500590643387
15537594 2 17704071810930265470
15788980 27 17489585671258558509
17834072 33 18186522119982824468
17844677 252 18409171021447841337
1813 80 16732986401359036359
18222031 100 16200145482758137968
20645477 70 17203887470201063564
20681677 155 18040715862133908889
21033648 29 17703213058406082353
21267235 1 17203620255269922438
220451 1 18113624464754109311
2215653 11 18131346393534509111
22950370 63 18040434378076815541
2297311 6 18409172121570989653
23402539 116 16805316686933283157
23536379 177 18260547801126992208
23559900 14 18340763849216822105
239999 70 18272092708359035630
26918003 58 18202561778587070747
300161 21 17821722849373640797
3004659 81 18335422327429716122
34797466 226 18341621446421254532
4073 2 18041566935156723378
4214541 1 18409165498478231125
4340502 62 18411130377655117322
465052 167 17489594467435970518
5104073 3 18411694361735815016
542803 24 17821729420652614973
57724786 102 17060056012308155961
5924683 9 18059003021406414407
602551 16 18335134336528636251
7495541 125 18410007771276417368
90127 26 17846493751215410025
9841814 1 17346306112325670736

>  <PUBCHEM_SHAPE_MULTIPOLES>  (1) 
431.05
14.47
1.87
1.33
8.82
0.51
0.32
0.77
-1.55
1.6
0.02
-1.3
-0.17
0.61

>  <PUBCHEM_SHAPE_SELFOVERLAP>  (1) 
910.622

>  <PUBCHEM_SHAPE_VOLUME>  (1) 
250.2

>  <PUBCHEM_COORDINATE_TYPE>  (1) 
2
5
10

$$$$
