32574
     RDKit          3D

 19 21  0  0  1  0  0  0  0  0999 V2000
   -6.6846   -0.2944    0.9351 Br  0  0  0  0  0  0  0  0  0  0  0  0
    0.0053    0.3643   -0.0048 N   0  0  0  0  0  0  0  0  0  0  0  0
    2.4632    0.4669    0.6838 C   0  0  0  0  0  0  0  0  0  0  0  0
    3.7680    0.1469   -0.1150 C   0  0  0  0  0  0  0  0  0  0  0  0
    3.1411   -1.1453   -0.7018 C   0  0  0  0  0  0  0  0  0  0  0  0
    1.3858    0.5015   -0.4492 C   0  0  0  0  0  0  0  0  0  0  0  0
    2.2557   -0.8325    1.5165 C   0  0  0  0  0  0  0  0  0  0  0  0
    1.8331   -0.6551   -1.3702 C   0  0  0  0  0  0  0  0  0  0  0  0
    2.7156   -1.9387    0.5528 C   0  0  0  0  0  0  0  0  0  0  0  0
    2.4823    1.7171    1.5453 C   0  0  0  0  0  0  0  0  0  0  0  0
    5.0338   -0.1002    0.7305 C   0  0  0  0  0  0  0  0  0  0  0  0
    4.1678    1.1922   -1.1771 C   0  0  0  0  0  0  0  0  0  0  0  0
   -0.9069    0.3345   -1.1400 C   0  0  0  0  0  0  0  0  0  0  0  0
   -2.3105    0.1819   -0.6345 C   0  0  0  0  0  0  0  0  0  0  0  0
   -2.8457   -1.0899   -0.4603 C   0  0  0  0  0  0  0  0  0  0  0  0
   -3.0659    1.3132   -0.3450 C   0  0  0  0  0  0  0  0  0  0  0  0
   -4.1517   -1.2320    0.0087 C   0  0  0  0  0  0  0  0  0  0  0  0
   -4.3719    1.1712    0.1241 C   0  0  0  0  0  0  0  0  0  0  0  0
   -4.9147   -0.1016    0.3010 C   0  0  0  0  0  0  0  0  0  0  0  0
  1 19  1  0
  2  6  1  0
  2 13  1  0
  3  4  1  0
  3  6  1  0
  3  7  1  0
  3 10  1  0
  4  5  1  0
  4 11  1  0
  4 12  1  0
  5  8  1  0
  5  9  1  0
  6  8  1  0
  7  9  1  0
 13 14  1  0
 14 15  2  0
 14 16  1  0
 15 17  1  0
 16 18  2  0
 17 19  2  0
 18 19  1  0
M  END
>  <PUBCHEM_COMPOUND_CID>  (1) 
32574

>  <PUBCHEM_CONFORMER_RMSD>  (1) 
0.6

>  <PUBCHEM_CONFORMER_DIVERSEORDER>  (1) 
1
6
8
4
9
7
11
5
12
2
10
3

>  <PUBCHEM_MMFF94_PARTIAL_CHARGES>  (1) 
15
1 -0.11
13 0.41
14 -0.14
15 -0.15
16 -0.15
17 -0.15
18 -0.15
19 0.11
2 -0.9
37 0.36
40 0.15
41 0.15
42 0.15
43 0.15
6 0.27

>  <PUBCHEM_EFFECTIVE_ROTOR_COUNT>  (1) 
4

>  <PUBCHEM_PHARMACOPHORE_FEATURES>  (1) 
6
1 1 hydrophobe
1 2 cation
1 2 donor
3 4 11 12 hydrophobe
6 14 15 16 17 18 19 rings
7 3 4 5 6 7 8 9 rings

>  <PUBCHEM_HEAVY_ATOM_COUNT>  (1) 
19

>  <PUBCHEM_ATOM_DEF_STEREO_COUNT>  (1) 
0

>  <PUBCHEM_ATOM_UDEF_STEREO_COUNT>  (1) 
3

>  <PUBCHEM_BOND_DEF_STEREO_COUNT>  (1) 
0

>  <PUBCHEM_BOND_UDEF_STEREO_COUNT>  (1) 
0

>  <PUBCHEM_ISOTOPIC_ATOM_COUNT>  (1) 
0

>  <PUBCHEM_COMPONENT_COUNT>  (1) 
1

>  <PUBCHEM_CACTVS_TAUTO_COUNT>  (1) 
1

>  <PUBCHEM_CONFORMER_ID>  (1) 
00007F3E00000001

>  <PUBCHEM_MMFF94_ENERGY>  (1) 
71.5747

>  <PUBCHEM_FEATURE_SELFOVERLAP>  (1) 
30.446

>  <PUBCHEM_SHAPE_FINGERPRINT>  (1) 
10354089 29 17489591164236860921
10366900 7 18272082829564917943
11089746 13 13254795716251812315
11552529 35 17488739129242424407
12107183 9 17686335365814442313
12236239 1 17458065967457223245
12553582 1 17603578660381287199
12596602 18 18113344119923743961
12633257 1 17989200456469660863
128620 24 16008748004790275591
13167823 11 18186801348992189683
13224815 77 16805316678496381061
13533116 47 18411417276954528931
13583140 156 18339623573975136813
13668630 136 15646773384080165147
13836976 161 12540698111104793560
13955234 65 18114177545479255320
14251764 18 18341058480384741899
14252887 29 16732984197993158180
14289901 80 18186518787088254765
14341114 176 18273218586142162601
14849402 71 18190458445532834292
15048467 5 14836114499487842434
15788980 27 15574709183928841863
17349148 13 15213014938573206204
17834072 33 18186805802688711493
17844677 252 17967538947926587861
1813 80 16805330968111142383
18186145 218 15267338518082518151
200 152 14634866448937690149
21033648 29 16128085655637617505
21065199 12 18342172254839447417
21267235 1 18041002812729964322
21503847 285 17060622226167403952
22289505 5 10735878365665931594
22646028 1 16515683338550771613
23402539 116 15936683792160200596
23402655 69 10663819689016312598
23557571 272 13045932482749299591
23559900 14 18199475380554340959
239999 70 18335709316980969854
2838139 119 14404633027009225155
29717793 49 11169909476696773307
300161 21 18261104175907346781
351380 180 10879992449919088435
351380 3 16877662383668086827
4214541 1 18409448051359935773
4340502 62 18334009515170015106
474 4 17096660979189969188
5104073 3 18339920394516412609
5374978 207 18272932722120293145
542803 24 15051731988936700173
57724786 102 16271641286789757433
5924683 9 17845646079991901983
633830 44 14333117577174961357
7495541 125 18411697716469327960
77779 3 18408604742883664125
8272917 22 16558759979038538503

>  <PUBCHEM_SHAPE_MULTIPOLES>  (1) 
391.97
13.13
1.52
1.31
15.78
0.1
0.16
0.47
2.91
-0.51
0.18
-0.9
-0.1
0.07

>  <PUBCHEM_SHAPE_SELFOVERLAP>  (1) 
821.401

>  <PUBCHEM_SHAPE_VOLUME>  (1) 
231.6

>  <PUBCHEM_COORDINATE_TYPE>  (1) 
2
5
10

$$$$
