32579
     RDKit          3D

 12 12  0  0  0  0  0  0  0  0999 V2000
   -0.7629   -2.5058   -0.0465 Cl  0  0  0  0  0  0  0  0  0  0  0  0
    3.8514   -1.0572    0.1110 O   0  0  0  0  0  0  0  0  0  0  0  0
    3.9587    1.2157   -0.0976 O   0  0  0  0  0  0  0  0  0  0  0  0
   -0.7578    0.2309    0.0027 C   0  0  0  0  0  0  0  0  0  0  0  0
   -1.5079   -0.9451   -0.0187 C   0  0  0  0  0  0  0  0  0  0  0  0
   -1.4015    1.4682    0.0267 C   0  0  0  0  0  0  0  0  0  0  0  0
   -2.9015   -0.8835   -0.0161 C   0  0  0  0  0  0  0  0  0  0  0  0
   -2.7951    1.5295    0.0293 C   0  0  0  0  0  0  0  0  0  0  0  0
   -3.5450    0.3537    0.0079 C   0  0  0  0  0  0  0  0  0  0  0  0
    0.6745    0.2128    0.0019 C   0  0  0  0  0  0  0  0  0  0  0  0
    1.8736    0.1979    0.0008 C   0  0  0  0  0  0  0  0  0  0  0  0
    3.3135    0.1828   -0.0015 C   0  0  0  0  0  0  0  0  0  0  0  0
  1  5  1  0
  2 12  1  0
  3 12  2  0
  4  5  2  0
  4  6  1  0
  4 10  1  0
  5  7  1  0
  6  8  2  0
  7  9  2  0
  8  9  1  0
 10 11  3  0
 11 12  1  0
M  END
>  <PUBCHEM_COMPOUND_CID>  (1) 
32579

>  <PUBCHEM_CONFORMER_RMSD>  (1) 
0.4

>  <PUBCHEM_CONFORMER_DIVERSEORDER>  (1) 
1

>  <PUBCHEM_MMFF94_PARTIAL_CHARGES>  (1) 
17
1 -0.18
10 -0.07
11 -0.1
12 0.83
13 0.15
14 0.15
15 0.15
16 0.15
17 0.5
2 -0.65
3 -0.57
4 0.07
5 0.18
6 -0.15
7 -0.15
8 -0.15
9 -0.15

>  <PUBCHEM_EFFECTIVE_ROTOR_COUNT>  (1) 
0

>  <PUBCHEM_PHARMACOPHORE_FEATURES>  (1) 
4
1 2 acceptor
1 3 acceptor
3 2 3 12 anion
6 4 5 6 7 8 9 rings

>  <PUBCHEM_HEAVY_ATOM_COUNT>  (1) 
12

>  <PUBCHEM_ATOM_DEF_STEREO_COUNT>  (1) 
0

>  <PUBCHEM_ATOM_UDEF_STEREO_COUNT>  (1) 
0

>  <PUBCHEM_BOND_DEF_STEREO_COUNT>  (1) 
0

>  <PUBCHEM_BOND_UDEF_STEREO_COUNT>  (1) 
0

>  <PUBCHEM_ISOTOPIC_ATOM_COUNT>  (1) 
0

>  <PUBCHEM_COMPONENT_COUNT>  (1) 
1

>  <PUBCHEM_CACTVS_TAUTO_COUNT>  (1) 
1

>  <PUBCHEM_CONFORMER_ID>  (1) 
00007F4300000001

>  <PUBCHEM_MMFF94_ENERGY>  (1) 
18.2415

>  <PUBCHEM_FEATURE_SELFOVERLAP>  (1) 
20.352

>  <PUBCHEM_SHAPE_FINGERPRINT>  (1) 
10608611 8 18341890805516840336
12932764 1 17561075947414013964
13024252 1 13840262594221139917
13380535 76 18341331106616298351
14144814 61 18408603656293893920
14325111 11 18410856542639411360
15669948 3 18339919432665485102
15775835 57 18334859385401214585
18186145 218 18270686363745439164
190213 19 17675926503692364372
20510252 161 18343868809681370569
20528008 55 18341889722926332968
20645464 45 18131075922095212069
20645476 183 17896621620123432622
20645477 56 18410572916026763680
20871998 184 18199755906575770695
23402539 116 18343012316288476927
23463225 33 18262797359194628242
23559900 14 18272086089814334848
366044 4 18410291398305861499
43471831 8 18334573499789133251
6333449 129 18412824702918350845
69090 78 18413103965781292743
7364860 26 17981607065732973631
93112 12 18410858776365251292
9709674 26 18341899606010539462

>  <PUBCHEM_SHAPE_MULTIPOLES>  (1) 
237.09
6.73
1.92
0.61
6.12
0.93
0
-1.31
-0.02
-0.79
0.02
-0.06
0.01
-0.08

>  <PUBCHEM_SHAPE_SELFOVERLAP>  (1) 
486.503

>  <PUBCHEM_SHAPE_VOLUME>  (1) 
136.2

>  <PUBCHEM_COORDINATE_TYPE>  (1) 
2
5
10

$$$$
