32596
     RDKit          3D

 20 21  0  0  0  0  0  0  0  0999 V2000
    5.9013   -0.0127   -0.0583 N   0  0  0  0  0  0  0  0  0  0  0  0
   -0.1889    0.1256    0.7070 N   0  0  0  0  0  0  0  0  0  0  0  0
    0.3154   -0.0731   -0.4233 N   0  0  0  0  0  0  0  0  0  0  0  0
   -5.8564    0.0659    0.3456 C   0  0  0  0  0  0  0  0  0  0  0  0
   -4.3682    0.0812    0.4416 C   0  0  0  0  0  0  0  0  0  0  0  0
   -6.3440   -0.1856   -1.0881 C   0  0  0  0  0  0  0  0  0  0  0  0
   -3.6730   -1.1013    0.6941 C   0  0  0  0  0  0  0  0  0  0  0  0
   -3.6717    1.2785    0.2773 C   0  0  0  0  0  0  0  0  0  0  0  0
   -7.8613   -0.2339   -1.1724 C   0  0  0  0  0  0  0  0  0  0  0  0
    4.4945   -0.0278   -0.1520 C   0  0  0  0  0  0  0  0  0  0  0  0
   -1.5843    0.1107    0.6178 C   0  0  0  0  0  0  0  0  0  0  0  0
   -2.2809   -1.0866    0.7822 C   0  0  0  0  0  0  0  0  0  0  0  0
   -2.2796    1.2931    0.3653 C   0  0  0  0  0  0  0  0  0  0  0  0
    3.7978   -1.2252    0.0109 C   0  0  0  0  0  0  0  0  0  0  0  0
    3.7993    1.1545   -0.4057 C   0  0  0  0  0  0  0  0  0  0  0  0
    1.7178   -0.0579   -0.3332 C   0  0  0  0  0  0  0  0  0  0  0  0
    2.4059   -1.2404   -0.0800 C   0  0  0  0  0  0  0  0  0  0  0  0
    2.4075    1.1395   -0.4965 C   0  0  0  0  0  0  0  0  0  0  0  0
    6.6750   -1.1788   -0.4362 C   0  0  0  0  0  0  0  0  0  0  0  0
    6.5937    1.1740    0.4039 C   0  0  0  0  0  0  0  0  0  0  0  0
  1 10  1  0
  1 19  1  0
  1 20  1  0
  2  3  2  0
  2 11  1  0
  3 16  1  0
  4  5  1  0
  4  6  1  0
  5  7  2  0
  5  8  1  0
  6  9  1  0
  7 12  1  0
  8 13  2  0
 10 14  2  0
 10 15  1  0
 11 12  2  0
 11 13  1  0
 14 17  1  0
 15 18  2  0
 16 17  2  0
 16 18  1  0
M  END
>  <PUBCHEM_COMPOUND_CID>  (1) 
32596

>  <PUBCHEM_CONFORMER_RMSD>  (1) 
0.8

>  <PUBCHEM_CONFORMER_DIVERSEORDER>  (1) 
1
2
4
3

>  <PUBCHEM_MMFF94_PARTIAL_CHARGES>  (1) 
26
1 -0.84
10 0.1
11 0.18
12 -0.15
13 -0.15
14 -0.15
15 -0.15
16 0.18
17 -0.15
18 -0.15
19 0.37
2 -0.18
20 0.37
25 0.15
26 0.15
3 -0.18
30 0.15
31 0.15
32 0.15
33 0.15
34 0.15
35 0.15
4 0.14
5 -0.14
7 -0.15
8 -0.15

>  <PUBCHEM_EFFECTIVE_ROTOR_COUNT>  (1) 
5

>  <PUBCHEM_PHARMACOPHORE_FEATURES>  (1) 
4
1 1 cation
1 9 hydrophobe
6 10 14 15 16 17 18 rings
6 5 7 8 11 12 13 rings

>  <PUBCHEM_HEAVY_ATOM_COUNT>  (1) 
20

>  <PUBCHEM_ATOM_DEF_STEREO_COUNT>  (1) 
0

>  <PUBCHEM_ATOM_UDEF_STEREO_COUNT>  (1) 
0

>  <PUBCHEM_BOND_DEF_STEREO_COUNT>  (1) 
0

>  <PUBCHEM_BOND_UDEF_STEREO_COUNT>  (1) 
0

>  <PUBCHEM_ISOTOPIC_ATOM_COUNT>  (1) 
0

>  <PUBCHEM_COMPONENT_COUNT>  (1) 
1

>  <PUBCHEM_CACTVS_TAUTO_COUNT>  (1) 
1

>  <PUBCHEM_CONFORMER_ID>  (1) 
00007F5400000001

>  <PUBCHEM_MMFF94_ENERGY>  (1) 
63.6107

>  <PUBCHEM_FEATURE_SELFOVERLAP>  (1) 
20.297

>  <PUBCHEM_SHAPE_FINGERPRINT>  (1) 
10 15 18411412952296807160
10595046 47 18202003188141570929
106641 1 15769768074567250922
10968037 39 18412545418812720091
11089746 13 16732982046351783933
11315181 36 18186810192097873633
11719270 70 18409727348957435178
11796584 16 15502382236061012576
12107183 9 17615408061145052592
12166972 35 18060421317922290128
12236239 1 17918277532598250080
12516196 113 17704071789360489816
13288520 33 16917065573752122469
13533116 47 18339075991077460746
13668630 136 17489873730356843823
13914758 101 17603578595983352717
14123256 10 18201718462227856631
14251752 14 15719104751880766629
14251764 18 18413673508435653961
14251764 46 18409448081487802426
15183329 4 17894908508361840433
15716309 27 16917348134548489741
17834072 8 17749107790445879583
19489759 90 18410296899947977769
200 152 18202847638899405481
21095086 128 16343708725325101092
21150785 3 17418372519151264053
21267235 1 18334870406297819650
22224240 67 18131346419647548214
23035841 295 14836402532230838911
23402539 116 18261393381725067183
23559900 14 18337389456373173057
26918003 58 18260554441220109714
2838139 119 15574705903586840695
29717793 49 18342182154680932340
300161 21 17967530185697171866
3004659 81 18186519912311612048
3009799 131 17749385962672023469
335352 9 18410580574902895182
34797466 226 16988569022161344460
3545911 37 18334298664530473624
4073 2 17895203246308571962
4214541 1 18335426741970183897
4325135 7 18060418015160387421
5104073 3 18263935353597222712
5283156 175 18060137626889523743
5385378 56 13262664903850504289
542803 24 15339123424810372752
59755656 215 17894348847973806618
59755656 520 15068620517883699363
67856867 119 18189904286670092644

>  <PUBCHEM_SHAPE_MULTIPOLES>  (1) 
396.65
19.97
1.34
0.91
4.96
0.04
0.09
-0.93
4.71
-0.98
-0.07
1.05
-0.05
0.12

>  <PUBCHEM_SHAPE_SELFOVERLAP>  (1) 
829.42

>  <PUBCHEM_SHAPE_VOLUME>  (1) 
227.3

>  <PUBCHEM_COORDINATE_TYPE>  (1) 
2
5
10

$$$$
