32607
     RDKit          3D

 17 17  0  0  0  0  0  0  0  0999 V2000
   -2.0866    0.4646   -0.7002 O   0  0  0  0  0  0  0  0  0  0  0  0
    3.3074   -0.2607    0.1864 O   0  0  0  0  0  0  0  0  0  0  0  0
    2.2531    2.2962    0.0350 O   0  0  0  0  0  0  0  0  0  0  0  0
    1.6384   -2.4515   -0.1096 O   0  0  0  0  0  0  0  0  0  0  0  0
   -4.5491    1.2669    0.0148 O   0  0  0  0  0  0  0  0  0  0  0  0
   -5.1993   -0.8573    0.6155 N   0  0  0  0  0  0  0  0  0  0  0  0
    1.9737   -0.0814   -0.0330 C   0  0  0  0  0  0  0  0  0  0  0  0
    1.4465    1.2078   -0.1087 C   0  0  0  0  0  0  0  0  0  0  0  0
    1.1365   -1.1870   -0.1815 C   0  0  0  0  0  0  0  0  0  0  0  0
   -0.7552    0.2856   -0.4814 C   0  0  0  0  0  0  0  0  0  0  0  0
    0.0820    1.3913   -0.3328 C   0  0  0  0  0  0  0  0  0  0  0  0
   -0.2280   -1.0036   -0.4058 C   0  0  0  0  0  0  0  0  0  0  0  0
   -2.9667   -0.5462   -0.2110 C   0  0  0  0  0  0  0  0  0  0  0  0
    4.1480   -0.3345   -0.9628 C   0  0  0  0  0  0  0  0  0  0  0  0
    2.4290    2.8025    1.3567 C   0  0  0  0  0  0  0  0  0  0  0  0
    1.6697   -3.0641    1.1779 C   0  0  0  0  0  0  0  0  0  0  0  0
   -4.2994    0.0716    0.1405 C   0  0  0  0  0  0  0  0  0  0  0  0
  1 10  1  0
  1 13  1  0
  2  7  1  0
  2 14  1  0
  3  8  1  0
  3 15  1  0
  4  9  1  0
  4 16  1  0
  5 17  2  0
  6 17  1  0
  7  8  2  0
  7  9  1  0
  8 11  1  0
  9 12  2  0
 10 11  2  0
 10 12  1  0
 13 17  1  0
M  END
>  <PUBCHEM_COMPOUND_CID>  (1) 
32607

>  <PUBCHEM_CONFORMER_RMSD>  (1) 
0.8

>  <PUBCHEM_CONFORMER_DIVERSEORDER>  (1) 
1
7
26
25
8
14
29
6
10
3
4
13
24
18
12
19
17
5
11
9
21
22
20
16
28
27
15
2
23

>  <PUBCHEM_MMFF94_PARTIAL_CHARGES>  (1) 
21
1 -0.36
10 0.08
11 -0.15
12 -0.15
13 0.34
14 0.28
15 0.28
16 0.28
17 0.57
18 0.15
19 0.15
2 -0.36
3 -0.36
31 0.37
32 0.37
4 -0.36
5 -0.57
6 -0.8
7 0.08
8 0.08
9 0.08

>  <PUBCHEM_EFFECTIVE_ROTOR_COUNT>  (1) 
6

>  <PUBCHEM_PHARMACOPHORE_FEATURES>  (1) 
7
1 1 acceptor
1 2 acceptor
1 3 acceptor
1 4 acceptor
1 5 acceptor
1 6 donor
6 7 8 9 10 11 12 rings

>  <PUBCHEM_HEAVY_ATOM_COUNT>  (1) 
17

>  <PUBCHEM_ATOM_DEF_STEREO_COUNT>  (1) 
0

>  <PUBCHEM_ATOM_UDEF_STEREO_COUNT>  (1) 
0

>  <PUBCHEM_BOND_DEF_STEREO_COUNT>  (1) 
0

>  <PUBCHEM_BOND_UDEF_STEREO_COUNT>  (1) 
0

>  <PUBCHEM_ISOTOPIC_ATOM_COUNT>  (1) 
0

>  <PUBCHEM_COMPONENT_COUNT>  (1) 
1

>  <PUBCHEM_CACTVS_TAUTO_COUNT>  (1) 
2

>  <PUBCHEM_CONFORMER_ID>  (1) 
00007F5F00000001

>  <PUBCHEM_MMFF94_ENERGY>  (1) 
80.0193

>  <PUBCHEM_FEATURE_SELFOVERLAP>  (1) 
35.54

>  <PUBCHEM_SHAPE_FINGERPRINT>  (1) 
10366900 7 18259710003742633859
11471102 20 18411697681766561893
12251169 10 18413671310024250231
13140716 1 18266450082908867714
13380536 305 18410855507937350076
13533116 47 18334854975514514331
14178342 30 18191017014085954363
14252887 29 18131078090727012927
14790565 3 18337120033286133164
15375462 189 18410286978426071159
15442244 35 18123470475796716465
16945 1 18339060632521751766
18186145 218 18339354266292629045
20645477 70 18343577443663710423
21041028 32 18052532179989569874
21421861 104 17534340046241841651
2255824 54 18335703879262008268
22854114 111 18341611551096152973
2334 1 18049714423898233182
23558518 356 17906162203061617590
2748010 2 18192146229681071958
3060560 45 18060701658811162062
33824 294 18335137622357965683
5104073 3 18411703210196509497
58807428 26 18194095620979360552
633830 44 18342737476419274621
7364860 26 18342737403557635526
81228 2 16826697502458513334
9999458 23 18335986453760688628

>  <PUBCHEM_SHAPE_MULTIPOLES>  (1) 
315.52
7.94
2.77
0.94
11.05
0.4
0.19
-0.48
0.45
-2.81
1.29
-0.53
-0.01
0.45

>  <PUBCHEM_SHAPE_SELFOVERLAP>  (1) 
646.542

>  <PUBCHEM_SHAPE_VOLUME>  (1) 
183.7

>  <PUBCHEM_COORDINATE_TYPE>  (1) 
2
5
10

$$$$
