32617
     RDKit          3D

 21 21  0  0  0  0  0  0  0  0999 V2000
   -3.0405   -3.0323   -1.5146 Cl  0  0  0  0  0  0  0  0  0  0  0  0
   -0.7065   -3.7359    0.0230 Cl  0  0  0  0  0  0  0  0  0  0  0  0
   -3.1390   -3.0395    1.4105 Cl  0  0  0  0  0  0  0  0  0  0  0  0
   -4.6183    1.8249    1.3964 Cl  0  0  0  0  0  0  0  0  0  0  0  0
   -2.9890    3.7390   -0.0138 Cl  0  0  0  0  0  0  0  0  0  0  0  0
   -4.5313    1.8279   -1.5290 Cl  0  0  0  0  0  0  0  0  0  0  0  0
    1.0987    0.9017    0.0994 N   0  0  0  0  0  0  0  0  0  0  0  0
   -1.1775    1.4608    0.0336 N   0  0  0  0  0  0  0  0  0  0  0  0
   -0.4767   -0.8340    0.0422 N   0  0  0  0  0  0  0  0  0  0  0  0
   -2.8135   -0.2935   -0.0260 N   0  0  0  0  0  0  0  0  0  0  0  0
    4.7559   -0.1810    0.0908 C   0  0  0  0  0  0  0  0  0  0  0  0
    3.5381    0.7497    0.1087 C   0  0  0  0  0  0  0  0  0  0  0  0
    6.0593    0.6174    0.0047 C   0  0  0  0  0  0  0  0  0  0  0  0
    2.2153   -0.0118    0.1283 C   0  0  0  0  0  0  0  0  0  0  0  0
    7.3087   -0.2643   -0.0474 C   0  0  0  0  0  0  0  0  0  0  0  0
    8.6013    0.5218   -0.2039 C   0  0  0  0  0  0  0  0  0  0  0  0
   -0.2263    0.4969    0.0571 C   0  0  0  0  0  0  0  0  0  0  0  0
   -2.4362    0.9950   -0.0075 C   0  0  0  0  0  0  0  0  0  0  0  0
   -1.7808   -1.1513    0.0006 C   0  0  0  0  0  0  0  0  0  0  0  0
   -2.1162   -2.6036   -0.0177 C   0  0  0  0  0  0  0  0  0  0  0  0
   -3.5258    2.0121   -0.0354 C   0  0  0  0  0  0  0  0  0  0  0  0
  1 20  1  0
  2 20  1  0
  3 20  1  0
  4 21  1  0
  5 21  1  0
  6 21  1  0
  7 14  1  0
  7 17  1  0
  8 17  2  0
  8 18  1  0
  9 17  1  0
  9 19  2  0
 10 18  2  0
 10 19  1  0
 11 12  1  0
 11 13  1  0
 12 14  1  0
 13 15  1  0
 15 16  1  0
 18 21  1  0
 19 20  1  0
M  END
>  <PUBCHEM_COMPOUND_CID>  (1) 
32617

>  <PUBCHEM_CONFORMER_RMSD>  (1) 
0.8

>  <PUBCHEM_CONFORMER_DIVERSEORDER>  (1) 
1
67
33
61
34
80
84
75
69
19
81
25
56
85
20
73
74
77
86
7
79
82
39
55
57
32
12
54
14
62
72
58
64
26
53
27
40
50
10
63
46
52
47
60
70
38
83
89
44
4
42
87
29
22
6
90
66
16
71
36
2
35
45
11
18
28
3
76
78
59
24
13
68
21
31
65
51
88
30
5
41
8
17
9
23
48
43
49
15
37

>  <PUBCHEM_MMFF94_PARTIAL_CHARGES>  (1) 
17
1 -0.29
10 -0.62
14 0.37
17 0.72
18 0.48
19 0.48
2 -0.29
20 1.01
21 1.01
3 -0.29
32 0.4
4 -0.29
5 -0.29
6 -0.29
7 -0.87
8 -0.62
9 -0.62

>  <PUBCHEM_EFFECTIVE_ROTOR_COUNT>  (1) 
8

>  <PUBCHEM_PHARMACOPHORE_FEATURES>  (1) 
5
1 16 hydrophobe
1 7 donor
4 11 12 13 15 hydrophobe
4 7 8 9 17 cation
6 8 9 10 17 18 19 rings

>  <PUBCHEM_HEAVY_ATOM_COUNT>  (1) 
21

>  <PUBCHEM_ATOM_DEF_STEREO_COUNT>  (1) 
0

>  <PUBCHEM_ATOM_UDEF_STEREO_COUNT>  (1) 
0

>  <PUBCHEM_BOND_DEF_STEREO_COUNT>  (1) 
0

>  <PUBCHEM_BOND_UDEF_STEREO_COUNT>  (1) 
0

>  <PUBCHEM_ISOTOPIC_ATOM_COUNT>  (1) 
0

>  <PUBCHEM_COMPONENT_COUNT>  (1) 
1

>  <PUBCHEM_CACTVS_TAUTO_COUNT>  (1) 
3

>  <PUBCHEM_CONFORMER_ID>  (1) 
00007F6900000001

>  <PUBCHEM_MMFF94_ENERGY>  (1) 
30.3291

>  <PUBCHEM_FEATURE_SELFOVERLAP>  (1) 
25.372

>  <PUBCHEM_SHAPE_FINGERPRINT>  (1) 
10165383 225 18271530793424589953
10319926 262 18341882022967850376
10411042 1 18050287269689237859
10835480 77 18272645775925466456
11315181 36 17775564256392592232
11545043 162 18130221653611669544
11809386 21 18261667168890114666
12616971 3 17168150053144562540
12788726 201 18335687391183668315
13257819 101 16806993348372791445
14508225 48 18196920292173694277
14790565 3 17907582428270841240
14844126 61 18338237166742374354
15021287 119 17313391132231774124
15042514 8 18335989774171269867
15230672 131 18265336119555618506
15927050 60 18341331068125545263
167882 2 18048872992460430303
17093844 174 18411695509293825472
17844677 252 18339367487067174576
18927931 339 18340491174601844270
20101258 96 18264775535089460449
20645477 56 18410292475910460872
20681677 155 18408603643772852802
21236236 1 18411981394795922770
21426921 1 18410855494646168718
21756936 100 17988929929607408689
22224240 67 18341061718685186289
23559900 14 18272926138215373816
4073 2 18408608072406776946
4214541 1 18410855482320624424
4409770 3 18335416907302340415
484985 159 17531813579397214179
5104073 3 18339076094952981992
5364581 5 18126834127043756088
559249 180 18335416868531434290
58260988 114 16443923772109034267
59755656 520 18337665330532973692
6327066 14 18189327966531198933
6669772 16 18198909119429619527
7226269 152 18059575737572128480
77188 2 17833833051310724271
81228 2 18195516224652166617

>  <PUBCHEM_SHAPE_MULTIPOLES>  (1) 
423.46
15.93
4.28
1.07
51.4
2.47
0.08
-6.56
0.74
-8.54
0.06
-1.72
0.28
0.01

>  <PUBCHEM_SHAPE_SELFOVERLAP>  (1) 
785.378

>  <PUBCHEM_SHAPE_VOLUME>  (1) 
261.3

>  <PUBCHEM_COORDINATE_TYPE>  (1) 
2
5
10

$$$$
