32624
     RDKit          3D

 16 16  0  0  0  0  0  0  0  0999 V2000
    3.4742    1.5758    1.3496 Cl  0  0  0  0  0  0  0  0  0  0  0  0
    1.8127   -2.5821    1.3521 Cl  0  0  0  0  0  0  0  0  0  0  0  0
   -0.7662   -3.4329    0.3864 Cl  0  0  0  0  0  0  0  0  0  0  0  0
    1.3641   -2.9958   -1.5102 Cl  0  0  0  0  0  0  0  0  0  0  0  0
   -2.5601    1.1931   -0.0065 N   0  0  0  0  0  0  0  0  0  0  0  0
   -0.3119    1.6992   -0.4406 N   0  0  0  0  0  0  0  0  0  0  0  0
    1.3088   -0.0704   -0.4382 N   0  0  0  0  0  0  0  0  0  0  0  0
   -0.9992   -0.5567    0.0031 N   0  0  0  0  0  0  0  0  0  0  0  0
    2.0072    2.1958   -0.8853 C   0  0  0  0  0  0  0  0  0  0  0  0
    0.9329    1.2123   -0.5678 C   0  0  0  0  0  0  0  0  0  0  0  0
   -1.2494    0.7651   -0.1525 C   0  0  0  0  0  0  0  0  0  0  0  0
   -3.6611    0.3132    0.2998 C   0  0  0  0  0  0  0  0  0  0  0  0
    0.2902   -0.8975   -0.1530 C   0  0  0  0  0  0  0  0  0  0  0  0
    2.6816    2.8152    0.3455 C   0  0  0  0  0  0  0  0  0  0  0  0
   -4.9487    1.1070    0.4109 C   0  0  0  0  0  0  0  0  0  0  0  0
    0.6250   -2.3413    0.0067 C   0  0  0  0  0  0  0  0  0  0  0  0
  1 14  1  0
  2 16  1  0
  3 16  1  0
  4 16  1  0
  5 11  1  0
  5 12  1  0
  6 10  2  0
  6 11  1  0
  7 10  1  0
  7 13  2  0
  8 11  2  0
  8 13  1  0
  9 10  1  0
  9 14  1  0
 12 15  1  0
 13 16  1  0
M  END
>  <PUBCHEM_COMPOUND_CID>  (1) 
32624

>  <PUBCHEM_CONFORMER_RMSD>  (1) 
0.6

>  <PUBCHEM_CONFORMER_DIVERSEORDER>  (1) 
1
53
60
62
65
63
71
10
14
37
54
48
30
36
69
41
58
40
64
61
55
46
57
59
51
56
50
35
17
70
32
28
66
49
33
52
67
26
9
45
34
29
27
20
7
12
31
24
38
16
25
42
11
23
4
44
13
68
6
43
2
19
39
3
21
47
22
15
5
18
8

>  <PUBCHEM_MMFF94_PARTIAL_CHARGES>  (1) 
16
1 -0.29
10 0.48
11 0.72
12 0.37
13 0.48
14 0.29
16 1.01
2 -0.29
21 0.4
3 -0.29
4 -0.29
5 -0.87
6 -0.62
7 -0.62
8 -0.62
9 0.14

>  <PUBCHEM_EFFECTIVE_ROTOR_COUNT>  (1) 
5

>  <PUBCHEM_PHARMACOPHORE_FEATURES>  (1) 
3
1 5 donor
4 5 6 8 11 cation
6 6 7 8 10 11 13 rings

>  <PUBCHEM_HEAVY_ATOM_COUNT>  (1) 
16

>  <PUBCHEM_ATOM_DEF_STEREO_COUNT>  (1) 
0

>  <PUBCHEM_ATOM_UDEF_STEREO_COUNT>  (1) 
0

>  <PUBCHEM_BOND_DEF_STEREO_COUNT>  (1) 
0

>  <PUBCHEM_BOND_UDEF_STEREO_COUNT>  (1) 
0

>  <PUBCHEM_ISOTOPIC_ATOM_COUNT>  (1) 
0

>  <PUBCHEM_COMPONENT_COUNT>  (1) 
1

>  <PUBCHEM_CACTVS_TAUTO_COUNT>  (1) 
9

>  <PUBCHEM_CONFORMER_ID>  (1) 
00007F7000000001

>  <PUBCHEM_MMFF94_ENERGY>  (1) 
27.3128

>  <PUBCHEM_FEATURE_SELFOVERLAP>  (1) 
15.223

>  <PUBCHEM_SHAPE_FINGERPRINT>  (1) 
12553582 1 17687760345985238683
12788726 201 17399800887400673048
13140716 1 18336827592903662848
13380535 76 18339080509551295733
14022349 108 18336535028590452008
15502708 68 18410289215951044965
15906896 17 17833833046651844638
16752209 62 17905611360462254390
16945 1 18187068573135562972
20510252 161 17693385846382744488
20600515 1 17107615061281162508
20645477 70 18336550409432704693
20711985 344 17399252222613921556
20871998 184 17621327161681300404
20871998 22 17906737994835261607
21524375 3 18267861859875553373
21731228 192 18339356491143769008
2255824 54 18265062349100649975
23419403 2 17461696442629056838
23558518 356 18047189941053825398
23598294 1 17904479963045181000
2748010 2 18193578858545090358
3071541 236 17976251666558036980
3091708 16 9116692462573078611
33824 294 18408047316759241353
352729 6 18121509208850629381
5104073 3 18265063453572358417
57672749 33 18265326205789118898
58807428 26 18336532915445657784
7364860 26 18270685259706618701
81228 2 17472421422606967300
81539 233 18334297582552454845
84936 182 18201164265107263193
9841814 1 18118411631334383083

>  <PUBCHEM_SHAPE_MULTIPOLES>  (1) 
316.83
5.7
4.4
1.15
6.96
3.43
0.03
-5.47
1.98
-2.54
-0.05
-0.91
0.49
0.18

>  <PUBCHEM_SHAPE_SELFOVERLAP>  (1) 
597.263

>  <PUBCHEM_SHAPE_VOLUME>  (1) 
194.1

>  <PUBCHEM_COORDINATE_TYPE>  (1) 
2
5
10

$$$$
