32626
     RDKit          3D

 16 16  0  0  0  0  0  0  0  0999 V2000
    5.3817    1.4560   -0.3301 Br  0  0  0  0  0  0  0  0  0  0  0  0
   -0.2696   -3.4096    1.4216 Cl  0  0  0  0  0  0  0  0  0  0  0  0
   -2.4473   -2.7547   -0.3492 Cl  0  0  0  0  0  0  0  0  0  0  0  0
    0.1685   -3.2390   -1.4670 Cl  0  0  0  0  0  0  0  0  0  0  0  0
   -1.7745    2.1617    0.0378 N   0  0  0  0  0  0  0  0  0  0  0  0
    0.4627    1.5230    0.3307 N   0  0  0  0  0  0  0  0  0  0  0  0
    1.0319   -0.8075    0.2801 N   0  0  0  0  0  0  0  0  0  0  0  0
   -1.2487   -0.1228   -0.0161 N   0  0  0  0  0  0  0  0  0  0  0  0
    2.7583    0.8420    0.6293 C   0  0  0  0  0  0  0  0  0  0  0  0
    1.3265    0.4973    0.3987 C   0  0  0  0  0  0  0  0  0  0  0  0
   -0.8238    1.1558    0.1201 C   0  0  0  0  0  0  0  0  0  0  0  0
   -3.1793    1.9206   -0.1830 C   0  0  0  0  0  0  0  0  0  0  0  0
   -0.2741   -1.0420    0.0742 C   0  0  0  0  0  0  0  0  0  0  0  0
    3.5098    1.0540   -0.6815 C   0  0  0  0  0  0  0  0  0  0  0  0
   -3.9386    3.2335   -0.1968 C   0  0  0  0  0  0  0  0  0  0  0  0
   -0.6836   -2.4682   -0.0687 C   0  0  0  0  0  0  0  0  0  0  0  0
  1 14  1  0
  2 16  1  0
  3 16  1  0
  4 16  1  0
  5 11  1  0
  5 12  1  0
  6 10  2  0
  6 11  1  0
  7 10  1  0
  7 13  2  0
  8 11  2  0
  8 13  1  0
  9 10  1  0
  9 14  1  0
 12 15  1  0
 13 16  1  0
M  END
>  <PUBCHEM_COMPOUND_CID>  (1) 
32626

>  <PUBCHEM_CONFORMER_RMSD>  (1) 
0.6

>  <PUBCHEM_CONFORMER_DIVERSEORDER>  (1) 
1
35
31
61
52
64
51
4
44
26
50
37
39
69
60
56
67
43
46
32
34
71
59
47
65
42
66
14
63
29
70
40
27
45
55
12
38
30
54
6
9
33
8
19
58
41
24
62
28
11
48
49
16
57
68
21
18
15
10
23
22
25
2
3
53
20
36
13
7
17
5

>  <PUBCHEM_MMFF94_PARTIAL_CHARGES>  (1) 
16
1 -0.23
10 0.48
11 0.72
12 0.37
13 0.48
14 0.23
16 1.01
2 -0.29
21 0.4
3 -0.29
4 -0.29
5 -0.87
6 -0.62
7 -0.62
8 -0.62
9 0.14

>  <PUBCHEM_EFFECTIVE_ROTOR_COUNT>  (1) 
5

>  <PUBCHEM_PHARMACOPHORE_FEATURES>  (1) 
4
1 1 hydrophobe
1 5 donor
4 5 6 8 11 cation
6 6 7 8 10 11 13 rings

>  <PUBCHEM_HEAVY_ATOM_COUNT>  (1) 
16

>  <PUBCHEM_ATOM_DEF_STEREO_COUNT>  (1) 
0

>  <PUBCHEM_ATOM_UDEF_STEREO_COUNT>  (1) 
0

>  <PUBCHEM_BOND_DEF_STEREO_COUNT>  (1) 
0

>  <PUBCHEM_BOND_UDEF_STEREO_COUNT>  (1) 
0

>  <PUBCHEM_ISOTOPIC_ATOM_COUNT>  (1) 
0

>  <PUBCHEM_COMPONENT_COUNT>  (1) 
1

>  <PUBCHEM_CACTVS_TAUTO_COUNT>  (1) 
9

>  <PUBCHEM_CONFORMER_ID>  (1) 
00007F7200000001

>  <PUBCHEM_MMFF94_ENERGY>  (1) 
27.4571

>  <PUBCHEM_FEATURE_SELFOVERLAP>  (1) 
20.297

>  <PUBCHEM_SHAPE_FINGERPRINT>  (1) 
11833330 49 18048308139683594072
12500047 106 18413387657631300932
12532896 13 18408608037197381100
12788726 201 18191577756204776322
15906896 17 18337106881768705250
16752209 62 18339629157269084522
16945 1 18267011950282565050
17539 30 18126559252703070558
20600515 1 17033566741264352320
20645476 183 18408041818884981180
20645477 70 17834386831720446061
20711985 344 18193545899198182362
20871999 31 18339923830891480852
21041028 32 17685788216750264547
21285901 2 17914354590779538247
21339142 126 18126004016864645750
21426921 1 18265899245085208188
21499 59 18337386020389059341
21524375 3 18338509734046343160
2255824 54 17763461712825087913
22620623 9 18128829705776104204
23402539 116 17985546895041789295
23419403 2 17055043248370423799
23530152 11 18340200770255788397
23557571 272 18198352938882641900
23558518 356 18334575754631061202
23559900 14 18273219695341321604
23598288 3 18191037896375138364
23598291 2 18040983056418219946
2748010 2 18339654338419494379
298252 57 18334858290411830000
3071541 12 17764313842473212585
3071541 37 18121219775120333429
3084891 8 18271807977222758079
3091708 16 9268684551887252257
3759504 43 18333454239743084696
394222 165 18044372729959482648
4175511 71 17474113575402804203
458136 41 18196662791398851185
559249 180 18410009928188594506
57210444 14 18342187622274565932
6025842 7 18051121494256515581
68521 5 18194401319012333852
7364860 26 17766272081393243169
81228 2 18121489417345820073
81539 233 18192145989010286229

>  <PUBCHEM_SHAPE_MULTIPOLES>  (1) 
320.9
6.86
4.79
1
10.72
1.01
0.03
-6.14
1.22
-6.61
0.28
0.07
0.92
0.1

>  <PUBCHEM_SHAPE_SELFOVERLAP>  (1) 
599.63

>  <PUBCHEM_SHAPE_VOLUME>  (1) 
207.9

>  <PUBCHEM_COORDINATE_TYPE>  (1) 
2
5
10

$$$$
