32632
     RDKit          3D

 20 21  0  0  0  0  0  0  0  0999 V2000
    0.8344   -3.4715   -1.6281 Cl  0  0  0  0  0  0  0  0  0  0  0  0
    3.2142   -2.7244   -0.1842 Cl  0  0  0  0  0  0  0  0  0  0  0  0
    0.8808   -3.5540    1.2970 Cl  0  0  0  0  0  0  0  0  0  0  0  0
    2.0478    2.1122   -0.0255 N   0  0  0  0  0  0  0  0  0  0  0  0
   -0.1405    1.2686   -0.0044 N   0  0  0  0  0  0  0  0  0  0  0  0
    1.7455   -0.2126   -0.0859 N   0  0  0  0  0  0  0  0  0  0  0  0
   -0.4814   -1.1057   -0.0665 N   0  0  0  0  0  0  0  0  0  0  0  0
    3.5039    1.9829   -0.0572 C   0  0  0  0  0  0  0  0  0  0  0  0
    4.0339    1.6293    1.3295 C   0  0  0  0  0  0  0  0  0  0  0  0
    4.1184    3.2842   -0.5633 C   0  0  0  0  0  0  0  0  0  0  0  0
    1.1977    1.0308   -0.0385 C   0  0  0  0  0  0  0  0  0  0  0  0
   -0.9077    0.1668   -0.0208 C   0  0  0  0  0  0  0  0  0  0  0  0
   -2.3322    0.3706    0.0142 C   0  0  0  0  0  0  0  0  0  0  0  0
    0.8562   -1.2185   -0.0969 C   0  0  0  0  0  0  0  0  0  0  0  0
   -3.1662   -0.5825    0.6080 C   0  0  0  0  0  0  0  0  0  0  0  0
   -2.8936    1.5234   -0.5446 C   0  0  0  0  0  0  0  0  0  0  0  0
    1.4102   -2.6018   -0.1481 C   0  0  0  0  0  0  0  0  0  0  0  0
   -4.5466   -0.3851    0.6422 C   0  0  0  0  0  0  0  0  0  0  0  0
   -4.2741    1.7208   -0.5102 C   0  0  0  0  0  0  0  0  0  0  0  0
   -5.1005    0.7665    0.0833 C   0  0  0  0  0  0  0  0  0  0  0  0
  1 17  1  0
  2 17  1  0
  3 17  1  0
  4  8  1  0
  4 11  1  0
  5 11  2  0
  5 12  1  0
  6 11  1  0
  6 14  2  0
  7 12  2  0
  7 14  1  0
  8  9  1  0
  8 10  1  0
 12 13  1  0
 13 15  2  0
 13 16  1  0
 14 17  1  0
 15 18  1  0
 16 19  2  0
 18 20  2  0
 19 20  1  0
M  END
>  <PUBCHEM_COMPOUND_CID>  (1) 
32632

>  <PUBCHEM_CONFORMER_RMSD>  (1) 
0.6

>  <PUBCHEM_CONFORMER_DIVERSEORDER>  (1) 
1
22
23
28
14
31
20
15
30
29
19
11
2
13
17
27
26
10
6
12
16
5
21
3
18
24
8
4
25
7
9

>  <PUBCHEM_MMFF94_PARTIAL_CHARGES>  (1) 
23
1 -0.29
11 0.72
12 0.62
14 0.48
15 -0.15
16 -0.15
17 1.01
18 -0.15
19 -0.15
2 -0.29
20 -0.15
22 0.4
29 0.15
3 -0.29
30 0.15
31 0.15
32 0.15
33 0.15
4 -0.87
5 -0.62
6 -0.62
7 -0.62
8 0.37

>  <PUBCHEM_EFFECTIVE_ROTOR_COUNT>  (1) 
4

>  <PUBCHEM_PHARMACOPHORE_FEATURES>  (1) 
5
1 4 donor
3 8 9 10 hydrophobe
4 4 5 6 11 cation
6 13 15 16 18 19 20 rings
6 5 6 7 11 12 14 rings

>  <PUBCHEM_HEAVY_ATOM_COUNT>  (1) 
20

>  <PUBCHEM_ATOM_DEF_STEREO_COUNT>  (1) 
0

>  <PUBCHEM_ATOM_UDEF_STEREO_COUNT>  (1) 
0

>  <PUBCHEM_BOND_DEF_STEREO_COUNT>  (1) 
0

>  <PUBCHEM_BOND_UDEF_STEREO_COUNT>  (1) 
0

>  <PUBCHEM_ISOTOPIC_ATOM_COUNT>  (1) 
0

>  <PUBCHEM_COMPONENT_COUNT>  (1) 
1

>  <PUBCHEM_CACTVS_TAUTO_COUNT>  (1) 
4

>  <PUBCHEM_CONFORMER_ID>  (1) 
00007F7800000001

>  <PUBCHEM_MMFF94_ENERGY>  (1) 
49.0901

>  <PUBCHEM_FEATURE_SELFOVERLAP>  (1) 
25.371

>  <PUBCHEM_SHAPE_FINGERPRINT>  (1) 
10608611 8 18334574591090381069
12553582 1 17617669756553246939
12592029 89 18409167735850120736
12707595 3 18049448045821777799
12788726 201 17618776307764114298
12839892 36 18264476446509819819
13140716 1 18410005550788972466
13583140 156 16879601921783987408
138480 1 18193839232663960558
14790565 3 18193284206625533581
15042514 8 17686908619141302738
15219456 202 18335421244997529353
15502722 9 18411421683073581045
15927050 60 18339080523064620670
17539 30 17337025357750415438
1813 80 17485659156174684174
18785283 64 18334575729082238356
19591789 44 18196373847215010566
19784866 9 18412821382687371240
20369508 70 18045216042814791923
204376 136 18339644563116483993
20600515 1 17474090013101059280
20645477 70 18340765940965881767
212916 134 18127955594148469688
21524375 3 18268146637666023994
221490 88 18335992978069562747
2255824 54 18341332184589688646
23366157 5 18115876204338207552
23419403 2 17753027437582156366
23557571 272 17095807612216768765
23559900 14 18264483988577665337
3091708 16 9404359875897218154
314173 41 18050010987079684959
352729 6 17977110389492079310
3759504 43 18119250803419408348
42630746 31 18342174462056966212
474229 33 18192995039698849497
5104073 3 18335427812345449721
58807428 26 18338218462676251874
59755656 215 18335140864678342740
6025842 7 18341610395965877773
6138700 20 18338522929066896670
621550 34 18259982669863168733
633830 44 18343304790107233740
6669772 16 18059305339663727542
7364860 26 18341332188963497774
7808743 9 17904483257560007432
81228 2 17187548984973096034
81539 233 18410292523080838964
8272917 22 18341054025596560917
9709674 26 18334581231167693627
9841814 1 18046347435615509019
9999458 23 18335139769952279742

>  <PUBCHEM_SHAPE_MULTIPOLES>  (1) 
397.28
8.79
4.42
1.03
7.56
2.42
0
-6.43
0.79
-6.31
-0.56
-0.41
0.62
0.64

>  <PUBCHEM_SHAPE_SELFOVERLAP>  (1) 
806.14

>  <PUBCHEM_SHAPE_VOLUME>  (1) 
228.5

>  <PUBCHEM_COORDINATE_TYPE>  (1) 
2
5
10

$$$$
