3264
     RDKit          3D

 26 29  0  0  1  0  0  0  0  0999 V2000
   -4.4501    1.1274   -0.4024 O   0  0  0  0  0  0  0  0  0  0  0  0
    5.5930    0.1674   -0.1319 O   0  0  0  0  0  0  0  0  0  0  0  0
   -4.4469    2.4842    1.4675 O   0  0  0  0  0  0  0  0  0  0  0  0
    5.0122    2.3005    0.6378 O   0  0  0  0  0  0  0  0  0  0  0  0
   -2.9627   -0.8269   -0.7568 C   0  0  0  0  0  0  0  0  0  0  0  0
   -2.1602   -1.6949    0.2467 C   0  0  0  0  0  0  0  0  0  0  0  0
   -0.7045   -1.2101    0.4758 C   0  0  0  0  0  0  0  0  0  0  0  0
    0.0439   -0.9761   -0.8617 C   0  0  0  0  0  0  0  0  0  0  0  0
   -3.3785    0.3686    0.1292 C   0  0  0  0  0  0  0  0  0  0  0  0
   -2.1448   -0.3924   -1.9836 C   0  0  0  0  0  0  0  0  0  0  0  0
   -3.0006   -1.5929    1.5386 C   0  0  0  0  0  0  0  0  0  0  0  0
   -0.7271    0.0793   -1.6730 C   0  0  0  0  0  0  0  0  0  0  0  0
   -3.7287   -0.2463    1.4843 C   0  0  0  0  0  0  0  0  0  0  0  0
    0.0994   -2.2135    1.3166 C   0  0  0  0  0  0  0  0  0  0  0  0
   -4.1977   -1.6008   -1.2788 C   0  0  0  0  0  0  0  0  0  0  0  0
    1.5210   -0.6477   -0.6505 C   0  0  0  0  0  0  0  0  0  0  0  0
    1.4361   -1.5989    1.7164 C   0  0  0  0  0  0  0  0  0  0  0  0
    2.1699   -0.9726    0.5592 C   0  0  0  0  0  0  0  0  0  0  0  0
    2.2949   -0.0988   -1.6891 C   0  0  0  0  0  0  0  0  0  0  0  0
    3.5346   -0.6789    0.7264 C   0  0  0  0  0  0  0  0  0  0  0  0
   -4.8929    2.1654    0.3737 C   0  0  0  0  0  0  0  0  0  0  0  0
    3.6529    0.1777   -1.5158 C   0  0  0  0  0  0  0  0  0  0  0  0
    4.2716   -0.1047   -0.3052 C   0  0  0  0  0  0  0  0  0  0  0  0
   -6.0215    2.8744   -0.3115 C   0  0  0  0  0  0  0  0  0  0  0  0
    5.8543    1.4546    0.3666 C   0  0  0  0  0  0  0  0  0  0  0  0
    7.3324    1.6562    0.5216 C   0  0  0  0  0  0  0  0  0  0  0  0
  1  9  1  0
  1 21  1  0
  2 23  1  0
  2 25  1  0
  3 21  2  0
  4 25  2  0
  5  6  1  0
  5  9  1  0
  5 10  1  0
  5 15  1  0
  6  7  1  0
  6 11  1  0
  7  8  1  0
  7 14  1  0
  8 12  1  0
  8 16  1  0
  9 13  1  0
 10 12  1  0
 11 13  1  0
 14 17  1  0
 16 18  2  0
 16 19  1  0
 17 18  1  0
 18 20  1  0
 19 22  2  0
 20 23  2  0
 21 24  1  0
 22 23  1  0
 25 26  1  0
M  END
>  <PUBCHEM_COMPOUND_CID>  (1) 
3264

>  <PUBCHEM_CONFORMER_RMSD>  (1) 
0.8

>  <PUBCHEM_CONFORMER_DIVERSEORDER>  (1) 
1
145
207
205
235
56
260
210
215
258
18
3
234
171
132
204
270
40
57
124
131
13
194
14
69
181
264
186
125
193
75
128
129
232
91
127
200
259
163
209
148
254
31
24
216
34
197
256
146
188
272
174
139
189
85
263
206
21
265
8
78
236
90
114
134
54
44
74
52
221
266
138
100
238
84
47
60
105
220
86
106
269
243
262
226
253
195
211
141
136
120
93
140
183
267
214
177
68
201
261
123
246
118
63
76
33
137
71
172
251
29
65
92
230
135
222
157
112
213
223
70
45
162
130
225
166
39
104
224
271
61
51
83
155
7
180
110
170
237
28
250
23
151
273
156
208
109
133
245
16
26
179
5
102
176
150
143
80
6
49
72
165
55
168
242
116
164
268
219
248
121
37
42
46
255
240
94
101
257
228
217
82
2
67
59
167
202
191
175
182
95
66
154
229
159
119
203
20
158
190
117
192
19
97
111
99
81
212
173
103
17
196
115
87
184
77
107
10
38
218
160
199
58
241
30
32
249
113
4
161
147
169
152
22
198
27
227
89
149
53
64
50
98
126
144
62
142
187
231
244
41
88
15
233
73
153
178
247
239
43
108
252
36
48
25
79
9
185
96
122
11
12
35

>  <PUBCHEM_MMFF94_PARTIAL_CHARGES>  (1) 
20
1 -0.43
16 -0.14
17 0.14
18 -0.14
19 -0.15
2 -0.23
20 -0.15
21 0.66
22 -0.15
23 0.08
24 0.06
25 0.66
26 0.06
3 -0.57
4 -0.57
46 0.15
47 0.15
48 0.15
8 0.14
9 0.28

>  <PUBCHEM_EFFECTIVE_ROTOR_COUNT>  (1) 
5.4

>  <PUBCHEM_PHARMACOPHORE_FEATURES>  (1) 
6
1 3 acceptor
1 4 acceptor
5 5 6 9 11 13 rings
6 16 18 19 20 22 23 rings
6 5 6 7 8 10 12 rings
6 7 8 14 16 17 18 rings

>  <PUBCHEM_HEAVY_ATOM_COUNT>  (1) 
26

>  <PUBCHEM_ATOM_DEF_STEREO_COUNT>  (1) 
0

>  <PUBCHEM_ATOM_UDEF_STEREO_COUNT>  (1) 
5

>  <PUBCHEM_BOND_DEF_STEREO_COUNT>  (1) 
0

>  <PUBCHEM_BOND_UDEF_STEREO_COUNT>  (1) 
0

>  <PUBCHEM_ISOTOPIC_ATOM_COUNT>  (1) 
0

>  <PUBCHEM_COMPONENT_COUNT>  (1) 
1

>  <PUBCHEM_CACTVS_TAUTO_COUNT>  (1) 
1

>  <PUBCHEM_CONFORMER_ID>  (1) 
00000CC000000001

>  <PUBCHEM_MMFF94_ENERGY>  (1) 
83.441

>  <PUBCHEM_FEATURE_SELFOVERLAP>  (1) 
30.632

>  <PUBCHEM_SHAPE_FINGERPRINT>  (1) 
10006869 2 18047462340590949909
10498660 4 17704068461124578771
10554248 39 16486983843399098524
10906281 52 17531543070078125206
11069576 57 15122681172296234212
11370993 144 18261111842207997418
11961588 58 18059570240271977601
12422481 6 16877661219167511982
12596602 18 18334578989194609529
12633257 1 15502671411307390513
12895837 130 18343021137513570973
12916754 54 9367337137652375051
13073987 5 18408041822942779674
13140716 1 17023480757646040543
13690498 29 15265920264173710796
13914758 101 18131351908979392234
14068700 675 17753334459431246051
14251751 18 8070033276655566952
14251764 38 18266742574440379732
14739800 52 18338227168037286993
14950920 106 14924243628613201821
15163728 17 17486219916438374721
15188451 53 11458430154267864609
15209294 21 18187088334348689551
17980427 23 18334295391776119781
18222031 100 11527947833675434798
19438510 23 18340494361425302265
19784866 240 9943515320046776905
19958102 18 15410626874037220628
20511986 3 18114734942034921701
21637258 2 11242553128456271697
21756936 100 18409727386994566098
21792961 116 16271934826498420222
22393880 68 12175625027350606603
23379529 103 10807058571063605373
23559900 14 15482125873239703782
23569914 2 17554560185632275848
25122255 55 10737285727506450840
270888 7 18338515236242535617
2838139 119 18057890134828348585
2916195 48 18340486768007057264
3472631 163 18343300332231665637
392239 28 17676763262544028556
46194498 28 16915934256778547090
463206 1 10159396718489317213
465052 167 13406792217014077448
5104073 3 17749387053208777322
5385378 56 17822287938848887250
57724786 102 17630062459430929515
633830 44 18410853231362544806
7064713 232 17822017522705880086
7808743 9 18201154352448954481
7970288 3 9222930574748034537

>  <PUBCHEM_SHAPE_MULTIPOLES>  (1) 
511.59
14.53
2.52
1.74
13.42
1.34
-0.31
13.36
2.73
-2.62
1.06
-0.67
-0.32
-0.3

>  <PUBCHEM_SHAPE_SELFOVERLAP>  (1) 
1099.54

>  <PUBCHEM_SHAPE_VOLUME>  (1) 
279.5

>  <PUBCHEM_COORDINATE_TYPE>  (1) 
2
5
10

$$$$
