32644
     RDKit          3D

 22 23  0  0  0  0  0  0  0  0999 V2000
    4.1447   -2.3104    1.4883 Cl  0  0  0  0  0  0  0  0  0  0  0  0
    2.2689   -3.9090   -0.0058 Cl  0  0  0  0  0  0  0  0  0  0  0  0
    4.1859   -2.2963   -1.4381 Cl  0  0  0  0  0  0  0  0  0  0  0  0
    3.5683    2.7498   -1.4475 Cl  0  0  0  0  0  0  0  0  0  0  0  0
    1.3285    3.8500   -0.0053 Cl  0  0  0  0  0  0  0  0  0  0  0  0
    3.5391    2.7380    1.4791 Cl  0  0  0  0  0  0  0  0  0  0  0  0
   -1.2610   -0.4004   -0.0442 N   0  0  0  0  0  0  0  0  0  0  0  0
    0.5945    1.0331   -0.0198 N   0  0  0  0  0  0  0  0  0  0  0  0
    0.8832   -1.3490   -0.0173 N   0  0  0  0  0  0  0  0  0  0  0  0
    2.8016    0.0921    0.0075 N   0  0  0  0  0  0  0  0  0  0  0  0
   -2.2005    0.7222   -0.0557 C   0  0  0  0  0  0  0  0  0  0  0  0
   -3.6224    0.2732   -0.0205 C   0  0  0  0  0  0  0  0  0  0  0  0
    0.1036   -0.2350   -0.0267 C   0  0  0  0  0  0  0  0  0  0  0  0
   -4.3081    0.0342   -1.2114 C   0  0  0  0  0  0  0  0  0  0  0  0
   -4.2668    0.0928    1.2034 C   0  0  0  0  0  0  0  0  0  0  0  0
    1.9345    1.1173   -0.0030 C   0  0  0  0  0  0  0  0  0  0  0  0
    2.2045   -1.1106   -0.0007 C   0  0  0  0  0  0  0  0  0  0  0  0
   -5.6381   -0.3853   -1.1786 C   0  0  0  0  0  0  0  0  0  0  0  0
   -5.5966   -0.3268    1.2364 C   0  0  0  0  0  0  0  0  0  0  0  0
   -6.2822   -0.5658    0.0454 C   0  0  0  0  0  0  0  0  0  0  0  0
    3.0996   -2.3025    0.0096 C   0  0  0  0  0  0  0  0  0  0  0  0
    2.5190    2.4886    0.0049 C   0  0  0  0  0  0  0  0  0  0  0  0
  1 21  1  0
  2 21  1  0
  3 21  1  0
  4 22  1  0
  5 22  1  0
  6 22  1  0
  7 11  1  0
  7 13  1  0
  8 13  2  0
  8 16  1  0
  9 13  1  0
  9 17  2  0
 10 16  2  0
 10 17  1  0
 11 12  1  0
 12 14  2  0
 12 15  1  0
 14 18  1  0
 15 19  2  0
 16 22  1  0
 17 21  1  0
 18 20  2  0
 19 20  1  0
M  END
>  <PUBCHEM_COMPOUND_CID>  (1) 
32644

>  <PUBCHEM_CONFORMER_RMSD>  (1) 
0.8

>  <PUBCHEM_CONFORMER_DIVERSEORDER>  (1) 
1
15
13
12
8
10
11
9
3
7
4
14
2
6
5

>  <PUBCHEM_MMFF94_PARTIAL_CHARGES>  (1) 
28
1 -0.29
10 -0.62
11 0.51
12 -0.14
13 0.72
14 -0.15
15 -0.15
16 0.48
17 0.48
18 -0.15
19 -0.15
2 -0.29
20 -0.15
21 1.01
22 1.01
25 0.4
26 0.15
27 0.15
28 0.15
29 0.15
3 -0.29
30 0.15
4 -0.29
5 -0.29
6 -0.29
7 -0.87
8 -0.62
9 -0.62

>  <PUBCHEM_EFFECTIVE_ROTOR_COUNT>  (1) 
5

>  <PUBCHEM_PHARMACOPHORE_FEATURES>  (1) 
4
1 7 donor
4 7 8 9 13 cation
6 12 14 15 18 19 20 rings
6 8 9 10 13 16 17 rings

>  <PUBCHEM_HEAVY_ATOM_COUNT>  (1) 
22

>  <PUBCHEM_ATOM_DEF_STEREO_COUNT>  (1) 
0

>  <PUBCHEM_ATOM_UDEF_STEREO_COUNT>  (1) 
0

>  <PUBCHEM_BOND_DEF_STEREO_COUNT>  (1) 
0

>  <PUBCHEM_BOND_UDEF_STEREO_COUNT>  (1) 
0

>  <PUBCHEM_ISOTOPIC_ATOM_COUNT>  (1) 
0

>  <PUBCHEM_COMPONENT_COUNT>  (1) 
1

>  <PUBCHEM_CACTVS_TAUTO_COUNT>  (1) 
3

>  <PUBCHEM_CONFORMER_ID>  (1) 
00007F8400000001

>  <PUBCHEM_MMFF94_ENERGY>  (1) 
49.9132

>  <PUBCHEM_FEATURE_SELFOVERLAP>  (1) 
20.297

>  <PUBCHEM_SHAPE_FINGERPRINT>  (1) 
10411042 1 18194683666379641182
10693767 8 18130518465843138006
10912923 1 17775568663397880755
11405975 8 18339080368345272553
12107183 9 17983308023765344177
12236239 1 17775851216163404297
12403259 415 17749109985474770317
12553582 1 18268146466084272806
12596602 18 16845281705885056363
12616971 3 18131351895778044119
12730499 353 18263372541103976385
13009979 54 17773889600871532913
13167823 11 18202001023884423999
13533116 47 18413111671643445427
13955234 65 18412824715576315472
14739800 52 17131539656548829569
14863182 85 18409728500050660612
15250474 111 18130775803167429007
15961568 22 16733267966425059461
17844677 252 18410577250133873677
1813 80 18129106610797023958
18222031 100 18270398274508835582
18785283 64 18334295392087199382
19377110 9 17846210111997142995
1979834 28 18189333631535020181
20369508 70 18335983082259223294
20645477 70 18334856121447745451
21033648 29 17822001013553169133
21049683 271 18334586720172659036
21065201 7 16515401863943241739
21344244 78 18201707432219344681
221490 88 18335701590091970669
22182313 1 18042386002615985141
2255824 54 18411700984870965822
23559900 14 18333734632540926787
239999 70 17967531285229671355
312423 11 18271537411705175649
314194 84 18337958870120895451
3421961 26 18410290276907823794
34797466 226 16515979137618045615
42630746 31 18412824707355625988
474 4 18268145551261461369
5104073 3 18411422796097982401
5281201 14 18334010571510625373
59755656 215 18335136518730809644
6025842 7 18409730694198297615
67856867 119 18271798047394739905
7495541 125 18113901528678490454
8863177 126 18114196262857801395
9841814 1 18335699399853893722

>  <PUBCHEM_SHAPE_MULTIPOLES>  (1) 
444.04
12.79
4.24
1.32
23.28
0.78
-0.04
-3.43
-0.1
-9.1
-0.01
-0.32
0.05
-0.03

>  <PUBCHEM_SHAPE_SELFOVERLAP>  (1) 
873.59

>  <PUBCHEM_SHAPE_VOLUME>  (1) 
260.5

>  <PUBCHEM_COORDINATE_TYPE>  (1) 
2
5
10

$$$$
