32645
     RDKit          3D

 18 18  0  0  0  0  0  0  0  0999 V2000
   -3.4877    1.6490    1.3697 Cl  0  0  0  0  0  0  0  0  0  0  0  0
   -1.9237    3.6491    0.0054 Cl  0  0  0  0  0  0  0  0  0  0  0  0
   -3.3431    1.6785   -1.5532 Cl  0  0  0  0  0  0  0  0  0  0  0  0
   -1.6232   -3.1055   -1.5411 Cl  0  0  0  0  0  0  0  0  0  0  0  0
    0.7107   -3.7093    0.0384 Cl  0  0  0  0  0  0  0  0  0  0  0  0
   -1.7790   -3.1398    1.3812 Cl  0  0  0  0  0  0  0  0  0  0  0  0
    2.2913    1.0081    0.1819 N   0  0  0  0  0  0  0  0  0  0  0  0
    0.8017   -0.8000    0.0815 N   0  0  0  0  0  0  0  0  0  0  0  0
   -0.0072    1.4590    0.0741 N   0  0  0  0  0  0  0  0  0  0  0  0
   -1.5563   -0.3705   -0.0301 N   0  0  0  0  0  0  0  0  0  0  0  0
    0.9874    0.5410    0.1103 C   0  0  0  0  0  0  0  0  0  0  0  0
   -0.4847   -1.1785    0.0117 C   0  0  0  0  0  0  0  0  0  0  0  0
   -1.2413    0.9344    0.0045 C   0  0  0  0  0  0  0  0  0  0  0  0
    3.4489    0.1501    0.2271 C   0  0  0  0  0  0  0  0  0  0  0  0
   -2.3772    1.8987   -0.0385 C   0  0  0  0  0  0  0  0  0  0  0  0
   -0.7501   -2.6449   -0.0232 C   0  0  0  0  0  0  0  0  0  0  0  0
    4.6766    0.9996    0.3053 C   0  0  0  0  0  0  0  0  0  0  0  0
    5.6568    0.9810   -0.6050 C   0  0  0  0  0  0  0  0  0  0  0  0
  1 15  1  0
  2 15  1  0
  3 15  1  0
  4 16  1  0
  5 16  1  0
  6 16  1  0
  7 11  1  0
  7 14  1  0
  8 11  2  0
  8 12  1  0
  9 11  1  0
  9 13  2  0
 10 12  2  0
 10 13  1  0
 12 16  1  0
 13 15  1  0
 14 17  1  0
 17 18  2  0
M  END
>  <PUBCHEM_COMPOUND_CID>  (1) 
32645

>  <PUBCHEM_CONFORMER_RMSD>  (1) 
0.6

>  <PUBCHEM_CONFORMER_DIVERSEORDER>  (1) 
1
18
13
14
2
16
6
15
9
17
19
7
12
10
4
5
8
3
11

>  <PUBCHEM_MMFF94_PARTIAL_CHARGES>  (1) 
22
1 -0.29
10 -0.62
11 0.72
12 0.48
13 0.48
14 0.51
15 1.01
16 1.01
17 -0.29
18 -0.3
19 0.4
2 -0.29
22 0.15
23 0.15
24 0.15
3 -0.29
4 -0.29
5 -0.29
6 -0.29
7 -0.87
8 -0.62
9 -0.62

>  <PUBCHEM_EFFECTIVE_ROTOR_COUNT>  (1) 
5

>  <PUBCHEM_PHARMACOPHORE_FEATURES>  (1) 
4
1 18 hydrophobe
1 7 donor
4 7 8 9 11 cation
6 8 9 10 11 12 13 rings

>  <PUBCHEM_HEAVY_ATOM_COUNT>  (1) 
18

>  <PUBCHEM_ATOM_DEF_STEREO_COUNT>  (1) 
0

>  <PUBCHEM_ATOM_UDEF_STEREO_COUNT>  (1) 
0

>  <PUBCHEM_BOND_DEF_STEREO_COUNT>  (1) 
0

>  <PUBCHEM_BOND_UDEF_STEREO_COUNT>  (1) 
0

>  <PUBCHEM_ISOTOPIC_ATOM_COUNT>  (1) 
0

>  <PUBCHEM_COMPONENT_COUNT>  (1) 
1

>  <PUBCHEM_CACTVS_TAUTO_COUNT>  (1) 
3

>  <PUBCHEM_CONFORMER_ID>  (1) 
00007F8500000001

>  <PUBCHEM_MMFF94_ENERGY>  (1) 
33.506

>  <PUBCHEM_FEATURE_SELFOVERLAP>  (1) 
20.297

>  <PUBCHEM_SHAPE_FINGERPRINT>  (1) 
11357001 24 18263927803118828578
12173636 292 18410569561820998428
12500047 106 18411695496372123392
12553582 1 17762343917564010222
12759256 9 17692808190798755623
12788726 201 18264191672929978634
13052359 8 18335695070162595866
13140716 1 18121789588552449649
13583140 156 17022901242062215784
14508225 48 17981594180645982532
15042514 8 18336274547034082363
16752209 62 18266159812013565322
167882 2 18048028580552162006
16945 1 17906731397881182059
18785283 64 17760376491455420792
20101258 96 18048329022241881352
204376 136 18337391543505725952
20510252 161 18343022207123698256
20645477 56 18411142437591520568
20645477 70 17834663908597677493
21041028 32 17903650918250465763
21202864 24 18340784722509662337
21524375 3 18339914901232128377
22224240 67 18341344322979768041
2255824 54 17764581019735598239
23366157 5 17684650926531890168
23402539 116 18200306753437627711
23419403 2 17125974925306101311
23557571 272 18200043970506924172
23598288 3 18118134781694480806
23598294 1 18336539534100933378
2748010 2 18265910068012319535
3071541 12 17690842263665433216
3091708 16 9198313599974864480
352729 6 18410293626945566600
3759504 43 18261107469741074284
458136 41 18197223542059738336
474229 33 18409450280463689249
5104073 3 18338513158100805408
559249 180 18335412449363579714
58779409 54 18268414905655274950
59755656 520 18130797728347122777
633830 44 18056481634257182164
7364860 26 17692527814980179865
81228 2 18123457547660046377

>  <PUBCHEM_SHAPE_MULTIPOLES>  (1) 
361.73
7.29
4.87
1.18
12.8
3.82
0.15
-6.87
0.5
-3.49
0.08
-1.18
0.4
-0.05

>  <PUBCHEM_SHAPE_SELFOVERLAP>  (1) 
677.128

>  <PUBCHEM_SHAPE_VOLUME>  (1) 
220.8

>  <PUBCHEM_COORDINATE_TYPE>  (1) 
2
5
10

$$$$
