32657
     RDKit          3D

 17 17  0  0  0  0  0  0  0  0999 V2000
   -3.5117    0.4853    1.4603 Cl  0  0  0  0  0  0  0  0  0  0  0  0
   -2.8394    2.8747   -0.0045 Cl  0  0  0  0  0  0  0  0  0  0  0  0
   -3.5019    0.4766   -1.4664 Cl  0  0  0  0  0  0  0  0  0  0  0  0
   -0.1568   -3.3516   -1.4685 Cl  0  0  0  0  0  0  0  0  0  0  0  0
    2.2963   -3.0171    0.0070 Cl  0  0  0  0  0  0  0  0  0  0  0  0
   -0.1754   -3.3514    1.4582 Cl  0  0  0  0  0  0  0  0  0  0  0  0
    2.0520    1.9543    0.0092 N   0  0  0  0  0  0  0  0  0  0  0  0
    1.3217   -0.2739    0.0049 N   0  0  0  0  0  0  0  0  0  0  0  0
   -0.2550    1.5349    0.0040 N   0  0  0  0  0  0  0  0  0  0  0  0
   -1.0331   -0.7350   -0.0010 N   0  0  0  0  0  0  0  0  0  0  0  0
    1.0132    1.0487    0.0060 C   0  0  0  0  0  0  0  0  0  0  0  0
    3.4553    1.5602    0.0115 C   0  0  0  0  0  0  0  0  0  0  0  0
    0.2602   -1.0963    0.0014 C   0  0  0  0  0  0  0  0  0  0  0  0
   -1.2144    0.5954    0.0004 C   0  0  0  0  0  0  0  0  0  0  0  0
   -2.6245    1.0789   -0.0023 C   0  0  0  0  0  0  0  0  0  0  0  0
    0.5466   -2.5591   -0.0002 C   0  0  0  0  0  0  0  0  0  0  0  0
    4.3669    2.7753   -0.0200 C   0  0  0  0  0  0  0  0  0  0  0  0
  1 15  1  0
  2 15  1  0
  3 15  1  0
  4 16  1  0
  5 16  1  0
  6 16  1  0
  7 11  1  0
  7 12  1  0
  8 11  2  0
  8 13  1  0
  9 11  1  0
  9 14  2  0
 10 13  2  0
 10 14  1  0
 12 17  1  0
 13 16  1  0
 14 15  1  0
M  END
>  <PUBCHEM_COMPOUND_CID>  (1) 
32657

>  <PUBCHEM_CONFORMER_RMSD>  (1) 
0.6

>  <PUBCHEM_CONFORMER_DIVERSEORDER>  (1) 
1
11
5
9
10
4
8
7
12
2
6
3

>  <PUBCHEM_MMFF94_PARTIAL_CHARGES>  (1) 
17
1 -0.29
10 -0.62
11 0.72
12 0.37
13 0.48
14 0.48
15 1.01
16 1.01
2 -0.29
20 0.4
3 -0.29
4 -0.29
5 -0.29
6 -0.29
7 -0.87
8 -0.62
9 -0.62

>  <PUBCHEM_EFFECTIVE_ROTOR_COUNT>  (1) 
4

>  <PUBCHEM_PHARMACOPHORE_FEATURES>  (1) 
3
1 7 donor
4 7 8 9 11 cation
6 8 9 10 11 13 14 rings

>  <PUBCHEM_HEAVY_ATOM_COUNT>  (1) 
17

>  <PUBCHEM_ATOM_DEF_STEREO_COUNT>  (1) 
0

>  <PUBCHEM_ATOM_UDEF_STEREO_COUNT>  (1) 
0

>  <PUBCHEM_BOND_DEF_STEREO_COUNT>  (1) 
0

>  <PUBCHEM_BOND_UDEF_STEREO_COUNT>  (1) 
0

>  <PUBCHEM_ISOTOPIC_ATOM_COUNT>  (1) 
0

>  <PUBCHEM_COMPONENT_COUNT>  (1) 
1

>  <PUBCHEM_CACTVS_TAUTO_COUNT>  (1) 
3

>  <PUBCHEM_CONFORMER_ID>  (1) 
00007F9100000001

>  <PUBCHEM_MMFF94_ENERGY>  (1) 
30.8575

>  <PUBCHEM_FEATURE_SELFOVERLAP>  (1) 
15.223

>  <PUBCHEM_SHAPE_FINGERPRINT>  (1) 
108231 29 17902248714307395242
11357001 24 17903075882453856106
12553582 1 17472976203859860059
12759256 9 18196933266869111255
12788726 201 17833533966757337514
13140716 1 18336834095415590379
13583140 156 16951112010402624744
14508225 48 17333642177472289244
14648413 74 18048880697721443289
15042514 8 18047478012825697560
15309172 13 18337393837160829785
16752209 62 17834096916863557530
16945 1 18266740190685427555
19591789 44 18411427227976658326
204376 136 18337675324890547448
20510252 161 18054513770552408824
20600515 1 17248939727168658170
20645477 70 18267011766268871597
21524375 3 18412542149699140128
2255824 54 18196648506131532543
23402539 116 17840023271298992759
23419403 2 17827963621738991074
23526113 38 17775013448411949912
23557571 272 17550689024603102812
23598291 2 17987228933442416549
23598294 1 17904197375840505656
2748010 2 18336842964507368470
305870 269 18410575054625188296
3071541 12 18194965145339907388
3091708 16 9192126639597982528
352729 6 18193560192817870116
4175511 71 17333382203212742065
474229 33 18265335191108582753
58779409 54 17836914964790851980
633830 44 18272943699550884396
7364860 26 18196371416269042628
81228 2 17619622931158060121
84936 182 18200867383877204848

>  <PUBCHEM_SHAPE_MULTIPOLES>  (1) 
341.15
5.91
4.78
1.18
1.15
1.7
-0.01
-5.65
-0.01
-4.83
-0.01
0.9
0.93
-0.01

>  <PUBCHEM_SHAPE_SELFOVERLAP>  (1) 
633.864

>  <PUBCHEM_SHAPE_VOLUME>  (1) 
209.9

>  <PUBCHEM_COORDINATE_TYPE>  (1) 
2
5
10

$$$$
