32652
     RDKit          3D

 15 15  0  0  0  0  0  0  0  0999 V2000
    1.5014   -2.6492   -1.4258 Cl  0  0  0  0  0  0  0  0  0  0  0  0
    3.5662   -0.9418   -0.3635 Cl  0  0  0  0  0  0  0  0  0  0  0  0
    1.9767   -2.5163    1.4589 Cl  0  0  0  0  0  0  0  0  0  0  0  0
   -0.4143   -0.8860    0.3032 N   0  0  0  0  0  0  0  0  0  0  0  0
   -1.0330    1.4324    0.2991 N   0  0  0  0  0  0  0  0  0  0  0  0
    1.2539    0.8003   -0.0585 N   0  0  0  0  0  0  0  0  0  0  0  0
    0.6194    3.0575   -0.0567 N   0  0  0  0  0  0  0  0  0  0  0  0
   -2.7161   -0.2579    0.6637 C   0  0  0  0  0  0  0  0  0  0  0  0
   -3.4914   -0.4671   -0.6376 C   0  0  0  0  0  0  0  0  0  0  0  0
   -1.2817    0.1244    0.4028 C   0  0  0  0  0  0  0  0  0  0  0  0
   -4.9290   -0.8818   -0.3668 C   0  0  0  0  0  0  0  0  0  0  0  0
    0.8414   -0.4710    0.0712 C   0  0  0  0  0  0  0  0  0  0  0  0
    0.2628    1.6973    0.0673 C   0  0  0  0  0  0  0  0  0  0  0  0
    1.8836   -1.5292   -0.0553 C   0  0  0  0  0  0  0  0  0  0  0  0
    1.9601    3.4885   -0.3020 C   0  0  0  0  0  0  0  0  0  0  0  0
  1 14  1  0
  2 14  1  0
  3 14  1  0
  4 10  2  0
  4 12  1  0
  5 10  1  0
  5 13  2  0
  6 12  2  0
  6 13  1  0
  7 13  1  0
  7 15  1  0
  8  9  1  0
  8 10  1  0
  9 11  1  0
 12 14  1  0
M  END
>  <PUBCHEM_COMPOUND_CID>  (1) 
32652

>  <PUBCHEM_CONFORMER_RMSD>  (1) 
0.6

>  <PUBCHEM_CONFORMER_DIVERSEORDER>  (1) 
1
23
15
10
20
16
18
22
17
9
19
5
7
8
13
6
21
14
11
12
3
4
2

>  <PUBCHEM_MMFF94_PARTIAL_CHARGES>  (1) 
14
1 -0.29
10 0.48
12 0.48
13 0.72
14 1.01
15 0.37
2 -0.29
23 0.4
3 -0.29
4 -0.62
5 -0.62
6 -0.62
7 -0.87
8 0.14

>  <PUBCHEM_EFFECTIVE_ROTOR_COUNT>  (1) 
4

>  <PUBCHEM_PHARMACOPHORE_FEATURES>  (1) 
4
1 11 hydrophobe
1 7 donor
4 5 6 7 13 cation
6 4 5 6 10 12 13 rings

>  <PUBCHEM_HEAVY_ATOM_COUNT>  (1) 
15

>  <PUBCHEM_ATOM_DEF_STEREO_COUNT>  (1) 
0

>  <PUBCHEM_ATOM_UDEF_STEREO_COUNT>  (1) 
0

>  <PUBCHEM_BOND_DEF_STEREO_COUNT>  (1) 
0

>  <PUBCHEM_BOND_UDEF_STEREO_COUNT>  (1) 
0

>  <PUBCHEM_ISOTOPIC_ATOM_COUNT>  (1) 
0

>  <PUBCHEM_COMPONENT_COUNT>  (1) 
1

>  <PUBCHEM_CACTVS_TAUTO_COUNT>  (1) 
9

>  <PUBCHEM_CONFORMER_ID>  (1) 
00007F8C00000001

>  <PUBCHEM_MMFF94_ENERGY>  (1) 
27.7472

>  <PUBCHEM_FEATURE_SELFOVERLAP>  (1) 
20.297

>  <PUBCHEM_SHAPE_FINGERPRINT>  (1) 
1 1 18192992853349856637
116883 192 17909548355087366853
12553582 1 18265623091283041515
12759256 9 18340502147852505459
13380535 76 18048313650142303321
14181834 199 18335704987300104901
14251717 144 18340486771790431964
14252887 29 18272658908970177867
15477762 27 18342175570549230623
15502722 9 18265334091744686981
15757776 16 18409165485066107290
16945 1 18339376243582052256
193761 8 17834682969282572698
20369508 70 18187633696701476587
20645476 183 17101722155714016572
20645477 70 18339920532657193407
20671657 53 18337950091507864091
20711985 344 17688325490070959674
20871998 22 18199472073588070383
21524375 3 17905604758929066041
22112679 90 18053690008504098953
221490 88 18192155008721384075
2255824 54 18340207491811106295
2334 1 17762625387775969440
23388829 49 18344144782546297401
23402539 116 18267863891701279830
23419403 2 15291763060675974880
23526113 38 18113620054002330771
23530152 11 17908987947617441069
23557571 272 18053377704584440346
23598291 2 18129961030416688169
257057 1 18191576454597297353
2748010 2 18195524796610557412
3060560 45 18121498217850263541
3071541 12 18338242673022368193
3071541 37 18192152809291777749
58734987 36 18409164407123845799
6025842 7 18268706294186826543
6338986 31 18192701259567418123
7364860 26 18341051925178341465
81228 2 17907862795056240977
81539 233 18117553157392262717
88987 49 17328305745401010598

>  <PUBCHEM_SHAPE_MULTIPOLES>  (1) 
294.38
5.97
3.66
1.03
7.62
3.36
-0.02
-3.5
0.92
-3.38
0.36
-0.39
-0.81
-0.37

>  <PUBCHEM_SHAPE_SELFOVERLAP>  (1) 
562.575

>  <PUBCHEM_SHAPE_VOLUME>  (1) 
178.3

>  <PUBCHEM_COORDINATE_TYPE>  (1) 
2
5
10

$$$$
