3266
     RDKit          3D

 24 27  0  0  1  0  0  0  0  0999 V2000
   -3.5826    0.4409   -0.4265 O   0  0  0  0  0  0  0  0  0  0  0  0
   -3.9960    1.2049    1.7110 O   0  0  0  0  0  0  0  0  0  0  0  0
    6.3644    1.7198    0.7059 O   0  0  0  0  0  0  0  0  0  0  0  0
   -1.6459   -0.9605   -1.0917 C   0  0  0  0  0  0  0  0  0  0  0  0
   -0.7037   -1.8641   -0.2548 C   0  0  0  0  0  0  0  0  0  0  0  0
    0.5759   -1.1455    0.2481 C   0  0  0  0  0  0  0  0  0  0  0  0
    1.3069   -0.3982   -0.8969 C   0  0  0  0  0  0  0  0  0  0  0  0
   -2.3840   -0.1729    0.0136 C   0  0  0  0  0  0  0  0  0  0  0  0
   -0.9021   -0.0397   -2.0724 C   0  0  0  0  0  0  0  0  0  0  0  0
   -1.6039   -2.3051    0.9202 C   0  0  0  0  0  0  0  0  0  0  0  0
    0.3400    0.6360   -1.4984 C   0  0  0  0  0  0  0  0  0  0  0  0
   -2.6368   -1.1925    1.1243 C   0  0  0  0  0  0  0  0  0  0  0  0
    1.5605   -2.1316    0.8948 C   0  0  0  0  0  0  0  0  0  0  0  0
   -2.6268   -1.8216   -1.9242 C   0  0  0  0  0  0  0  0  0  0  0  0
    2.6464    0.1835   -0.4479 C   0  0  0  0  0  0  0  0  0  0  0  0
    2.6848   -1.3642    1.5812 C   0  0  0  0  0  0  0  0  0  0  0  0
    3.2968   -0.3013    0.7062 C   0  0  0  0  0  0  0  0  0  0  0  0
    3.3106    1.1510   -1.2238 C   0  0  0  0  0  0  0  0  0  0  0  0
    4.5382    0.2346    1.0916 C   0  0  0  0  0  0  0  0  0  0  0  0
   -4.3054    1.1062    0.5316 C   0  0  0  0  0  0  0  0  0  0  0  0
    4.5493    1.6676   -0.8375 C   0  0  0  0  0  0  0  0  0  0  0  0
    5.1599    1.2155    0.3248 C   0  0  0  0  0  0  0  0  0  0  0  0
   -5.5444    1.6999   -0.0965 C   0  0  0  0  0  0  0  0  0  0  0  0
   -6.4021    2.4371    0.9172 C   0  0  0  0  0  0  0  0  0  0  0  0
  1  8  1  0
  1 20  1  0
  2 20  2  0
  3 22  1  0
  4  5  1  0
  4  8  1  0
  4  9  1  0
  4 14  1  0
  5  6  1  0
  5 10  1  0
  6  7  1  0
  6 13  1  0
  7 11  1  0
  7 15  1  0
  8 12  1  0
  9 11  1  0
 10 12  1  0
 13 16  1  0
 15 17  2  0
 15 18  1  0
 16 17  1  0
 17 19  1  0
 18 21  2  0
 19 22  2  0
 20 23  1  0
 21 22  1  0
 23 24  1  0
M  END
>  <PUBCHEM_COMPOUND_CID>  (1) 
3266

>  <PUBCHEM_CONFORMER_RMSD>  (1) 
0.8

>  <PUBCHEM_CONFORMER_DIVERSEORDER>  (1) 
1
36
103
78
38
58
99
97
40
5
74
28
88
72
67
44
55
7
63
96
69
73
87
11
27
82
93
39
86
25
3
42
12
76
90
33
92
41
70
56
34
54
61
68
47
30
52
83
37
102
64
57
18
65
24
100
2
22
53
46
95
98
104
49
45
19
26
77
17
85
32
23
4
94
35
75
48
71
89
8
60
10
9
81
16
79
80
20
66
50
51
15
59
29
84
101
43
21
13
62
105
31
6
91
14

>  <PUBCHEM_MMFF94_PARTIAL_CHARGES>  (1) 
18
1 -0.43
15 -0.14
16 0.14
17 -0.14
18 -0.15
19 -0.15
2 -0.57
20 0.66
21 -0.15
22 0.08
23 0.06
3 -0.53
44 0.15
45 0.15
46 0.15
49 0.45
7 0.14
8 0.28

>  <PUBCHEM_EFFECTIVE_ROTOR_COUNT>  (1) 
4.4

>  <PUBCHEM_PHARMACOPHORE_FEATURES>  (1) 
7
1 2 acceptor
1 24 hydrophobe
1 3 donor
5 4 5 8 10 12 rings
6 15 17 18 19 21 22 rings
6 4 5 6 7 9 11 rings
6 6 7 13 15 16 17 rings

>  <PUBCHEM_HEAVY_ATOM_COUNT>  (1) 
24

>  <PUBCHEM_ATOM_DEF_STEREO_COUNT>  (1) 
0

>  <PUBCHEM_ATOM_UDEF_STEREO_COUNT>  (1) 
5

>  <PUBCHEM_BOND_DEF_STEREO_COUNT>  (1) 
0

>  <PUBCHEM_BOND_UDEF_STEREO_COUNT>  (1) 
0

>  <PUBCHEM_ISOTOPIC_ATOM_COUNT>  (1) 
0

>  <PUBCHEM_COMPONENT_COUNT>  (1) 
1

>  <PUBCHEM_CACTVS_TAUTO_COUNT>  (1) 
9

>  <PUBCHEM_CONFORMER_ID>  (1) 
00000CC200000001

>  <PUBCHEM_MMFF94_ENERGY>  (1) 
69.9748

>  <PUBCHEM_FEATURE_SELFOVERLAP>  (1) 
35.705

>  <PUBCHEM_SHAPE_FINGERPRINT>  (1) 
10006869 2 18267860575738834805
10042902 136 11603121507880376489
10493431 412 18187083966224505243
10498660 4 17132113558710669626
105312 117 17346884450893848581
10674148 151 18262815003954080396
10693767 8 10591748858332965717
11370993 144 18333447651674644410
11640471 11 18342461417628477875
11961588 58 17346875645973495073
12236239 1 18412256242247725167
12390115 104 18116165535384868908
12422481 6 17530958060418277884
12596602 18 18335706031283113249
12633257 1 16226338100268056793
12670546 177 13183024007694960769
12788726 201 18130792204935408576
12892183 10 17749680588801567185
12895837 130 18129379478749307572
13103583 49 15068638071468187745
13140716 1 17532376559261814412
13224815 77 17313376885814527998
14178342 30 17822301243961438955
14251751 18 11891333153510463097
14251764 30 9583217450132411753
14739800 52 18130211697402990400
14765038 42 17968946417610787940
14790565 3 17315938812332029196
15061688 2 18201725016253076303
15163728 17 17345486890258505769
15188451 53 15141263061125163929
15209294 21 18335421291719800366
15238133 3 18201148880560217568
15342168 16 18334294253762902599
17492 54 17203605948507259729
17980427 23 18334581257116540605
1813 80 11819289840692591975
19784866 140 11527942336285912485
19784866 240 8862942788343243449
20028762 73 8070025566984146608
20567600 234 18041005016733996025
20775438 99 10373573839574770389
21475661 188 18201432636091254960
21637258 2 11891340859156468001
21756936 100 18339922713893840178
221357 26 12679177185560272217
22182313 1 13613366326367199151
22393880 68 12535352246699673515
23559900 14 18267042586400709278
270888 7 18342174457767709153
2838139 119 17774997943342719217
3472631 163 18131348613795659317
34934 24 18343300361916485420
351380 3 8214137456566803697
392239 28 15864348086284504496
4340502 62 18186811244791901873
463206 1 9150876270533690333
465052 167 8285899303789267785
5104073 3 17604985000573738088
57527293 21 15502669233732805183
58807428 26 17530683203712221490
59682541 52 15912771561639994253
633830 44 18335706083012826062
7064713 232 18114742745721213298
76465 3 9151174255221645034
7808743 9 18130785659489112121
7970288 3 8069731984795250361

>  <PUBCHEM_SHAPE_MULTIPOLES>  (1) 
476.3
12.46
2.41
1.71
1.8
0.23
-0.44
-12.13
4.86
1.31
0.48
0.52
0.19
-1.68

>  <PUBCHEM_SHAPE_SELFOVERLAP>  (1) 
1024.396

>  <PUBCHEM_SHAPE_VOLUME>  (1) 
261.3

>  <PUBCHEM_COORDINATE_TYPE>  (1) 
2
5
10

$$$$
