32668
     RDKit          3D

 17 18  0  0  0  0  0  0  0  0999 V2000
    3.8726    0.8478   -1.5115 Cl  0  0  0  0  0  0  0  0  0  0  0  0
    2.3084    2.8231   -0.1121 Cl  0  0  0  0  0  0  0  0  0  0  0  0
    3.8956    0.9571    1.4130 Cl  0  0  0  0  0  0  0  0  0  0  0  0
   -1.8126    0.0174    0.0308 N   0  0  0  0  0  0  0  0  0  0  0  0
    0.4834    0.5575   -0.0088 N   0  0  0  0  0  0  0  0  0  0  0  0
   -0.2304   -1.7312    0.0924 N   0  0  0  0  0  0  0  0  0  0  0  0
    2.1105   -1.2050    0.0535 N   0  0  0  0  0  0  0  0  0  0  0  0
   -4.5710    0.8509   -0.1312 C   0  0  0  0  0  0  0  0  0  0  0  0
   -3.5154    1.7241    0.5355 C   0  0  0  0  0  0  0  0  0  0  0  0
   -4.1923   -0.6198   -0.0055 C   0  0  0  0  0  0  0  0  0  0  0  0
   -2.1211    1.4509   -0.0269 C   0  0  0  0  0  0  0  0  0  0  0  0
   -2.8004   -0.8876   -0.5738 C   0  0  0  0  0  0  0  0  0  0  0  0
   -0.4756   -0.3992    0.0384 C   0  0  0  0  0  0  0  0  0  0  0  0
    1.7402    0.0846    0.0022 C   0  0  0  0  0  0  0  0  0  0  0  0
    1.0725   -2.0559    0.0966 C   0  0  0  0  0  0  0  0  0  0  0  0
    2.8357    1.0942   -0.0477 C   0  0  0  0  0  0  0  0  0  0  0  0
    1.4001   -3.5089    0.1553 C   0  0  0  0  0  0  0  0  0  0  0  0
  1 16  1  0
  2 16  1  0
  3 16  1  0
  4 11  1  0
  4 12  1  0
  4 13  1  0
  5 13  2  0
  5 14  1  0
  6 13  1  0
  6 15  2  0
  7 14  2  0
  7 15  1  0
  8  9  1  0
  8 10  1  0
  9 11  1  0
 10 12  1  0
 14 16  1  0
 15 17  1  0
M  END
>  <PUBCHEM_COMPOUND_CID>  (1) 
32668

>  <PUBCHEM_CONFORMER_RMSD>  (1) 
0.6

>  <PUBCHEM_CONFORMER_DIVERSEORDER>  (1) 
1
14
8
3
9
13
5
12
10
7
2
6
11
4

>  <PUBCHEM_MMFF94_PARTIAL_CHARGES>  (1) 
14
1 -0.29
11 0.37
12 0.37
13 0.72
14 0.48
15 0.48
16 1.01
17 0.14
2 -0.29
3 -0.29
4 -0.84
5 -0.62
6 -0.62
7 -0.62

>  <PUBCHEM_EFFECTIVE_ROTOR_COUNT>  (1) 
3.2

>  <PUBCHEM_PHARMACOPHORE_FEATURES>  (1) 
3
4 4 5 6 13 cation
6 4 8 9 10 11 12 rings
6 5 6 7 13 14 15 rings

>  <PUBCHEM_HEAVY_ATOM_COUNT>  (1) 
17

>  <PUBCHEM_ATOM_DEF_STEREO_COUNT>  (1) 
0

>  <PUBCHEM_ATOM_UDEF_STEREO_COUNT>  (1) 
0

>  <PUBCHEM_BOND_DEF_STEREO_COUNT>  (1) 
0

>  <PUBCHEM_BOND_UDEF_STEREO_COUNT>  (1) 
0

>  <PUBCHEM_ISOTOPIC_ATOM_COUNT>  (1) 
0

>  <PUBCHEM_COMPONENT_COUNT>  (1) 
1

>  <PUBCHEM_CACTVS_TAUTO_COUNT>  (1) 
1

>  <PUBCHEM_CONFORMER_ID>  (1) 
00007F9C00000001

>  <PUBCHEM_MMFF94_ENERGY>  (1) 
36.21

>  <PUBCHEM_FEATURE_SELFOVERLAP>  (1) 
15.223

>  <PUBCHEM_SHAPE_FINGERPRINT>  (1) 
10465860 228 18339927000218317793
10498660 4 18410293618588169565
10608611 8 18335980849139850133
10967382 1 18410573950855042289
10980938 120 18337391543526487137
11132069 177 18410006650348014281
11543360 7 15769769203990759845
11715629 250 18412819166695060797
12346645 44 18412823599127482595
12788726 201 17395576546858599330
13140716 1 18050563242569379083
13380535 76 18334855043200107211
13583140 156 16371568248869130681
14178342 30 18340193142124826161
14415576 193 18408888421020322597
15442244 35 17980199686717398739
15536298 74 18343301422789186383
16945 1 18338518650408986082
17134986 127 18336552723966630548
18186145 218 18059585705874262624
201361 129 18411985728190856763
20510252 161 17980770655026699682
20559304 39 18339640019056525928
20645477 70 18339920395091749935
20671657 1 18341332176015480734
212916 134 18127952270017472760
21501502 16 18340486643511170635
21524375 3 18260544567306710218
221490 88 18336557001617355403
2255824 54 18191308182419327835
22854114 111 18411980234938312713
23366157 5 18042128652481222426
23402539 116 18200018672653594012
23557571 272 17346026904500919387
23558518 356 17467631933425423720
23559900 14 18196081145563534179
23598291 2 17985558744924591249
25 1 18408046203882722318
2748010 2 17615671948183225710
3060560 45 18409732876437297076
3071541 37 18334863788033083638
3091708 16 9406330200718777842
352729 6 18121220041461033818
458136 41 18263381242665604426
474 4 18408041827216342457
4990 188 17917441920877764940
5104073 3 18338519621757131795
57096353 35 18342168986527532775
58051976 378 18341889718868684303
6138700 20 18268156371048977854
6333272 397 18337953509885080880
633830 44 18272090542915024253
7364860 26 18269271274990027826
7832392 63 18196372520244553169
81228 2 17547292667190836330
81539 233 18259983764541680734
84936 182 18272929401641211832
9709674 26 18409451354337804227

>  <PUBCHEM_SHAPE_MULTIPOLES>  (1) 
335.54
8.11
2.99
0.93
4.97
1.8
-0.04
-4
-0.15
-1.67
0.19
-1.01
-0.25
-0.34

>  <PUBCHEM_SHAPE_SELFOVERLAP>  (1) 
662.08

>  <PUBCHEM_SHAPE_VOLUME>  (1) 
196.7

>  <PUBCHEM_COORDINATE_TYPE>  (1) 
2
5
10

$$$$
