32677
     RDKit          3D

 19 19  0  0  0  0  0  0  0  0999 V2000
    2.5343   -4.2476   -0.1742 Cl  0  0  0  0  0  0  0  0  0  0  0  0
    5.7797    2.0624    0.2758 Cl  0  0  0  0  0  0  0  0  0  0  0  0
   -3.5068    0.4760    0.4509 O   0  0  0  0  0  0  0  0  0  0  0  0
   -2.4220   -1.4833    0.9831 O   0  0  0  0  0  0  0  0  0  0  0  0
    2.4590   -0.2115   -0.0558 N   0  0  0  0  0  0  0  0  0  0  0  0
    1.2076    0.4365   -0.1197 C   0  0  0  0  0  0  0  0  0  0  0  0
    2.5536   -1.5795    0.4135 C   0  0  0  0  0  0  0  0  0  0  0  0
    3.6677    0.4868   -0.4455 C   0  0  0  0  0  0  0  0  0  0  0  0
    0.0492   -0.2441    0.2558 C   0  0  0  0  0  0  0  0  0  0  0  0
   -1.1881    0.3968    0.1909 C   0  0  0  0  0  0  0  0  0  0  0  0
    1.1285    1.7578   -0.5600 C   0  0  0  0  0  0  0  0  0  0  0  0
    2.4091   -2.5624   -0.7377 C   0  0  0  0  0  0  0  0  0  0  0  0
    4.2870    1.2088    0.7408 C   0  0  0  0  0  0  0  0  0  0  0  0
   -1.2670    1.7181   -0.2494 C   0  0  0  0  0  0  0  0  0  0  0  0
   -0.1088    2.3986   -0.6248 C   0  0  0  0  0  0  0  0  0  0  0  0
   -4.7395   -0.1873    0.1508 C   0  0  0  0  0  0  0  0  0  0  0  0
   -2.3963   -0.3125    0.5812 C   0  0  0  0  0  0  0  0  0  0  0  0
   -5.8570    0.8421    0.0776 C   0  0  0  0  0  0  0  0  0  0  0  0
   -4.5904   -0.9557   -1.1534 C   0  0  0  0  0  0  0  0  0  0  0  0
  1 12  1  0
  2 13  1  0
  3 16  1  0
  3 17  1  0
  4 17  2  0
  5  6  1  0
  5  7  1  0
  5  8  1  0
  6  9  2  0
  6 11  1  0
  7 12  1  0
  8 13  1  0
  9 10  1  0
 10 14  2  0
 10 17  1  0
 11 15  2  0
 14 15  1  0
 16 18  1  0
 16 19  1  0
M  END
>  <PUBCHEM_COMPOUND_CID>  (1) 
32677

>  <PUBCHEM_CONFORMER_RMSD>  (1) 
0.8

>  <PUBCHEM_CONFORMER_DIVERSEORDER>  (1) 
8
69
72
219
238
177
165
162
220
277
147
44
135
251
26
174
228
289
86
239
126
255
110
263
80
223
232
293
242
134
197
292
267
189
139
39
89
262
265
59
245
227
133
55
37
198
82
128
210
132
6
164
201
101
29
180
172
216
130
195
23
118
254
182
170
9
184
290
233
50
102
159
63
193
240
151
75
264
288
136
163
275
191
173
17
291
142
156
127
280
202
97
153
48
160
155
188
120
109
28
53
272
51
105
212
281
244
15
284
226
131
74
92
169
167
68
261
117
4
114
190
183
79
87
144
266
56
119
200
175
19
32
229
256
45
143
70
192
100
83
38
282
111
185
10
246
33
168
98
150
285
64
99
230
296
237
104
138
88
66
40
231
35
137
260
112
157
94
125
123
276
107
257
73
148
21
3
115
62
158
252
5
20
31
141
46
129
2
171
18
274
34
113
14
57
286
249
67
194
116
84
61
42
241
279
186
91
196
295
215
71
121
199
208
11
269
49
103
58
179
13
7
205
234
30
161
273
22
218
271
283
36
221
222
248
209
16
145
268
12
1
90
225
24
250
81
77
27
76
149
270
43
85
235
93
203
207
243
187
211
258
154
287
140
178
176
181
247
124
224
78
108
253
52
294
96
278
214
259
166
122
217
106
54
47
41
152
95
60
213
25
236
204
206
65
146

>  <PUBCHEM_MMFF94_PARTIAL_CHARGES>  (1) 
21
1 -0.29
10 0.09
11 -0.15
12 0.29
13 0.29
14 -0.15
15 -0.15
16 0.28
17 0.63
2 -0.29
24 0.15
25 0.15
3 -0.43
30 0.15
31 0.15
4 -0.57
5 -0.84
6 0.1
7 0.37
8 0.37
9 -0.15

>  <PUBCHEM_EFFECTIVE_ROTOR_COUNT>  (1) 
8

>  <PUBCHEM_PHARMACOPHORE_FEATURES>  (1) 
4
1 4 acceptor
1 5 cation
3 16 18 19 hydrophobe
6 6 9 10 11 14 15 rings

>  <PUBCHEM_HEAVY_ATOM_COUNT>  (1) 
19

>  <PUBCHEM_ATOM_DEF_STEREO_COUNT>  (1) 
0

>  <PUBCHEM_ATOM_UDEF_STEREO_COUNT>  (1) 
0

>  <PUBCHEM_BOND_DEF_STEREO_COUNT>  (1) 
0

>  <PUBCHEM_BOND_UDEF_STEREO_COUNT>  (1) 
0

>  <PUBCHEM_ISOTOPIC_ATOM_COUNT>  (1) 
0

>  <PUBCHEM_COMPONENT_COUNT>  (1) 
1

>  <PUBCHEM_CACTVS_TAUTO_COUNT>  (1) 
1

>  <PUBCHEM_CONFORMER_ID>  (1) 
00007FA500000008

>  <PUBCHEM_MMFF94_ENERGY>  (1) 
59.2751

>  <PUBCHEM_FEATURE_SELFOVERLAP>  (1) 
20.297

>  <PUBCHEM_SHAPE_FINGERPRINT>  (1) 
10090160 65 18336260236651496860
10366900 7 18201999966742123536
10906281 52 18041575718481141160
11401426 45 18408602591342750297
116883 192 18264491672247758277
12107183 9 17624426272759341465
12236239 1 17988926682490494877
13073987 5 18340775854072212889
13083527 12 18191008037826202842
13140716 1 18119813766104932792
13533116 47 18201719501446633059
14252887 29 18335430044794500179
14787075 74 17845651598470878680
14790565 3 18193841676601163652
14863182 85 18334868229303399198
15081414 286 18334584512121982349
15375358 24 18260551151174940635
17859628 70 18270684134758204582
17980427 23 17387414751706776166
19784866 170 18409169943621630992
200 152 18272651289950973417
20645477 70 18334858277416177371
21054139 6 18128807732459959654
21279426 13 18044371618248579349
21285901 2 17895192165028801455
22079108 93 17559946787991322288
22182313 1 18114738214145958373
22224240 67 18200304541809174968
23402539 116 18188483683086482592
23557571 272 17531249396650443740
23559900 14 18334019380488308694
2748010 2 18116717309590890252
2871803 45 18334863775258880062
300161 21 18413103966255942401
33824 294 18411139130271309458
3421961 26 18267023864706921594
34934 24 18408318916899438715
4072396 5 18114732820199803848
474229 33 18337107977618128072
5104073 3 18263369101067515593
5486654 2 18339929341672216052
59554788 191 17972321986383497134
59554788 281 16660365861583637032
59755656 215 18335425630370239318
621550 34 18409162191258584804
7364860 26 18340770317775010898
81228 2 17896895260979730480
9709674 26 18335707074512123491

>  <PUBCHEM_SHAPE_MULTIPOLES>  (1) 
378.03
11.19
3.37
0.88
6.41
3.91
-0.05
-2.89
0.58
-4.8
-0.5
0.2
0.08
0.37

>  <PUBCHEM_SHAPE_SELFOVERLAP>  (1) 
742.633

>  <PUBCHEM_SHAPE_VOLUME>  (1) 
229.5

>  <PUBCHEM_COORDINATE_TYPE>  (1) 
2
5
10

$$$$
