32676
     RDKit          3D

 23 23  0  0  0  0  0  0  0  0999 V2000
    4.5825   -2.2102   -1.2422 Cl  0  0  0  0  0  0  0  0  0  0  0  0
    0.4871   -2.1058    3.6451 Cl  0  0  0  0  0  0  0  0  0  0  0  0
   -0.7668    0.8656   -0.2745 O   0  0  0  0  0  0  0  0  0  0  0  0
    0.2329    0.6193   -2.3335 O   0  0  0  0  0  0  0  0  0  0  0  0
   -4.3796    0.1364   -0.2354 N   0  0  0  0  0  0  0  0  0  0  0  0
    2.0473   -1.0199    0.0832 N   0  0  0  0  0  0  0  0  0  0  0  0
   -3.0647    0.5085    0.2856 C   0  0  0  0  0  0  0  0  0  0  0  0
   -4.3384   -1.2048   -0.8167 C   0  0  0  0  0  0  0  0  0  0  0  0
   -5.3865    0.2040    0.8232 C   0  0  0  0  0  0  0  0  0  0  0  0
    2.3521    0.3590    0.1244 C   0  0  0  0  0  0  0  0  0  0  0  0
   -2.0220    0.4820   -0.8207 C   0  0  0  0  0  0  0  0  0  0  0  0
    1.8993   -1.6988   -1.1875 C   0  0  0  0  0  0  0  0  0  0  0  0
    1.8659   -1.7660    1.3111 C   0  0  0  0  0  0  0  0  0  0  0  0
    1.5282    1.3050   -0.4528 C   0  0  0  0  0  0  0  0  0  0  0  0
    3.5174    0.7774    0.7667 C   0  0  0  0  0  0  0  0  0  0  0  0
   -5.6812   -1.5842   -1.4178 C   0  0  0  0  0  0  0  0  0  0  0  0
   -5.4432    1.5917    1.4391 C   0  0  0  0  0  0  0  0  0  0  0  0
    0.2807    0.8925   -1.1441 C   0  0  0  0  0  0  0  0  0  0  0  0
    2.9125   -2.8243   -1.3259 C   0  0  0  0  0  0  0  0  0  0  0  0
    0.7265   -1.1893    2.1365 C   0  0  0  0  0  0  0  0  0  0  0  0
    1.8243    2.6545   -0.4130 C   0  0  0  0  0  0  0  0  0  0  0  0
    3.8361    2.1343    0.8194 C   0  0  0  0  0  0  0  0  0  0  0  0
    2.9895    3.0729    0.2296 C   0  0  0  0  0  0  0  0  0  0  0  0
  1 19  1  0
  2 20  1  0
  3 11  1  0
  3 18  1  0
  4 18  2  0
  5  7  1  0
  5  8  1  0
  5  9  1  0
  6 10  1  0
  6 12  1  0
  6 13  1  0
  7 11  1  0
  8 16  1  0
  9 17  1  0
 10 14  2  0
 10 15  1  0
 12 19  1  0
 13 20  1  0
 14 18  1  0
 14 21  1  0
 15 22  2  0
 21 23  2  0
 22 23  1  0
M  END
>  <PUBCHEM_COMPOUND_CID>  (1) 
32676

>  <PUBCHEM_CONFORMER_RMSD>  (1) 
1

>  <PUBCHEM_CONFORMER_DIVERSEORDER>  (1) 
1
73
27
64
58
43
70
20
22
37
13
86
4
66
29
54
45
84
28
5
34
38
74
75
78
21
3
14
49
79
72
31
8
2
42
10
11
7
62
60
71
68
77
52
30
80
40
19
47
63
55
85
83
32
50
25
17
6
36
56
53
57
33
35
67
82
15
59
39
12
23
69
41
9
44
24
65
61
26
76
81
18
48
51
16
46

>  <PUBCHEM_MMFF94_PARTIAL_CHARGES>  (1) 
25
1 -0.29
10 0.1
11 0.28
12 0.37
13 0.37
14 0.09
15 -0.15
18 0.63
19 0.29
2 -0.29
20 0.29
21 -0.15
22 -0.15
23 -0.15
3 -0.43
36 0.15
4 -0.57
47 0.15
48 0.15
49 0.15
5 -0.81
6 -0.84
7 0.27
8 0.27
9 0.27

>  <PUBCHEM_EFFECTIVE_ROTOR_COUNT>  (1) 
12

>  <PUBCHEM_PHARMACOPHORE_FEATURES>  (1) 
4
1 4 acceptor
1 5 cation
1 6 cation
6 10 14 15 21 22 23 rings

>  <PUBCHEM_HEAVY_ATOM_COUNT>  (1) 
23

>  <PUBCHEM_ATOM_DEF_STEREO_COUNT>  (1) 
0

>  <PUBCHEM_ATOM_UDEF_STEREO_COUNT>  (1) 
0

>  <PUBCHEM_BOND_DEF_STEREO_COUNT>  (1) 
0

>  <PUBCHEM_BOND_UDEF_STEREO_COUNT>  (1) 
0

>  <PUBCHEM_ISOTOPIC_ATOM_COUNT>  (1) 
0

>  <PUBCHEM_COMPONENT_COUNT>  (1) 
1

>  <PUBCHEM_CACTVS_TAUTO_COUNT>  (1) 
1

>  <PUBCHEM_CONFORMER_ID>  (1) 
00007FA400000001

>  <PUBCHEM_MMFF94_ENERGY>  (1) 
68.3294

>  <PUBCHEM_FEATURE_SELFOVERLAP>  (1) 
20.297

>  <PUBCHEM_SHAPE_FINGERPRINT>  (1) 
108634 29 17679309825504653491
114674 6 17603578595698477979
12107183 9 17842289073222904217
12553582 1 17240772757150942581
12596602 18 18412271653624163865
12778500 126 17631744755065605001
13533116 47 18130783499848562719
13583140 156 16056585531539084695
14251764 30 17700987543845380054
15238133 3 15697729090701725171
20511986 3 18267563867277431925
20645477 70 18336815468527517205
20691752 17 17458339779758902374
20775530 9 16664568031774269107
21065198 48 18060421331038800061
21197605 99 17829893487963418587
21421861 104 18335701585786694665
21452121 99 16733845214492958706
23419403 2 17975171813850045682
23557571 272 15720490106662107685
23559900 14 18059853905544729487
239999 70 18334850645179859415
3421961 26 18271247114765146126
5104073 3 17988376918471826843
8272917 22 18343589546470489772
8509985 295 15553879975586131455
9709674 26 18409732889311753031

>  <PUBCHEM_SHAPE_MULTIPOLES>  (1) 
455.37
10.9
3.25
2.36
18.93
0.32
-2.03
-0.69
1.15
-4.01
-0.07
-0.14
-1.94
-0.2

>  <PUBCHEM_SHAPE_SELFOVERLAP>  (1) 
890.29

>  <PUBCHEM_SHAPE_VOLUME>  (1) 
277.2

>  <PUBCHEM_COORDINATE_TYPE>  (1) 
2
5
10

$$$$
