32686
     RDKit          3D

 16 16  0  0  0  0  0  0  0  0999 V2000
   -3.3714    1.7826    1.4872 Cl  0  0  0  0  0  0  0  0  0  0  0  0
   -1.2648    3.0380   -0.0269 Cl  0  0  0  0  0  0  0  0  0  0  0  0
   -3.4288    1.7531   -1.4387 Cl  0  0  0  0  0  0  0  0  0  0  0  0
    1.6370   -1.0058   -0.0484 N   0  0  0  0  0  0  0  0  0  0  0  0
   -0.3209    0.2842   -0.0218 N   0  0  0  0  0  0  0  0  0  0  0  0
   -0.4296   -2.1127   -0.0054 N   0  0  0  0  0  0  0  0  0  0  0  0
   -2.4509   -0.8199    0.0219 N   0  0  0  0  0  0  0  0  0  0  0  0
    3.9620   -0.2518   -0.0306 C   0  0  0  0  0  0  0  0  0  0  0  0
    2.4918    0.1566   -0.0705 C   0  0  0  0  0  0  0  0  0  0  0  0
    4.9082    0.9512   -0.0052 C   0  0  0  0  0  0  0  0  0  0  0  0
    6.3607    0.5131    0.1009 C   0  0  0  0  0  0  0  0  0  0  0  0
    0.2525   -0.9428   -0.0245 C   0  0  0  0  0  0  0  0  0  0  0  0
   -1.6634    0.2675    0.0014 C   0  0  0  0  0  0  0  0  0  0  0  0
   -1.7651   -1.9744    0.0170 C   0  0  0  0  0  0  0  0  0  0  0  0
   -2.3494    1.5910    0.0049 C   0  0  0  0  0  0  0  0  0  0  0  0
   -2.5679   -3.2300    0.0385 C   0  0  0  0  0  0  0  0  0  0  0  0
  1 15  1  0
  2 15  1  0
  3 15  1  0
  4  9  1  0
  4 12  1  0
  5 12  2  0
  5 13  1  0
  6 12  1  0
  6 14  2  0
  7 13  2  0
  7 14  1  0
  8  9  1  0
  8 10  1  0
 10 11  1  0
 13 15  1  0
 14 16  1  0
M  END
>  <PUBCHEM_COMPOUND_CID>  (1) 
32686

>  <PUBCHEM_CONFORMER_RMSD>  (1) 
0.6

>  <PUBCHEM_CONFORMER_DIVERSEORDER>  (1) 
1
79
11
37
26
48
34
5
69
30
18
64
43
33
55
67
47
75
53
20
36
14
66
51
9
4
71
44
50
10
62
49
70
54
16
29
78
25
65
52
58
2
40
45
73
68
60
63
8
24
59
74
28
3
46
31
72
61
38
19
13
17
27
35
76
57
21
12
39
23
32
77
15
6
56
22
41
42
7

>  <PUBCHEM_MMFF94_PARTIAL_CHARGES>  (1) 
14
1 -0.29
12 0.72
13 0.48
14 0.48
15 1.01
16 0.14
2 -0.29
23 0.4
3 -0.29
4 -0.87
5 -0.62
6 -0.62
7 -0.62
9 0.37

>  <PUBCHEM_EFFECTIVE_ROTOR_COUNT>  (1) 
5

>  <PUBCHEM_PHARMACOPHORE_FEATURES>  (1) 
4
1 11 hydrophobe
1 4 donor
4 4 5 6 12 cation
6 5 6 7 12 13 14 rings

>  <PUBCHEM_HEAVY_ATOM_COUNT>  (1) 
16

>  <PUBCHEM_ATOM_DEF_STEREO_COUNT>  (1) 
0

>  <PUBCHEM_ATOM_UDEF_STEREO_COUNT>  (1) 
0

>  <PUBCHEM_BOND_DEF_STEREO_COUNT>  (1) 
0

>  <PUBCHEM_BOND_UDEF_STEREO_COUNT>  (1) 
0

>  <PUBCHEM_ISOTOPIC_ATOM_COUNT>  (1) 
0

>  <PUBCHEM_COMPONENT_COUNT>  (1) 
1

>  <PUBCHEM_CACTVS_TAUTO_COUNT>  (1) 
4

>  <PUBCHEM_CONFORMER_ID>  (1) 
00007FAE00000001

>  <PUBCHEM_MMFF94_ENERGY>  (1) 
26.3783

>  <PUBCHEM_FEATURE_SELFOVERLAP>  (1) 
20.297

>  <PUBCHEM_SHAPE_FINGERPRINT>  (1) 
10014705 185 18259981574498607140
10411042 1 17978228584381424615
10493431 412 18270411486033986233
12107183 9 17974277734908604290
12390115 104 18057624100021560713
13583140 156 17022621948759975960
14508225 48 18124582335408015743
16945 1 17545602250068130403
1741750 31 18342459201441034482
17834072 32 18336827481446094268
204376 136 18337674088240230849
20510252 161 18412829096437987763
20645477 56 18410299086123196020
21339142 51 18410851096557732565
21426921 1 18410292557678161974
21524375 3 18127681630863551423
22182937 141 18272940418258862160
22224240 67 18270133318704131953
2297311 6 18268160919028687630
2306618 200 18272942647404716274
23402539 116 18270395121892148751
23419403 2 17558533962693751371
23557571 272 18272941552388307590
23559900 14 18272655598457390214
27216 239 18261119534473332337
2748010 2 18126267873753340537
3071541 12 17547292207481434559
4214541 1 18410573998859227342
5104073 3 18410852171154060682
573450 72 18261097596423774322
633830 44 17770223756459406957
68521 5 18336825424156649103
81228 2 18338244863846020899

>  <PUBCHEM_SHAPE_MULTIPOLES>  (1) 
314.96
9.64
3.25
0.91
21.13
1.08
-0.02
-4.03
-0.2
-4.39
-0.03
-1.05
-0.53
0.04

>  <PUBCHEM_SHAPE_SELFOVERLAP>  (1) 
598.132

>  <PUBCHEM_SHAPE_VOLUME>  (1) 
191.7

>  <PUBCHEM_COORDINATE_TYPE>  (1) 
2
5
10

$$$$
