32683
     RDKit          3D

 11 12  0  0  1  0  0  0  0  0999 V2000
   -4.9321    0.3698   -0.0383 O   0  0  0  0  0  0  0  0  0  0  0  0
    4.9355    0.3764   -0.0068 O   0  0  0  0  0  0  0  0  0  0  0  0
   -3.7389   -0.2561   -0.5068 C   0  0  0  0  0  0  0  0  0  0  0  0
    3.7547   -0.2382    0.5059 C   0  0  0  0  0  0  0  0  0  0  0  0
   -2.5114    0.5905   -0.3679 C   0  0  0  0  0  0  0  0  0  0  0  0
    2.5181    0.5925    0.3495 C   0  0  0  0  0  0  0  0  0  0  0  0
   -1.2570   -0.2588   -0.1613 C   0  0  0  0  0  0  0  0  0  0  0  0
    1.2438   -0.2399    0.1949 C   0  0  0  0  0  0  0  0  0  0  0  0
   -0.0144    0.6151    0.0196 C   0  0  0  0  0  0  0  0  0  0  0  0
   -4.4553   -0.7619    0.7010 C   0  0  0  0  0  0  0  0  0  0  0  0
    4.4572   -0.7894   -0.6900 C   0  0  0  0  0  0  0  0  0  0  0  0
  1  3  1  0
  1 10  1  0
  2  4  1  0
  2 11  1  0
  3  5  1  0
  3 10  1  0
  4  6  1  0
  4 11  1  0
  5  7  1  0
  6  8  1  0
  7  9  1  0
  8  9  1  0
M  END
>  <PUBCHEM_COMPOUND_CID>  (1) 
32683

>  <PUBCHEM_CONFORMER_RMSD>  (1) 
0.8

>  <PUBCHEM_CONFORMER_DIVERSEORDER>  (1) 
1
85
21
74
95
6
69
34
56
94
39
31
55
11
12
67
3
78
99
86
71
30
42
33
49
52
4
27
93
2
26
43
64
82
79
5
92
68
60
9
28
58
65
91
48
41
25
18
81
70
75
35
47
77
83
8
87
97
37
36
17
88
89
40
53
80
24
90
7
61
73
16
14
96
10
50
63
98
38
84
13
15
29
54
45
51
59
62
57
72
19
20
76
66
23
46
44
32
22

>  <PUBCHEM_MMFF94_PARTIAL_CHARGES>  (1) 
14
1 -0.3
10 -0.05
11 -0.05
12 0.1
13 0.1
2 -0.3
24 0.1
25 0.1
26 0.1
27 0.1
3 -0.05
4 -0.05
5 0.09
6 0.09

>  <PUBCHEM_EFFECTIVE_ROTOR_COUNT>  (1) 
7.2

>  <PUBCHEM_PHARMACOPHORE_FEATURES>  (1) 
3
1 1 acceptor
1 2 acceptor
5 5 6 7 8 9 hydrophobe

>  <PUBCHEM_HEAVY_ATOM_COUNT>  (1) 
11

>  <PUBCHEM_ATOM_DEF_STEREO_COUNT>  (1) 
0

>  <PUBCHEM_ATOM_UDEF_STEREO_COUNT>  (1) 
2

>  <PUBCHEM_BOND_DEF_STEREO_COUNT>  (1) 
0

>  <PUBCHEM_BOND_UDEF_STEREO_COUNT>  (1) 
0

>  <PUBCHEM_ISOTOPIC_ATOM_COUNT>  (1) 
0

>  <PUBCHEM_COMPONENT_COUNT>  (1) 
1

>  <PUBCHEM_CACTVS_TAUTO_COUNT>  (1) 
1

>  <PUBCHEM_CONFORMER_ID>  (1) 
00007FAB00000001

>  <PUBCHEM_MMFF94_ENERGY>  (1) 
8.8322

>  <PUBCHEM_FEATURE_SELFOVERLAP>  (1) 
15.223

>  <PUBCHEM_SHAPE_FINGERPRINT>  (1) 
10680689 15 18412258446109039669
11287383 113 17967817188650142128
11401426 45 9727633899592116235
114248 4 17385443232589395688
14123238 8 15719111361650863975
14251718 22 17095528421814291330
14252887 29 17989210326446834494
14455015 7 18271815596499599670
15242439 84 18335415768824452253
17834072 33 15791739632346472566
17834076 25 13984660347952735029
20645477 70 18129947780743455598
20719005 15 18333168366756461330
20828058 21 17967531259570617606
22485316 2 18413385440705288318
23402539 116 12463569556734060617
42 15 16773799186260220900
42788 4 18410573985151503108
522135 26 17703790319390558228

>  <PUBCHEM_SHAPE_MULTIPOLES>  (1) 
214.64
11.95
0.86
0.77
0.1
0.03
0
1.51
0.06
0.02
0
-0.01
0.07
0.47

>  <PUBCHEM_SHAPE_SELFOVERLAP>  (1) 
406.891

>  <PUBCHEM_SHAPE_VOLUME>  (1) 
133.8

>  <PUBCHEM_COORDINATE_TYPE>  (1) 
2
5
10

$$$$
