32694
     RDKit          3D

 19 20  0  0  0  0  0  0  0  0999 V2000
    2.0621    2.9381    1.5924 Cl  0  0  0  0  0  0  0  0  0  0  0  0
    4.1297    1.6258    0.0727 Cl  0  0  0  0  0  0  0  0  0  0  0  0
    2.0556    3.0586   -1.3318 Cl  0  0  0  0  0  0  0  0  0  0  0  0
    1.7441   -2.7394   -0.1055 N   0  0  0  0  0  0  0  0  0  0  0  0
   -0.1500   -1.3572   -0.0547 N   0  0  0  0  0  0  0  0  0  0  0  0
    2.0573   -0.4173   -0.0110 N   0  0  0  0  0  0  0  0  0  0  0  0
    0.1388    1.0229    0.0432 N   0  0  0  0  0  0  0  0  0  0  0  0
    1.1902   -1.4415   -0.0551 C   0  0  0  0  0  0  0  0  0  0  0  0
   -0.5969   -0.0955   -0.0043 C   0  0  0  0  0  0  0  0  0  0  0  0
   -2.0333    0.0785   -0.0006 C   0  0  0  0  0  0  0  0  0  0  0  0
    1.4602    0.7845    0.0364 C   0  0  0  0  0  0  0  0  0  0  0  0
    0.8817   -3.9022   -0.1537 C   0  0  0  0  0  0  0  0  0  0  0  0
    3.1810   -2.9220   -0.1237 C   0  0  0  0  0  0  0  0  0  0  0  0
   -2.5987    1.2245   -0.5595 C   0  0  0  0  0  0  0  0  0  0  0  0
   -2.8526   -0.9011    0.5604 C   0  0  0  0  0  0  0  0  0  0  0  0
    2.3553    1.9757    0.0870 C   0  0  0  0  0  0  0  0  0  0  0  0
   -3.9837    1.3909   -0.5576 C   0  0  0  0  0  0  0  0  0  0  0  0
   -4.2376   -0.7347    0.5622 C   0  0  0  0  0  0  0  0  0  0  0  0
   -4.8031    0.4113    0.0032 C   0  0  0  0  0  0  0  0  0  0  0  0
  1 16  1  0
  2 16  1  0
  3 16  1  0
  4  8  1  0
  4 12  1  0
  4 13  1  0
  5  8  2  0
  5  9  1  0
  6  8  1  0
  6 11  2  0
  7  9  2  0
  7 11  1  0
  9 10  1  0
 10 14  2  0
 10 15  1  0
 11 16  1  0
 14 17  1  0
 15 18  2  0
 17 19  2  0
 18 19  1  0
M  END
>  <PUBCHEM_COMPOUND_CID>  (1) 
32694

>  <PUBCHEM_CONFORMER_RMSD>  (1) 
0.6

>  <PUBCHEM_CONFORMER_DIVERSEORDER>  (1) 
1
6
4
7
5
3
2
8

>  <PUBCHEM_MMFF94_PARTIAL_CHARGES>  (1) 
23
1 -0.29
11 0.48
12 0.37
13 0.37
14 -0.15
15 -0.15
16 1.01
17 -0.15
18 -0.15
19 -0.15
2 -0.29
26 0.15
27 0.15
28 0.15
29 0.15
3 -0.29
30 0.15
4 -0.84
5 -0.62
6 -0.62
7 -0.62
8 0.72
9 0.62

>  <PUBCHEM_EFFECTIVE_ROTOR_COUNT>  (1) 
3

>  <PUBCHEM_PHARMACOPHORE_FEATURES>  (1) 
3
4 4 5 6 8 cation
6 10 14 15 17 18 19 rings
6 5 6 7 8 9 11 rings

>  <PUBCHEM_HEAVY_ATOM_COUNT>  (1) 
19

>  <PUBCHEM_ATOM_DEF_STEREO_COUNT>  (1) 
0

>  <PUBCHEM_ATOM_UDEF_STEREO_COUNT>  (1) 
0

>  <PUBCHEM_BOND_DEF_STEREO_COUNT>  (1) 
0

>  <PUBCHEM_BOND_UDEF_STEREO_COUNT>  (1) 
0

>  <PUBCHEM_ISOTOPIC_ATOM_COUNT>  (1) 
0

>  <PUBCHEM_COMPONENT_COUNT>  (1) 
1

>  <PUBCHEM_CACTVS_TAUTO_COUNT>  (1) 
1

>  <PUBCHEM_CONFORMER_ID>  (1) 
00007FB600000001

>  <PUBCHEM_MMFF94_ENERGY>  (1) 
57.288

>  <PUBCHEM_FEATURE_SELFOVERLAP>  (1) 
15.223

>  <PUBCHEM_SHAPE_FINGERPRINT>  (1) 
10608611 8 18334854987977429461
10967382 1 18410575071788739542
12173636 292 17905888432855218612
12553582 1 17835535824869938667
12592029 89 18410014372783316626
12730499 353 18339368556218288067
12788726 201 17180812848450567163
13134695 92 18058151839553494653
13140716 1 18267858574526090146
13533116 47 18342457020330806137
138480 1 18194401095964444630
13955234 65 18413388735398807619
14178000 15 18125717885789633480
14790565 3 18337399356516065268
15219456 202 18335139778552523153
15442244 35 18124317099649935769
15502722 9 18410577275286408015
1813 80 17557997138625971806
18186145 218 17845099656233917257
18785283 64 18334301963054820314
19591789 44 18195250154984888950
20645477 70 18335976494043011959
20671657 1 18343581832877602249
20671657 53 18124319298462292071
21029758 11 18051687742074289715
21041028 32 18127691521951753120
21049683 271 18190476986299158734
21524375 3 18127698338143648390
221490 88 18335991882742242907
2255824 54 18411423886207486471
22943178 12 18187645782891888921
23366157 5 18113901550216468010
23419403 2 17897706688066031006
23557571 272 17531240656819459077
23558518 356 17686893230869268314
23559900 14 18334854983513416693
2748010 2 18264782132064209686
3060560 45 18410294731168809092
3071541 37 18408891741330683780
3091708 16 9475010116516042154
350125 39 18194405725865154874
352729 6 17977386358547771110
3886686 26 15810839966726099210
458136 41 18265916806800104889
495365 180 18341034273216143873
5104073 3 18335425630433264225
6138700 20 18337678525648478982
633830 44 17845095241160608429
6442390 28 18051981612447916571
6443956 14 18340206267961678768
7364860 26 18411981325791466530
7471813 234 17773014389985237193
7808743 9 17544757189045956728
81228 2 17260471370897756034
81539 233 18335702779554993742
8272917 22 18412549782135535047
84936 182 18273214209549759737
9709674 26 18333454248834296299

>  <PUBCHEM_SHAPE_MULTIPOLES>  (1) 
376.7
7.7
4.19
0.93
7.22
3.12
0.1
-2.9
0.24
-5.02
-0.27
-0.34
-0.76
0.67

>  <PUBCHEM_SHAPE_SELFOVERLAP>  (1) 
769.656

>  <PUBCHEM_SHAPE_VOLUME>  (1) 
216.1

>  <PUBCHEM_COORDINATE_TYPE>  (1) 
2
5
10

$$$$
