32697
     RDKit          3D

 20 20  0  0  0  0  0  0  0  0999 V2000
    1.3269    3.4954   -1.3998 Cl  0  0  0  0  0  0  0  0  0  0  0  0
   -1.3412    3.3169   -0.3247 Cl  0  0  0  0  0  0  0  0  0  0  0  0
    0.8978    3.4010    1.4938 Cl  0  0  0  0  0  0  0  0  0  0  0  0
    3.8910   -0.6945    1.8292 Cl  0  0  0  0  0  0  0  0  0  0  0  0
    3.2703   -2.9735    0.1778 Cl  0  0  0  0  0  0  0  0  0  0  0  0
    4.3303   -0.5934   -1.0625 Cl  0  0  0  0  0  0  0  0  0  0  0  0
   -1.4809   -1.6552   -0.5020 N   0  0  0  0  0  0  0  0  0  0  0  0
    0.8252   -1.4268   -0.1438 N   0  0  0  0  0  0  0  0  0  0  0  0
   -0.5902    0.5045   -0.3008 N   0  0  0  0  0  0  0  0  0  0  0  0
    1.7661    0.7705    0.0666 N   0  0  0  0  0  0  0  0  0  0  0  0
   -5.9350    0.0319    0.4089 N   0  0  0  0  0  0  0  0  0  0  0  0
   -2.8076   -1.1085   -0.6735 C   0  0  0  0  0  0  0  0  0  0  0  0
   -0.3693   -0.8247   -0.3075 C   0  0  0  0  0  0  0  0  0  0  0  0
   -3.5086   -0.9503    0.6716 C   0  0  0  0  0  0  0  0  0  0  0  0
   -1.3164   -3.1089   -0.5211 C   0  0  0  0  0  0  0  0  0  0  0  0
    1.8428   -0.5698    0.0375 C   0  0  0  0  0  0  0  0  0  0  0  0
    0.5191    1.2365   -0.1092 C   0  0  0  0  0  0  0  0  0  0  0  0
    0.3489    2.7173   -0.0896 C   0  0  0  0  0  0  0  0  0  0  0  0
    3.1956   -1.1671    0.2256 C   0  0  0  0  0  0  0  0  0  0  0  0
   -4.8646   -0.4012    0.5235 C   0  0  0  0  0  0  0  0  0  0  0  0
  1 18  1  0
  2 18  1  0
  3 18  1  0
  4 19  1  0
  5 19  1  0
  6 19  1  0
  7 12  1  0
  7 13  1  0
  7 15  1  0
  8 13  2  0
  8 16  1  0
  9 13  1  0
  9 17  2  0
 10 16  2  0
 10 17  1  0
 11 20  3  0
 12 14  1  0
 14 20  1  0
 16 19  1  0
 17 18  1  0
M  END
>  <PUBCHEM_COMPOUND_CID>  (1) 
32697

>  <PUBCHEM_CONFORMER_RMSD>  (1) 
0.8

>  <PUBCHEM_CONFORMER_DIVERSEORDER>  (1) 
1
8
21
16
23
20
15
24
17
7
22
2
19
18
11
14
4
10
6
12
3
9
13
5

>  <PUBCHEM_MMFF94_PARTIAL_CHARGES>  (1) 
20
1 -0.29
10 -0.62
11 -0.56
12 0.37
13 0.72
14 0.2
15 0.37
16 0.48
17 0.48
18 1.01
19 1.01
2 -0.29
20 0.36
3 -0.29
4 -0.29
5 -0.29
6 -0.29
7 -0.84
8 -0.62
9 -0.62

>  <PUBCHEM_EFFECTIVE_ROTOR_COUNT>  (1) 
5

>  <PUBCHEM_PHARMACOPHORE_FEATURES>  (1) 
3
1 11 acceptor
4 7 8 9 13 cation
6 8 9 10 13 16 17 rings

>  <PUBCHEM_HEAVY_ATOM_COUNT>  (1) 
20

>  <PUBCHEM_ATOM_DEF_STEREO_COUNT>  (1) 
0

>  <PUBCHEM_ATOM_UDEF_STEREO_COUNT>  (1) 
0

>  <PUBCHEM_BOND_DEF_STEREO_COUNT>  (1) 
0

>  <PUBCHEM_BOND_UDEF_STEREO_COUNT>  (1) 
0

>  <PUBCHEM_ISOTOPIC_ATOM_COUNT>  (1) 
0

>  <PUBCHEM_COMPONENT_COUNT>  (1) 
1

>  <PUBCHEM_CACTVS_TAUTO_COUNT>  (1) 
1

>  <PUBCHEM_CONFORMER_ID>  (1) 
00007FB900000001

>  <PUBCHEM_MMFF94_ENERGY>  (1) 
42.4318

>  <PUBCHEM_FEATURE_SELFOVERLAP>  (1) 
15.223

>  <PUBCHEM_SHAPE_FINGERPRINT>  (1) 
10688039 33 18113904810698032693
12166972 35 18060139860483728955
12507560 14 18342177739407540175
12553582 1 18410285926317443262
12617007 42 18270982192444740462
12788726 201 18262241015127690514
13004483 165 18336539413736509554
13140716 1 18194956572463742114
14022347 108 18335711511577583882
14178342 30 17620464049306408329
14466204 15 18337387120385438257
14790565 3 18339093643377268276
15042514 8 18048595911176948922
15420108 30 17699270377112238568
15442244 35 18341049743683121271
15475509 8 17914366539372845476
15664445 248 18340225050096264606
15885798 251 18336544928205498699
1601671 61 18412834564057897479
16945 1 18411688903196507998
17980427 23 17559659806391446375
18785283 64 18043536224996068141
19591789 44 18195810665349393991
20097449 115 18336256912098876760
20510252 161 18269829814317692706
20600515 1 18201143451721711186
20642791 178 17973447899565911260
20642791 35 18338807831000332668
20671657 1 18197220471542964029
20739085 24 18268446641337806707
21029758 27 18334864913108475133
21041028 32 18408603647793922485
21285901 2 17986690180976207662
21421861 104 18261385693860533112
21478907 32 18120936096730558339
21524375 3 17036964279444003980
2255824 54 18119245314424810902
23419403 2 17541043962537966228
23557571 272 18271529698402562358
23598291 2 17984700275504519783
23845131 108 17190944848274713584
2748010 2 18124871266110315886
3091708 16 9283851232560799360
34934 24 18339923813738108734
350125 39 18124598574816816666
352729 6 17763452925111010406
69474 34 18341883117219152929
7164475 11 18191025599862930654
7364860 26 17982449601056284732
7832392 63 18268992166545572135
81228 2 18337668590824380490
84936 182 17768249372672661417
9971528 1 18059856172770678815

>  <PUBCHEM_SHAPE_MULTIPOLES>  (1) 
397.9
8.08
4.53
1.21
7.87
3.81
-0.3
-5.34
-1.79
-1.02
0.48
-0.92
0.55
-0.31

>  <PUBCHEM_SHAPE_SELFOVERLAP>  (1) 
750.833

>  <PUBCHEM_SHAPE_VOLUME>  (1) 
240

>  <PUBCHEM_COORDINATE_TYPE>  (1) 
2
5
10

$$$$
