32695
     RDKit          3D

 20 21  0  0  0  0  0  0  0  0999 V2000
   -1.8132   -3.2292    1.5974 Cl  0  0  0  0  0  0  0  0  0  0  0  0
   -4.0508   -2.2277    0.0818 Cl  0  0  0  0  0  0  0  0  0  0  0  0
   -1.7965   -3.3507   -1.3266 Cl  0  0  0  0  0  0  0  0  0  0  0  0
    6.3367    0.2884   -0.0051 Cl  0  0  0  0  0  0  0  0  0  0  0  0
   -2.3144    2.4335   -0.1057 N   0  0  0  0  0  0  0  0  0  0  0  0
   -0.2420    1.3365   -0.0585 N   0  0  0  0  0  0  0  0  0  0  0  0
   -0.1872   -1.0604    0.0420 N   0  0  0  0  0  0  0  0  0  0  0  0
   -2.2921    0.0906   -0.0085 N   0  0  0  0  0  0  0  0  0  0  0  0
    1.8273    0.1849   -0.0079 C   0  0  0  0  0  0  0  0  0  0  0  0
    0.3807    0.1516   -0.0081 C   0  0  0  0  0  0  0  0  0  0  0  0
   -1.5804    1.2282   -0.0556 C   0  0  0  0  0  0  0  0  0  0  0  0
   -3.7432    2.4714   -0.1088 C   0  0  0  0  0  0  0  0  0  0  0  0
   -1.5292   -1.0135    0.0384 C   0  0  0  0  0  0  0  0  0  0  0  0
    2.5491   -0.8693   -0.5674 C   0  0  0  0  0  0  0  0  0  0  0  0
    2.4999    1.2709    0.5525 C   0  0  0  0  0  0  0  0  0  0  0  0
   -4.2545    3.9018   -0.1330 C   0  0  0  0  0  0  0  0  0  0  0  0
    3.9436   -0.8377   -0.5664 C   0  0  0  0  0  0  0  0  0  0  0  0
    3.8944    1.3026    0.5535 C   0  0  0  0  0  0  0  0  0  0  0  0
   -2.2447   -2.3203    0.0921 C   0  0  0  0  0  0  0  0  0  0  0  0
    4.6164    0.2483   -0.0062 C   0  0  0  0  0  0  0  0  0  0  0  0
  1 19  1  0
  2 19  1  0
  3 19  1  0
  4 20  1  0
  5 11  1  0
  5 12  1  0
  6 10  2  0
  6 11  1  0
  7 10  1  0
  7 13  2  0
  8 11  2  0
  8 13  1  0
  9 10  1  0
  9 14  2  0
  9 15  1  0
 12 16  1  0
 13 19  1  0
 14 17  1  0
 15 18  2  0
 17 20  2  0
 18 20  1  0
M  END
>  <PUBCHEM_COMPOUND_CID>  (1) 
32695

>  <PUBCHEM_CONFORMER_RMSD>  (1) 
0.6

>  <PUBCHEM_CONFORMER_DIVERSEORDER>  (1) 
1
6
13
14
20
8
15
23
21
16
3
4
7
17
9
2
24
11
5
19
12
22
10
18

>  <PUBCHEM_MMFF94_PARTIAL_CHARGES>  (1) 
23
1 -0.29
10 0.62
11 0.72
12 0.37
13 0.48
14 -0.15
15 -0.15
17 -0.15
18 -0.15
19 1.01
2 -0.29
20 0.18
23 0.4
24 0.15
25 0.15
29 0.15
3 -0.29
30 0.15
4 -0.18
5 -0.87
6 -0.62
7 -0.62
8 -0.62

>  <PUBCHEM_EFFECTIVE_ROTOR_COUNT>  (1) 
4

>  <PUBCHEM_PHARMACOPHORE_FEATURES>  (1) 
4
1 5 donor
4 5 6 8 11 cation
6 6 7 8 10 11 13 rings
6 9 14 15 17 18 20 rings

>  <PUBCHEM_HEAVY_ATOM_COUNT>  (1) 
20

>  <PUBCHEM_ATOM_DEF_STEREO_COUNT>  (1) 
0

>  <PUBCHEM_ATOM_UDEF_STEREO_COUNT>  (1) 
0

>  <PUBCHEM_BOND_DEF_STEREO_COUNT>  (1) 
0

>  <PUBCHEM_BOND_UDEF_STEREO_COUNT>  (1) 
0

>  <PUBCHEM_ISOTOPIC_ATOM_COUNT>  (1) 
0

>  <PUBCHEM_COMPONENT_COUNT>  (1) 
1

>  <PUBCHEM_CACTVS_TAUTO_COUNT>  (1) 
4

>  <PUBCHEM_CONFORMER_ID>  (1) 
00007FB700000001

>  <PUBCHEM_MMFF94_ENERGY>  (1) 
47.9569

>  <PUBCHEM_FEATURE_SELFOVERLAP>  (1) 
20.297

>  <PUBCHEM_SHAPE_FINGERPRINT>  (1) 
10319926 262 18340186550331170248
10411042 1 18050005786190995451
10608611 8 18342453768581997384
10616163 171 18411420639697663198
12107183 9 18046053858074826306
12403259 118 18338786932148548984
12403259 415 17988638653768484120
12500047 106 18412260601966597668
12532896 13 18336266717619963839
12553582 1 17834687362644077390
12730499 353 17904490602233476649
12788726 201 18335692888614907907
13140716 1 17974858568583625827
138480 1 16681755460411516781
14178342 30 18334283280458766448
14508225 48 18266165322514472981
14790565 3 18051136886702243176
15042514 8 18264495147382949787
15927050 60 18265895753024050147
17539 30 18270669991519991847
18927931 339 18339366382986513518
19141452 34 17915184730923074479
20510252 161 18342176687156007001
20645477 56 18409731716427348748
20645477 70 17059782105295481094
20681677 155 18335420128327112264
21041028 32 18045793544175129163
21049683 118 18193810709918446441
21065198 57 18412823590965062800
21236236 1 18413951685499849917
21267235 1 18266466575504611050
21339142 126 18269835483437529743
21426921 1 18410574019532301580
21524375 3 18120937209458975189
22182313 1 17988378004713489710
22224240 67 18267596723962447561
23402539 116 18338509871380087558
23557571 272 18341620338720404164
23558518 356 18334576871026528883
23559900 14 18267295603235216032
23598288 3 18335713791819453446
283562 15 18408600375508884387
3084891 72 18054504712408261632
3091708 16 9200280631141817001
350125 39 18269279117922115760
3759504 43 18261396590081526473
4214541 1 18411419510173706456
5104073 3 18413384350664388664
53917941 68 18263910078152937933
559249 180 18337386038043487242
59755656 520 18262514780179214173
633830 44 17984132657074953101
7364860 26 17547290000253048045
77188 2 17832709350464021447
81228 2 18262234542580177129
9709674 26 18343023285466464062

>  <PUBCHEM_SHAPE_MULTIPOLES>  (1) 
399.15
10.26
4.2
0.92
13.33
0.89
0.1
3.29
-0.1
-8.77
-0.03
-0.26
-0.78
0.75

>  <PUBCHEM_SHAPE_SELFOVERLAP>  (1) 
805.698

>  <PUBCHEM_SHAPE_VOLUME>  (1) 
232

>  <PUBCHEM_COORDINATE_TYPE>  (1) 
2
5
10

$$$$
