32703
     RDKit          3D

 20 20  0  0  1  0  0  0  0  0999 V2000
    4.0004    1.0088   -1.6098 Cl  0  0  0  0  0  0  0  0  0  0  0  0
    2.0559    2.9392   -0.7159 Cl  0  0  0  0  0  0  0  0  0  0  0  0
    3.8206    1.7303    1.2208 Cl  0  0  0  0  0  0  0  0  0  0  0  0
   -1.5493   -0.4328   -0.0798 N   0  0  0  0  0  0  0  0  0  0  0  0
    0.6127    0.4699   -0.1739 N   0  0  0  0  0  0  0  0  0  0  0  0
    0.2681   -1.8340    0.4016 N   0  0  0  0  0  0  0  0  0  0  0  0
    2.4927   -0.9390    0.3140 N   0  0  0  0  0  0  0  0  0  0  0  0
   -3.3799    4.0682    0.1613 N   0  0  0  0  0  0  0  0  0  0  0  0
   -2.4686   -1.5315    0.1314 C   0  0  0  0  0  0  0  0  0  0  0  0
   -2.1705   -2.6694   -0.8523 C   0  0  0  0  0  0  0  0  0  0  0  0
   -2.0966    0.8701   -0.4534 C   0  0  0  0  0  0  0  0  0  0  0  0
   -2.3346   -2.0087    1.5739 C   0  0  0  0  0  0  0  0  0  0  0  0
   -0.1670   -0.6059    0.0548 C   0  0  0  0  0  0  0  0  0  0  0  0
   -2.2928   -2.2351   -2.3074 C   0  0  0  0  0  0  0  0  0  0  0  0
   -2.3812    1.7152    0.7837 C   0  0  0  0  0  0  0  0  0  0  0  0
    1.9255    0.2296   -0.0259 C   0  0  0  0  0  0  0  0  0  0  0  0
    1.6032   -1.9252    0.5121 C   0  0  0  0  0  0  0  0  0  0  0  0
   -2.9394    3.0302    0.4346 C   0  0  0  0  0  0  0  0  0  0  0  0
    2.8469    1.3770   -0.2635 C   0  0  0  0  0  0  0  0  0  0  0  0
    2.1540   -3.2568    0.8937 C   0  0  0  0  0  0  0  0  0  0  0  0
  1 19  1  0
  2 19  1  0
  3 19  1  0
  4  9  1  0
  4 11  1  0
  4 13  1  0
  5 13  2  0
  5 16  1  0
  6 13  1  0
  6 17  2  0
  7 16  2  0
  7 17  1  0
  8 18  3  0
  9 10  1  0
  9 12  1  0
 10 14  1  0
 11 15  1  0
 15 18  1  0
 16 19  1  0
 17 20  1  0
M  END
>  <PUBCHEM_COMPOUND_CID>  (1) 
32703

>  <PUBCHEM_CONFORMER_RMSD>  (1) 
0.8

>  <PUBCHEM_CONFORMER_DIVERSEORDER>  (1) 
2
148
56
48
178
77
131
121
153
81
14
125
129
158
143
93
110
20
157
53
47
144
124
132
190
165
17
117
111
127
88
120
155
133
167
151
70
64
172
135
46
105
99
35
156
139
138
180
69
34
179
170
113
150
142
123
152
67
79
119
21
109
37
32
136
71
169
173
80
140
6
54
141
118
96
134
168
10
177
98
126
122
42
63
103
55
76
176
171
33
16
128
149
25
188
13
92
174
27
181
5
85
97
182
12
83
191
45
101
58
8
15
102
114
108
193
72
65
147
75
66
164
23
86
160
146
162
159
50
29
91
51
61
1
52
31
115
43
145
30
116
18
95
90
3
59
82
175
184
137
183
24
189
4
107
68
44
62
161
185
9
40
186
60
166
87
11
130
28
39
36
89
94
192
19
100
38
84
26
104
187
57
74
112
22
154
163
73
7
41
106
78
49

>  <PUBCHEM_MMFF94_PARTIAL_CHARGES>  (1) 
17
1 -0.29
11 0.37
13 0.72
15 0.2
16 0.48
17 0.48
18 0.36
19 1.01
2 -0.29
20 0.14
3 -0.29
4 -0.84
5 -0.62
6 -0.62
7 -0.62
8 -0.56
9 0.37

>  <PUBCHEM_EFFECTIVE_ROTOR_COUNT>  (1) 
6

>  <PUBCHEM_PHARMACOPHORE_FEATURES>  (1) 
4
1 14 hydrophobe
1 8 acceptor
4 4 5 6 13 cation
6 5 6 7 13 16 17 rings

>  <PUBCHEM_HEAVY_ATOM_COUNT>  (1) 
20

>  <PUBCHEM_ATOM_DEF_STEREO_COUNT>  (1) 
0

>  <PUBCHEM_ATOM_UDEF_STEREO_COUNT>  (1) 
1

>  <PUBCHEM_BOND_DEF_STEREO_COUNT>  (1) 
0

>  <PUBCHEM_BOND_UDEF_STEREO_COUNT>  (1) 
0

>  <PUBCHEM_ISOTOPIC_ATOM_COUNT>  (1) 
0

>  <PUBCHEM_COMPONENT_COUNT>  (1) 
1

>  <PUBCHEM_CACTVS_TAUTO_COUNT>  (1) 
1

>  <PUBCHEM_CONFORMER_ID>  (1) 
00007FBF00000002

>  <PUBCHEM_MMFF94_ENERGY>  (1) 
46.0441

>  <PUBCHEM_FEATURE_SELFOVERLAP>  (1) 
20.297

>  <PUBCHEM_SHAPE_FINGERPRINT>  (1) 
108231 29 17615413996531671531
12507560 14 17619623588414832218
12553582 1 17691415525730123053
12788726 201 18049728713223375964
13140716 1 17614284789874291290
13911987 19 17757546735061818510
14178342 30 18408876352463258640
14466204 15 17182775472505859208
16945 1 18119811563002922634
18186145 218 17975696405044449182
192875 21 18046608269200843236
20510252 161 18123478434081212688
20671657 1 18266177236452895752
21501502 16 18334857186467915562
21524375 3 18122622756695292137
22094290 62 18121218675481864961
2334 1 18334856143086170722
23402539 116 18053375784802410084
23419403 2 16390341215928380658
23557571 272 17773872189142562776
23558518 356 18334010588173672794
23598291 2 18337948987279432031
2748010 2 18335420166770970486
283562 15 18264771149816762848
3060560 45 17622440545984792791
352729 6 17984142561427221353
5939293 188 17761212111718179785
633830 44 18123198062953054862
7164475 11 18270663321393725975
7832392 63 18337391522325879272

>  <PUBCHEM_SHAPE_MULTIPOLES>  (1) 
392.29
6.56
4.65
1.44
3.81
2.97
-0.54
2.52
-0.69
-3.36
0.71
-0.18
-0.67
-1.38

>  <PUBCHEM_SHAPE_SELFOVERLAP>  (1) 
759.991

>  <PUBCHEM_SHAPE_VOLUME>  (1) 
232.7

>  <PUBCHEM_COORDINATE_TYPE>  (1) 
2
5
10

$$$$
