32716
     RDKit          3D

 22 23  0  0  0  0  0  0  0  0999 V2000
    1.5266    1.7820   -0.1306 S   0  0  0  0  0  0  0  0  0  0  0  0
   -4.1656    2.0905   -0.2252 O   0  0  0  0  0  0  0  0  0  0  0  0
   -4.4188   -2.5668    0.2789 O   0  0  0  0  0  0  0  0  0  0  0  0
    4.9713   -0.3502    0.1366 N   0  0  0  0  0  0  0  0  0  0  0  0
   -1.1973    1.7169   -0.1528 N   0  0  0  0  0  0  0  0  0  0  0  0
   -2.3105   -1.5861    0.1944 N   0  0  0  0  0  0  0  0  0  0  0  0
   -4.3172   -0.2401    0.0276 N   0  0  0  0  0  0  0  0  0  0  0  0
   -0.2291   -0.2784    0.0737 N   0  0  0  0  0  0  0  0  0  0  0  0
   -2.2121    0.8076   -0.0651 C   0  0  0  0  0  0  0  0  0  0  0  0
    4.0899    0.8057    0.0024 C   0  0  0  0  0  0  0  0  0  0  0  0
   -1.5924   -0.4044    0.0730 C   0  0  0  0  0  0  0  0  0  0  0  0
    2.6352    0.3538    0.0358 C   0  0  0  0  0  0  0  0  0  0  0  0
   -0.0230    1.0151   -0.0642 C   0  0  0  0  0  0  0  0  0  0  0  0
    6.3729    0.0705    0.1425 C   0  0  0  0  0  0  0  0  0  0  0  0
    4.7317   -1.3072   -0.9442 C   0  0  0  0  0  0  0  0  0  0  0  0
   -3.6264    0.9944   -0.0995 C   0  0  0  0  0  0  0  0  0  0  0  0
   -3.7273   -1.5473    0.1751 C   0  0  0  0  0  0  0  0  0  0  0  0
   -1.3501    3.1470   -0.3093 C   0  0  0  0  0  0  0  0  0  0  0  0
   -1.6048   -2.8532    0.3399 C   0  0  0  0  0  0  0  0  0  0  0  0
    6.6158    1.0620    1.2641 C   0  0  0  0  0  0  0  0  0  0  0  0
    5.6061   -2.5327   -0.7600 C   0  0  0  0  0  0  0  0  0  0  0  0
   -5.7749   -0.1789    0.0069 C   0  0  0  0  0  0  0  0  0  0  0  0
  1 12  1  0
  1 13  1  0
  2 16  2  0
  3 17  2  0
  4 10  1  0
  4 14  1  0
  4 15  1  0
  5  9  1  0
  5 13  1  0
  5 18  1  0
  6 11  1  0
  6 17  1  0
  6 19  1  0
  7 16  1  0
  7 17  1  0
  7 22  1  0
  8 11  1  0
  8 13  2  0
  9 11  2  0
  9 16  1  0
 10 12  1  0
 14 20  1  0
 15 21  1  0
M  END
>  <PUBCHEM_COMPOUND_CID>  (1) 
32716

>  <PUBCHEM_CONFORMER_RMSD>  (1) 
0.8

>  <PUBCHEM_CONFORMER_DIVERSEORDER>  (1) 
1
47
37
51
16
44
38
34
50
30
17
32
39
40
52
7
36
24
42
6
53
4
33
20
10
3
43
48
5
27
2
49
31
11
26
41
29
28
22
12
8
46
21
9
19
25
15
23
45
13
14
35
18

>  <PUBCHEM_MMFF94_PARTIAL_CHARGES>  (1) 
20
1 -0.29
10 0.27
11 0.29
12 0.23
13 0.24
14 0.27
15 0.27
16 0.71
17 0.69
18 0.26
19 0.3
2 -0.57
22 0.3
3 -0.57
4 -0.81
5 0.05
6 -0.42
7 -0.42
8 -0.57
9 -0.24

>  <PUBCHEM_EFFECTIVE_ROTOR_COUNT>  (1) 
6

>  <PUBCHEM_PHARMACOPHORE_FEATURES>  (1) 
6
1 2 acceptor
1 3 acceptor
1 4 cation
3 5 8 13 cation
5 5 8 9 11 13 rings
6 6 7 9 11 16 17 rings

>  <PUBCHEM_HEAVY_ATOM_COUNT>  (1) 
22

>  <PUBCHEM_ATOM_DEF_STEREO_COUNT>  (1) 
0

>  <PUBCHEM_ATOM_UDEF_STEREO_COUNT>  (1) 
0

>  <PUBCHEM_BOND_DEF_STEREO_COUNT>  (1) 
0

>  <PUBCHEM_BOND_UDEF_STEREO_COUNT>  (1) 
0

>  <PUBCHEM_ISOTOPIC_ATOM_COUNT>  (1) 
0

>  <PUBCHEM_COMPONENT_COUNT>  (1) 
1

>  <PUBCHEM_CACTVS_TAUTO_COUNT>  (1) 
1

>  <PUBCHEM_CONFORMER_ID>  (1) 
00007FCC00000001

>  <PUBCHEM_MMFF94_ENERGY>  (1) 
36.995

>  <PUBCHEM_FEATURE_SELFOVERLAP>  (1) 
30.561

>  <PUBCHEM_SHAPE_FINGERPRINT>  (1) 
10 15 18200581606424159208
10411042 1 18120374522089798931
10693767 8 17768514342934878335
10835480 77 18343293761232792336
11315181 36 18187645838320736656
11578080 2 13684921319284653761
12236239 1 17530683229529263692
12516196 113 18130786772186380624
12596602 18 14764339475163627294
13288520 33 18409730677118817341
13402501 40 18342460326991829198
13533116 47 17846498102497296202
14790565 3 17618789055048188105
14866123 147 18198070170704018041
14910302 57 18262518088015864068
15042514 8 18408329899753254745
15196674 1 18411420592521347846
15352361 1 18410858776328237070
17492 89 17832144192776552131
17857418 61 18408884057771367114
1813 80 17458064867882357412
19141452 34 18272090543046827751
20374829 77 18334573576944972408
20403669 9 18342464712174459670
21267235 1 18334863844167988041
21279426 13 18267585710747739966
2297311 6 18411425003162688492
23402539 116 18341608239887195781
23559900 14 18340480149019875169
239999 70 18343868802046139982
3004659 81 18186805799084762764
335352 9 18408602596096420053
3383291 50 18187648076136440059
3882209 13 16902679816633484118
4073 2 18334580178979756146
4214541 1 18409730659970726540
4325135 7 18187366563163749940
5104073 3 18201435810625266768
559249 180 18259980466011747376
59755656 215 18335136458564188455
6138700 20 18409451341062414807
67856867 119 18115591599148574740
9709674 26 18337396057632275098

>  <PUBCHEM_SHAPE_MULTIPOLES>  (1) 
419.96
15.33
3.01
0.77
17.96
0.6
-0.04
4.12
-1.2
-1.37
0.22
0.84
0.04
1.68

>  <PUBCHEM_SHAPE_SELFOVERLAP>  (1) 
851.674

>  <PUBCHEM_SHAPE_VOLUME>  (1) 
250.7

>  <PUBCHEM_COORDINATE_TYPE>  (1) 
2
5
10

$$$$
