32719
     RDKit          3D

 17 19  0  0  0  0  0  0  0  0999 V2000
   -0.3542   -2.1604   -0.4991 N   0  0  0  0  0  0  0  0  0  0  0  0
   -2.2666   -0.3535    0.6108 C   0  0  0  0  0  0  0  0  0  0  0  0
   -2.0525   -1.6940    1.2487 C   0  0  0  0  0  0  0  0  0  0  0  0
   -1.3994    0.0511   -0.4120 C   0  0  0  0  0  0  0  0  0  0  0  0
   -0.3288   -0.9034   -0.7979 C   0  0  0  0  0  0  0  0  0  0  0  0
   -1.5366   -2.6724    0.2018 C   0  0  0  0  0  0  0  0  0  0  0  0
    0.8589   -0.3886   -1.5748 C   0  0  0  0  0  0  0  0  0  0  0  0
   -3.2704    0.5151    1.0481 C   0  0  0  0  0  0  0  0  0  0  0  0
   -1.5479    1.3026   -1.0128 C   0  0  0  0  0  0  0  0  0  0  0  0
    1.9581    0.0183   -0.6448 C   0  0  0  0  0  0  0  0  0  0  0  0
   -3.4201    1.7660    0.4491 C   0  0  0  0  0  0  0  0  0  0  0  0
   -2.5631    2.1568   -0.5803 C   0  0  0  0  0  0  0  0  0  0  0  0
    2.0133    1.3253   -0.1672 C   0  0  0  0  0  0  0  0  0  0  0  0
    2.9211   -0.9116   -0.2613 C   0  0  0  0  0  0  0  0  0  0  0  0
    3.0380    1.7047    0.6997 C   0  0  0  0  0  0  0  0  0  0  0  0
    3.9458   -0.5321    0.6057 C   0  0  0  0  0  0  0  0  0  0  0  0
    4.0043    0.7760    1.0863 C   0  0  0  0  0  0  0  0  0  0  0  0
  1  5  2  0
  1  6  1  0
  2  3  1  0
  2  4  2  0
  2  8  1  0
  3  6  1  0
  4  5  1  0
  4  9  1  0
  5  7  1  0
  7 10  1  0
  8 11  2  0
  9 12  2  0
 10 13  2  0
 10 14  1  0
 11 12  1  0
 13 15  1  0
 14 16  2  0
 15 17  2  0
 16 17  1  0
M  END
>  <PUBCHEM_COMPOUND_CID>  (1) 
32719

>  <PUBCHEM_CONFORMER_RMSD>  (1) 
0.6

>  <PUBCHEM_CONFORMER_DIVERSEORDER>  (1) 
4
2
8
1
7
3
11
10
9
5
6

>  <PUBCHEM_MMFF94_PARTIAL_CHARGES>  (1) 
26
1 -0.7
10 -0.14
11 -0.15
12 -0.15
13 -0.15
14 -0.15
15 -0.15
16 -0.15
17 -0.15
2 -0.14
24 0.15
25 0.15
26 0.15
27 0.15
28 0.15
29 0.15
3 0.14
30 0.15
31 0.15
32 0.15
4 0.09
5 0.3
6 0.25
7 0.2
8 -0.15
9 -0.15

>  <PUBCHEM_EFFECTIVE_ROTOR_COUNT>  (1) 
2.4

>  <PUBCHEM_PHARMACOPHORE_FEATURES>  (1) 
4
1 1 acceptor
6 1 2 3 4 5 6 rings
6 10 13 14 15 16 17 rings
6 2 4 8 9 11 12 rings

>  <PUBCHEM_HEAVY_ATOM_COUNT>  (1) 
17

>  <PUBCHEM_ATOM_DEF_STEREO_COUNT>  (1) 
0

>  <PUBCHEM_ATOM_UDEF_STEREO_COUNT>  (1) 
0

>  <PUBCHEM_BOND_DEF_STEREO_COUNT>  (1) 
0

>  <PUBCHEM_BOND_UDEF_STEREO_COUNT>  (1) 
0

>  <PUBCHEM_ISOTOPIC_ATOM_COUNT>  (1) 
0

>  <PUBCHEM_COMPONENT_COUNT>  (1) 
1

>  <PUBCHEM_CACTVS_TAUTO_COUNT>  (1) 
1

>  <PUBCHEM_CONFORMER_ID>  (1) 
00007FCF00000004

>  <PUBCHEM_MMFF94_ENERGY>  (1) 
50.201

>  <PUBCHEM_FEATURE_SELFOVERLAP>  (1) 
20.322

>  <PUBCHEM_SHAPE_FINGERPRINT>  (1) 
10366900 7 18265050426186994890
10764073 3 9001760727097177861
1100329 8 16032957790771908158
11132069 177 18409456873338565825
11265709 11 17834117820311748735
11640471 11 15339123403140415700
12077114 3 18410007728258023136
12202030 40 12324240606818536996
122479 349 18272932713008164484
12251169 10 18334297586620425724
12500047 106 18335698313142407662
12633257 1 18410013238716999088
12824470 246 15431746421936863307
13004483 165 17910659188060024879
13764800 53 18059303157108170832
14178342 30 18261946453496677874
14420673 8 18117274745244900890
15295992 7 18202283580559689400
15653759 3 18333733507291130552
16945 1 18187938282496020615
17804303 29 18262810566329885406
18186145 218 17845661352066898404
18219364 16 17703794768407101496
18981168 100 17201621475747130482
19049666 15 18267873770062412910
20361792 2 15213013882053306830
21065199 12 18410572929111833634
21475661 188 17698460835880761185
21524375 3 18340205185534968351
21731228 192 18410293566963646123
21731516 1 14923939063828400148
23175994 123 17485395308060131150
23388829 49 17546174459575163063
23402539 116 18339635742013281071
23559900 14 18265072283006623838
27216 239 18129655434418301288
2748010 2 17755042821263885263
351380 180 18340762659294499117
4072396 5 17604446124064731753
4340502 62 18339934693422824753
474 4 17917149386260319345
5706482 22 18334852784500756115
58807428 26 18115316557736746915
69090 78 18411132537396042935
7097593 13 18187356641198166562
7364860 26 17761215410648844879
81228 2 18189619513221587759
84936 182 17472407760643611653
90316 7 17676210160734404237

>  <PUBCHEM_SHAPE_MULTIPOLES>  (1) 
344.87
6.77
2.45
1.25
4.22
0.62
0.06
-2.5
-2.67
-1.58
-0.11
-0.01
0.02
0.73

>  <PUBCHEM_SHAPE_SELFOVERLAP>  (1) 
753.546

>  <PUBCHEM_SHAPE_VOLUME>  (1) 
183.1

>  <PUBCHEM_COORDINATE_TYPE>  (1) 
2
5
10

$$$$
