32727
     RDKit          3D

 23 23  0  0  1  0  0  0  0  0999 V2000
   -3.9939    0.4505    1.9524 Cl  0  0  0  0  0  0  0  0  0  0  0  0
   -3.0785    2.8371    0.6210 Cl  0  0  0  0  0  0  0  0  0  0  0  0
   -4.3492    0.7660   -0.9355 Cl  0  0  0  0  0  0  0  0  0  0  0  0
   -1.7959   -3.5545   -1.7469 Cl  0  0  0  0  0  0  0  0  0  0  0  0
    0.8407   -3.8117   -0.6116 Cl  0  0  0  0  0  0  0  0  0  0  0  0
   -1.4507   -3.8770    1.1414 Cl  0  0  0  0  0  0  0  0  0  0  0  0
    1.5216    1.0962   -0.1408 N   0  0  0  0  0  0  0  0  0  0  0  0
    0.3973   -0.9593   -0.2358 N   0  0  0  0  0  0  0  0  0  0  0  0
   -0.8056    1.0817    0.1452 N   0  0  0  0  0  0  0  0  0  0  0  0
   -1.9844   -1.0063    0.0529 N   0  0  0  0  0  0  0  0  0  0  0  0
    5.7131   -1.2695    0.5683 N   0  0  0  0  0  0  0  0  0  0  0  0
    1.5435    2.5366    0.0064 C   0  0  0  0  0  0  0  0  0  0  0  0
    0.6908    3.1945   -1.0851 C   0  0  0  0  0  0  0  0  0  0  0  0
    2.7861    0.4017   -0.3762 C   0  0  0  0  0  0  0  0  0  0  0  0
    1.0216    2.8925    1.3946 C   0  0  0  0  0  0  0  0  0  0  0  0
    0.3227    0.3771   -0.0744 C   0  0  0  0  0  0  0  0  0  0  0  0
    1.1781    2.8642   -2.4902 C   0  0  0  0  0  0  0  0  0  0  0  0
    3.4258   -0.0242    0.9410 C   0  0  0  0  0  0  0  0  0  0  0  0
   -0.7901   -1.5819   -0.1602 C   0  0  0  0  0  0  0  0  0  0  0  0
   -1.9151    0.3270    0.1962 C   0  0  0  0  0  0  0  0  0  0  0  0
    4.7042   -0.7202    0.7314 C   0  0  0  0  0  0  0  0  0  0  0  0
   -3.2008    1.0422    0.4359 C   0  0  0  0  0  0  0  0  0  0  0  0
   -0.7814   -3.0628   -0.3300 C   0  0  0  0  0  0  0  0  0  0  0  0
  1 22  1  0
  2 22  1  0
  3 22  1  0
  4 23  1  0
  5 23  1  0
  6 23  1  0
  7 12  1  0
  7 14  1  0
  7 16  1  0
  8 16  2  0
  8 19  1  0
  9 16  1  0
  9 20  2  0
 10 19  2  0
 10 20  1  0
 11 21  3  0
 12 13  1  0
 12 15  1  0
 13 17  1  0
 14 18  1  0
 18 21  1  0
 19 23  1  0
 20 22  1  0
M  END
>  <PUBCHEM_COMPOUND_CID>  (1) 
32727

>  <PUBCHEM_CONFORMER_RMSD>  (1) 
0.8

>  <PUBCHEM_CONFORMER_DIVERSEORDER>  (1) 
1
99
51
17
61
132
114
157
138
7
106
131
73
130
48
117
133
68
110
142
161
45
74
27
111
154
32
129
115
82
120
126
122
43
119
146
25
59
72
139
144
116
118
92
23
113
104
71
56
47
95
152
57
112
159
69
49
123
103
78
54
165
88
108
55
124
128
33
58
89
90
94
18
66
28
145
141
81
147
96
100
79
107
121
87
156
38
135
98
63
34
167
70
4
37
163
29
91
102
166
50
67
14
153
93
16
150
140
53
162
151
10
143
39
127
137
84
15
80
136
85
60
24
76
26
13
41
22
64
148
11
83
164
31
30
97
2
134
19
5
36
62
40
155
65
21
6
20
44
77
158
42
109
105
35
160
52
8
149
9
125
3
101
12
46
75
86

>  <PUBCHEM_MMFF94_PARTIAL_CHARGES>  (1) 
20
1 -0.29
10 -0.62
11 -0.56
12 0.37
14 0.37
16 0.72
18 0.2
19 0.48
2 -0.29
20 0.48
21 0.36
22 1.01
23 1.01
3 -0.29
4 -0.29
5 -0.29
6 -0.29
7 -0.84
8 -0.62
9 -0.62

>  <PUBCHEM_EFFECTIVE_ROTOR_COUNT>  (1) 
7

>  <PUBCHEM_PHARMACOPHORE_FEATURES>  (1) 
4
1 11 acceptor
1 17 hydrophobe
4 7 8 9 16 cation
6 8 9 10 16 19 20 rings

>  <PUBCHEM_HEAVY_ATOM_COUNT>  (1) 
23

>  <PUBCHEM_ATOM_DEF_STEREO_COUNT>  (1) 
0

>  <PUBCHEM_ATOM_UDEF_STEREO_COUNT>  (1) 
1

>  <PUBCHEM_BOND_DEF_STEREO_COUNT>  (1) 
0

>  <PUBCHEM_BOND_UDEF_STEREO_COUNT>  (1) 
0

>  <PUBCHEM_ISOTOPIC_ATOM_COUNT>  (1) 
0

>  <PUBCHEM_COMPONENT_COUNT>  (1) 
1

>  <PUBCHEM_CACTVS_TAUTO_COUNT>  (1) 
1

>  <PUBCHEM_CONFORMER_ID>  (1) 
00007FD700000001

>  <PUBCHEM_MMFF94_ENERGY>  (1) 
49.7402

>  <PUBCHEM_FEATURE_SELFOVERLAP>  (1) 
20.297

>  <PUBCHEM_SHAPE_FINGERPRINT>  (1) 
1100329 8 18341326781568036835
12553582 1 18115291333599727618
12788726 201 17768262562865549071
13140716 1 18268435813798820971
13583140 156 17458063772623342707
14790565 3 18339088073353441344
14943834 7 17974293419322073220
14955137 171 18338815441217813354
15420108 30 17984411941691571707
16945 1 18341620312676391013
19591789 44 17980478962787313978
20028762 73 18201997768215129791
20600515 1 18341899584783401836
20739085 24 17907045900977161769
21033648 29 18200295646320456672
21330990 113 18122066407995951920
21524375 3 18413112775307784571
23184049 29 18052818336549094482
2334 1 17907582784795058287
23402539 116 18129932378325970044
23419403 2 15176891695233764433
23557571 272 17194052570793356205
23558518 356 18046625878192347074
23559900 14 17614827935649075246
23566358 27 17608104365967959704
23598288 3 17982179116669127127
23598291 2 18189332532233596398
25147074 1 18123196963198554405
266924 87 17834663912386346404
2748010 2 18049731719636582101
350125 39 18266745864516586739
352729 6 18268440186223324903
532947 4 18125721184261655023
5486654 36 18187929551176096554
6992083 37 18335978744241826188
7097593 13 18263646345522148274
7164475 11 17980187905390270191
81228 2 17621044591698886755

>  <PUBCHEM_SHAPE_MULTIPOLES>  (1) 
459.64
7.19
5.41
1.61
5.09
3.5
0.45
-0.35
-2.6
-1.14
1.34
-0.44
-0.52
-1.17

>  <PUBCHEM_SHAPE_SELFOVERLAP>  (1) 
872.017

>  <PUBCHEM_SHAPE_VOLUME>  (1) 
276.5

>  <PUBCHEM_COORDINATE_TYPE>  (1) 
2
5
10

$$$$
