32722
     RDKit          3D

 12 12  0  0  0  0  0  0  0  0999 V2000
   -1.5124   -0.8242    0.3373 O   0  0  0  0  0  0  0  0  0  0  0  0
    0.7315   -1.3630    0.1729 N   0  0  0  0  0  0  0  0  0  0  0  0
   -0.0137    0.9145    0.0481 N   0  0  0  0  0  0  0  0  0  0  0  0
    2.3248    0.4059   -0.1271 N   0  0  0  0  0  0  0  0  0  0  0  0
    3.0231   -1.8291   -0.0012 N   0  0  0  0  0  0  0  0  0  0  0  0
    1.5666    2.6220   -0.2454 N   0  0  0  0  0  0  0  0  0  0  0  0
   -2.5193   -0.0262   -0.2779 C   0  0  0  0  0  0  0  0  0  0  0  0
   -3.6803   -0.9172   -0.6923 C   0  0  0  0  0  0  0  0  0  0  0  0
   -2.9574    1.0617    0.6907 C   0  0  0  0  0  0  0  0  0  0  0  0
   -0.2172   -0.4089    0.1803 C   0  0  0  0  0  0  0  0  0  0  0  0
    1.9755   -0.8827    0.0155 C   0  0  0  0  0  0  0  0  0  0  0  0
    1.2786    1.2473   -0.1009 C   0  0  0  0  0  0  0  0  0  0  0  0
  1  7  1  0
  1 10  1  0
  2 10  2  0
  2 11  1  0
  3 10  1  0
  3 12  2  0
  4 11  2  0
  4 12  1  0
  5 11  1  0
  6 12  1  0
  7  8  1  0
  7  9  1  0
M  END
>  <PUBCHEM_COMPOUND_CID>  (1) 
32722

>  <PUBCHEM_CONFORMER_RMSD>  (1) 
0.6

>  <PUBCHEM_CONFORMER_DIVERSEORDER>  (1) 
1
2
4
3

>  <PUBCHEM_MMFF94_PARTIAL_CHARGES>  (1) 
14
1 -0.36
10 0.7
11 0.72
12 0.72
2 -0.62
20 0.4
21 0.4
22 0.4
23 0.4
3 -0.62
4 -0.62
5 -0.9
6 -0.9
7 0.28

>  <PUBCHEM_EFFECTIVE_ROTOR_COUNT>  (1) 
2

>  <PUBCHEM_PHARMACOPHORE_FEATURES>  (1) 
6
1 5 donor
1 6 donor
3 7 8 9 hydrophobe
4 2 4 5 11 cation
4 3 4 6 12 cation
6 2 3 4 10 11 12 rings

>  <PUBCHEM_HEAVY_ATOM_COUNT>  (1) 
12

>  <PUBCHEM_ATOM_DEF_STEREO_COUNT>  (1) 
0

>  <PUBCHEM_ATOM_UDEF_STEREO_COUNT>  (1) 
0

>  <PUBCHEM_BOND_DEF_STEREO_COUNT>  (1) 
0

>  <PUBCHEM_BOND_UDEF_STEREO_COUNT>  (1) 
0

>  <PUBCHEM_ISOTOPIC_ATOM_COUNT>  (1) 
0

>  <PUBCHEM_COMPONENT_COUNT>  (1) 
1

>  <PUBCHEM_CACTVS_TAUTO_COUNT>  (1) 
5

>  <PUBCHEM_CONFORMER_ID>  (1) 
00007FD200000001

>  <PUBCHEM_MMFF94_ENERGY>  (1) 
36.615

>  <PUBCHEM_FEATURE_SELFOVERLAP>  (1) 
30.489

>  <PUBCHEM_SHAPE_FINGERPRINT>  (1) 
10130415 120 18187646843258499754
12932764 1 17417811802876144867
13380535 76 18119523486534591744
14128692 85 18343301435705665283
14325111 11 18411418431967882737
15442244 35 18340771420916876889
15477762 27 18412258458556500967
16945 1 18337398243717621520
19973954 147 18409452522299370185
20645477 70 18410566319315894815
20871998 22 18198627618777881174
21040471 1 17905049505804867984
21501502 16 18412267237701580509
21501925 9 18340192051224459218
23402655 69 18411411813676637021
23552423 10 18410574011248341555
2748010 2 17760098701750281100
3071541 12 18338244863798515548
3248919 1 18334572486186699235
63268167 104 18408889529180128081
7364860 26 18342737468124732128
8030462 33 18341619273389140581
9939556 21 18343866610905716149

>  <PUBCHEM_SHAPE_MULTIPOLES>  (1) 
216.18
5.23
1.99
0.69
3.1
0.83
0
-1.25
0.46
-1.4
0.09
0.33
0.02
-0.54

>  <PUBCHEM_SHAPE_SELFOVERLAP>  (1) 
436.952

>  <PUBCHEM_SHAPE_VOLUME>  (1) 
123.2

>  <PUBCHEM_COORDINATE_TYPE>  (1) 
2
5
10

$$$$
