3275
     RDKit          3D

 24 25  0  0  0  0  0  0  0  0999 V2000
    2.3378   -1.1838   -0.8862 O   0  0  0  0  0  0  0  0  0  0  0  0
   -0.0410   -0.6304   -1.9650 O   0  0  0  0  0  0  0  0  0  0  0  0
    4.0952    1.8964    0.1187 N   0  0  0  0  0  0  0  0  0  0  0  0
    3.2544    1.0171   -0.6930 C   0  0  0  0  0  0  0  0  0  0  0  0
    4.5706    3.0271   -0.6776 C   0  0  0  0  0  0  0  0  0  0  0  0
    3.3585    2.3697    1.2899 C   0  0  0  0  0  0  0  0  0  0  0  0
    3.1763   -0.3704   -0.0762 C   0  0  0  0  0  0  0  0  0  0  0  0
   -1.9132   -0.8378   -0.4612 C   0  0  0  0  0  0  0  0  0  0  0  0
   -2.2795    0.6261   -0.7162 C   0  0  0  0  0  0  0  0  0  0  0  0
    0.2630   -2.2352   -0.2732 C   0  0  0  0  0  0  0  0  0  0  0  0
    1.6571   -2.1914   -0.2542 C   0  0  0  0  0  0  0  0  0  0  0  0
    3.4123    3.8823   -1.1628 C   0  0  0  0  0  0  0  0  0  0  0  0
    4.2361    3.2358    2.1774 C   0  0  0  0  0  0  0  0  0  0  0  0
   -0.5078   -1.2114   -0.9650 C   0  0  0  0  0  0  0  0  0  0  0  0
   -3.6573    0.9535   -0.2012 C   0  0  0  0  0  0  0  0  0  0  0  0
   -0.4112   -3.2701    0.3751 C   0  0  0  0  0  0  0  0  0  0  0  0
    2.3769   -3.1824    0.4133 C   0  0  0  0  0  0  0  0  0  0  0  0
    0.3088   -4.2612    1.0423 C   0  0  0  0  0  0  0  0  0  0  0  0
    1.7028   -4.2174    1.0614 C   0  0  0  0  0  0  0  0  0  0  0  0
   -4.7672    0.8002   -1.0323 C   0  0  0  0  0  0  0  0  0  0  0  0
   -3.8232    1.4094    1.1067 C   0  0  0  0  0  0  0  0  0  0  0  0
   -6.0425    1.1030   -0.5557 C   0  0  0  0  0  0  0  0  0  0  0  0
   -5.0987    1.7120    1.5833 C   0  0  0  0  0  0  0  0  0  0  0  0
   -6.2084    1.5588    0.7520 C   0  0  0  0  0  0  0  0  0  0  0  0
  1  7  1  0
  1 11  1  0
  2 14  2  0
  3  4  1  0
  3  5  1  0
  3  6  1  0
  4  7  1  0
  5 12  1  0
  6 13  1  0
  8  9  1  0
  8 14  1  0
  9 15  1  0
 10 11  2  0
 10 14  1  0
 10 16  1  0
 11 17  1  0
 15 20  2  0
 15 21  1  0
 16 18  2  0
 17 19  2  0
 18 19  1  0
 20 22  1  0
 21 23  2  0
 22 24  2  0
 23 24  1  0
M  END
>  <PUBCHEM_COMPOUND_CID>  (1) 
3275

>  <PUBCHEM_CONFORMER_RMSD>  (1) 
1.2

>  <PUBCHEM_CONFORMER_DIVERSEORDER>  (1) 
1
87
12
58
71
37
63
2
16
89
56
36
51
34
44
43
15
65
68
39
81
83
72
35
42
32
4
3
52
26
91
18
67
90
49
55
7
30
41
31
85
64
66
23
88
9
48
57
46
94
86
6
10
93
20
69
11
28
40
14
22
24
54
70
75
79
61
5
84
19
50
78
59
29
82
76
47
25
17
21
62
80
73
45
27
13
38
8
74
60
92
53
33
77

>  <PUBCHEM_MMFF94_PARTIAL_CHARGES>  (1) 
31
1 -0.36
10 0.09
11 0.08
14 0.42
15 -0.14
16 -0.15
17 -0.15
18 -0.15
19 -0.15
2 -0.57
20 -0.15
21 -0.15
22 -0.15
23 -0.15
24 -0.15
3 -0.81
4 0.27
43 0.15
44 0.15
45 0.15
46 0.15
47 0.15
48 0.15
49 0.15
5 0.27
50 0.15
51 0.15
6 0.27
7 0.28
8 0.06
9 0.14

>  <PUBCHEM_EFFECTIVE_ROTOR_COUNT>  (1) 
10

>  <PUBCHEM_PHARMACOPHORE_FEATURES>  (1) 
5
1 1 acceptor
1 2 acceptor
1 3 cation
6 10 11 16 17 18 19 rings
6 15 20 21 22 23 24 rings

>  <PUBCHEM_HEAVY_ATOM_COUNT>  (1) 
24

>  <PUBCHEM_ATOM_DEF_STEREO_COUNT>  (1) 
0

>  <PUBCHEM_ATOM_UDEF_STEREO_COUNT>  (1) 
0

>  <PUBCHEM_BOND_DEF_STEREO_COUNT>  (1) 
0

>  <PUBCHEM_BOND_UDEF_STEREO_COUNT>  (1) 
0

>  <PUBCHEM_ISOTOPIC_ATOM_COUNT>  (1) 
0

>  <PUBCHEM_COMPONENT_COUNT>  (1) 
1

>  <PUBCHEM_CACTVS_TAUTO_COUNT>  (1) 
2

>  <PUBCHEM_CONFORMER_ID>  (1) 
00000CCB00000001

>  <PUBCHEM_MMFF94_ENERGY>  (1) 
65.7911

>  <PUBCHEM_FEATURE_SELFOVERLAP>  (1) 
25.38

>  <PUBCHEM_SHAPE_FINGERPRINT>  (1) 
10165383 225 18115039532467649854
10937287 8 18338796835530321410
11059845 2 18050260847525005696
12107183 9 18189316031634195704
12390115 104 18265065797679703782
12788726 201 17762327415803988230
13533116 47 18044666304555059691
13583140 156 17972593278504452551
13590594 115 17905891375266518510
13878862 14 18119228594418088013
13955234 65 18262519161362685635
14251764 75 18338805627117996865
146900 427 18340775836660078971
14848178 96 18412545426722517085
14849402 71 18336550413348220930
14955137 171 18118679916636235706
15142526 21 18341046414756179081
15475509 84 17109598571398658336
17868525 174 17759800347320391329
18785283 64 18261951843279551778
1979834 28 17967824833729203677
21049683 118 18264187261982404250
21591340 35 18271808995351196208
22122407 14 18055366734584673793
23558518 356 18266737076655362142
23559900 14 17242187747185942231
23845131 108 18261112997644208875
245318 6 18337684103978073037
283562 15 18048591822479717023
3178227 256 18262245408979519266
38570 142 18341909488634809716
474 4 18410573976804226773
5486654 36 8824371353768935586
56616090 278 18339934696884459310
57124632 79 18335410240911534988
57527573 199 17773009030251174776
57527585 21 17621598749812225092
6034566 193 18044950209766361837
7288768 16 18197484328405869792
9777508 108 18263089983653667163
9849439 229 18267579298504699632

>  <PUBCHEM_SHAPE_MULTIPOLES>  (1) 
477.19
12.31
5.98
1.56
16.25
3.81
0.38
-16.03
2.14
-8.59
2.05
-0.36
-0.91
-0.58

>  <PUBCHEM_SHAPE_SELFOVERLAP>  (1) 
985.243

>  <PUBCHEM_SHAPE_VOLUME>  (1) 
274.5

>  <PUBCHEM_COORDINATE_TYPE>  (1) 
2
5
10

$$$$
