32756
     RDKit          3D

 31 32  0  0  1  0  0  0  0  0999 V2000
    0.2237   -3.1235   -1.2225 S   0  0  0  0  0  0  0  0  0  0  0  0
   -0.0135    0.4289    0.5124 O   0  0  0  0  0  0  0  0  0  0  0  0
   -2.4799   -0.3143    2.0575 O   0  0  0  0  0  0  0  0  0  0  0  0
    1.8098    0.7074   -0.9763 O   0  0  0  0  0  0  0  0  0  0  0  0
   -0.1254   -2.4194    0.2139 O   0  0  0  0  0  0  0  0  0  0  0  0
   -4.0459    1.2799    1.3601 O   0  0  0  0  0  0  0  0  0  0  0  0
    1.6216    3.5815   -0.2896 O   0  0  0  0  0  0  0  0  0  0  0  0
    1.9116    1.3395    2.5461 O   0  0  0  0  0  0  0  0  0  0  0  0
    4.1378    2.2277   -0.2037 O   0  0  0  0  0  0  0  0  0  0  0  0
   -1.3778   -1.6594    4.1285 O   0  0  0  0  0  0  0  0  0  0  0  0
   -3.8930    2.7691   -1.3330 O   0  0  0  0  0  0  0  0  0  0  0  0
    5.0282   -0.4736   -0.4695 O   0  0  0  0  0  0  0  0  0  0  0  0
    3.4276   -0.9532   -2.0324 O   0  0  0  0  0  0  0  0  0  0  0  0
    0.3624   -2.0069   -2.1563 O   0  0  0  0  0  0  0  0  0  0  0  0
    1.4588   -3.8668   -0.9782 O   0  0  0  0  0  0  0  0  0  0  0  0
   -0.9426   -3.9692   -1.4723 O   0  0  0  0  0  0  0  0  0  0  0  0
   -3.0120    0.6171   -1.4344 N   0  0  0  0  0  0  0  0  0  0  0  0
   -1.0350   -0.2271   -0.2429 C   0  0  0  0  0  0  0  0  0  0  0  0
   -1.2945   -1.6205    0.3330 C   0  0  0  0  0  0  0  0  0  0  0  0
   -2.3077    0.6330   -0.1697 C   0  0  0  0  0  0  0  0  0  0  0  0
   -1.8222   -1.5600    1.7816 C   0  0  0  0  0  0  0  0  0  0  0  0
   -3.2480    0.1683    0.9582 C   0  0  0  0  0  0  0  0  0  0  0  0
    0.7232    1.3429   -0.2945 C   0  0  0  0  0  0  0  0  0  0  0  0
    1.2135    2.5158    0.5664 C   0  0  0  0  0  0  0  0  0  0  0  0
    2.3972    2.1328    1.4660 C   0  0  0  0  0  0  0  0  0  0  0  0
    3.4641    1.3460    0.6942 C   0  0  0  0  0  0  0  0  0  0  0  0
    2.8130    0.2133   -0.0948 C   0  0  0  0  0  0  0  0  0  0  0  0
   -0.7575   -1.7489    2.8582 C   0  0  0  0  0  0  0  0  0  0  0  0
   -3.7448    1.6921   -1.9043 C   0  0  0  0  0  0  0  0  0  0  0  0
    3.8602   -0.4713   -0.9480 C   0  0  0  0  0  0  0  0  0  0  0  0
   -4.3529    1.4187   -3.2538 C   0  0  0  0  0  0  0  0  0  0  0  0
  1  5  1  0
  1 14  1  0
  1 15  2  0
  1 16  2  0
  2 18  1  0
  2 23  1  0
  3 21  1  0
  3 22  1  0
  4 23  1  0
  4 27  1  0
  5 19  1  0
  6 22  1  0
  7 24  1  0
  8 25  1  0
  9 26  1  0
 10 28  1  0
 11 29  2  0
 12 30  1  0
 13 30  2  0
 17 20  1  0
 17 29  1  0
 18 19  1  0
 18 20  1  0
 19 21  1  0
 20 22  1  0
 21 28  1  0
 23 24  1  0
 24 25  1  0
 25 26  1  0
 26 27  1  0
 27 30  1  0
 29 31  1  0
M  CHG  2  12  -1  14  -1
M  END
>  <PUBCHEM_COMPOUND_CID>  (1) 
32756

>  <PUBCHEM_CONFORMER_RMSD>  (1) 
1

>  <PUBCHEM_CONFORMER_DIVERSEORDER>  (1) 
1
43
35
66
37
27
56
16
51
22
23
34
13
26
6
55
49
46
5
29
61
65
30
14
12
24
67
28
38
54
20
58
63
18
57
11
47
9
31
4
50
53
44
2
39
15
59
21
60
17
41
48
36
32
33
10
52
19
40
64
7
42
8
3
62
25
45

>  <PUBCHEM_MMFF94_PARTIAL_CHARGES>  (1) 
37
1 1.63
10 -0.68
11 -0.57
12 -0.9
13 -0.9
14 -0.82
15 -0.82
16 -0.82
17 -0.73
18 0.28
19 0.28
2 -0.56
20 0.3
21 0.28
22 0.56
23 0.56
24 0.28
25 0.28
26 0.28
27 0.17
28 0.28
29 0.57
3 -0.56
30 0.91
31 0.06
4 -0.56
42 0.37
45 0.4
46 0.4
47 0.4
48 0.4
49 0.4
5 -0.46
6 -0.68
7 -0.68
8 -0.68
9 -0.68

>  <PUBCHEM_EFFECTIVE_ROTOR_COUNT>  (1) 
10.4

>  <PUBCHEM_PHARMACOPHORE_FEATURES>  (1) 
24
1 10 acceptor
1 10 donor
1 11 acceptor
1 12 acceptor
1 13 acceptor
1 14 acceptor
1 15 acceptor
1 16 acceptor
1 17 donor
1 2 acceptor
1 3 acceptor
1 4 acceptor
1 6 acceptor
1 6 donor
1 7 acceptor
1 7 donor
1 8 acceptor
1 8 donor
1 9 acceptor
1 9 donor
3 12 13 30 anion
4 1 14 15 16 anion
6 3 18 19 20 21 22 rings
6 4 23 24 25 26 27 rings

>  <PUBCHEM_HEAVY_ATOM_COUNT>  (1) 
31

>  <PUBCHEM_ATOM_DEF_STEREO_COUNT>  (1) 
10

>  <PUBCHEM_ATOM_UDEF_STEREO_COUNT>  (1) 
0

>  <PUBCHEM_BOND_DEF_STEREO_COUNT>  (1) 
0

>  <PUBCHEM_BOND_UDEF_STEREO_COUNT>  (1) 
0

>  <PUBCHEM_ISOTOPIC_ATOM_COUNT>  (1) 
0

>  <PUBCHEM_COMPONENT_COUNT>  (1) 
1

>  <PUBCHEM_CACTVS_TAUTO_COUNT>  (1) 
2

>  <PUBCHEM_CONFORMER_ID>  (1) 
00007FF400000001

>  <PUBCHEM_MMFF94_ENERGY>  (1) 
84.6846

>  <PUBCHEM_FEATURE_SELFOVERLAP>  (1) 
122.07

>  <PUBCHEM_SHAPE_FINGERPRINT>  (1) 
10764073 3 12835062486703156477
107951 10 17748827384452113962
11582403 64 17897699060162109831
11725454 13 18187359896667728615
12156800 1 16618637333593437635
12422481 6 18050028841807614739
12655364 131 17417227920022399698
12788726 201 17537976440701489127
14251764 3 18335695066236926525
16752209 62 17385997412441313881
18219364 16 18270977811551938554
23419403 2 17901129437761946431
23559900 14 18333448721517269876
238 59 18271237223128578263
469060 322 16753522314738212081
57527295 17 18051975822937484173
59755656 215 18334859390518984525
81228 2 17762898071118467307

>  <PUBCHEM_SHAPE_MULTIPOLES>  (1) 
548.79
7.36
4.06
3.04
0.89
2.07
-1.63
-5.33
3.26
0.1
1.3
-2.36
1.33
2.88

>  <PUBCHEM_SHAPE_SELFOVERLAP>  (1) 
1126.656

>  <PUBCHEM_SHAPE_VOLUME>  (1) 
314.2

>  <PUBCHEM_COORDINATE_TYPE>  (1) 
2
5
10

$$$$
