32763
     RDKit          3D

 32 35  0  0  1  0  0  0  0  0999 V2000
   -0.3888    1.0369   -2.8998 O   0  0  0  0  0  0  0  0  0  0  0  0
    2.7745    0.8204    0.3094 O   0  0  0  0  0  0  0  0  0  0  0  0
   -4.9304   -1.9949   -1.7912 O   0  0  0  0  0  0  0  0  0  0  0  0
    6.0154   -0.1997   -0.6521 O   0  0  0  0  0  0  0  0  0  0  0  0
    4.7658    1.9694    0.2570 O   0  0  0  0  0  0  0  0  0  0  0  0
    4.5018   -2.6378   -1.0117 O   0  0  0  0  0  0  0  0  0  0  0  0
   -1.6209    0.9533    0.0348 N   0  0  0  0  0  0  0  0  0  0  0  0
   -5.5414   -0.9146    1.0870 N   0  0  0  0  0  0  0  0  0  0  0  0
   -0.1509    1.1086   -0.4948 C   0  0  0  0  0  0  0  0  0  0  0  0
   -2.5229    1.6628   -0.9776 C   0  0  0  0  0  0  0  0  0  0  0  0
   -0.2991    1.9215   -1.7854 C   0  0  0  0  0  0  0  0  0  0  0  0
   -1.5878    1.6719    1.4037 C   0  0  0  0  0  0  0  0  0  0  0  0
   -1.6098    2.6754   -1.6405 C   0  0  0  0  0  0  0  0  0  0  0  0
   -2.0161   -0.5006    0.1919 C   0  0  0  0  0  0  0  0  0  0  0  0
    0.6103    1.8010    0.6003 C   0  0  0  0  0  0  0  0  0  0  0  0
   -0.1799    2.1012    1.6363 C   0  0  0  0  0  0  0  0  0  0  0  0
   -3.3641   -0.6762    0.8021 C   0  0  0  0  0  0  0  0  0  0  0  0
    2.0719    2.0525    0.4998 C   0  0  0  0  0  0  0  0  0  0  0  0
   -4.5649   -0.7564    0.1485 C   0  0  0  0  0  0  0  0  0  0  0  0
   -3.6651   -0.7934    2.1955 C   0  0  0  0  0  0  0  0  0  0  0  0
   -5.1401   -0.7190   -1.2095 C   0  0  0  0  0  0  0  0  0  0  0  0
   -6.8733   -1.0037    0.5209 C   0  0  0  0  0  0  0  0  0  0  0  0
   -6.6451   -0.4908   -0.9163 C   0  0  0  0  0  0  0  0  0  0  0  0
   -5.0369   -0.9382    2.3364 C   0  0  0  0  0  0  0  0  0  0  0  0
    4.1307    0.9225    0.2023 C   0  0  0  0  0  0  0  0  0  0  0  0
    4.7663   -0.4598    0.0092 C   0  0  0  0  0  0  0  0  0  0  0  0
    5.1233   -1.1266    1.3717 C   0  0  0  0  0  0  0  0  0  0  0  0
    3.9040   -1.3379   -0.9334 C   0  0  0  0  0  0  0  0  0  0  0  0
    6.2081   -0.3547    2.1414 C   0  0  0  0  0  0  0  0  0  0  0  0
    3.9296   -1.3767    2.2981 C   0  0  0  0  0  0  0  0  0  0  0  0
    3.7901   -0.7986   -2.3573 C   0  0  0  0  0  0  0  0  0  0  0  0
    3.5456   -3.6177   -1.3767 C   0  0  0  0  0  0  0  0  0  0  0  0
  1 11  1  0
  2 18  1  0
  2 25  1  0
  3 21  1  0
  4 26  1  0
  5 25  2  0
  6 28  1  0
  6 32  1  0
  7  9  1  0
  7 10  1  0
  7 12  1  0
  7 14  1  0
  8 19  1  0
  8 22  1  0
  8 24  1  0
  9 11  1  0
  9 15  1  0
 10 13  1  0
 11 13  1  0
 12 16  1  0
 14 17  1  0
 15 16  2  0
 15 18  1  0
 17 19  2  0
 17 20  1  0
 19 21  1  0
 20 24  2  0
 21 23  1  0
 22 23  1  0
 25 26  1  0
 26 27  1  0
 26 28  1  0
 27 29  1  0
 27 30  1  0
 28 31  1  0
M  CHG  1   7   1
M  END
>  <PUBCHEM_COMPOUND_CID>  (1) 
32763

>  <PUBCHEM_CONFORMER_RMSD>  (1) 
1.8

>  <PUBCHEM_CONFORMER_DIVERSEORDER>  (1) 
1
31
5
71
41
20
64
61
63
43
53
66
4
7
33
6
70
51
37
60
35
17
44
27
16
23
47
72
38
34
62
2
52
58
11
12
32
57
30
3
55
40
14
50
49
46
54
67
22
15
45
8
18
36
56
65
21
9
42
13
68
39
10
48
19
26
59
29
69
28
24
25

>  <PUBCHEM_MMFF94_PARTIAL_CHARGES>  (1) 
32
1 -0.68
10 0.5
11 0.28
12 0.64
14 0.68
15 -0.28
16 -0.29
17 -0.18
18 0.42
19 -0.33
2 -0.43
20 -0.15
21 0.46
22 0.26
24 -0.3
25 0.66
26 0.34
28 0.28
3 -0.68
32 0.28
4 -0.68
43 0.15
46 0.4
47 0.15
5 -0.57
53 0.15
54 0.4
6 -0.56
63 0.4
7 -1.01
8 0.05
9 0.64

>  <PUBCHEM_EFFECTIVE_ROTOR_COUNT>  (1) 
10.4

>  <PUBCHEM_PHARMACOPHORE_FEATURES>  (1) 
15
1 1 acceptor
1 1 donor
1 3 acceptor
1 3 donor
1 4 acceptor
1 4 donor
1 5 acceptor
1 6 acceptor
1 7 cation
1 8 cation
3 27 29 30 hydrophobe
5 7 9 10 11 13 rings
5 7 9 12 15 16 rings
5 8 17 19 20 24 rings
5 8 19 21 22 23 rings

>  <PUBCHEM_HEAVY_ATOM_COUNT>  (1) 
32

>  <PUBCHEM_ATOM_DEF_STEREO_COUNT>  (1) 
1

>  <PUBCHEM_ATOM_UDEF_STEREO_COUNT>  (1) 
5

>  <PUBCHEM_BOND_DEF_STEREO_COUNT>  (1) 
0

>  <PUBCHEM_BOND_UDEF_STEREO_COUNT>  (1) 
0

>  <PUBCHEM_ISOTOPIC_ATOM_COUNT>  (1) 
0

>  <PUBCHEM_COMPONENT_COUNT>  (1) 
1

>  <PUBCHEM_CACTVS_TAUTO_COUNT>  (1) 
1

>  <PUBCHEM_CONFORMER_ID>  (1) 
00007FFB00000001

>  <PUBCHEM_MMFF94_ENERGY>  (1) 
80.9938

>  <PUBCHEM_FEATURE_SELFOVERLAP>  (1) 
76.879

>  <PUBCHEM_SHAPE_FINGERPRINT>  (1) 
10 15 13973682862114850857
11796584 16 18186522137489754683
11991303 11 17975708194873030205
12422481 6 15984556494290522701
12596602 18 16056881346889584690
12633257 1 17988364874571054461
12760667 363 18335132090350158193
12839892 36 15841280311201909661
13533116 47 17989491835308374162
13544653 18 18341058479498836797
13782708 43 18408597063255311393
14840074 17 18411140264042592159
14950920 106 16988004860505094898
15082195 135 16588033428857888556
15183329 4 17385439917112117769
15238133 3 11815887934905512630
15475509 8 17385719180534443141
15510800 12 18334582317272628482
15664445 248 17531534294764055500
16992727 255 15719940338343197517
1813 80 18187941598200463925
19958102 18 16805589357575339259
20567600 75 18410011044468758509
21033650 10 14563078179361524285
21315764 119 16370996374068594715
21458453 9 12462991286695799263
23559900 14 17531524412202536521
2838139 119 8142091931217828035
3459 39 13038908781312266641
439807 62 17675920976153851098
5104073 3 17345475882167577738
86090 222 18410584980527127690

>  <PUBCHEM_SHAPE_MULTIPOLES>  (1) 
613.37
16.57
2.85
2.48
4.14
0.04
-0.19
10.97
2
-1.62
-0.96
-0.46
0.52
1.37

>  <PUBCHEM_SHAPE_SELFOVERLAP>  (1) 
1293.003

>  <PUBCHEM_SHAPE_VOLUME>  (1) 
347.9

>  <PUBCHEM_COORDINATE_TYPE>  (1) 
2
5
10

$$$$
