32769
     RDKit          3D

 19 19  0  0  1  0  0  0  0  0999 V2000
   -8.4498    0.0950   -0.3275 Cl  0  0  0  0  0  0  0  0  0  0  0  0
    0.4765    0.3376    1.4590 O   0  0  0  0  0  0  0  0  0  0  0  0
   -1.9695    0.1121    0.2009 N   0  0  0  0  0  0  0  0  0  0  0  0
    1.5187    0.3106   -0.6447 N   0  0  0  0  0  0  0  0  0  0  0  0
   -3.2246    0.3993   -0.4835 C   0  0  0  0  0  0  0  0  0  0  0  0
   -4.4061   -0.1158    0.3369 C   0  0  0  0  0  0  0  0  0  0  0  0
   -0.8394    0.6838   -0.5335 C   0  0  0  0  0  0  0  0  0  0  0  0
   -5.7364    0.1944   -0.3533 C   0  0  0  0  0  0  0  0  0  0  0  0
   -1.7903   -1.3316    0.3645 C   0  0  0  0  0  0  0  0  0  0  0  0
    0.4448    0.4268    0.2357 C   0  0  0  0  0  0  0  0  0  0  0  0
    2.8761    0.0709   -0.3240 C   0  0  0  0  0  0  0  0  0  0  0  0
   -6.9138   -0.2886    0.4831 C   0  0  0  0  0  0  0  0  0  0  0  0
    3.7218    1.1457   -0.0926 C   0  0  0  0  0  0  0  0  0  0  0  0
    3.3379   -1.2347   -0.2475 C   0  0  0  0  0  0  0  0  0  0  0  0
    5.0599    0.9095    0.2223 C   0  0  0  0  0  0  0  0  0  0  0  0
    4.6761   -1.4708    0.0675 C   0  0  0  0  0  0  0  0  0  0  0  0
    3.2406    2.5584   -0.1718 C   0  0  0  0  0  0  0  0  0  0  0  0
    2.4403   -2.4039   -0.4938 C   0  0  0  0  0  0  0  0  0  0  0  0
    5.5371   -0.3987    0.3024 C   0  0  0  0  0  0  0  0  0  0  0  0
  1 12  1  0
  2 10  2  0
  3  5  1  0
  3  7  1  0
  3  9  1  0
  4 10  1  0
  4 11  1  0
  5  6  1  0
  6  8  1  0
  7 10  1  0
  8 12  1  0
 11 13  2  0
 11 14  1  0
 13 15  1  0
 13 17  1  0
 14 16  2  0
 14 18  1  0
 15 19  2  0
 16 19  1  0
M  END
>  <PUBCHEM_COMPOUND_CID>  (1) 
32769

>  <PUBCHEM_CONFORMER_RMSD>  (1) 
0.8

>  <PUBCHEM_CONFORMER_DIVERSEORDER>  (1) 
5
58
35
63
62
64
32
42
57
11
44
70
45
30
53
21
9
60
28
47
72
54
34
14
52
61
15
33
19
66
27
65
17
46
31
67
68
55
24
69
43
51
6
56
20
59
71
50
41
38
10
49
48
16
36
3
39
1
26
8
12
18
7
4
2
37
23
40
13
29
22
25

>  <PUBCHEM_MMFF94_PARTIAL_CHARGES>  (1) 
21
1 -0.29
10 0.57
11 0.12
12 0.29
13 -0.14
14 -0.14
15 -0.15
16 -0.15
17 0.14
18 0.14
19 -0.15
2 -0.57
3 -0.81
33 0.37
34 0.15
35 0.15
4 -0.55
42 0.15
5 0.27
7 0.33
9 0.27

>  <PUBCHEM_EFFECTIVE_ROTOR_COUNT>  (1) 
8

>  <PUBCHEM_PHARMACOPHORE_FEATURES>  (1) 
4
1 2 acceptor
1 3 cation
1 4 donor
6 11 13 14 15 16 19 rings

>  <PUBCHEM_HEAVY_ATOM_COUNT>  (1) 
19

>  <PUBCHEM_ATOM_DEF_STEREO_COUNT>  (1) 
0

>  <PUBCHEM_ATOM_UDEF_STEREO_COUNT>  (1) 
0

>  <PUBCHEM_BOND_DEF_STEREO_COUNT>  (1) 
0

>  <PUBCHEM_BOND_UDEF_STEREO_COUNT>  (1) 
0

>  <PUBCHEM_ISOTOPIC_ATOM_COUNT>  (1) 
0

>  <PUBCHEM_COMPONENT_COUNT>  (1) 
1

>  <PUBCHEM_CACTVS_TAUTO_COUNT>  (1) 
2

>  <PUBCHEM_CONFORMER_ID>  (1) 
0000800100000005

>  <PUBCHEM_MMFF94_ENERGY>  (1) 
64.838

>  <PUBCHEM_FEATURE_SELFOVERLAP>  (1) 
20.297

>  <PUBCHEM_SHAPE_FINGERPRINT>  (1) 
10411042 1 18123189005748391646
11287383 113 18333733541576795121
12107183 9 17480029596573784211
12236239 1 17561083596492272831
12916748 109 17822009796349858453
13073987 5 18271808965354749529
13167372 99 18272094855632122321
13533116 47 18130788927769398170
13836976 161 18342742927392045678
14170010 4 18409166623501271180
1420 363 17531249461428321993
14251764 18 17847063281712583553
14251764 46 18412262831360403946
15183329 4 18341898476718418465
16120349 18 18341326769506346901
17492 89 17913213065955777974
17834072 33 18343581863063751175
17834076 25 14405185067059924245
17844677 252 18409454657199251413
19141452 34 18334295409283256663
19427546 62 18337111297342972310
200 152 18201999906918334488
20157964 124 18413109463576639631
20645477 70 18411983520852298230
21267235 1 18342179917462140726
21623969 137 18412271636006976747
220451 1 17847061099732144847
22224240 67 18271517676747071530
23402539 116 18412258446151380805
23536379 177 18413389822188926945
23557571 272 16950561039270539999
23559900 14 18337952393351924000
335352 9 18411141334011610310
33824 294 18409448060245438222
3545911 37 18409449197973590588
4073 2 17968663833872904659
42630746 31 18342178856141105390
4340502 62 18413106173431549118
59755656 215 17386002845701563379
8272917 22 18343305859922926654

>  <PUBCHEM_SHAPE_MULTIPOLES>  (1) 
377.05
18.35
1.76
0.81
38.31
0.07
0.09
0.21
-0.02
-3.07
-0.19
0.11
0
0.32

>  <PUBCHEM_SHAPE_SELFOVERLAP>  (1) 
745.1

>  <PUBCHEM_SHAPE_VOLUME>  (1) 
227.6

>  <PUBCHEM_COORDINATE_TYPE>  (1) 
2
5
10

$$$$
