32760
     RDKit          3D

 11 10  0  0  0  0  0  0  0  0999 V2000
    0.3893    1.8592   -0.7345 O   0  0  0  0  0  0  0  0  0  0  0  0
   -3.1247   -0.5145    0.1130 O   0  0  0  0  0  0  0  0  0  0  0  0
    2.6694    0.2699    0.5274 C   0  0  0  0  0  0  0  0  0  0  0  0
    1.4538    0.8998    1.2079 C   0  0  0  0  0  0  0  0  0  0  0  0
    2.3445   -1.0836   -0.1091 C   0  0  0  0  0  0  0  0  0  0  0  0
    0.2907    1.1466    0.2602 C   0  0  0  0  0  0  0  0  0  0  0  0
    3.5672   -1.6886   -0.7813 C   0  0  0  0  0  0  0  0  0  0  0  0
   -0.9997    0.4954    0.6392 C   0  0  0  0  0  0  0  0  0  0  0  0
   -1.9333    0.0844   -0.2358 C   0  0  0  0  0  0  0  0  0  0  0  0
   -1.7622    0.2454   -1.7142 C   0  0  0  0  0  0  0  0  0  0  0  0
   -2.8951   -1.7139    0.8272 C   0  0  0  0  0  0  0  0  0  0  0  0
  1  6  2  0
  2  9  1  0
  2 11  1  0
  3  4  1  0
  3  5  1  0
  4  6  1  0
  5  7  1  0
  6  8  1  0
  8  9  2  0
  9 10  1  0
M  END
>  <PUBCHEM_COMPOUND_CID>  (1) 
32760

>  <PUBCHEM_CONFORMER_RMSD>  (1) 
0.6

>  <PUBCHEM_CONFORMER_DIVERSEORDER>  (1) 
3
117
141
42
111
124
109
102
4
135
86
131
64
35
127
142
47
13
41
84
21
130
38
126
133
97
52
137
121
123
125
70
31
143
88
104
67
79
106
132
77
110
87
23
91
54
76
108
18
81
63
75
83
39
20
71
16
58
119
8
65
129
78
29
59
68
136
17
90
101
12
139
82
140
2
56
60
55
134
116
80
113
89
66
85
40
107
95
61
25
43
11
48
1
138
62
96
36
93
53
49
128
51
94
74
103
19
26
100
115
69
72
114
120
33
15
122
45
73
50
7
24
118
46
6
57
98
34
32
105
44
28
92
10
30
14
9
112
37
5
99
27
22

>  <PUBCHEM_MMFF94_PARTIAL_CHARGES>  (1) 
9
1 -0.57
10 0.14
11 0.28
2 -0.36
21 0.15
4 0.06
6 0.49
8 -0.14
9 -0.06

>  <PUBCHEM_EFFECTIVE_ROTOR_COUNT>  (1) 
5

>  <PUBCHEM_PHARMACOPHORE_FEATURES>  (1) 
3
1 1 acceptor
1 2 acceptor
1 7 hydrophobe

>  <PUBCHEM_HEAVY_ATOM_COUNT>  (1) 
11

>  <PUBCHEM_ATOM_DEF_STEREO_COUNT>  (1) 
0

>  <PUBCHEM_ATOM_UDEF_STEREO_COUNT>  (1) 
0

>  <PUBCHEM_BOND_DEF_STEREO_COUNT>  (1) 
0

>  <PUBCHEM_BOND_UDEF_STEREO_COUNT>  (1) 
1

>  <PUBCHEM_ISOTOPIC_ATOM_COUNT>  (1) 
0

>  <PUBCHEM_COMPONENT_COUNT>  (1) 
1

>  <PUBCHEM_CACTVS_TAUTO_COUNT>  (1) 
5

>  <PUBCHEM_CONFORMER_ID>  (1) 
00007FF800000003

>  <PUBCHEM_MMFF94_ENERGY>  (1) 
19.7865

>  <PUBCHEM_FEATURE_SELFOVERLAP>  (1) 
15.223

>  <PUBCHEM_SHAPE_FINGERPRINT>  (1) 
10149128 76 8070021160383863698
11127187 94 18114180770314126095
12932764 1 17203603839019128968
14390081 3 10015596012149862491
14577589 140 17774719732271783637
19766037 51 18341909462833610326
20201158 50 18408599288038165770
20645477 70 18201987837691065383
20653085 51 13624375573123973908
20711983 138 18341051835057680091
20711985 344 18048865308690130256
20871998 22 18409168835108560088
20871999 31 17967819318669032591
230 275 11599737197946054417
23557571 272 17749381594273792508
449060 23 18040996306060168059
81228 2 18124576618437929040

>  <PUBCHEM_SHAPE_MULTIPOLES>  (1) 
214.64
5.47
1.76
1.26
1.14
0.29
0.32
3.63
0.04
0.58
-0.03
-0.43
-0.06
1.03

>  <PUBCHEM_SHAPE_SELFOVERLAP>  (1) 
398.94

>  <PUBCHEM_SHAPE_VOLUME>  (1) 
135.2

>  <PUBCHEM_COORDINATE_TYPE>  (1) 
2
5
10

$$$$
