32774
     RDKit          3D

 17 17  0  0  0  0  0  0  0  0999 V2000
   -0.6134   -1.8705   -1.3928 O   0  0  0  0  0  0  0  0  0  0  0  0
   -0.9132    0.1442   -0.2438 N   0  0  0  0  0  0  0  0  0  0  0  0
   -0.3761    1.1979    0.6242 C   0  0  0  0  0  0  0  0  0  0  0  0
   -2.2835    0.3062   -0.6663 C   0  0  0  0  0  0  0  0  0  0  0  0
    0.2632    2.3085   -0.2049 C   0  0  0  0  0  0  0  0  0  0  0  0
   -3.2374   -0.3544    0.3252 C   0  0  0  0  0  0  0  0  0  0  0  0
    0.8803    3.4102    0.6606 C   0  0  0  0  0  0  0  0  0  0  0  0
   -4.7026   -0.2489   -0.1056 C   0  0  0  0  0  0  0  0  0  0  0  0
   -0.1794   -0.9771   -0.6664 C   0  0  0  0  0  0  0  0  0  0  0  0
    1.2217   -1.1100   -0.2370 C   0  0  0  0  0  0  0  0  0  0  0  0
    1.5658    4.4671   -0.1916 C   0  0  0  0  0  0  0  0  0  0  0  0
   -5.6208   -0.9723    0.8673 C   0  0  0  0  0  0  0  0  0  0  0  0
    1.5109   -1.7762    0.9438 C   0  0  0  0  0  0  0  0  0  0  0  0
    2.2279   -0.5671   -1.0212 C   0  0  0  0  0  0  0  0  0  0  0  0
    2.8390   -1.9026    1.3508 C   0  0  0  0  0  0  0  0  0  0  0  0
    3.5561   -0.6935   -0.6142 C   0  0  0  0  0  0  0  0  0  0  0  0
    3.8616   -1.3614    0.5718 C   0  0  0  0  0  0  0  0  0  0  0  0
  1  9  2  0
  2  3  1  0
  2  4  1  0
  2  9  1  0
  3  5  1  0
  4  6  1  0
  5  7  1  0
  6  8  1  0
  7 11  1  0
  8 12  1  0
  9 10  1  0
 10 13  2  0
 10 14  1  0
 13 15  1  0
 14 16  2  0
 15 17  2  0
 16 17  1  0
M  END
>  <PUBCHEM_COMPOUND_CID>  (1) 
32774

>  <PUBCHEM_CONFORMER_RMSD>  (1) 
0.8

>  <PUBCHEM_CONFORMER_DIVERSEORDER>  (1) 
1
63
29
8
18
5
51
10
47
43
20
6
35
31
3
37
44
57
13
22
32
46
33
60
17
56
12
15
34
28
24
49
23
59
58
62
54
27
40
9
21
39
53
25
38
61
30
52
14
16
7
48
42
11
55
36
4
19
2
50
45
41
26

>  <PUBCHEM_MMFF94_PARTIAL_CHARGES>  (1) 
16
1 -0.57
10 0.09
13 -0.15
14 -0.15
15 -0.15
16 -0.15
17 -0.15
2 -0.66
3 0.3
36 0.15
37 0.15
38 0.15
39 0.15
4 0.3
40 0.15
9 0.54

>  <PUBCHEM_EFFECTIVE_ROTOR_COUNT>  (1) 
8

>  <PUBCHEM_PHARMACOPHORE_FEATURES>  (1) 
4
1 1 acceptor
1 11 hydrophobe
1 12 hydrophobe
6 10 13 14 15 16 17 rings

>  <PUBCHEM_HEAVY_ATOM_COUNT>  (1) 
17

>  <PUBCHEM_ATOM_DEF_STEREO_COUNT>  (1) 
0

>  <PUBCHEM_ATOM_UDEF_STEREO_COUNT>  (1) 
0

>  <PUBCHEM_BOND_DEF_STEREO_COUNT>  (1) 
0

>  <PUBCHEM_BOND_UDEF_STEREO_COUNT>  (1) 
0

>  <PUBCHEM_ISOTOPIC_ATOM_COUNT>  (1) 
0

>  <PUBCHEM_COMPONENT_COUNT>  (1) 
1

>  <PUBCHEM_CACTVS_TAUTO_COUNT>  (1) 
1

>  <PUBCHEM_CONFORMER_ID>  (1) 
0000800600000001

>  <PUBCHEM_MMFF94_ENERGY>  (1) 
29.5163

>  <PUBCHEM_FEATURE_SELFOVERLAP>  (1) 
20.297

>  <PUBCHEM_SHAPE_FINGERPRINT>  (1) 
10756046 70 18059849631962521677
107951 10 17543930347832799900
12592029 89 18193557993583917209
12644460 14 18338524161105228281
13140716 1 17908132531951102888
133893 2 17907824595548467101
14252887 29 18130514037215137015
14787075 74 18113903783731408890
15207287 21 13190348924453149354
15375462 189 18334290963971194587
16945 1 17345736513277909110
1813 80 18202006495113252173
18222031 100 18201432558923904415
18785283 64 18117557546706771665
200 152 17894912871510932850
20097449 115 18340200804473426809
20344682 10 18264754494255940146
20369508 70 18335419088844676083
20671657 1 18268993266273393261
21029758 27 18411980234859223925
21041028 32 18342458123657924921
23366157 5 18117833524182982597
23402539 116 18130211658664070198
23419403 2 18042943476486104165
23557571 272 17981600472899768820
23558518 356 17474106982559167140
23559900 14 17531530988007963263
25147074 1 17843957281528547927
2748010 2 18126541480150024424
31174 14 18335134328049257101
57672749 33 18411415137454024209
7364860 26 18269838773377197065
7495541 125 18260835929667453435
81228 2 17766844931331074217
90316 7 18195241113994315624
9841814 1 18410298016681523385
9999458 23 18191309483762581981

>  <PUBCHEM_SHAPE_MULTIPOLES>  (1) 
339
7.78
3.87
1.13
11.48
7
-0.01
-5.04
-1.7
-3.53
-0.57
-0.32
-0.46
-0.27

>  <PUBCHEM_SHAPE_SELFOVERLAP>  (1) 
670.759

>  <PUBCHEM_SHAPE_VOLUME>  (1) 
202.4

>  <PUBCHEM_COORDINATE_TYPE>  (1) 
2
5
10

$$$$
