32779
     RDKit          3D

 19 19  0  0  0  0  0  0  0  0999 V2000
    0.8271   -2.0106   -2.0623 Cl  0  0  0  0  0  0  0  0  0  0  0  0
    4.1511    1.7206    1.6802 Cl  0  0  0  0  0  0  0  0  0  0  0  0
    4.9928   -1.3752    1.2488 Cl  0  0  0  0  0  0  0  0  0  0  0  0
   -4.2057   -0.8934    2.2979 Cl  0  0  0  0  0  0  0  0  0  0  0  0
   -4.7782   -1.1466   -0.5367 Cl  0  0  0  0  0  0  0  0  0  0  0  0
   -2.1845   -1.9914    0.5265 Cl  0  0  0  0  0  0  0  0  0  0  0  0
    0.2946    0.8882   -1.4702 O   0  0  0  0  0  0  0  0  0  0  0  0
   -2.4082    0.6595   -0.8464 O   0  0  0  0  0  0  0  0  0  0  0  0
   -2.9844    1.4928    1.2157 O   0  0  0  0  0  0  0  0  0  0  0  0
   -0.3885    1.9438   -0.7981 C   0  0  0  0  0  0  0  0  0  0  0  0
   -1.8512    1.9203   -1.1980 C   0  0  0  0  0  0  0  0  0  0  0  0
    1.3818    0.3565   -0.8427 C   0  0  0  0  0  0  0  0  0  0  0  0
    1.7442   -0.9776   -1.0287 C   0  0  0  0  0  0  0  0  0  0  0  0
    2.1375    1.1739   -0.0023 C   0  0  0  0  0  0  0  0  0  0  0  0
    3.2558    0.6571    0.6522 C   0  0  0  0  0  0  0  0  0  0  0  0
    2.8622   -1.4943   -0.3741 C   0  0  0  0  0  0  0  0  0  0  0  0
    3.6181   -0.6770    0.4662 C   0  0  0  0  0  0  0  0  0  0  0  0
   -2.9547    0.5697    0.4100 C   0  0  0  0  0  0  0  0  0  0  0  0
   -3.5097   -0.8165    0.6620 C   0  0  0  0  0  0  0  0  0  0  0  0
  1 13  1  0
  2 15  1  0
  3 17  1  0
  4 19  1  0
  5 19  1  0
  6 19  1  0
  7 10  1  0
  7 12  1  0
  8 11  1  0
  8 18  1  0
  9 18  2  0
 10 11  1  0
 12 13  2  0
 12 14  1  0
 13 16  1  0
 14 15  2  0
 15 17  1  0
 16 17  2  0
 18 19  1  0
M  END
>  <PUBCHEM_COMPOUND_CID>  (1) 
32779

>  <PUBCHEM_CONFORMER_RMSD>  (1) 
0.8

>  <PUBCHEM_CONFORMER_DIVERSEORDER>  (1) 
5
12
22
1
79
152
54
142
132
134
104
156
153
124
106
121
20
93
171
131
166
83
59
164
89
27
46
67
60
75
157
38
40
53
112
99
57
115
100
77
4
95
159
103
111
21
167
33
58
116
45
65
43
123
133
101
24
94
42
128
9
139
107
160
3
178
2
48
125
126
158
148
163
63
80
174
56
28
88
29
87
118
168
140
50
14
165
119
55
31
137
8
74
154
122
179
32
175
150
161
145
138
70
47
44
10
35
180
141
49
155
36
18
19
26
170
61
120
136
72
129
177
127
135
37
109
172
71
110
97
90
69
17
149
64
66
96
15
173
86
108
130
98
76
23
39
30
13
78
11
7
162
51
73
117
62
169
25
102
85
84
105
81
143
92
41
16
146
6
68
144
91
52
147
113
34
151
176
114
82

>  <PUBCHEM_MMFF94_PARTIAL_CHARGES>  (1) 
21
1 -0.18
10 0.28
11 0.28
12 0.08
13 0.18
14 -0.15
15 0.18
16 -0.15
17 0.18
18 0.66
19 0.93
2 -0.18
24 0.15
25 0.15
3 -0.18
4 -0.29
5 -0.29
6 -0.29
7 -0.36
8 -0.43
9 -0.57

>  <PUBCHEM_EFFECTIVE_ROTOR_COUNT>  (1) 
6

>  <PUBCHEM_PHARMACOPHORE_FEATURES>  (1) 
3
1 7 acceptor
1 9 acceptor
6 12 13 14 15 16 17 rings

>  <PUBCHEM_HEAVY_ATOM_COUNT>  (1) 
19

>  <PUBCHEM_ATOM_DEF_STEREO_COUNT>  (1) 
0

>  <PUBCHEM_ATOM_UDEF_STEREO_COUNT>  (1) 
0

>  <PUBCHEM_BOND_DEF_STEREO_COUNT>  (1) 
0

>  <PUBCHEM_BOND_UDEF_STEREO_COUNT>  (1) 
0

>  <PUBCHEM_ISOTOPIC_ATOM_COUNT>  (1) 
0

>  <PUBCHEM_COMPONENT_COUNT>  (1) 
1

>  <PUBCHEM_CACTVS_TAUTO_COUNT>  (1) 
1

>  <PUBCHEM_CONFORMER_ID>  (1) 
0000800B00000005

>  <PUBCHEM_MMFF94_ENERGY>  (1) 
44.6448

>  <PUBCHEM_FEATURE_SELFOVERLAP>  (1) 
15.223

>  <PUBCHEM_SHAPE_FINGERPRINT>  (1) 
10366900 7 17988087802088796585
11370993 144 18199188395313917720
11370993 70 18060138726032327963
11471102 22 18200867367007948228
11640471 11 15482666832163561581
11796584 16 16370718253566577451
12363563 72 17822020830199885105
12390115 104 17483943141474701400
12553582 1 18190762971123307901
12633257 1 18202288017134435651
13083527 12 17969216918196925685
13583140 156 18263622019027889106
13764800 53 12823293511802571997
14178342 30 18340779121993802541
14341114 328 17060342967451736355
17834072 14 18187920712095886717
20261772 1 18271518792921623558
20626108 58 14852161909342649505
21503847 285 16415216563027102568
21713013 43 13046530660235446865
21756936 100 16772946077428930456
21864079 5 12967134874016964235
22646028 28 17603875519804218995
23557571 272 18187927235866677725
23559900 14 17968370161552946532
23598288 3 15937552337943704557
24859131 72 18410288112276163055
2637199 183 10015323341903574957
2838139 119 12894767265599337162
339767 52 17240192253170524874
49207404 50 18272364287409245240
568465 68 18131063801692331844
602551 16 17967531238586521738
633830 44 16702307870997239580
7064713 232 17846504755085360415
7808743 9 12679169514263657530
9882013 296 18271523190588222277

>  <PUBCHEM_SHAPE_MULTIPOLES>  (1) 
384.62
9.86
2.36
1.9
0.83
0.11
-0.28
-2.31
-5.97
-0.35
0.38
0.47
-0.24
1.05

>  <PUBCHEM_SHAPE_SELFOVERLAP>  (1) 
737.74

>  <PUBCHEM_SHAPE_VOLUME>  (1) 
238.5

>  <PUBCHEM_COORDINATE_TYPE>  (1) 
2
5
10

$$$$
