32782
     RDKit          3D

 12 12  0  0  0  0  0  0  0  0999 V2000
    2.8278    1.3158   -0.4930 O   0  0  0  0  0  0  0  0  0  0  0  0
    2.1587   -0.8401    0.0655 N   0  0  0  0  0  0  0  0  0  0  0  0
   -0.2006   -0.5499   -0.5512 C   0  0  0  0  0  0  0  0  0  0  0  0
    1.1523   -1.0033   -0.9850 C   0  0  0  0  0  0  0  0  0  0  0  0
   -0.5905    0.7739   -0.7533 C   0  0  0  0  0  0  0  0  0  0  0  0
   -1.0756   -1.4495    0.0575 C   0  0  0  0  0  0  0  0  0  0  0  0
   -2.7310    0.2984    0.2614 C   0  0  0  0  0  0  0  0  0  0  0  0
   -1.8558    1.1981   -0.3471 C   0  0  0  0  0  0  0  0  0  0  0  0
   -2.3408   -1.0254    0.4638 C   0  0  0  0  0  0  0  0  0  0  0  0
   -4.0834    0.7519    0.6962 C   0  0  0  0  0  0  0  0  0  0  0  0
    2.8991    0.3089    0.2066 C   0  0  0  0  0  0  0  0  0  0  0  0
    3.8398    0.2211    1.3786 C   0  0  0  0  0  0  0  0  0  0  0  0
  1 11  2  0
  2  4  1  0
  2 11  1  0
  3  4  1  0
  3  5  2  0
  3  6  1  0
  5  8  1  0
  6  9  2  0
  7  8  2  0
  7  9  1  0
  7 10  1  0
 11 12  1  0
M  END
>  <PUBCHEM_COMPOUND_CID>  (1) 
32782

>  <PUBCHEM_CONFORMER_RMSD>  (1) 
0.6

>  <PUBCHEM_CONFORMER_DIVERSEORDER>  (1) 
1
2
6
3
4
5

>  <PUBCHEM_MMFF94_PARTIAL_CHARGES>  (1) 
17
1 -0.57
10 0.14
11 0.57
12 0.06
15 0.15
16 0.15
17 0.15
18 0.15
19 0.37
2 -0.73
3 -0.14
4 0.44
5 -0.15
6 -0.15
7 -0.14
8 -0.15
9 -0.15

>  <PUBCHEM_EFFECTIVE_ROTOR_COUNT>  (1) 
3

>  <PUBCHEM_PHARMACOPHORE_FEATURES>  (1) 
3
1 1 acceptor
1 2 donor
6 3 5 6 7 8 9 rings

>  <PUBCHEM_HEAVY_ATOM_COUNT>  (1) 
12

>  <PUBCHEM_ATOM_DEF_STEREO_COUNT>  (1) 
0

>  <PUBCHEM_ATOM_UDEF_STEREO_COUNT>  (1) 
0

>  <PUBCHEM_BOND_DEF_STEREO_COUNT>  (1) 
0

>  <PUBCHEM_BOND_UDEF_STEREO_COUNT>  (1) 
0

>  <PUBCHEM_ISOTOPIC_ATOM_COUNT>  (1) 
0

>  <PUBCHEM_COMPONENT_COUNT>  (1) 
1

>  <PUBCHEM_CACTVS_TAUTO_COUNT>  (1) 
2

>  <PUBCHEM_CONFORMER_ID>  (1) 
0000800E00000001

>  <PUBCHEM_MMFF94_ENERGY>  (1) 
22.4724

>  <PUBCHEM_FEATURE_SELFOVERLAP>  (1) 
15.223

>  <PUBCHEM_SHAPE_FINGERPRINT>  (1) 
10857977 72 18260838093914044311
11031198 65 17060341794672567246
11127187 94 9367342648010721289
11132069 177 18413106164952065901
11543360 7 15769485465972440221
11769659 78 13912907374628570825
12251169 10 18260263049385393440
12382932 28 18408892857800667049
12696612 119 18261113010613032628
12932764 1 17240480316853849294
13764800 53 18131075960444008322
15775835 57 16845565418312107936
16945 1 18114194003540842783
17846911 113 18341609304706795073
18186145 218 18128828443055601869
20361792 2 14345792742967310582
20528008 55 18411136926910557325
20645464 45 18341896272798997247
20645477 70 11891347468757643849
20653085 51 14836132060744166579
20671657 53 11386360418647592910
20871999 31 12462985758898978325
21293036 1 13039182602493790419
21501925 9 18115037415027556227
22445834 79 17313373483820472306
23402539 116 18261380153716185469
23403322 49 11531024250077672976
27216 239 17771888683346252472
2748010 2 17755029596943445527
369184 2 17676201385873157311
7364860 26 18127694829330142510
8030462 33 11095887081424002974
90316 7 18040425586115672133

>  <PUBCHEM_SHAPE_MULTIPOLES>  (1) 
236.1
6.54
1.39
1.02
1.69
0.13
-0.11
-2.05
-2.71
-0.25
0.13
0.47
-0.05
0.15

>  <PUBCHEM_SHAPE_SELFOVERLAP>  (1) 
479.673

>  <PUBCHEM_SHAPE_VOLUME>  (1) 
138.7

>  <PUBCHEM_COORDINATE_TYPE>  (1) 
2
5
10

$$$$
