32780
     RDKit          3D

 14 14  0  0  0  0  0  0  0  0999 V2000
   -4.6930    1.9087    0.0125 Cl  0  0  0  0  0  0  0  0  0  0  0  0
    2.4553    0.3677   -0.1828 O   0  0  0  0  0  0  0  0  0  0  0  0
    1.3419   -1.6243   -0.0344 O   0  0  0  0  0  0  0  0  0  0  0  0
    0.2046    0.4257   -0.1001 N   0  0  0  0  0  0  0  0  0  0  0  0
   -1.1420    0.0671   -0.0298 C   0  0  0  0  0  0  0  0  0  0  0  0
   -2.1289    1.0527   -0.0429 C   0  0  0  0  0  0  0  0  0  0  0  0
   -1.5008   -1.2782    0.0551 C   0  0  0  0  0  0  0  0  0  0  0  0
   -3.4747    0.6930    0.0287 C   0  0  0  0  0  0  0  0  0  0  0  0
   -2.8465   -1.6379    0.1267 C   0  0  0  0  0  0  0  0  0  0  0  0
   -3.8335   -0.6522    0.1134 C   0  0  0  0  0  0  0  0  0  0  0  0
    1.3252   -0.4013   -0.0991 C   0  0  0  0  0  0  0  0  0  0  0  0
    3.6995   -0.3418   -0.1919 C   0  0  0  0  0  0  0  0  0  0  0  0
    4.8145    0.6460   -0.2868 C   0  0  0  0  0  0  0  0  0  0  0  0
    5.7785    0.7749    0.6314 C   0  0  0  0  0  0  0  0  0  0  0  0
  1  8  1  0
  2 11  1  0
  2 12  1  0
  3 11  2  0
  4  5  1  0
  4 11  1  0
  5  6  2  0
  5  7  1  0
  6  8  1  0
  7  9  2  0
  8 10  2  0
  9 10  1  0
 12 13  1  0
 13 14  2  0
M  END
>  <PUBCHEM_COMPOUND_CID>  (1) 
32780

>  <PUBCHEM_CONFORMER_RMSD>  (1) 
0.6

>  <PUBCHEM_CONFORMER_DIVERSEORDER>  (1) 
1
53
64
44
32
61
23
19
66
25
51
43
17
52
20
33
47
45
69
13
67
5
30
58
36
37
60
34
29
10
54
8
68
38
24
7
48
18
56
22
35
50
65
63
21
57
55
2
59
39
42
14
62
40
41
49
9
12
3
11
15
27
46
6
4
26
28
16
31

>  <PUBCHEM_MMFF94_PARTIAL_CHARGES>  (1) 
22
1 -0.18
10 -0.15
11 0.78
12 0.42
13 -0.29
14 -0.3
15 0.15
16 0.15
17 0.37
18 0.15
19 0.15
2 -0.43
22 0.15
23 0.15
24 0.15
3 -0.57
4 -0.55
5 0.12
6 -0.15
7 -0.15
8 0.18
9 -0.15

>  <PUBCHEM_EFFECTIVE_ROTOR_COUNT>  (1) 
5

>  <PUBCHEM_PHARMACOPHORE_FEATURES>  (1) 
4
1 14 hydrophobe
1 3 acceptor
1 4 donor
6 5 6 7 8 9 10 rings

>  <PUBCHEM_HEAVY_ATOM_COUNT>  (1) 
14

>  <PUBCHEM_ATOM_DEF_STEREO_COUNT>  (1) 
0

>  <PUBCHEM_ATOM_UDEF_STEREO_COUNT>  (1) 
0

>  <PUBCHEM_BOND_DEF_STEREO_COUNT>  (1) 
0

>  <PUBCHEM_BOND_UDEF_STEREO_COUNT>  (1) 
0

>  <PUBCHEM_ISOTOPIC_ATOM_COUNT>  (1) 
0

>  <PUBCHEM_COMPONENT_COUNT>  (1) 
1

>  <PUBCHEM_CACTVS_TAUTO_COUNT>  (1) 
2

>  <PUBCHEM_CONFORMER_ID>  (1) 
0000800C00000001

>  <PUBCHEM_MMFF94_ENERGY>  (1) 
29.2697

>  <PUBCHEM_FEATURE_SELFOVERLAP>  (1) 
20.297

>  <PUBCHEM_SHAPE_FINGERPRINT>  (1) 
10014705 185 18409448081197833989
10912923 1 17530964730834719904
11401426 45 18408884053149332756
117890 112 18341331110958725296
12500047 106 18412541007543761931
12916754 54 8790589421530319039
13214271 11 18412824702865512695
14251764 75 16838276537148381369
15196674 1 18410575058941170174
15375358 24 18272936002963708478
15501527 16 18412267216316512401
200 152 17632855330755832423
20645477 56 18409168784038645653
20645477 70 17131560431901544158
21426921 1 18340767139346322103
22485316 2 18412262835375906878
23402539 116 18335133211099141452
23402655 69 18130504145736207597
23559900 14 18342740663933906246
2916195 48 18130497643810018368
293599 30 18338801105081546745
300161 21 18336257972818635780
34934 24 18337104579861075535
3545911 37 18411704261714494412
4214541 1 18410012143505508924
42788 4 18412263947904162380
441001 317 18273496753851949081
449060 50 18410859836757917325
5104073 3 18335986371919199898
573450 72 18187917391928008826
77779 3 18410577292708922214

>  <PUBCHEM_SHAPE_MULTIPOLES>  (1) 
273.26
11.48
1.63
0.64
12.79
0.08
-0.02
-4.85
-0.97
-1.81
-0.05
0.17
-0.03
0.23

>  <PUBCHEM_SHAPE_SELFOVERLAP>  (1) 
548.721

>  <PUBCHEM_SHAPE_VOLUME>  (1) 
160.5

>  <PUBCHEM_COORDINATE_TYPE>  (1) 
2
5
10

$$$$
