32787
     RDKit          3D

 18 21  0  0  0  0  0  0  0  0999 V2000
   -3.6344   -1.9742    0.0000 N   0  0  0  0  0  0  0  0  0  0  0  0
   -0.3579   -0.0706   -0.0003 C   0  0  0  0  0  0  0  0  0  0  0  0
    0.0490    1.2853   -0.0002 C   0  0  0  0  0  0  0  0  0  0  0  0
   -1.7643   -0.3758   -0.0002 C   0  0  0  0  0  0  0  0  0  0  0  0
    2.0354   -0.7186   -0.0001 C   0  0  0  0  0  0  0  0  0  0  0  0
    2.4134    0.6369   -0.0001 C   0  0  0  0  0  0  0  0  0  0  0  0
    0.6673   -1.0493   -0.0002 C   0  0  0  0  0  0  0  0  0  0  0  0
   -2.7104    0.6753    0.0000 C   0  0  0  0  0  0  0  0  0  0  0  0
    1.4142    1.6201   -0.0001 C   0  0  0  0  0  0  0  0  0  0  0  0
   -0.9128    2.3014   -0.0001 C   0  0  0  0  0  0  0  0  0  0  0  0
   -2.2722    2.0018    0.0001 C   0  0  0  0  0  0  0  0  0  0  0  0
    3.0333   -1.7086    0.0000 C   0  0  0  0  0  0  0  0  0  0  0  0
    3.7779    0.9731    0.0001 C   0  0  0  0  0  0  0  0  0  0  0  0
   -2.3133   -1.6726   -0.0003 C   0  0  0  0  0  0  0  0  0  0  0  0
   -4.0812    0.3900    0.0003 C   0  0  0  0  0  0  0  0  0  0  0  0
    4.3844   -1.3610    0.0002 C   0  0  0  0  0  0  0  0  0  0  0  0
    4.7565   -0.0208    0.0003 C   0  0  0  0  0  0  0  0  0  0  0  0
   -4.4851   -0.9325    0.0005 C   0  0  0  0  0  0  0  0  0  0  0  0
  1 14  2  0
  1 18  1  0
  2  3  1  0
  2  4  2  0
  2  7  1  0
  3  9  1  0
  3 10  2  0
  4  8  1  0
  4 14  1  0
  5  6  1  0
  5  7  2  0
  5 12  1  0
  6  9  2  0
  6 13  1  0
  8 11  2  0
  8 15  1  0
 10 11  1  0
 12 16  2  0
 13 17  2  0
 15 18  2  0
 16 17  1  0
M  END
>  <PUBCHEM_COMPOUND_CID>  (1) 
32787

>  <PUBCHEM_CONFORMER_RMSD>  (1) 
0.4

>  <PUBCHEM_CONFORMER_DIVERSEORDER>  (1) 
1

>  <PUBCHEM_MMFF94_PARTIAL_CHARGES>  (1) 
23
1 -0.62
10 -0.15
11 -0.15
12 -0.15
13 -0.15
14 0.16
15 -0.15
16 -0.15
17 -0.15
18 0.16
19 0.15
20 0.15
21 0.15
22 0.15
23 0.15
24 0.15
25 0.15
26 0.15
27 0.15
28 0.15
29 0.15
7 -0.15
9 -0.15

>  <PUBCHEM_EFFECTIVE_ROTOR_COUNT>  (1) 
0

>  <PUBCHEM_PHARMACOPHORE_FEATURES>  (1) 
5
1 1 acceptor
6 1 4 8 14 15 18 rings
6 2 3 4 8 10 11 rings
6 2 3 5 6 7 9 rings
6 5 6 12 13 16 17 rings

>  <PUBCHEM_HEAVY_ATOM_COUNT>  (1) 
18

>  <PUBCHEM_ATOM_DEF_STEREO_COUNT>  (1) 
0

>  <PUBCHEM_ATOM_UDEF_STEREO_COUNT>  (1) 
0

>  <PUBCHEM_BOND_DEF_STEREO_COUNT>  (1) 
0

>  <PUBCHEM_BOND_UDEF_STEREO_COUNT>  (1) 
0

>  <PUBCHEM_ISOTOPIC_ATOM_COUNT>  (1) 
0

>  <PUBCHEM_COMPONENT_COUNT>  (1) 
1

>  <PUBCHEM_CACTVS_TAUTO_COUNT>  (1) 
1

>  <PUBCHEM_CONFORMER_ID>  (1) 
0000801300000001

>  <PUBCHEM_MMFF94_ENERGY>  (1) 
62.4535

>  <PUBCHEM_FEATURE_SELFOVERLAP>  (1) 
25.447

>  <PUBCHEM_SHAPE_FINGERPRINT>  (1) 
10616163 171 18412546483337316894
10618630 7 18409730672617959373
10967382 1 18338797943426031942
11132069 177 18410570682400838880
11806522 49 18408040727820538292
12032990 46 18410857672062751465
12107183 9 17687742736439789266
12236239 1 17822010891866952290
12403259 226 18411131408010119848
13140716 1 18411987991981513473
13288520 33 18412829058131181702
138480 1 15024149219014588033
13862211 1 18410851079314715639
14115302 16 17749680674141912815
14790565 3 17763468318338174577
15196674 1 18410573980861810564
15352361 1 18410855507726554751
15442244 35 18265895753033943618
15536298 74 18341894104125206376
16945 1 18266741281401522341
17492 89 18337671906339686234
17804303 29 18342177764939785177
1813 80 17530686515078960373
18186145 218 17603578647137799351
18522853 276 18412544310030760256
19141452 34 18343304782134178271
200 152 18130782374171141167
20261772 1 17989203784721305494
20281475 54 18411141333251941664
20510252 161 18200031737785996017
21029758 11 18341607123074574097
21267235 1 18410302410074702059
21501502 16 18410297977863572952
221490 88 18191030199255758059
2297311 6 18271257048977035470
23402539 116 18342731910684717879
23463225 33 18410576201365222973
23557571 272 18201165360376079724
23559900 14 18412257333623151000
2748010 2 18339353166902346237
2871803 45 18334571339151038038
335352 9 18338798914605846301
34934 24 18410567392403038535
4214541 1 18410856516816918532
474 4 17241339100355803540
4921388 177 16081379595717150635
5104073 3 18412544292898312744
7364860 26 18268429225219287968
77779 3 18411139121480641934
8809292 202 18333735736263177803
9709674 26 18411424973061221486

>  <PUBCHEM_SHAPE_MULTIPOLES>  (1) 
365.45
8.86
2.23
0.61
2.02
0.3
0
-2.96
0
-0.72
0
0.02
0.01
0

>  <PUBCHEM_SHAPE_SELFOVERLAP>  (1) 
842.117

>  <PUBCHEM_SHAPE_VOLUME>  (1) 
185.5

>  <PUBCHEM_COORDINATE_TYPE>  (1) 
2
5
10

$$$$
