32806
     RDKit          3D

 17 19  0  0  0  0  0  0  0  0999 V2000
   -0.0004    3.4823    1.1234 Cl  0  0  0  0  0  0  0  0  0  0  0  0
   -1.2250    0.4825   -0.1616 C   0  0  0  0  0  0  0  0  0  0  0  0
    1.2251    0.4825   -0.1614 C   0  0  0  0  0  0  0  0  0  0  0  0
   -1.2251   -0.9178    0.0210 C   0  0  0  0  0  0  0  0  0  0  0  0
    1.2251   -0.9178    0.0209 C   0  0  0  0  0  0  0  0  0  0  0  0
    0.0000    1.1644   -0.2504 C   0  0  0  0  0  0  0  0  0  0  0  0
    0.0001   -1.5997    0.1097 C   0  0  0  0  0  0  0  0  0  0  0  0
   -2.4505    1.1635   -0.2503 C   0  0  0  0  0  0  0  0  0  0  0  0
    2.4505    1.1637   -0.2501 C   0  0  0  0  0  0  0  0  0  0  0  0
   -2.4505   -1.5989    0.1099 C   0  0  0  0  0  0  0  0  0  0  0  0
    2.4506   -1.5989    0.1096 C   0  0  0  0  0  0  0  0  0  0  0  0
    0.0002    2.6566   -0.4460 C   0  0  0  0  0  0  0  0  0  0  0  0
   -0.0002   -3.0919    0.3058 C   0  0  0  0  0  0  0  0  0  0  0  0
   -3.6587    0.4721   -0.1602 C   0  0  0  0  0  0  0  0  0  0  0  0
    3.6587    0.4721   -0.1599 C   0  0  0  0  0  0  0  0  0  0  0  0
   -3.6587   -0.9074    0.0198 C   0  0  0  0  0  0  0  0  0  0  0  0
    3.6587   -0.9074    0.0197 C   0  0  0  0  0  0  0  0  0  0  0  0
  1 12  1  0
  2  4  1  0
  2  6  2  0
  2  8  1  0
  3  5  2  0
  3  6  1  0
  3  9  1  0
  4  7  2  0
  4 10  1  0
  5  7  1  0
  5 11  1  0
  6 12  1  0
  7 13  1  0
  8 14  2  0
  9 15  2  0
 10 16  2  0
 11 17  2  0
 14 16  1  0
 15 17  1  0
M  END
>  <PUBCHEM_COMPOUND_CID>  (1) 
32806

>  <PUBCHEM_CONFORMER_RMSD>  (1) 
0.6

>  <PUBCHEM_CONFORMER_DIVERSEORDER>  (1) 
1

>  <PUBCHEM_MMFF94_PARTIAL_CHARGES>  (1) 
21
1 -0.29
10 -0.15
11 -0.15
12 0.43
13 0.14
14 -0.15
15 -0.15
16 -0.15
17 -0.15
18 0.15
19 0.15
20 0.15
21 0.15
27 0.15
28 0.15
29 0.15
30 0.15
6 -0.14
7 -0.14
8 -0.15
9 -0.15

>  <PUBCHEM_EFFECTIVE_ROTOR_COUNT>  (1) 
1

>  <PUBCHEM_PHARMACOPHORE_FEATURES>  (1) 
3
6 2 3 4 5 6 7 rings
6 2 4 8 10 14 16 rings
6 3 5 9 11 15 17 rings

>  <PUBCHEM_HEAVY_ATOM_COUNT>  (1) 
17

>  <PUBCHEM_ATOM_DEF_STEREO_COUNT>  (1) 
0

>  <PUBCHEM_ATOM_UDEF_STEREO_COUNT>  (1) 
0

>  <PUBCHEM_BOND_DEF_STEREO_COUNT>  (1) 
0

>  <PUBCHEM_BOND_UDEF_STEREO_COUNT>  (1) 
0

>  <PUBCHEM_ISOTOPIC_ATOM_COUNT>  (1) 
0

>  <PUBCHEM_COMPONENT_COUNT>  (1) 
1

>  <PUBCHEM_CACTVS_TAUTO_COUNT>  (1) 
1

>  <PUBCHEM_CONFORMER_ID>  (1) 
0000802600000001

>  <PUBCHEM_MMFF94_ENERGY>  (1) 
68.621

>  <PUBCHEM_FEATURE_SELFOVERLAP>  (1) 
15.274

>  <PUBCHEM_SHAPE_FINGERPRINT>  (1) 
108231 29 18412545448181412440
10967382 1 18409167718433023646
11132069 177 18410568483388119778
11680986 33 17905608057432008609
12032990 46 18409453582818838078
12382932 28 18411138013157514129
12403259 226 18336823220985755399
12954195 1 18055374461193201180
13027679 85 18411981360404750285
13132413 78 18410858780270166485
13140716 1 18410010992248467714
14178342 30 17834102049365112594
14790565 3 18338251378821253117
15196674 1 18408603664609625830
15442244 35 17977101262961323682
15536298 74 18413107264658995966
16945 1 17385442124266300247
193761 8 17689152314182693791
19591789 44 18409168813644857571
200 152 18201429303649781095
20510252 161 18341611465244273584
20511035 2 17838057365814424140
20905425 154 18124595271496277998
21029758 11 18341325673704013453
21267235 1 18408895026601363623
21501502 16 17761212116007904682
2334 1 18409449219116150095
23402539 116 18342448249348412758
23419403 2 15970951326080787771
23463225 33 18334575728707795950
23558518 356 18049454638511563936
23559900 14 18341053017149859868
2748010 2 18409165519346334774
335352 9 17976538312643691479
34934 24 18411409626889378126
350125 39 18192720162187550849
353137 74 18192144902151224296
43471831 8 18189895327273445642
5104073 3 18408603660319778218
528886 8 18409161104120045370
537710 114 18335708255654328356
53812653 166 18340766047817876560
589210 1 17689999354747837571
7364860 26 18125439966961824625
81228 2 18193853547637178840
8809292 202 18259708890940318611
9709674 26 18410299146184764142

>  <PUBCHEM_SHAPE_MULTIPOLES>  (1) 
351.72
5.51
3.3
0.74
0
1.36
0.08
-1.15
-0.36
0
0.82
0
0.3
0

>  <PUBCHEM_SHAPE_SELFOVERLAP>  (1) 
778.989

>  <PUBCHEM_SHAPE_VOLUME>  (1) 
181

>  <PUBCHEM_COORDINATE_TYPE>  (1) 
2
5
10

$$$$
