32803
     RDKit          3D

  8  8  0  0  1  0  0  0  0  0999 V2000
   -0.8015    1.1702    0.5944 O   0  0  0  0  0  0  0  0  0  0  0  0
    0.5964   -1.1604   -0.1048 O   0  0  0  0  0  0  0  0  0  0  0  0
   -1.5172   -0.0359    0.3023 C   0  0  0  0  0  0  0  0  0  0  0  0
    1.3109    0.0222    0.2721 C   0  0  0  0  0  0  0  0  0  0  0  0
    0.4662    1.2475   -0.0612 C   0  0  0  0  0  0  0  0  0  0  0  0
   -0.6405   -1.2485    0.6045 C   0  0  0  0  0  0  0  0  0  0  0  0
   -2.0478   -0.0325   -1.1299 C   0  0  0  0  0  0  0  0  0  0  0  0
    2.6335    0.0375   -0.4775 C   0  0  0  0  0  0  0  0  0  0  0  0
  1  3  1  0
  1  5  1  0
  2  4  1  0
  2  6  1  0
  3  6  1  0
  3  7  1  0
  4  5  1  0
  4  8  1  0
M  END
>  <PUBCHEM_COMPOUND_CID>  (1) 
32803

>  <PUBCHEM_CONFORMER_RMSD>  (1) 
0.4

>  <PUBCHEM_CONFORMER_DIVERSEORDER>  (1) 
1
2
4
3
5

>  <PUBCHEM_MMFF94_PARTIAL_CHARGES>  (1) 
6
1 -0.56
2 -0.56
3 0.28
4 0.28
5 0.28
6 0.28

>  <PUBCHEM_EFFECTIVE_ROTOR_COUNT>  (1) 
1.2

>  <PUBCHEM_PHARMACOPHORE_FEATURES>  (1) 
3
1 1 acceptor
1 2 acceptor
6 1 2 3 4 5 6 rings

>  <PUBCHEM_HEAVY_ATOM_COUNT>  (1) 
8

>  <PUBCHEM_ATOM_DEF_STEREO_COUNT>  (1) 
0

>  <PUBCHEM_ATOM_UDEF_STEREO_COUNT>  (1) 
2

>  <PUBCHEM_BOND_DEF_STEREO_COUNT>  (1) 
0

>  <PUBCHEM_BOND_UDEF_STEREO_COUNT>  (1) 
0

>  <PUBCHEM_ISOTOPIC_ATOM_COUNT>  (1) 
0

>  <PUBCHEM_COMPONENT_COUNT>  (1) 
1

>  <PUBCHEM_CACTVS_TAUTO_COUNT>  (1) 
1

>  <PUBCHEM_CONFORMER_ID>  (1) 
0000802300000001

>  <PUBCHEM_MMFF94_ENERGY>  (1) 
17.5898

>  <PUBCHEM_FEATURE_SELFOVERLAP>  (1) 
15.227

>  <PUBCHEM_SHAPE_FINGERPRINT>  (1) 
15310529 11 16515404092403611752
16714656 1 18410303514160521192
18185500 45 18269265760230537475
20653085 51 16660370246771327340
21040471 1 18335137561858807632
21293036 1 18335980968886958870
23235685 24 18408327674348285209
23552423 10 18190752937974514326
24536 1 18339929310921246480
29004967 10 18130509724840631266
5084963 1 17749959971591095362

>  <PUBCHEM_SHAPE_MULTIPOLES>  (1) 
152.9
2.81
1.27
0.9
1.01
0.04
0.14
-0.04
0.84
-0.07
-0.18
-0.31
-0.03
0.06

>  <PUBCHEM_SHAPE_SELFOVERLAP>  (1) 
292.968

>  <PUBCHEM_SHAPE_VOLUME>  (1) 
94.3

>  <PUBCHEM_COORDINATE_TYPE>  (1) 
2
5
10

$$$$
