32809
     RDKit          3D

 15 15  0  0  0  0  0  0  0  0999 V2000
    0.3716   -1.1854   -0.1976 O   0  0  0  0  0  0  0  0  0  0  0  0
   -1.2052   -2.5010    0.8426 O   0  0  0  0  0  0  0  0  0  0  0  0
    2.6658   -1.7531   -0.6610 C   0  0  0  0  0  0  0  0  0  0  0  0
    1.3433   -2.2142   -0.0603 C   0  0  0  0  0  0  0  0  0  0  0  0
    3.2050   -0.5415    0.0459 C   0  0  0  0  0  0  0  0  0  0  0  0
    3.9770    1.8417    0.1479 C   0  0  0  0  0  0  0  0  0  0  0  0
    3.4306    0.6354   -0.5566 C   0  0  0  0  0  0  0  0  0  0  0  0
   -1.7838   -0.3128    0.0927 C   0  0  0  0  0  0  0  0  0  0  0  0
   -0.8658   -1.4615    0.2988 C   0  0  0  0  0  0  0  0  0  0  0  0
    2.8611    2.7007    0.7220 C   0  0  0  0  0  0  0  0  0  0  0  0
   -3.1315   -0.5578   -0.0733 C   0  0  0  0  0  0  0  0  0  0  0  0
   -1.2607    0.9639    0.0742 C   0  0  0  0  0  0  0  0  0  0  0  0
   -3.9940    0.5212   -0.2667 C   0  0  0  0  0  0  0  0  0  0  0  0
   -2.1234    2.0430   -0.1191 C   0  0  0  0  0  0  0  0  0  0  0  0
   -3.4901    1.8215   -0.2895 C   0  0  0  0  0  0  0  0  0  0  0  0
  1  4  1  0
  1  9  1  0
  2  9  2  0
  3  4  1  0
  3  5  1  0
  5  7  2  0
  6  7  1  0
  6 10  1  0
  8  9  1  0
  8 11  2  0
  8 12  1  0
 11 13  1  0
 12 14  2  0
 13 15  2  0
 14 15  1  0
M  END
>  <PUBCHEM_COMPOUND_CID>  (1) 
32809

>  <PUBCHEM_CONFORMER_RMSD>  (1) 
0.6

>  <PUBCHEM_CONFORMER_DIVERSEORDER>  (1) 
1
163
24
108
61
44
151
32
142
85
170
123
121
156
146
86
178
56
135
51
177
75
118
97
69
143
92
63
57
128
129
158
127
152
172
107
176
50
74
139
160
40
125
54
52
103
131
101
173
144
8
55
82
140
132
13
35
76
9
155
134
95
43
10
145
99
72
138
112
104
162
153
11
120
165
169
141
167
21
66
38
148
53
2
102
89
174
110
109
14
157
78
83
4
48
41
133
106
23
33
29
58
113
98
114
15
90
161
115
137
25
150
100
77
20
88
81
59
136
47
84
147
18
149
154
26
117
19
36
126
164
80
79
65
71
37
34
93
159
70
105
3
124
175
22
171
7
12
116
130
96
73
168
119
31
27
67
111
49
60
122
30
46
5
64
166
39
91
62
28
17
45
87
42
94
68
6
16

>  <PUBCHEM_MMFF94_PARTIAL_CHARGES>  (1) 
21
1 -0.43
11 -0.15
12 -0.15
13 -0.15
14 -0.15
15 -0.15
2 -0.57
20 0.15
23 0.15
27 0.15
28 0.15
29 0.15
3 0.14
30 0.15
31 0.15
4 0.28
5 -0.29
6 0.14
7 -0.29
8 0.09
9 0.63

>  <PUBCHEM_EFFECTIVE_ROTOR_COUNT>  (1) 
6

>  <PUBCHEM_PHARMACOPHORE_FEATURES>  (1) 
3
1 10 hydrophobe
1 2 acceptor
6 8 11 12 13 14 15 rings

>  <PUBCHEM_HEAVY_ATOM_COUNT>  (1) 
15

>  <PUBCHEM_ATOM_DEF_STEREO_COUNT>  (1) 
0

>  <PUBCHEM_ATOM_UDEF_STEREO_COUNT>  (1) 
0

>  <PUBCHEM_BOND_DEF_STEREO_COUNT>  (1) 
0

>  <PUBCHEM_BOND_UDEF_STEREO_COUNT>  (1) 
1

>  <PUBCHEM_ISOTOPIC_ATOM_COUNT>  (1) 
0

>  <PUBCHEM_COMPONENT_COUNT>  (1) 
1

>  <PUBCHEM_CACTVS_TAUTO_COUNT>  (1) 
1

>  <PUBCHEM_CONFORMER_ID>  (1) 
0000802900000001

>  <PUBCHEM_MMFF94_ENERGY>  (1) 
25.4839

>  <PUBCHEM_FEATURE_SELFOVERLAP>  (1) 
15.223

>  <PUBCHEM_SHAPE_FINGERPRINT>  (1) 
10498660 4 18265338485364654436
10608611 8 18410295804620521294
11370993 70 18339917229505777624
122479 349 18408324397388685926
12403259 226 17973160634450844838
13897977 150 18411981372999235480
14026960 21 18410861000757461850
14250199 8 18271247097216128558
15536298 74 18341051822056733684
17802600 8 18336543811756335006
18186145 218 18197785392570103407
20304884 271 18410294718146834682
20449540 30 18272935999059111777
21524375 3 18334858260204614126
22096605 113 18413107238572707006
22749437 52 18410009957488753956
22959321 54 18410856559808607652
23227448 37 18342453789581794687
23557571 272 18191604135904697870
23559900 14 18268988687780577654
3187 122 17753326770816585857
351380 180 18411413986645173886
3524813 1 18189333472726342252
43658 37 18271235110147015052
5262128 65 17558285236520964774
526903 126 18410574002589802785
6333272 397 18335140864688879075
8050 44 18411134744945975116
9709674 26 18412549829269652478
9981440 41 18336258050508239306

>  <PUBCHEM_SHAPE_MULTIPOLES>  (1) 
296.95
7.82
3.1
0.75
1.24
0.27
0.02
4.17
-0.71
1.53
0.45
0.15
-0.03
0.9

>  <PUBCHEM_SHAPE_SELFOVERLAP>  (1) 
598.624

>  <PUBCHEM_SHAPE_VOLUME>  (1) 
173.7

>  <PUBCHEM_COORDINATE_TYPE>  (1) 
2
5
10

$$$$
