32816
     RDKit          3D

 11 11  0  0  0  0  0  0  0  0999 V2000
   -0.2231   -2.8482   -0.0008 Cl  0  0  0  0  0  0  0  0  0  0  0  0
    2.6082   -1.4024    0.0009 Cl  0  0  0  0  0  0  0  0  0  0  0  0
    2.6958    1.7901   -0.0005 Cl  0  0  0  0  0  0  0  0  0  0  0  0
   -2.4978   -0.9742    0.0001 O   0  0  0  0  0  0  0  0  0  0  0  0
   -2.3546    1.7725    0.0001 O   0  0  0  0  0  0  0  0  0  0  0  0
   -1.2756   -0.3666    0.0002 C   0  0  0  0  0  0  0  0  0  0  0  0
   -1.2142    1.0270    0.0002 C   0  0  0  0  0  0  0  0  0  0  0  0
   -0.0994   -1.1166    0.0001 C   0  0  0  0  0  0  0  0  0  0  0  0
    0.0232    1.6706    0.0000 C   0  0  0  0  0  0  0  0  0  0  0  0
    1.1381   -0.4729   -0.0001 C   0  0  0  0  0  0  0  0  0  0  0  0
    1.1993    0.9207   -0.0002 C   0  0  0  0  0  0  0  0  0  0  0  0
  1  8  1  0
  2 10  1  0
  3 11  1  0
  4  6  1  0
  5  7  1  0
  6  7  2  0
  6  8  1  0
  7  9  1  0
  8 10  2  0
  9 11  2  0
 10 11  1  0
M  END
>  <PUBCHEM_COMPOUND_CID>  (1) 
32816

>  <PUBCHEM_CONFORMER_RMSD>  (1) 
0.4

>  <PUBCHEM_CONFORMER_DIVERSEORDER>  (1) 
1

>  <PUBCHEM_MMFF94_PARTIAL_CHARGES>  (1) 
14
1 -0.18
10 0.18
11 0.18
12 0.15
13 0.45
14 0.45
2 -0.18
3 -0.18
4 -0.53
5 -0.53
6 0.08
7 0.08
8 0.18
9 -0.15

>  <PUBCHEM_EFFECTIVE_ROTOR_COUNT>  (1) 
0

>  <PUBCHEM_PHARMACOPHORE_FEATURES>  (1) 
3
1 4 donor
1 5 donor
6 6 7 8 9 10 11 rings

>  <PUBCHEM_HEAVY_ATOM_COUNT>  (1) 
11

>  <PUBCHEM_ATOM_DEF_STEREO_COUNT>  (1) 
0

>  <PUBCHEM_ATOM_UDEF_STEREO_COUNT>  (1) 
0

>  <PUBCHEM_BOND_DEF_STEREO_COUNT>  (1) 
0

>  <PUBCHEM_BOND_UDEF_STEREO_COUNT>  (1) 
0

>  <PUBCHEM_ISOTOPIC_ATOM_COUNT>  (1) 
0

>  <PUBCHEM_COMPONENT_COUNT>  (1) 
1

>  <PUBCHEM_CACTVS_TAUTO_COUNT>  (1) 
6

>  <PUBCHEM_CONFORMER_ID>  (1) 
0000803000000001

>  <PUBCHEM_MMFF94_ENERGY>  (1) 
24.2034

>  <PUBCHEM_FEATURE_SELFOVERLAP>  (1) 
15.228

>  <PUBCHEM_SHAPE_FINGERPRINT>  (1) 
12423570 1 12146396138671514316
13380535 76 18267578186176111470
16945 1 18194683902164641764
18185500 45 17978228253425563659
193761 8 18410856607100857062
20588541 1 18123755519384653002
20871998 184 17695918013271648326
21040471 1 18410574028275483232
21501502 16 18411419509756916588
2334 1 18410855481650678916
23526114 1 18410012109188072636
23552423 10 18334577923530880262
23559900 14 18126854799032451270
241688 4 18337108969032978128
2748010 2 18409167701205558356
5084963 1 18202844331395000282
528886 8 18194959639101909922
66348 1 18409731763671618702

>  <PUBCHEM_SHAPE_MULTIPOLES>  (1) 
220.25
3.36
2.82
0.61
0.89
1.07
0
-0.74
0
-0.11
0
0.06
0.02
0

>  <PUBCHEM_SHAPE_SELFOVERLAP>  (1) 
437.867

>  <PUBCHEM_SHAPE_VOLUME>  (1) 
133.9

>  <PUBCHEM_COORDINATE_TYPE>  (1) 
2
5
10

$$$$
