32826
     RDKit          3D

  9  8  0  0  0  0  0  0  0  0999 V2000
    2.3646    0.5005   -1.2401 O   0  0  0  0  0  0  0  0  0  0  0  0
   -1.2298   -1.5099    0.1009 C   0  0  0  0  0  0  0  0  0  0  0  0
   -2.4996   -0.7181   -0.2285 C   0  0  0  0  0  0  0  0  0  0  0  0
    0.0210   -0.8133   -0.3591 C   0  0  0  0  0  0  0  0  0  0  0  0
   -2.5673    0.5950    0.4973 C   0  0  0  0  0  0  0  0  0  0  0  0
    1.0353   -0.5065    0.4604 C   0  0  0  0  0  0  0  0  0  0  0  0
    2.2482    0.1826   -0.0587 C   0  0  0  0  0  0  0  0  0  0  0  0
    3.3348    0.4911    0.9377 C   0  0  0  0  0  0  0  0  0  0  0  0
   -2.7070    1.7786   -0.1099 C   0  0  0  0  0  0  0  0  0  0  0  0
  1  7  2  0
  2  3  1  0
  2  4  1  0
  3  5  1  0
  4  6  2  0
  5  9  2  0
  6  7  1  0
  7  8  1  0
M  END
>  <PUBCHEM_COMPOUND_CID>  (1) 
32826

>  <PUBCHEM_CONFORMER_RMSD>  (1) 
0.6

>  <PUBCHEM_CONFORMER_DIVERSEORDER>  (1) 
1
3
18
30
7
11
29
27
12
14
5
2
23
25
16
8
22
21
19
24
15
28
9
26
17
13
20
6
10
4

>  <PUBCHEM_MMFF94_PARTIAL_CHARGES>  (1) 
14
1 -0.57
14 0.15
15 0.15
16 0.15
2 0.14
20 0.15
21 0.15
3 0.14
4 -0.29
5 -0.29
6 -0.14
7 0.49
8 0.06
9 -0.3

>  <PUBCHEM_EFFECTIVE_ROTOR_COUNT>  (1) 
4

>  <PUBCHEM_PHARMACOPHORE_FEATURES>  (1) 
3
1 1 acceptor
1 9 hydrophobe
4 2 3 4 5 hydrophobe

>  <PUBCHEM_HEAVY_ATOM_COUNT>  (1) 
9

>  <PUBCHEM_ATOM_DEF_STEREO_COUNT>  (1) 
0

>  <PUBCHEM_ATOM_UDEF_STEREO_COUNT>  (1) 
0

>  <PUBCHEM_BOND_DEF_STEREO_COUNT>  (1) 
0

>  <PUBCHEM_BOND_UDEF_STEREO_COUNT>  (1) 
1

>  <PUBCHEM_ISOTOPIC_ATOM_COUNT>  (1) 
0

>  <PUBCHEM_COMPONENT_COUNT>  (1) 
1

>  <PUBCHEM_CACTVS_TAUTO_COUNT>  (1) 
5

>  <PUBCHEM_CONFORMER_ID>  (1) 
0000803A00000001

>  <PUBCHEM_MMFF94_ENERGY>  (1) 
6.1064

>  <PUBCHEM_FEATURE_SELFOVERLAP>  (1) 
15.232

>  <PUBCHEM_SHAPE_FINGERPRINT>  (1) 
12932764 1 17917437557048898334
14325111 11 18413669097535817954
14390081 3 18272368667964611859
15310529 11 14476972193890394499
15775835 57 18410011001017925609
18342897 55 14620506887340359552
20653085 51 18338252499732974434
21028194 46 18341898463284994163
23402539 116 18198889478702274255
305870 269 18262231110474358194
3248919 1 18040714805055385394
528716 315 11023822915759187921

>  <PUBCHEM_SHAPE_MULTIPOLES>  (1) 
179.35
5.53
1.49
0.91
1.59
0.17
-0.09
2.2
0.52
-1.29
-0.01
0.53
0.1
0.01

>  <PUBCHEM_SHAPE_SELFOVERLAP>  (1) 
330.108

>  <PUBCHEM_SHAPE_VOLUME>  (1) 
113.2

>  <PUBCHEM_COORDINATE_TYPE>  (1) 
2
5
10

$$$$
