32832
     RDKit          3D

  7  6  0  0  0  0  0  0  0  0999 V2000
    3.1871   -0.0078    0.5281 O   0  0  0  0  0  0  0  0  0  0  0  0
   -2.0932    1.1131    0.2687 O   0  0  0  0  0  0  0  0  0  0  0  0
   -2.1279   -1.0899    0.2642 O   0  0  0  0  0  0  0  0  0  0  0  0
   -1.6106    0.0044   -0.0209 N   0  0  0  0  0  0  0  0  0  0  0  0
    0.8128   -0.0315    0.2067 C   0  0  0  0  0  0  0  0  0  0  0  0
   -0.3455   -0.0170   -0.7746 C   0  0  0  0  0  0  0  0  0  0  0  0
    2.1774    0.0287   -0.4720 C   0  0  0  0  0  0  0  0  0  0  0  0
  1  7  1  0
  2  4  1  0
  3  4  2  0
  4  6  1  0
  5  6  1  0
  5  7  1  0
M  CHG  2   2  -1   4   1
M  END
>  <PUBCHEM_COMPOUND_CID>  (1) 
32832

>  <PUBCHEM_CONFORMER_RMSD>  (1) 
0.4

>  <PUBCHEM_CONFORMER_DIVERSEORDER>  (1) 
1
20
19
14
8
5
17
22
18
13
12
11
7
16
10
21
3
9
15
4
2
6

>  <PUBCHEM_MMFF94_PARTIAL_CHARGES>  (1) 
7
1 -0.68
14 0.4
2 -0.52
3 -0.52
4 0.8
6 0.24
7 0.28

>  <PUBCHEM_EFFECTIVE_ROTOR_COUNT>  (1) 
3

>  <PUBCHEM_PHARMACOPHORE_FEATURES>  (1) 
5
1 1 acceptor
1 1 donor
1 2 acceptor
1 2 anion
1 3 acceptor

>  <PUBCHEM_HEAVY_ATOM_COUNT>  (1) 
7

>  <PUBCHEM_ATOM_DEF_STEREO_COUNT>  (1) 
0

>  <PUBCHEM_ATOM_UDEF_STEREO_COUNT>  (1) 
0

>  <PUBCHEM_BOND_DEF_STEREO_COUNT>  (1) 
0

>  <PUBCHEM_BOND_UDEF_STEREO_COUNT>  (1) 
0

>  <PUBCHEM_ISOTOPIC_ATOM_COUNT>  (1) 
0

>  <PUBCHEM_COMPONENT_COUNT>  (1) 
1

>  <PUBCHEM_CACTVS_TAUTO_COUNT>  (1) 
2

>  <PUBCHEM_CONFORMER_ID>  (1) 
0000804000000001

>  <PUBCHEM_MMFF94_ENERGY>  (1) 
4.1871

>  <PUBCHEM_FEATURE_SELFOVERLAP>  (1) 
25.451

>  <PUBCHEM_SHAPE_FINGERPRINT>  (1) 
14390081 3 17704069560356793984
29004967 10 17917716807443227786
5460574 1 15719389529761115726

>  <PUBCHEM_SHAPE_MULTIPOLES>  (1) 
121.47
4.12
0.85
0.75
1.81
0.01
-0.1
0
0.74
-0.61
0.07
0.15
0
-0.01

>  <PUBCHEM_SHAPE_SELFOVERLAP>  (1) 
216.557

>  <PUBCHEM_SHAPE_VOLUME>  (1) 
79.4

>  <PUBCHEM_COORDINATE_TYPE>  (1) 
2
5
10

$$$$
