32838
     RDKit          3D

  4  3  0  0  0  0  0  0  0  0999 V2000
    1.1850    0.7210    0.0000 N   0  0  0  0  0  0  0  0  0  0  0  0
   -1.2170    0.6657    0.0000 N   0  0  0  0  0  0  0  0  0  0  0  0
    0.0319   -1.3868    0.0000 N   0  0  0  0  0  0  0  0  0  0  0  0
    0.0000    0.0001    0.0001 C   0  0  0  0  0  0  0  0  0  0  0  0
  1  4  2  0
  2  4  1  0
  3  4  1  0
M  CHG  1   1   1
M  END
>  <PUBCHEM_COMPOUND_CID>  (1) 
32838

>  <PUBCHEM_CONFORMER_RMSD>  (1) 
0.4

>  <PUBCHEM_CONFORMER_DIVERSEORDER>  (1) 
1

>  <PUBCHEM_MMFF94_PARTIAL_CHARGES>  (1) 
10
1 -0.97
10 0.45
2 -0.97
3 -0.97
4 1.2
5 0.45
6 0.45
7 0.45
8 0.45
9 0.45

>  <PUBCHEM_EFFECTIVE_ROTOR_COUNT>  (1) 
0

>  <PUBCHEM_PHARMACOPHORE_FEATURES>  (1) 
4
1 1 donor
1 2 donor
1 3 donor
4 1 2 3 4 cation

>  <PUBCHEM_HEAVY_ATOM_COUNT>  (1) 
4

>  <PUBCHEM_ATOM_DEF_STEREO_COUNT>  (1) 
0

>  <PUBCHEM_ATOM_UDEF_STEREO_COUNT>  (1) 
0

>  <PUBCHEM_BOND_DEF_STEREO_COUNT>  (1) 
0

>  <PUBCHEM_BOND_UDEF_STEREO_COUNT>  (1) 
0

>  <PUBCHEM_ISOTOPIC_ATOM_COUNT>  (1) 
0

>  <PUBCHEM_COMPONENT_COUNT>  (1) 
1

>  <PUBCHEM_CACTVS_TAUTO_COUNT>  (1) 
2

>  <PUBCHEM_CONFORMER_ID>  (1) 
0000804600000001

>  <PUBCHEM_MMFF94_ENERGY>  (1) 
0.9446

>  <PUBCHEM_FEATURE_SELFOVERLAP>  (1) 
20.392

>  <PUBCHEM_SHAPE_FINGERPRINT>  (1) 
139733 1 9218658976136268675
20096714 4 18411700971727542496
21015797 1 8934994893128104431
5943 1 13538295881221052172

>  <PUBCHEM_SHAPE_MULTIPOLES>  (1) 
67.38
1.21
1.21
0.54
0.16
0.44
0
-0.44
0
-0.16
0
0
0
0

>  <PUBCHEM_SHAPE_SELFOVERLAP>  (1) 
113.157

>  <PUBCHEM_SHAPE_VOLUME>  (1) 
42.8

>  <PUBCHEM_COORDINATE_TYPE>  (1) 
2
5
10

$$$$
