32848
     RDKit          3D

 28 31  0  0  0  0  0  0  0  0999 V2000
    8.7134    1.8968    0.5057 O   0  0  0  0  0  0  0  0  0  0  0  0
   -5.6617   -1.1630    1.6946 O   0  0  0  0  0  0  0  0  0  0  0  0
   -4.0655   -1.1346   -0.0134 N   0  0  0  0  0  0  0  0  0  0  0  0
    6.4204    0.3992   -0.2694 N   0  0  0  0  0  0  0  0  0  0  0  0
   -1.2721   -1.6208   -0.5936 C   0  0  0  0  0  0  0  0  0  0  0  0
   -1.9760   -2.2648    0.6173 C   0  0  0  0  0  0  0  0  0  0  0  0
   -1.9627   -0.2976   -0.9802 C   0  0  0  0  0  0  0  0  0  0  0  0
   -3.4752   -2.4184    0.3645 C   0  0  0  0  0  0  0  0  0  0  0  0
   -3.4606   -0.5069   -1.1953 C   0  0  0  0  0  0  0  0  0  0  0  0
    0.2150   -1.4378   -0.3556 C   0  0  0  0  0  0  0  0  0  0  0  0
    0.6567   -0.6071    0.6721 C   0  0  0  0  0  0  0  0  0  0  0  0
    1.1343   -2.1016   -1.1650 C   0  0  0  0  0  0  0  0  0  0  0  0
   -5.1379   -0.6238    0.7210 C   0  0  0  0  0  0  0  0  0  0  0  0
    2.9465   -1.1030    0.0825 C   0  0  0  0  0  0  0  0  0  0  0  0
    4.4084   -0.9237    0.3173 C   0  0  0  0  0  0  0  0  0  0  0  0
    4.9830    0.2504   -0.4881 C   0  0  0  0  0  0  0  0  0  0  0  0
    2.0240   -0.4395    0.8915 C   0  0  0  0  0  0  0  0  0  0  0  0
    2.5016   -1.9343   -0.9457 C   0  0  0  0  0  0  0  0  0  0  0  0
    6.9712    1.4595   -1.1248 C   0  0  0  0  0  0  0  0  0  0  0  0
    6.7058    0.6920    1.1421 C   0  0  0  0  0  0  0  0  0  0  0  0
    8.4688    1.6040   -0.8705 C   0  0  0  0  0  0  0  0  0  0  0  0
    8.2097    0.8557    1.3434 C   0  0  0  0  0  0  0  0  0  0  0  0
   -5.6957    0.6738    0.3206 C   0  0  0  0  0  0  0  0  0  0  0  0
   -6.7322    0.7255   -0.6078 C   0  0  0  0  0  0  0  0  0  0  0  0
   -5.1859    1.8467    0.8717 C   0  0  0  0  0  0  0  0  0  0  0  0
   -7.2624    1.9584   -0.9880 C   0  0  0  0  0  0  0  0  0  0  0  0
   -5.7162    3.0795    0.4915 C   0  0  0  0  0  0  0  0  0  0  0  0
   -6.7545    3.1353   -0.4384 C   0  0  0  0  0  0  0  0  0  0  0  0
  1 21  1  0
  1 22  1  0
  2 13  2  0
  3  8  1  0
  3  9  1  0
  3 13  1  0
  4 16  1  0
  4 19  1  0
  4 20  1  0
  5  6  1  0
  5  7  1  0
  5 10  1  0
  6  8  1  0
  7  9  1  0
 10 11  2  0
 10 12  1  0
 11 17  1  0
 12 18  2  0
 13 23  1  0
 14 15  1  0
 14 17  2  0
 14 18  1  0
 15 16  1  0
 19 21  1  0
 20 22  1  0
 23 24  2  0
 23 25  1  0
 24 26  1  0
 25 27  2  0
 26 28  2  0
 27 28  1  0
M  END
>  <PUBCHEM_COMPOUND_CID>  (1) 
32848

>  <PUBCHEM_CONFORMER_RMSD>  (1) 
1

>  <PUBCHEM_CONFORMER_DIVERSEORDER>  (1) 
1
82
73
30
45
58
78
11
48
52
86
85
37
55
53
50
96
43
40
95
61
84
69
42
25
79
33
80
59
18
54
71
91
93
13
3
76
14
94
99
6
89
97
34
51
46
60
12
66
27
21
67
8
47
28
41
72
35
88
17
64
38
5
83
90
44
22
24
74
75
68
57
65
10
98
49
31
81
39
70
20
2
32
16
77
63
15
62
19
7
36
29
87
92
9
26
56
4
23

>  <PUBCHEM_MMFF94_PARTIAL_CHARGES>  (1) 
35
1 -0.56
10 -0.14
11 -0.15
12 -0.15
13 0.54
14 -0.14
15 0.14
16 0.27
17 -0.15
18 -0.15
19 0.27
2 -0.57
20 0.27
21 0.28
22 0.28
23 0.09
24 -0.15
25 -0.15
26 -0.15
27 -0.15
28 -0.15
3 -0.66
38 0.15
39 0.15
4 -0.81
44 0.15
45 0.15
5 0.14
54 0.15
55 0.15
56 0.15
57 0.15
58 0.15
8 0.3
9 0.3

>  <PUBCHEM_EFFECTIVE_ROTOR_COUNT>  (1) 
8.4

>  <PUBCHEM_PHARMACOPHORE_FEATURES>  (1) 
7
1 1 acceptor
1 2 acceptor
1 4 cation
6 1 4 19 20 21 22 rings
6 10 11 12 14 17 18 rings
6 23 24 25 26 27 28 rings
6 3 5 6 7 8 9 rings

>  <PUBCHEM_HEAVY_ATOM_COUNT>  (1) 
28

>  <PUBCHEM_ATOM_DEF_STEREO_COUNT>  (1) 
0

>  <PUBCHEM_ATOM_UDEF_STEREO_COUNT>  (1) 
0

>  <PUBCHEM_BOND_DEF_STEREO_COUNT>  (1) 
0

>  <PUBCHEM_BOND_UDEF_STEREO_COUNT>  (1) 
0

>  <PUBCHEM_ISOTOPIC_ATOM_COUNT>  (1) 
0

>  <PUBCHEM_COMPONENT_COUNT>  (1) 
1

>  <PUBCHEM_CACTVS_TAUTO_COUNT>  (1) 
1

>  <PUBCHEM_CONFORMER_ID>  (1) 
0000805000000001

>  <PUBCHEM_MMFF94_ENERGY>  (1) 
70.516

>  <PUBCHEM_FEATURE_SELFOVERLAP>  (1) 
35.523

>  <PUBCHEM_SHAPE_FINGERPRINT>  (1) 
10 15 18333732424616526291
10280341 67 18341599426709925576
10554248 39 17845368852052097046
10835480 77 18412544292824575719
10883706 163 18114179709811386061
10930396 42 16515685525433496029
11181472 205 18334298657217282356
11409948 8 18335154073285574625
11421887 103 18116983400296863381
11456790 92 18114459046600816696
11761917 87 15430584054074633888
12166972 35 12175608586664457019
125118 31 18408323277056024596
12522641 68 18273493485377283839
12645989 146 11239995667861240667
13248334 5 18122343471915636470
13668630 136 9007062361812882018
14123256 34 10665229245954307334
14251757 52 18409165498483278456
14347424 109 18189329083602484426
14598715 104 18201430398486659736
14849402 71 17024319720032004324
15183329 4 15339122329446194646
15350500 55 18410853239693562028
15461852 350 17917705834150083239
15510800 12 11386362600491142176
16989713 51 17559384963293583183
16994733 274 18335137601057144616
1818759 1 7853575742726480616
18603816 31 12973895857859712009
2026 5 8790888479798054725
20721686 146 18412263917781766228
21033650 10 13542195970100155411
21095123 293 18334581291598371188
21130935 74 17968097495190878282
21150785 3 15195564610797699679
21267235 1 8646768910823180918
21424621 283 18334860506657094218
21585482 111 18335703797816489660
21756936 100 18410007754439556495
23522609 53 17241346792668345070
23576562 1 17273963825853486860
24771293 8 18408602540093358821
2747138 104 12901539149087301502
3103668 31 16485543637416686287
3178227 256 13695591049040534582
3525247 154 18130217151785694633
3663271 9 17821727243141392634
3711267 37 18115036311543462356
3918712 181 18265327301565857781
393628 179 18201146719923213912
406291 66 9151164350900966437
4073 2 18334580135381944643
4169191 19 18342741797388534513
437795 83 17775007847590220617
44802255 64 17632857542827936951
4616759 239 17894635885291596457
465052 167 11169920476440717306
4938544 92 18408042935787682643
5104073 3 15358524247141921830
54039377 194 11239992387329068229
5718773 13 8862936173782559733
5937810 71 17561090164014909577
6328613 192 18410295791683001833
636775 72 18411979178202921224
636775 8 7925637739469650328
9953998 17 16298384665083182473
999808 66 11314027976308361643

>  <PUBCHEM_SHAPE_MULTIPOLES>  (1) 
554.53
27.11
3.03
1.26
33.29
1.07
0.06
26.46
1.4
-3.91
-0.15
0.32
0
0.77

>  <PUBCHEM_SHAPE_SELFOVERLAP>  (1) 
1176.155

>  <PUBCHEM_SHAPE_VOLUME>  (1) 
307

>  <PUBCHEM_COORDINATE_TYPE>  (1) 
2
5
10

$$$$
