32842
     RDKit          3D

 13 13  0  0  0  0  0  0  0  0999 V2000
    2.1479    2.9998   -0.0005 Cl  0  0  0  0  0  0  0  0  0  0  0  0
    3.6836   -2.1743   -0.0001 Cl  0  0  0  0  0  0  0  0  0  0  0  0
   -3.5054   -0.8301   -0.0009 O   0  0  0  0  0  0  0  0  0  0  0  0
   -2.4439    1.1956    0.0011 O   0  0  0  0  0  0  0  0  0  0  0  0
   -1.2525   -0.8245   -0.0001 N   0  0  0  0  0  0  0  0  0  0  0  0
    0.0852   -0.4275    0.0006 C   0  0  0  0  0  0  0  0  0  0  0  0
    1.0974   -1.3871    0.0004 C   0  0  0  0  0  0  0  0  0  0  0  0
    0.4100    0.9290    0.0003 C   0  0  0  0  0  0  0  0  0  0  0  0
    1.7472    1.3260   -0.0002 C   0  0  0  0  0  0  0  0  0  0  0  0
    2.4346   -0.9902    0.0000 C   0  0  0  0  0  0  0  0  0  0  0  0
    2.7595    0.3664   -0.0002 C   0  0  0  0  0  0  0  0  0  0  0  0
   -2.3950   -0.0283   -0.0001 C   0  0  0  0  0  0  0  0  0  0  0  0
   -4.7686   -0.1549   -0.0002 C   0  0  0  0  0  0  0  0  0  0  0  0
  1  9  1  0
  2 10  1  0
  3 12  1  0
  3 13  1  0
  4 12  2  0
  5  6  1  0
  5 12  1  0
  6  7  2  0
  6  8  1  0
  7 10  1  0
  8  9  2  0
  9 11  1  0
 10 11  2  0
M  END
>  <PUBCHEM_COMPOUND_CID>  (1) 
32842

>  <PUBCHEM_CONFORMER_RMSD>  (1) 
0.6

>  <PUBCHEM_CONFORMER_DIVERSEORDER>  (1) 
1
5
4
2
3

>  <PUBCHEM_MMFF94_PARTIAL_CHARGES>  (1) 
17
1 -0.18
10 0.18
11 -0.15
12 0.78
13 0.28
14 0.15
15 0.15
16 0.37
17 0.15
2 -0.18
3 -0.43
4 -0.57
5 -0.55
6 0.12
7 -0.15
8 -0.15
9 0.18

>  <PUBCHEM_EFFECTIVE_ROTOR_COUNT>  (1) 
3

>  <PUBCHEM_PHARMACOPHORE_FEATURES>  (1) 
3
1 4 acceptor
1 5 donor
6 6 7 8 9 10 11 rings

>  <PUBCHEM_HEAVY_ATOM_COUNT>  (1) 
13

>  <PUBCHEM_ATOM_DEF_STEREO_COUNT>  (1) 
0

>  <PUBCHEM_ATOM_UDEF_STEREO_COUNT>  (1) 
0

>  <PUBCHEM_BOND_DEF_STEREO_COUNT>  (1) 
0

>  <PUBCHEM_BOND_UDEF_STEREO_COUNT>  (1) 
0

>  <PUBCHEM_ISOTOPIC_ATOM_COUNT>  (1) 
0

>  <PUBCHEM_COMPONENT_COUNT>  (1) 
1

>  <PUBCHEM_CACTVS_TAUTO_COUNT>  (1) 
2

>  <PUBCHEM_CONFORMER_ID>  (1) 
0000804A00000001

>  <PUBCHEM_MMFF94_ENERGY>  (1) 
30.3471

>  <PUBCHEM_FEATURE_SELFOVERLAP>  (1) 
15.223

>  <PUBCHEM_SHAPE_FINGERPRINT>  (1) 
10130415 120 18261673662780068970
10608611 8 18335134310990927997
11471102 20 18410290315562561863
12032990 46 18267586810528782486
12346645 6 18341331184152160196
13380535 76 18192146229665267104
13380536 305 18339084886302324886
14251717 144 18410571794728972078
14252887 29 18129945564276768218
14325111 11 18410855503499879873
14648413 74 18263648518722891474
15442244 35 18340489950082217704
15477762 27 18412262830922742502
15501101 241 18260267447247437932
15775835 57 18128822034801112685
16945 1 18338516447401733218
18186145 218 17749383772238637251
18522853 276 18343017766085023657
200 152 18130779045766737127
20339313 130 18341897346846763226
20559304 39 18412545422654253672
20606313 2 18410292518938780916
20645477 70 18410571795140610767
20671657 1 18340210794704306020
20671657 53 18340773620045627390
20708731 107 18334582360432674276
20871998 22 18127695924747055198
21501925 9 18411692162992192226
21524375 3 17912084164093570580
221490 88 18335990868860929275
2255824 54 18410857680943050854
22959321 4 18410856577220669875
23402655 69 18412822482673512181
2748010 2 17832717042666033116
3071541 12 18339084899388005076
3071541 37 18263087759424623020
3286 77 18334293149850578983
449060 62 18268997651371789817
5104073 3 18410014355888297563
54173680 148 17689715264642354826
7364860 26 18341049709360228120
81228 2 17762633797912629416

>  <PUBCHEM_SHAPE_MULTIPOLES>  (1) 
254.55
7.07
2.45
0.6
8.35
1.47
0
-2.16
0
-3.16
0
-0.07
0.01
0

>  <PUBCHEM_SHAPE_SELFOVERLAP>  (1) 
507.508

>  <PUBCHEM_SHAPE_VOLUME>  (1) 
152.6

>  <PUBCHEM_COORDINATE_TYPE>  (1) 
2
5
10

$$$$
