32850
     RDKit          3D

 13 13  0  0  1  0  0  0  0  0999 V2000
    0.1572   -2.0668    1.3273 O   0  0  0  0  0  0  0  0  0  0  0  0
    1.7110    0.0710    0.2451 N   0  0  0  0  0  0  0  0  0  0  0  0
    3.3017    1.7093    0.6258 N   0  0  0  0  0  0  0  0  0  0  0  0
    3.6851    0.2798   -1.1075 N   0  0  0  0  0  0  0  0  0  0  0  0
   -0.0438   -1.6223   -0.0210 C   0  0  0  0  0  0  0  0  0  0  0  0
   -1.1346   -0.6051   -0.0465 C   0  0  0  0  0  0  0  0  0  0  0  0
    1.2848   -1.0755   -0.5647 C   0  0  0  0  0  0  0  0  0  0  0  0
   -1.3370    0.2280    1.0537 C   0  0  0  0  0  0  0  0  0  0  0  0
   -1.9523   -0.4874   -1.1704 C   0  0  0  0  0  0  0  0  0  0  0  0
   -2.3573    1.1790    1.0300 C   0  0  0  0  0  0  0  0  0  0  0  0
   -2.9724    0.4638   -1.1941 C   0  0  0  0  0  0  0  0  0  0  0  0
   -3.1749    1.2970   -0.0940 C   0  0  0  0  0  0  0  0  0  0  0  0
    2.8326    0.6291   -0.0838 C   0  0  0  0  0  0  0  0  0  0  0  0
  1  5  1  0
  2  7  1  0
  2 13  2  3
  3 13  1  0
  4 13  1  0
  5  6  1  0
  5  7  1  0
  6  8  2  0
  6  9  1  0
  8 10  1  0
  9 11  2  0
 10 12  2  0
 11 12  1  0
M  END
>  <PUBCHEM_COMPOUND_CID>  (1) 
32850

>  <PUBCHEM_CONFORMER_RMSD>  (1) 
0.6

>  <PUBCHEM_CONFORMER_DIVERSEORDER>  (1) 
1
29
17
16
22
10
12
19
7
14
2
20
23
5
21
15
27
18
28
11
25
8
24
26
13
6
3
9
4

>  <PUBCHEM_MMFF94_PARTIAL_CHARGES>  (1) 
23
1 -0.68
10 -0.15
11 -0.15
12 -0.15
13 0.55
17 0.15
18 0.15
19 0.15
2 -0.7
20 0.15
21 0.15
22 0.4
23 0.4
24 0.4
25 0.4
26 0.4
3 -0.85
4 -0.85
5 0.42
6 -0.14
7 0.25
8 -0.15
9 -0.15

>  <PUBCHEM_EFFECTIVE_ROTOR_COUNT>  (1) 
3

>  <PUBCHEM_PHARMACOPHORE_FEATURES>  (1) 
6
1 1 acceptor
1 1 donor
1 3 donor
1 4 donor
4 2 3 4 13 cation
6 6 8 9 10 11 12 rings

>  <PUBCHEM_HEAVY_ATOM_COUNT>  (1) 
13

>  <PUBCHEM_ATOM_DEF_STEREO_COUNT>  (1) 
0

>  <PUBCHEM_ATOM_UDEF_STEREO_COUNT>  (1) 
1

>  <PUBCHEM_BOND_DEF_STEREO_COUNT>  (1) 
0

>  <PUBCHEM_BOND_UDEF_STEREO_COUNT>  (1) 
0

>  <PUBCHEM_ISOTOPIC_ATOM_COUNT>  (1) 
0

>  <PUBCHEM_COMPONENT_COUNT>  (1) 
1

>  <PUBCHEM_CACTVS_TAUTO_COUNT>  (1) 
2

>  <PUBCHEM_CONFORMER_ID>  (1) 
0000805200000001

>  <PUBCHEM_MMFF94_ENERGY>  (1) 
36.5698

>  <PUBCHEM_FEATURE_SELFOVERLAP>  (1) 
30.502

>  <PUBCHEM_SHAPE_FINGERPRINT>  (1) 
10618630 7 9511468831260928844
10857977 72 15865219900521554927
11127187 94 14117516532607402637
11769659 78 8069727586626672465
12251169 10 13118007698974284564
12382932 28 13334728025051957572
12897270 3 17132108056831234999
13571099 52 17023736806811750743
13764800 53 18262531384538344987
14577589 140 8286215954268265079
15775835 57 18341051826383537789
16945 1 17846486063287175523
170605 34 18411700941810321599
18186145 218 18343022185733114508
19765921 60 18411408501945498467
20281407 28 9151180852438922740
20645464 45 16443348624543241843
20653085 51 18060148638684620966
20671657 53 13830132789083194714
20828058 34 18342458157626798940
21028194 46 18409454708290050262
21524375 3 18408602548076533734
23552423 10 17557981741532049927
25 1 18339933614605019078
27216 239 17604439624840514556
305870 269 18114176385184223762
526903 126 18058440079182948105
81228 2 17681850822698890986

>  <PUBCHEM_SHAPE_MULTIPOLES>  (1) 
246.72
5.72
1.71
1.24
3.16
0.19
-0.04
-3.35
1.55
0.37
-0.47
-0.39
0.17
-0.16

>  <PUBCHEM_SHAPE_SELFOVERLAP>  (1) 
504.627

>  <PUBCHEM_SHAPE_VOLUME>  (1) 
140.7

>  <PUBCHEM_COORDINATE_TYPE>  (1) 
2
5
10

$$$$
