32857
     RDKit          3D

  9  8  0  0  0  0  0  0  0  0999 V2000
    0.0000   -0.2752    0.0000 O   0  0  0  0  0  0  0  0  0  0  0  0
    4.7972   -0.4572   -0.0080 O   0  0  0  0  0  0  0  0  0  0  0  0
   -4.7972   -0.4572    0.0079 O   0  0  0  0  0  0  0  0  0  0  0  0
    1.1751    0.5243    0.0063 C   0  0  0  0  0  0  0  0  0  0  0  0
   -1.1750    0.5242   -0.0063 C   0  0  0  0  0  0  0  0  0  0  0  0
    2.4063   -0.3681    0.0129 C   0  0  0  0  0  0  0  0  0  0  0  0
   -2.4063   -0.3681   -0.0130 C   0  0  0  0  0  0  0  0  0  0  0  0
    3.6943    0.4386   -0.0001 C   0  0  0  0  0  0  0  0  0  0  0  0
   -3.6943    0.4386    0.0001 C   0  0  0  0  0  0  0  0  0  0  0  0
  1  4  1  0
  1  5  1  0
  2  8  1  0
  3  9  1  0
  4  6  1  0
  5  7  1  0
  6  8  1  0
  7  9  1  0
M  END
>  <PUBCHEM_COMPOUND_CID>  (1) 
32857

>  <PUBCHEM_CONFORMER_RMSD>  (1) 
0.6

>  <PUBCHEM_CONFORMER_DIVERSEORDER>  (1) 
1
83
108
74
9
95
18
96
8
88
107
89
45
40
6
67
92
32
24
41
25
17
3
33
81
56
98
26
2
57
13
86
5
51
34
76
60
7
75
85
73
69
103
37
31
80
52
106
22
4
97
58
102
30
70
105
64
62
65
14
91
15
101
28
84
23
36
16
12
39
72
53
104
78
11
27
71
99
94
47
10
44
68
54
100
66
49
46
77
90
79
21
48
87
43
59
93
50
55
19
82
61
35
63
29
38
42
20

>  <PUBCHEM_MMFF94_PARTIAL_CHARGES>  (1) 
9
1 -0.56
2 -0.68
22 0.4
23 0.4
3 -0.68
4 0.28
5 0.28
8 0.28
9 0.28

>  <PUBCHEM_EFFECTIVE_ROTOR_COUNT>  (1) 
6

>  <PUBCHEM_PHARMACOPHORE_FEATURES>  (1) 
5
1 1 acceptor
1 2 acceptor
1 2 donor
1 3 acceptor
1 3 donor

>  <PUBCHEM_HEAVY_ATOM_COUNT>  (1) 
9

>  <PUBCHEM_ATOM_DEF_STEREO_COUNT>  (1) 
0

>  <PUBCHEM_ATOM_UDEF_STEREO_COUNT>  (1) 
0

>  <PUBCHEM_BOND_DEF_STEREO_COUNT>  (1) 
0

>  <PUBCHEM_BOND_UDEF_STEREO_COUNT>  (1) 
0

>  <PUBCHEM_ISOTOPIC_ATOM_COUNT>  (1) 
0

>  <PUBCHEM_COMPONENT_COUNT>  (1) 
1

>  <PUBCHEM_CACTVS_TAUTO_COUNT>  (1) 
1

>  <PUBCHEM_CONFORMER_ID>  (1) 
0000805900000001

>  <PUBCHEM_MMFF94_ENERGY>  (1) 
7.1799

>  <PUBCHEM_FEATURE_SELFOVERLAP>  (1) 
25.373

>  <PUBCHEM_SHAPE_FINGERPRINT>  (1) 
11062470 55 18410575088958072192
14123238 8 18410012147605128557
17834076 25 18410012134714964844
20645477 70 18270683056673810870
20719005 15 18410856563945319362
22485316 2 18410570690911729991
23402539 116 17989200443890662357
42788 4 18410573985151555084

>  <PUBCHEM_SHAPE_MULTIPOLES>  (1) 
167.61
9.74
0.77
0.58
0
0.04
0
-1.09
0
0
0
0
0.01
0

>  <PUBCHEM_SHAPE_SELFOVERLAP>  (1) 
295.061

>  <PUBCHEM_SHAPE_VOLUME>  (1) 
110.1

>  <PUBCHEM_COORDINATE_TYPE>  (1) 
2
5
10

$$$$
