32855
     RDKit          3D

 12 12  0  0  0  0  0  0  0  0999 V2000
    4.4573   -0.0004   -0.6103 Br  0  0  0  0  0  0  0  0  0  0  0  0
   -2.4391    0.0000   -0.1828 N   0  0  0  0  0  0  0  0  0  0  0  0
   -1.4968    0.0009    1.0122 C   0  0  0  0  0  0  0  0  0  0  0  0
   -2.1901   -1.2434   -1.0244 C   0  0  0  0  0  0  0  0  0  0  0  0
   -3.8799    0.0005    0.3075 C   0  0  0  0  0  0  0  0  0  0  0  0
   -2.1899    1.2417   -1.0266 C   0  0  0  0  0  0  0  0  0  0  0  0
   -0.0489    0.0004    0.6191 C   0  0  0  0  0  0  0  0  0  0  0  0
    0.6153   -1.2077    0.4381 C   0  0  0  0  0  0  0  0  0  0  0  0
    0.6157    1.2082    0.4378 C   0  0  0  0  0  0  0  0  0  0  0  0
    1.9609   -1.2079    0.0711 C   0  0  0  0  0  0  0  0  0  0  0  0
    1.9615    1.2079    0.0707 C   0  0  0  0  0  0  0  0  0  0  0  0
    2.6341   -0.0002   -0.1125 C   0  0  0  0  0  0  0  0  0  0  0  0
  1 12  1  0
  2  3  1  0
  2  4  1  0
  2  5  1  0
  2  6  1  0
  3  7  1  0
  7  8  2  0
  7  9  1  0
  8 10  1  0
  9 11  2  0
 10 12  2  0
 11 12  1  0
M  CHG  1   2   1
M  END
>  <PUBCHEM_COMPOUND_CID>  (1) 
32855

>  <PUBCHEM_CONFORMER_RMSD>  (1) 
0.6

>  <PUBCHEM_CONFORMER_DIVERSEORDER>  (1) 
1

>  <PUBCHEM_MMFF94_PARTIAL_CHARGES>  (1) 
16
1 -0.11
10 -0.15
11 -0.15
12 0.11
2 -1.01
24 0.15
25 0.15
26 0.15
27 0.15
3 0.65
4 0.5
5 0.5
6 0.5
7 -0.14
8 -0.15
9 -0.15

>  <PUBCHEM_EFFECTIVE_ROTOR_COUNT>  (1) 
2

>  <PUBCHEM_PHARMACOPHORE_FEATURES>  (1) 
3
1 1 hydrophobe
1 2 cation
6 7 8 9 10 11 12 rings

>  <PUBCHEM_HEAVY_ATOM_COUNT>  (1) 
12

>  <PUBCHEM_ATOM_DEF_STEREO_COUNT>  (1) 
0

>  <PUBCHEM_ATOM_UDEF_STEREO_COUNT>  (1) 
0

>  <PUBCHEM_BOND_DEF_STEREO_COUNT>  (1) 
0

>  <PUBCHEM_BOND_UDEF_STEREO_COUNT>  (1) 
0

>  <PUBCHEM_ISOTOPIC_ATOM_COUNT>  (1) 
0

>  <PUBCHEM_COMPONENT_COUNT>  (1) 
1

>  <PUBCHEM_CACTVS_TAUTO_COUNT>  (1) 
1

>  <PUBCHEM_CONFORMER_ID>  (1) 
0000805700000001

>  <PUBCHEM_MMFF94_ENERGY>  (1) 
38.7453

>  <PUBCHEM_FEATURE_SELFOVERLAP>  (1) 
15.223

>  <PUBCHEM_SHAPE_FINGERPRINT>  (1) 
11031198 65 18187370912820765367
11062470 55 15482673476467418888
11401426 45 18413668020131879984
11769659 78 15482395244760677252
12138202 97 17168143485258949602
12500047 106 13470690308843850277
12897270 3 18335974346237298765
12932764 1 18410845564560435201
14115302 16 17489588999831754567
14128692 85 17988920119326772874
14911166 2 18410583894310916134
14943859 89 16153430566820503464
14993402 34 18060420205182290454
15310529 11 18187641362969835595
15375462 478 11169911692973796323
15775835 57 18410576192843879735
16945 1 18410844465038257888
17844478 74 18040723558557190553
18186145 218 18343297093836730856
18534176 82 17313394468835469162
19422 9 17845937449987160535
20201158 50 18334297552202626218
20281407 28 13470692546600783460
20528008 55 10807931553119829705
21119208 17 18131635581787179990
21293036 1 18409453587577723654
21501502 16 17824252713796596680
22485316 2 13901906687619855222
22802520 49 17896873249372065357
23402539 116 17022900181241768531
23402655 69 18336257951760686893
23557571 272 16370730330993566511
23559900 14 18202284732665777320
25 1 18260547788247228739
2748010 2 18050015690305705450
528886 8 18410853269747699090
63268167 104 18412262805147456298

>  <PUBCHEM_SHAPE_MULTIPOLES>  (1) 
247.92
6.61
1.36
1
1.96
0
0.1
0
1.49
0.02
0.14
-0.37
0
0

>  <PUBCHEM_SHAPE_SELFOVERLAP>  (1) 
483.95

>  <PUBCHEM_SHAPE_VOLUME>  (1) 
155.9

>  <PUBCHEM_COORDINATE_TYPE>  (1) 
2
5
10

$$$$
