32863
     RDKit          3D

 18 18  0  0  1  0  0  0  0  0999 V2000
    0.7765   -1.6864   -0.3233 O   0  0  0  0  0  0  0  0  0  0  0  0
    2.6486   -2.4967    0.7482 O   0  0  0  0  0  0  0  0  0  0  0  0
    4.2367   -0.6055   -0.3695 N   0  0  0  0  0  0  0  0  0  0  0  0
   -3.4999   -1.0991   -0.2295 C   0  0  0  0  0  0  0  0  0  0  0  0
   -2.0398   -1.2233    0.2110 C   0  0  0  0  0  0  0  0  0  0  0  0
   -4.1377    0.2410    0.1481 C   0  0  0  0  0  0  0  0  0  0  0  0
   -1.4473   -2.5672   -0.2108 C   0  0  0  0  0  0  0  0  0  0  0  0
   -5.5732    0.3947   -0.3563 C   0  0  0  0  0  0  0  0  0  0  0  0
   -0.0073   -2.7186    0.2589 C   0  0  0  0  0  0  0  0  0  0  0  0
   -6.1352    1.7675   -0.0184 C   0  0  0  0  0  0  0  0  0  0  0  0
    2.8056   -0.5171   -0.6725 C   0  0  0  0  0  0  0  0  0  0  0  0
    2.1093   -1.6860    0.0056 C   0  0  0  0  0  0  0  0  0  0  0  0
    2.2322    0.8184   -0.2496 C   0  0  0  0  0  0  0  0  0  0  0  0
    2.2598    1.8775   -1.1400 C   0  0  0  0  0  0  0  0  0  0  0  0
    1.6928    0.9509    1.0180 C   0  0  0  0  0  0  0  0  0  0  0  0
    1.7312    3.1082   -0.7505 C   0  0  0  0  0  0  0  0  0  0  0  0
    1.1642    2.1816    1.4075 C   0  0  0  0  0  0  0  0  0  0  0  0
    1.1835    3.2603    0.5231 C   0  0  0  0  0  0  0  0  0  0  0  0
  1  9  1  0
  1 12  1  0
  2 12  2  0
  3 11  1  0
  4  5  1  0
  4  6  1  0
  5  7  1  0
  6  8  1  0
  7  9  1  0
  8 10  1  0
 11 12  1  0
 11 13  1  0
 13 14  2  0
 13 15  1  0
 14 16  1  0
 15 17  2  0
 16 18  2  0
 17 18  1  0
M  END
>  <PUBCHEM_COMPOUND_CID>  (1) 
32863

>  <PUBCHEM_CONFORMER_RMSD>  (1) 
1

>  <PUBCHEM_CONFORMER_DIVERSEORDER>  (1) 
1
42
205
36
66
134
2
141
157
193
215
8
197
201
38
83
52
57
117
113
140
77
196
97
4
135
212
111
29
46
6
165
49
180
209
59
10
65
75
210
73
43
138
69
25
78
102
144
61
159
17
129
188
39
106
3
189
56
176
86
90
48
40
124
80
118
146
96
114
147
178
155
161
94
142
84
99
12
5
213
89
104
109
60
154
21
156
70
31
128
105
91
23
119
14
51
120
28
160
166
177
162
172
93
27
174
63
18
132
125
151
158
214
15
74
195
150
54
20
217
55
30
24
7
204
13
44
206
53
37
194
130
34
152
202
107
190
88
153
171
32
216
47
11
9
207
208
67
108
19
87
62
98
110
41
50
203
92
68
127
72
187
136
139
131
186
122
45
123
76
200
183
112
185
184
82
64
148
199
163
121
167
33
81
137
182
79
133
85
126
181
115
175
58
103
26
100
16
143
211
116
35
22
145
164
149
101
173
170
192
191
95
169
71
198
179
168

>  <PUBCHEM_MMFF94_PARTIAL_CHARGES>  (1) 
19
1 -0.43
11 0.47
12 0.66
13 -0.14
14 -0.15
15 -0.15
16 -0.15
17 -0.15
18 -0.15
2 -0.57
3 -0.99
35 0.15
36 0.15
37 0.36
38 0.36
39 0.15
40 0.15
41 0.15
9 0.28

>  <PUBCHEM_EFFECTIVE_ROTOR_COUNT>  (1) 
9

>  <PUBCHEM_PHARMACOPHORE_FEATURES>  (1) 
6
1 10 hydrophobe
1 2 acceptor
1 3 cation
1 3 donor
5 4 5 6 7 8 hydrophobe
6 13 14 15 16 17 18 rings

>  <PUBCHEM_HEAVY_ATOM_COUNT>  (1) 
18

>  <PUBCHEM_ATOM_DEF_STEREO_COUNT>  (1) 
0

>  <PUBCHEM_ATOM_UDEF_STEREO_COUNT>  (1) 
1

>  <PUBCHEM_BOND_DEF_STEREO_COUNT>  (1) 
0

>  <PUBCHEM_BOND_UDEF_STEREO_COUNT>  (1) 
0

>  <PUBCHEM_ISOTOPIC_ATOM_COUNT>  (1) 
0

>  <PUBCHEM_COMPONENT_COUNT>  (1) 
1

>  <PUBCHEM_CACTVS_TAUTO_COUNT>  (1) 
1

>  <PUBCHEM_CONFORMER_ID>  (1) 
0000805F00000001

>  <PUBCHEM_MMFF94_ENERGY>  (1) 
24.9934

>  <PUBCHEM_FEATURE_SELFOVERLAP>  (1) 
30.446

>  <PUBCHEM_SHAPE_FINGERPRINT>  (1) 
10498660 4 17258212394088444935
11578080 2 14202838712933507804
12769317 202 18264197025128661695
14251764 38 18338232778087313071
14251764 75 18193573374579507785
14848178 96 18408879668620999357
151778 21 18335147539585197309
15210252 30 18260841371095703204
15238133 3 18260829306674973506
15322687 12 18411138043850208121
15420108 30 17985520455850972866
15848702 68 18411133640986347471
17093844 170 18411978087381389960
17868525 174 18189043210293984091
20621476 13 18411698816229076825
21315764 21 18410296917497534841
21344244 78 17756964741719870507
21860390 5 18200596895700754567
22289505 5 18339642231123101511
22749437 52 18195801006326485413
23558518 356 18047461511440819451
2803657 2 18058754445161123418
3014063 31 18340202969564387201
338550 245 18195819462181667761
3524813 1 18260260820355409101
474 4 18408604756296255403
5048184 11 18266463303076927437
54672768 99 18337111271446990189
5939293 188 18412823590337282846
7832392 63 18341045310902617774
8509985 295 18261947449470057155

>  <PUBCHEM_SHAPE_MULTIPOLES>  (1) 
353.71
9.58
4.08
0.99
19.4
0.75
-0.11
3.56
1.32
-1.91
-0.29
-0.61
0.48
-0.18

>  <PUBCHEM_SHAPE_SELFOVERLAP>  (1) 
701.492

>  <PUBCHEM_SHAPE_VOLUME>  (1) 
210.1

>  <PUBCHEM_COORDINATE_TYPE>  (1) 
2
5
10

$$$$
