32869
     RDKit          3D

 16 15  0  0  0  0  0  0  0  0999 V2000
   -4.9132    0.2743    0.3474 N   0  0  0  0  0  0  0  0  0  0  0  0
    5.2576    0.6859   -0.3136 N   0  0  0  0  0  0  0  0  0  0  0  0
   -7.0998    0.2991   -0.6466 N   0  0  0  0  0  0  0  0  0  0  0  0
   -6.3942    2.0301    0.6575 N   0  0  0  0  0  0  0  0  0  0  0  0
    6.9285   -0.6532    0.7748 N   0  0  0  0  0  0  0  0  0  0  0  0
    7.5153    1.2004   -0.4147 N   0  0  0  0  0  0  0  0  0  0  0  0
   -0.7810   -1.1244    0.1441 C   0  0  0  0  0  0  0  0  0  0  0  0
    0.3426   -0.1772   -0.2821 C   0  0  0  0  0  0  0  0  0  0  0  0
   -2.1479   -0.5990   -0.3025 C   0  0  0  0  0  0  0  0  0  0  0  0
    1.7319   -0.6391    0.1668 C   0  0  0  0  0  0  0  0  0  0  0  0
   -3.2756   -1.5317    0.1493 C   0  0  0  0  0  0  0  0  0  0  0  0
    2.8624    0.2678   -0.3217 C   0  0  0  0  0  0  0  0  0  0  0  0
   -4.6523   -1.0275   -0.2686 C   0  0  0  0  0  0  0  0  0  0  0  0
    4.2172   -0.2160    0.1828 C   0  0  0  0  0  0  0  0  0  0  0  0
   -6.0718    0.8083    0.1152 C   0  0  0  0  0  0  0  0  0  0  0  0
    6.4802    0.4022    0.0120 C   0  0  0  0  0  0  0  0  0  0  0  0
  1 13  1  0
  1 15  2  3
  2 14  1  0
  2 16  2  3
  3 15  1  0
  4 15  1  0
  5 16  1  0
  6 16  1  0
  7  8  1  0
  7  9  1  0
  8 10  1  0
  9 11  1  0
 10 12  1  0
 11 13  1  0
 12 14  1  0
M  END
>  <PUBCHEM_COMPOUND_CID>  (1) 
32869

>  <PUBCHEM_CONFORMER_RMSD>  (1) 
1

>  <PUBCHEM_CONFORMER_DIVERSEORDER>  (1) 
1
489
87
712
325
3
12
419
90
8
475
578
520
47
366
135
161
584
275
9
34
289
432
376
51
469
11
708
147
237
27
29
45
4
181
279
546
17
464
249
559
405
22
514
377
89
387
2
602
588
252
537
32
121
764
360
250
179
112
756
49
627
170
305
772
75
456
19
615
193
507
742
25
245
139
117
200
295
144
63
335
755
141
54
443
103
414
39
334
743
664
56
532
74
569
375
471
395
690
673
48
40
437
402
568
543
222
36
679
31
759
347
492
386
661
291
258
425
513
21
676
271
50
470
202
630
531
320
552
346
6
265
232
617
364
243
145
606
10
626
151
423
599
466
598
357
91
18
367
71
591
57
68
753
490
433
211
736
454
26
185
262
639
350
133
326
205
383
110
192
621
593
339
138
101
706
407
448
607
242
643
82
372
288
358
28
94
685
429
15
733
435
169
542
261
536
404
290
285
85
442
187
349
195
314
129
648
406
460
96
156
757
408
233
272
257
268
128
596
660
98
292
194
453
658
463
338
84
287
447
124
38
745
336
199
730
452
158
236
613
496
247
65
131
371
52
160
563
629

>  <PUBCHEM_MMFF94_PARTIAL_CHARGES>  (1) 
18
1 -0.7
13 0.25
14 0.25
15 0.55
16 0.55
2 -0.7
3 -0.85
33 0.4
34 0.4
35 0.4
36 0.4
37 0.4
38 0.4
39 0.4
4 -0.85
40 0.4
5 -0.85
6 -0.85

>  <PUBCHEM_EFFECTIVE_ROTOR_COUNT>  (1) 
9

>  <PUBCHEM_PHARMACOPHORE_FEATURES>  (1) 
8
1 3 donor
1 4 donor
1 5 donor
1 6 donor
3 7 9 11 hydrophobe
3 8 10 12 hydrophobe
4 1 3 4 15 cation
4 2 5 6 16 cation

>  <PUBCHEM_HEAVY_ATOM_COUNT>  (1) 
16

>  <PUBCHEM_ATOM_DEF_STEREO_COUNT>  (1) 
0

>  <PUBCHEM_ATOM_UDEF_STEREO_COUNT>  (1) 
0

>  <PUBCHEM_BOND_DEF_STEREO_COUNT>  (1) 
0

>  <PUBCHEM_BOND_UDEF_STEREO_COUNT>  (1) 
0

>  <PUBCHEM_ISOTOPIC_ATOM_COUNT>  (1) 
0

>  <PUBCHEM_COMPONENT_COUNT>  (1) 
1

>  <PUBCHEM_CACTVS_TAUTO_COUNT>  (1) 
3

>  <PUBCHEM_CONFORMER_ID>  (1) 
0000806500000001

>  <PUBCHEM_MMFF94_ENERGY>  (1) 
27.9873

>  <PUBCHEM_FEATURE_SELFOVERLAP>  (1) 
40.709

>  <PUBCHEM_SHAPE_FINGERPRINT>  (1) 
10730089 173 18343865498615025953
11089746 13 18343579664014160805
11315181 36 18186801426750195239
117890 112 18412265038488329942
12091667 2 18342458175318682807
125118 31 18341612664015279704
12616971 3 15502663740306512815
13073987 5 14563074902443557700
13167372 99 18408887339100358308
13668630 136 12895353300289329909
13964095 4 18131354115548155414
14123256 10 12823296801557518957
1420 363 13767924620175313402
14251718 22 9655580712122237566
14251752 14 18343018887097939712
14251757 52 18340483469905327480
14251764 18 18187363250889415535
14251764 46 18334012800946700775
14350574 20 9223229641609673791
14729087 3 18343017791818092433
15048467 5 18409167714106212919
155225 1 18341895144568257809
155225 5 17985271777012972177
15716309 27 7997970171915751803
17093844 174 18260266386823129963
17834072 8 17275102842801058243
17834076 25 18411135848520558983
20281389 69 18187362125312533092
20526848 3 18409171008346284869
20621476 38 9367084250737745780
20621476 66 18335706052277875135
20621476 8 18187644678795468534
21054139 6 10735877261648391733
21130983 4 18040999561835126492
21150785 3 15052011273284891687
21267235 1 9943803404878143703
21304253 13 18335421296337288036
220451 1 16950278529592170410
22224240 67 15936408961387211675
22288116 15 17703215313690953855
23035841 295 7997969076778258085
23402539 116 18272366507422203278
23559900 14 12247378125682867063
246663 6 13623526840853100474
28498 318 18060424587030361350
300161 21 17275383214156193126
33532 11 9367080952081621140
42788 4 18409729599361613870
4463277 17 18409449211095830244
57583515 80 18201721760124650827
59567204 34 18343585118750013625
5969126 39 13254803412664818195
59755656 520 17530962505699308995
7062679 6 18409454669973130205
8209 1 18202001040314979471

>  <PUBCHEM_SHAPE_MULTIPOLES>  (1) 
299.39
23.49
1.36
0.71
10.6
0.23
0.01
9.77
0.57
-1.78
0.15
-0.04
0.02
-0.97

>  <PUBCHEM_SHAPE_SELFOVERLAP>  (1) 
556.692

>  <PUBCHEM_SHAPE_VOLUME>  (1) 
183.6

>  <PUBCHEM_COORDINATE_TYPE>  (1) 
2
5
10

$$$$
