32864
     RDKit          3D

 14 13  0  0  1  0  0  0  0  0999 V2000
   -4.2661   -0.7635    0.4957 Cl  0  0  0  0  0  0  0  0  0  0  0  0
   -2.9676    0.3794   -1.8259 Cl  0  0  0  0  0  0  0  0  0  0  0  0
   -3.0123    1.8529    0.6859 Cl  0  0  0  0  0  0  0  0  0  0  0  0
   -1.4785   -1.7684   -0.2356 O   0  0  0  0  0  0  0  0  0  0  0  0
    0.9567   -1.5919    0.8630 O   0  0  0  0  0  0  0  0  0  0  0  0
    2.2216    0.1576    0.0182 N   0  0  0  0  0  0  0  0  0  0  0  0
   -0.2603    0.2784   -0.0329 C   0  0  0  0  0  0  0  0  0  0  0  0
   -1.5423   -0.4721    0.3725 C   0  0  0  0  0  0  0  0  0  0  0  0
    1.0155   -0.4814    0.3287 C   0  0  0  0  0  0  0  0  0  0  0  0
    2.3455    1.4696   -0.6134 C   0  0  0  0  0  0  0  0  0  0  0  0
    3.4839   -0.4914    0.3507 C   0  0  0  0  0  0  0  0  0  0  0  0
   -2.8596    0.2225   -0.0412 C   0  0  0  0  0  0  0  0  0  0  0  0
    2.3954    2.5766    0.4260 C   0  0  0  0  0  0  0  0  0  0  0  0
    3.9681   -1.3682   -0.7917 C   0  0  0  0  0  0  0  0  0  0  0  0
  1 12  1  0
  2 12  1  0
  3 12  1  0
  4  8  1  0
  5  9  2  0
  6  9  1  0
  6 10  1  0
  6 11  1  0
  7  8  1  0
  7  9  1  0
  8 12  1  0
 10 13  1  0
 11 14  1  0
M  END
>  <PUBCHEM_COMPOUND_CID>  (1) 
32864

>  <PUBCHEM_CONFORMER_RMSD>  (1) 
0.6

>  <PUBCHEM_CONFORMER_DIVERSEORDER>  (1) 
1
53
44
11
18
27
16
43
49
52
32
13
54
8
5
38
40
50
47
28
20
19
29
21
41
4
2
12
14
35
23
25
48
10
15
46
24
42
34
31
26
22
17
33
39
37
9
30
36
3
7
51
45
6

>  <PUBCHEM_MMFF94_PARTIAL_CHARGES>  (1) 
13
1 -0.29
10 0.3
11 0.3
12 0.87
2 -0.29
28 0.4
3 -0.29
4 -0.68
5 -0.57
6 -0.66
7 0.06
8 0.28
9 0.57

>  <PUBCHEM_EFFECTIVE_ROTOR_COUNT>  (1) 
6

>  <PUBCHEM_PHARMACOPHORE_FEATURES>  (1) 
3
1 4 acceptor
1 4 donor
1 5 acceptor

>  <PUBCHEM_HEAVY_ATOM_COUNT>  (1) 
14

>  <PUBCHEM_ATOM_DEF_STEREO_COUNT>  (1) 
0

>  <PUBCHEM_ATOM_UDEF_STEREO_COUNT>  (1) 
1

>  <PUBCHEM_BOND_DEF_STEREO_COUNT>  (1) 
0

>  <PUBCHEM_BOND_UDEF_STEREO_COUNT>  (1) 
0

>  <PUBCHEM_ISOTOPIC_ATOM_COUNT>  (1) 
0

>  <PUBCHEM_COMPONENT_COUNT>  (1) 
1

>  <PUBCHEM_CACTVS_TAUTO_COUNT>  (1) 
1

>  <PUBCHEM_CONFORMER_ID>  (1) 
0000806000000001

>  <PUBCHEM_MMFF94_ENERGY>  (1) 
19.8115

>  <PUBCHEM_FEATURE_SELFOVERLAP>  (1) 
15.231

>  <PUBCHEM_SHAPE_FINGERPRINT>  (1) 
10366900 7 17385452011592174547
10608611 8 18334008419389072821
10922523 26 17846223185233909789
11615757 297 18407761430455543857
12162725 195 18342739619729293545
12916754 54 18411704313655080643
12932764 1 17676480648841477203
13675066 3 17917711270913950306
13922767 16 18335128804916538664
14144814 61 18335979770575330442
14250199 8 18412819209428631501
15442244 35 18341054029918038432
15536298 74 18412265072974759816
15775835 57 18337115690677999124
16945 1 18262789679608265834
17041 50 18408602535539525372
17802600 8 18333725823362594357
18186145 218 18260546723090057976
19422 9 18201725076113534443
1986462 14 18260552190778793087
200 152 18411128156972571327
20233049 118 17749945571151243100
20645477 70 18412545435465426126
20653085 51 18410019839949630211
20671657 1 18262248836168509156
20671657 53 18339928121558164324
21524375 3 18187085069894281795
22959321 54 18338234972351630977
23402539 116 18128814153921064502
2748010 2 18188773984400146226
3248919 1 18273207625290612646
3286 77 18408325496847358540
45790113 50 18342746238553458653
58051976 100 18340209690576399535
7364860 26 18271247226724575760
74978 22 18411699902443969230
7832392 63 18125724491296847801
81228 2 17245001675870711610
93112 12 18412263956219920454
9939556 21 18343864450257688958

>  <PUBCHEM_SHAPE_MULTIPOLES>  (1) 
277
7.74
2.09
1.09
0.31
1.05
0.47
-0.63
0.53
-1.07
-0.29
0.67
0.05
0.16

>  <PUBCHEM_SHAPE_SELFOVERLAP>  (1) 
497.457

>  <PUBCHEM_SHAPE_VOLUME>  (1) 
179.1

>  <PUBCHEM_COORDINATE_TYPE>  (1) 
2
5
10

$$$$
