32883
     RDKit          3D

  9  9  0  0  0  0  0  0  0  0999 V2000
    1.9472   -1.9815    0.0000 Cl  0  0  0  0  0  0  0  0  0  0  0  0
    1.1033    0.6096    0.0000 C   0  0  0  0  0  0  0  0  0  0  0  0
   -1.5879   -0.1249    0.0001 C   0  0  0  0  0  0  0  0  0  0  0  0
    0.7486   -0.7395    0.0000 C   0  0  0  0  0  0  0  0  0  0  0  0
    0.1125    1.5914    0.0001 C   0  0  0  0  0  0  0  0  0  0  0  0
   -0.5971   -1.1068    0.0001 C   0  0  0  0  0  0  0  0  0  0  0  0
   -1.2331    1.2241    0.0001 C   0  0  0  0  0  0  0  0  0  0  0  0
    2.5333    1.0446   -0.0001 C   0  0  0  0  0  0  0  0  0  0  0  0
   -3.0268   -0.5168   -0.0002 C   0  0  0  0  0  0  0  0  0  0  0  0
  1  4  1  0
  2  4  2  0
  2  5  1  0
  2  8  1  0
  3  6  2  0
  3  7  1  0
  3  9  1  0
  4  6  1  0
  5  7  2  0
M  END
>  <PUBCHEM_COMPOUND_CID>  (1) 
32883

>  <PUBCHEM_CONFORMER_RMSD>  (1) 
0.4

>  <PUBCHEM_CONFORMER_DIVERSEORDER>  (1) 
1

>  <PUBCHEM_MMFF94_PARTIAL_CHARGES>  (1) 
12
1 -0.18
10 0.15
11 0.15
12 0.15
2 -0.14
3 -0.14
4 0.18
5 -0.15
6 -0.15
7 -0.15
8 0.14
9 0.14

>  <PUBCHEM_EFFECTIVE_ROTOR_COUNT>  (1) 
0

>  <PUBCHEM_PHARMACOPHORE_FEATURES>  (1) 
1
6 2 3 4 5 6 7 rings

>  <PUBCHEM_HEAVY_ATOM_COUNT>  (1) 
9

>  <PUBCHEM_ATOM_DEF_STEREO_COUNT>  (1) 
0

>  <PUBCHEM_ATOM_UDEF_STEREO_COUNT>  (1) 
0

>  <PUBCHEM_BOND_DEF_STEREO_COUNT>  (1) 
0

>  <PUBCHEM_BOND_UDEF_STEREO_COUNT>  (1) 
0

>  <PUBCHEM_ISOTOPIC_ATOM_COUNT>  (1) 
0

>  <PUBCHEM_COMPONENT_COUNT>  (1) 
1

>  <PUBCHEM_CACTVS_TAUTO_COUNT>  (1) 
1

>  <PUBCHEM_CONFORMER_ID>  (1) 
0000807300000001

>  <PUBCHEM_MMFF94_ENERGY>  (1) 
20.7518

>  <PUBCHEM_FEATURE_SELFOVERLAP>  (1) 
5.074

>  <PUBCHEM_SHAPE_FINGERPRINT>  (1) 
14128692 85 18267873774352176822
161256 15 18411141294697144606
16945 1 18338799025821230469
18185500 45 18341327911176071015
193761 8 18194683665915209636
20645477 70 18411411805255981655
21040471 1 17690279730213082788
23235685 24 18264765630789250469
23402655 69 18340469099092246997
23552423 10 18261679160058502878
241688 4 18192151486336056856
2748010 2 18337950073974469701
29004967 10 18334299811503117001
5084963 1 18200870656494045379

>  <PUBCHEM_SHAPE_MULTIPOLES>  (1) 
187.09
3.47
1.92
0.62
0.96
0.23
0
0.54
0
-0.93
0
-0.01
0.01
0

>  <PUBCHEM_SHAPE_SELFOVERLAP>  (1) 
375.828

>  <PUBCHEM_SHAPE_VOLUME>  (1) 
108.5

>  <PUBCHEM_COORDINATE_TYPE>  (1) 
2
5
10

$$$$
