32887
     RDKit          3D

  9  9  0  0  0  0  0  0  0  0999 V2000
    3.0905   -0.0011    0.0003 Cl  0  0  0  0  0  0  0  0  0  0  0  0
   -0.7225    1.2083    0.0004 C   0  0  0  0  0  0  0  0  0  0  0  0
   -0.7234   -1.2078   -0.0002 C   0  0  0  0  0  0  0  0  0  0  0  0
   -1.4203    0.0006    0.0003 C   0  0  0  0  0  0  0  0  0  0  0  0
    0.6723    1.2077    0.0001 C   0  0  0  0  0  0  0  0  0  0  0  0
    0.6716   -1.2084   -0.0004 C   0  0  0  0  0  0  0  0  0  0  0  0
    1.3695   -0.0006   -0.0003 C   0  0  0  0  0  0  0  0  0  0  0  0
   -1.4676    2.5003   -0.0004 C   0  0  0  0  0  0  0  0  0  0  0  0
   -1.4700   -2.4989    0.0002 C   0  0  0  0  0  0  0  0  0  0  0  0
  1  7  1  0
  2  4  2  0
  2  5  1  0
  2  8  1  0
  3  4  1  0
  3  6  2  0
  3  9  1  0
  5  7  2  0
  6  7  1  0
M  END
>  <PUBCHEM_COMPOUND_CID>  (1) 
32887

>  <PUBCHEM_CONFORMER_RMSD>  (1) 
0.4

>  <PUBCHEM_CONFORMER_DIVERSEORDER>  (1) 
1

>  <PUBCHEM_MMFF94_PARTIAL_CHARGES>  (1) 
12
1 -0.18
10 0.15
11 0.15
12 0.15
2 -0.14
3 -0.14
4 -0.15
5 -0.15
6 -0.15
7 0.18
8 0.14
9 0.14

>  <PUBCHEM_EFFECTIVE_ROTOR_COUNT>  (1) 
0

>  <PUBCHEM_PHARMACOPHORE_FEATURES>  (1) 
1
6 2 3 4 5 6 7 rings

>  <PUBCHEM_HEAVY_ATOM_COUNT>  (1) 
9

>  <PUBCHEM_ATOM_DEF_STEREO_COUNT>  (1) 
0

>  <PUBCHEM_ATOM_UDEF_STEREO_COUNT>  (1) 
0

>  <PUBCHEM_BOND_DEF_STEREO_COUNT>  (1) 
0

>  <PUBCHEM_BOND_UDEF_STEREO_COUNT>  (1) 
0

>  <PUBCHEM_ISOTOPIC_ATOM_COUNT>  (1) 
0

>  <PUBCHEM_COMPONENT_COUNT>  (1) 
1

>  <PUBCHEM_CACTVS_TAUTO_COUNT>  (1) 
1

>  <PUBCHEM_CONFORMER_ID>  (1) 
0000807700000001

>  <PUBCHEM_MMFF94_ENERGY>  (1) 
19.1594

>  <PUBCHEM_FEATURE_SELFOVERLAP>  (1) 
5.074

>  <PUBCHEM_SHAPE_FINGERPRINT>  (1) 
1 1 17689434884412949420
12423570 1 10682841180115938725
12716758 59 18269278976198445654
16945 1 18410575084810771974
18185500 45 17906737251515567542
20871998 184 18272936067620423950
21040471 1 18266458694207519648
23552423 10 18043812198325310014
23552449 1 18339358681645375630
2748010 2 18051969508997883388
29004967 10 17615968154528678443

>  <PUBCHEM_SHAPE_MULTIPOLES>  (1) 
187.09
2.88
2.64
0.62
2.63
0
0
0
0
-2.08
0
0.01
0
0

>  <PUBCHEM_SHAPE_SELFOVERLAP>  (1) 
375.096

>  <PUBCHEM_SHAPE_VOLUME>  (1) 
108

>  <PUBCHEM_COORDINATE_TYPE>  (1) 
2
5
10

$$$$
