32880
     RDKit          3D

 18 18  0  0  0  0  0  0  0  0999 V2000
   -4.4334   -1.4322    0.0551 S   0  0  0  0  0  0  0  0  0  0  0  0
   -4.0588   -2.3407   -1.2517 O   0  0  0  0  0  0  0  0  0  0  0  0
   -4.0142   -2.1840    1.2289 O   0  0  0  0  0  0  0  0  0  0  0  0
   -5.8101   -0.9843   -0.0862 O   0  0  0  0  0  0  0  0  0  0  0  0
    3.5757   -0.0201   -0.1800 C   0  0  0  0  0  0  0  0  0  0  0  0
    2.4681    0.5310    0.7232 C   0  0  0  0  0  0  0  0  0  0  0  0
    4.9577   -0.0144    0.4766 C   0  0  0  0  0  0  0  0  0  0  0  0
    1.0769    0.6286    0.0896 C   0  0  0  0  0  0  0  0  0  0  0  0
    6.0364   -0.4897   -0.4992 C   0  0  0  0  0  0  0  0  0  0  0  0
    0.0023    1.1315    1.0568 C   0  0  0  0  0  0  0  0  0  0  0  0
    7.4135   -0.5164    0.1637 C   0  0  0  0  0  0  0  0  0  0  0  0
   -1.3641    1.1250    0.4187 C   0  0  0  0  0  0  0  0  0  0  0  0
   -2.1572   -0.0078    0.5219 C   0  0  0  0  0  0  0  0  0  0  0  0
    8.4825   -1.0209   -0.7925 C   0  0  0  0  0  0  0  0  0  0  0  0
   -1.8054    2.2514   -0.2590 C   0  0  0  0  0  0  0  0  0  0  0  0
   -3.4218   -0.0144   -0.0669 C   0  0  0  0  0  0  0  0  0  0  0  0
   -3.0699    2.2450   -0.8476 C   0  0  0  0  0  0  0  0  0  0  0  0
   -3.8782    1.1121   -0.7515 C   0  0  0  0  0  0  0  0  0  0  0  0
  1  2  1  0
  1  3  2  0
  1  4  2  0
  1 16  1  0
  5  6  1  0
  5  7  1  0
  6  8  1  0
  7  9  1  0
  8 10  1  0
  9 11  1  0
 10 12  1  0
 11 14  1  0
 12 13  2  0
 12 15  1  0
 13 16  1  0
 15 17  2  0
 16 18  2  0
 17 18  1  0
M  END
>  <PUBCHEM_COMPOUND_CID>  (1) 
32880

>  <PUBCHEM_CONFORMER_RMSD>  (1) 
0.8

>  <PUBCHEM_CONFORMER_DIVERSEORDER>  (1) 
1
112
148
159
188
82
52
106
17
119
181
202
18
179
138
46
59
12
133
37
102
193
4
6
199
158
144
184
194
41
83
98
200
74
170
11
96
51
104
22
175
121
43
198
120
53
162
166
62
201
155
105
19
196
130
65
147
60
197
95
167
117
191
118
69
135
67
140
204
50
165
152
142
88
137
91
66
93
2
153
160
85
203
111
185
164
128
186
20
47
150
92
101
48
54
180
38
16
49
131
113
125
89
87
124
107
127
108
174
33
8
73
39
169
77
129
123
90
99
136
76
32
94
114
28
55
163
109
97
36
42
81
75
110
14
78
31
192
172
173
132
177
161
187
143
182
63
86
15
146
58
84
145
7
168
72
5
24
79
35
26
64
61
23
176
134
68
122
195
3
9
154
151
70
57
71
116
126
21
171
139
40
100
115
44
45
25
178
30
183
13
10
190
27
157
103
141
56
80
149
34
156
189
29

>  <PUBCHEM_MMFF94_PARTIAL_CHARGES>  (1) 
16
1 1.49
10 0.14
12 -0.14
13 -0.15
15 -0.15
16 -0.01
17 -0.15
18 -0.15
2 -0.68
3 -0.65
33 0.15
37 0.15
38 0.15
39 0.15
4 -0.65
40 0.5

>  <PUBCHEM_EFFECTIVE_ROTOR_COUNT>  (1) 
8

>  <PUBCHEM_PHARMACOPHORE_FEATURES>  (1) 
6
1 14 hydrophobe
1 2 acceptor
1 3 acceptor
1 4 acceptor
4 1 2 3 4 anion
6 12 13 15 16 17 18 rings

>  <PUBCHEM_HEAVY_ATOM_COUNT>  (1) 
18

>  <PUBCHEM_ATOM_DEF_STEREO_COUNT>  (1) 
0

>  <PUBCHEM_ATOM_UDEF_STEREO_COUNT>  (1) 
0

>  <PUBCHEM_BOND_DEF_STEREO_COUNT>  (1) 
0

>  <PUBCHEM_BOND_UDEF_STEREO_COUNT>  (1) 
0

>  <PUBCHEM_ISOTOPIC_ATOM_COUNT>  (1) 
0

>  <PUBCHEM_COMPONENT_COUNT>  (1) 
1

>  <PUBCHEM_CACTVS_TAUTO_COUNT>  (1) 
1

>  <PUBCHEM_CONFORMER_ID>  (1) 
0000807000000001

>  <PUBCHEM_MMFF94_ENERGY>  (1) 
16.7365

>  <PUBCHEM_FEATURE_SELFOVERLAP>  (1) 
30.503

>  <PUBCHEM_SHAPE_FINGERPRINT>  (1) 
10291535 26 11241964854837642359
11089746 13 16877949330797285284
11315181 36 18342460322686351432
11524674 6 16845570928707975703
12091667 2 17749115461352695224
12760667 363 18342176695914785395
13288520 33 18409729564885765985
13668630 136 18201442442234249358
1420 363 17632859716323694824
14251718 22 18409167702054819352
14729087 3 10953459648582782622
15183329 4 16732982012451014090
15461852 350 12035743019561393696
15716309 27 16988843882777168792
16992828 155 16300347155805696828
17093844 174 16845287203062789512
17780758 139 17346885550358068579
17870717 6 18408039593991461117
18643901 69 18411421713412665471
18927931 339 18409167718691454119
19489759 90 18186520982254301864
20281389 69 8070024468046531014
20621476 21 18271810154902707546
21054139 6 18186238429583873458
21150785 3 17968100833286691028
21267235 1 18261114106193397587
21307412 95 18264478654957063823
21426921 1 18335419024178158205
21623969 137 17203332191771389830
220451 1 18188209793649712704
22288116 15 16877954866514439930
2297311 6 18409448085429614753
23081809 10 13326560875099965208
23198884 109 17022904545086543608
23402539 116 17967249788962980612
23557571 272 18411138022164641301
23559900 14 18336817675824903984
25122255 55 18201729422884565758
270888 7 8285662900109852695
300161 21 13190343479020212976
3663271 9 11743830349525948564
445580 160 18341897398597763862
7062679 117 18260548913850348728
999808 66 17632581539755403830

>  <PUBCHEM_SHAPE_MULTIPOLES>  (1) 
356.67
19.31
2.13
1
44.81
0.21
0
10.54
4.23
-4.21
0.31
-0.29
0.11
0.9

>  <PUBCHEM_SHAPE_SELFOVERLAP>  (1) 
693.793

>  <PUBCHEM_SHAPE_VOLUME>  (1) 
215.7

>  <PUBCHEM_COORDINATE_TYPE>  (1) 
2
5
10

$$$$
