32890
     RDKit          3D

 25 27  0  0  0  0  0  0  0  0999 V2000
    1.9707    3.1730    0.1964 S   0  0  0  0  0  0  0  0  0  0  0  0
   -5.8559    1.1363   -0.5313 O   0  0  0  0  0  0  0  0  0  0  0  0
    1.2171    0.1749    0.5237 N   0  0  0  0  0  0  0  0  0  0  0  0
    0.1369   -4.5681   -0.4923 N   0  0  0  0  0  0  0  0  0  0  0  0
   -4.6139    1.7679   -0.4644 N   0  0  0  0  0  0  0  0  0  0  0  0
    0.8976   -1.1396    1.0954 C   0  0  0  0  0  0  0  0  0  0  0  0
    0.6521   -2.2002    0.0239 C   0  0  0  0  0  0  0  0  0  0  0  0
    0.1360    1.0564    0.2692 C   0  0  0  0  0  0  0  0  0  0  0  0
    2.5741    0.4367    0.2067 C   0  0  0  0  0  0  0  0  0  0  0  0
    0.3489   -3.5968    0.5740 C   0  0  0  0  0  0  0  0  0  0  0  0
    0.3531    2.4356    0.0790 C   0  0  0  0  0  0  0  0  0  0  0  0
    3.0326    1.7543    0.0100 C   0  0  0  0  0  0  0  0  0  0  0  0
   -1.1942    0.5959    0.1587 C   0  0  0  0  0  0  0  0  0  0  0  0
   -2.2581    1.4629   -0.1048 C   0  0  0  0  0  0  0  0  0  0  0  0
    3.5163   -0.6015    0.0380 C   0  0  0  0  0  0  0  0  0  0  0  0
   -0.7217    3.3042   -0.1810 C   0  0  0  0  0  0  0  0  0  0  0  0
   -2.0221    2.8189   -0.2718 C   0  0  0  0  0  0  0  0  0  0  0  0
    4.3777    2.0078   -0.3126 C   0  0  0  0  0  0  0  0  0  0  0  0
   -3.6123    0.9428   -0.2122 C   0  0  0  0  0  0  0  0  0  0  0  0
    4.8508   -0.3443   -0.2877 C   0  0  0  0  0  0  0  0  0  0  0  0
   -1.0009   -4.1776   -1.3267 C   0  0  0  0  0  0  0  0  0  0  0  0
   -0.0769   -5.9057    0.0633 C   0  0  0  0  0  0  0  0  0  0  0  0
    5.2827    0.9620   -0.4601 C   0  0  0  0  0  0  0  0  0  0  0  0
   -3.8771   -0.5709   -0.0261 C   0  0  0  0  0  0  0  0  0  0  0  0
   -4.1138   -0.9247    1.4327 C   0  0  0  0  0  0  0  0  0  0  0  0
  1 11  1  0
  1 12  1  0
  2  5  1  0
  3  6  1  0
  3  8  1  0
  3  9  1  0
  4 10  1  0
  4 21  1  0
  4 22  1  0
  5 19  2  0
  6  7  1  0
  7 10  1  0
  8 11  2  0
  8 13  1  0
  9 12  2  0
  9 15  1  0
 11 16  1  0
 12 18  1  0
 13 14  2  0
 14 17  1  0
 14 19  1  0
 15 20  2  0
 16 17  2  0
 18 23  2  0
 19 24  1  0
 20 23  1  0
 24 25  1  0
M  END
>  <PUBCHEM_COMPOUND_CID>  (1) 
32890

>  <PUBCHEM_CONFORMER_RMSD>  (1) 
0.8

>  <PUBCHEM_CONFORMER_DIVERSEORDER>  (1) 
2
38
45
56
55
39
42
49
3
32
34
36
44
27
46
20
48
60
23
51
54
43
35
31
50
28
33
52
21
58
57
25
40
26
29
30
59
15
61
19
13
22
8
17
37
47
9
53
10
14
16
11
4
24
18
12
41
6
1
5
7

>  <PUBCHEM_MMFF94_PARTIAL_CHARGES>  (1) 
31
1 -0.2
10 0.27
11 0.1
12 0.1
13 -0.15
14 0.09
15 -0.15
16 -0.15
17 -0.15
18 -0.15
19 0.3
2 -0.34
20 -0.15
21 0.27
22 0.27
23 -0.15
24 0.06
3 -0.57
32 0.15
33 0.15
34 0.15
35 0.15
36 0.15
37 0.15
4 -0.81
44 0.15
5 -0.51
50 0.4
6 0.37
8 0.1
9 0.1

>  <PUBCHEM_EFFECTIVE_ROTOR_COUNT>  (1) 
6.4

>  <PUBCHEM_PHARMACOPHORE_FEATURES>  (1) 
8
1 2 anion
1 25 hydrophobe
1 3 cation
1 4 cation
1 5 acceptor
6 1 3 8 9 11 12 rings
6 8 11 13 14 16 17 rings
6 9 12 15 18 20 23 rings

>  <PUBCHEM_HEAVY_ATOM_COUNT>  (1) 
25

>  <PUBCHEM_ATOM_DEF_STEREO_COUNT>  (1) 
0

>  <PUBCHEM_ATOM_UDEF_STEREO_COUNT>  (1) 
0

>  <PUBCHEM_BOND_DEF_STEREO_COUNT>  (1) 
0

>  <PUBCHEM_BOND_UDEF_STEREO_COUNT>  (1) 
1

>  <PUBCHEM_ISOTOPIC_ATOM_COUNT>  (1) 
0

>  <PUBCHEM_COMPONENT_COUNT>  (1) 
1

>  <PUBCHEM_CACTVS_TAUTO_COUNT>  (1) 
2

>  <PUBCHEM_CONFORMER_ID>  (1) 
0000807A00000002

>  <PUBCHEM_MMFF94_ENERGY>  (1) 
88.2402

>  <PUBCHEM_FEATURE_SELFOVERLAP>  (1) 
40.626

>  <PUBCHEM_SHAPE_FINGERPRINT>  (1) 
10411042 1 17401487543160597514
10616163 171 18336546015122257977
1100329 8 18194964269087301912
11014199 57 17401770121105561922
11488393 25 18120949312360973970
116883 192 17763459917433929606
12839892 36 18121198906269595834
13140716 1 18412270540632294873
13402501 40 18261397771360972593
138480 1 17618220611462024662
14790565 3 18410860966451107609
14863182 85 18336554806582514580
14866123 147 18267301109367841898
15131766 46 15287355239985194980
15196674 1 18335421291709874472
15927050 60 17760940931731384437
16728300 4 17317859401637347354
18681886 176 18261671566773283568
19591789 44 18337954592274647377
20028762 73 18271237210639562086
20775438 99 17480544550019967487
21344244 181 18201452350085946382
21478907 32 17546447138153493722
23558518 356 17756700102903825736
23559900 14 17762605201429691297
23566358 27 17762630490128753305
283562 15 18199473173469470352
3380486 145 17760385665600803496
38695281 34 18410856555619310771
3882209 13 17109277557270194487
4280585 95 17112124141203225154
5104073 3 18411136901226079400
5486654 2 18410295830591194596
57307002 85 17533249450982152595
59025328 239 16262057075685036486
59755656 215 18191590752543477852
7164475 11 17401769017461763054
9709674 26 17976539404172013331

>  <PUBCHEM_SHAPE_MULTIPOLES>  (1) 
497.53
9.04
6.45
0.89
0.25
11.58
0.07
-5.38
-1.03
2.61
-1.07
0.41
0.42
0.2

>  <PUBCHEM_SHAPE_SELFOVERLAP>  (1) 
1034.845

>  <PUBCHEM_SHAPE_VOLUME>  (1) 
285

>  <PUBCHEM_COORDINATE_TYPE>  (1) 
2
5
10

$$$$
