32899
     RDKit          3D

 10  9  0  0  0  0  0  0  0  0999 V2000
    1.6058    0.8211   -0.1758 C   0  0  0  0  0  0  0  0  0  0  0  0
    0.1604    0.5411    0.2412 C   0  0  0  0  0  0  0  0  0  0  0  0
    2.5258   -0.3428    0.1997 C   0  0  0  0  0  0  0  0  0  0  0  0
   -0.8136    1.6624   -0.1396 C   0  0  0  0  0  0  0  0  0  0  0  0
    3.9645   -0.0800   -0.2448 C   0  0  0  0  0  0  0  0  0  0  0  0
   -2.2820    1.4300    0.2337 C   0  0  0  0  0  0  0  0  0  0  0  0
    4.8754   -1.2485    0.0958 C   0  0  0  0  0  0  0  0  0  0  0  0
   -2.8580    0.1770   -0.3599 C   0  0  0  0  0  0  0  0  0  0  0  0
   -3.2981   -0.8590    0.3690 C   0  0  0  0  0  0  0  0  0  0  0  0
   -3.8803   -2.1012   -0.2193 C   0  0  0  0  0  0  0  0  0  0  0  0
  1  2  1  0
  1  3  1  0
  2  4  1  0
  3  5  1  0
  4  6  1  0
  5  7  1  0
  6  8  1  0
  8  9  2  0
  9 10  1  0
M  END
>  <PUBCHEM_COMPOUND_CID>  (1) 
32899

>  <PUBCHEM_CONFORMER_RMSD>  (1) 
0.6

>  <PUBCHEM_CONFORMER_DIVERSEORDER>  (1) 
1
121
47
128
32
2
126
102
25
28
113
58
117
87
18
72
20
122
26
112
56
29
23
135
54
37
92
80
71
133
13
33
116
97
15
74
98
31
45
67
101
124
7
114
104
130
44
134
91
78
107
14
43
109
53
129
60
127
106
132
9
16
81
46
79
30
82
10
21
73
85
70
119
61
6
55
90
111
50
84
123
131
76
48
35
59
69
39
3
4
120
11
17
100
8
75
94
66
19
125
65
86
96
77
51
99
62
42
27
5
83
63
36
103
52
88
34
57
110
41
49
40
118
105
68
115
89
24
12
93
64
95
108
38
22

>  <PUBCHEM_MMFF94_PARTIAL_CHARGES>  (1) 
6
10 0.14
26 0.15
27 0.15
6 0.14
8 -0.29
9 -0.29

>  <PUBCHEM_EFFECTIVE_ROTOR_COUNT>  (1) 
6

>  <PUBCHEM_PHARMACOPHORE_FEATURES>  (1) 
2
1 10 hydrophobe
1 7 hydrophobe

>  <PUBCHEM_HEAVY_ATOM_COUNT>  (1) 
10

>  <PUBCHEM_ATOM_DEF_STEREO_COUNT>  (1) 
0

>  <PUBCHEM_ATOM_UDEF_STEREO_COUNT>  (1) 
0

>  <PUBCHEM_BOND_DEF_STEREO_COUNT>  (1) 
0

>  <PUBCHEM_BOND_UDEF_STEREO_COUNT>  (1) 
1

>  <PUBCHEM_ISOTOPIC_ATOM_COUNT>  (1) 
0

>  <PUBCHEM_COMPONENT_COUNT>  (1) 
1

>  <PUBCHEM_CACTVS_TAUTO_COUNT>  (1) 
1

>  <PUBCHEM_CONFORMER_ID>  (1) 
0000808300000001

>  <PUBCHEM_MMFF94_ENERGY>  (1) 
-3.2407

>  <PUBCHEM_FEATURE_SELFOVERLAP>  (1) 
10.149

>  <PUBCHEM_SHAPE_FINGERPRINT>  (1) 
11046707 91 18411417310580517827
11159736 12 18041549244624437042
11987891 38 18340488859767146902
12032990 46 18413108368360082944
12757275 245 18409450275794194923
13237642 15 18059564815775632640
13255334 9 18198349464053886438
14123255 352 9871753481140317979
14123260 362 10881676875847162191
14251710 61 18411420643485916411
14251732 16 18411414034665099026
14252887 29 16702305616476733726
177051 138 18411136969485729324
17834072 33 18333739026888426756
17834074 16 18271810064745298398
18915474 69 18260552255292810974
20281475 54 18411705395617684440
20621476 21 17845952744798972670
20671657 53 18333735753274410893
20828058 44 18343019943923612368
21061003 4 17060334128309106873
22485316 2 18335136454137183208
22926399 65 8142087558888399318
22959321 4 18410856607106398188
23402539 116 17022903407131343244
23403322 49 18409164428788820183
27216 239 10592043583430893135
59345605 10 18412258454683338370
59345606 119 18411700980575861998
59345606 38 9727366710035737635

>  <PUBCHEM_SHAPE_MULTIPOLES>  (1) 
205.8
9.46
1.88
0.68
6.84
0.37
0
6.2
0.18
-1.75
0.05
-0.07
0.01
-0.2

>  <PUBCHEM_SHAPE_SELFOVERLAP>  (1) 
363.146

>  <PUBCHEM_SHAPE_VOLUME>  (1) 
135.2

>  <PUBCHEM_COORDINATE_TYPE>  (1) 
2
5
10

$$$$
