3289
     RDKit          3D

 13 12  0  0  0  0  0  0  0  0999 V2000
   -1.7223   -0.9075    0.9001 S   0  0  0  0  0  0  0  0  0  0  0  0
    1.7203   -0.9088    0.9011 S   0  0  0  0  0  0  0  0  0  0  0  0
   -0.0009   -0.4114   -0.2094 P   0  0  0  0  0  0  0  0  0  0  0  0
    0.0026    1.1813   -0.5433 O   0  0  0  0  0  0  0  0  0  0  0  0
    0.0013   -1.2133   -1.4878 O   0  0  0  0  0  0  0  0  0  0  0  0
   -3.1137   -0.4770   -0.1641 C   0  0  0  0  0  0  0  0  0  0  0  0
    3.1113   -0.4762   -0.1624 C   0  0  0  0  0  0  0  0  0  0  0  0
   -4.4344   -0.7909    0.5300 C   0  0  0  0  0  0  0  0  0  0  0  0
    4.4320   -0.7905    0.5313 C   0  0  0  0  0  0  0  0  0  0  0  0
   -5.6181   -0.4287   -0.3551 C   0  0  0  0  0  0  0  0  0  0  0  0
    5.6154   -0.4342   -0.3565 C   0  0  0  0  0  0  0  0  0  0  0  0
    0.0013    2.1329    0.5061 C   0  0  0  0  0  0  0  0  0  0  0  0
    0.0050    3.5244   -0.0899 C   0  0  0  0  0  0  0  0  0  0  0  0
  1  3  1  0
  1  6  1  0
  2  3  1  0
  2  7  1  0
  3  4  1  0
  3  5  2  0
  4 12  1  0
  6  8  1  0
  7  9  1  0
  8 10  1  0
  9 11  1  0
 12 13  1  0
M  END
>  <PUBCHEM_COMPOUND_CID>  (1) 
3289

>  <PUBCHEM_CONFORMER_RMSD>  (1) 
0.8

>  <PUBCHEM_CONFORMER_DIVERSEORDER>  (1) 
1
115
165
38
140
179
177
59
104
170
106
24
29
7
131
159
175
16
36
129
185
178
125
181
65
150
168
183
117
28
166
139
156
27
11
164
120
13
121
105
35
128
51
119
173
26
137
171
32
66
123
155
154
162
46
22
157
67
151
122
153
93
107
146
114
18
152
142
14
180
2
134
138
69
172
149
95
132
45
124
96
3
126
12
174
75
34
47
167
182
37
6
148
169
110
141
61
68
127
33
9
57
30
186
144
56
98
76
109
4
49
31
176
5
82
187
130
25
108
80
143
48
20
83
8
55
23
10
42
94
77
102
58
161
100
81
163
103
116
63
147
19
90
158
145
111
73
54
135
160
99
50
43
189
60
39
118
44
40
52
86
62
97
190
188
87
53
84
64
191
88
79
41
72
71
70
133
136
184
78
17
15
85
74
101
21
92
112
113
89
91

>  <PUBCHEM_MMFF94_PARTIAL_CHARGES>  (1) 
8
1 -0.48
12 0.28
2 -0.48
3 1.47
4 -0.55
5 -0.7
6 0.23
7 0.23

>  <PUBCHEM_EFFECTIVE_ROTOR_COUNT>  (1) 
8

>  <PUBCHEM_PHARMACOPHORE_FEATURES>  (1) 
2
1 10 hydrophobe
1 11 hydrophobe

>  <PUBCHEM_HEAVY_ATOM_COUNT>  (1) 
13

>  <PUBCHEM_ATOM_DEF_STEREO_COUNT>  (1) 
0

>  <PUBCHEM_ATOM_UDEF_STEREO_COUNT>  (1) 
0

>  <PUBCHEM_BOND_DEF_STEREO_COUNT>  (1) 
0

>  <PUBCHEM_BOND_UDEF_STEREO_COUNT>  (1) 
0

>  <PUBCHEM_ISOTOPIC_ATOM_COUNT>  (1) 
0

>  <PUBCHEM_COMPONENT_COUNT>  (1) 
1

>  <PUBCHEM_CACTVS_TAUTO_COUNT>  (1) 
1

>  <PUBCHEM_CONFORMER_ID>  (1) 
00000CD900000001

>  <PUBCHEM_MMFF94_ENERGY>  (1) 
-3.5911

>  <PUBCHEM_FEATURE_SELFOVERLAP>  (1) 
10.149

>  <PUBCHEM_SHAPE_FINGERPRINT>  (1) 
10756046 70 17986668366821103549
10922049 32 10592044656597580545
124424 183 18259988193180386219
14993402 34 18343302591115476727
15048467 5 17167580488002781023
17834076 25 17530684307471323842
18186145 218 10737572777366529122
187816 3 18041000635107757610
20671657 1 18194405721976577269
23402539 116 18343579625507310583
23557571 272 18271251517196197700
23558518 356 17829054212614223674
3250762 1 17551522041387472382
366044 4 9583517616125584992
68521 5 18335984168622166108
69090 78 10447921763756701026

>  <PUBCHEM_SHAPE_MULTIPOLES>  (1) 
267.34
10.54
2.41
0.99
0.03
3.98
0.06
-5.37
0.7
-0.01
-0.14
0
-0.26
0

>  <PUBCHEM_SHAPE_SELFOVERLAP>  (1) 
438.623

>  <PUBCHEM_SHAPE_VOLUME>  (1) 
186

>  <PUBCHEM_COORDINATE_TYPE>  (1) 
2
5
10

$$$$
