32916
     RDKit          3D

 14 14  0  0  0  0  0  0  0  0999 V2000
    4.4357    0.6528    0.0371 O   0  0  0  0  0  0  0  0  0  0  0  0
   -3.7715   -1.3296   -0.2689 O   0  0  0  0  0  0  0  0  0  0  0  0
   -5.6842    0.5285    0.2023 O   0  0  0  0  0  0  0  0  0  0  0  0
   -4.3218    0.8550    0.2484 N   0  0  0  0  0  0  0  0  0  0  0  0
    0.3924   -0.2740   -0.1044 C   0  0  0  0  0  0  0  0  0  0  0  0
    0.8097    1.0500   -0.2399 C   0  0  0  0  0  0  0  0  0  0  0  0
    1.3339   -1.2869    0.0786 C   0  0  0  0  0  0  0  0  0  0  0  0
    3.1102    0.3484   -0.0094 C   0  0  0  0  0  0  0  0  0  0  0  0
    2.1685    1.3612   -0.1924 C   0  0  0  0  0  0  0  0  0  0  0  0
    2.6928   -0.9757    0.1261 C   0  0  0  0  0  0  0  0  0  0  0  0
   -1.0243   -0.5995   -0.1535 C   0  0  0  0  0  0  0  0  0  0  0  0
   -2.0338    0.2748    0.0576 C   0  0  0  0  0  0  0  0  0  0  0  0
   -3.4522   -0.1742   -0.0084 C   0  0  0  0  0  0  0  0  0  0  0  0
    5.3447   -0.4307    0.2269 C   0  0  0  0  0  0  0  0  0  0  0  0
  1  8  1  0
  1 14  1  0
  2 13  2  0
  3  4  1  0
  4 13  1  0
  5  6  2  0
  5  7  1  0
  5 11  1  0
  6  9  1  0
  7 10  2  0
  8  9  2  0
  8 10  1  0
 11 12  2  0
 12 13  1  0
M  END
>  <PUBCHEM_COMPOUND_CID>  (1) 
32916

>  <PUBCHEM_CONFORMER_RMSD>  (1) 
0.6

>  <PUBCHEM_CONFORMER_DIVERSEORDER>  (1) 
1
3
4
2

>  <PUBCHEM_MMFF94_PARTIAL_CHARGES>  (1) 
22
1 -0.36
10 -0.15
11 -0.18
12 -0.14
13 0.62
14 0.28
15 0.15
16 0.15
17 0.15
18 0.15
19 0.15
2 -0.57
20 0.15
24 0.37
25 0.4
3 -0.44
4 -0.39
5 0.03
6 -0.15
7 -0.15
8 0.08
9 -0.15

>  <PUBCHEM_EFFECTIVE_ROTOR_COUNT>  (1) 
4

>  <PUBCHEM_PHARMACOPHORE_FEATURES>  (1) 
4
1 1 acceptor
1 2 acceptor
1 4 donor
6 5 6 7 8 9 10 rings

>  <PUBCHEM_HEAVY_ATOM_COUNT>  (1) 
14

>  <PUBCHEM_ATOM_DEF_STEREO_COUNT>  (1) 
0

>  <PUBCHEM_ATOM_UDEF_STEREO_COUNT>  (1) 
0

>  <PUBCHEM_BOND_DEF_STEREO_COUNT>  (1) 
0

>  <PUBCHEM_BOND_UDEF_STEREO_COUNT>  (1) 
1

>  <PUBCHEM_ISOTOPIC_ATOM_COUNT>  (1) 
0

>  <PUBCHEM_COMPONENT_COUNT>  (1) 
1

>  <PUBCHEM_CACTVS_TAUTO_COUNT>  (1) 
3

>  <PUBCHEM_CONFORMER_ID>  (1) 
0000809400000001

>  <PUBCHEM_MMFF94_ENERGY>  (1) 
44.5658

>  <PUBCHEM_FEATURE_SELFOVERLAP>  (1) 
20.297

>  <PUBCHEM_SHAPE_FINGERPRINT>  (1) 
10354089 29 18408890628802363265
11401426 45 18343580750292707560
11471102 20 18409446981685959388
12236239 1 18131349717433092031
13922767 16 18341894121173356240
17834072 33 18343300409171499991
17834076 25 18410575080383935907
18186145 218 18113893871036333023
18522853 276 18342458127425098745
200 152 18273212015137553263
20279233 1 17676214563033359675
20645477 70 18270119006950279399
21267235 1 18410582807283640303
212847 35 18411703205379724176
23402539 116 17632570565502032701
23402655 69 18413105048366096637
26918003 58 18040720272933492137
3545911 37 18412827975968137073
42 15 18334295370332781484
4214541 1 18410855477967472439
42788 4 18411136935110160209
4463277 17 18408886239942009044
4990 188 18131360712976696542
5104073 3 18337672022033810747
53655031 270 18411981343308945920

>  <PUBCHEM_SHAPE_MULTIPOLES>  (1) 
265.52
10.73
1.27
0.62
5.94
0.02
0
-0.65
1.02
-0.23
-0.04
-0.03
0
-0.29

>  <PUBCHEM_SHAPE_SELFOVERLAP>  (1) 
546.725

>  <PUBCHEM_SHAPE_VOLUME>  (1) 
153.2

>  <PUBCHEM_COORDINATE_TYPE>  (1) 
2
5
10

$$$$
