32929
     RDKit          3D

 10 10  0  0  0  0  0  0  0  0999 V2000
    2.9467    0.0001   -0.0033 Br  0  0  0  0  0  0  0  0  0  0  0  0
    1.1768   -2.9154    0.0027 Br  0  0  0  0  0  0  0  0  0  0  0  0
    1.1760    2.9157    0.0026 Br  0  0  0  0  0  0  0  0  0  0  0  0
   -3.1193   -0.0007   -0.0003 O   0  0  0  0  0  0  0  0  0  0  0  0
   -1.7582   -0.0001   -0.0008 C   0  0  0  0  0  0  0  0  0  0  0  0
   -1.0611    1.2080   -0.0004 C   0  0  0  0  0  0  0  0  0  0  0  0
   -1.0606   -1.2081   -0.0006 C   0  0  0  0  0  0  0  0  0  0  0  0
    1.0316    0.0003    0.0002 C   0  0  0  0  0  0  0  0  0  0  0  0
    0.3344   -1.2079   -0.0001 C   0  0  0  0  0  0  0  0  0  0  0  0
    0.3337    1.2082    0.0000 C   0  0  0  0  0  0  0  0  0  0  0  0
  1  8  1  0
  2  9  1  0
  3 10  1  0
  4  5  1  0
  5  6  2  0
  5  7  1  0
  6 10  1  0
  7  9  2  0
  8  9  1  0
  8 10  2  0
M  END
>  <PUBCHEM_COMPOUND_CID>  (1) 
32929

>  <PUBCHEM_CONFORMER_RMSD>  (1) 
0.4

>  <PUBCHEM_CONFORMER_DIVERSEORDER>  (1) 
1

>  <PUBCHEM_MMFF94_PARTIAL_CHARGES>  (1) 
13
1 -0.11
10 0.11
11 0.15
12 0.15
13 0.45
2 -0.11
3 -0.11
4 -0.53
5 0.08
6 -0.15
7 -0.15
8 0.11
9 0.11

>  <PUBCHEM_EFFECTIVE_ROTOR_COUNT>  (1) 
0

>  <PUBCHEM_PHARMACOPHORE_FEATURES>  (1) 
5
1 1 hydrophobe
1 2 hydrophobe
1 3 hydrophobe
1 4 donor
6 5 6 7 8 9 10 rings

>  <PUBCHEM_HEAVY_ATOM_COUNT>  (1) 
10

>  <PUBCHEM_ATOM_DEF_STEREO_COUNT>  (1) 
0

>  <PUBCHEM_ATOM_UDEF_STEREO_COUNT>  (1) 
0

>  <PUBCHEM_BOND_DEF_STEREO_COUNT>  (1) 
0

>  <PUBCHEM_BOND_UDEF_STEREO_COUNT>  (1) 
0

>  <PUBCHEM_ISOTOPIC_ATOM_COUNT>  (1) 
0

>  <PUBCHEM_COMPONENT_COUNT>  (1) 
1

>  <PUBCHEM_CACTVS_TAUTO_COUNT>  (1) 
2

>  <PUBCHEM_CONFORMER_ID>  (1) 
000080A100000001

>  <PUBCHEM_MMFF94_ENERGY>  (1) 
23.706

>  <PUBCHEM_FEATURE_SELFOVERLAP>  (1) 
25.373

>  <PUBCHEM_SHAPE_FINGERPRINT>  (1) 
12423570 1 15158731701590914388
13380535 76 17836358624776469484
161256 15 18124882252789711078
16945 1 18410573985293869445
193761 8 17690279313891217024
20588541 1 18334862696910793819
20645476 183 17751658751938201958
20871998 184 16470099016545155908
21040471 1 17906171007380401861
21501502 16 17907299849545440682
2334 1 17978228592854444167
23552423 10 17686057597246717180
241688 4 17906173953659070713
2748010 2 18048318031008633327
5084963 1 18059012907476260184

>  <PUBCHEM_SHAPE_MULTIPOLES>  (1) 
217.75
3.28
3.27
0.65
0.7
0.19
0
-0.15
0
-1.72
-0.01
-0.09
0
0

>  <PUBCHEM_SHAPE_SELFOVERLAP>  (1) 
410.721

>  <PUBCHEM_SHAPE_VOLUME>  (1) 
142.5

>  <PUBCHEM_COORDINATE_TYPE>  (1) 
2
5
10

$$$$
