32924
     RDKit          3D

 11 10  0  0  0  0  0  0  0  0999 V2000
   -0.0027    2.4554   -0.8844 S   0  0  0  0  0  0  0  0  0  0  0  0
   -0.0002    0.7335    0.0230 P   0  0  0  0  0  0  0  0  0  0  0  0
    1.2469   -0.2510   -0.3219 O   0  0  0  0  0  0  0  0  0  0  0  0
   -1.2464   -0.2532   -0.3182 O   0  0  0  0  0  0  0  0  0  0  0  0
    2.5589    0.0674    0.1089 C   0  0  0  0  0  0  0  0  0  0  0  0
   -2.5579    0.0630    0.1165 C   0  0  0  0  0  0  0  0  0  0  0  0
    3.5080   -1.0265   -0.3556 C   0  0  0  0  0  0  0  0  0  0  0  0
   -3.5064   -1.0327   -0.3452 C   0  0  0  0  0  0  0  0  0  0  0  0
    0.0023    0.7568    1.8189 C   0  0  0  0  0  0  0  0  0  0  0  0
    4.9362   -0.7595    0.0845 C   0  0  0  0  0  0  0  0  0  0  0  0
   -4.9387   -0.7532    0.0734 C   0  0  0  0  0  0  0  0  0  0  0  0
  1  2  2  0
  2  3  1  0
  2  4  1  0
  2  9  1  0
  3  5  1  0
  4  6  1  0
  5  7  1  0
  6  8  1  0
  7 10  1  0
  8 11  1  0
M  END
>  <PUBCHEM_COMPOUND_CID>  (1) 
32924

>  <PUBCHEM_CONFORMER_RMSD>  (1) 
0.6

>  <PUBCHEM_CONFORMER_DIVERSEORDER>  (1) 
9
52
55
32
40
38
15
37
11
34
17
50
20
28
7
46
44
53
31
36
16
6
33
45
25
43
13
35
29
41
54
26
8
49
1
42
39
4
51
21
48
24
22
14
30
2
10
3
18
19
47
5
12
23
27

>  <PUBCHEM_MMFF94_PARTIAL_CHARGES>  (1) 
6
1 -0.68
2 1.22
3 -0.55
4 -0.55
5 0.28
6 0.28

>  <PUBCHEM_EFFECTIVE_ROTOR_COUNT>  (1) 
6

>  <PUBCHEM_PHARMACOPHORE_FEATURES>  (1) 
2
1 10 hydrophobe
1 11 hydrophobe

>  <PUBCHEM_HEAVY_ATOM_COUNT>  (1) 
11

>  <PUBCHEM_ATOM_DEF_STEREO_COUNT>  (1) 
0

>  <PUBCHEM_ATOM_UDEF_STEREO_COUNT>  (1) 
0

>  <PUBCHEM_BOND_DEF_STEREO_COUNT>  (1) 
0

>  <PUBCHEM_BOND_UDEF_STEREO_COUNT>  (1) 
0

>  <PUBCHEM_ISOTOPIC_ATOM_COUNT>  (1) 
0

>  <PUBCHEM_COMPONENT_COUNT>  (1) 
1

>  <PUBCHEM_CACTVS_TAUTO_COUNT>  (1) 
1

>  <PUBCHEM_CONFORMER_ID>  (1) 
0000809C00000009

>  <PUBCHEM_MMFF94_ENERGY>  (1) 
-1.0436

>  <PUBCHEM_FEATURE_SELFOVERLAP>  (1) 
10.149

>  <PUBCHEM_SHAPE_FINGERPRINT>  (1) 
10922049 32 8214141871497596321
114248 4 15791452638331635206
12119455 92 12679181574552741536
12251169 10 14836402544751841090
12346645 44 9583529706669474519
124424 183 17418091014647813673
14252887 29 16773807986727721782
17041 50 18041547131616403021
18186145 218 16225768540254634285
187816 3 17022905640192460272
200 152 17749390339069527074
20339313 130 18336548321598843069
204376 136 10879991367555694461
20671657 53 18335707156221893389
20711985 327 18412833494489786517
20871999 31 18040709230446116565
21119208 17 15285358422555801238
21293036 1 15068342315049666110
21524375 3 8070028869586253478
22218785 32 13984663650624421394
22485316 2 18341890788036160863
23402539 116 18040432149141613788
23402655 69 13046210694025534087
298252 57 12829209983470954560
366044 4 12035449441103117680

>  <PUBCHEM_SHAPE_MULTIPOLES>  (1) 
222.34
8.82
1.7
1.05
0.01
1.4
-0.53
-6.23
0.79
0
0.51
0
0.32
0

>  <PUBCHEM_SHAPE_SELFOVERLAP>  (1) 
373.396

>  <PUBCHEM_SHAPE_VOLUME>  (1) 
153.1

>  <PUBCHEM_COORDINATE_TYPE>  (1) 
2
5
10

$$$$
