32920
     RDKit          3D

 18 18  0  0  0  0  0  0  0  0999 V2000
   -3.2771    0.2849    0.7977 O   0  0  0  0  0  0  0  0  0  0  0  0
   -2.3045   -2.2343    0.1389 O   0  0  0  0  0  0  0  0  0  0  0  0
    5.0203   -1.0377   -0.1034 O   0  0  0  0  0  0  0  0  0  0  0  0
    6.7210    1.0125   -0.5902 O   0  0  0  0  0  0  0  0  0  0  0  0
    5.3442    1.2265   -0.4370 N   0  0  0  0  0  0  0  0  0  0  0  0
   -3.8844    1.2435   -0.0662 C   0  0  0  0  0  0  0  0  0  0  0  0
   -1.9392    0.0766    0.6480 C   0  0  0  0  0  0  0  0  0  0  0  0
   -5.3377    0.8537   -0.2888 C   0  0  0  0  0  0  0  0  0  0  0  0
   -1.4510   -1.1876    0.3177 C   0  0  0  0  0  0  0  0  0  0  0  0
    0.8052   -0.3241    0.3479 C   0  0  0  0  0  0  0  0  0  0  0  0
   -0.0789   -1.3879    0.1676 C   0  0  0  0  0  0  0  0  0  0  0  0
   -1.0553    1.1405    0.8282 C   0  0  0  0  0  0  0  0  0  0  0  0
    0.3169    0.9401    0.6782 C   0  0  0  0  0  0  0  0  0  0  0  0
   -6.0475    1.8248   -1.2150 C   0  0  0  0  0  0  0  0  0  0  0  0
    2.2360   -0.5329    0.1913 C   0  0  0  0  0  0  0  0  0  0  0  0
    3.1460    0.4399   -0.0404 C   0  0  0  0  0  0  0  0  0  0  0  0
   -2.8035   -2.4456   -1.1804 C   0  0  0  0  0  0  0  0  0  0  0  0
    4.5894    0.1072   -0.1942 C   0  0  0  0  0  0  0  0  0  0  0  0
  1  6  1  0
  1  7  1  0
  2  9  1  0
  2 17  1  0
  3 18  2  0
  4  5  1  0
  5 18  1  0
  6  8  1  0
  7  9  2  0
  7 12  1  0
  8 14  1  0
  9 11  1  0
 10 11  2  0
 10 13  1  0
 10 15  1  0
 12 13  2  0
 15 16  2  0
 16 18  1  0
M  END
>  <PUBCHEM_COMPOUND_CID>  (1) 
32920

>  <PUBCHEM_CONFORMER_RMSD>  (1) 
0.8

>  <PUBCHEM_CONFORMER_DIVERSEORDER>  (1) 
1
30
28
9
34
35
6
22
23
14
27
17
33
5
10
20
26
21
24
15
16
7
2
12
32
29
25
3
31
13
8
4
11
18
19

>  <PUBCHEM_MMFF94_PARTIAL_CHARGES>  (1) 
23
1 -0.36
10 0.03
11 -0.15
12 -0.15
13 -0.15
15 -0.18
16 -0.14
17 0.28
18 0.62
2 -0.36
23 0.15
24 0.15
25 0.15
29 0.15
3 -0.57
30 0.15
34 0.37
35 0.4
4 -0.44
5 -0.39
6 0.28
7 0.08
9 0.08

>  <PUBCHEM_EFFECTIVE_ROTOR_COUNT>  (1) 
7

>  <PUBCHEM_PHARMACOPHORE_FEATURES>  (1) 
6
1 1 acceptor
1 14 hydrophobe
1 2 acceptor
1 3 acceptor
1 5 donor
6 7 9 10 11 12 13 rings

>  <PUBCHEM_HEAVY_ATOM_COUNT>  (1) 
18

>  <PUBCHEM_ATOM_DEF_STEREO_COUNT>  (1) 
0

>  <PUBCHEM_ATOM_UDEF_STEREO_COUNT>  (1) 
0

>  <PUBCHEM_BOND_DEF_STEREO_COUNT>  (1) 
0

>  <PUBCHEM_BOND_UDEF_STEREO_COUNT>  (1) 
1

>  <PUBCHEM_ISOTOPIC_ATOM_COUNT>  (1) 
0

>  <PUBCHEM_COMPONENT_COUNT>  (1) 
1

>  <PUBCHEM_CACTVS_TAUTO_COUNT>  (1) 
3

>  <PUBCHEM_CONFORMER_ID>  (1) 
0000809800000001

>  <PUBCHEM_MMFF94_ENERGY>  (1) 
58.9384

>  <PUBCHEM_FEATURE_SELFOVERLAP>  (1) 
30.45

>  <PUBCHEM_SHAPE_FINGERPRINT>  (1) 
10014705 185 18408325505468922064
10366900 7 16988847163852738386
11315181 36 17988933301409638168
117890 112 17240484675950547717
12236239 1 18113054943817282002
12555020 224 18130788915111291343
12670543 26 18200592488900660845
13214271 11 17676494960126123355
13257819 101 17459176401381940983
13533116 47 17988360343913683762
13540713 4 17772174564996384129
13760787 19 18410293623146608106
14341114 176 9655568617689341976
14911166 2 18201716237165947441
15048467 5 18040152903000092421
15099037 51 18413387618549080585
167882 2 18196655086375455535
187816 3 17918272026698278673
19427546 20 18266180710865400982
19784866 240 13039183727912476073
200 152 15769777939890715682
20281389 69 17458062625609085853
20602899 9 16056875841084448215
20645477 56 18407760339328284641
20645477 70 16558199190102461678
20871999 31 18340481270153882951
21637258 2 13758059767618029269
23402539 116 18411699920114390518
23402655 69 18411699872226178416
23559900 14 17988638640519546536
2838139 119 17822285760957752261
293599 30 18335420141080158049
300161 21 18410009953668072688
34934 24 18334293149792628114
3759504 43 18040436590449502235
465052 167 10375575040968240897
5104073 3 18412548738933490042
53917941 68 18335692875677134507
559249 180 18411133624018098290
59755656 520 17095522902707918434
633830 44 17458347480935522320
636775 8 10951768625385333416

>  <PUBCHEM_SHAPE_MULTIPOLES>  (1) 
341.97
13.51
2.03
0.93
10.16
1.08
0.1
-7.56
5.43
-2.08
0.52
-0.68
-0.06
-0.06

>  <PUBCHEM_SHAPE_SELFOVERLAP>  (1) 
694.162

>  <PUBCHEM_SHAPE_VOLUME>  (1) 
200.1

>  <PUBCHEM_COORDINATE_TYPE>  (1) 
2
5
10

$$$$
