32935
     RDKit          3D

  8  7  0  0  0  0  0  0  0  0999 V2000
    1.6199   -0.1660   -0.2466 C   0  0  0  0  0  0  0  0  0  0  0  0
    0.6130    0.9513    0.0343 C   0  0  0  0  0  0  0  0  0  0  0  0
    3.0174    0.2103    0.2462 C   0  0  0  0  0  0  0  0  0  0  0  0
   -0.7655    0.5682   -0.4200 C   0  0  0  0  0  0  0  0  0  0  0  0
    4.0143   -0.9119    0.0044 C   0  0  0  0  0  0  0  0  0  0  0  0
   -1.8339    0.5306    0.3895 C   0  0  0  0  0  0  0  0  0  0  0  0
   -3.2131    0.1570   -0.0667 C   0  0  0  0  0  0  0  0  0  0  0  0
   -3.4521   -1.3396    0.0589 C   0  0  0  0  0  0  0  0  0  0  0  0
  1  2  1  0
  1  3  1  0
  2  4  1  0
  3  5  1  0
  4  6  2  0
  6  7  1  0
  7  8  1  0
M  END
>  <PUBCHEM_COMPOUND_CID>  (1) 
32935

>  <PUBCHEM_CONFORMER_RMSD>  (1) 
0.6

>  <PUBCHEM_CONFORMER_DIVERSEORDER>  (1) 
1
21
20
5
18
15
2
8
11
9
10
3
12
22
6
13
16
7
19
14
4
17

>  <PUBCHEM_MMFF94_PARTIAL_CHARGES>  (1) 
6
15 0.15
19 0.15
2 0.14
4 -0.29
6 -0.29
7 0.14

>  <PUBCHEM_EFFECTIVE_ROTOR_COUNT>  (1) 
4

>  <PUBCHEM_PHARMACOPHORE_FEATURES>  (1) 
3
1 5 hydrophobe
1 8 hydrophobe
4 1 2 3 4 hydrophobe

>  <PUBCHEM_HEAVY_ATOM_COUNT>  (1) 
8

>  <PUBCHEM_ATOM_DEF_STEREO_COUNT>  (1) 
0

>  <PUBCHEM_ATOM_UDEF_STEREO_COUNT>  (1) 
0

>  <PUBCHEM_BOND_DEF_STEREO_COUNT>  (1) 
0

>  <PUBCHEM_BOND_UDEF_STEREO_COUNT>  (1) 
1

>  <PUBCHEM_ISOTOPIC_ATOM_COUNT>  (1) 
0

>  <PUBCHEM_COMPONENT_COUNT>  (1) 
1

>  <PUBCHEM_CACTVS_TAUTO_COUNT>  (1) 
1

>  <PUBCHEM_CONFORMER_ID>  (1) 
000080A700000001

>  <PUBCHEM_MMFF94_ENERGY>  (1) 
-3.5567

>  <PUBCHEM_FEATURE_SELFOVERLAP>  (1) 
15.223

>  <PUBCHEM_SHAPE_FINGERPRINT>  (1) 
10149128 111 10807935989509992147
11062470 55 11891337543198907772
12932764 1 17313375717003200533
14251710 61 18189060952793535803
14325111 11 18411419514030752384
14390081 3 9151177541082441045
170605 34 10231763287757155948
177051 138 18412545426811940942
190213 19 18202561765733752248
20211469 26 18343298167457034247
20281407 28 18335421248854542896
20828058 44 18272932708839823762
21293036 1 13623533462948975969
22485316 2 18334571330713908890

>  <PUBCHEM_SHAPE_MULTIPOLES>  (1) 
164.64
7.42
1.15
0.67
1.96
0.24
0
3.14
-0.34
-0.37
-0.01
-0.02
-0.02
0.04

>  <PUBCHEM_SHAPE_SELFOVERLAP>  (1) 
288.064

>  <PUBCHEM_SHAPE_VOLUME>  (1) 
109.2

>  <PUBCHEM_COORDINATE_TYPE>  (1) 
2
5
10

$$$$
