32938
     RDKit          3D

 21 22  0  0  1  0  0  0  0  0999 V2000
    0.5452    1.1856    0.7580 O   0  0  0  0  0  0  0  0  0  0  0  0
    2.2186    1.3726   -0.8194 O   0  0  0  0  0  0  0  0  0  0  0  0
   -2.7084    1.3423   -0.5481 N   0  0  0  0  0  0  0  0  0  0  0  0
   -0.0597    0.1222   -0.0064 C   0  0  0  0  0  0  0  0  0  0  0  0
   -1.3645   -0.3447    0.7150 C   0  0  0  0  0  0  0  0  0  0  0  0
   -0.4365    0.7693   -1.3601 C   0  0  0  0  0  0  0  0  0  0  0  0
   -2.3880    0.8125    0.7839 C   0  0  0  0  0  0  0  0  0  0  0  0
   -1.5057    1.8602   -1.2100 C   0  0  0  0  0  0  0  0  0  0  0  0
   -2.0052   -1.5854    0.0712 C   0  0  0  0  0  0  0  0  0  0  0  0
    0.9992   -0.9771   -0.0892 C   0  0  0  0  0  0  0  0  0  0  0  0
   -3.7299    2.3850   -0.4539 C   0  0  0  0  0  0  0  0  0  0  0  0
    1.5461   -1.3244   -1.3234 C   0  0  0  0  0  0  0  0  0  0  0  0
    1.4157   -1.6304    1.0695 C   0  0  0  0  0  0  0  0  0  0  0  0
   -3.2383   -1.9898    0.8097 C   0  0  0  0  0  0  0  0  0  0  0  0
    1.6857    1.7183    0.2261 C   0  0  0  0  0  0  0  0  0  0  0  0
    2.5121   -2.3279   -1.3991 C   0  0  0  0  0  0  0  0  0  0  0  0
    2.3817   -2.6337    0.9939 C   0  0  0  0  0  0  0  0  0  0  0  0
    2.1883    2.8111    1.1401 C   0  0  0  0  0  0  0  0  0  0  0  0
    2.9299   -2.9825   -0.2404 C   0  0  0  0  0  0  0  0  0  0  0  0
   -4.4562   -2.0259    0.2576 C   0  0  0  0  0  0  0  0  0  0  0  0
    3.4698    3.4429    0.6250 C   0  0  0  0  0  0  0  0  0  0  0  0
  1  4  1  0
  1 15  1  0
  2 15  2  0
  3  7  1  0
  3  8  1  0
  3 11  1  0
  4  5  1  0
  4  6  1  0
  4 10  1  0
  5  7  1  0
  5  9  1  0
  6  8  1  0
  9 14  1  0
 10 12  2  0
 10 13  1  0
 12 16  1  0
 13 17  2  0
 14 20  2  0
 15 18  1  0
 16 19  2  0
 17 19  1  0
 18 21  1  0
M  END
>  <PUBCHEM_COMPOUND_CID>  (1) 
32938

>  <PUBCHEM_CONFORMER_RMSD>  (1) 
0.8

>  <PUBCHEM_CONFORMER_DIVERSEORDER>  (1) 
5
39
20
24
32
2
55
14
8
40
18
31
33
45
56
47
44
38
11
57
59
29
28
25
52
9
12
41
53
1
36
4
49
43
27
46
37
16
3
58
35
19
26
22
54
10
51
48
13
60
23
34
50
30
42
15
7
6
17
21

>  <PUBCHEM_MMFF94_PARTIAL_CHARGES>  (1) 
26
1 -0.43
10 -0.14
11 0.27
12 -0.15
13 -0.15
14 -0.29
15 0.66
16 -0.15
17 -0.15
18 0.06
19 -0.15
2 -0.57
20 -0.3
3 -0.81
34 0.15
35 0.15
36 0.15
37 0.15
38 0.15
4 0.42
41 0.15
42 0.15
43 0.15
7 0.27
8 0.27
9 0.14

>  <PUBCHEM_EFFECTIVE_ROTOR_COUNT>  (1) 
7.2

>  <PUBCHEM_PHARMACOPHORE_FEATURES>  (1) 
6
1 2 acceptor
1 20 hydrophobe
1 21 hydrophobe
1 3 cation
6 10 12 13 16 17 19 rings
6 3 4 5 6 7 8 rings

>  <PUBCHEM_HEAVY_ATOM_COUNT>  (1) 
21

>  <PUBCHEM_ATOM_DEF_STEREO_COUNT>  (1) 
0

>  <PUBCHEM_ATOM_UDEF_STEREO_COUNT>  (1) 
2

>  <PUBCHEM_BOND_DEF_STEREO_COUNT>  (1) 
0

>  <PUBCHEM_BOND_UDEF_STEREO_COUNT>  (1) 
0

>  <PUBCHEM_ISOTOPIC_ATOM_COUNT>  (1) 
0

>  <PUBCHEM_COMPONENT_COUNT>  (1) 
1

>  <PUBCHEM_CACTVS_TAUTO_COUNT>  (1) 
1

>  <PUBCHEM_CONFORMER_ID>  (1) 
000080AA00000005

>  <PUBCHEM_MMFF94_ENERGY>  (1) 
56.3991

>  <PUBCHEM_FEATURE_SELFOVERLAP>  (1) 
30.446

>  <PUBCHEM_SHAPE_FINGERPRINT>  (1) 
10382601 240 18196100060362200459
11578080 2 17241868931373021126
11680986 33 18409724037199507017
12507560 14 17905598900651586131
12553582 1 17909846335486661354
12788726 201 17475236799861194734
12839892 36 18123454240524978042
12930653 34 18338793536969441081
13083527 12 18193813024462849482
13140716 1 18337111177236791163
13149001 5 18192418680715235437
13681431 1 18129376004283808144
14022347 108 17837777724910386310
14115302 16 17899989222312511406
14178342 30 18261392303662330933
14223421 5 18410576231767591139
14466204 15 17474106501935079177
14787075 74 18261406541995849318
14863182 85 17902527213230472055
14955137 171 18201997721085897266
15490181 7 18127404764423523452
16945 1 18197216073195895935
19591789 44 18267584787831034768
19784866 170 18121220041777109969
20028762 73 16974220660921642766
20600515 1 17979898429121453274
20691752 17 17167866352683702099
20905425 154 18410866476777441582
21421861 104 18334574685315950563
21501502 16 18335421253297112271
21524375 3 18054230105353204736
22182313 1 18187079581653577455
23184049 29 18335983086591081451
23402539 116 17691961978740235300
23419403 2 17317003036376741830
23559900 14 18340481162700442835
2748010 2 18260831505650503023
3084891 72 17329425052226605065
3250762 1 18408597050560456477
350125 39 18409451422502918880
5845 1 10921389647078831088
5902787 121 18264770960965250530
59554788 281 16878213281837651177
59755656 215 18337109076549494164
6138700 20 18341344361934737740
7364860 26 18342745147426095618
74978 22 18265617589429486923
81228 2 17967539004003482641
9709674 26 18411410692589867767

>  <PUBCHEM_SHAPE_MULTIPOLES>  (1) 
415.45
6.21
4.27
1.3
4.35
1.01
0.22
-0.57
-0.54
-3.11
-0.53
-0.4
-0.06
1.68

>  <PUBCHEM_SHAPE_SELFOVERLAP>  (1) 
860.893

>  <PUBCHEM_SHAPE_VOLUME>  (1) 
233.3

>  <PUBCHEM_COORDINATE_TYPE>  (1) 
2
5
10

$$$$
