32940
     RDKit          3D

 20 22  0  0  1  0  0  0  0  0999 V2000
    5.3925    0.6980    0.6376 Cl  0  0  0  0  0  0  0  0  0  0  0  0
   -0.5894   -0.4855   -2.0477 O   0  0  0  0  0  0  0  0  0  0  0  0
   -2.1928   -1.9297   -0.3670 N   0  0  0  0  0  0  0  0  0  0  0  0
   -0.1200   -2.4044    0.4751 N   0  0  0  0  0  0  0  0  0  0  0  0
   -1.7446    0.8266    1.0588 N   0  0  0  0  0  0  0  0  0  0  0  0
   -0.3954   -0.2496   -0.6392 C   0  0  0  0  0  0  0  0  0  0  0  0
   -0.9011   -1.5727   -0.1566 C   0  0  0  0  0  0  0  0  0  0  0  0
    1.0766   -0.0096   -0.3143 C   0  0  0  0  0  0  0  0  0  0  0  0
   -2.4203   -3.2299    0.1903 C   0  0  0  0  0  0  0  0  0  0  0  0
   -1.2661    0.9174   -0.1872 C   0  0  0  0  0  0  0  0  0  0  0  0
   -1.0291   -3.5609    0.7644 C   0  0  0  0  0  0  0  0  0  0  0  0
    1.4439    0.1709    1.0012 C   0  0  0  0  0  0  0  0  0  0  0  0
    1.9872    0.0192   -1.3480 C   0  0  0  0  0  0  0  0  0  0  0  0
   -1.4844    1.9415   -1.0706 C   0  0  0  0  0  0  0  0  0  0  0  0
    2.7889    0.3914    1.2979 C   0  0  0  0  0  0  0  0  0  0  0  0
    3.3322    0.2396   -1.0515 C   0  0  0  0  0  0  0  0  0  0  0  0
   -2.2828    2.9901   -0.6274 C   0  0  0  0  0  0  0  0  0  0  0  0
    3.7332    0.4256    0.2717 C   0  0  0  0  0  0  0  0  0  0  0  0
   -2.5161    1.8639    1.4544 C   0  0  0  0  0  0  0  0  0  0  0  0
   -2.8123    2.9583    0.6579 C   0  0  0  0  0  0  0  0  0  0  0  0
  1 18  1  0
  2  6  1  0
  3  7  1  0
  3  9  1  0
  4  7  2  0
  4 11  1  0
  5 10  2  0
  5 19  1  0
  6  7  1  0
  6  8  1  0
  6 10  1  0
  8 12  2  0
  8 13  1  0
  9 11  1  0
 10 14  1  0
 12 15  1  0
 13 16  2  0
 14 17  2  0
 15 18  2  0
 16 18  1  0
 17 20  1  0
 19 20  2  0
M  END
>  <PUBCHEM_COMPOUND_CID>  (1) 
32940

>  <PUBCHEM_CONFORMER_RMSD>  (1) 
0.6

>  <PUBCHEM_CONFORMER_DIVERSEORDER>  (1) 
1
15
13
8
10
18
6
19
20
14
21
11
3
16
17
5
4
12
2
9
7

>  <PUBCHEM_MMFF94_PARTIAL_CHARGES>  (1) 
30
1 -0.18
10 0.17
11 0.25
12 -0.15
13 -0.15
14 -0.15
15 -0.15
16 -0.15
17 -0.15
18 0.18
19 0.16
2 -0.68
20 -0.15
23 0.4
26 0.15
27 0.15
28 0.4
29 0.15
3 -0.82
30 0.15
31 0.15
32 0.15
33 0.15
34 0.15
4 -0.7
5 -0.62
6 0.63
7 0.44
8 -0.14
9 0.37

>  <PUBCHEM_EFFECTIVE_ROTOR_COUNT>  (1) 
3.6

>  <PUBCHEM_PHARMACOPHORE_FEATURES>  (1) 
8
1 2 acceptor
1 2 donor
1 3 donor
1 5 acceptor
3 3 4 7 cation
5 3 4 7 9 11 rings
6 5 10 14 17 19 20 rings
6 8 12 13 15 16 18 rings

>  <PUBCHEM_HEAVY_ATOM_COUNT>  (1) 
20

>  <PUBCHEM_ATOM_DEF_STEREO_COUNT>  (1) 
0

>  <PUBCHEM_ATOM_UDEF_STEREO_COUNT>  (1) 
1

>  <PUBCHEM_BOND_DEF_STEREO_COUNT>  (1) 
0

>  <PUBCHEM_BOND_UDEF_STEREO_COUNT>  (1) 
0

>  <PUBCHEM_ISOTOPIC_ATOM_COUNT>  (1) 
0

>  <PUBCHEM_COMPONENT_COUNT>  (1) 
1

>  <PUBCHEM_CACTVS_TAUTO_COUNT>  (1) 
1

>  <PUBCHEM_CONFORMER_ID>  (1) 
000080AC00000001

>  <PUBCHEM_MMFF94_ENERGY>  (1) 
63.1364

>  <PUBCHEM_FEATURE_SELFOVERLAP>  (1) 
40.602

>  <PUBCHEM_SHAPE_FINGERPRINT>  (1) 
10165383 225 17907895853277359524
1100329 8 18265055906755421833
11578080 2 15043366973181612121
11646440 116 18199481020912355163
121448 382 18340756062324894709
12173636 292 18409162191036843820
12532896 13 18341332171699180724
12730499 353 17907028274954397833
12788726 201 18191037895963700894
13004483 165 18122342646974999314
13134695 92 17551790748069944759
13140716 1 18122067769241888315
13294875 104 17839450090770148594
136203 1 18338237171195207187
13681431 1 17475791430246731527
14178342 30 18335417985307353258
14787075 74 17988917877987419041
14955137 171 16685428455960281048
15309172 13 18264493875439932517
15490181 7 18193848028736026887
15842332 3 17749963266574797404
16945 1 18411708711421867439
19049666 15 18131079212230435198
19765921 60 17914324680859396889
20510252 161 18338509862884754082
20600515 1 17910124834061656915
21120745 212 17975718373586091700
21524375 3 18056754330331035845
21650355 55 18193555794576193203
21731228 192 18264211313783365288
22112679 90 17974596854508519413
23402539 116 18269828886315067751
23419403 2 17628053905374928689
23493267 7 18272367556116695680
23557571 272 18195243545436304916
23558518 356 18411420570598326671
23559900 14 18119514673789220968
25 1 17558555707638826112
283562 15 18337380668875561386
350125 39 18265621970243745131
3729539 64 17401518964820102278
394222 165 17482551889296665713
427121 178 17983607150714327545
4340502 62 18056214479445209161
495365 180 17687462365307181045
5104073 3 18340755019481181720
59755656 520 18340767022706868133
633830 44 17700136495474263781
6442390 28 18197234572042065705
6992083 37 17894908521209754564
7364860 26 17472425344196873629
7615 1 17895197765993488708
77188 2 17833831951435099667
81228 2 18339368577313504547
84936 182 17623003499996538617
9981440 41 17201322310032307578

>  <PUBCHEM_SHAPE_MULTIPOLES>  (1) 
392.65
6.31
3.76
1.41
9.55
2.29
0.19
-3.17
-1.45
-5.61
-0.68
0.09
-0.33
-0.02

>  <PUBCHEM_SHAPE_SELFOVERLAP>  (1) 
852.894

>  <PUBCHEM_SHAPE_VOLUME>  (1) 
216.4

>  <PUBCHEM_COORDINATE_TYPE>  (1) 
2
5
10

$$$$
