32967
     RDKit          3D

 13 12  0  0  0  0  0  0  0  0999 V2000
    0.3495   -0.1093    0.0035 O   0  0  0  0  0  0  0  0  0  0  0  0
   -0.7297    1.9292    0.0487 O   0  0  0  0  0  0  0  0  0  0  0  0
   -4.5587   -0.1387    0.0297 C   0  0  0  0  0  0  0  0  0  0  0  0
   -3.2670    0.6983    0.0007 C   0  0  0  0  0  0  0  0  0  0  0  0
   -1.9933   -0.1485   -0.0324 C   0  0  0  0  0  0  0  0  0  0  0  0
    2.7226   -0.4854    0.0151 C   0  0  0  0  0  0  0  0  0  0  0  0
    4.1064    0.1602    0.0296 C   0  0  0  0  0  0  0  0  0  0  0  0
   -4.6026   -1.1023    1.2166 C   0  0  0  0  0  0  0  0  0  0  0  0
   -4.6990   -0.9225   -1.2775 C   0  0  0  0  0  0  0  0  0  0  0  0
    1.6150    0.5585    0.0332 C   0  0  0  0  0  0  0  0  0  0  0  0
    5.2122   -0.8930   -0.0313 C   0  0  0  0  0  0  0  0  0  0  0  0
   -0.7464    0.7064    0.0155 C   0  0  0  0  0  0  0  0  0  0  0  0
    6.5910   -0.2528   -0.0513 C   0  0  0  0  0  0  0  0  0  0  0  0
  1 10  1  0
  1 12  1  0
  2 12  2  0
  3  4  1  0
  3  8  1  0
  3  9  1  0
  4  5  1  0
  5 12  1  0
  6  7  1  0
  6 10  1  0
  7 11  1  0
 11 13  1  0
M  END
>  <PUBCHEM_COMPOUND_CID>  (1) 
32967

>  <PUBCHEM_CONFORMER_RMSD>  (1) 
0.8

>  <PUBCHEM_CONFORMER_DIVERSEORDER>  (1) 
1
103
61
75
54
128
110
122
30
87
5
146
48
55
130
126
14
151
57
113
112
109
94
34
81
82
46
127
47
13
51
40
98
149
9
138
100
70
145
107
6
136
117
118
62
116
12
99
104
88
119
58
37
3
86
139
85
2
105
147
90
49
115
66
102
106
33
131
43
26
140
80
36
60
123
11
132
52
76
89
4
84
41
7
18
120
74
135
42
39
125
152
53
137
64
121
19
141
10
8
23
114
111
68
108
22
144
44
142
15
35
97
32
65
45
31
83
134
25
24
91
148
92
67
29
17
28
63
56
16
73
50
143
93
77
27
95
21
124
78
71
129
79
69
96
133
59
38
101
150
20
72

>  <PUBCHEM_MMFF94_PARTIAL_CHARGES>  (1) 
5
1 -0.43
10 0.28
12 0.66
2 -0.57
5 0.06

>  <PUBCHEM_EFFECTIVE_ROTOR_COUNT>  (1) 
8

>  <PUBCHEM_PHARMACOPHORE_FEATURES>  (1) 
3
1 13 hydrophobe
1 2 acceptor
3 3 8 9 hydrophobe

>  <PUBCHEM_HEAVY_ATOM_COUNT>  (1) 
13

>  <PUBCHEM_ATOM_DEF_STEREO_COUNT>  (1) 
0

>  <PUBCHEM_ATOM_UDEF_STEREO_COUNT>  (1) 
0

>  <PUBCHEM_BOND_DEF_STEREO_COUNT>  (1) 
0

>  <PUBCHEM_BOND_UDEF_STEREO_COUNT>  (1) 
0

>  <PUBCHEM_ISOTOPIC_ATOM_COUNT>  (1) 
0

>  <PUBCHEM_COMPONENT_COUNT>  (1) 
1

>  <PUBCHEM_CACTVS_TAUTO_COUNT>  (1) 
1

>  <PUBCHEM_CONFORMER_ID>  (1) 
000080C700000001

>  <PUBCHEM_MMFF94_ENERGY>  (1) 
6.2313

>  <PUBCHEM_FEATURE_SELFOVERLAP>  (1) 
15.223

>  <PUBCHEM_SHAPE_FINGERPRINT>  (1) 
100836 57 9871746914525355082
10803635 8 16877937248352837147
10968037 39 18334016103322747382
11089746 13 12685095904124194222
117890 112 11602538719720466726
12091667 2 18342738507216465964
12714333 28 14779265311045128078
13288520 33 18411138026169087957
13533116 47 12613019597220154224
13740256 8 18334862765756838851
13862211 1 18412539912269371590
14123238 8 18342457032735633990
1420 363 18409735058249118954
14251718 22 17458347446596986778
14251731 8 17603303769252064971
14251732 16 17846210107765284184
14252887 29 17632304441060178310
15716309 27 18202565077137875606
17834072 33 18343301492036196836
17834072 8 17675918807416983719
17834076 25 11314029071704350270
187816 3 17458346333678354289
200 152 18333169453378048976
20281389 69 10879989151569094298
20645477 56 10807933747842759042
20645477 70 16588578705079097586
20767249 213 10447925070596662778
20828058 44 16917348151665146295
23402539 116 18334011670531545053
23402655 69 12179841706077505112
23559900 14 17895192255044214208
42788 4 18410856551735637700
474229 33 18408887334763355394
49783359 22 17775563143531696111
57483677 66 18272086072276048926

>  <PUBCHEM_SHAPE_MULTIPOLES>  (1) 
255.8
14.86
1.18
0.85
14.25
0.28
-0.03
-5.35
-0.37
-0.6
0.05
-1.16
-0.25
0.07

>  <PUBCHEM_SHAPE_SELFOVERLAP>  (1) 
467.192

>  <PUBCHEM_SHAPE_VOLUME>  (1) 
163.5

>  <PUBCHEM_COORDINATE_TYPE>  (1) 
2
5
10

$$$$
