32965
     RDKit          3D

 10  9  0  0  0  0  0  0  0  0999 V2000
    1.3392   -2.0895    1.0058 O   0  0  0  0  0  0  0  0  0  0  0  0
    0.7412   -0.4550   -0.1908 N   0  0  0  0  0  0  0  0  0  0  0  0
    1.5158   -1.5273   -0.0817 N   0  0  0  0  0  0  0  0  0  0  0  0
   -0.6042   -0.7152   -0.6431 C   0  0  0  0  0  0  0  0  0  0  0  0
   -1.6048    0.1672    0.0985 C   0  0  0  0  0  0  0  0  0  0  0  0
    1.3806    0.5682   -1.0394 C   0  0  0  0  0  0  0  0  0  0  0  0
   -3.0530   -0.1067   -0.3152 C   0  0  0  0  0  0  0  0  0  0  0  0
    2.4436    1.3317   -0.2563 C   0  0  0  0  0  0  0  0  0  0  0  0
   -4.0291    0.7398    0.4871 C   0  0  0  0  0  0  0  0  0  0  0  0
    1.8706    2.0867    0.9352 C   0  0  0  0  0  0  0  0  0  0  0  0
  1  3  2  0
  2  3  1  0
  2  4  1  0
  2  6  1  0
  4  5  1  0
  5  7  1  0
  6  8  1  0
  7  9  1  0
  8 10  1  0
M  END
>  <PUBCHEM_COMPOUND_CID>  (1) 
32965

>  <PUBCHEM_CONFORMER_RMSD>  (1) 
0.6

>  <PUBCHEM_CONFORMER_DIVERSEORDER>  (1) 
2
274
102
270
265
113
231
51
219
46
153
7
307
115
264
187
145
109
32
287
95
314
319
53
321
313
327
9
228
277
38
221
331
1
217
62
194
295
72
325
161
250
34
134
142
237
122
243
114
234
184
223
117
6
96
256
84
294
139
206
85
263
288
183
320
146
185
13
259
36
119
328
292
155
149
19
227
26
330
190
261
37
248
93
300
251
45
116
296
158
204
112
182
59
178
100
133
12
168
152
267
129
64
312
188
310
82
33
269
160
329
8
282
88
40
301
181
230
193
198
144
306
240
173
10
276
192
143
176
28
316
275
23
111
118
207
284
140
170
247
220
20
211
67
167
283
132
154
35
212
253
156
137
18
268
127
293
195
91
299
297
39
11
180
3
271
97
311
135
44
216
77
15
208
83
326
5
171
266
298
209
286
124
172
302
304
76
99
71
303
191
151
186
262
174
120
92
245
125
106
235
104
126
49
61
201
43
101
278
121
148
80
197
70
89
280
232
254
189
16
4
163
162
69
41
229
30
22
290
55
14
52
169
58
25
47
249
242
98
78
255
203
165
258
24
175
222
54
318
291
244
213
130
177
239
110
74
305
57
273
86
252
42
90
205
226
94
317
218
103
279
75
246
29
179
65
215
136
105
147
236
324
63
141
123
196
128
202
166
68
60
73
107
272
241
308
233
309
50
79
157
21
200
238
138
257
87
210
66
323
164
56
131
281
333
289
322
48
315
108
31
260
81
225
27
199
285
332
214
17
224
159
150

>  <PUBCHEM_MMFF94_PARTIAL_CHARGES>  (1) 
5
1 -0.16
2 -0.36
3 -0.01
4 0.27
6 0.27

>  <PUBCHEM_EFFECTIVE_ROTOR_COUNT>  (1) 
6

>  <PUBCHEM_PHARMACOPHORE_FEATURES>  (1) 
2
1 10 hydrophobe
1 9 hydrophobe

>  <PUBCHEM_HEAVY_ATOM_COUNT>  (1) 
10

>  <PUBCHEM_ATOM_DEF_STEREO_COUNT>  (1) 
0

>  <PUBCHEM_ATOM_UDEF_STEREO_COUNT>  (1) 
0

>  <PUBCHEM_BOND_DEF_STEREO_COUNT>  (1) 
0

>  <PUBCHEM_BOND_UDEF_STEREO_COUNT>  (1) 
0

>  <PUBCHEM_ISOTOPIC_ATOM_COUNT>  (1) 
0

>  <PUBCHEM_COMPONENT_COUNT>  (1) 
1

>  <PUBCHEM_CACTVS_TAUTO_COUNT>  (1) 
1

>  <PUBCHEM_CONFORMER_ID>  (1) 
000080C500000002

>  <PUBCHEM_MMFF94_ENERGY>  (1) 
7.3645

>  <PUBCHEM_FEATURE_SELFOVERLAP>  (1) 
10.149

>  <PUBCHEM_SHAPE_FINGERPRINT>  (1) 
12932764 1 18335987489217032983
14390081 3 18272091642832697093
15775835 57 18342180011186692517
170605 34 18201442531458047061
177051 138 12251900421571642417
18342897 96 17842556533083342756
20653085 51 17700706321970584244
20653091 64 18190464861374178224
21040471 1 18046067326749166908
21524375 3 18197209467615400564
230 275 18335140916334046837
305870 269 18337380647347489992
3248919 1 17312828199494631597
58734985 188 18265318539594404810
7364860 26 18343023250726917430

>  <PUBCHEM_SHAPE_MULTIPOLES>  (1) 
189.96
5.28
1.94
0.97
5.94
0.23
0.03
-2.44
0.5
-1.68
0.73
-0.34
0.02
-0.24

>  <PUBCHEM_SHAPE_SELFOVERLAP>  (1) 
340.532

>  <PUBCHEM_SHAPE_VOLUME>  (1) 
124.4

>  <PUBCHEM_COORDINATE_TYPE>  (1) 
2
5
10

$$$$
