32960
     RDKit          3D

 23 25  0  0  0  0  0  0  0  0999 V2000
   -1.1544    1.0925   -0.3558 O   0  0  0  0  0  0  0  0  0  0  0  0
   -5.2596    0.3087    0.3706 N   0  0  0  0  0  0  0  0  0  0  0  0
    0.1515    1.5636   -0.1823 N   0  0  0  0  0  0  0  0  0  0  0  0
   -3.4605    1.7195   -0.4969 C   0  0  0  0  0  0  0  0  0  0  0  0
   -3.9015    0.7462    0.5901 C   0  0  0  0  0  0  0  0  0  0  0  0
    0.4604   -0.8211   -0.4854 C   0  0  0  0  0  0  0  0  0  0  0  0
    2.4080    0.7711   -0.0647 C   0  0  0  0  0  0  0  0  0  0  0  0
    0.9559    0.5481   -0.2234 C   0  0  0  0  0  0  0  0  0  0  0  0
    0.8011   -1.9087    0.3298 C   0  0  0  0  0  0  0  0  0  0  0  0
    3.1846    0.0353    0.8403 C   0  0  0  0  0  0  0  0  0  0  0  0
   -2.0294    2.2095   -0.3097 C   0  0  0  0  0  0  0  0  0  0  0  0
    1.6191   -1.8050    1.5431 C   0  0  0  0  0  0  0  0  0  0  0  0
    2.6443   -0.9711    1.7613 C   0  0  0  0  0  0  0  0  0  0  0  0
   -0.3815   -0.9962   -1.5946 C   0  0  0  0  0  0  0  0  0  0  0  0
    2.9883    1.7771   -0.8524 C   0  0  0  0  0  0  0  0  0  0  0  0
    0.2628   -3.1689    0.0172 C   0  0  0  0  0  0  0  0  0  0  0  0
    4.5536    0.3375    0.9406 C   0  0  0  0  0  0  0  0  0  0  0  0
   -5.6733   -0.6665    1.3886 C   0  0  0  0  0  0  0  0  0  0  0  0
   -6.1891    1.4465    0.3678 C   0  0  0  0  0  0  0  0  0  0  0  0
   -0.8921   -2.2567   -1.8957 C   0  0  0  0  0  0  0  0  0  0  0  0
    4.3500    2.0508   -0.7476 C   0  0  0  0  0  0  0  0  0  0  0  0
   -0.5710   -3.3431   -1.0893 C   0  0  0  0  0  0  0  0  0  0  0  0
    5.1330    1.3309    0.1484 C   0  0  0  0  0  0  0  0  0  0  0  0
  1  3  1  0
  1 11  1  0
  2  5  1  0
  2 18  1  0
  2 19  1  0
  3  8  2  3
  4  5  1  0
  4 11  1  0
  6  8  1  0
  6  9  2  0
  6 14  1  0
  7  8  1  0
  7 10  2  0
  7 15  1  0
  9 12  1  0
  9 16  1  0
 10 13  1  0
 10 17  1  0
 12 13  2  0
 14 20  2  0
 15 21  2  0
 16 22  2  0
 17 23  2  0
 20 22  1  0
 21 23  1  0
M  END
>  <PUBCHEM_COMPOUND_CID>  (1) 
32960

>  <PUBCHEM_CONFORMER_RMSD>  (1) 
0.8

>  <PUBCHEM_CONFORMER_DIVERSEORDER>  (1) 
1
21
17
16
10
25
18
24
14
9
6
8
7
5
22
20
13
23
15
11
2
19
4
12
3

>  <PUBCHEM_MMFF94_PARTIAL_CHARGES>  (1) 
32
1 -0.22
10 0.03
11 0.28
12 -0.18
13 -0.18
14 -0.15
15 -0.15
16 -0.15
17 -0.15
18 0.27
19 0.27
2 -0.81
20 -0.15
21 -0.15
22 -0.15
23 -0.15
3 -0.51
30 0.15
31 0.15
32 0.15
33 0.15
34 0.15
35 0.15
42 0.15
43 0.15
44 0.15
45 0.15
5 0.27
6 0.09
7 0.09
8 0.28
9 0.03

>  <PUBCHEM_EFFECTIVE_ROTOR_COUNT>  (1) 
5

>  <PUBCHEM_PHARMACOPHORE_FEATURES>  (1) 
5
1 2 cation
1 3 acceptor
6 6 9 14 16 20 22 rings
6 7 10 15 17 21 23 rings
7 6 7 8 9 10 12 13 rings

>  <PUBCHEM_HEAVY_ATOM_COUNT>  (1) 
23

>  <PUBCHEM_ATOM_DEF_STEREO_COUNT>  (1) 
0

>  <PUBCHEM_ATOM_UDEF_STEREO_COUNT>  (1) 
0

>  <PUBCHEM_BOND_DEF_STEREO_COUNT>  (1) 
0

>  <PUBCHEM_BOND_UDEF_STEREO_COUNT>  (1) 
0

>  <PUBCHEM_ISOTOPIC_ATOM_COUNT>  (1) 
0

>  <PUBCHEM_COMPONENT_COUNT>  (1) 
1

>  <PUBCHEM_CACTVS_TAUTO_COUNT>  (1) 
1

>  <PUBCHEM_CONFORMER_ID>  (1) 
000080C000000001

>  <PUBCHEM_MMFF94_ENERGY>  (1) 
84.1596

>  <PUBCHEM_FEATURE_SELFOVERLAP>  (1) 
25.388

>  <PUBCHEM_SHAPE_FINGERPRINT>  (1) 
1100329 8 18267865175675253928
11421498 54 17489038045896292473
11488393 25 17914075108683795255
11578080 2 17058080258816914560
11720765 8 9439396896370047395
12788726 201 18052535766282163062
128238 76 18337672044068120851
13583140 156 17386830751913006085
14341114 328 18333449842044538665
1454969 45 18410854408694591919
146900 427 18412829083922760513
14790565 3 18338518671920862957
14955137 171 18121206585887652082
15183329 4 11240006646261606625
16752209 62 18127669712313539702
17349148 13 12107790666566145133
20261772 1 18411696608087989281
20465049 17 18336837403305390078
21197605 99 18116163332056486819
21756936 100 18340481283233658340
22224240 67 18201719578961804929
22620623 9 17701823408815383214
22956985 138 18047194050995324899
23419403 2 17620810125113383106
23558518 356 17760364792123034852
23559900 14 17977950077526971157
25222932 49 17823147868684804539
2748010 2 16178998279896372898
3009799 131 9799687095631025306
427121 178 17703501117092754331
4340502 62 17676209078091168889
474229 33 18409451401302492761
58260988 647 16485314771578091164
59554788 248 18195225746611743951
6438718 38 17987510592601639126
6669772 16 18201164273913248614
9862260 156 12607126149700223093

>  <PUBCHEM_SHAPE_MULTIPOLES>  (1) 
457.5
10.83
3.29
1.46
12.4
2.28
0.01
-7.98
4.09
0.14
-1.04
-0.11
0.85
-0.95

>  <PUBCHEM_SHAPE_SELFOVERLAP>  (1) 
980.309

>  <PUBCHEM_SHAPE_VOLUME>  (1) 
252.6

>  <PUBCHEM_COORDINATE_TYPE>  (1) 
2
5
10

$$$$
