32983
     RDKit          3D

 12 12  0  0  0  0  0  0  0  0999 V2000
   -1.8972    0.5098    0.6034 O   0  0  0  0  0  0  0  0  0  0  0  0
    3.5691    0.1010   -0.3903 N   0  0  0  0  0  0  0  0  0  0  0  0
    1.1605   -0.2577   -0.1109 C   0  0  0  0  0  0  0  0  0  0  0  0
    2.5497   -0.4485    0.4959 C   0  0  0  0  0  0  0  0  0  0  0  0
    0.0760   -0.8477    0.7960 C   0  0  0  0  0  0  0  0  0  0  0  0
   -1.3022   -0.6318    0.2233 C   0  0  0  0  0  0  0  0  0  0  0  0
   -2.0610   -1.3758   -0.6086 C   0  0  0  0  0  0  0  0  0  0  0  0
    4.9056   -0.1080    0.1695 C   0  0  0  0  0  0  0  0  0  0  0  0
    3.3342    1.5268   -0.6248 C   0  0  0  0  0  0  0  0  0  0  0  0
   -3.1065    0.5035   -0.0164 C   0  0  0  0  0  0  0  0  0  0  0  0
   -3.2556   -0.6351   -0.7736 C   0  0  0  0  0  0  0  0  0  0  0  0
   -3.9727    1.6636    0.2365 C   0  0  0  0  0  0  0  0  0  0  0  0
  1  6  1  0
  1 10  1  0
  2  4  1  0
  2  8  1  0
  2  9  1  0
  3  4  1  0
  3  5  1  0
  5  6  1  0
  6  7  2  0
  7 11  1  0
 10 11  2  0
 10 12  1  0
M  END
>  <PUBCHEM_COMPOUND_CID>  (1) 
32983

>  <PUBCHEM_CONFORMER_RMSD>  (1) 
0.6

>  <PUBCHEM_CONFORMER_DIVERSEORDER>  (1) 
1
30
28
25
33
11
31
20
9
32
17
13
27
15
19
29
10
2
3
16
26
24
23
21
18
6
14
8
12
22
4
5
7

>  <PUBCHEM_MMFF94_PARTIAL_CHARGES>  (1) 
13
1 -0.28
10 -0.04
11 -0.15
12 0.18
19 0.15
2 -0.81
26 0.15
4 0.27
5 0.18
6 -0.04
7 -0.15
8 0.27
9 0.27

>  <PUBCHEM_EFFECTIVE_ROTOR_COUNT>  (1) 
4

>  <PUBCHEM_PHARMACOPHORE_FEATURES>  (1) 
3
1 1 acceptor
1 2 cation
5 1 6 7 10 11 rings

>  <PUBCHEM_HEAVY_ATOM_COUNT>  (1) 
12

>  <PUBCHEM_ATOM_DEF_STEREO_COUNT>  (1) 
0

>  <PUBCHEM_ATOM_UDEF_STEREO_COUNT>  (1) 
0

>  <PUBCHEM_BOND_DEF_STEREO_COUNT>  (1) 
0

>  <PUBCHEM_BOND_UDEF_STEREO_COUNT>  (1) 
0

>  <PUBCHEM_ISOTOPIC_ATOM_COUNT>  (1) 
0

>  <PUBCHEM_COMPONENT_COUNT>  (1) 
1

>  <PUBCHEM_CACTVS_TAUTO_COUNT>  (1) 
1

>  <PUBCHEM_CONFORMER_ID>  (1) 
000080D700000001

>  <PUBCHEM_MMFF94_ENERGY>  (1) 
11.6248

>  <PUBCHEM_FEATURE_SELFOVERLAP>  (1) 
15.223

>  <PUBCHEM_SHAPE_FINGERPRINT>  (1) 
10014705 185 18342735221593150777
10726558 24 17774724156499561719
11046707 91 9079110055613621609
11127187 94 16559028311805726063
12162725 195 18409450323254931212
12251169 10 11241973680731613122
12932764 1 17703784851180266051
13214271 11 17894354358928160497
14123260 362 18200886092822921665
15775835 57 18335421236032944473
177051 138 9007056868222656384
18186145 218 17821726143866829170
1986462 14 17704071815314779663
200 152 11959726058218438083
20279233 1 15913329100261247542
20281407 28 10735883858860303698
20300324 65 18273210932573634173
20645464 45 15213018237192420795
20645476 183 18343295972687152359
20645477 56 18273497857964154769
20645477 70 15985113972608187502
20671657 53 16128659665042291626
20711983 171 18342457032266109838
20871999 31 17846206779112882423
21119208 17 18272933812788700686
23402539 116 18272363162111950540
23402655 69 18411983559628160716
23557571 272 17846501447712206869
23559900 14 17632855309629422042
4175511 318 17775564234732840797
42 15 7997976777744232128
573450 72 18341036459233366882
9971528 1 18408601453756366812

>  <PUBCHEM_SHAPE_MULTIPOLES>  (1) 
236.1
9.08
1.41
0.84
6.33
0.43
-0.02
2.79
-0.73
-0.8
-0.1
-0.1
-0.06
-0.82

>  <PUBCHEM_SHAPE_SELFOVERLAP>  (1) 
467.066

>  <PUBCHEM_SHAPE_VOLUME>  (1) 
144.7

>  <PUBCHEM_COORDINATE_TYPE>  (1) 
2
5
10

$$$$
