32986
     RDKit          3D

 13 13  0  0  1  0  0  0  0  0999 V2000
    2.1200   -0.0010    1.0090 O   0  0  0  0  0  0  0  0  0  0  0  0
   -2.5649    1.0052   -0.0352 N   0  0  0  0  0  0  0  0  0  0  0  0
   -0.6947   -0.6344    0.3312 C   0  0  0  0  0  0  0  0  0  0  0  0
   -1.3458    0.4249   -0.5871 C   0  0  0  0  0  0  0  0  0  0  0  0
    0.5641   -1.2851   -0.2964 C   0  0  0  0  0  0  0  0  0  0  0  0
   -1.6691   -1.7550    0.7639 C   0  0  0  0  0  0  0  0  0  0  0  0
    1.7928   -0.4087   -0.2257 C   0  0  0  0  0  0  0  0  0  0  0  0
   -2.2011   -2.5921   -0.3907 C   0  0  0  0  0  0  0  0  0  0  0  0
   -3.1653    1.9424   -0.9859 C   0  0  0  0  0  0  0  0  0  0  0  0
   -2.2859    1.6783    1.2344 C   0  0  0  0  0  0  0  0  0  0  0  0
    2.6295    0.0448   -1.1795 C   0  0  0  0  0  0  0  0  0  0  0  0
    3.5870    0.8200   -0.4829 C   0  0  0  0  0  0  0  0  0  0  0  0
    3.2334    0.7607    0.8450 C   0  0  0  0  0  0  0  0  0  0  0  0
  1  7  1  0
  1 13  1  0
  2  4  1  0
  2  9  1  0
  2 10  1  0
  3  4  1  0
  3  5  1  0
  3  6  1  0
  5  7  1  0
  6  8  1  0
  7 11  2  0
 11 12  1  0
 12 13  2  0
M  END
>  <PUBCHEM_COMPOUND_CID>  (1) 
32986

>  <PUBCHEM_CONFORMER_RMSD>  (1) 
0.6

>  <PUBCHEM_CONFORMER_DIVERSEORDER>  (1) 
1
45
7
19
15
44
32
16
35
37
40
55
38
58
52
25
14
26
12
24
23
50
9
22
21
59
49
29
54
31
39
42
13
27
41
18
36
2
33
48
10
56
43
28
34
20
5
46
30
51
17
47
8
57
53
4
6
3
11

>  <PUBCHEM_MMFF94_PARTIAL_CHARGES>  (1) 
13
1 -0.28
10 0.27
11 -0.15
12 -0.15
13 -0.01
2 -0.81
30 0.15
31 0.15
32 0.15
4 0.27
5 0.18
7 -0.04
9 0.27

>  <PUBCHEM_EFFECTIVE_ROTOR_COUNT>  (1) 
5

>  <PUBCHEM_PHARMACOPHORE_FEATURES>  (1) 
4
1 1 acceptor
1 2 cation
1 8 hydrophobe
5 1 7 11 12 13 rings

>  <PUBCHEM_HEAVY_ATOM_COUNT>  (1) 
13

>  <PUBCHEM_ATOM_DEF_STEREO_COUNT>  (1) 
0

>  <PUBCHEM_ATOM_UDEF_STEREO_COUNT>  (1) 
1

>  <PUBCHEM_BOND_DEF_STEREO_COUNT>  (1) 
0

>  <PUBCHEM_BOND_UDEF_STEREO_COUNT>  (1) 
0

>  <PUBCHEM_ISOTOPIC_ATOM_COUNT>  (1) 
0

>  <PUBCHEM_COMPONENT_COUNT>  (1) 
1

>  <PUBCHEM_CACTVS_TAUTO_COUNT>  (1) 
1

>  <PUBCHEM_CONFORMER_ID>  (1) 
000080DA00000001

>  <PUBCHEM_MMFF94_ENERGY>  (1) 
17.3312

>  <PUBCHEM_FEATURE_SELFOVERLAP>  (1) 
20.297

>  <PUBCHEM_SHAPE_FINGERPRINT>  (1) 
12138202 97 18412823573336794383
12932764 1 18131078181375064958
13380535 21 18339094700033941110
13764800 53 18341059570241000305
14897335 6 18335976480619994423
15775835 57 18040996224265995504
1741750 31 18341332206122203153
17844478 74 17915471699062255682
18186145 218 18198628722399593541
20510252 161 18267589180949641066
20525323 117 18260830457219819654
20645477 56 18412552023902715712
20653085 51 16988008176219379649
20671657 1 18265053518416092594
21501502 16 18409164394344965122
21524375 3 18192146006268938787
21947302 44 18057884654038180646
22802520 49 17845673464170046148
23500284 214 18341900662187054121
23557571 272 18200319955940177126
23559900 14 18201728306804888062
25 1 17986120620972697184
6049 1 17988373679586301032
6333449 129 18341615927572667671
68521 5 18264205988620257623
81228 2 18265063590246290179

>  <PUBCHEM_SHAPE_MULTIPOLES>  (1) 
256.68
5.99
2.27
1.15
3.02
0.72
-0.07
-2.65
0.44
-2.91
0.08
0
-0.31
0.26

>  <PUBCHEM_SHAPE_SELFOVERLAP>  (1) 
505.112

>  <PUBCHEM_SHAPE_VOLUME>  (1) 
156.3

>  <PUBCHEM_COORDINATE_TYPE>  (1) 
2
5
10

$$$$
