32994
     RDKit          3D

 18 19  0  0  0  0  0  0  0  0999 V2000
    2.7687    0.4681   -1.1038 O   0  0  0  0  0  0  0  0  0  0  0  0
   -0.8535   -2.1047   -0.0529 N   0  0  0  0  0  0  0  0  0  0  0  0
    0.3653   -1.4188    0.5473 C   0  0  0  0  0  0  0  0  0  0  0  0
   -2.1176   -1.5282    0.5681 C   0  0  0  0  0  0  0  0  0  0  0  0
    1.6249   -2.0234   -0.0553 C   0  0  0  0  0  0  0  0  0  0  0  0
   -0.8764   -1.8737   -1.5571 C   0  0  0  0  0  0  0  0  0  0  0  0
   -0.7851   -3.5986    0.2299 C   0  0  0  0  0  0  0  0  0  0  0  0
   -2.2662   -0.0532    0.3368 C   0  0  0  0  0  0  0  0  0  0  0  0
    2.8784   -1.3304    0.4859 C   0  0  0  0  0  0  0  0  0  0  0  0
    2.8617    0.1494    0.1965 C   0  0  0  0  0  0  0  0  0  0  0  0
   -1.7314    0.8451    1.2536 C   0  0  0  0  0  0  0  0  0  0  0  0
   -2.9378    0.4025   -0.7922 C   0  0  0  0  0  0  0  0  0  0  0  0
   -1.8700    2.2164    1.0387 C   0  0  0  0  0  0  0  0  0  0  0  0
   -3.0764    1.7737   -1.0072 C   0  0  0  0  0  0  0  0  0  0  0  0
    2.9235    1.2273    1.0059 C   0  0  0  0  0  0  0  0  0  0  0  0
   -2.5424    2.6807   -0.0916 C   0  0  0  0  0  0  0  0  0  0  0  0
    2.8641    2.3411    0.1348 C   0  0  0  0  0  0  0  0  0  0  0  0
    2.7704    1.8266   -1.1373 C   0  0  0  0  0  0  0  0  0  0  0  0
  1 10  1  0
  1 18  1  0
  2  3  1  0
  2  4  1  0
  2  6  1  0
  2  7  1  0
  3  5  1  0
  4  8  1  0
  5  9  1  0
  8 11  2  0
  8 12  1  0
  9 10  1  0
 10 15  2  0
 11 13  1  0
 12 14  2  0
 13 16  2  0
 14 16  1  0
 15 17  1  0
 17 18  2  0
M  CHG  1   2   1
M  END
>  <PUBCHEM_COMPOUND_CID>  (1) 
32994

>  <PUBCHEM_CONFORMER_RMSD>  (1) 
0.8

>  <PUBCHEM_CONFORMER_DIVERSEORDER>  (1) 
21
10
8
16
22
11
29
6
28
7
14
9
19
2
26
5
17
12
30
27
4
15
1
13
25
20
3
24
18
23

>  <PUBCHEM_MMFF94_PARTIAL_CHARGES>  (1) 
25
1 -0.28
10 -0.04
11 -0.15
12 -0.15
13 -0.15
14 -0.15
15 -0.15
16 -0.15
17 -0.15
18 -0.01
2 -1.01
3 0.5
33 0.15
34 0.15
35 0.15
36 0.15
37 0.15
38 0.15
39 0.15
4 0.65
40 0.15
6 0.5
7 0.5
8 -0.14
9 0.18

>  <PUBCHEM_EFFECTIVE_ROTOR_COUNT>  (1) 
6

>  <PUBCHEM_PHARMACOPHORE_FEATURES>  (1) 
4
1 1 acceptor
1 2 cation
5 1 10 15 17 18 rings
6 8 11 12 13 14 16 rings

>  <PUBCHEM_HEAVY_ATOM_COUNT>  (1) 
18

>  <PUBCHEM_ATOM_DEF_STEREO_COUNT>  (1) 
0

>  <PUBCHEM_ATOM_UDEF_STEREO_COUNT>  (1) 
0

>  <PUBCHEM_BOND_DEF_STEREO_COUNT>  (1) 
0

>  <PUBCHEM_BOND_UDEF_STEREO_COUNT>  (1) 
0

>  <PUBCHEM_ISOTOPIC_ATOM_COUNT>  (1) 
0

>  <PUBCHEM_COMPONENT_COUNT>  (1) 
1

>  <PUBCHEM_CACTVS_TAUTO_COUNT>  (1) 
1

>  <PUBCHEM_CONFORMER_ID>  (1) 
000080E200000015

>  <PUBCHEM_MMFF94_ENERGY>  (1) 
47.2048

>  <PUBCHEM_FEATURE_SELFOVERLAP>  (1) 
20.297

>  <PUBCHEM_SHAPE_FINGERPRINT>  (1) 
10498660 4 18050009088566515964
11370993 70 18338500980924326760
128993 33 18267607786922222272
13583140 156 17314229956476683139
13618510 140 18408605850985447284
13693222 7 18410299133288695584
14026960 21 18335713693541646713
14251751 93 18265353853016135244
14251757 17 17768012772057384260
14386348 128 18339098028633491720
14713325 29 16668580472517368334
18219364 16 18118414938221830497
18981168 100 18409732871894493910
192875 21 18124576618410775409
19930381 70 18336824170216200005
20510252 161 18193843870949240898
20715895 44 18116690964625597813
21524375 3 18340770325800644463
21639500 275 18048023074382872693
22094290 62 18337389323376665298
22749437 52 18410003325890372408
23419403 2 15462633451106839635
23557571 272 17985546903831754906
238 59 18267852896500502349
350125 39 18337403668203657963
3797600 57 16231427898759996728
474 4 18122343472019975297
526903 126 18270111464992683377
5939293 188 17905603311593425248
81228 2 18053107507922830491

>  <PUBCHEM_SHAPE_MULTIPOLES>  (1) 
359.58
5.86
3.85
1.23
2.01
1.39
0.19
-3.8
0.45
-0.71
0.01
-0.15
-0.22
-0.24

>  <PUBCHEM_SHAPE_SELFOVERLAP>  (1) 
746.137

>  <PUBCHEM_SHAPE_VOLUME>  (1) 
207.7

>  <PUBCHEM_COORDINATE_TYPE>  (1) 
2
5
10

$$$$
