32995
     RDKit          3D

 16 16  0  0  0  0  0  0  0  0999 V2000
    0.0470   -1.4973    1.2246 O   0  0  0  0  0  0  0  0  0  0  0  0
    1.8065    1.2383   -0.3716 O   0  0  0  0  0  0  0  0  0  0  0  0
    0.9937   -1.2389   -0.8805 N   0  0  0  0  0  0  0  0  0  0  0  0
    3.9691    0.6518    0.2293 N   0  0  0  0  0  0  0  0  0  0  0  0
   -1.3918   -1.5473   -0.7230 C   0  0  0  0  0  0  0  0  0  0  0  0
    2.3540   -1.0941   -0.4473 C   0  0  0  0  0  0  0  0  0  0  0  0
   -2.3838   -0.4864   -0.3263 C   0  0  0  0  0  0  0  0  0  0  0  0
   -0.0653   -1.4316    0.0032 C   0  0  0  0  0  0  0  0  0  0  0  0
    2.6666    0.3708   -0.1980 C   0  0  0  0  0  0  0  0  0  0  0  0
   -3.2517   -0.7233    0.7305 C   0  0  0  0  0  0  0  0  0  0  0  0
   -2.4166    0.7132   -1.0232 C   0  0  0  0  0  0  0  0  0  0  0  0
    4.4245    2.0116    0.5089 C   0  0  0  0  0  0  0  0  0  0  0  0
    4.9679   -0.3911    0.4272 C   0  0  0  0  0  0  0  0  0  0  0  0
   -4.1711    0.2593    1.0978 C   0  0  0  0  0  0  0  0  0  0  0  0
   -3.3359    1.6960   -0.6560 C   0  0  0  0  0  0  0  0  0  0  0  0
   -4.2131    1.4689    0.4045 C   0  0  0  0  0  0  0  0  0  0  0  0
  1  8  2  0
  2  9  2  0
  3  6  1  0
  3  8  1  0
  4  9  1  0
  4 12  1  0
  4 13  1  0
  5  7  1  0
  5  8  1  0
  6  9  1  0
  7 10  2  0
  7 11  1  0
 10 14  1  0
 11 15  2  0
 14 16  2  0
 15 16  1  0
M  END
>  <PUBCHEM_COMPOUND_CID>  (1) 
32995

>  <PUBCHEM_CONFORMER_RMSD>  (1) 
0.8

>  <PUBCHEM_CONFORMER_DIVERSEORDER>  (1) 
2
3
11
17
18
16
19
4
13
14
15
10
5
6
7
8
12
1
9

>  <PUBCHEM_MMFF94_PARTIAL_CHARGES>  (1) 
22
1 -0.57
10 -0.15
11 -0.15
12 0.3
13 0.3
14 -0.15
15 -0.15
16 -0.15
2 -0.57
21 0.37
22 0.15
23 0.15
3 -0.73
30 0.15
31 0.15
32 0.15
4 -0.66
5 0.2
6 0.36
7 -0.14
8 0.57
9 0.57

>  <PUBCHEM_EFFECTIVE_ROTOR_COUNT>  (1) 
6

>  <PUBCHEM_PHARMACOPHORE_FEATURES>  (1) 
4
1 1 acceptor
1 2 acceptor
1 3 donor
6 7 10 11 14 15 16 rings

>  <PUBCHEM_HEAVY_ATOM_COUNT>  (1) 
16

>  <PUBCHEM_ATOM_DEF_STEREO_COUNT>  (1) 
0

>  <PUBCHEM_ATOM_UDEF_STEREO_COUNT>  (1) 
0

>  <PUBCHEM_BOND_DEF_STEREO_COUNT>  (1) 
0

>  <PUBCHEM_BOND_UDEF_STEREO_COUNT>  (1) 
0

>  <PUBCHEM_ISOTOPIC_ATOM_COUNT>  (1) 
0

>  <PUBCHEM_COMPONENT_COUNT>  (1) 
1

>  <PUBCHEM_CACTVS_TAUTO_COUNT>  (1) 
2

>  <PUBCHEM_CONFORMER_ID>  (1) 
000080E300000002

>  <PUBCHEM_MMFF94_ENERGY>  (1) 
37.1129

>  <PUBCHEM_FEATURE_SELFOVERLAP>  (1) 
20.297

>  <PUBCHEM_SHAPE_FINGERPRINT>  (1) 
10465860 71 13110957617806649307
11046707 91 8286204950287577214
11132069 177 17967822630589880191
11137873 295 9583514322365658645
11715629 250 18410858741810490207
12006461 19 8214141854354351670
122479 349 18410013273155728310
12596602 18 16226047833768136880
12633257 1 16153723002606812745
12670546 177 12679453197101354930
12892183 10 17676483960583028994
13544653 18 8214142971177808350
13675066 3 18260267447490089166
14123255 352 18411978078870251716
14123255 52 18341330015789199799
14251710 61 8862935087430166309
14251764 18 18408597094169454074
14251764 30 14562805500941689706
14252887 29 13984660335379193082
1741750 31 18131351924978087239
17870717 6 10663825191212446817
18186145 218 18130797723936293086
18915474 69 10087644818832408808
193927 3 10953741062554257864
20374829 77 10159702369488134085
20645476 183 15554440791267809565
20645477 56 18413112761816383814
20871999 31 12463571768473458259
21524375 3 18411136965402258927
22646028 28 11169914982918589105
23402539 116 14549022078878750978
23403322 49 8790887380433320965
23557571 272 17703230727521703839
23559900 14 17561366176135830958
27216 239 18408887352074593273
351380 180 18260546744802232313
4259306 186 8286209335734270184
4921388 177 14476954627711557261
5104073 3 18337666512155304786
6430166 295 18411978057637709494
76465 3 12396596173361709321

>  <PUBCHEM_SHAPE_MULTIPOLES>  (1) 
307.57
10.1
1.97
1.03
6.05
0.35
0.07
5.06
2.27
0.24
-0.05
-0.61
-0.08
0.45

>  <PUBCHEM_SHAPE_SELFOVERLAP>  (1) 
622.047

>  <PUBCHEM_SHAPE_VOLUME>  (1) 
179.7

>  <PUBCHEM_COORDINATE_TYPE>  (1) 
2
5
10

$$$$
