3300
     RDKit          3D

 21 22  0  0  0  0  0  0  0  0999 V2000
    1.9272    0.8981   -1.0995 O   0  0  0  0  0  0  0  0  0  0  0  0
   -5.4022   -0.2450    0.3640 O   0  0  0  0  0  0  0  0  0  0  0  0
   -4.9519    1.8802   -0.3971 O   0  0  0  0  0  0  0  0  0  0  0  0
    4.3100   -0.2674   -0.3399 N   0  0  0  0  0  0  0  0  0  0  0  0
    0.7889   -0.9960   -0.3066 N   0  0  0  0  0  0  0  0  0  0  0  0
    6.6266    0.6314    1.1989 C   0  0  0  0  0  0  0  0  0  0  0  0
    6.7695   -0.1761   -0.0862 C   0  0  0  0  0  0  0  0  0  0  0  0
    5.3026    1.3871    1.2086 C   0  0  0  0  0  0  0  0  0  0  0  0
    5.5460   -1.0624   -0.3251 C   0  0  0  0  0  0  0  0  0  0  0  0
    4.1256    0.4516    0.9286 C   0  0  0  0  0  0  0  0  0  0  0  0
    3.1554   -1.1216   -0.6162 C   0  0  0  0  0  0  0  0  0  0  0  0
    1.9044   -0.2653   -0.7106 C   0  0  0  0  0  0  0  0  0  0  0  0
   -0.5560   -0.5585   -0.2503 C   0  0  0  0  0  0  0  0  0  0  0  0
   -0.8634    0.7379   -0.6284 C   0  0  0  0  0  0  0  0  0  0  0  0
   -1.5359   -1.4363    0.1821 C   0  0  0  0  0  0  0  0  0  0  0  0
   -3.1879    0.2970   -0.1394 C   0  0  0  0  0  0  0  0  0  0  0  0
   -2.1890    1.1688   -0.5725 C   0  0  0  0  0  0  0  0  0  0  0  0
   -2.8614   -1.0057    0.2379 C   0  0  0  0  0  0  0  0  0  0  0  0
   -4.5701    0.7453   -0.0819 C   0  0  0  0  0  0  0  0  0  0  0  0
   -6.7941    0.0752    0.4634 C   0  0  0  0  0  0  0  0  0  0  0  0
   -7.5443   -1.1381    0.9702 C   0  0  0  0  0  0  0  0  0  0  0  0
  1 12  2  0
  2 19  1  0
  2 20  1  0
  3 19  2  0
  4  9  1  0
  4 10  1  0
  4 11  1  0
  5 12  1  0
  5 13  1  0
  6  7  1  0
  6  8  1  0
  7  9  1  0
  8 10  1  0
 11 12  1  0
 13 14  2  0
 13 15  1  0
 14 17  1  0
 15 18  2  0
 16 17  2  0
 16 18  1  0
 16 19  1  0
 20 21  1  0
M  END
>  <PUBCHEM_COMPOUND_CID>  (1) 
3300

>  <PUBCHEM_CONFORMER_RMSD>  (1) 
0.8

>  <PUBCHEM_CONFORMER_DIVERSEORDER>  (1) 
1
22
5
34
32
24
8
31
11
28
21
23
33
20
29
4
10
26
3
9
25
16
17
13
27
7
15
12
19
18
14
2
30
6

>  <PUBCHEM_MMFF94_PARTIAL_CHARGES>  (1) 
22
1 -0.57
10 0.27
11 0.33
12 0.57
13 0.12
14 -0.15
15 -0.15
16 0.09
17 -0.15
18 -0.15
19 0.63
2 -0.43
20 0.28
3 -0.57
34 0.37
35 0.15
36 0.15
37 0.15
38 0.15
4 -0.81
5 -0.55
9 0.27

>  <PUBCHEM_EFFECTIVE_ROTOR_COUNT>  (1) 
8.2

>  <PUBCHEM_PHARMACOPHORE_FEATURES>  (1) 
6
1 1 acceptor
1 3 acceptor
1 4 cation
1 5 donor
6 13 14 15 16 17 18 rings
6 4 6 7 8 9 10 rings

>  <PUBCHEM_HEAVY_ATOM_COUNT>  (1) 
21

>  <PUBCHEM_ATOM_DEF_STEREO_COUNT>  (1) 
0

>  <PUBCHEM_ATOM_UDEF_STEREO_COUNT>  (1) 
0

>  <PUBCHEM_BOND_DEF_STEREO_COUNT>  (1) 
0

>  <PUBCHEM_BOND_UDEF_STEREO_COUNT>  (1) 
0

>  <PUBCHEM_ISOTOPIC_ATOM_COUNT>  (1) 
0

>  <PUBCHEM_COMPONENT_COUNT>  (1) 
1

>  <PUBCHEM_CACTVS_TAUTO_COUNT>  (1) 
3

>  <PUBCHEM_CONFORMER_ID>  (1) 
00000CE400000001

>  <PUBCHEM_MMFF94_ENERGY>  (1) 
44.8628

>  <PUBCHEM_FEATURE_SELFOVERLAP>  (1) 
30.446

>  <PUBCHEM_SHAPE_FINGERPRINT>  (1) 
10 15 18334856151818484896
106641 1 17895193337945490072
11315181 36 7997681021938225559
11646440 116 18342182167281465425
12236239 1 16443346455648106540
12670543 26 9367351431276707713
12730499 353 18202567250734504886
13073987 5 18336828581052251827
13167372 99 17131558241294071632
13288520 33 8502370040473779487
13533116 47 18339359652783452970
13668630 136 14418130695553923936
13862211 1 18040159530872932983
13885169 127 12179833997049429063
14123256 10 11671783766987568987
14251752 14 11455897940186580531
14251764 18 17240488021819358982
14251764 46 17749109989015629799
14341114 176 18342738512202711688
14933364 13 18131351903518691736
15048467 5 14979959160015591049
15183329 4 13686297972108804995
15690457 1 16153425073388553371
18006028 8 13262396670115334279
1813 80 15574998313255101950
19489759 90 17095244705487228957
20157964 124 17275106124625694350
20281389 69 18413669102084005952
20645477 56 18412822469298019374
20735858 18 18333733524529087019
21033648 29 17987785441271772810
21130935 74 18336829680258489955
21267235 1 18259994759647201303
220451 1 14764344912454723519
22224240 67 18202002136254722831
23035841 295 10375871870542263941
23402539 116 18412820287470392551
23559900 14 18336274440372524486
23622692 88 17603585244207618190
28498 318 12540688224264281059
2916195 48 18342452625767041353
29717793 49 8646767802900992794
328311 84 18272938193877252726
3383291 50 17968103057800910475
34797466 226 17346604075676646452
351380 3 16081083775655107232
3545911 37 18412546496432942558
4073 2 18335984268192664114
465052 167 13695871398788464194
5104073 3 18264491685343715619
542803 24 15769773546091647044
59682541 35 18341617053445040899
59755656 520 16200145487195322981
6438161 24 9943539488245210700

>  <PUBCHEM_SHAPE_MULTIPOLES>  (1) 
404.6
20.19
1.42
1
4.05
0.13
-0.13
0.74
-6.91
0.3
-0.01
-0.53
0.15
1.72

>  <PUBCHEM_SHAPE_SELFOVERLAP>  (1) 
834.174

>  <PUBCHEM_SHAPE_VOLUME>  (1) 
231.7

>  <PUBCHEM_COORDINATE_TYPE>  (1) 
2
5
10

$$$$
