33006
     RDKit          3D

 13 12  0  0  0  0  0  0  0  0999 V2000
    1.6961   -2.3589   -0.3311 O   0  0  0  0  0  0  0  0  0  0  0  0
    3.3839    1.2482    0.7035 O   0  0  0  0  0  0  0  0  0  0  0  0
    1.6318   -0.0138   -0.2836 N   0  0  0  0  0  0  0  0  0  0  0  0
   -2.1641    0.0872   -0.6425 C   0  0  0  0  0  0  0  0  0  0  0  0
   -0.7904    0.0517    0.0367 C   0  0  0  0  0  0  0  0  0  0  0  0
   -3.2920    0.0050    0.3893 C   0  0  0  0  0  0  0  0  0  0  0  0
    0.3619    0.0658   -0.9643 C   0  0  0  0  0  0  0  0  0  0  0  0
   -4.6883    0.0057   -0.2366 C   0  0  0  0  0  0  0  0  0  0  0  0
   -5.8100   -0.1467    0.7792 C   0  0  0  0  0  0  0  0  0  0  0  0
    2.2185   -1.2867   -0.0124 C   0  0  0  0  0  0  0  0  0  0  0  0
    2.3011    1.1821    0.1185 C   0  0  0  0  0  0  0  0  0  0  0  0
    3.5430   -1.3113    0.7095 C   0  0  0  0  0  0  0  0  0  0  0  0
    1.6086    2.4718   -0.2660 C   0  0  0  0  0  0  0  0  0  0  0  0
  1 10  2  0
  2 11  2  0
  3  7  1  0
  3 10  1  0
  3 11  1  0
  4  5  1  0
  4  6  1  0
  5  7  1  0
  6  8  1  0
  8  9  1  0
 10 12  1  0
 11 13  1  0
M  END
>  <PUBCHEM_COMPOUND_CID>  (1) 
33006

>  <PUBCHEM_CONFORMER_RMSD>  (1) 
0.8

>  <PUBCHEM_CONFORMER_DIVERSEORDER>  (1) 
1
47
20
16
11
28
30
39
50
51
46
25
33
9
32
44
42
48
26
7
43
52
10
35
3
49
36
34
8
17
5
6
24
53
18
41
15
37
14
38
29
45
27
21
23
4
2
22
40
19
31
13
12

>  <PUBCHEM_MMFF94_PARTIAL_CHARGES>  (1) 
8
1 -0.57
10 0.57
11 0.57
12 0.06
13 0.06
2 -0.57
3 -0.42
7 0.3

>  <PUBCHEM_EFFECTIVE_ROTOR_COUNT>  (1) 
7

>  <PUBCHEM_PHARMACOPHORE_FEATURES>  (1) 
4
1 1 acceptor
1 2 acceptor
1 9 hydrophobe
4 4 5 6 8 hydrophobe

>  <PUBCHEM_HEAVY_ATOM_COUNT>  (1) 
13

>  <PUBCHEM_ATOM_DEF_STEREO_COUNT>  (1) 
0

>  <PUBCHEM_ATOM_UDEF_STEREO_COUNT>  (1) 
0

>  <PUBCHEM_BOND_DEF_STEREO_COUNT>  (1) 
0

>  <PUBCHEM_BOND_UDEF_STEREO_COUNT>  (1) 
0

>  <PUBCHEM_ISOTOPIC_ATOM_COUNT>  (1) 
0

>  <PUBCHEM_COMPONENT_COUNT>  (1) 
1

>  <PUBCHEM_CACTVS_TAUTO_COUNT>  (1) 
1

>  <PUBCHEM_CONFORMER_ID>  (1) 
000080EE00000001

>  <PUBCHEM_MMFF94_ENERGY>  (1) 
22.3368

>  <PUBCHEM_FEATURE_SELFOVERLAP>  (1) 
20.298

>  <PUBCHEM_SHAPE_FINGERPRINT>  (1) 
10912923 1 17917713522426268635
12251169 10 18343580724702440447
12346645 6 18412262856671226572
14251717 144 18410854347832203247
14252887 29 17967816050431002793
19050596 39 18130784577515939111
20559304 39 18273217469392740728
20645477 70 18410009918997513759
20871998 22 18197779891102171310
22485316 2 18411418432421641399
23048698 100 18131356301997732579
23532345 1 18338240465778170417
31174 14 18334853926624654893
42 15 18334297544192875175
449060 62 18271248321493083717
5374978 207 18272373062175156761
57483677 85 18409732897790768265
8272917 22 18412832395062320829

>  <PUBCHEM_SHAPE_MULTIPOLES>  (1) 
250.81
9.57
1.91
0.86
15.74
0.29
0.01
-1.08
-2.83
-2.87
0.04
0.11
-0.02
0.09

>  <PUBCHEM_SHAPE_SELFOVERLAP>  (1) 
466.201

>  <PUBCHEM_SHAPE_VOLUME>  (1) 
156.9

>  <PUBCHEM_COORDINATE_TYPE>  (1) 
2
5
10

$$$$
