33012
     RDKit          3D

 20 23  0  0  0  0  0  0  0  0999 V2000
   -1.8865   -0.8082   -0.0022 C   0  0  0  0  0  0  0  0  0  0  0  0
   -2.3116    0.5238    0.0043 C   0  0  0  0  0  0  0  0  0  0  0  0
   -2.8708   -1.9510    0.0397 C   0  0  0  0  0  0  0  0  0  0  0  0
   -3.7738    0.8898   -0.0306 C   0  0  0  0  0  0  0  0  0  0  0  0
   -4.2887   -1.5408   -0.3542 C   0  0  0  0  0  0  0  0  0  0  0  0
   -4.6930   -0.2629    0.3695 C   0  0  0  0  0  0  0  0  0  0  0  0
   -0.5092   -1.0925    0.0107 C   0  0  0  0  0  0  0  0  0  0  0  0
   -1.3514    1.5420   -0.0155 C   0  0  0  0  0  0  0  0  0  0  0  0
    0.4842   -0.0814    0.0019 C   0  0  0  0  0  0  0  0  0  0  0  0
    0.0249    1.2584   -0.0141 C   0  0  0  0  0  0  0  0  0  0  0  0
    1.9017   -0.3386    0.0073 C   0  0  0  0  0  0  0  0  0  0  0  0
   -0.2054   -2.5619   -0.0025 C   0  0  0  0  0  0  0  0  0  0  0  0
   -1.8272    2.9699   -0.0250 C   0  0  0  0  0  0  0  0  0  0  0  0
    0.9440    2.3110   -0.0277 C   0  0  0  0  0  0  0  0  0  0  0  0
    2.8044    0.7567   -0.0059 C   0  0  0  0  0  0  0  0  0  0  0  0
    2.3128    2.0642   -0.0236 C   0  0  0  0  0  0  0  0  0  0  0  0
    2.4759   -1.6346    0.0248 C   0  0  0  0  0  0  0  0  0  0  0  0
    4.1930    0.5402   -0.0016 C   0  0  0  0  0  0  0  0  0  0  0  0
    3.8589   -1.8361    0.0291 C   0  0  0  0  0  0  0  0  0  0  0  0
    4.7177   -0.7481    0.0156 C   0  0  0  0  0  0  0  0  0  0  0  0
  1  2  2  0
  1  3  1  0
  1  7  1  0
  2  4  1  0
  2  8  1  0
  3  5  1  0
  4  6  1  0
  5  6  1  0
  7  9  2  0
  7 12  1  0
  8 10  2  0
  8 13  1  0
  9 10  1  0
  9 11  1  0
 10 14  1  0
 11 15  2  0
 11 17  1  0
 14 16  2  0
 15 16  1  0
 15 18  1  0
 17 19  2  0
 18 20  2  0
 19 20  1  0
M  END
>  <PUBCHEM_COMPOUND_CID>  (1) 
33012

>  <PUBCHEM_CONFORMER_RMSD>  (1) 
0.6

>  <PUBCHEM_CONFORMER_DIVERSEORDER>  (1) 
1

>  <PUBCHEM_MMFF94_PARTIAL_CHARGES>  (1) 
20
1 -0.14
12 0.14
13 0.14
14 -0.15
16 -0.15
17 -0.15
18 -0.15
19 -0.15
2 -0.14
20 -0.15
3 0.14
35 0.15
36 0.15
37 0.15
38 0.15
39 0.15
4 0.14
40 0.15
7 -0.14
8 -0.14

>  <PUBCHEM_EFFECTIVE_ROTOR_COUNT>  (1) 
0.8

>  <PUBCHEM_PHARMACOPHORE_FEATURES>  (1) 
4
6 1 2 3 4 5 6 rings
6 1 2 7 8 9 10 rings
6 11 15 17 18 19 20 rings
6 9 10 11 14 15 16 rings

>  <PUBCHEM_HEAVY_ATOM_COUNT>  (1) 
20

>  <PUBCHEM_ATOM_DEF_STEREO_COUNT>  (1) 
0

>  <PUBCHEM_ATOM_UDEF_STEREO_COUNT>  (1) 
0

>  <PUBCHEM_BOND_DEF_STEREO_COUNT>  (1) 
0

>  <PUBCHEM_BOND_UDEF_STEREO_COUNT>  (1) 
0

>  <PUBCHEM_ISOTOPIC_ATOM_COUNT>  (1) 
0

>  <PUBCHEM_COMPONENT_COUNT>  (1) 
1

>  <PUBCHEM_CACTVS_TAUTO_COUNT>  (1) 
1

>  <PUBCHEM_CONFORMER_ID>  (1) 
000080F400000001

>  <PUBCHEM_MMFF94_ENERGY>  (1) 
90.4532

>  <PUBCHEM_FEATURE_SELFOVERLAP>  (1) 
20.366

>  <PUBCHEM_SHAPE_FINGERPRINT>  (1) 
10062212 137 18272929457850423615
10616163 171 18411983529051875071
10693767 8 18056738027342738279
10967382 1 18266458891586020268
11132069 177 18411695478437672497
11680986 33 18191590950111882443
116883 192 18412831256948689502
11806522 49 18408603664889122684
12011746 2 18411140229656135646
12236239 1 17917995010092767251
12403259 226 18411412908244807912
12553582 1 18410847785032198818
13140716 1 18411427241061832259
13583140 156 14333128542242357103
138480 1 15024148119487058061
13862211 1 18410569587179280275
14115302 16 17822582697557933870
14178342 30 18194389014501003328
14790565 3 17547576972398559777
14866123 147 17263010156268427258
15042514 8 18049438141769338730
15196674 1 18410855468723390636
15209289 33 18407762525561635971
15442244 35 18411138008910032528
15536298 74 18342175608945142048
16945 1 18338516464455261708
17492 89 18338234864714237026
17804303 29 18412547599944144877
1813 80 17458344156288236540
18186145 218 17749099028459595911
19141452 34 18272371984091054871
19591789 44 18338517409216340962
200 152 18131067164699203855
20028762 73 18130221657564849983
20510252 161 18271525295185709008
20739085 24 18191048818519527329
21029758 11 18413103965918416793
21267235 1 18410583893651942282
21279426 13 18265049124880424293
21421861 104 17970626294524527210
221490 88 18263369251027191451
2334 1 18266741470812431157
23366157 5 17969500588276386012
23402539 116 18341887493885837895
23463225 33 18410294726398977309
23557571 272 18200882760302469422
23559900 14 18413101788623426272
238 59 12152234550127022638
2748010 2 18338794503479169756
2871803 45 18334852818391048014
335352 9 18338516327206089309
34934 24 18340200920848708014
350125 39 18410578366076700008
4214541 1 18411137991693447881
5104073 3 18411981377220194792
69090 78 18413386544527727102
7364860 26 18269272529442257736
8809292 202 18333735740394530339
9709674 26 18411143536670664206

>  <PUBCHEM_SHAPE_MULTIPOLES>  (1) 
411.59
8.42
2.9
0.63
0.31
0.68
0
-2.6
0.11
-0.37
-0.05
-0.06
-0.01
-0.1

>  <PUBCHEM_SHAPE_SELFOVERLAP>  (1) 
926.107

>  <PUBCHEM_SHAPE_VOLUME>  (1) 
204.1

>  <PUBCHEM_COORDINATE_TYPE>  (1) 
2
5
10

$$$$
