33024
     RDKit          3D

 13 14  0  0  0  0  0  0  0  0999 V2000
   -2.0853    1.5458   -0.0001 O   0  0  0  0  0  0  0  0  0  0  0  0
    2.0985    1.9452    0.0006 O   0  0  0  0  0  0  0  0  0  0  0  0
    1.9531   -0.3915    0.0005 N   0  0  0  0  0  0  0  0  0  0  0  0
    1.1884   -1.5574   -0.0004 N   0  0  0  0  0  0  0  0  0  0  0  0
   -0.7771    2.0396   -0.0010 N   0  0  0  0  0  0  0  0  0  0  0  0
   -0.7540   -0.2287   -0.0003 C   0  0  0  0  0  0  0  0  0  0  0  0
   -0.0092    0.9482   -0.0006 C   0  0  0  0  0  0  0  0  0  0  0  0
   -0.1121   -1.5044   -0.0002 C   0  0  0  0  0  0  0  0  0  0  0  0
   -2.0554    0.1819    0.0002 C   0  0  0  0  0  0  0  0  0  0  0  0
    1.4289    0.9165   -0.0003 C   0  0  0  0  0  0  0  0  0  0  0  0
   -0.9056   -2.7794   -0.0008 C   0  0  0  0  0  0  0  0  0  0  0  0
   -3.3582   -0.4947    0.0017 C   0  0  0  0  0  0  0  0  0  0  0  0
    3.3881   -0.6211    0.0008 C   0  0  0  0  0  0  0  0  0  0  0  0
  1  5  1  0
  1  9  1  0
  2 10  2  0
  3  4  1  0
  3 10  1  0
  3 13  1  0
  4  8  2  0
  5  7  2  0
  6  7  1  0
  6  8  1  0
  6  9  2  0
  7 10  1  0
  8 11  1  0
  9 12  1  0
M  END
>  <PUBCHEM_COMPOUND_CID>  (1) 
33024

>  <PUBCHEM_CONFORMER_RMSD>  (1) 
0.4

>  <PUBCHEM_CONFORMER_DIVERSEORDER>  (1) 
1

>  <PUBCHEM_MMFF94_PARTIAL_CHARGES>  (1) 
13
1 -0.02
10 0.72
11 0.06
12 0.18
13 0.3
2 -0.57
3 -0.3
4 -0.51
5 -0.41
6 -0.09
7 0.2
8 0.48
9 -0.04

>  <PUBCHEM_EFFECTIVE_ROTOR_COUNT>  (1) 
0

>  <PUBCHEM_PHARMACOPHORE_FEATURES>  (1) 
5
1 2 acceptor
1 4 acceptor
1 5 acceptor
5 1 5 6 7 9 rings
6 3 4 6 7 8 10 rings

>  <PUBCHEM_HEAVY_ATOM_COUNT>  (1) 
13

>  <PUBCHEM_ATOM_DEF_STEREO_COUNT>  (1) 
0

>  <PUBCHEM_ATOM_UDEF_STEREO_COUNT>  (1) 
0

>  <PUBCHEM_BOND_DEF_STEREO_COUNT>  (1) 
0

>  <PUBCHEM_BOND_UDEF_STEREO_COUNT>  (1) 
0

>  <PUBCHEM_ISOTOPIC_ATOM_COUNT>  (1) 
0

>  <PUBCHEM_COMPONENT_COUNT>  (1) 
1

>  <PUBCHEM_CACTVS_TAUTO_COUNT>  (1) 
1

>  <PUBCHEM_CONFORMER_ID>  (1) 
0000810000000001

>  <PUBCHEM_MMFF94_ENERGY>  (1) 
27.7224

>  <PUBCHEM_FEATURE_SELFOVERLAP>  (1) 
25.486

>  <PUBCHEM_SHAPE_FINGERPRINT>  (1) 
10967382 1 18338517550760006854
11206711 2 18336548205228460205
12423570 1 12098284434665337850
13140716 1 18266457787959105018
13380535 21 18122355824129439264
13380535 76 18268424801544767686
14325111 11 18410856555382050848
16945 1 18410575080468539782
193761 8 17906171003021864710
20871998 184 18200597019938372422
21040471 1 18410575123423435524
21501502 16 18195526123919034198
2334 1 17978229683813417890
23402539 116 18342443838121620198
23402655 69 18123451797390557437
23463225 33 18046343037901261466
23526114 1 17978791211964054239
23552423 10 18335704871394055301
23559900 14 18270973427392669108
241688 4 17690565178150522162
2748010 2 18123191465772544110
5084963 1 18130786733035458481
528886 8 18266734697353651889
53812653 166 18197774414686384088
54173680 148 18337392767729927218
66348 1 18409450249939852219

>  <PUBCHEM_SHAPE_MULTIPOLES>  (1) 
240.85
4.09
2.45
0.58
0.53
0.62
0
0.05
0
-0.24
0
-0.02
0.03
0

>  <PUBCHEM_SHAPE_SELFOVERLAP>  (1) 
516.738

>  <PUBCHEM_SHAPE_VOLUME>  (1) 
136.5

>  <PUBCHEM_COORDINATE_TYPE>  (1) 
2
5
10

$$$$
