33028
     RDKit          3D

 23 26  0  0  0  0  0  0  0  0999 V2000
    1.8011    3.4288   -0.0122 O   0  0  0  0  0  0  0  0  0  0  0  0
   -2.2471    2.5187   -0.2511 O   0  0  0  0  0  0  0  0  0  0  0  0
   -1.4341    0.3041   -0.0496 N   0  0  0  0  0  0  0  0  0  0  0  0
   -0.3222   -0.5438   -0.0107 N   0  0  0  0  0  0  0  0  0  0  0  0
    0.4092    3.4715   -0.0956 N   0  0  0  0  0  0  0  0  0  0  0  0
    1.1158    1.3147   -0.0308 C   0  0  0  0  0  0  0  0  0  0  0  0
    0.8995   -0.0972   -0.0134 C   0  0  0  0  0  0  0  0  0  0  0  0
    0.0333    2.1903   -0.0923 C   0  0  0  0  0  0  0  0  0  0  0  0
    2.2107    2.1301    0.0348 C   0  0  0  0  0  0  0  0  0  0  0  0
   -1.3279    1.7163   -0.1352 C   0  0  0  0  0  0  0  0  0  0  0  0
    2.0284   -1.0477    0.0191 C   0  0  0  0  0  0  0  0  0  0  0  0
   -2.6856   -0.4153   -0.0054 C   0  0  0  0  0  0  0  0  0  0  0  0
    3.6592    1.9106    0.1352 C   0  0  0  0  0  0  0  0  0  0  0  0
    2.5431   -1.4798    1.2416 C   0  0  0  0  0  0  0  0  0  0  0  0
    2.5800   -1.5156   -1.1737 C   0  0  0  0  0  0  0  0  0  0  0  0
   -3.8112    0.1792    0.5644 C   0  0  0  0  0  0  0  0  0  0  0  0
   -2.7678   -1.7041   -0.5316 C   0  0  0  0  0  0  0  0  0  0  0  0
    3.6088   -2.3795    1.2712 C   0  0  0  0  0  0  0  0  0  0  0  0
    3.6457   -2.4151   -1.1441 C   0  0  0  0  0  0  0  0  0  0  0  0
   -5.0199   -0.5156    0.6077 C   0  0  0  0  0  0  0  0  0  0  0  0
   -3.9765   -2.3989   -0.4882 C   0  0  0  0  0  0  0  0  0  0  0  0
    4.1601   -2.8471    0.0784 C   0  0  0  0  0  0  0  0  0  0  0  0
   -5.1026   -1.8047    0.0814 C   0  0  0  0  0  0  0  0  0  0  0  0
  1  5  1  0
  1  9  1  0
  2 10  2  0
  3  4  1  0
  3 10  1  0
  3 12  1  0
  4  7  2  0
  5  8  2  0
  6  7  1  0
  6  8  1  0
  6  9  2  0
  7 11  1  0
  8 10  1  0
  9 13  1  0
 11 14  2  0
 11 15  1  0
 12 16  2  0
 12 17  1  0
 14 18  1  0
 15 19  2  0
 16 20  1  0
 17 21  2  0
 18 22  2  0
 19 22  1  0
 20 23  2  0
 21 23  1  0
M  END
>  <PUBCHEM_COMPOUND_CID>  (1) 
33028

>  <PUBCHEM_CONFORMER_RMSD>  (1) 
0.6

>  <PUBCHEM_CONFORMER_DIVERSEORDER>  (1) 
1
2

>  <PUBCHEM_MMFF94_PARTIAL_CHARGES>  (1) 
33
1 -0.02
10 0.72
11 0.09
12 0.12
13 0.18
14 -0.15
15 -0.15
16 -0.15
17 -0.15
18 -0.15
19 -0.15
2 -0.57
20 -0.15
21 -0.15
22 -0.15
23 -0.15
27 0.15
28 0.15
29 0.15
3 -0.11
30 0.15
31 0.15
32 0.15
33 0.15
34 0.15
35 0.15
36 0.15
4 -0.51
5 -0.41
6 -0.09
7 0.45
8 0.2
9 -0.04

>  <PUBCHEM_EFFECTIVE_ROTOR_COUNT>  (1) 
2

>  <PUBCHEM_PHARMACOPHORE_FEATURES>  (1) 
7
1 2 acceptor
1 4 acceptor
1 5 acceptor
5 1 5 6 8 9 rings
6 11 14 15 18 19 22 rings
6 12 16 17 20 21 23 rings
6 3 4 6 7 8 10 rings

>  <PUBCHEM_HEAVY_ATOM_COUNT>  (1) 
23

>  <PUBCHEM_ATOM_DEF_STEREO_COUNT>  (1) 
0

>  <PUBCHEM_ATOM_UDEF_STEREO_COUNT>  (1) 
0

>  <PUBCHEM_BOND_DEF_STEREO_COUNT>  (1) 
0

>  <PUBCHEM_BOND_UDEF_STEREO_COUNT>  (1) 
0

>  <PUBCHEM_ISOTOPIC_ATOM_COUNT>  (1) 
0

>  <PUBCHEM_COMPONENT_COUNT>  (1) 
1

>  <PUBCHEM_CACTVS_TAUTO_COUNT>  (1) 
1

>  <PUBCHEM_CONFORMER_ID>  (1) 
0000810400000001

>  <PUBCHEM_MMFF94_ENERGY>  (1) 
79.0665

>  <PUBCHEM_FEATURE_SELFOVERLAP>  (1) 
35.637

>  <PUBCHEM_SHAPE_FINGERPRINT>  (1) 
10411042 1 18338235968562549318
10616163 171 17982452908318921999
10906281 52 18043824288505865256
10989021 7 18411420591977723609
1100329 8 18194683657652686697
11578080 2 17604413120813505772
12107183 9 18270129990025037809
12363563 72 18409733919729747299
12553582 1 18337952290310015247
12633257 1 18270691861662202731
12788726 201 18045793290535078306
12839892 36 17980461675359071944
13009979 54 17988376892079524763
13083527 12 18264467629084112850
13140716 1 18267862783325417520
13533116 47 18269835488481687155
138480 1 18410856576851320303
14739800 52 17274821419353783457
14787075 74 18186803574270760178
14790565 3 17475808550208919656
14844126 61 17902219019072179698
14863182 85 18264773332245776748
15042514 8 18050006584416219307
15442244 35 18413112758106738449
15927050 60 17763744695831237244
17492 89 18340771567495118583
17818456 19 17916882226936958545
1813 80 18340773649841652414
18222031 100 18272084972680161639
20028762 73 17839177764211130054
20600515 1 17979902823152798840
20645477 70 18337949108134615135
20691752 17 17385730153801240432
20832881 197 18187647955976997339
20905425 154 18413111654295161212
21033648 29 17201619074639411547
21197605 99 17543920460776224003
21421861 104 18408604789917411960
21452121 199 18409162199763921704
221490 88 18408608062666536947
22182313 1 18336530651660574740
23184049 29 18337667521061233372
23366157 5 18188776170375151717
23557571 272 17984702217183151894
23559900 14 18412256229647458499
23566358 2 18335976519364436132
2748010 2 18338784616290738356
314173 41 18410580565147564783
3421961 26 18411982476774266595
4409770 3 17684926899735064469
5104073 3 18341905121286319507
5902787 121 18265329508872137810
59755656 215 18336546135244205364
6138700 20 18339087107444411108
7364860 26 18341334504029998132
7970288 3 18337389344720756771
8863177 126 17896621638042144379
9709674 26 18263928894409968627
9841814 1 18333725827773736626

>  <PUBCHEM_SHAPE_MULTIPOLES>  (1) 
446.65
9.22
4.16
0.93
7.6
2.2
-0.05
-7.81
-0.79
-3.08
0.26
-0.61
-0.57
-0.24

>  <PUBCHEM_SHAPE_SELFOVERLAP>  (1) 
998.09

>  <PUBCHEM_SHAPE_VOLUME>  (1) 
236.8

>  <PUBCHEM_COORDINATE_TYPE>  (1) 
2
5
10

$$$$
