33033
     RDKit          3D

 15 16  0  0  0  0  0  0  0  0999 V2000
    3.3994    0.7245    0.0737 N   0  0  0  0  0  0  0  0  0  0  0  0
    0.5347   -2.4262   -0.0193 N   0  0  0  0  0  0  0  0  0  0  0  0
   -4.1570    2.3700    0.0060 N   0  0  0  0  0  0  0  0  0  0  0  0
    1.2818   -0.3745   -0.4186 C   0  0  0  0  0  0  0  0  0  0  0  0
   -0.1253   -0.3045   -0.2187 C   0  0  0  0  0  0  0  0  0  0  0  0
    2.1855    0.7563   -0.7120 C   0  0  0  0  0  0  0  0  0  0  0  0
   -0.5693   -1.6051    0.0293 C   0  0  0  0  0  0  0  0  0  0  0  0
    1.6580   -1.6916   -0.2893 C   0  0  0  0  0  0  0  0  0  0  0  0
   -1.0668    0.7438   -0.2253 C   0  0  0  0  0  0  0  0  0  0  0  0
   -1.9132   -1.9112    0.2714 C   0  0  0  0  0  0  0  0  0  0  0  0
   -2.4146    0.4526    0.0150 C   0  0  0  0  0  0  0  0  0  0  0  0
    3.0992    0.7801    1.5098 C   0  0  0  0  0  0  0  0  0  0  0  0
    4.2929    1.8307   -0.2913 C   0  0  0  0  0  0  0  0  0  0  0  0
   -2.8290   -0.8553    0.2593 C   0  0  0  0  0  0  0  0  0  0  0  0
   -3.3761    1.5107    0.0100 C   0  0  0  0  0  0  0  0  0  0  0  0
  1  6  1  0
  1 12  1  0
  1 13  1  0
  2  7  1  0
  2  8  1  0
  3 15  3  0
  4  5  1  0
  4  6  1  0
  4  8  2  0
  5  7  2  0
  5  9  1  0
  7 10  1  0
  9 11  2  0
 10 14  2  0
 11 14  1  0
 11 15  1  0
M  END
>  <PUBCHEM_COMPOUND_CID>  (1) 
33033

>  <PUBCHEM_CONFORMER_RMSD>  (1) 
0.6

>  <PUBCHEM_CONFORMER_DIVERSEORDER>  (1) 
1
2
5
3
4

>  <PUBCHEM_MMFF94_PARTIAL_CHARGES>  (1) 
19
1 -0.81
10 -0.15
11 0.07
12 0.27
13 0.27
14 -0.15
15 0.48
18 0.15
19 0.27
2 0.03
20 0.15
21 0.15
28 0.15
3 -0.56
4 -0.18
6 0.45
7 -0.15
8 -0.3
9 -0.15

>  <PUBCHEM_EFFECTIVE_ROTOR_COUNT>  (1) 
2

>  <PUBCHEM_PHARMACOPHORE_FEATURES>  (1) 
6
1 1 cation
1 2 cation
1 2 donor
1 3 acceptor
5 2 4 5 7 8 rings
6 5 7 9 10 11 14 rings

>  <PUBCHEM_HEAVY_ATOM_COUNT>  (1) 
15

>  <PUBCHEM_ATOM_DEF_STEREO_COUNT>  (1) 
0

>  <PUBCHEM_ATOM_UDEF_STEREO_COUNT>  (1) 
0

>  <PUBCHEM_BOND_DEF_STEREO_COUNT>  (1) 
0

>  <PUBCHEM_BOND_UDEF_STEREO_COUNT>  (1) 
0

>  <PUBCHEM_ISOTOPIC_ATOM_COUNT>  (1) 
0

>  <PUBCHEM_COMPONENT_COUNT>  (1) 
1

>  <PUBCHEM_CACTVS_TAUTO_COUNT>  (1) 
1

>  <PUBCHEM_CONFORMER_ID>  (1) 
0000810900000001

>  <PUBCHEM_MMFF94_ENERGY>  (1) 
29.1422

>  <PUBCHEM_FEATURE_SELFOVERLAP>  (1) 
30.537

>  <PUBCHEM_SHAPE_FINGERPRINT>  (1) 
10465860 228 18337957766308388916
10608611 8 18411703175013850565
11127187 94 10303826362547614331
11543360 7 16128362775480982101
11769659 78 9079111155014388583
12173636 292 18123185968541420684
122479 349 18410293609691675505
12382932 28 18407761425981403793
12390115 104 18269296670999923232
13140716 1 18262520277932733227
13380535 76 18408601453023325695
13571099 52 18343299262452232990
13764800 53 18411707603304526553
14897335 6 18410853227146088167
15042514 8 17977110385203348154
15219456 202 18412270510129147415
16945 1 18265341792220544343
1741750 31 18342178843219046305
17834072 32 18409732893232784508
18186145 218 17988939876381997804
20281475 54 9151179770064959700
20510252 161 18197787793409089528
20525323 117 18336542815229236607
21501502 16 18410284796529982627
21524375 3 18341043047369982519
23382010 3 13973672971090023988
23402539 116 18124871515424582719
23559900 14 18271814493399490398
2748010 2 18337687333893355415
305870 269 18408039598228679018
3071541 12 18195533588387747326
4463277 69 11170214059120003465
474 4 18338234860624497849
53812653 166 18342739623871182769
7097593 13 17896015708007424778
7364860 26 18126849296198026454
84936 182 18056756525143895793
90316 7 17458611328918635852

>  <PUBCHEM_SHAPE_MULTIPOLES>  (1) 
293.75
6.89
2.47
0.84
1.76
0.28
-0.21
-5.75
-0.59
-1.16
0.03
0.6
-0.11
0.2

>  <PUBCHEM_SHAPE_SELFOVERLAP>  (1) 
630.313

>  <PUBCHEM_SHAPE_VOLUME>  (1) 
164.4

>  <PUBCHEM_COORDINATE_TYPE>  (1) 
2
5
10

$$$$
