33035
     RDKit          3D

  5  4  0  0  0  0  0  0  0  0999 V2000
   -1.2587   -1.4565   -0.1977 Cl  0  0  0  0  0  0  0  0  0  0  0  0
   -1.2588    1.4566   -0.1977 Cl  0  0  0  0  0  0  0  0  0  0  0  0
   -0.4942    0.0000    0.4635 C   0  0  0  0  0  0  0  0  0  0  0  0
    0.9226   -0.0001    0.1084 C   0  0  0  0  0  0  0  0  0  0  0  0
    2.0891    0.0001   -0.1765 C   0  0  0  0  0  0  0  0  0  0  0  0
  1  3  1  0
  2  3  1  0
  3  4  1  0
  4  5  3  0
M  END
>  <PUBCHEM_COMPOUND_CID>  (1) 
33035

>  <PUBCHEM_CONFORMER_RMSD>  (1) 
0.4

>  <PUBCHEM_CONFORMER_DIVERSEORDER>  (1) 
1

>  <PUBCHEM_MMFF94_PARTIAL_CHARGES>  (1) 
6
1 -0.29
2 -0.29
3 0.78
4 -0.2
5 -0.18
7 0.18

>  <PUBCHEM_EFFECTIVE_ROTOR_COUNT>  (1) 
0

>  <PUBCHEM_PHARMACOPHORE_FEATURES>  (1) 
1
1 5 hydrophobe

>  <PUBCHEM_HEAVY_ATOM_COUNT>  (1) 
5

>  <PUBCHEM_ATOM_DEF_STEREO_COUNT>  (1) 
0

>  <PUBCHEM_ATOM_UDEF_STEREO_COUNT>  (1) 
0

>  <PUBCHEM_BOND_DEF_STEREO_COUNT>  (1) 
0

>  <PUBCHEM_BOND_UDEF_STEREO_COUNT>  (1) 
0

>  <PUBCHEM_ISOTOPIC_ATOM_COUNT>  (1) 
0

>  <PUBCHEM_COMPONENT_COUNT>  (1) 
1

>  <PUBCHEM_CACTVS_TAUTO_COUNT>  (1) 
1

>  <PUBCHEM_CONFORMER_ID>  (1) 
0000810B00000001

>  <PUBCHEM_MMFF94_ENERGY>  (1) 
-0.0043

>  <PUBCHEM_FEATURE_SELFOVERLAP>  (1) 
5.074

>  <PUBCHEM_SHAPE_FINGERPRINT>  (1) 
139733 1 8501560786603663923
16714656 1 18410579487289400437
20096714 4 18116154355105209088
21040471 1 18194397797197348840
23552449 1 18412258467214974680
24536 1 17274829030061769392
29004967 10 17977103788064340803
5943 1 12431041428332903529

>  <PUBCHEM_SHAPE_MULTIPOLES>  (1) 
106.64
2.35
1.53
0.7
1.22
0
-0.01
0
0.24
-1.1
0.17
-0.04
0
0

>  <PUBCHEM_SHAPE_SELFOVERLAP>  (1) 
173.599

>  <PUBCHEM_SHAPE_VOLUME>  (1) 
74.5

>  <PUBCHEM_COORDINATE_TYPE>  (1) 
2
5
10

$$$$
