3303
     RDKit          3D

 23 27  0  0  1  0  0  0  0  0999 V2000
    1.2637    1.3085    1.0095 O   0  0  0  0  0  0  0  0  0  0  0  0
   -0.4226    4.1030    0.2280 O   0  0  0  0  0  0  0  0  0  0  0  0
    3.6602   -0.0341    0.0174 O   0  0  0  0  0  0  0  0  0  0  0  0
   -3.1421   -1.4326    0.7385 N   0  0  0  0  0  0  0  0  0  0  0  0
   -0.9948    0.5222    0.6668 C   0  0  0  0  0  0  0  0  0  0  0  0
   -2.2641    0.6554   -0.1818 C   0  0  0  0  0  0  0  0  0  0  0  0
   -2.7221   -0.7967   -0.5345 C   0  0  0  0  0  0  0  0  0  0  0  0
   -0.1311    1.7823    0.8737 C   0  0  0  0  0  0  0  0  0  0  0  0
   -1.3633   -0.1889    1.9867 C   0  0  0  0  0  0  0  0  0  0  0  0
    0.0265   -0.2845   -0.0579 C   0  0  0  0  0  0  0  0  0  0  0  0
   -1.6430   -1.5885   -1.3528 C   0  0  0  0  0  0  0  0  0  0  0  0
   -2.0805   -1.5300    1.7463 C   0  0  0  0  0  0  0  0  0  0  0  0
   -0.2206   -1.3086   -0.9506 C   0  0  0  0  0  0  0  0  0  0  0  0
   -0.1675    2.7990   -0.3002 C   0  0  0  0  0  0  0  0  0  0  0  0
   -2.0876    1.5662   -1.3631 C   0  0  0  0  0  0  0  0  0  0  0  0
    1.2940    0.1721    0.2369 C   0  0  0  0  0  0  0  0  0  0  0  0
   -1.1598    2.5316   -1.3965 C   0  0  0  0  0  0  0  0  0  0  0  0
    0.8920   -1.9526   -1.4924 C   0  0  0  0  0  0  0  0  0  0  0  0
   -3.8203   -2.7112    0.5543 C   0  0  0  0  0  0  0  0  0  0  0  0
    2.4062   -0.4578   -0.2727 C   0  0  0  0  0  0  0  0  0  0  0  0
    2.1950   -1.5400   -1.1391 C   0  0  0  0  0  0  0  0  0  0  0  0
    4.7028   -1.0120    0.0002 C   0  0  0  0  0  0  0  0  0  0  0  0
    5.7789   -0.6027    0.9831 C   0  0  0  0  0  0  0  0  0  0  0  0
  1  8  1  0
  1 16  1  0
  2 14  1  0
  3 20  1  0
  3 22  1  0
  4  7  1  0
  4 12  1  0
  4 19  1  0
  5  6  1  0
  5  8  1  0
  5  9  1  0
  5 10  1  0
  6  7  1  0
  6 15  1  0
  7 11  1  0
  8 14  1  0
  9 12  1  0
 10 13  2  0
 10 16  1  0
 11 13  1  0
 13 18  1  0
 14 17  1  0
 15 17  2  0
 16 20  2  0
 18 21  2  0
 20 21  1  0
 22 23  1  0
M  END
>  <PUBCHEM_COMPOUND_CID>  (1) 
3303

>  <PUBCHEM_CONFORMER_RMSD>  (1) 
0.6

>  <PUBCHEM_CONFORMER_DIVERSEORDER>  (1) 
1
34
30
10
36
21
38
28
11
9
15
17
14
23
4
26
18
6
29
12
22
32
19
35
13
27
24
2
8
3
31
20
25
16
37
7
33
5

>  <PUBCHEM_MMFF94_PARTIAL_CHARGES>  (1) 
26
1 -0.36
10 -0.14
11 0.14
12 0.27
13 -0.14
14 0.42
15 -0.29
16 0.08
17 -0.29
18 -0.15
19 0.27
2 -0.68
20 0.08
21 -0.15
22 0.28
3 -0.36
34 0.15
35 0.15
36 0.15
4 -0.81
40 0.15
41 0.4
5 0.14
6 0.14
7 0.27
8 0.28

>  <PUBCHEM_EFFECTIVE_ROTOR_COUNT>  (1) 
3.2

>  <PUBCHEM_PHARMACOPHORE_FEATURES>  (1) 
10
1 1 acceptor
1 2 acceptor
1 2 donor
1 3 acceptor
1 4 cation
5 1 5 8 10 16 rings
6 10 13 16 18 20 21 rings
6 4 5 6 7 9 12 rings
6 5 6 7 10 11 13 rings
6 5 6 8 14 15 17 rings

>  <PUBCHEM_HEAVY_ATOM_COUNT>  (1) 
23

>  <PUBCHEM_ATOM_DEF_STEREO_COUNT>  (1) 
0

>  <PUBCHEM_ATOM_UDEF_STEREO_COUNT>  (1) 
5

>  <PUBCHEM_BOND_DEF_STEREO_COUNT>  (1) 
0

>  <PUBCHEM_BOND_UDEF_STEREO_COUNT>  (1) 
0

>  <PUBCHEM_ISOTOPIC_ATOM_COUNT>  (1) 
0

>  <PUBCHEM_COMPONENT_COUNT>  (1) 
1

>  <PUBCHEM_CACTVS_TAUTO_COUNT>  (1) 
1

>  <PUBCHEM_CONFORMER_ID>  (1) 
00000CE700000001

>  <PUBCHEM_MMFF94_ENERGY>  (1) 
81.339

>  <PUBCHEM_FEATURE_SELFOVERLAP>  (1) 
52.859

>  <PUBCHEM_SHAPE_FINGERPRINT>  (1) 
10863032 1 17533772702689752815
10948715 1 17619629081715245405
11132069 177 17846499231915510990
11315181 36 17313101943915552178
12035758 1 18338529547379281105
12403814 3 18342174475163453118
12788726 201 18115856426156078793
13140716 1 18412827992737115064
133893 2 17612626670468100249
13583140 156 18262227825694451122
14142880 1 17987805102972716225
14181834 199 17908157808065118191
14223421 5 18269280049956542278
15099037 37 18410575059399839738
16945 1 18120373151298457557
17357779 13 18342444968093469871
1813 80 18268728253505414887
20600515 1 18042425636695355559
21029758 27 18340209707993119206
21304303 282 17536844742320142236
21623110 236 17559096891204069256
22182313 1 18196909253564839760
2306618 200 18131064888255695906
23402539 116 18040992921330461703
23419403 2 18059276777704018705
23493267 7 18190451680214479440
23557571 272 18337678507708785780
23559900 14 18187072954529797160
2748010 2 18199167624615002564
3380486 145 18339657654667250491
6442390 28 17617960040676914225
81228 2 17973190372962553873
9981440 41 17911498923302035714

>  <PUBCHEM_SHAPE_MULTIPOLES>  (1) 
450.74
6.52
3.24
1.57
10.75
2.76
0.16
-4.31
1.66
-2.3
-0.41
-0.57
-0.32
1.03

>  <PUBCHEM_SHAPE_SELFOVERLAP>  (1) 
1006.245

>  <PUBCHEM_SHAPE_VOLUME>  (1) 
238.2

>  <PUBCHEM_COORDINATE_TYPE>  (1) 
2
5
10

$$$$
