33045
     RDKit          3D

 11 11  0  0  0  0  0  0  0  0999 V2000
    0.0000   -0.5102   -0.3527 C   0  0  0  0  0  0  0  0  0  0  0  0
   -1.2079    0.1762   -0.2287 C   0  0  0  0  0  0  0  0  0  0  0  0
    1.2080    0.1761   -0.2294 C   0  0  0  0  0  0  0  0  0  0  0  0
   -2.5151   -0.5351   -0.3575 C   0  0  0  0  0  0  0  0  0  0  0  0
    2.5153   -0.5354   -0.3573 C   0  0  0  0  0  0  0  0  0  0  0  0
   -1.2077    1.5489    0.0190 C   0  0  0  0  0  0  0  0  0  0  0  0
    1.2082    1.5488    0.0183 C   0  0  0  0  0  0  0  0  0  0  0  0
   -0.0002   -1.9821   -0.6187 C   0  0  0  0  0  0  0  0  0  0  0  0
    0.0002    2.2353    0.1426 C   0  0  0  0  0  0  0  0  0  0  0  0
   -3.0218   -1.0610    0.9819 C   0  0  0  0  0  0  0  0  0  0  0  0
    3.0209   -1.0614    0.9825 C   0  0  0  0  0  0  0  0  0  0  0  0
  1  2  2  0
  1  3  1  0
  1  8  1  0
  2  4  1  0
  2  6  1  0
  3  5  1  0
  3  7  2  0
  4 10  1  0
  5 11  1  0
  6  9  2  0
  7  9  1  0
M  END
>  <PUBCHEM_COMPOUND_CID>  (1) 
33045

>  <PUBCHEM_CONFORMER_RMSD>  (1) 
0.4

>  <PUBCHEM_CONFORMER_DIVERSEORDER>  (1) 
1
6
2
3
4
5

>  <PUBCHEM_MMFF94_PARTIAL_CHARGES>  (1) 
12
1 -0.14
16 0.15
17 0.15
2 -0.14
21 0.15
3 -0.14
4 0.14
5 0.14
6 -0.15
7 -0.15
8 0.14
9 -0.15

>  <PUBCHEM_EFFECTIVE_ROTOR_COUNT>  (1) 
2

>  <PUBCHEM_PHARMACOPHORE_FEATURES>  (1) 
3
1 10 hydrophobe
1 11 hydrophobe
6 1 2 3 6 7 9 rings

>  <PUBCHEM_HEAVY_ATOM_COUNT>  (1) 
11

>  <PUBCHEM_ATOM_DEF_STEREO_COUNT>  (1) 
0

>  <PUBCHEM_ATOM_UDEF_STEREO_COUNT>  (1) 
0

>  <PUBCHEM_BOND_DEF_STEREO_COUNT>  (1) 
0

>  <PUBCHEM_BOND_UDEF_STEREO_COUNT>  (1) 
0

>  <PUBCHEM_ISOTOPIC_ATOM_COUNT>  (1) 
0

>  <PUBCHEM_COMPONENT_COUNT>  (1) 
1

>  <PUBCHEM_CACTVS_TAUTO_COUNT>  (1) 
1

>  <PUBCHEM_CONFORMER_ID>  (1) 
0000811500000001

>  <PUBCHEM_MMFF94_ENERGY>  (1) 
26.447

>  <PUBCHEM_FEATURE_SELFOVERLAP>  (1) 
15.223

>  <PUBCHEM_SHAPE_FINGERPRINT>  (1) 
10130415 120 18335139786952573337
10219947 1 18343025518627775167
10857977 72 18341887463831421258
11769659 78 17530960284968900194
12423570 1 10824652844350700936
12524768 44 18200315557835637390
13380535 76 17907286659595399285
16945 1 18272652346074974678
193761 8 17620196433978113303
20653085 51 12103268478283160522
20871998 184 18271517581719623430
20871998 22 18342471308716620982
21040471 1 17765719409391708277
21061003 4 18271810103035597803
2334 1 18412544344385646101
23552423 10 17904477755130920740
2748010 2 18412536604923092188
3071541 236 17901657168498367209
5084963 1 17918274255179598111
528862 383 18193557997920627345
53812654 25 18058999722005912822
81228 2 18123473778194271313

>  <PUBCHEM_SHAPE_MULTIPOLES>  (1) 
226.37
3.96
2.15
0.87
0
0.73
-0.14
-1.92
-1.16
0
-0.02
0
-0.27
0

>  <PUBCHEM_SHAPE_SELFOVERLAP>  (1) 
458.635

>  <PUBCHEM_SHAPE_VOLUME>  (1) 
130.1

>  <PUBCHEM_COORDINATE_TYPE>  (1) 
2
5
10

$$$$
