33040
     RDKit          3D

 23 23  0  0  0  0  0  0  0  0999 V2000
    0.7502   -1.9331   -3.1017 Cl  0  0  0  0  0  0  0  0  0  0  0  0
    2.3359   -0.9077    2.8490 Cl  0  0  0  0  0  0  0  0  0  0  0  0
    4.6016   -1.2784    0.5670 Cl  0  0  0  0  0  0  0  0  0  0  0  0
   -0.8253    2.6687   -0.1921 O   0  0  0  0  0  0  0  0  0  0  0  0
   -3.2921    0.2505   -0.0190 O   0  0  0  0  0  0  0  0  0  0  0  0
   -1.1175   -1.5510   -0.7773 O   0  0  0  0  0  0  0  0  0  0  0  0
   -3.6140   -0.8067    2.0087 O   0  0  0  0  0  0  0  0  0  0  0  0
    1.5295    2.7495    0.2356 C   0  0  0  0  0  0  0  0  0  0  0  0
    0.4464    2.5869   -0.8213 C   0  0  0  0  0  0  0  0  0  0  0  0
   -3.2223    2.6169   -0.4179 C   0  0  0  0  0  0  0  0  0  0  0  0
   -1.8823    2.5234   -1.1309 C   0  0  0  0  0  0  0  0  0  0  0  0
    2.9266    2.6876   -0.3750 C   0  0  0  0  0  0  0  0  0  0  0  0
   -3.3896    1.5246    0.6253 C   0  0  0  0  0  0  0  0  0  0  0  0
    4.0043    2.8936    0.6773 C   0  0  0  0  0  0  0  0  0  0  0  0
   -3.3212   -2.1038   -0.0067 C   0  0  0  0  0  0  0  0  0  0  0  0
   -1.8783   -2.5605   -0.1262 C   0  0  0  0  0  0  0  0  0  0  0  0
   -3.4239   -0.8324    0.7996 C   0  0  0  0  0  0  0  0  0  0  0  0
    0.2168   -1.4894   -0.4714 C   0  0  0  0  0  0  0  0  0  0  0  0
    1.1859   -1.6497   -1.4566 C   0  0  0  0  0  0  0  0  0  0  0  0
    0.5847   -1.2615    0.8509 C   0  0  0  0  0  0  0  0  0  0  0  0
    1.9357   -1.1931    1.1913 C   0  0  0  0  0  0  0  0  0  0  0  0
    2.5369   -1.5813   -1.1162 C   0  0  0  0  0  0  0  0  0  0  0  0
    2.9118   -1.3530    0.2077 C   0  0  0  0  0  0  0  0  0  0  0  0
  1 19  1  0
  2 21  1  0
  3 23  1  0
  4  9  1  0
  4 11  1  0
  5 13  1  0
  5 17  1  0
  6 16  1  0
  6 18  1  0
  7 17  2  0
  8  9  1  0
  8 12  1  0
 10 11  1  0
 10 13  1  0
 12 14  1  0
 15 16  1  0
 15 17  1  0
 18 19  2  0
 18 20  1  0
 19 22  1  0
 20 21  2  0
 21 23  1  0
 22 23  2  0
M  END
>  <PUBCHEM_COMPOUND_CID>  (1) 
33040

>  <PUBCHEM_CONFORMER_RMSD>  (1) 
1.2

>  <PUBCHEM_CONFORMER_DIVERSEORDER>  (1) 
1
102
187
217
233
34
257
164
39
194
229
113
22
219
128
105
209
62
199
104
204
172
54
174
211
158
157
120
247
203
24
221
63
67
98
60
215
197
152
240
107
238
7
109
161
117
200
154
123
222
185
207
18
103
173
195
37
75
206
235
136
112
191
118
143
97
132
223
146
188
166
8
205
77
83
198
23
3
15
193
80
242
126
237
121
227
90
153
114
201
5
241
108
163
92
231
244
64
147
17
180
210
171
234
2
181
184
14
79
253
169
236
46
249
214
156
101
162
6
27
96
53
115
177
160
202
36
58
176
186
179
59
141
150
81
99
212
29
225
124
30
93
255
57
155
246
137
192
51
134
85
196
220
145
243
40
82
91
44
144
43
168
26
159
20
170
254
131
106
78
216
133
239
4
74
182
28
250
66
175
50
208
230
232
213
127
31
130
69
167
16
100
251
226
125
70
252
248
119
13
183
165
139
42
55
35
148
11
12
65
21
224
68
218
61
245
56
45
190
149
9
94
122
47
129
140
178
84
86
151
19
88
116
228
71
41
38
110
72
73
52
138
95
89
10
142
87
25
189
33
135
49
76
111
256
32
48

>  <PUBCHEM_MMFF94_PARTIAL_CHARGES>  (1) 
21
1 -0.18
11 0.28
13 0.28
15 0.06
16 0.28
17 0.66
18 0.08
19 0.18
2 -0.18
20 -0.15
21 0.18
22 -0.15
23 0.18
3 -0.18
4 -0.56
43 0.15
44 0.15
5 -0.43
6 -0.36
7 -0.57
9 0.28

>  <PUBCHEM_EFFECTIVE_ROTOR_COUNT>  (1) 
12

>  <PUBCHEM_PHARMACOPHORE_FEATURES>  (1) 
5
1 14 hydrophobe
1 4 acceptor
1 6 acceptor
1 7 acceptor
6 18 19 20 21 22 23 rings

>  <PUBCHEM_HEAVY_ATOM_COUNT>  (1) 
23

>  <PUBCHEM_ATOM_DEF_STEREO_COUNT>  (1) 
0

>  <PUBCHEM_ATOM_UDEF_STEREO_COUNT>  (1) 
0

>  <PUBCHEM_BOND_DEF_STEREO_COUNT>  (1) 
0

>  <PUBCHEM_BOND_UDEF_STEREO_COUNT>  (1) 
0

>  <PUBCHEM_ISOTOPIC_ATOM_COUNT>  (1) 
0

>  <PUBCHEM_COMPONENT_COUNT>  (1) 
1

>  <PUBCHEM_CACTVS_TAUTO_COUNT>  (1) 
1

>  <PUBCHEM_CONFORMER_ID>  (1) 
0000811000000001

>  <PUBCHEM_MMFF94_ENERGY>  (1) 
38.734

>  <PUBCHEM_FEATURE_SELFOVERLAP>  (1) 
25.373

>  <PUBCHEM_SHAPE_FINGERPRINT>  (1) 
10382601 240 18193859242600198745
10675989 125 16244045361783828396
12035759 4 17338418425908274807
12156800 1 14394562495939821477
12422481 6 18267843104623882048
12633257 1 18264768757894908761
13140716 1 18336555923791346361
14251751 93 18268427021885143432
14251757 17 17772499943240103420
19930381 70 12861859371688703472
20600515 1 17974862661571401724
20905425 154 18338244880577270013
6287921 2 17988381298642045367
9862522 239 18198326550007411232

>  <PUBCHEM_SHAPE_MULTIPOLES>  (1) 
455.46
7.25
4.37
2.08
0.8
3.59
0.19
0.97
-2.73
-0.47
1.12
-0.84
-1.45
0.65

>  <PUBCHEM_SHAPE_SELFOVERLAP>  (1) 
882.445

>  <PUBCHEM_SHAPE_VOLUME>  (1) 
277.9

>  <PUBCHEM_COORDINATE_TYPE>  (1) 
2
5
10

$$$$
