33042
     RDKit          3D

 31 33  0  0  1  0  0  0  0  0999 V2000
    1.3534   -0.7204    0.0083 O   0  0  0  0  0  0  0  0  0  0  0  0
   -2.2968   -0.8339    0.1926 O   0  0  0  0  0  0  0  0  0  0  0  0
    2.2328    1.4469    0.3670 O   0  0  0  0  0  0  0  0  0  0  0  0
    0.1990   -2.8289   -1.5849 O   0  0  0  0  0  0  0  0  0  0  0  0
   -2.2301    1.3651   -0.6785 O   0  0  0  0  0  0  0  0  0  0  0  0
    4.7466    0.0211   -2.5884 O   0  0  0  0  0  0  0  0  0  0  0  0
   -5.3163   -0.4207   -0.3511 O   0  0  0  0  0  0  0  0  0  0  0  0
    5.7046    0.2394    0.1134 O   0  0  0  0  0  0  0  0  0  0  0  0
   -4.9819    1.8618   -1.8030 O   0  0  0  0  0  0  0  0  0  0  0  0
   -1.4251    3.5600    0.8767 O   0  0  0  0  0  0  0  0  0  0  0  0
   -0.9140   -1.4863    2.8015 N   0  0  0  0  0  0  0  0  0  0  0  0
   -2.1286   -3.7061    1.1250 N   0  0  0  0  0  0  0  0  0  0  0  0
    1.8891   -0.4860   -2.7865 N   0  0  0  0  0  0  0  0  0  0  0  0
    3.0638    2.1254    2.9637 N   0  0  0  0  0  0  0  0  0  0  0  0
    0.0846   -0.7397    0.6665 C   0  0  0  0  0  0  0  0  0  0  0  0
   -1.0106   -1.1360   -0.3394 C   0  0  0  0  0  0  0  0  0  0  0  0
    0.1957   -1.6926    1.8708 C   0  0  0  0  0  0  0  0  0  0  0  0
   -0.9432   -2.6171   -0.7517 C   0  0  0  0  0  0  0  0  0  0  0  0
   -0.8422   -3.5889    0.4382 C   0  0  0  0  0  0  0  0  0  0  0  0
    0.2693   -3.1621    1.4152 C   0  0  0  0  0  0  0  0  0  0  0  0
    1.6156    0.5572   -0.5684 C   0  0  0  0  0  0  0  0  0  0  0  0
   -2.9666    0.1333   -0.6025 C   0  0  0  0  0  0  0  0  0  0  0  0
    2.4988    0.4226   -1.8148 C   0  0  0  0  0  0  0  0  0  0  0  0
    3.9043   -0.0580   -1.4371 C   0  0  0  0  0  0  0  0  0  0  0  0
   -4.2990    0.4798    0.0391 C   0  0  0  0  0  0  0  0  0  0  0  0
    4.4905    0.8350   -0.3377 C   0  0  0  0  0  0  0  0  0  0  0  0
    3.5094    0.9932    0.8301 C   0  0  0  0  0  0  0  0  0  0  0  0
   -4.5305    1.8923   -0.4497 C   0  0  0  0  0  0  0  0  0  0  0  0
   -3.1214    2.4703   -0.4120 C   0  0  0  0  0  0  0  0  0  0  0  0
    3.9998    2.0118    1.8556 C   0  0  0  0  0  0  0  0  0  0  0  0
   -2.7512    3.0613    0.9418 C   0  0  0  0  0  0  0  0  0  0  0  0
  1 15  1  0
  1 21  1  0
  2 16  1  0
  2 22  1  0
  3 21  1  0
  3 27  1  0
  4 18  1  0
  5 22  1  0
  5 29  1  0
  6 24  1  0
  7 25  1  0
  8 26  1  0
  9 28  1  0
 10 31  1  0
 11 17  1  0
 12 19  1  0
 13 23  1  0
 14 30  1  0
 15 16  1  0
 15 17  1  0
 16 18  1  0
 17 20  1  0
 18 19  1  0
 19 20  1  0
 21 23  1  0
 22 25  1  0
 23 24  1  0
 24 26  1  0
 25 28  1  0
 26 27  1  0
 27 30  1  0
 28 29  1  0
 29 31  1  0
M  END
>  <PUBCHEM_COMPOUND_CID>  (1) 
33042

>  <PUBCHEM_CONFORMER_RMSD>  (1) 
1

>  <PUBCHEM_CONFORMER_DIVERSEORDER>  (1) 
1
47
59
57
45
49
64
63
50
55
54
27
32
61
69
13
44
6
40
7
52
25
21
18
56
67
10
58
60
12
39
65
42
46
66
62
48
16
11
29
5
38
24
34
36
22
4
28
31
23
68
20
37
19
33
26
9
15
41
51
43
30
3
17
35
53
2
14
8

>  <PUBCHEM_MMFF94_PARTIAL_CHARGES>  (1) 
44
1 -0.56
10 -0.68
11 -0.99
12 -0.99
13 -0.99
14 -0.99
15 0.28
16 0.28
17 0.27
18 0.28
19 0.27
2 -0.56
21 0.56
22 0.56
23 0.27
24 0.28
25 0.28
26 0.28
27 0.28
28 0.28
29 0.28
3 -0.56
30 0.27
31 0.28
4 -0.68
48 0.36
49 0.36
5 -0.56
50 0.36
51 0.36
52 0.4
55 0.36
56 0.36
59 0.4
6 -0.68
60 0.4
61 0.4
62 0.4
63 0.36
64 0.36
65 0.4
7 -0.68
8 -0.68
9 -0.68

>  <PUBCHEM_EFFECTIVE_ROTOR_COUNT>  (1) 
9.4

>  <PUBCHEM_PHARMACOPHORE_FEATURES>  (1) 
27
1 1 acceptor
1 10 acceptor
1 10 donor
1 11 cation
1 11 donor
1 12 cation
1 12 donor
1 13 cation
1 13 donor
1 14 cation
1 14 donor
1 2 acceptor
1 3 acceptor
1 4 acceptor
1 4 donor
1 5 acceptor
1 6 acceptor
1 6 donor
1 7 acceptor
1 7 donor
1 8 acceptor
1 8 donor
1 9 acceptor
1 9 donor
5 5 22 25 28 29 rings
6 15 16 17 18 19 20 rings
6 3 21 23 24 26 27 rings

>  <PUBCHEM_HEAVY_ATOM_COUNT>  (1) 
31

>  <PUBCHEM_ATOM_DEF_STEREO_COUNT>  (1) 
14

>  <PUBCHEM_ATOM_UDEF_STEREO_COUNT>  (1) 
0

>  <PUBCHEM_BOND_DEF_STEREO_COUNT>  (1) 
0

>  <PUBCHEM_BOND_UDEF_STEREO_COUNT>  (1) 
0

>  <PUBCHEM_ISOTOPIC_ATOM_COUNT>  (1) 
0

>  <PUBCHEM_COMPONENT_COUNT>  (1) 
1

>  <PUBCHEM_CACTVS_TAUTO_COUNT>  (1) 
1

>  <PUBCHEM_CONFORMER_ID>  (1) 
0000811200000001

>  <PUBCHEM_MMFF94_ENERGY>  (1) 
73.407

>  <PUBCHEM_FEATURE_SELFOVERLAP>  (1) 
137.149

>  <PUBCHEM_SHAPE_FINGERPRINT>  (1) 
10498660 4 18341887460069684685
108634 29 18271526485123784264
11578080 2 17843131556405844848
11582403 64 17199345435317524170
11725454 13 17988064708165651602
12422481 6 17097751501287358284
12788726 201 17608386953146534346
133893 2 17536599504188105945
13402501 40 18059850696883088144
13583140 156 18059576970617872294
14251757 17 17632300021174944228
14251764 3 18273220793802715016
14468879 13 17844796186993070528
17980427 23 17478015304383388427
20567600 347 18262802861037054967
20600515 1 18190728928801719213
21033648 29 18410848880328546040
21524375 3 18113622261525687215
23557571 272 18196936784404901284
23559900 14 18340488958841610036
3380486 145 17485931048968243059
35225 105 17824285862559766467
469060 322 12758846887417832442
474 4 17749395797851556623
5252454 2 17907307554675520073
9981440 41 18187370887710345131

>  <PUBCHEM_SHAPE_MULTIPOLES>  (1) 
559.35
9.6
4.13
2.33
1.55
1.99
-0.24
-7.37
2.66
-3.35
-1.85
2.38
-0.03
1.64

>  <PUBCHEM_SHAPE_SELFOVERLAP>  (1) 
1154.239

>  <PUBCHEM_SHAPE_VOLUME>  (1) 
315.9

>  <PUBCHEM_COORDINATE_TYPE>  (1) 
2
5
10

$$$$
