33054
     RDKit          3D

 12 13  0  0  1  0  0  0  0  0999 V2000
    0.6490    0.6355   -0.2787 C   0  0  0  0  0  0  0  0  0  0  0  0
    0.8633   -0.7874    0.2736 C   0  0  0  0  0  0  0  0  0  0  0  0
   -0.7102    1.1929    0.1665 C   0  0  0  0  0  0  0  0  0  0  0  0
   -1.8616    0.2667   -0.2517 C   0  0  0  0  0  0  0  0  0  0  0  0
   -0.2800   -1.7136   -0.1581 C   0  0  0  0  0  0  0  0  0  0  0  0
    1.7935    1.5626    0.1519 C   0  0  0  0  0  0  0  0  0  0  0  0
    2.2225   -1.3435   -0.1706 C   0  0  0  0  0  0  0  0  0  0  0  0
   -1.6381   -1.1590    0.2689 C   0  0  0  0  0  0  0  0  0  0  0  0
    3.1513    1.0056   -0.2712 C   0  0  0  0  0  0  0  0  0  0  0  0
    3.3647   -0.4162    0.2394 C   0  0  0  0  0  0  0  0  0  0  0  0
   -3.2001    0.8158    0.2394 C   0  0  0  0  0  0  0  0  0  0  0  0
   -4.3542   -0.0592   -0.2095 C   0  0  0  0  0  0  0  0  0  0  0  0
  1  2  1  0
  1  3  1  0
  1  6  1  0
  2  5  1  0
  2  7  1  0
  3  4  1  0
  4  8  1  0
  4 11  1  0
  5  8  1  0
  6  9  1  0
  7 10  1  0
  9 10  1  0
 11 12  1  0
M  END
>  <PUBCHEM_COMPOUND_CID>  (1) 
33054

>  <PUBCHEM_CONFORMER_RMSD>  (1) 
0.6

>  <PUBCHEM_CONFORMER_DIVERSEORDER>  (1) 
1
10
2
12
14
9
5
7
8
6
13
4
11
3
15

>  <PUBCHEM_MMFF94_PARTIAL_CHARGES>  (1) 
0

>  <PUBCHEM_EFFECTIVE_ROTOR_COUNT>  (1) 
2.6

>  <PUBCHEM_PHARMACOPHORE_FEATURES>  (1) 
3
1 12 hydrophobe
6 1 2 3 4 5 8 rings
6 1 2 6 7 9 10 rings

>  <PUBCHEM_HEAVY_ATOM_COUNT>  (1) 
12

>  <PUBCHEM_ATOM_DEF_STEREO_COUNT>  (1) 
0

>  <PUBCHEM_ATOM_UDEF_STEREO_COUNT>  (1) 
3

>  <PUBCHEM_BOND_DEF_STEREO_COUNT>  (1) 
0

>  <PUBCHEM_BOND_UDEF_STEREO_COUNT>  (1) 
0

>  <PUBCHEM_ISOTOPIC_ATOM_COUNT>  (1) 
0

>  <PUBCHEM_COMPONENT_COUNT>  (1) 
1

>  <PUBCHEM_CACTVS_TAUTO_COUNT>  (1) 
1

>  <PUBCHEM_CONFORMER_ID>  (1) 
0000811E00000001

>  <PUBCHEM_MMFF94_ENERGY>  (1) 
11.9328

>  <PUBCHEM_FEATURE_SELFOVERLAP>  (1) 
15.24

>  <PUBCHEM_SHAPE_FINGERPRINT>  (1) 
10130415 120 18335978692860247098
10219947 1 18333453127362249365
10608611 8 18408601470066200709
10967382 1 18410856555365934282
10980938 120 18410293583974690770
11132069 177 18412819196506455442
11471102 20 18410008827590160053
12032990 46 18409455764946989547
12932764 1 17095793378214964778
13380535 21 18336276737546641222
13380535 76 18410575101885542387
13690532 89 18337670819691094714
13897977 150 18338795718670090789
14144814 61 18411702067012664473
14251717 144 18411978044657966111
14325111 11 18410575084937573901
14897335 6 18411978104460369582
14911166 2 18411427198064725470
14993402 34 18411140225092025878
15536298 74 18343582936689524070
15775835 57 18336551598421383204
16945 1 18410296882662548354
17844478 74 17894634729734500245
18186145 218 18341054016990834621
193761 8 17834396000805092713
20201158 50 18410576167031955714
20606313 2 18411135818471560260
20645476 183 17823435953019993374
20645477 70 18339356367133068927
21501502 16 18337668749469372310
23235685 24 18410849966938966665
23402539 116 18202273693661063853
23402655 69 18341607093115174957
23463225 33 18408040693207566308
23552423 10 18188772893594484654
23559900 14 18199758093616321292
2748010 2 18266182905646209142
449060 62 18411704283120668136
528886 8 18411133653813207498
53812653 166 18341890835539186200
581208 293 18411696586528730692
63268167 104 18411985749523314176
69090 78 18341326764673166511
7364860 26 18342458093635130910

>  <PUBCHEM_SHAPE_MULTIPOLES>  (1) 
246.95
6.16
1.69
0.67
3.29
0.19
0
-0.74
-0.15
-0.55
0.01
0
0
-0.07

>  <PUBCHEM_SHAPE_SELFOVERLAP>  (1) 
491.93

>  <PUBCHEM_SHAPE_VOLUME>  (1) 
144

>  <PUBCHEM_COORDINATE_TYPE>  (1) 
2
5
10

$$$$
