33064
     RDKit          3D

 16 17  0  0  0  0  0  0  0  0999 V2000
    1.3718    2.5318    0.3274 O   0  0  0  0  0  0  0  0  0  0  0  0
   -2.2001    0.2509   -0.0729 N   0  0  0  0  0  0  0  0  0  0  0  0
   -0.9701    0.6794   -0.4297 N   0  0  0  0  0  0  0  0  0  0  0  0
   -4.8832   -0.9221   -0.0576 C   0  0  0  0  0  0  0  0  0  0  0  0
   -3.7088   -1.5867    0.6491 C   0  0  0  0  0  0  0  0  0  0  0  0
   -4.6610    0.5824   -0.1451 C   0  0  0  0  0  0  0  0  0  0  0  0
   -2.3783   -1.2038    0.0018 C   0  0  0  0  0  0  0  0  0  0  0  0
   -3.3070    0.9095   -0.7735 C   0  0  0  0  0  0  0  0  0  0  0  0
   -0.1993    0.8535    0.5857 C   0  0  0  0  0  0  0  0  0  0  0  0
    1.1942    1.3228    0.3366 C   0  0  0  0  0  0  0  0  0  0  0  0
    2.2808    0.3421    0.1259 C   0  0  0  0  0  0  0  0  0  0  0  0
    1.9848   -1.0081    0.1634 C   0  0  0  0  0  0  0  0  0  0  0  0
    3.5651    0.7996   -0.1039 C   0  0  0  0  0  0  0  0  0  0  0  0
    3.0094   -1.9334   -0.0355 C   0  0  0  0  0  0  0  0  0  0  0  0
    4.5897   -0.1257   -0.3030 C   0  0  0  0  0  0  0  0  0  0  0  0
    4.3119   -1.4923   -0.2688 C   0  0  0  0  0  0  0  0  0  0  0  0
  1 10  2  0
  2  3  1  0
  2  7  1  0
  2  8  1  0
  3  9  2  0
  4  5  1  0
  4  6  1  0
  5  7  1  0
  6  8  1  0
  9 10  1  0
 10 11  1  0
 11 12  2  0
 11 13  1  0
 12 14  1  0
 13 15  2  0
 14 16  2  0
 15 16  1  0
M  END
>  <PUBCHEM_COMPOUND_CID>  (1) 
33064

>  <PUBCHEM_CONFORMER_RMSD>  (1) 
0.6

>  <PUBCHEM_CONFORMER_DIVERSEORDER>  (1) 
1
23
12
13
26
17
10
30
18
3
34
19
31
29
27
32
22
33
20
25
6
4
15
9
14
5
7
11
24
21
28
16
8
2

>  <PUBCHEM_MMFF94_PARTIAL_CHARGES>  (1) 
19
1 -0.57
10 0.48
11 0.09
12 -0.15
13 -0.15
14 -0.15
15 -0.15
16 -0.15
2 -0.49
27 0.06
28 0.15
29 0.15
3 -0.5
30 0.15
31 0.15
32 0.15
7 0.27
8 0.27
9 0.39

>  <PUBCHEM_EFFECTIVE_ROTOR_COUNT>  (1) 
4.2

>  <PUBCHEM_PHARMACOPHORE_FEATURES>  (1) 
4
1 1 acceptor
1 3 acceptor
6 11 12 13 14 15 16 rings
6 2 4 5 6 7 8 rings

>  <PUBCHEM_HEAVY_ATOM_COUNT>  (1) 
16

>  <PUBCHEM_ATOM_DEF_STEREO_COUNT>  (1) 
0

>  <PUBCHEM_ATOM_UDEF_STEREO_COUNT>  (1) 
0

>  <PUBCHEM_BOND_DEF_STEREO_COUNT>  (1) 
0

>  <PUBCHEM_BOND_UDEF_STEREO_COUNT>  (1) 
1

>  <PUBCHEM_ISOTOPIC_ATOM_COUNT>  (1) 
0

>  <PUBCHEM_COMPONENT_COUNT>  (1) 
1

>  <PUBCHEM_CACTVS_TAUTO_COUNT>  (1) 
1

>  <PUBCHEM_CONFORMER_ID>  (1) 
0000812800000001

>  <PUBCHEM_MMFF94_ENERGY>  (1) 
27.0857

>  <PUBCHEM_FEATURE_SELFOVERLAP>  (1) 
20.298

>  <PUBCHEM_SHAPE_FINGERPRINT>  (1) 
11128504 68 16008756822221062430
11471102 20 18412261757254544120
12186901 62 17603576401508025589
12596602 18 16271921653364555763
12616999 72 18333455356866812660
13533116 47 18200030793641874139
14251731 8 18335983086717272831
14252887 29 17632302255032484030
14386348 63 18410294709224655659
14866123 147 17478053752635398579
15188451 53 15338535220786913733
15196674 1 18410012134715283139
15242433 33 18410013225657874078
15352361 1 18411136917930291015
15375462 189 18202278126104112950
15477762 27 18410293623088429716
17804303 29 18408888438696024925
17834074 16 18335983142399029131
1798214 20 18341611495092584678
18186145 218 17748818631577464993
193927 3 17916880019102325878
19433438 38 18113331998971938510
200 152 18131631192678789115
20281475 54 18410296882583641480
20374829 77 18261106357402664323
204376 136 10665234739054273489
20645477 70 18343864420203480566
20671657 53 18342462538440979216
20871999 31 18114180800468522429
21250096 35 18343300344905239514
21267235 1 18341339911710601278
21713013 43 18113616746761318846
221357 26 18409443687841760205
221490 88 18263932201043929330
2215653 11 18411129226371825583
22485316 2 18412261744100649359
22646028 28 18272090478463887242
23402539 116 16515398556449249684
23402655 69 18409450276073639918
23557571 272 17603297150675911236
23559900 14 18337945796604112033
239999 70 18272093803638908726
2871803 45 18334575716018228714
3004659 81 18187083902301428482
314173 41 18410859849880202454
3268164 11 16153699908567409471
3323516 105 18334857237917677098
33824 294 18411416224639724250
4214541 1 18409166580667616853
465052 167 18202288034683628375
4921388 177 16443358606221591123
4990 188 18040432191790762265
5104073 3 18411699880810917105
58051976 100 18340203102665896375
77779 3 18408323298040348165
83771 10 18413389830288283512
94968 8 18411982455805650314
9709674 26 18190743227106160371

>  <PUBCHEM_SHAPE_MULTIPOLES>  (1) 
313.44
10.69
1.99
0.73
4.24
0.09
0
-3.43
1.07
-0.71
-0.18
0.17
0.02
0.61

>  <PUBCHEM_SHAPE_SELFOVERLAP>  (1) 
651.541

>  <PUBCHEM_SHAPE_VOLUME>  (1) 
177.2

>  <PUBCHEM_COORDINATE_TYPE>  (1) 
2
5
10

$$$$
