33065
     RDKit          3D

 17 18  0  0  0  0  0  0  0  0999 V2000
    0.8278    2.7657    0.2685 O   0  0  0  0  0  0  0  0  0  0  0  0
   -2.5413    0.1881   -0.0867 N   0  0  0  0  0  0  0  0  0  0  0  0
   -1.3454    0.7025   -0.4455 N   0  0  0  0  0  0  0  0  0  0  0  0
   -5.1205   -1.1985   -0.0577 C   0  0  0  0  0  0  0  0  0  0  0  0
   -3.9060   -1.7394    0.6857 C   0  0  0  0  0  0  0  0  0  0  0  0
   -5.0198    0.3150   -0.1980 C   0  0  0  0  0  0  0  0  0  0  0  0
   -2.6020   -1.2727    0.0394 C   0  0  0  0  0  0  0  0  0  0  0  0
   -3.6882    0.7287   -0.8231 C   0  0  0  0  0  0  0  0  0  0  0  0
   -0.6054    0.9751    0.5711 C   0  0  0  0  0  0  0  0  0  0  0  0
    0.7488    1.5473    0.3203 C   0  0  0  0  0  0  0  0  0  0  0  0
    1.9142    0.6516    0.1576 C   0  0  0  0  0  0  0  0  0  0  0  0
    1.7285   -0.7160    0.2415 C   0  0  0  0  0  0  0  0  0  0  0  0
    3.1602    1.2042   -0.0746 C   0  0  0  0  0  0  0  0  0  0  0  0
    4.0933   -1.0232   -0.1472 C   0  0  0  0  0  0  0  0  0  0  0  0
    2.8278   -1.5609    0.0879 C   0  0  0  0  0  0  0  0  0  0  0  0
    4.2595    0.3593   -0.2284 C   0  0  0  0  0  0  0  0  0  0  0  0
    5.2687   -1.9268   -0.3107 C   0  0  0  0  0  0  0  0  0  0  0  0
  1 10  2  0
  2  3  1  0
  2  7  1  0
  2  8  1  0
  3  9  2  0
  4  5  1  0
  4  6  1  0
  5  7  1  0
  6  8  1  0
  9 10  1  0
 10 11  1  0
 11 12  2  0
 11 13  1  0
 12 15  1  0
 13 16  2  0
 14 15  2  0
 14 16  1  0
 14 17  1  0
M  END
>  <PUBCHEM_COMPOUND_CID>  (1) 
33065

>  <PUBCHEM_CONFORMER_RMSD>  (1) 
0.6

>  <PUBCHEM_CONFORMER_DIVERSEORDER>  (1) 
1
22
14
15
19
23
27
18
20
11
29
30
3
10
16
25
6
13
9
4
24
31
12
28
7
21
26
2
8
5
17

>  <PUBCHEM_MMFF94_PARTIAL_CHARGES>  (1) 
19
1 -0.57
10 0.48
11 0.09
12 -0.15
13 -0.15
14 -0.14
15 -0.15
16 -0.15
17 0.14
2 -0.49
28 0.06
29 0.15
3 -0.5
30 0.15
31 0.15
32 0.15
7 0.27
8 0.27
9 0.39

>  <PUBCHEM_EFFECTIVE_ROTOR_COUNT>  (1) 
4.2

>  <PUBCHEM_PHARMACOPHORE_FEATURES>  (1) 
4
1 1 acceptor
1 3 acceptor
6 11 12 13 14 15 16 rings
6 2 4 5 6 7 8 rings

>  <PUBCHEM_HEAVY_ATOM_COUNT>  (1) 
17

>  <PUBCHEM_ATOM_DEF_STEREO_COUNT>  (1) 
0

>  <PUBCHEM_ATOM_UDEF_STEREO_COUNT>  (1) 
0

>  <PUBCHEM_BOND_DEF_STEREO_COUNT>  (1) 
0

>  <PUBCHEM_BOND_UDEF_STEREO_COUNT>  (1) 
1

>  <PUBCHEM_ISOTOPIC_ATOM_COUNT>  (1) 
0

>  <PUBCHEM_COMPONENT_COUNT>  (1) 
1

>  <PUBCHEM_CACTVS_TAUTO_COUNT>  (1) 
1

>  <PUBCHEM_CONFORMER_ID>  (1) 
0000812900000001

>  <PUBCHEM_MMFF94_ENERGY>  (1) 
29.6651

>  <PUBCHEM_FEATURE_SELFOVERLAP>  (1) 
20.298

>  <PUBCHEM_SHAPE_FINGERPRINT>  (1) 
11128504 68 15936416653673736054
11806522 49 18409731721454947896
12032990 46 18411983546579598464
12555020 224 18411408523932479719
12596602 18 15984814969564544591
12841375 25 18411418397413205936
12892183 10 12463569573634361484
13533116 47 18198623435985786251
13740256 8 18410857667804817882
13955234 65 18055352693476733464
14251731 8 18334011658142365895
14251764 18 18273220811773790745
14252887 29 17703798011381664492
14576447 43 18335423414219933338
14866123 147 17837777725063075145
15188451 53 15554147264950294757
15196674 1 18410293626913996043
15352361 1 18411700963243089934
15477762 27 18409449211043323076
17804303 29 18408041827727753093
17834074 16 18335137635274210691
1798214 20 18412261727042112470
18186145 218 17748818627076769381
193927 3 18131081393947071662
19784866 240 18341620286695311374
200 152 18201718444351720187
20261772 1 17918269866055675734
20281475 54 18410860957707867473
20374829 77 18334572417150880195
204376 136 7925910387392177753
20645477 70 18413388747993467838
20671657 53 18341900705147471313
20871999 31 18114461167412326917
21250096 35 18343018886944932704
21267235 1 18340494391389709494
21713013 43 18040429975561218638
221357 26 18408317800788073487
221490 88 18263369259648735642
2215653 11 18410283719178532775
22854114 59 9439404640068617345
23403322 49 18410293592744109779
23559900 14 18337945792398783041
239999 70 18411420614186088382
2871803 45 18260827090118317042
2916195 48 11242268371623543102
3004659 81 18187364299109303626
314173 41 18409450284415583114
314194 84 18201717379279205430
3323516 105 18334293205785393571
3421961 26 18342173405738039992
4214541 1 18408885105738398477
4416823 128 18410575080368131104
46194498 28 17604149341001775653
465052 167 18200879573257732199
4921388 177 16371016247378009363
5104073 3 18413670201321327865
5281201 14 17967812768817727605
77779 3 18335984246305825029
9709674 26 18190461760772138331

>  <PUBCHEM_SHAPE_MULTIPOLES>  (1) 
334.02
11.81
2.18
0.73
4.05
0.3
0.01
-6.02
1.4
-0.96
-0.2
0.22
0
0.64

>  <PUBCHEM_SHAPE_SELFOVERLAP>  (1) 
693.61

>  <PUBCHEM_SHAPE_VOLUME>  (1) 
190.3

>  <PUBCHEM_COORDINATE_TYPE>  (1) 
2
5
10

$$$$
