33062
     RDKit          3D

 18 19  0  0  0  0  0  0  0  0999 V2000
    0.4790   -2.9658    0.1721 O   0  0  0  0  0  0  0  0  0  0  0  0
   -4.4545    2.3493   -0.0050 O   0  0  0  0  0  0  0  0  0  0  0  0
   -5.5246    0.4656   -0.3848 O   0  0  0  0  0  0  0  0  0  0  0  0
    3.4794    0.0360   -0.0491 N   0  0  0  0  0  0  0  0  0  0  0  0
    2.3632   -0.6049   -0.4320 N   0  0  0  0  0  0  0  0  0  0  0  0
   -4.4710    1.1034   -0.1479 N   0  0  0  0  0  0  0  0  0  0  0  0
    5.5750    1.0636   -0.4698 C   0  0  0  0  0  0  0  0  0  0  0  0
    4.8097    1.8185    0.6071 C   0  0  0  0  0  0  0  0  0  0  0  0
    4.6289   -0.0323   -0.9478 C   0  0  0  0  0  0  0  0  0  0  0  0
    3.3625    1.4242    0.3856 C   0  0  0  0  0  0  0  0  0  0  0  0
    1.6720   -1.0239    0.5690 C   0  0  0  0  0  0  0  0  0  0  0  0
    0.4010   -1.7519    0.2888 C   0  0  0  0  0  0  0  0  0  0  0  0
   -0.8712   -1.0064    0.1748 C   0  0  0  0  0  0  0  0  0  0  0  0
   -0.8623    0.3673    0.3314 C   0  0  0  0  0  0  0  0  0  0  0  0
   -2.0376   -1.7018   -0.0856 C   0  0  0  0  0  0  0  0  0  0  0  0
   -3.2498    0.3874   -0.0381 C   0  0  0  0  0  0  0  0  0  0  0  0
   -2.0623    1.0704    0.2241 C   0  0  0  0  0  0  0  0  0  0  0  0
   -3.2374   -0.9987   -0.1929 C   0  0  0  0  0  0  0  0  0  0  0  0
  1 12  2  0
  2  6  1  0
  3  6  2  0
  4  5  1  0
  4  9  1  0
  4 10  1  0
  5 11  2  0
  6 16  1  0
  7  8  1  0
  7  9  1  0
  8 10  1  0
 11 12  1  0
 12 13  1  0
 13 14  2  0
 13 15  1  0
 14 17  1  0
 15 18  2  0
 16 17  2  0
 16 18  1  0
M  CHG  2   2  -1   6   1
M  END
>  <PUBCHEM_COMPOUND_CID>  (1) 
33062

>  <PUBCHEM_CONFORMER_RMSD>  (1) 
0.6

>  <PUBCHEM_CONFORMER_DIVERSEORDER>  (1) 
1
14
10
9
11
16
12
5
17
21
19
20
15
2
13
8
7
6
18
3
4

>  <PUBCHEM_MMFF94_PARTIAL_CHARGES>  (1) 
21
1 -0.57
10 0.27
11 0.39
12 0.48
13 0.09
14 -0.15
15 -0.15
16 0.13
17 -0.15
18 -0.15
2 -0.52
27 0.06
28 0.15
29 0.15
3 -0.52
30 0.15
31 0.15
4 -0.49
5 -0.5
6 0.91
9 0.27

>  <PUBCHEM_EFFECTIVE_ROTOR_COUNT>  (1) 
5

>  <PUBCHEM_PHARMACOPHORE_FEATURES>  (1) 
7
1 1 acceptor
1 2 acceptor
1 2 anion
1 3 acceptor
1 5 acceptor
5 4 7 8 9 10 rings
6 13 14 15 16 17 18 rings

>  <PUBCHEM_HEAVY_ATOM_COUNT>  (1) 
18

>  <PUBCHEM_ATOM_DEF_STEREO_COUNT>  (1) 
0

>  <PUBCHEM_ATOM_UDEF_STEREO_COUNT>  (1) 
0

>  <PUBCHEM_BOND_DEF_STEREO_COUNT>  (1) 
0

>  <PUBCHEM_BOND_UDEF_STEREO_COUNT>  (1) 
1

>  <PUBCHEM_ISOTOPIC_ATOM_COUNT>  (1) 
0

>  <PUBCHEM_COMPONENT_COUNT>  (1) 
1

>  <PUBCHEM_CACTVS_TAUTO_COUNT>  (1) 
1

>  <PUBCHEM_CONFORMER_ID>  (1) 
0000812600000001

>  <PUBCHEM_MMFF94_ENERGY>  (1) 
43.1103

>  <PUBCHEM_FEATURE_SELFOVERLAP>  (1) 
35.603

>  <PUBCHEM_SHAPE_FINGERPRINT>  (1) 
10014705 185 18410575114749065933
100836 57 18261116283335770996
10411042 1 17545321238447747827
10498660 4 18411699885227397792
11046707 91 10087651389953211834
12390115 104 18341629100400778201
12403259 415 18199754798774427480
12596602 18 15285646516388604892
12633257 1 15502380057953390892
12730499 353 18341060656889299170
12892183 10 12901539148580944678
14123255 52 18410009931460143010
14252887 29 10665224839697715156
14528608 73 18412821378666443925
15196674 1 18411136961259739674
15885798 251 9655578513041063722
17539 30 17840859999606285974
17834072 32 18410294730984283272
17959699 21 18412826867376341192
1798214 55 18409166614874205504
18186145 218 18202294614736893498
19784866 34 18409163290596002675
200 152 15985114015526282674
20388580 30 11671777191672532402
20645477 56 18409171021315556863
20645477 70 17131291129241971342
20871999 31 17703216434123867511
212847 35 18334012788029968504
221357 26 17917714587008900696
23227448 37 18341611585160265221
23402539 116 18342452686234037958
23402655 69 18201721760562325308
23557571 272 18200039576069688526
23559900 14 18200873968515652366
23590187 49 18408040714687716534
2838139 119 18342168964725992644
2916195 48 18270958067966996320
293599 30 18410576192764641289
3472631 163 18411702101288117604
351380 180 18343582967155260772
351380 3 11024110940825022596
3545911 37 18410578387524578116
4028521 119 18343304790402125656
42 15 8358258150510677253
474 4 17894919528746645204
5104073 3 18188212009562752483
59755656 520 18040712593442906514
633830 44 18413102857964671310
67856867 119 18264761082482577658
7364860 26 18195245520863402282
7970288 3 10015581692534693284
8863177 126 12390642339367384325
9981440 41 18334293184189803523

>  <PUBCHEM_SHAPE_MULTIPOLES>  (1) 
337.88
11.88
2.31
0.74
4.07
0.55
0.02
-8.03
1.95
-0.79
-0.24
0.47
-0.01
0.32

>  <PUBCHEM_SHAPE_SELFOVERLAP>  (1) 
713.893

>  <PUBCHEM_SHAPE_VOLUME>  (1) 
191.3

>  <PUBCHEM_COORDINATE_TYPE>  (1) 
2
5
10

$$$$
