33077
     RDKit          3D

 23 25  0  0  0  0  0  0  0  0999 V2000
   -5.6461   -2.6381   -0.2535 O   0  0  0  0  0  0  0  0  0  0  0  0
    3.8091    0.9563   -0.5709 O   0  0  0  0  0  0  0  0  0  0  0  0
   -1.9688    3.3751    0.5178 O   0  0  0  0  0  0  0  0  0  0  0  0
   -4.0295   -0.3245    0.1434 N   0  0  0  0  0  0  0  0  0  0  0  0
   -3.0668    0.5024    0.6015 N   0  0  0  0  0  0  0  0  0  0  0  0
   -4.9951   -0.7727    1.1518 C   0  0  0  0  0  0  0  0  0  0  0  0
   -3.5796   -1.4457   -0.6895 C   0  0  0  0  0  0  0  0  0  0  0  0
   -6.1444   -1.5334    0.5001 C   0  0  0  0  0  0  0  0  0  0  0  0
   -4.7706   -2.1875   -1.2865 C   0  0  0  0  0  0  0  0  0  0  0  0
   -2.6576    1.3237   -0.3004 C   0  0  0  0  0  0  0  0  0  0  0  0
   -0.1686    1.9464   -0.0989 C   0  0  0  0  0  0  0  0  0  0  0  0
   -1.5942    2.3012    0.0710 C   0  0  0  0  0  0  0  0  0  0  0  0
    0.1596    0.7020   -0.6043 C   0  0  0  0  0  0  0  0  0  0  0  0
    0.8005    2.8682    0.2522 C   0  0  0  0  0  0  0  0  0  0  0  0
    2.4972    1.2833   -0.4160 C   0  0  0  0  0  0  0  0  0  0  0  0
    1.5043    0.3675   -0.7642 C   0  0  0  0  0  0  0  0  0  0  0  0
    2.1453    2.5337    0.0923 C   0  0  0  0  0  0  0  0  0  0  0  0
    4.2145   -0.2980   -0.1461 C   0  0  0  0  0  0  0  0  0  0  0  0
    3.7835   -0.7651    1.0822 C   0  0  0  0  0  0  0  0  0  0  0  0
    5.0403   -1.0506   -0.9614 C   0  0  0  0  0  0  0  0  0  0  0  0
    4.1926   -2.0281    1.5103 C   0  0  0  0  0  0  0  0  0  0  0  0
    5.4491   -2.3137   -0.5333 C   0  0  0  0  0  0  0  0  0  0  0  0
    5.0252   -2.8023    0.7025 C   0  0  0  0  0  0  0  0  0  0  0  0
  1  8  1  0
  1  9  1  0
  2 15  1  0
  2 18  1  0
  3 12  2  0
  4  5  1  0
  4  6  1  0
  4  7  1  0
  5 10  2  0
  6  8  1  0
  7  9  1  0
 10 12  1  0
 11 12  1  0
 11 13  2  0
 11 14  1  0
 13 16  1  0
 14 17  2  0
 15 16  2  0
 15 17  1  0
 18 19  2  0
 18 20  1  0
 19 21  1  0
 20 22  2  0
 21 23  2  0
 22 23  1  0
M  END
>  <PUBCHEM_COMPOUND_CID>  (1) 
33077

>  <PUBCHEM_CONFORMER_RMSD>  (1) 
0.8

>  <PUBCHEM_CONFORMER_DIVERSEORDER>  (1) 
1
34
61
48
13
36
24
56
21
44
30
37
15
25
7
62
20
26
12
49
53
59
58
55
64
50
11
45
23
18
65
63
57
54
47
42
29
51
32
43
6
33
60
39
67
10
68
27
16
28
31
17
4
38
66
3
8
2
41
9
35
40
52
19
46
22
5
14

>  <PUBCHEM_MMFF94_PARTIAL_CHARGES>  (1) 
33
1 -0.56
10 0.39
11 0.09
12 0.48
13 -0.15
14 -0.15
15 0.08
16 -0.15
17 -0.15
18 0.08
19 -0.15
2 -0.17
20 -0.15
21 -0.15
22 -0.15
23 -0.15
3 -0.57
32 0.06
33 0.15
34 0.15
35 0.15
36 0.15
37 0.15
38 0.15
39 0.15
4 -0.49
40 0.15
41 0.15
5 -0.5
6 0.27
7 0.27
8 0.28
9 0.28

>  <PUBCHEM_EFFECTIVE_ROTOR_COUNT>  (1) 
6.2

>  <PUBCHEM_PHARMACOPHORE_FEATURES>  (1) 
7
1 1 acceptor
1 2 acceptor
1 3 acceptor
1 5 acceptor
6 1 4 6 7 8 9 rings
6 11 13 14 15 16 17 rings
6 18 19 20 21 22 23 rings

>  <PUBCHEM_HEAVY_ATOM_COUNT>  (1) 
23

>  <PUBCHEM_ATOM_DEF_STEREO_COUNT>  (1) 
0

>  <PUBCHEM_ATOM_UDEF_STEREO_COUNT>  (1) 
0

>  <PUBCHEM_BOND_DEF_STEREO_COUNT>  (1) 
0

>  <PUBCHEM_BOND_UDEF_STEREO_COUNT>  (1) 
1

>  <PUBCHEM_ISOTOPIC_ATOM_COUNT>  (1) 
0

>  <PUBCHEM_COMPONENT_COUNT>  (1) 
1

>  <PUBCHEM_CACTVS_TAUTO_COUNT>  (1) 
1

>  <PUBCHEM_CONFORMER_ID>  (1) 
0000813500000001

>  <PUBCHEM_MMFF94_ENERGY>  (1) 
67.6223

>  <PUBCHEM_FEATURE_SELFOVERLAP>  (1) 
35.524

>  <PUBCHEM_SHAPE_FINGERPRINT>  (1) 
10074138 170 17272583724307955721
10622 236 17824531977398491714
11796584 16 18193275187731463684
11991303 11 17606955097645915477
12107183 9 18271541827427708033
12403259 118 11311472694422207884
12422481 6 17418096498851877727
12839892 36 17988926652067359519
13103583 49 18130519539057460233
13533116 47 18336829796248356779
13551218 46 18412547643484811007
13690498 29 18115030701344950028
13911852 28 18411135827204069087
13955234 65 18052822734575423025
14178342 30 17773049565540635641
1420 369 18410011043840809459
14251740 57 18341891892528389338
14347332 77 18335137570659784197
14480069 147 17967540038573818683
14767858 380 18115042882837351404
14848178 5 18335689525444251646
14866123 147 18340211770263516073
15042514 8 18341052900357827557
15342168 16 9583529711149220681
17492 89 18411136909831109796
17857418 61 18410009944387379303
20028762 73 18272088313838177239
20843269 155 18410005507944969834
21054139 6 18041002787799047674
21585483 132 17626368380094880695
21703447 108 18338223968492860264
21774942 28 12829479343078426078
235170 7 15647052646832479466
23522609 53 18050044122420648989
23559900 14 18409720755792433921
270888 7 9655570803616945914
2838139 119 9583250413530881811
3004659 81 18186801396052122759
312425 54 17989209248183313971
314194 84 18336553810123688992
351380 3 18409171012704672599
3680242 22 18341622559361141739
44062 13 18261386685908229645
46194498 28 16516251871682110167
463206 1 18335985384467475179
465052 167 18342182171818798406
5104073 3 18130788936465133752
7062679 13 18408886222055063162
76465 3 18410292514538571913
7970288 3 18410853278464942023
88748 71 18407760335096497397

>  <PUBCHEM_SHAPE_MULTIPOLES>  (1) 
445.76
14.76
3.86
1.1
7.03
1.01
-0.1
-16.7
-0.71
0.15
-0.29
-0.21
-0.55
-1.26

>  <PUBCHEM_SHAPE_SELFOVERLAP>  (1) 
956.47

>  <PUBCHEM_SHAPE_VOLUME>  (1) 
245.1

>  <PUBCHEM_COORDINATE_TYPE>  (1) 
2
5
10

$$$$
