33070
     RDKit          3D

 19 20  0  0  0  0  0  0  0  0999 V2000
   -0.0847    3.0145    0.2340 O   0  0  0  0  0  0  0  0  0  0  0  0
    4.7171   -2.4153   -0.0525 O   0  0  0  0  0  0  0  0  0  0  0  0
    5.8373   -0.5487   -0.3661 O   0  0  0  0  0  0  0  0  0  0  0  0
   -3.1626    0.0932   -0.1028 N   0  0  0  0  0  0  0  0  0  0  0  0
   -2.0206    0.7204   -0.4577 N   0  0  0  0  0  0  0  0  0  0  0  0
    4.7658   -1.1665   -0.1582 N   0  0  0  0  0  0  0  0  0  0  0  0
   -5.5845   -1.5528   -0.0745 C   0  0  0  0  0  0  0  0  0  0  0  0
   -5.6387   -0.0408   -0.2517 C   0  0  0  0  0  0  0  0  0  0  0  0
   -4.3329   -1.9468    0.6991 C   0  0  0  0  0  0  0  0  0  0  0  0
   -4.3470    0.4941   -0.8685 C   0  0  0  0  0  0  0  0  0  0  0  0
   -3.0739   -1.3626    0.0594 C   0  0  0  0  0  0  0  0  0  0  0  0
   -1.3296    1.0924    0.5618 C   0  0  0  0  0  0  0  0  0  0  0  0
   -0.0380    1.7961    0.3155 C   0  0  0  0  0  0  0  0  0  0  0  0
    1.2163    1.0227    0.1918 C   0  0  0  0  0  0  0  0  0  0  0  0
    1.1718   -0.3545    0.3077 C   0  0  0  0  0  0  0  0  0  0  0  0
    2.4022    1.6959   -0.0366 C   0  0  0  0  0  0  0  0  0  0  0  0
    3.5617   -0.4237   -0.0391 C   0  0  0  0  0  0  0  0  0  0  0  0
    2.3550   -1.0841    0.1913 C   0  0  0  0  0  0  0  0  0  0  0  0
    3.5854    0.9663   -0.1531 C   0  0  0  0  0  0  0  0  0  0  0  0
  1 13  2  0
  2  6  1  0
  3  6  2  0
  4  5  1  0
  4 10  1  0
  4 11  1  0
  5 12  2  0
  6 17  1  0
  7  8  1  0
  7  9  1  0
  8 10  1  0
  9 11  1  0
 12 13  1  0
 13 14  1  0
 14 15  2  0
 14 16  1  0
 15 18  1  0
 16 19  2  0
 17 18  2  0
 17 19  1  0
M  CHG  2   2  -1   6   1
M  END
>  <PUBCHEM_COMPOUND_CID>  (1) 
33070

>  <PUBCHEM_CONFORMER_RMSD>  (1) 
0.8

>  <PUBCHEM_CONFORMER_DIVERSEORDER>  (1) 
1
8
7
2
5
10
4
9
6
3

>  <PUBCHEM_MMFF94_PARTIAL_CHARGES>  (1) 
21
1 -0.57
10 0.27
11 0.27
12 0.39
13 0.48
14 0.09
15 -0.15
16 -0.15
17 0.13
18 -0.15
19 -0.15
2 -0.52
3 -0.52
30 0.06
31 0.15
32 0.15
33 0.15
34 0.15
4 -0.49
5 -0.5
6 0.91

>  <PUBCHEM_EFFECTIVE_ROTOR_COUNT>  (1) 
5.2

>  <PUBCHEM_PHARMACOPHORE_FEATURES>  (1) 
7
1 1 acceptor
1 2 acceptor
1 2 anion
1 3 acceptor
1 5 acceptor
6 14 15 16 17 18 19 rings
6 4 7 8 9 10 11 rings

>  <PUBCHEM_HEAVY_ATOM_COUNT>  (1) 
19

>  <PUBCHEM_ATOM_DEF_STEREO_COUNT>  (1) 
0

>  <PUBCHEM_ATOM_UDEF_STEREO_COUNT>  (1) 
0

>  <PUBCHEM_BOND_DEF_STEREO_COUNT>  (1) 
0

>  <PUBCHEM_BOND_UDEF_STEREO_COUNT>  (1) 
1

>  <PUBCHEM_ISOTOPIC_ATOM_COUNT>  (1) 
0

>  <PUBCHEM_COMPONENT_COUNT>  (1) 
1

>  <PUBCHEM_CACTVS_TAUTO_COUNT>  (1) 
1

>  <PUBCHEM_CONFORMER_ID>  (1) 
0000812E00000001

>  <PUBCHEM_MMFF94_ENERGY>  (1) 
39.1766

>  <PUBCHEM_FEATURE_SELFOVERLAP>  (1) 
35.603

>  <PUBCHEM_SHAPE_FINGERPRINT>  (1) 
10835480 77 18410282640620352765
11806522 49 18409168779970336760
12107183 9 18271257023793112865
12555020 224 18339350951501224567
12596602 18 14045731630085085111
12633257 1 15554441929075296699
12760667 363 18343864398992257967
12841375 25 18411418423140941601
12892183 10 12607408797145067837
13402501 40 18408605881235224379
13685833 64 18410858780697284811
13740256 8 18410857685216626763
13955234 65 18056194910857056792
14251731 8 18333446530825083359
14252887 29 17775575255323614044
14576447 43 18335985290309938546
14866123 147 18125444107938039377
15196674 1 18410292549198808739
15352361 1 18411419505446138035
17492 89 18197216937149525998
193927 3 18202012013982723166
19784866 240 18412832378035497285
200 152 18272087184308367337
20261772 1 17917988395278921838
20281389 69 9583512114816142222
20281475 54 18411142450175748689
20374829 77 18335416859508645291
20388580 30 18335144219227415404
20403669 9 18342743996211414655
20645477 70 18409164437014485068
20871999 31 18187359896678174037
21033650 10 16950557727861999037
21250096 35 18342455958809343169
21267235 1 18412270535935712015
21713013 43 17967806154826249181
221357 26 18335134319760009159
221490 88 18263086676538703648
2215653 11 18337662093003137455
22950370 63 18411422821340251597
23402539 116 18340768152288457008
23403322 49 18410292506270228299
23559900 14 18336819879538408265
239999 70 18409729586608418434
2871803 45 18260544524050900347
3004659 81 18187080659199816618
314194 84 18201434817707241999
329604 57 18409171008736460796
335352 9 18411135823716080669
3421961 26 18342454897641522696
351380 3 18272086097697673687
4214541 1 18408884027907380965
46194498 28 17531526611067277533
465052 167 18201723959443331862
4921388 177 16226334823856915355
5104073 3 18201997682172898200
559249 180 18269272374865386169
59682541 35 18201426009789485250
8863177 126 18043823189389941851
9709674 26 18118121609620855019

>  <PUBCHEM_SHAPE_MULTIPOLES>  (1) 
358.46
13.19
2.38
0.72
3.76
0.35
0
-8.09
1.77
-0.83
-0.25
0.34
0.02
0.54

>  <PUBCHEM_SHAPE_SELFOVERLAP>  (1) 
751.008

>  <PUBCHEM_SHAPE_VOLUME>  (1) 
202

>  <PUBCHEM_COORDINATE_TYPE>  (1) 
2
5
10

$$$$
