3307
     RDKit          3D

 23 26  0  0  0  0  0  0  0  0999 V2000
   -1.3675   -1.3624   -2.3303 Cl  0  0  0  0  0  0  0  0  0  0  0  0
    1.9332    2.1379    0.0059 S   0  0  0  0  0  0  0  0  0  0  0  0
    2.2694   -0.5025    0.0501 N   0  0  0  0  0  0  0  0  0  0  0  0
   -0.2866   -1.9247    1.0296 N   0  0  0  0  0  0  0  0  0  0  0  0
    3.1082   -2.5406    0.1748 N   0  0  0  0  0  0  0  0  0  0  0  0
    3.9687   -1.7679   -0.5652 N   0  0  0  0  0  0  0  0  0  0  0  0
    1.3801    0.5507    0.2252 C   0  0  0  0  0  0  0  0  0  0  0  0
    0.0423    0.4557    0.5630 C   0  0  0  0  0  0  0  0  0  0  0  0
   -0.7400   -0.7852    0.6376 C   0  0  0  0  0  0  0  0  0  0  0  0
    2.1147   -1.7716    0.5668 C   0  0  0  0  0  0  0  0  0  0  0  0
    0.4257    2.7788    0.4846 C   0  0  0  0  0  0  0  0  0  0  0  0
   -0.4903    1.7837    0.7470 C   0  0  0  0  0  0  0  0  0  0  0  0
    1.0575   -2.1029    1.5512 C   0  0  0  0  0  0  0  0  0  0  0  0
    3.4761   -0.5511   -0.6030 C   0  0  0  0  0  0  0  0  0  0  0  0
    0.2397    4.2441    0.5488 C   0  0  0  0  0  0  0  0  0  0  0  0
   -2.1610   -0.7325    0.2030 C   0  0  0  0  0  0  0  0  0  0  0  0
    4.1169    0.5528   -1.3475 C   0  0  0  0  0  0  0  0  0  0  0  0
   -0.2332    4.8387   -0.7820 C   0  0  0  0  0  0  0  0  0  0  0  0
   -2.5339   -0.9797   -1.1156 C   0  0  0  0  0  0  0  0  0  0  0  0
   -3.1242   -0.4255    1.1607 C   0  0  0  0  0  0  0  0  0  0  0  0
   -3.8792   -0.9193   -1.4791 C   0  0  0  0  0  0  0  0  0  0  0  0
   -4.4696   -0.3650    0.7971 C   0  0  0  0  0  0  0  0  0  0  0  0
   -4.8471   -0.6118   -0.5228 C   0  0  0  0  0  0  0  0  0  0  0  0
  1 19  1  0
  2  7  1  0
  2 11  1  0
  3  7  1  0
  3 10  1  0
  3 14  1  0
  4  9  2  0
  4 13  1  0
  5  6  1  0
  5 10  2  0
  6 14  2  0
  7  8  2  0
  8  9  1  0
  8 12  1  0
  9 16  1  0
 10 13  1  0
 11 12  2  0
 11 15  1  0
 14 17  1  0
 15 18  1  0
 16 19  2  0
 16 20  1  0
 19 21  1  0
 20 22  2  0
 21 23  2  0
 22 23  1  0
M  END
>  <PUBCHEM_COMPOUND_CID>  (1) 
3307

>  <PUBCHEM_CONFORMER_RMSD>  (1) 
0.6

>  <PUBCHEM_CONFORMER_DIVERSEORDER>  (1) 
1
4
5
6
7
3
2

>  <PUBCHEM_MMFF94_PARTIAL_CHARGES>  (1) 
27
1 -0.18
10 0.01
11 -0.14
12 -0.15
13 0.43
14 0.01
15 0.18
16 0.09
17 0.18
19 0.18
2 -0.08
20 -0.15
21 -0.15
22 -0.15
23 -0.15
24 0.15
3 0.38
35 0.15
36 0.15
37 0.15
38 0.15
4 -0.7
5 -0.34
6 -0.34
7 -0.04
8 -0.09
9 0.45

>  <PUBCHEM_EFFECTIVE_ROTOR_COUNT>  (1) 
2.2

>  <PUBCHEM_PHARMACOPHORE_FEATURES>  (1) 
8
1 18 hydrophobe
1 4 acceptor
3 3 5 10 cation
3 3 6 14 cation
5 2 7 8 11 12 rings
5 3 5 6 10 14 rings
6 16 19 20 21 22 23 rings
7 3 4 7 8 9 10 13 rings

>  <PUBCHEM_HEAVY_ATOM_COUNT>  (1) 
23

>  <PUBCHEM_ATOM_DEF_STEREO_COUNT>  (1) 
0

>  <PUBCHEM_ATOM_UDEF_STEREO_COUNT>  (1) 
0

>  <PUBCHEM_BOND_DEF_STEREO_COUNT>  (1) 
0

>  <PUBCHEM_BOND_UDEF_STEREO_COUNT>  (1) 
0

>  <PUBCHEM_ISOTOPIC_ATOM_COUNT>  (1) 
0

>  <PUBCHEM_COMPONENT_COUNT>  (1) 
1

>  <PUBCHEM_CACTVS_TAUTO_COUNT>  (1) 
1

>  <PUBCHEM_CONFORMER_ID>  (1) 
00000CEB00000001

>  <PUBCHEM_MMFF94_ENERGY>  (1) 
65.2595

>  <PUBCHEM_FEATURE_SELFOVERLAP>  (1) 
43.178

>  <PUBCHEM_SHAPE_FINGERPRINT>  (1) 
10165383 225 17177751172750420813
104564 63 18194682557876658633
10906281 52 18266466597412146544
12236239 1 17989491827304352819
12553582 1 18413109450560141666
12788726 201 18192148196480688026
13134695 92 18410570699596480501
13140716 1 17833830856007871936
13149001 5 18118979228205125946
13583140 156 18335703909975859615
13642711 20 17833584514406754108
13911987 19 18043552679537895652
15210252 30 17967813846870797996
15238133 3 17753304519023717281
1601671 61 18058736780319337169
16945 1 18337669823031770546
1813 80 18201445748362230095
18785283 64 17901677277725093001
21285901 2 17773607009424813111
21641784 216 18115891636757369076
221357 26 18335975411980162109
2255824 54 18196930191603838561
23402539 116 18341613659983332034
23419403 2 14289396553773754394
23558518 356 17901115126967820178
23559900 14 18264500645257534676
23566358 27 18051978322899002983
23598288 3 17906727003871539306
23598291 2 18059295465190924325
238 59 17761468675821348319
25 1 18262518237685701690
3323516 105 18261674891051265667
34934 24 18271526489450010210
352729 6 17405428806355571696
474 4 17979624955658531297
6287921 2 17683526508937488669
7164475 11 18194122915480760278
7471813 234 18265038168472086522
9981440 41 13625250982354316366

>  <PUBCHEM_SHAPE_MULTIPOLES>  (1) 
459.12
7.19
4.28
1.51
4.23
6.93
0.57
-3.9
2.08
-3.05
-0.12
0.68
-0.6
-0.49

>  <PUBCHEM_SHAPE_SELFOVERLAP>  (1) 
992.272

>  <PUBCHEM_SHAPE_VOLUME>  (1) 
254.6

>  <PUBCHEM_COORDINATE_TYPE>  (1) 
2
5
10

$$$$
