33071
     RDKit          3D

 22 24  0  0  0  0  0  0  0  0999 V2000
   -1.4664    3.1885    0.0602 O   0  0  0  0  0  0  0  0  0  0  0  0
   -4.1138   -0.1407   -0.1094 N   0  0  0  0  0  0  0  0  0  0  0  0
   -3.0622    0.6131   -0.4962 N   0  0  0  0  0  0  0  0  0  0  0  0
   -6.2900   -2.0966    0.0080 C   0  0  0  0  0  0  0  0  0  0  0  0
   -5.0085   -2.2671    0.8136 C   0  0  0  0  0  0  0  0  0  0  0  0
   -6.5462   -0.6202   -0.2659 C   0  0  0  0  0  0  0  0  0  0  0  0
   -3.8308   -1.5577    0.1462 C   0  0  0  0  0  0  0  0  0  0  0  0
   -5.3298    0.0463   -0.9070 C   0  0  0  0  0  0  0  0  0  0  0  0
   -2.4437    1.1388    0.5021 C   0  0  0  0  0  0  0  0  0  0  0  0
   -1.2560    1.9953    0.2198 C   0  0  0  0  0  0  0  0  0  0  0  0
    0.0934    1.3940    0.1542 C   0  0  0  0  0  0  0  0  0  0  0  0
    2.6169    0.2698    0.0338 C   0  0  0  0  0  0  0  0  0  0  0  0
    3.9371   -0.3186   -0.0293 C   0  0  0  0  0  0  0  0  0  0  0  0
    0.2343    0.0336    0.3578 C   0  0  0  0  0  0  0  0  0  0  0  0
    1.1806    2.2073   -0.1077 C   0  0  0  0  0  0  0  0  0  0  0  0
    1.5073   -0.5335    0.2970 C   0  0  0  0  0  0  0  0  0  0  0  0
    2.4534    1.6402   -0.1685 C   0  0  0  0  0  0  0  0  0  0  0  0
    4.7154   -0.4096    1.1247 C   0  0  0  0  0  0  0  0  0  0  0  0
    4.4321   -0.7941   -1.2436 C   0  0  0  0  0  0  0  0  0  0  0  0
    5.9885   -0.9763    1.0643 C   0  0  0  0  0  0  0  0  0  0  0  0
    5.7051   -1.3608   -1.3039 C   0  0  0  0  0  0  0  0  0  0  0  0
    6.4834   -1.4520   -0.1500 C   0  0  0  0  0  0  0  0  0  0  0  0
  1 10  2  0
  2  3  1  0
  2  7  1  0
  2  8  1  0
  3  9  2  0
  4  5  1  0
  4  6  1  0
  5  7  1  0
  6  8  1  0
  9 10  1  0
 10 11  1  0
 11 14  2  0
 11 15  1  0
 12 13  1  0
 12 16  2  0
 12 17  1  0
 13 18  2  0
 13 19  1  0
 14 16  1  0
 15 17  2  0
 18 20  1  0
 19 21  2  0
 20 22  2  0
 21 22  1  0
M  END
>  <PUBCHEM_COMPOUND_CID>  (1) 
33071

>  <PUBCHEM_CONFORMER_RMSD>  (1) 
0.8

>  <PUBCHEM_CONFORMER_DIVERSEORDER>  (1) 
1
9
3
13
12
5
2
8
10
6
4
11
7

>  <PUBCHEM_MMFF94_PARTIAL_CHARGES>  (1) 
27
1 -0.57
10 0.48
11 0.09
14 -0.15
15 -0.15
16 -0.15
17 -0.15
18 -0.15
19 -0.15
2 -0.49
20 -0.15
21 -0.15
22 -0.15
3 -0.5
33 0.06
34 0.15
35 0.15
36 0.15
37 0.15
38 0.15
39 0.15
40 0.15
41 0.15
42 0.15
7 0.27
8 0.27
9 0.39

>  <PUBCHEM_EFFECTIVE_ROTOR_COUNT>  (1) 
5.2

>  <PUBCHEM_PHARMACOPHORE_FEATURES>  (1) 
5
1 1 acceptor
1 3 acceptor
6 11 12 14 15 16 17 rings
6 13 18 19 20 21 22 rings
6 2 4 5 6 7 8 rings

>  <PUBCHEM_HEAVY_ATOM_COUNT>  (1) 
22

>  <PUBCHEM_ATOM_DEF_STEREO_COUNT>  (1) 
0

>  <PUBCHEM_ATOM_UDEF_STEREO_COUNT>  (1) 
0

>  <PUBCHEM_BOND_DEF_STEREO_COUNT>  (1) 
0

>  <PUBCHEM_BOND_UDEF_STEREO_COUNT>  (1) 
1

>  <PUBCHEM_ISOTOPIC_ATOM_COUNT>  (1) 
0

>  <PUBCHEM_COMPONENT_COUNT>  (1) 
1

>  <PUBCHEM_CACTVS_TAUTO_COUNT>  (1) 
1

>  <PUBCHEM_CONFORMER_ID>  (1) 
0000812F00000001

>  <PUBCHEM_MMFF94_ENERGY>  (1) 
52.1143

>  <PUBCHEM_FEATURE_SELFOVERLAP>  (1) 
25.373

>  <PUBCHEM_SHAPE_FINGERPRINT>  (1) 
10 15 11527944573605268807
10493431 412 9943805586405194417
11069576 57 16806431519168866986
11809386 21 18261107413938284569
12166972 35 17749112213835076533
12403259 118 11671772802220963961
12623949 98 17274554105416913110
12633257 1 15482669117439649237
12760667 363 18342737421317720829
12969540 114 13190341292185208722
13402501 40 18342178868905084287
13540713 5 18267326320457150001
13685833 64 18411419535848473827
13782708 43 17916589714137364238
13862211 1 18335701616083223170
14123256 34 18411143549739941987
14251752 14 17676762102923528791
14420673 8 18335987549784912035
14931854 50 17967242101467847795
15183329 4 17894910724259283147
17138139 8 17676763270822824978
18222031 100 18187085036193776708
193927 3 18343308062829757564
19784866 240 18411423921084039917
20028762 73 18343021103375651446
20281389 69 9583518711432078822
20374829 77 18407757045483884089
20621476 66 10087630520986799554
20645477 56 8358251557994678581
21054139 6 18040999506227788402
21150785 3 17967257507615070390
21267235 1 18411704283136485867
21623969 137 17346882226122135222
21756936 100 8862935061702820633
22393880 68 18041267812386187973
23035841 295 18334295357938613507
23198884 109 15357696375516973519
23522609 53 18119564035211076989
23559900 14 18263358243548556513
249999 5 18126279981409508616
25122255 55 18412832395110137795
270888 7 9007067850707382659
2748736 6 9583248201665559123
2838139 119 7997691952334457954
3004659 81 18113897186671788801
312425 54 17631463279967698507
329604 57 18408045121498294276
335352 9 18408882933065007317
3383291 50 18341047510554127603
3459 39 9727352364317409286
4107672 100 17240475885249284679
465052 167 18271812353551007951
5104073 3 18273496775353354784
559249 180 18412261710637820225
5718773 13 18267584612070386582
59682541 35 18201707480381538288
59682541 52 14346062106193990010
59755656 215 18408322168232607219
6138700 20 18410011040295357067
636775 8 18340216224144784086
77188 2 18340768242958589329
7970288 3 18410855464481891907
8863177 126 17970920083774057035

>  <PUBCHEM_SHAPE_MULTIPOLES>  (1) 
436.92
17.74
2.53
0.98
4.99
1.13
0.07
-14.6
1.34
1.77
-0.14
-0.94
-0.29
0.66

>  <PUBCHEM_SHAPE_SELFOVERLAP>  (1) 
936.321

>  <PUBCHEM_SHAPE_VOLUME>  (1) 
240.5

>  <PUBCHEM_COORDINATE_TYPE>  (1) 
2
5
10

$$$$
