33074
     RDKit          3D

 18 19  0  0  0  0  0  0  0  0999 V2000
    5.1278    1.5221    0.0851 O   0  0  0  0  0  0  0  0  0  0  0  0
   -4.9883    1.2859    0.2702 O   0  0  0  0  0  0  0  0  0  0  0  0
   -0.3223   -3.0014   -0.2489 O   0  0  0  0  0  0  0  0  0  0  0  0
    2.8470   -0.1873    0.0830 N   0  0  0  0  0  0  0  0  0  0  0  0
    1.6883   -0.7776    0.4424 N   0  0  0  0  0  0  0  0  0  0  0  0
    3.9624   -0.3911    1.0127 C   0  0  0  0  0  0  0  0  0  0  0  0
    2.7583    1.2172   -0.3328 C   0  0  0  0  0  0  0  0  0  0  0  0
    5.2633    0.1421    0.4227 C   0  0  0  0  0  0  0  0  0  0  0  0
    4.0946    1.7037   -0.8825 C   0  0  0  0  0  0  0  0  0  0  0  0
    0.9746   -1.1134   -0.5742 C   0  0  0  0  0  0  0  0  0  0  0  0
   -1.5625   -0.9723   -0.1660 C   0  0  0  0  0  0  0  0  0  0  0  0
   -0.3347   -1.7816   -0.3226 C   0  0  0  0  0  0  0  0  0  0  0  0
   -1.4767    0.4048   -0.2562 C   0  0  0  0  0  0  0  0  0  0  0  0
   -2.7656   -1.6129    0.0664 C   0  0  0  0  0  0  0  0  0  0  0  0
   -3.8582    0.5409    0.1267 C   0  0  0  0  0  0  0  0  0  0  0  0
   -2.6347    1.1682   -0.1085 C   0  0  0  0  0  0  0  0  0  0  0  0
   -3.9236   -0.8496    0.2141 C   0  0  0  0  0  0  0  0  0  0  0  0
   -4.8497    2.7023    0.1685 C   0  0  0  0  0  0  0  0  0  0  0  0
  1  8  1  0
  1  9  1  0
  2 15  1  0
  2 18  1  0
  3 12  2  0
  4  5  1  0
  4  6  1  0
  4  7  1  0
  5 10  2  0
  6  8  1  0
  7  9  1  0
 10 12  1  0
 11 12  1  0
 11 13  2  0
 11 14  1  0
 13 16  1  0
 14 17  2  0
 15 16  2  0
 15 17  1  0
M  END
>  <PUBCHEM_COMPOUND_CID>  (1) 
33074

>  <PUBCHEM_CONFORMER_RMSD>  (1) 
0.6

>  <PUBCHEM_CONFORMER_DIVERSEORDER>  (1) 
1
28
16
23
33
11
30
20
37
7
14
29
40
25
24
34
38
21
8
4
13
27
39
18
15
9
35
12
31
6
36
10
22
32
19
17
2
3
5
26

>  <PUBCHEM_MMFF94_PARTIAL_CHARGES>  (1) 
23
1 -0.56
10 0.39
11 0.09
12 0.48
13 -0.15
14 -0.15
15 0.08
16 -0.15
17 -0.15
18 0.28
2 -0.36
27 0.06
28 0.15
29 0.15
3 -0.57
30 0.15
31 0.15
4 -0.49
5 -0.5
6 0.27
7 0.27
8 0.28
9 0.28

>  <PUBCHEM_EFFECTIVE_ROTOR_COUNT>  (1) 
5.2

>  <PUBCHEM_PHARMACOPHORE_FEATURES>  (1) 
6
1 1 acceptor
1 2 acceptor
1 3 acceptor
1 5 acceptor
6 1 4 6 7 8 9 rings
6 11 13 14 15 16 17 rings

>  <PUBCHEM_HEAVY_ATOM_COUNT>  (1) 
18

>  <PUBCHEM_ATOM_DEF_STEREO_COUNT>  (1) 
0

>  <PUBCHEM_ATOM_UDEF_STEREO_COUNT>  (1) 
0

>  <PUBCHEM_BOND_DEF_STEREO_COUNT>  (1) 
0

>  <PUBCHEM_BOND_UDEF_STEREO_COUNT>  (1) 
1

>  <PUBCHEM_ISOTOPIC_ATOM_COUNT>  (1) 
0

>  <PUBCHEM_COMPONENT_COUNT>  (1) 
1

>  <PUBCHEM_CACTVS_TAUTO_COUNT>  (1) 
1

>  <PUBCHEM_CONFORMER_ID>  (1) 
0000813200000001

>  <PUBCHEM_MMFF94_ENERGY>  (1) 
50.0761

>  <PUBCHEM_FEATURE_SELFOVERLAP>  (1) 
30.449

>  <PUBCHEM_SHAPE_FINGERPRINT>  (1) 
10411042 1 17691404535442238247
10498660 4 18272094885158615105
12107183 9 18118674427419605242
122479 349 18408887351531625067
12390115 104 18272105880712418065
12403259 118 18335696169600416193
12596602 18 17313104189344723905
13583140 156 16660913405605177709
13785724 45 17761488093891629506
14123255 352 18410854348000852437
14341114 328 17894628162544830112
14767858 380 18271789234839390741
15196674 1 18410575093258294764
17834072 32 18411420617763656876
193927 3 12035734175944090851
19784866 170 18336551525623093503
204376 136 18411700967759583855
20621476 66 18411986879812265508
20645477 56 18271246126991349902
20645477 70 16343161190009409366
20715895 44 18192707848200646661
21065198 48 18187641422999313610
21524375 3 18413385445011071518
23402539 116 18201711877568270790
23559900 14 18199190581389604558
2916195 48 17988633151487941160
474 4 18338237059700078731
5104073 3 18187640345257746608
54446538 1 18335982055650990448
59682541 52 16271089198497611940
633830 44 18412260601713734846
7064713 232 18409165515173128620
76465 3 8069733075758413849
7808743 9 18411699919428822160
9981440 41 18409169900704081331

>  <PUBCHEM_SHAPE_MULTIPOLES>  (1) 
342.86
11.8
2.52
0.77
4.95
0.09
-0.01
-7.95
-1.71
-1.89
0.25
0.47
-0.02
-0.66

>  <PUBCHEM_SHAPE_SELFOVERLAP>  (1) 
714.81

>  <PUBCHEM_SHAPE_VOLUME>  (1) 
194.6

>  <PUBCHEM_COORDINATE_TYPE>  (1) 
2
5
10

$$$$
