33082
     RDKit          3D

 24 26  0  0  0  0  0  0  0  0999 V2000
    4.1583    0.7557   -0.6287 O   0  0  0  0  0  0  0  0  0  0  0  0
   -1.3950    3.6546    0.4566 O   0  0  0  0  0  0  0  0  0  0  0  0
   -5.5819   -2.0970   -0.0770 N   0  0  0  0  0  0  0  0  0  0  0  0
   -3.7430    0.1169    0.2420 N   0  0  0  0  0  0  0  0  0  0  0  0
   -2.7113    0.8810    0.6571 N   0  0  0  0  0  0  0  0  0  0  0  0
   -5.9591   -0.9059    0.6920 C   0  0  0  0  0  0  0  0  0  0  0  0
   -4.6442   -1.7342   -1.1455 C   0  0  0  0  0  0  0  0  0  0  0  0
   -4.7221   -0.2197    1.2778 C   0  0  0  0  0  0  0  0  0  0  0  0
   -3.3986   -1.0520   -0.5727 C   0  0  0  0  0  0  0  0  0  0  0  0
   -6.7654   -2.7548   -0.6275 C   0  0  0  0  0  0  0  0  0  0  0  0
   -2.2549    1.6367   -0.2790 C   0  0  0  0  0  0  0  0  0  0  0  0
   -1.1126    2.5400    0.0426 C   0  0  0  0  0  0  0  0  0  0  0  0
    0.2780    2.0693   -0.1352 C   0  0  0  0  0  0  0  0  0  0  0  0
    0.5000    0.7867   -0.6011 C   0  0  0  0  0  0  0  0  0  0  0  0
    1.3217    2.9239    0.1695 C   0  0  0  0  0  0  0  0  0  0  0  0
    2.8785    1.1894   -0.4667 C   0  0  0  0  0  0  0  0  0  0  0  0
    1.8118    0.3427   -0.7682 C   0  0  0  0  0  0  0  0  0  0  0  0
    2.6335    2.4801    0.0023 C   0  0  0  0  0  0  0  0  0  0  0  0
    4.4721   -0.5113   -0.1659 C   0  0  0  0  0  0  0  0  0  0  0  0
    4.0272   -0.9012    1.0841 C   0  0  0  0  0  0  0  0  0  0  0  0
    5.2230   -1.3534   -0.9659 C   0  0  0  0  0  0  0  0  0  0  0  0
    4.3440   -2.1771    1.5504 C   0  0  0  0  0  0  0  0  0  0  0  0
    5.5397   -2.6293   -0.4995 C   0  0  0  0  0  0  0  0  0  0  0  0
    5.1002   -3.0411    0.7586 C   0  0  0  0  0  0  0  0  0  0  0  0
  1 16  1  0
  1 19  1  0
  2 12  2  0
  3  6  1  0
  3  7  1  0
  3 10  1  0
  4  5  1  0
  4  8  1  0
  4  9  1  0
  5 11  2  0
  6  8  1  0
  7  9  1  0
 11 12  1  0
 12 13  1  0
 13 14  2  0
 13 15  1  0
 14 17  1  0
 15 18  2  0
 16 17  2  0
 16 18  1  0
 19 20  2  0
 19 21  1  0
 20 22  1  0
 21 23  2  0
 22 24  2  0
 23 24  1  0
M  END
>  <PUBCHEM_COMPOUND_CID>  (1) 
33082

>  <PUBCHEM_CONFORMER_RMSD>  (1) 
0.8

>  <PUBCHEM_CONFORMER_DIVERSEORDER>  (1) 
1
104
35
122
70
131
66
14
20
107
117
54
26
119
124
46
63
6
38
125
16
13
37
129
41
69
75
97
47
92
44
83
120
109
33
103
99
91
123
100
90
68
50
12
74
114
130
9
48
89
23
121
127
132
87
18
62
57
55
108
111
98
27
31
3
22
10
118
21
81
53
40
101
76
88
19
5
71
2
49
106
78
93
73
52
59
126
65
34
45
102
39
85
79
115
95
25
80
7
56
51
60
128
11
84
32
94
116
58
24
96
30
86
110
64
28
113
36
43
112
8
42
82
72
105
61
77
67
4
29
15
17

>  <PUBCHEM_MMFF94_PARTIAL_CHARGES>  (1) 
34
1 -0.17
10 0.27
11 0.39
12 0.48
13 0.09
14 -0.15
15 -0.15
16 0.08
17 -0.15
18 -0.15
19 0.08
2 -0.57
20 -0.15
21 -0.15
22 -0.15
23 -0.15
24 -0.15
3 -0.81
36 0.06
37 0.15
38 0.15
39 0.15
4 -0.49
40 0.15
41 0.15
42 0.15
43 0.15
44 0.15
45 0.15
5 -0.5
6 0.27
7 0.27
8 0.27
9 0.27

>  <PUBCHEM_EFFECTIVE_ROTOR_COUNT>  (1) 
6.2

>  <PUBCHEM_PHARMACOPHORE_FEATURES>  (1) 
7
1 1 acceptor
1 2 acceptor
1 3 cation
1 5 acceptor
6 13 14 15 16 17 18 rings
6 19 20 21 22 23 24 rings
6 3 4 6 7 8 9 rings

>  <PUBCHEM_HEAVY_ATOM_COUNT>  (1) 
24

>  <PUBCHEM_ATOM_DEF_STEREO_COUNT>  (1) 
0

>  <PUBCHEM_ATOM_UDEF_STEREO_COUNT>  (1) 
0

>  <PUBCHEM_BOND_DEF_STEREO_COUNT>  (1) 
0

>  <PUBCHEM_BOND_UDEF_STEREO_COUNT>  (1) 
1

>  <PUBCHEM_ISOTOPIC_ATOM_COUNT>  (1) 
0

>  <PUBCHEM_COMPONENT_COUNT>  (1) 
1

>  <PUBCHEM_CACTVS_TAUTO_COUNT>  (1) 
1

>  <PUBCHEM_CONFORMER_ID>  (1) 
0000813A00000001

>  <PUBCHEM_MMFF94_ENERGY>  (1) 
71.1866

>  <PUBCHEM_FEATURE_SELFOVERLAP>  (1) 
35.523

>  <PUBCHEM_SHAPE_FINGERPRINT>  (1) 
10074138 170 17200807596593565305
10622 236 17824814551860410882
10937287 8 9547778540558437060
117089 54 18196381312465530646
11796584 16 18121217585177499668
11991303 11 17606956184156655325
12107183 9 18271541810163585729
12166972 35 18040437715482884223
12422481 6 17417812811819238623
13103583 49 18130239154955054441
13533116 47 18337110171713491539
13690498 29 18042411239843686364
13911852 28 18411699915692855085
13955234 65 18124879220311380473
1420 369 18410012134714932368
14251740 57 18341891888185929898
14347332 77 18335419032603899901
14848178 5 18335690612202722916
14866123 147 18268153063792271601
15001296 14 18188765179665098395
15163728 17 9150880737531410464
15519825 34 15194704840761952935
17492 89 18410855422038121004
17857418 61 18409729564664187411
20028762 73 18343584044512440950
20691028 202 8862954870435056527
20775438 99 18119235414309559490
20843269 155 18337386042095835498
208703 8 18410569582889970999
21585483 132 17769920596705464495
21703447 108 18338505434990406112
23522609 53 18050607072368840997
2748736 6 9511458888280088155
2838139 119 10015594873925467601
3004659 81 18187364341562831775
312425 54 18060422404316374915
314194 84 18335711562821201424
34797466 226 16009030652662271743
351380 3 18409453578550231486
3680242 22 18341621455496459379
4017518 198 15231834940283759642
44062 13 18188767228396004173
46194498 28 16733269070025328076
463206 1 18335423516771868555
465052 167 18342745117535170806
5104073 3 18131351890597516768
59682541 52 14707472681786929107
7062679 13 18408886209296820284
76465 3 18410292501653754464
7808743 9 9295277327173737909
7970288 3 18410853282838939663
9849439 229 9439402432445163613

>  <PUBCHEM_SHAPE_MULTIPOLES>  (1) 
467.23
16.28
4.14
1.11
12.07
1
-0.17
-19.64
-0.2
-1
-0.24
-0.21
-0.52
-1.65

>  <PUBCHEM_SHAPE_SELFOVERLAP>  (1) 
996.65

>  <PUBCHEM_SHAPE_VOLUME>  (1) 
259.4

>  <PUBCHEM_COORDINATE_TYPE>  (1) 
2
5
10

$$$$
