331
     RDKit          3D

 10  9  0  0  1  0  0  0  0  0999 V2000
    3.2074    0.7095    0.7254 O   0  0  0  0  0  0  0  0  0  0  0  0
    1.8207    1.2183   -0.9989 O   0  0  0  0  0  0  0  0  0  0  0  0
   -0.4365   -2.3408    0.0542 N   0  0  0  0  0  0  0  0  0  0  0  0
   -2.4552    0.3749   -1.2565 N   0  0  0  0  0  0  0  0  0  0  0  0
   -0.7535    0.0679    0.5245 C   0  0  0  0  0  0  0  0  0  0  0  0
    0.0689   -0.9961   -0.2350 C   0  0  0  0  0  0  0  0  0  0  0  0
   -2.2531    0.1435    0.1734 C   0  0  0  0  0  0  0  0  0  0  0  0
    1.5499   -0.9014    0.1763 C   0  0  0  0  0  0  0  0  0  0  0  0
   -2.9221    1.2761    0.9535 C   0  0  0  0  0  0  0  0  0  0  0  0
    2.1734    0.4481   -0.1169 C   0  0  0  0  0  0  0  0  0  0  0  0
  1 10  1  0
  2 10  2  0
  3  6  1  0
  4  7  1  0
  5  6  1  0
  5  7  1  0
  6  8  1  0
  7  9  1  0
  8 10  1  0
M  END
>  <PUBCHEM_COMPOUND_CID>  (1) 
331

>  <PUBCHEM_CONFORMER_RMSD>  (1) 
0.6

>  <PUBCHEM_CONFORMER_DIVERSEORDER>  (1) 
2
8
58
3
56
64
28
44
17
49
52
31
24
59
35
50
18
21
53
15
22
61
65
38
42
20
66
1
29
63
14
13
55
54
46
34
37
12
6
11
23
51
30
43
57
26
69
41
62
67
4
27
36
45
68
60
47
9
32
33
10
39
7
16
19
40
25
48
5

>  <PUBCHEM_MMFF94_PARTIAL_CHARGES>  (1) 
13
1 -0.65
10 0.66
2 -0.57
20 0.36
21 0.36
22 0.36
23 0.36
24 0.5
3 -0.99
4 -0.99
6 0.27
7 0.27
8 0.06

>  <PUBCHEM_EFFECTIVE_ROTOR_COUNT>  (1) 
4

>  <PUBCHEM_PHARMACOPHORE_FEATURES>  (1) 
7
1 1 acceptor
1 2 acceptor
1 3 cation
1 3 donor
1 4 cation
1 4 donor
3 1 2 10 anion

>  <PUBCHEM_HEAVY_ATOM_COUNT>  (1) 
10

>  <PUBCHEM_ATOM_DEF_STEREO_COUNT>  (1) 
0

>  <PUBCHEM_ATOM_UDEF_STEREO_COUNT>  (1) 
2

>  <PUBCHEM_BOND_DEF_STEREO_COUNT>  (1) 
0

>  <PUBCHEM_BOND_UDEF_STEREO_COUNT>  (1) 
0

>  <PUBCHEM_ISOTOPIC_ATOM_COUNT>  (1) 
0

>  <PUBCHEM_COMPONENT_COUNT>  (1) 
1

>  <PUBCHEM_CACTVS_TAUTO_COUNT>  (1) 
1

>  <PUBCHEM_CONFORMER_ID>  (1) 
0000014B00000002

>  <PUBCHEM_MMFF94_ENERGY>  (1) 
-0.1247

>  <PUBCHEM_FEATURE_SELFOVERLAP>  (1) 
35.578

>  <PUBCHEM_SHAPE_FINGERPRINT>  (1) 
100427 49 16971962268427207003
10857977 72 16371875992477513089
12897270 3 14405183971500554464
12932764 1 17458351792819196795
14325111 11 18341897376536845171
14390081 3 18202566159401056185
15775835 57 18059858328965717297
20653085 51 17274557463337266273
21028194 46 18342746212366787051
21040471 1 18412271661412335386
230 275 18336551533933589640
23211744 41 17676773063527236771
23235685 24 18411423899123809400
23552423 10 17985829220759420063
305870 269 18338796689316726226
5084963 1 18113616815401479003

>  <PUBCHEM_SHAPE_MULTIPOLES>  (1) 
184.09
4.58
1.62
0.98
0.2
0.83
-0.18
-2.42
0.48
-0.07
0.09
0.3
-0.25
-0.32

>  <PUBCHEM_SHAPE_SELFOVERLAP>  (1) 
339.526

>  <PUBCHEM_SHAPE_VOLUME>  (1) 
116.5

>  <PUBCHEM_COORDINATE_TYPE>  (1) 
2
5
10

$$$$
