33104
     RDKit          3D

 10 11  0  0  0  0  0  0  0  0999 V2000
   -2.0370   -0.7559    0.0001 O   0  0  0  0  0  0  0  0  0  0  0  0
   -0.1986    0.5571    0.0000 C   0  0  0  0  0  0  0  0  0  0  0  0
    1.1916    0.7661    0.0001 C   0  0  0  0  0  0  0  0  0  0  0  0
   -0.6743   -0.7501   -0.0001 C   0  0  0  0  0  0  0  0  0  0  0  0
   -1.3507    1.3870   -0.0001 C   0  0  0  0  0  0  0  0  0  0  0  0
    2.0393   -0.3502    0.0004 C   0  0  0  0  0  0  0  0  0  0  0  0
    0.1430   -1.8791   -0.0002 C   0  0  0  0  0  0  0  0  0  0  0  0
    1.8018    2.1306   -0.0002 C   0  0  0  0  0  0  0  0  0  0  0  0
    1.5219   -1.6481   -0.0001 C   0  0  0  0  0  0  0  0  0  0  0  0
   -2.4368    0.5426    0.0001 C   0  0  0  0  0  0  0  0  0  0  0  0
  1  4  1  0
  1 10  1  0
  2  3  1  0
  2  4  2  0
  2  5  1  0
  3  6  2  0
  3  8  1  0
  4  7  1  0
  5 10  2  0
  6  9  1  0
  7  9  2  0
M  END
>  <PUBCHEM_COMPOUND_CID>  (1) 
33104

>  <PUBCHEM_CONFORMER_RMSD>  (1) 
0.4

>  <PUBCHEM_CONFORMER_DIVERSEORDER>  (1) 
1

>  <PUBCHEM_MMFF94_PARTIAL_CHARGES>  (1) 
14
1 -0.28
10 -0.01
11 0.15
12 0.15
13 0.15
17 0.15
18 0.15
3 -0.14
4 0.14
5 -0.15
6 -0.15
7 -0.15
8 0.14
9 -0.15

>  <PUBCHEM_EFFECTIVE_ROTOR_COUNT>  (1) 
0

>  <PUBCHEM_PHARMACOPHORE_FEATURES>  (1) 
3
1 1 acceptor
5 1 2 4 5 10 rings
6 2 3 4 6 7 9 rings

>  <PUBCHEM_HEAVY_ATOM_COUNT>  (1) 
10

>  <PUBCHEM_ATOM_DEF_STEREO_COUNT>  (1) 
0

>  <PUBCHEM_ATOM_UDEF_STEREO_COUNT>  (1) 
0

>  <PUBCHEM_BOND_DEF_STEREO_COUNT>  (1) 
0

>  <PUBCHEM_BOND_UDEF_STEREO_COUNT>  (1) 
0

>  <PUBCHEM_ISOTOPIC_ATOM_COUNT>  (1) 
0

>  <PUBCHEM_COMPONENT_COUNT>  (1) 
1

>  <PUBCHEM_CACTVS_TAUTO_COUNT>  (1) 
1

>  <PUBCHEM_CONFORMER_ID>  (1) 
0000815000000001

>  <PUBCHEM_MMFF94_ENERGY>  (1) 
16.746

>  <PUBCHEM_FEATURE_SELFOVERLAP>  (1) 
15.325

>  <PUBCHEM_SHAPE_FINGERPRINT>  (1) 
12423570 1 11112947232568444003
16945 1 18410573942302102407
18185500 45 18122907516773247650
193761 8 18266740371116492358
21040471 1 18266741479138693092
23552423 10 18408603660462247647
241688 4 17690564087244529850
2748010 2 18265617769475150559
29004967 10 18192998114563273586
5084963 1 18202282502406671345

>  <PUBCHEM_SHAPE_MULTIPOLES>  (1) 
199.93
2.91
2.15
0.61
0.83
0.21
0
0.41
0
-0.93
0
-0.02
0.01
0

>  <PUBCHEM_SHAPE_SELFOVERLAP>  (1) 
439.495

>  <PUBCHEM_SHAPE_VOLUME>  (1) 
110.7

>  <PUBCHEM_COORDINATE_TYPE>  (1) 
2
5
10

$$$$
