33113
     RDKit          3D

 31 33  0  0  1  0  0  0  0  0999 V2000
    4.3636   -0.8091    0.9221 P   0  0  0  0  0  0  0  0  0  0  0  0
    3.5204    1.2226   -1.0417 P   0  0  0  0  0  0  0  0  0  0  0  0
    1.5369    3.0118   -0.3447 P   0  0  0  0  0  0  0  0  0  0  0  0
   -0.4864   -2.1163    1.2700 O   0  0  0  0  0  0  0  0  0  0  0  0
   -1.1260   -1.8963   -2.2603 O   0  0  0  0  0  0  0  0  0  0  0  0
    0.2243   -3.9339   -1.0729 O   0  0  0  0  0  0  0  0  0  0  0  0
    3.0901   -1.7669    0.6406 O   0  0  0  0  0  0  0  0  0  0  0  0
    3.8852    0.6566    0.4349 O   0  0  0  0  0  0  0  0  0  0  0  0
    4.4115   -0.6662    2.5329 O   0  0  0  0  0  0  0  0  0  0  0  0
    5.6497   -1.2751    0.3036 O   0  0  0  0  0  0  0  0  0  0  0  0
    4.9838    1.2198   -1.7458 O   0  0  0  0  0  0  0  0  0  0  0  0
    2.5448    0.3332   -1.7654 O   0  0  0  0  0  0  0  0  0  0  0  0
    1.5071    2.8092    1.2659 O   0  0  0  0  0  0  0  0  0  0  0  0
    1.2458    4.6058   -0.4572 O   0  0  0  0  0  0  0  0  0  0  0  0
    0.4853    2.1950   -1.0467 O   0  0  0  0  0  0  0  0  0  0  0  0
   -2.1939   -0.6728    0.4757 N   0  0  0  0  0  0  0  0  0  0  0  0
   -2.7990    1.2859    1.3564 N   0  0  0  0  0  0  0  0  0  0  0  0
   -4.2331   -1.2380   -0.7178 N   0  0  0  0  0  0  0  0  0  0  0  0
   -5.9341    0.4895   -0.4375 N   0  0  0  0  0  0  0  0  0  0  0  0
   -5.5593    2.4623    0.8643 N   0  0  0  0  0  0  0  0  0  0  0  0
    3.1068    2.8088   -0.8230 N   0  0  0  0  0  0  0  0  0  0  0  0
   -0.4534   -1.6276   -1.0471 C   0  0  0  0  0  0  0  0  0  0  0  0
    0.6616   -2.6126   -0.7556 C   0  0  0  0  0  0  0  0  0  0  0  0
   -1.3576   -1.8284    0.1594 C   0  0  0  0  0  0  0  0  0  0  0  0
    0.8124   -2.4945    0.7578 C   0  0  0  0  0  0  0  0  0  0  0  0
    1.8201   -1.4316    1.1727 C   0  0  0  0  0  0  0  0  0  0  0  0
   -3.4771   -0.4493    0.0606 C   0  0  0  0  0  0  0  0  0  0  0  0
   -1.8324    0.3979    1.2519 C   0  0  0  0  0  0  0  0  0  0  0  0
   -3.8328    0.7690    0.6167 C   0  0  0  0  0  0  0  0  0  0  0  0
   -5.1148    1.2350    0.3426 C   0  0  0  0  0  0  0  0  0  0  0  0
   -5.4494   -0.6835   -0.9122 C   0  0  0  0  0  0  0  0  0  0  0  0
  1  7  1  0
  1  8  1  0
  1  9  1  0
  1 10  2  0
  2  8  1  0
  2 11  1  0
  2 12  2  0
  2 21  1  0
  3 13  1  0
  3 14  1  0
  3 15  2  0
  3 21  1  0
  4 24  1  0
  4 25  1  0
  5 22  1  0
  6 23  1  0
  7 26  1  0
 16 24  1  0
 16 27  1  0
 16 28  1  0
 17 28  2  0
 17 29  1  0
 18 27  1  0
 18 31  2  0
 19 30  2  0
 19 31  1  0
 20 30  1  0
 22 23  1  0
 22 24  1  0
 23 25  1  0
 25 26  1  0
 27 29  2  0
 29 30  1  0
M  END
>  <PUBCHEM_COMPOUND_CID>  (1) 
33113

>  <PUBCHEM_CONFORMER_RMSD>  (1) 
1.4

>  <PUBCHEM_CONFORMER_DIVERSEORDER>  (1) 
1
23
139
144
49
58
128
122
61
17
157
55
127
92
24
20
51
57
13
37
136
116
33
153
80
110
38
32
46
28
73
60
30
101
26
79
119
113
84
12
29
48
44
163
71
105
141
162
118
100
78
85
81
36
95
8
94
2
143
76
137
54
22
10
40
39
21
112
75
98
50
47
27
15
148
166
89
102
132
120
117
34
93
154
41
138
150
31
59
67
14
106
18
126
161
70
11
86
145
42
104
90
121
68
107
158
66
109
140
155
115
43
25
3
45
72
167
74
97
64
129
83
65
69
146
6
123
7
147
159
16
124
4
56
82
5
88
108
134
35
77
99
96
149
63
114
9
52
87
165
152
125
62
53
168
135
19
111
156
130
160
91
133
103
164
142
151
131

>  <PUBCHEM_MMFF94_PARTIAL_CHARGES>  (1) 
42
1 1.51
10 -0.7
11 -0.77
12 -0.7
13 -0.77
14 -0.77
15 -0.7
16 0.05
17 -0.57
18 -0.57
19 -0.62
2 1.51
20 -0.9
21 -0.9
22 0.28
23 0.28
24 0.54
25 0.28
26 0.28
27 0.11
28 0.04
29 0.23
3 1.51
30 0.41
31 0.47
38 0.4
39 0.4
4 -0.56
40 0.15
41 0.15
42 0.5
43 0.4
44 0.4
45 0.36
46 0.5
47 0.5
48 0.5
5 -0.68
6 -0.68
7 -0.55
8 -0.54
9 -0.77

>  <PUBCHEM_EFFECTIVE_ROTOR_COUNT>  (1) 
9

>  <PUBCHEM_PHARMACOPHORE_FEATURES>  (1) 
21
1 10 acceptor
1 11 acceptor
1 12 acceptor
1 13 acceptor
1 14 acceptor
1 15 acceptor
1 20 cation
1 20 donor
1 4 acceptor
1 5 acceptor
1 5 donor
1 6 acceptor
1 6 donor
1 9 acceptor
3 16 17 28 cation
3 16 18 27 cation
3 18 19 31 cation
4 3 13 14 15 anion
5 16 17 27 28 29 rings
5 4 22 23 24 25 rings
6 18 19 27 29 30 31 rings

>  <PUBCHEM_HEAVY_ATOM_COUNT>  (1) 
31

>  <PUBCHEM_ATOM_DEF_STEREO_COUNT>  (1) 
4

>  <PUBCHEM_ATOM_UDEF_STEREO_COUNT>  (1) 
0

>  <PUBCHEM_BOND_DEF_STEREO_COUNT>  (1) 
0

>  <PUBCHEM_BOND_UDEF_STEREO_COUNT>  (1) 
0

>  <PUBCHEM_ISOTOPIC_ATOM_COUNT>  (1) 
0

>  <PUBCHEM_COMPONENT_COUNT>  (1) 
1

>  <PUBCHEM_CACTVS_TAUTO_COUNT>  (1) 
9

>  <PUBCHEM_CONFORMER_ID>  (1) 
0000815900000001

>  <PUBCHEM_MMFF94_ENERGY>  (1) 
-13.5463

>  <PUBCHEM_FEATURE_SELFOVERLAP>  (1) 
107.268

>  <PUBCHEM_SHAPE_FINGERPRINT>  (1) 
12166972 35 18413385432167919810
12422481 6 18116707422433931917
12633257 1 17821442443680672610
12788726 201 18270979963631786592
13583140 156 17896610672219860667
14117953 113 18267583507345179637
15238133 3 18334018298383293054
17980427 23 18342449302016092919
18681886 176 18342728633081865434
21298829 104 18410855460281877040
21860390 5 18338241470341640559
22113638 7 18411695521635525056
23559900 14 17489319610835389100
345986 75 17823962473393184640
34797466 226 16415188001657991331
3680242 22 18335425612414832377
4409770 3 15746712024260668951
445580 8 18411134697806751874
474 4 18335985289872537131
513532 50 17846783966798734494
57724786 102 17531259365090345500
653340 110 18123181304212777216
6609424 69 16969760561160727961
8509985 295 18333728022623142304

>  <PUBCHEM_SHAPE_MULTIPOLES>  (1) 
549.2
11.58
4.21
1.67
6.87
2.2
0.03
3.39
-0.62
-2.19
0.78
-1.14
-0.3
-2.25

>  <PUBCHEM_SHAPE_SELFOVERLAP>  (1) 
1119.769

>  <PUBCHEM_SHAPE_VOLUME>  (1) 
320.8

>  <PUBCHEM_COORDINATE_TYPE>  (1) 
2
5
10

$$$$
