33128
     RDKit          3D

 11 11  0  0  0  0  0  0  0  0999 V2000
    2.4380    2.6909   -0.0007 Br  0  0  0  0  0  0  0  0  0  0  0  0
    1.9605   -2.8329   -0.0008 Cl  0  0  0  0  0  0  0  0  0  0  0  0
   -2.8417   -1.0538   -0.0006 O   0  0  0  0  0  0  0  0  0  0  0  0
   -2.9007    1.2091    0.0000 O   0  0  0  0  0  0  0  0  0  0  0  0
   -0.7933    0.0681    0.0004 C   0  0  0  0  0  0  0  0  0  0  0  0
   -0.0122    1.2237    0.0001 C   0  0  0  0  0  0  0  0  0  0  0  0
   -0.1832   -1.1864    0.0004 C   0  0  0  0  0  0  0  0  0  0  0  0
    1.3792    1.1249    0.0002 C   0  0  0  0  0  0  0  0  0  0  0  0
    1.2082   -1.2851    0.0005 C   0  0  0  0  0  0  0  0  0  0  0  0
    1.9893   -0.1294    0.0005 C   0  0  0  0  0  0  0  0  0  0  0  0
   -2.2442    0.1708    0.0000 C   0  0  0  0  0  0  0  0  0  0  0  0
  1  8  1  0
  2  9  1  0
  3 11  1  0
  4 11  2  0
  5  6  2  0
  5  7  1  0
  5 11  1  0
  6  8  1  0
  7  9  2  0
  8 10  2  0
  9 10  1  0
M  END
>  <PUBCHEM_COMPOUND_CID>  (1) 
33128

>  <PUBCHEM_CONFORMER_RMSD>  (1) 
0.4

>  <PUBCHEM_CONFORMER_DIVERSEORDER>  (1) 
1
2

>  <PUBCHEM_MMFF94_PARTIAL_CHARGES>  (1) 
15
1 -0.11
10 -0.15
11 0.63
12 0.15
13 0.15
14 0.15
15 0.5
2 -0.18
3 -0.65
4 -0.57
5 0.09
6 -0.15
7 -0.15
8 0.11
9 0.18

>  <PUBCHEM_EFFECTIVE_ROTOR_COUNT>  (1) 
1

>  <PUBCHEM_PHARMACOPHORE_FEATURES>  (1) 
5
1 1 hydrophobe
1 3 acceptor
1 4 acceptor
3 3 4 11 anion
6 5 6 7 8 9 10 rings

>  <PUBCHEM_HEAVY_ATOM_COUNT>  (1) 
11

>  <PUBCHEM_ATOM_DEF_STEREO_COUNT>  (1) 
0

>  <PUBCHEM_ATOM_UDEF_STEREO_COUNT>  (1) 
0

>  <PUBCHEM_BOND_DEF_STEREO_COUNT>  (1) 
0

>  <PUBCHEM_BOND_UDEF_STEREO_COUNT>  (1) 
0

>  <PUBCHEM_ISOTOPIC_ATOM_COUNT>  (1) 
0

>  <PUBCHEM_COMPONENT_COUNT>  (1) 
1

>  <PUBCHEM_CACTVS_TAUTO_COUNT>  (1) 
1

>  <PUBCHEM_CONFORMER_ID>  (1) 
0000816800000001

>  <PUBCHEM_MMFF94_ENERGY>  (1) 
26.2227

>  <PUBCHEM_FEATURE_SELFOVERLAP>  (1) 
25.432

>  <PUBCHEM_SHAPE_FINGERPRINT>  (1) 
1 1 18338517542486603100
13380535 76 18051973911793113828
14325111 11 18338516472802720097
14648413 74 18336829701832961841
16945 1 18410575054677487588
17990270 104 18409727322606979915
19021347 4 18050004695004843720
19973954 147 18410576158763800465
20645476 183 17681003099776850340
20645477 70 18409721868705558295
20711985 344 17190122426566935950
20871998 184 17401778913135062778
20871998 22 17982172214778228726
21040471 1 18122344850556784128
21524375 3 18126847337824580732
23552423 10 18411139134281154359
241688 4 17834115243240862722
2748010 2 18120382205131644054
305870 269 18337665429560015736
3071541 12 18411706465323042948
7364860 26 18412826871908360404
81228 2 17331123797786523210

>  <PUBCHEM_SHAPE_MULTIPOLES>  (1) 
222.45
3.97
2.98
0.62
2.14
1.37
0
-1.89
0
-2.56
0
-0.09
-0.01
0

>  <PUBCHEM_SHAPE_SELFOVERLAP>  (1) 
444.405

>  <PUBCHEM_SHAPE_VOLUME>  (1) 
136.5

>  <PUBCHEM_COORDINATE_TYPE>  (1) 
2
5
10

$$$$
