33123
     RDKit          3D

 11 11  0  0  0  0  0  0  0  0999 V2000
    0.0350   -2.5047   -0.1484 Br  0  0  0  0  0  0  0  0  0  0  0  0
   -3.0715   -1.3320   -0.1313 Cl  0  0  0  0  0  0  0  0  0  0  0  0
    2.6998    0.4722   -0.9884 O   0  0  0  0  0  0  0  0  0  0  0  0
    2.5852   -0.8022    0.8790 O   0  0  0  0  0  0  0  0  0  0  0  0
    0.6177    0.2893    0.0537 C   0  0  0  0  0  0  0  0  0  0  0  0
   -0.4094   -0.6506   -0.0311 C   0  0  0  0  0  0  0  0  0  0  0  0
    0.3144    1.6480    0.1402 C   0  0  0  0  0  0  0  0  0  0  0  0
   -1.7399   -0.2317   -0.0295 C   0  0  0  0  0  0  0  0  0  0  0  0
   -1.0162    2.0670    0.1415 C   0  0  0  0  0  0  0  0  0  0  0  0
   -2.0434    1.1270    0.0567 C   0  0  0  0  0  0  0  0  0  0  0  0
    2.0283   -0.0824    0.0575 C   0  0  0  0  0  0  0  0  0  0  0  0
  1  6  1  0
  2  8  1  0
  3 11  1  0
  4 11  2  0
  5  6  2  0
  5  7  1  0
  5 11  1  0
  6  8  1  0
  7  9  2  0
  8 10  2  0
  9 10  1  0
M  END
>  <PUBCHEM_COMPOUND_CID>  (1) 
33123

>  <PUBCHEM_CONFORMER_RMSD>  (1) 
0.4

>  <PUBCHEM_CONFORMER_DIVERSEORDER>  (1) 
1
2

>  <PUBCHEM_MMFF94_PARTIAL_CHARGES>  (1) 
15
1 -0.11
10 -0.15
11 0.63
12 0.15
13 0.15
14 0.15
15 0.5
2 -0.18
3 -0.65
4 -0.57
5 0.09
6 0.11
7 -0.15
8 0.18
9 -0.15

>  <PUBCHEM_EFFECTIVE_ROTOR_COUNT>  (1) 
1

>  <PUBCHEM_PHARMACOPHORE_FEATURES>  (1) 
5
1 1 hydrophobe
1 3 acceptor
1 4 acceptor
3 3 4 11 anion
6 5 6 7 8 9 10 rings

>  <PUBCHEM_HEAVY_ATOM_COUNT>  (1) 
11

>  <PUBCHEM_ATOM_DEF_STEREO_COUNT>  (1) 
0

>  <PUBCHEM_ATOM_UDEF_STEREO_COUNT>  (1) 
0

>  <PUBCHEM_BOND_DEF_STEREO_COUNT>  (1) 
0

>  <PUBCHEM_BOND_UDEF_STEREO_COUNT>  (1) 
0

>  <PUBCHEM_ISOTOPIC_ATOM_COUNT>  (1) 
0

>  <PUBCHEM_COMPONENT_COUNT>  (1) 
1

>  <PUBCHEM_CACTVS_TAUTO_COUNT>  (1) 
1

>  <PUBCHEM_CONFORMER_ID>  (1) 
0000816300000001

>  <PUBCHEM_MMFF94_ENERGY>  (1) 
32.3232

>  <PUBCHEM_FEATURE_SELFOVERLAP>  (1) 
25.432

>  <PUBCHEM_SHAPE_FINGERPRINT>  (1) 
11206711 2 18409727378784238613
12423570 1 8020891858582536521
12524768 44 18056480792332373903
13380535 21 18126582115051337595
13380535 76 18122896534958427799
161256 15 18196933494460335801
16945 1 18268431230973939105
193761 8 17979356352735573919
20871998 184 18272364261185877870
21040471 1 18052538763984699480
23463225 33 18263077730201246082
23552423 10 18119253865382963238
23559900 14 17985552148778400302
241688 4 18339919411248638697
2748010 2 18339352093371622717
5084963 1 17988649618007353795
53812654 25 18267571580331956378
66348 1 18266741474775225539

>  <PUBCHEM_SHAPE_MULTIPOLES>  (1) 
222.45
3.67
2.41
0.74
0.21
0.46
0.02
0.71
0.15
-0.69
-0.02
0.28
0.05
-0.25

>  <PUBCHEM_SHAPE_SELFOVERLAP>  (1) 
445.295

>  <PUBCHEM_SHAPE_VOLUME>  (1) 
135.7

>  <PUBCHEM_COORDINATE_TYPE>  (1) 
2
5
10

$$$$
