33135
     RDKit          3D

 10 10  0  0  0  0  0  0  0  0999 V2000
   -0.5103    1.7824    0.1562 O   0  0  0  0  0  0  0  0  0  0  0  0
    0.7998   -1.6016    0.1958 N   0  0  0  0  0  0  0  0  0  0  0  0
   -1.6171   -0.2256   -0.1670 N   0  0  0  0  0  0  0  0  0  0  0  0
    1.9972    0.4712    0.5390 C   0  0  0  0  0  0  0  0  0  0  0  0
    0.7270   -0.2575    0.2630 C   0  0  0  0  0  0  0  0  0  0  0  0
   -0.4601    0.4184    0.0848 C   0  0  0  0  0  0  0  0  0  0  0  0
    2.7477    0.8371   -0.7395 C   0  0  0  0  0  0  0  0  0  0  0  0
   -0.3572   -2.2456   -0.0562 C   0  0  0  0  0  0  0  0  0  0  0  0
   -1.5443   -1.5696   -0.2345 C   0  0  0  0  0  0  0  0  0  0  0  0
   -1.7826    2.3909   -0.0416 C   0  0  0  0  0  0  0  0  0  0  0  0
  1  6  1  0
  1 10  1  0
  2  5  2  0
  2  8  1  0
  3  6  2  0
  3  9  1  0
  4  5  1  0
  4  7  1  0
  5  6  1  0
  8  9  2  0
M  END
>  <PUBCHEM_COMPOUND_CID>  (1) 
33135

>  <PUBCHEM_CONFORMER_RMSD>  (1) 
0.4

>  <PUBCHEM_CONFORMER_DIVERSEORDER>  (1) 
1
4
3
10
9
8
7
5
2
6

>  <PUBCHEM_MMFF94_PARTIAL_CHARGES>  (1) 
11
1 -0.36
10 0.28
16 0.15
17 0.15
2 -0.62
3 -0.62
4 0.14
5 0.17
6 0.39
8 0.16
9 0.16

>  <PUBCHEM_EFFECTIVE_ROTOR_COUNT>  (1) 
2

>  <PUBCHEM_PHARMACOPHORE_FEATURES>  (1) 
3
1 2 acceptor
1 7 hydrophobe
6 2 3 5 6 8 9 rings

>  <PUBCHEM_HEAVY_ATOM_COUNT>  (1) 
10

>  <PUBCHEM_ATOM_DEF_STEREO_COUNT>  (1) 
0

>  <PUBCHEM_ATOM_UDEF_STEREO_COUNT>  (1) 
0

>  <PUBCHEM_BOND_DEF_STEREO_COUNT>  (1) 
0

>  <PUBCHEM_BOND_UDEF_STEREO_COUNT>  (1) 
0

>  <PUBCHEM_ISOTOPIC_ATOM_COUNT>  (1) 
0

>  <PUBCHEM_COMPONENT_COUNT>  (1) 
1

>  <PUBCHEM_CACTVS_TAUTO_COUNT>  (1) 
2

>  <PUBCHEM_CONFORMER_ID>  (1) 
0000816F00000001

>  <PUBCHEM_MMFF94_ENERGY>  (1) 
26.444

>  <PUBCHEM_FEATURE_SELFOVERLAP>  (1) 
15.223

>  <PUBCHEM_SHAPE_FINGERPRINT>  (1) 
100427 49 17690000462838837388
12524768 44 17767403852641568866
12716758 59 18342181055311813452
16945 1 18339355382978695026
18185500 45 18120365725147164826
193761 8 18267019445101060979
21040471 1 18267859502012224464
23552423 10 17906445529105584877
241688 4 15817909795799036161
2748010 2 18267023851594653191

>  <PUBCHEM_SHAPE_MULTIPOLES>  (1) 
189.96
2.83
2.6
0.7
2.02
1.16
-0.03
0.02
-0.51
-1.63
0
0.23
0
-0.12

>  <PUBCHEM_SHAPE_SELFOVERLAP>  (1) 
383.847

>  <PUBCHEM_SHAPE_VOLUME>  (1) 
112.1

>  <PUBCHEM_COORDINATE_TYPE>  (1) 
2
5
10

$$$$
