33133
     RDKit          3D

 29 31  0  0  0  0  0  0  0  0999 V2000
    0.0024    0.0004   -0.2724 P   0  0  0  0  0  0  0  0  0  0  0  0
   -0.9849    1.0847    0.4187 O   0  0  0  0  0  0  0  0  0  0  0  0
    1.4307    0.3072    0.4206 O   0  0  0  0  0  0  0  0  0  0  0  0
   -0.4465   -1.3900    0.4202 O   0  0  0  0  0  0  0  0  0  0  0  0
    0.0027    0.0003   -1.7756 O   0  0  0  0  0  0  0  0  0  0  0  0
   -2.3345    1.1366    0.2503 C   0  0  0  0  0  0  0  0  0  0  0  0
    2.1550    1.4558    0.2505 C   0  0  0  0  0  0  0  0  0  0  0  0
    0.1858   -2.5916    0.2502 C   0  0  0  0  0  0  0  0  0  0  0  0
   -4.4644    2.1726    0.7272 C   0  0  0  0  0  0  0  0  0  0  0  0
    4.1135    2.7757    0.7286 C   0  0  0  0  0  0  0  0  0  0  0  0
    0.3490   -4.9478    0.7281 C   0  0  0  0  0  0  0  0  0  0  0  0
   -4.3542    0.2600   -0.7448 C   0  0  0  0  0  0  0  0  0  0  0  0
    2.4037    3.6356   -0.7460 C   0  0  0  0  0  0  0  0  0  0  0  0
    1.9493   -3.8973   -0.7458 C   0  0  0  0  0  0  0  0  0  0  0  0
   -2.9711    0.2067   -0.5720 C   0  0  0  0  0  0  0  0  0  0  0  0
    1.6654    2.4650   -0.5725 C   0  0  0  0  0  0  0  0  0  0  0  0
    1.3050   -2.6724   -0.5723 C   0  0  0  0  0  0  0  0  0  0  0  0
   -3.0813    2.1195    0.8999 C   0  0  0  0  0  0  0  0  0  0  0  0
    3.3752    1.6050    0.9020 C   0  0  0  0  0  0  0  0  0  0  0  0
   -0.2955   -3.7229    0.9014 C   0  0  0  0  0  0  0  0  0  0  0  0
   -5.1008    1.2428   -0.0952 C   0  0  0  0  0  0  0  0  0  0  0  0
    3.6276    3.7910   -0.0955 C   0  0  0  0  0  0  0  0  0  0  0  0
    1.4714   -5.0349   -0.0955 C   0  0  0  0  0  0  0  0  0  0  0  0
   -5.2626    3.2240    1.4211 C   0  0  0  0  0  0  0  0  0  0  0  0
    5.4225    2.9416    1.4236 C   0  0  0  0  0  0  0  0  0  0  0  0
   -0.1624   -6.1643    1.4228 C   0  0  0  0  0  0  0  0  0  0  0  0
   -5.0346   -0.7341   -1.6240 C   0  0  0  0  0  0  0  0  0  0  0  0
    1.8843    4.7209   -1.6271 C   0  0  0  0  0  0  0  0  0  0  0  0
    3.1493   -3.9903   -1.6265 C   0  0  0  0  0  0  0  0  0  0  0  0
  1  2  1  0
  1  3  1  0
  1  4  1  0
  1  5  2  0
  2  6  1  0
  3  7  1  0
  4  8  1  0
  6 15  2  0
  6 18  1  0
  7 16  2  0
  7 19  1  0
  8 17  2  0
  8 20  1  0
  9 18  2  0
  9 21  1  0
  9 24  1  0
 10 19  2  0
 10 22  1  0
 10 25  1  0
 11 20  2  0
 11 23  1  0
 11 26  1  0
 12 15  1  0
 12 21  2  0
 12 27  1  0
 13 16  1  0
 13 22  2  0
 13 28  1  0
 14 17  1  0
 14 23  2  0
 14 29  1  0
M  END
>  <PUBCHEM_COMPOUND_CID>  (1) 
33133

>  <PUBCHEM_CONFORMER_RMSD>  (1) 
0.8

>  <PUBCHEM_CONFORMER_DIVERSEORDER>  (1) 
1
10
50
48
14
2
18
47
45
38
34
51
32
28
24
29
11
33
27
15
35
31
9
7
44
37
43
6
23
39
49
30
8
3
13
46
26
17
16
12
40
42
19
36
41
4
25
22
5
21
20

>  <PUBCHEM_MMFF94_PARTIAL_CHARGES>  (1) 
38
1 1.51
10 -0.14
11 -0.14
12 -0.14
13 -0.14
14 -0.14
15 -0.15
16 -0.15
17 -0.15
18 -0.15
19 -0.15
2 -0.35
20 -0.15
21 -0.15
22 -0.15
23 -0.15
24 0.14
25 0.14
26 0.14
27 0.14
28 0.14
29 0.14
3 -0.35
30 0.15
31 0.15
32 0.15
33 0.15
34 0.15
35 0.15
36 0.15
37 0.15
38 0.15
4 -0.35
5 -0.7
6 0.08
7 0.08
8 0.08
9 -0.14

>  <PUBCHEM_EFFECTIVE_ROTOR_COUNT>  (1) 
6

>  <PUBCHEM_PHARMACOPHORE_FEATURES>  (1) 
4
1 5 acceptor
6 6 9 12 15 18 21 rings
6 7 10 13 16 19 22 rings
6 8 11 14 17 20 23 rings

>  <PUBCHEM_HEAVY_ATOM_COUNT>  (1) 
29

>  <PUBCHEM_ATOM_DEF_STEREO_COUNT>  (1) 
0

>  <PUBCHEM_ATOM_UDEF_STEREO_COUNT>  (1) 
0

>  <PUBCHEM_BOND_DEF_STEREO_COUNT>  (1) 
0

>  <PUBCHEM_BOND_UDEF_STEREO_COUNT>  (1) 
0

>  <PUBCHEM_ISOTOPIC_ATOM_COUNT>  (1) 
0

>  <PUBCHEM_COMPONENT_COUNT>  (1) 
1

>  <PUBCHEM_CACTVS_TAUTO_COUNT>  (1) 
1

>  <PUBCHEM_CONFORMER_ID>  (1) 
0000816D00000001

>  <PUBCHEM_MMFF94_ENERGY>  (1) 
76.8319

>  <PUBCHEM_FEATURE_SELFOVERLAP>  (1) 
20.298

>  <PUBCHEM_SHAPE_FINGERPRINT>  (1) 
12160290 23 17464558759343543455
12553582 1 17690274911882600255
12788726 201 17690837186961270630
13004483 165 17257089264736006795
13540713 5 17916859111839994573
138480 1 18050567343909634161
13955234 65 18267032656773723153
14251757 5 17544751687244682263
14725015 67 18122622744406931050
15439362 3 18340491066905986184
15705408 1 18338797797376059237
17980427 26 18342167822037728732
19319366 153 18341608257335973301
20028762 73 18342443859881065868
20600515 1 16981249314960985965
20739085 24 18334853875412458464
21033650 10 17629789956362436008
21049683 271 17975720297530869924
23366157 5 18338518513249471093
23558518 356 18268993253130009470
23559900 14 18195523680594326425
23598288 3 17688864663580873900
352729 6 18194402431398314024
4017518 198 18200874084985477070
4409770 3 17760080018700903599
474 4 18409731764062528585
6058803 2 18058158437683512385
6371380 46 18343023303247869016
6691757 9 18126839624390690360
79837 15 18266740379431769856
9981440 41 18337952402279345801

>  <PUBCHEM_SHAPE_MULTIPOLES>  (1) 
577.18
9.5
9.49
1.45
8.67
13.06
-0.24
-13.08
1.21
-8.63
1.2
0
0
0

>  <PUBCHEM_SHAPE_SELFOVERLAP>  (1) 
1218.732

>  <PUBCHEM_SHAPE_VOLUME>  (1) 
327.4

>  <PUBCHEM_COORDINATE_TYPE>  (1) 
2
5
10

$$$$
