33144
     RDKit          3D

 25 27  0  0  0  0  0  0  0  0999 V2000
   -1.2548   -0.6195    0.0548 N   0  0  0  0  0  0  0  0  0  0  0  0
    0.1397    1.2574    0.0566 N   0  0  0  0  0  0  0  0  0  0  0  0
    1.0573   -0.9551    0.0657 N   0  0  0  0  0  0  0  0  0  0  0  0
   -1.6035   -2.0217    0.0582 C   0  0  0  0  0  0  0  0  0  0  0  0
   -0.9477    2.2099    0.0511 C   0  0  0  0  0  0  0  0  0  0  0  0
    0.0452   -0.1312    0.0591 C   0  0  0  0  0  0  0  0  0  0  0  0
   -3.0966   -2.1939    0.0152 C   0  0  0  0  0  0  0  0  0  0  0  0
   -0.4167    3.6160    0.0134 C   0  0  0  0  0  0  0  0  0  0  0  0
    2.4005   -0.3933    0.0702 C   0  0  0  0  0  0  0  0  0  0  0  0
    3.4548   -1.4635    0.0212 C   0  0  0  0  0  0  0  0  0  0  0  0
   -3.8133   -2.2598    1.2030 C   0  0  0  0  0  0  0  0  0  0  0  0
   -0.1573    4.2829    1.2038 C   0  0  0  0  0  0  0  0  0  0  0  0
   -3.7411   -2.2843   -1.2118 C   0  0  0  0  0  0  0  0  0  0  0  0
   -0.1912    4.2310   -1.2114 C   0  0  0  0  0  0  0  0  0  0  0  0
    3.9489   -1.9942    1.2061 C   0  0  0  0  0  0  0  0  0  0  0  0
    3.9226   -1.9100   -1.2083 C   0  0  0  0  0  0  0  0  0  0  0  0
   -5.1985   -2.4193    1.1632 C   0  0  0  0  0  0  0  0  0  0  0  0
    0.3355    5.5873    1.1690 C   0  0  0  0  0  0  0  0  0  0  0  0
   -5.1263   -2.4436   -1.2514 C   0  0  0  0  0  0  0  0  0  0  0  0
    0.3017    5.5355   -1.2461 C   0  0  0  0  0  0  0  0  0  0  0  0
   -5.8549   -2.5111   -0.0638 C   0  0  0  0  0  0  0  0  0  0  0  0
    0.5650    6.2135   -0.0559 C   0  0  0  0  0  0  0  0  0  0  0  0
    4.9272   -2.9875    1.1608 C   0  0  0  0  0  0  0  0  0  0  0  0
    4.9007   -2.9033   -1.2536 C   0  0  0  0  0  0  0  0  0  0  0  0
    5.4030   -3.4421   -0.0690 C   0  0  0  0  0  0  0  0  0  0  0  0
  1  4  1  0
  1  6  1  0
  2  5  1  0
  2  6  1  0
  3  6  2  3
  3  9  1  0
  4  7  1  0
  5  8  1  0
  7 11  2  0
  7 13  1  0
  8 12  2  0
  8 14  1  0
  9 10  1  0
 10 15  2  0
 10 16  1  0
 11 17  1  0
 12 18  1  0
 13 19  2  0
 14 20  2  0
 15 23  1  0
 16 24  2  0
 17 21  2  0
 18 22  2  0
 19 21  1  0
 20 22  1  0
 23 25  2  0
 24 25  1  0
M  END
>  <PUBCHEM_COMPOUND_CID>  (1) 
33144

>  <PUBCHEM_CONFORMER_RMSD>  (1) 
0.8

>  <PUBCHEM_CONFORMER_DIVERSEORDER>  (1) 
1
318
217
273
278
366
291
148
356
383
143
369
386
324
113
289
357
349
42
247
100
257
158
374
267
110
301
61
54
321
393
144
226
382
394
145
209
169
77
201
130
188
320
355
205
391
44
177
5
378
242
340
323
305
87
269
116
333
259
208
281
368
233
276
387
49
348
128
178
138
358
250
17
310
13
313
75
353
202
119
207
304
133
34
345
319
254
375
351
239
361
238
84
364
236
55
274
203
25
134
153
371
105
180
190
155
82
295
248
195
150
187
206
126
26
139
367
338
218
283
122
240
56
216
22
45
74
279
389
4
166
302
298
92
359
7
30
263
246
300
228
168
379
303
311
372
306
309
8
129
117
390
262
388
317
222
156
328
65
294
137
12
235
127
354
50
376
231
164
103
136
234
232
341
331
171
80
265
182
198
19
149
245
260
293
72
67
184
258
272
225
380
280
362
377
185
10
165
299
123
314
192
292
83
48
344
213
204
266
142
193
316
29
69
223
352
71
297
43
253
252
101
23
9
161
244
392
270
251
14
381
183
152
275
46
181
51
255
335
334
146
79
114
18
312
237
60
163
227
264
176
199
350
288
66
59
112
107
215
78
189
229
73
290
28
118
88
102
154
98
224
63
141
384
296
286
336
24
6
108
370
322
125
160
33
47
162
93
194
37
347
343
86
385
287
36
277
308
332
174
132
38
94
221
285
131
32
191
365
124
35
271
186
261
249
241
196
157
170
282
85
329
109
53
31
97
15
346
337
211
52
90
111
179
360
68
70
284
89
147
243
40
11
151
135
39
41
339
363
91
106
159
325
342
64
172
2
220
330
140
81
99
212
326
16
27
62
167
175
115
76
57
214
327
3
173
197
21
268
121
20
96
200
210
315
104
307
230
219
120
373
256
95
58

>  <PUBCHEM_MMFF94_PARTIAL_CHARGES>  (1) 
42
1 -0.82
10 -0.14
11 -0.15
12 -0.15
13 -0.15
14 -0.15
15 -0.15
16 -0.15
17 -0.15
18 -0.15
19 -0.15
2 -0.82
20 -0.15
21 -0.15
22 -0.15
23 -0.15
24 -0.15
25 -0.15
3 -0.7
30 0.4
31 0.4
34 0.15
35 0.15
36 0.15
37 0.15
38 0.15
39 0.15
4 0.51
40 0.15
41 0.15
42 0.15
43 0.15
44 0.15
45 0.15
46 0.15
47 0.15
48 0.15
5 0.51
6 0.55
7 -0.14
8 -0.14
9 0.39

>  <PUBCHEM_EFFECTIVE_ROTOR_COUNT>  (1) 
8

>  <PUBCHEM_PHARMACOPHORE_FEATURES>  (1) 
6
1 1 donor
1 2 donor
4 1 2 3 6 cation
6 10 15 16 23 24 25 rings
6 7 11 13 17 19 21 rings
6 8 12 14 18 20 22 rings

>  <PUBCHEM_HEAVY_ATOM_COUNT>  (1) 
25

>  <PUBCHEM_ATOM_DEF_STEREO_COUNT>  (1) 
0

>  <PUBCHEM_ATOM_UDEF_STEREO_COUNT>  (1) 
0

>  <PUBCHEM_BOND_DEF_STEREO_COUNT>  (1) 
0

>  <PUBCHEM_BOND_UDEF_STEREO_COUNT>  (1) 
0

>  <PUBCHEM_ISOTOPIC_ATOM_COUNT>  (1) 
0

>  <PUBCHEM_COMPONENT_COUNT>  (1) 
1

>  <PUBCHEM_CACTVS_TAUTO_COUNT>  (1) 
1

>  <PUBCHEM_CONFORMER_ID>  (1) 
0000817800000001

>  <PUBCHEM_MMFF94_ENERGY>  (1) 
67.9749

>  <PUBCHEM_FEATURE_SELFOVERLAP>  (1) 
30.49

>  <PUBCHEM_SHAPE_FINGERPRINT>  (1) 
10319688 45 18266743484967782249
10319688 77 18409730647069845081
10721379 63 18053117390932598781
11763715 3 18264511540988171814
11991303 11 17688322187457335406
12788726 201 18046894984085173723
13690498 29 18199198304416049350
13757389 114 17688895050711929116
13955234 65 17977673326877421963
15042514 8 18266463109586887427
15081414 286 18338797947726611995
15664445 248 18196382639635772220
15878777 1 14593433934124690938
17539 30 18267018349773338654
1813 80 18343309188243584151
20238998 120 18411976983490177864
21120745 212 18265350438321865028
21304303 282 17617633485200524167
23929065 36 18050823565032942050
24771750 20 17541106793086635724
249057 25 17773889765457643435
249999 5 17905612451663879803
283562 15 17690553096898830285
3103668 31 18191019003083431709
38695281 34 17328860405693062928
4046055 4 18338799996436243572
4409770 3 18047468925018147613
504843 32 17615128780717294492
5385378 56 17834122223116723561
6058803 2 17914059961251974495
6679774 75 17540800025770654072
6697151 62 18265314244923124775
6700243 42 17699041447081952582
77188 2 18410856585425502172
79837 15 17762056540769062738
9981440 41 17255966667374626888

>  <PUBCHEM_SHAPE_MULTIPOLES>  (1) 
499.55
11.24
10.22
1.33
1.99
24.63
0.05
-25.79
0.22
-2.27
0.17
-0.01
0.02
-0.01

>  <PUBCHEM_SHAPE_SELFOVERLAP>  (1) 
1061.3

>  <PUBCHEM_SHAPE_VOLUME>  (1) 
275.2

>  <PUBCHEM_COORDINATE_TYPE>  (1) 
2
5
10

$$$$
