33155
     RDKit          3D

 13 12  0  0  0  0  0  0  0  0999 V2000
    0.0542    0.0630   -0.2489 N   0  0  0  0  0  0  0  0  0  0  0  0
   -3.6052    3.2052    0.2599 N   0  0  0  0  0  0  0  0  0  0  0  0
    0.1662   -1.2848    0.2958 C   0  0  0  0  0  0  0  0  0  0  0  0
    1.1700    0.8961    0.2032 C   0  0  0  0  0  0  0  0  0  0  0  0
   -0.9666   -2.1652   -0.2292 C   0  0  0  0  0  0  0  0  0  0  0  0
    2.5013    0.2634   -0.1980 C   0  0  0  0  0  0  0  0  0  0  0  0
   -1.2211    0.6703    0.1362 C   0  0  0  0  0  0  0  0  0  0  0  0
   -0.8557   -3.5905    0.3134 C   0  0  0  0  0  0  0  0  0  0  0  0
    3.6808    1.1291    0.2463 C   0  0  0  0  0  0  0  0  0  0  0  0
   -1.3322    2.0808   -0.4370 C   0  0  0  0  0  0  0  0  0  0  0  0
   -1.9997   -4.4640   -0.1763 C   0  0  0  0  0  0  0  0  0  0  0  0
    5.0108    0.4888   -0.1182 C   0  0  0  0  0  0  0  0  0  0  0  0
   -2.6028    2.7080   -0.0471 C   0  0  0  0  0  0  0  0  0  0  0  0
  1  3  1  0
  1  4  1  0
  1  7  1  0
  2 13  3  0
  3  5  1  0
  4  6  1  0
  5  8  1  0
  6  9  1  0
  7 10  1  0
  8 11  1  0
  9 12  1  0
 10 13  1  0
M  END
>  <PUBCHEM_COMPOUND_CID>  (1) 
33155

>  <PUBCHEM_CONFORMER_RMSD>  (1) 
0.8

>  <PUBCHEM_CONFORMER_DIVERSEORDER>  (1) 
1
6
42
24
50
40
59
10
22
30
11
44
37
5
53
41
20
19
38
55
29
57
54
51
45
26
14
35
49
36
32
28
39
56
48
21
52
16
58
46
27
43
4
9
18
47
15
34
17
23
31
12
33
25
7
13
2
3
8

>  <PUBCHEM_MMFF94_PARTIAL_CHARGES>  (1) 
7
1 -0.81
10 0.2
13 0.36
2 -0.56
3 0.27
4 0.27
7 0.27

>  <PUBCHEM_EFFECTIVE_ROTOR_COUNT>  (1) 
8

>  <PUBCHEM_PHARMACOPHORE_FEATURES>  (1) 
4
1 1 cation
1 11 hydrophobe
1 12 hydrophobe
1 2 acceptor

>  <PUBCHEM_HEAVY_ATOM_COUNT>  (1) 
13

>  <PUBCHEM_ATOM_DEF_STEREO_COUNT>  (1) 
0

>  <PUBCHEM_ATOM_UDEF_STEREO_COUNT>  (1) 
0

>  <PUBCHEM_BOND_DEF_STEREO_COUNT>  (1) 
0

>  <PUBCHEM_BOND_UDEF_STEREO_COUNT>  (1) 
0

>  <PUBCHEM_ISOTOPIC_ATOM_COUNT>  (1) 
0

>  <PUBCHEM_COMPONENT_COUNT>  (1) 
1

>  <PUBCHEM_CACTVS_TAUTO_COUNT>  (1) 
1

>  <PUBCHEM_CONFORMER_ID>  (1) 
0000818300000001

>  <PUBCHEM_MMFF94_ENERGY>  (1) 
9.5616

>  <PUBCHEM_FEATURE_SELFOVERLAP>  (1) 
20.297

>  <PUBCHEM_SHAPE_FINGERPRINT>  (1) 
1 1 17977383837169762572
11357001 24 18336829822113249130
12500047 106 18411416194659465992
12532896 13 18340768135214024724
136203 1 18338516472723176849
13955234 65 17762624984571666713
14178000 15 17475516556729875547
15042514 8 18265339584702345259
17539 30 18268986664576220278
19021347 4 18410572846985130709
20524608 308 18411420631080809070
20645477 70 17613432243515008309
20671657 1 17764030160215419925
20671657 53 17619636116771579146
20711985 344 18266444589535010818
20871998 22 17690839386237772586
21426921 1 18338518672474581836
21499 59 18265044730823568285
21524375 3 18187365376787626232
23402539 116 18199747115062578375
23530152 11 18266178340032533567
23558518 356 18189334744353166168
3091708 16 9342147325964173211
458136 41 18051420569534217529
474229 33 18408608041814504657
54173680 148 18266176325692858732
6025842 7 17905881484252475669
68521 5 18194403522583939782
7364860 26 17689997834498304229
77188 2 17689998259604965223
81228 2 18190735534460835704
81539 233 18046626702921117357

>  <PUBCHEM_SHAPE_MULTIPOLES>  (1) 
257.57
6.4
5.45
0.66
10.25
0.84
0
-2.05
-0.05
-9.99
0.09
0
-0.02
-0.12

>  <PUBCHEM_SHAPE_SELFOVERLAP>  (1) 
468.124

>  <PUBCHEM_SHAPE_VOLUME>  (1) 
164.1

>  <PUBCHEM_COORDINATE_TYPE>  (1) 
2
5
10

$$$$
