33153
     RDKit          3D

 26 27  0  0  1  0  0  0  0  0999 V2000
   -1.6871   -1.5238   -0.6290 O   0  0  0  0  0  0  0  0  0  0  0  0
   -0.1856    2.4336    0.2759 O   0  0  0  0  0  0  0  0  0  0  0  0
   -0.1290   -1.1366   -2.2787 O   0  0  0  0  0  0  0  0  0  0  0  0
    0.9670    2.2160    2.2567 O   0  0  0  0  0  0  0  0  0  0  0  0
   -3.8537   -0.4229   -0.6440 C   0  0  0  0  0  0  0  0  0  0  0  0
   -3.3710    0.8377    0.1064 C   0  0  0  0  0  0  0  0  0  0  0  0
   -2.8457    1.9475   -0.8113 C   0  0  0  0  0  0  0  0  0  0  0  0
   -4.4358   -1.4732    0.3330 C   0  0  0  0  0  0  0  0  0  0  0  0
   -2.7265   -1.0539   -1.4798 C   0  0  0  0  0  0  0  0  0  0  0  0
   -2.4561    3.1896   -0.0100 C   0  0  0  0  0  0  0  0  0  0  0  0
   -5.6128   -0.9700    1.1581 C   0  0  0  0  0  0  0  0  0  0  0  0
   -1.3341    2.8926    0.9762 C   0  0  0  0  0  0  0  0  0  0  0  0
   -0.4325   -1.5109   -1.1566 C   0  0  0  0  0  0  0  0  0  0  0  0
    0.5555   -2.0240   -0.1742 C   0  0  0  0  0  0  0  0  0  0  0  0
    0.8995    2.1292    1.0404 C   0  0  0  0  0  0  0  0  0  0  0  0
    2.0273    1.6656    0.1933 C   0  0  0  0  0  0  0  0  0  0  0  0
    1.6840   -2.6686   -0.6377 C   0  0  0  0  0  0  0  0  0  0  0  0
    0.3142   -1.8406    1.1718 C   0  0  0  0  0  0  0  0  0  0  0  0
    2.6120   -3.1509    0.2854 C   0  0  0  0  0  0  0  0  0  0  0  0
    1.2422   -2.3227    2.0949 C   0  0  0  0  0  0  0  0  0  0  0  0
    3.2156    1.3128    0.7993 C   0  0  0  0  0  0  0  0  0  0  0  0
    1.8520    1.6023   -1.1738 C   0  0  0  0  0  0  0  0  0  0  0  0
    2.3910   -2.9780    1.6516 C   0  0  0  0  0  0  0  0  0  0  0  0
    4.2752    0.8775    0.0033 C   0  0  0  0  0  0  0  0  0  0  0  0
    2.9114    1.1670   -1.9699 C   0  0  0  0  0  0  0  0  0  0  0  0
    4.1230    0.8046   -1.3813 C   0  0  0  0  0  0  0  0  0  0  0  0
  1  9  1  0
  1 13  1  0
  2 12  1  0
  2 15  1  0
  3 13  2  0
  4 15  2  0
  5  6  1  0
  5  8  1  0
  5  9  1  0
  6  7  1  0
  7 10  1  0
  8 11  1  0
 10 12  1  0
 13 14  1  0
 14 17  2  0
 14 18  1  0
 15 16  1  0
 16 21  2  0
 16 22  1  0
 17 19  1  0
 18 20  2  0
 19 23  2  0
 20 23  1  0
 21 24  1  0
 22 25  2  0
 24 26  2  0
 25 26  1  0
M  END
>  <PUBCHEM_COMPOUND_CID>  (1) 
33153

>  <PUBCHEM_CONFORMER_RMSD>  (1) 
1

>  <PUBCHEM_CONFORMER_DIVERSEORDER>  (1) 
1
248
93
17
217
374
87
350
404
97
233
71
408
298
354
7
194
121
18
316
54
216
160
59
232
409
188
185
36
107
88
321
22
161
159
294
106
360
210
128
417
269
373
112
187
42
278
341
28
92
33
35
101
314
254
172
130
46
334
389
299
180
276
207
290
6
62
122
329
89
134
381
345
136
135
418
327
397
63
220
227
5
102
333
47
78
319
25
410
237
238
306
132
261
148
234
80
24
398
83
283
84
219
246
16
126
171
293
407
131
315
250
174
109
49
349
100
186
223
2
117
392
94
179
328
197
203
119
50
311
366
40
114
60
158
260
137
199
368
257
72
282
239
129
166
226
21
289
19
235
213
118
151
140
90
201
309
64
356
211
396
295
230
346
58
414
264
182
105
265
95
10
26
364
243
38
108
421
177
57
268
52
236
113
338
139
34
9
164
209
48
79
51
222
56
318
363
67
116
212
189
205
285
359
301
390
144
27
367
413
292
184
68
419
348
399
270
44
393
401
154
73
307
386
176
85
200
416
120
214
275
125
271
263
110
65
55
281
225
111
29
335
43
147
296
163
123
357
20
3
215
127
86
204
380
280
198
303
300
66
339
146
375
98
415
382
169
99
124
249
37
103
262
150
340
308
45
337
14
81
157
291
272
402
352
76
138
4
175
192
406
224
190
115
376
388
286
371
385
326
344
41
245
302
277
74
274
70
343
229
152
183
196
96
351
267
378
162
256
30
312
361
31
355
320
405
259
322
11
195
23
324
228
153
39
82
412
13
53
347
255
231
142
332
149
353
420
173
208
193
317
287
141
400
252
247
266
242
323
69
178
75
181
313
133
273
167
241
372
15
377
240
206
155
383
288
362
221
394
369
218
143
251
8
305
387
91
165
279
104
145
325
61
12
384
168
191
32
253
304
411
258
244
358
284
391
170
330
331
297
370
379
202
310
336
403
342
395
365
156
77

>  <PUBCHEM_MMFF94_PARTIAL_CHARGES>  (1) 
30
1 -0.43
12 0.28
13 0.63
14 0.09
15 0.63
16 0.09
17 -0.15
18 -0.15
19 -0.15
2 -0.43
20 -0.15
21 -0.15
22 -0.15
23 -0.15
24 -0.15
25 -0.15
26 -0.15
3 -0.57
4 -0.57
43 0.15
44 0.15
45 0.15
46 0.15
47 0.15
48 0.15
49 0.15
50 0.15
51 0.15
52 0.15
9 0.28

>  <PUBCHEM_EFFECTIVE_ROTOR_COUNT>  (1) 
12

>  <PUBCHEM_PHARMACOPHORE_FEATURES>  (1) 
6
1 11 hydrophobe
1 3 acceptor
1 4 acceptor
5 5 6 7 8 10 hydrophobe
6 14 17 18 19 20 23 rings
6 16 21 22 24 25 26 rings

>  <PUBCHEM_HEAVY_ATOM_COUNT>  (1) 
26

>  <PUBCHEM_ATOM_DEF_STEREO_COUNT>  (1) 
0

>  <PUBCHEM_ATOM_UDEF_STEREO_COUNT>  (1) 
1

>  <PUBCHEM_BOND_DEF_STEREO_COUNT>  (1) 
0

>  <PUBCHEM_BOND_UDEF_STEREO_COUNT>  (1) 
0

>  <PUBCHEM_ISOTOPIC_ATOM_COUNT>  (1) 
0

>  <PUBCHEM_COMPONENT_COUNT>  (1) 
1

>  <PUBCHEM_CACTVS_TAUTO_COUNT>  (1) 
1

>  <PUBCHEM_CONFORMER_ID>  (1) 
0000818100000001

>  <PUBCHEM_MMFF94_ENERGY>  (1) 
58.8312

>  <PUBCHEM_FEATURE_SELFOVERLAP>  (1) 
30.447

>  <PUBCHEM_SHAPE_FINGERPRINT>  (1) 
10906281 52 17839748402425666584
1100329 8 17907298745591074633
11112662 9 16371851935732919522
11513181 2 17485628382844830494
11578080 2 17459458962621400335
12156800 1 16341750378677421386
12422481 6 17903319695263411834
12788726 201 18268163113725717084
13140716 1 17980197805664342689
14251757 17 17775017764637655588
14787075 74 18042973262464226247
15297060 5 17341810024274730442
17909252 39 17915482526938813406
18336668 15 18119795920926871914
20600515 1 17617940231933875694
20905425 154 18341615871569314037
2818148 4 18127992835740801555
35225 105 17318162088713863659
392239 28 18115885138440149315
463206 1 18121783824817673336
469060 322 18262255407621543777
513532 50 17058903693962425221
57091435 65 18342446032881440010
59755656 215 18410860966487453183
81228 2 16674420132663717886

>  <PUBCHEM_SHAPE_MULTIPOLES>  (1) 
511.59
7.98
4.36
1.91
6.8
0.31
0.02
0.31
-0.18
-1.22
1.43
-0.77
0.22
-0.87

>  <PUBCHEM_SHAPE_SELFOVERLAP>  (1) 
1060.553

>  <PUBCHEM_SHAPE_VOLUME>  (1) 
290.6

>  <PUBCHEM_COORDINATE_TYPE>  (1) 
2
5
10

$$$$
