33175
     RDKit          3D

 23 24  0  0  1  0  0  0  0  0999 V2000
   -0.4912    1.2585    0.8118 O   0  0  0  0  0  0  0  0  0  0  0  0
   -2.2552   -2.6145    0.8892 O   0  0  0  0  0  0  0  0  0  0  0  0
    0.3211   -0.2628    2.2833 O   0  0  0  0  0  0  0  0  0  0  0  0
    1.9553   -0.7831   -0.1299 N   0  0  0  0  0  0  0  0  0  0  0  0
   -2.1643   -1.4611   -1.1271 N   0  0  0  0  0  0  0  0  0  0  0  0
    0.4916   -0.7136   -0.1112 C   0  0  0  0  0  0  0  0  0  0  0  0
   -0.1007   -2.1239   -0.0510 C   0  0  0  0  0  0  0  0  0  0  0  0
    2.5306    0.5509   -0.1772 C   0  0  0  0  0  0  0  0  0  0  0  0
   -1.6176   -2.1002   -0.0270 C   0  0  0  0  0  0  0  0  0  0  0  0
    4.0314    0.5150   -0.1997 C   0  0  0  0  0  0  0  0  0  0  0  0
    0.1089    0.0804    1.1271 C   0  0  0  0  0  0  0  0  0  0  0  0
   -3.5885   -1.3248   -1.3242 C   0  0  0  0  0  0  0  0  0  0  0  0
   -4.1227   -0.0637   -0.7090 C   0  0  0  0  0  0  0  0  0  0  0  0
    4.7375    0.5327    0.9976 C   0  0  0  0  0  0  0  0  0  0  0  0
    4.7000    0.4639   -1.4172 C   0  0  0  0  0  0  0  0  0  0  0  0
   -4.5667   -0.0760    0.6082 C   0  0  0  0  0  0  0  0  0  0  0  0
   -4.1678    1.1035   -1.4624 C   0  0  0  0  0  0  0  0  0  0  0  0
    6.1319    0.4992    0.9769 C   0  0  0  0  0  0  0  0  0  0  0  0
    6.0943    0.4302   -1.4378 C   0  0  0  0  0  0  0  0  0  0  0  0
    6.8102    0.4478   -0.2407 C   0  0  0  0  0  0  0  0  0  0  0  0
   -5.0629    1.0956    1.1800 C   0  0  0  0  0  0  0  0  0  0  0  0
   -4.6639    2.2750   -0.8903 C   0  0  0  0  0  0  0  0  0  0  0  0
   -5.1113    2.2710    0.4308 C   0  0  0  0  0  0  0  0  0  0  0  0
  1 11  1  0
  2  9  2  0
  3 11  2  0
  4  6  1  0
  4  8  1  0
  5  9  1  0
  5 12  1  0
  6  7  1  0
  6 11  1  0
  7  9  1  0
  8 10  1  0
 10 14  2  0
 10 15  1  0
 12 13  1  0
 13 16  2  0
 13 17  1  0
 14 18  1  0
 15 19  2  0
 16 21  1  0
 17 22  2  0
 18 20  2  0
 19 20  1  0
 21 23  2  0
 22 23  1  0
M  END
>  <PUBCHEM_COMPOUND_CID>  (1) 
33175

>  <PUBCHEM_CONFORMER_RMSD>  (1) 
1

>  <PUBCHEM_CONFORMER_DIVERSEORDER>  (1) 
1
97
76
2
112
61
95
103
107
34
93
57
35
102
27
105
18
22
66
73
135
45
85
26
60
19
46
25
38
131
101
53
20
65
79
111
48
78
14
109
70
67
86
5
106
129
100
39
75
43
32
134
74
33
11
96
49
50
23
119
82
69
3
124
63
55
9
132
104
31
21
71
68
54
125
37
84
40
90
15
44
88
16
127
99
113
92
110
36
4
51
122
62
128
80
56
87
120
8
108
24
98
7
89
30
59
28
10
126
83
29
130
17
133
64
41
123
13
115
72
91
121
116
47
114
81
52
118
12
94
42
58
77
6
117

>  <PUBCHEM_MMFF94_PARTIAL_CHARGES>  (1) 
36
1 -0.65
10 -0.14
11 0.66
12 0.44
13 -0.14
14 -0.15
15 -0.15
16 -0.15
17 -0.15
18 -0.15
19 -0.15
2 -0.57
20 -0.15
21 -0.15
22 -0.15
23 -0.15
27 0.36
3 -0.57
32 0.37
33 0.15
34 0.15
35 0.15
36 0.15
37 0.15
38 0.15
39 0.15
4 -0.9
40 0.5
41 0.15
42 0.15
43 0.15
5 -0.73
6 0.33
7 0.06
8 0.41
9 0.57

>  <PUBCHEM_EFFECTIVE_ROTOR_COUNT>  (1) 
9

>  <PUBCHEM_PHARMACOPHORE_FEATURES>  (1) 
9
1 1 acceptor
1 2 acceptor
1 3 acceptor
1 4 cation
1 4 donor
1 5 donor
3 1 3 11 anion
6 10 14 15 18 19 20 rings
6 13 16 17 21 22 23 rings

>  <PUBCHEM_HEAVY_ATOM_COUNT>  (1) 
23

>  <PUBCHEM_ATOM_DEF_STEREO_COUNT>  (1) 
0

>  <PUBCHEM_ATOM_UDEF_STEREO_COUNT>  (1) 
1

>  <PUBCHEM_BOND_DEF_STEREO_COUNT>  (1) 
0

>  <PUBCHEM_BOND_UDEF_STEREO_COUNT>  (1) 
0

>  <PUBCHEM_ISOTOPIC_ATOM_COUNT>  (1) 
0

>  <PUBCHEM_COMPONENT_COUNT>  (1) 
1

>  <PUBCHEM_CACTVS_TAUTO_COUNT>  (1) 
2

>  <PUBCHEM_CONFORMER_ID>  (1) 
0000819700000001

>  <PUBCHEM_MMFF94_ENERGY>  (1) 
48.0573

>  <PUBCHEM_FEATURE_SELFOVERLAP>  (1) 
45.73

>  <PUBCHEM_SHAPE_FINGERPRINT>  (1) 
10165383 225 18343026571659459073
10447042 23 15267348422952368444
105312 117 18412265034299085319
11475781 23 18060136518957169172
12293681 160 17775568606688087459
12422481 6 17604138221521252582
12596602 18 15140963958669162244
12788726 201 18130508513892333312
14251752 14 18410291389889896294
14713325 29 18189062052368668499
14856354 85 17604157016187694399
14931854 50 17774429483426473605
15183329 4 18261106392274053950
17844677 252 18264772249797817454
17857418 61 11384117440448638678
17913733 40 15791725291703976880
18222031 100 12967128307386612106
18608769 82 18201998872454000719
18769570 83 18411133636786624272
18927931 339 8862942801476221017
200 152 15841839962435668386
20281389 69 18333728031186709684
20621476 66 18412549807599747412
21279426 13 18202007590620420470
21315759 148 13407068172530596804
21623969 137 14418127410020032320
21756936 100 18335419076018017371
22393880 68 17203314646097009335
23198884 109 18408321116001945607
23402539 116 18273212006400133548
23559900 14 17632856456264098128
23569914 152 16695847999723871492
2838139 119 18259982673968290252
3009799 131 16988842778759635824
3459 83 17416978226580112102
392239 28 15140970538827844957
4015057 19 16486968552750938178
4098825 35 16200156478517766799
444769 64 18114457869252055154
5283173 99 17775847908659109952
59755656 215 18341336596386141798
59755656 520 16805608079390478722
6126387 218 18343298129863079898
6431902 208 10303812094450531461
7226269 152 18272370866893350808
7495541 125 10665229250756002006

>  <PUBCHEM_SHAPE_MULTIPOLES>  (1) 
445.76
16.44
2.16
1.53
16.78
0.64
-0.12
-8.81
2.35
-3.68
0.05
0
-0.13
-0.15

>  <PUBCHEM_SHAPE_SELFOVERLAP>  (1) 
932.939

>  <PUBCHEM_SHAPE_VOLUME>  (1) 
250.8

>  <PUBCHEM_COORDINATE_TYPE>  (1) 
2
5
10

$$$$
