33172
     RDKit          3D

 35 37  0  0  0  0  0  0  0  0999 V2000
   -0.1216    0.9297   -0.0875 O   0  0  0  0  0  0  0  0  0  0  0  0
   -4.1543   -1.6527    0.6292 O   0  0  0  0  0  0  0  0  0  0  0  0
   -5.6122    0.4107   -0.4030 O   0  0  0  0  0  0  0  0  0  0  0  0
   -4.3526    2.7138   -1.2695 O   0  0  0  0  0  0  0  0  0  0  0  0
   -1.7793   -2.5466    1.2417 O   0  0  0  0  0  0  0  0  0  0  0  0
    5.1980   -1.1400   -0.9635 O   0  0  0  0  0  0  0  0  0  0  0  0
    6.1707    1.0258    0.4806 O   0  0  0  0  0  0  0  0  0  0  0  0
   -3.9254   -2.5402   -1.5248 O   0  0  0  0  0  0  0  0  0  0  0  0
   -5.7800    1.3342    1.7415 O   0  0  0  0  0  0  0  0  0  0  0  0
    4.9078    0.2537   -2.8218 O   0  0  0  0  0  0  0  0  0  0  0  0
    6.3952   -0.3528    2.3590 O   0  0  0  0  0  0  0  0  0  0  0  0
   -2.1131   -0.4081    0.2931 C   0  0  0  0  0  0  0  0  0  0  0  0
   -1.4811    0.7544   -0.1450 C   0  0  0  0  0  0  0  0  0  0  0  0
    0.6543   -0.0926    0.4373 C   0  0  0  0  0  0  0  0  0  0  0  0
   -3.5019   -0.5316    0.2098 C   0  0  0  0  0  0  0  0  0  0  0  0
   -1.2921   -1.4983    0.8416 C   0  0  0  0  0  0  0  0  0  0  0  0
    2.1022    0.1977    0.4472 C   0  0  0  0  0  0  0  0  0  0  0  0
   -4.2551    0.5189   -0.3158 C   0  0  0  0  0  0  0  0  0  0  0  0
   -2.2366    1.8030   -0.6704 C   0  0  0  0  0  0  0  0  0  0  0  0
    0.1647   -1.2598    0.8848 C   0  0  0  0  0  0  0  0  0  0  0  0
   -3.6241    1.6836   -0.7551 C   0  0  0  0  0  0  0  0  0  0  0  0
    2.9813   -0.6140   -0.2698 C   0  0  0  0  0  0  0  0  0  0  0  0
    2.5907    1.2840    1.1731 C   0  0  0  0  0  0  0  0  0  0  0  0
    4.3489   -0.3396   -0.2609 C   0  0  0  0  0  0  0  0  0  0  0  0
    4.8375    0.7466    0.4651 C   0  0  0  0  0  0  0  0  0  0  0  0
    3.9584    1.5583    1.1822 C   0  0  0  0  0  0  0  0  0  0  0  0
   -4.3128   -2.6286   -0.3673 C   0  0  0  0  0  0  0  0  0  0  0  0
   -3.6315    3.8681   -1.6954 C   0  0  0  0  0  0  0  0  0  0  0  0
   -6.2957    0.8703    0.7330 C   0  0  0  0  0  0  0  0  0  0  0  0
   -5.0385   -3.8168    0.1908 C   0  0  0  0  0  0  0  0  0  0  0  0
   -7.7744    0.7095    0.5396 C   0  0  0  0  0  0  0  0  0  0  0  0
    5.4112   -0.7260   -2.2882 C   0  0  0  0  0  0  0  0  0  0  0  0
    6.8767    0.3919    1.5156 C   0  0  0  0  0  0  0  0  0  0  0  0
    6.3559   -1.6677   -2.9741 C   0  0  0  0  0  0  0  0  0  0  0  0
    8.3288    0.7612    1.4467 C   0  0  0  0  0  0  0  0  0  0  0  0
  1 13  1  0
  1 14  1  0
  2 15  1  0
  2 27  1  0
  3 18  1  0
  3 29  1  0
  4 21  1  0
  4 28  1  0
  5 16  2  0
  6 24  1  0
  6 32  1  0
  7 25  1  0
  7 33  1  0
  8 27  2  0
  9 29  2  0
 10 32  2  0
 11 33  2  0
 12 13  2  0
 12 15  1  0
 12 16  1  0
 13 19  1  0
 14 17  1  0
 14 20  2  0
 15 18  2  0
 16 20  1  0
 17 22  2  0
 17 23  1  0
 18 21  1  0
 19 21  2  0
 22 24  1  0
 23 26  2  0
 24 25  2  0
 25 26  1  0
 27 30  1  0
 29 31  1  0
 32 34  1  0
 33 35  1  0
M  END
>  <PUBCHEM_COMPOUND_CID>  (1) 
33172

>  <PUBCHEM_CONFORMER_RMSD>  (1) 
1

>  <PUBCHEM_CONFORMER_DIVERSEORDER>  (1) 
7
16
28
30
13
29
22
25
4
31
17
33
32
18
1
26
23
9
8
27
19
24
14
12
20
21
6
2
3
10
5
11
15

>  <PUBCHEM_MMFF94_PARTIAL_CHARGES>  (1) 
40
1 -0.16
10 -0.57
11 -0.57
12 0.09
13 0.08
14 0.05
15 0.08
16 0.47
17 0.03
18 0.08
19 -0.15
2 -0.23
20 -0.14
21 0.08
22 -0.15
23 -0.15
24 0.08
25 0.08
26 -0.15
27 0.66
28 0.28
29 0.66
3 -0.23
30 0.06
31 0.06
32 0.66
33 0.66
34 0.06
35 0.06
36 0.15
37 0.15
38 0.15
39 0.15
4 -0.36
40 0.15
5 -0.57
6 -0.23
7 -0.23
8 -0.57
9 -0.57

>  <PUBCHEM_EFFECTIVE_ROTOR_COUNT>  (1) 
10

>  <PUBCHEM_PHARMACOPHORE_FEATURES>  (1) 
10
1 1 acceptor
1 10 acceptor
1 11 acceptor
1 4 acceptor
1 5 acceptor
1 8 acceptor
1 9 acceptor
6 1 12 13 14 16 20 rings
6 12 13 15 18 19 21 rings
6 17 22 23 24 25 26 rings

>  <PUBCHEM_HEAVY_ATOM_COUNT>  (1) 
35

>  <PUBCHEM_ATOM_DEF_STEREO_COUNT>  (1) 
0

>  <PUBCHEM_ATOM_UDEF_STEREO_COUNT>  (1) 
0

>  <PUBCHEM_BOND_DEF_STEREO_COUNT>  (1) 
0

>  <PUBCHEM_BOND_UDEF_STEREO_COUNT>  (1) 
0

>  <PUBCHEM_ISOTOPIC_ATOM_COUNT>  (1) 
0

>  <PUBCHEM_COMPONENT_COUNT>  (1) 
1

>  <PUBCHEM_CACTVS_TAUTO_COUNT>  (1) 
1

>  <PUBCHEM_CONFORMER_ID>  (1) 
0000819400000007

>  <PUBCHEM_MMFF94_ENERGY>  (1) 
124.9131

>  <PUBCHEM_FEATURE_SELFOVERLAP>  (1) 
50.781

>  <PUBCHEM_SHAPE_FINGERPRINT>  (1) 
10 15 18113336418493708736
10165383 225 18342453726154395529
10411042 1 17972876136793337699
12236239 1 16225770700755065797
12390115 104 18265619771764133225
12616971 3 16515683364478947766
13533116 47 15841551839208260454
13782708 43 18201164363691186818
14840074 17 16081100272097140183
14856354 85 17603879918336280531
15021287 119 16081083737090345500
15131766 46 14564248201604887494
15183329 4 18334858307786442426
15361156 5 18336277837042386669
1577012 14 17313391157859003374
18608769 82 18335417997849032953
21033650 10 18115322093965512544
21236236 1 18338512049550758547
21927370 108 18042689589107858355
22122407 14 14562521852010128479
22393880 68 18341897372638069118
23081809 10 17530965817208576058
23198884 109 17632298952487444081
23559900 14 18201998858455834192
249057 25 17167577207407064942
25269216 80 18117014353682137462
3004659 81 12607393412667035792
32027 91 17773607014448371806
34797466 226 18341058466967694572
4073 2 18201440311134281546
4093350 32 16917068824483345782
5080951 261 18198318793538957703
6698420 124 17915471497805636737

>  <PUBCHEM_SHAPE_MULTIPOLES>  (1) 
655.72
21.22
3.05
2.02
16.48
0.69
1.22
-1.61
-1.88
-6.26
1.07
4.19
0.1
3.04

>  <PUBCHEM_SHAPE_SELFOVERLAP>  (1) 
1421.617

>  <PUBCHEM_SHAPE_VOLUME>  (1) 
351.4

>  <PUBCHEM_COORDINATE_TYPE>  (1) 
2
5
10

$$$$
