33187
     RDKit          3D

 13 12  0  0  1  0  0  0  0  0999 V2000
    5.0763    1.8556   -0.2716 S   0  0  0  0  0  0  0  0  0  0  0  0
    1.5392    0.0799   -0.1493 O   0  0  0  0  0  0  0  0  0  0  0  0
    3.3679   -0.0473    1.2468 O   0  0  0  0  0  0  0  0  0  0  0  0
   -1.3098   -0.3801    0.2861 C   0  0  0  0  0  0  0  0  0  0  0  0
   -0.3460   -1.4126   -0.3113 C   0  0  0  0  0  0  0  0  0  0  0  0
   -2.7280   -0.5681   -0.2584 C   0  0  0  0  0  0  0  0  0  0  0  0
    1.0868   -1.2261    0.1969 C   0  0  0  0  0  0  0  0  0  0  0  0
   -3.7285    0.4575    0.2822 C   0  0  0  0  0  0  0  0  0  0  0  0
   -5.1281    0.3161   -0.3175 C   0  0  0  0  0  0  0  0  0  0  0  0
    2.0282   -2.2519   -0.4198 C   0  0  0  0  0  0  0  0  0  0  0  0
   -6.0632    1.4005    0.1962 C   0  0  0  0  0  0  0  0  0  0  0  0
    2.8114    0.3974    0.2526 C   0  0  0  0  0  0  0  0  0  0  0  0
    3.3938    1.3791   -0.7329 C   0  0  0  0  0  0  0  0  0  0  0  0
  1 13  1  0
  2  7  1  0
  2 12  1  0
  3 12  2  0
  4  5  1  0
  4  6  1  0
  5  7  1  0
  6  8  1  0
  7 10  1  0
  8  9  1  0
  9 11  1  0
 12 13  1  0
M  END
>  <PUBCHEM_COMPOUND_CID>  (1) 
33187

>  <PUBCHEM_CONFORMER_RMSD>  (1) 
0.8

>  <PUBCHEM_CONFORMER_DIVERSEORDER>  (1) 
1
145
114
389
148
189
139
236
351
165
242
26
73
346
80
273
2
104
246
231
264
27
387
17
105
322
338
99
65
381
64
255
341
274
325
93
91
180
337
253
8
405
59
402
305
31
334
191
339
78
215
184
336
192
209
401
6
385
166
210
36
293
289
50
340
329
353
101
379
142
12
382
85
234
272
324
130
117
92
396
124
34
190
370
283
16
282
303
206
286
321
46
198
217
348
188
330
9
368
362
267
284
250
175
226
204
15
151
357
35
56
365
291
108
13
384
297
109
410
155
312
378
51
230
306
343
47
182
45
380
14
69
392
86
281
229
5
398
153
66
110
205
310
134
299
386
94
376
21
57
220
119
140
161
157
74
388
176
144
89
196
193
30
186
97
183
81
133
270
288
163
249
53
100
268
395
177
400
23
107
350
259
18
227
266
408
248
122
71
390
199
233
77
371
302
344
294
342
367
181
28
404
60
116
407
129
223
11
38
298
187
318
197
218
355
211
141
185
232
238
261
263
127
48
320
366
278
98
391
271
3
219
174
84
25
301
265
102
147
222
262
352
115
280
225
33
221
44
279
79
403
393
399
29
276
39
374
214
207
224
7
137
369
160
300
304
171
383
10
170
179
332
68
75
307
394
269
364
40
162
4
52
158
178
152
62
90
55
241
323
372
32
88
172
252
349
327
213
212
245
333
309
335
256
363
247
164
216
126
244
361
203
235
314
251
146
159
169
20
359
131
173
258
106
257
409
125
22
76
254
103
319
41
83
308
237
19
37
24
167
311
54
345
72
87
292
168
42
397
123
228
406
295
58
82
194
290
328
287
326
411
202
61
128
136
360
149
43
296
356
138
358
112
143
118
67
70
200
113
317
201
96
315
347
63
316
331
239
240
373
49
275
354
95
313
121
208
154
243
156
277
260
195
150
120
132
111
377
135
285
375

>  <PUBCHEM_MMFF94_PARTIAL_CHARGES>  (1) 
7
1 -0.41
12 0.66
13 0.29
2 -0.43
3 -0.57
33 0.18
7 0.28

>  <PUBCHEM_EFFECTIVE_ROTOR_COUNT>  (1) 
8

>  <PUBCHEM_PHARMACOPHORE_FEATURES>  (1) 
3
1 11 hydrophobe
1 3 acceptor
5 4 5 6 8 9 hydrophobe

>  <PUBCHEM_HEAVY_ATOM_COUNT>  (1) 
13

>  <PUBCHEM_ATOM_DEF_STEREO_COUNT>  (1) 
0

>  <PUBCHEM_ATOM_UDEF_STEREO_COUNT>  (1) 
1

>  <PUBCHEM_BOND_DEF_STEREO_COUNT>  (1) 
0

>  <PUBCHEM_BOND_UDEF_STEREO_COUNT>  (1) 
0

>  <PUBCHEM_ISOTOPIC_ATOM_COUNT>  (1) 
0

>  <PUBCHEM_COMPONENT_COUNT>  (1) 
1

>  <PUBCHEM_CACTVS_TAUTO_COUNT>  (1) 
1

>  <PUBCHEM_CONFORMER_ID>  (1) 
000081A300000001

>  <PUBCHEM_MMFF94_ENERGY>  (1) 
10.9978

>  <PUBCHEM_FEATURE_SELFOVERLAP>  (1) 
15.223

>  <PUBCHEM_SHAPE_FINGERPRINT>  (1) 
100836 57 18408608088436587676
10354089 29 17603587456358531052
12555020 224 10159690267215208617
12616999 72 16702023050082652815
13675066 3 14851597770194957227
14123255 52 18339643459589210460
14123256 34 9151179782744815273
1420 369 8574445222086637104
14252887 29 12613022882331675888
14576447 43 11455904559164103268
14774955 27 18335137622220724901
15342168 16 18335422391547907197
15501527 24 17917990594634323853
17834072 32 18337111292689614244
17834072 8 18343032094924020526
20369508 70 9439401315748255510
20374829 77 10663829559251955471
20526848 3 18188778365584072708
20605781 2 18409450306043569333
20621476 66 18262242248174064684
20645477 70 18201157633814875567
212847 35 18341890796947732152
23402539 116 18130223882626180740
23402655 69 18202562886725556415
23532345 1 18408608032923753347
23590187 49 18409730702856920716
270888 7 18337110197795135956
3060560 45 16272206388273717588
32948 21 12031799028672147075
351380 3 9151179739858348385
42 15 11169913875323519863
449060 50 18334579040586439183
449060 62 18413109446254339047
59682541 52 16916517955988319716
77188 2 17761211016966522366
81539 233 18410011035483347310
94968 8 10087641507164651628

>  <PUBCHEM_SHAPE_MULTIPOLES>  (1) 
259.64
12.61
1.99
0.81
12.27
0.4
0.07
-9.91
-0.18
-1.74
-0.3
-0.41
-0.02
-0.43

>  <PUBCHEM_SHAPE_SELFOVERLAP>  (1) 
467.373

>  <PUBCHEM_SHAPE_VOLUME>  (1) 
168.2

>  <PUBCHEM_COORDINATE_TYPE>  (1) 
2
5
10

$$$$
