33196
     RDKit          3D

 22 23  0  0  0  0  0  0  0  0999 V2000
   -7.7880    2.6113   -0.0019 Cl  0  0  0  0  0  0  0  0  0  0  0  0
    8.5293    1.1031   -0.0087 Cl  0  0  0  0  0  0  0  0  0  0  0  0
   -2.1280   -1.0476    0.0012 N   0  0  0  0  0  0  0  0  0  0  0  0
   -1.2637   -2.0898    0.0012 N   0  0  0  0  0  0  0  0  0  0  0  0
    2.0805   -0.8646    0.0038 N   0  0  0  0  0  0  0  0  0  0  0  0
    0.6925   -0.7703    0.0053 N   0  0  0  0  0  0  0  0  0  0  0  0
    0.7558   -3.1624   -0.0008 N   0  0  0  0  0  0  0  0  0  0  0  0
   -4.4628   -0.4080   -0.0005 C   0  0  0  0  0  0  0  0  0  0  0  0
    4.0767    0.5064    0.0043 C   0  0  0  0  0  0  0  0  0  0  0  0
   -5.7771   -0.8462   -0.0027 C   0  0  0  0  0  0  0  0  0  0  0  0
   -4.1528    0.9422    0.0011 C   0  0  0  0  0  0  0  0  0  0  0  0
    4.5899    1.7938    0.0075 C   0  0  0  0  0  0  0  0  0  0  0  0
    4.9103   -0.6007   -0.0030 C   0  0  0  0  0  0  0  0  0  0  0  0
   -6.8096    0.0917   -0.0036 C   0  0  0  0  0  0  0  0  0  0  0  0
   -5.1853    1.8800    0.0002 C   0  0  0  0  0  0  0  0  0  0  0  0
   -6.5137    1.4548   -0.0021 C   0  0  0  0  0  0  0  0  0  0  0  0
    5.9724    1.9788    0.0031 C   0  0  0  0  0  0  0  0  0  0  0  0
    6.2928   -0.4158   -0.0074 C   0  0  0  0  0  0  0  0  0  0  0  0
    6.8239    0.8740   -0.0045 C   0  0  0  0  0  0  0  0  0  0  0  0
   -3.3726   -1.3994   -0.0018 C   0  0  0  0  0  0  0  0  0  0  0  0
    2.6172    0.3119    0.0068 C   0  0  0  0  0  0  0  0  0  0  0  0
    0.1124   -1.9432    0.0023 C   0  0  0  0  0  0  0  0  0  0  0  0
  1 16  1  0
  2 19  1  0
  3  4  1  0
  3 20  2  0
  4 22  1  0
  5  6  1  0
  5 21  2  0
  6 22  2  0
  7 22  1  0
  8 10  2  0
  8 11  1  0
  8 20  1  0
  9 12  2  0
  9 13  1  0
  9 21  1  0
 10 14  1  0
 11 15  2  0
 12 17  1  0
 13 18  2  0
 14 16  2  0
 15 16  1  0
 17 19  2  0
 18 19  1  0
M  END
>  <PUBCHEM_COMPOUND_CID>  (1) 
33196

>  <PUBCHEM_CONFORMER_RMSD>  (1) 
0.8

>  <PUBCHEM_CONFORMER_DIVERSEORDER>  (1) 
1
7
2
3
6
5
10
8
4
9

>  <PUBCHEM_MMFF94_PARTIAL_CHARGES>  (1) 
35
1 -0.18
10 -0.15
11 -0.15
12 -0.15
13 -0.15
14 -0.15
15 -0.15
16 0.18
17 -0.15
18 -0.15
19 0.18
2 -0.18
20 0.3
21 0.3
22 0.55
23 0.15
24 0.15
25 0.15
26 0.15
27 0.15
28 0.15
29 0.15
3 -0.49
30 0.15
31 0.06
32 0.06
33 0.4
34 0.4
35 0.4
4 -0.41
5 -0.45
6 -0.45
7 -0.85
8 0.09
9 0.09

>  <PUBCHEM_EFFECTIVE_ROTOR_COUNT>  (1) 
5

>  <PUBCHEM_PHARMACOPHORE_FEATURES>  (1) 
7
1 3 acceptor
1 4 donor
1 5 acceptor
1 7 donor
4 4 6 7 22 cation
6 8 10 11 14 15 16 rings
6 9 12 13 17 18 19 rings

>  <PUBCHEM_HEAVY_ATOM_COUNT>  (1) 
22

>  <PUBCHEM_ATOM_DEF_STEREO_COUNT>  (1) 
0

>  <PUBCHEM_ATOM_UDEF_STEREO_COUNT>  (1) 
0

>  <PUBCHEM_BOND_DEF_STEREO_COUNT>  (1) 
0

>  <PUBCHEM_BOND_UDEF_STEREO_COUNT>  (1) 
3

>  <PUBCHEM_ISOTOPIC_ATOM_COUNT>  (1) 
0

>  <PUBCHEM_COMPONENT_COUNT>  (1) 
1

>  <PUBCHEM_CACTVS_TAUTO_COUNT>  (1) 
2

>  <PUBCHEM_CONFORMER_ID>  (1) 
000081AC00000001

>  <PUBCHEM_MMFF94_ENERGY>  (1) 
55.0359

>  <PUBCHEM_FEATURE_SELFOVERLAP>  (1) 
35.574

>  <PUBCHEM_SHAPE_FINGERPRINT>  (1) 
10 15 18186805773172326345
100830 39 18410012173765556347
10411042 1 17834394906544513519
10674148 151 18259701225757896032
10730089 173 18343021099248761473
12838862 33 18337936931849849669
13167372 99 18410009936187575024
13248334 5 18122344567000415139
13785724 45 17905039262741410642
14251764 18 18259981596073618194
14257110 125 18410855473524870583
14428016 86 18412829058199714377
14556957 393 15553899891244073824
14729087 3 18412543219151258600
14933364 13 18410576201417892458
15183329 4 18273498970445106792
15419008 145 18115576051382501600
15716309 27 11386367049443945923
1577012 14 18410005533429683579
15778101 99 18410293631657427715
15961568 22 18336265657137978293
16087824 20 18409730634486357148
16989713 51 17416956417781136871
1768 4 18341341007660699737
17780758 139 11963381939229980295
19611394 137 17897458396465799699
20281389 69 18260546718810901956
20526848 3 18410857651015312833
20554085 129 17846484947202899402
20621476 66 18409168826729537486
21033648 29 18269264820049522632
21095123 293 17603592932785044116
21150785 3 13398633870684660792
21298829 104 18411422766007408325
21585482 111 18262799537287178677
21774942 28 17560247907563116392
22288116 15 17488731385684941487
23035841 295 9511466623436638351
23524908 199 17702952422747524038
270888 7 18410572864850711147
2838139 119 18343016726829493127
306946 40 17060046096109605264
3411729 13 18335419028562965338
3633792 109 18201727219851237682
4073 2 18040721424138293162
465052 167 11169910581015129818
5385378 56 18113897126775044218
59682541 52 17060066886996329990
59755656 520 18260823838681004471
6327066 14 18412542086039502535
77188 2 17473542447832547759
9980921 7 18113613458024886437

>  <PUBCHEM_SHAPE_MULTIPOLES>  (1) 
431.58
26.46
2.66
0.6
5.37
0.46
0
-19.15
0.06
-2.04
0
0
-0.04
0

>  <PUBCHEM_SHAPE_SELFOVERLAP>  (1) 
894.451

>  <PUBCHEM_SHAPE_VOLUME>  (1) 
247.2

>  <PUBCHEM_COORDINATE_TYPE>  (1) 
2
5
10

$$$$
