33197
     RDKit          3D

 16 16  0  0  1  0  0  0  0  0999 V2000
   -6.5989    0.0724    0.3380 O   0  0  0  0  0  0  0  0  0  0  0  0
   -3.0416   -0.0478   -0.2591 O   0  0  0  0  0  0  0  0  0  0  0  0
    2.7653    0.1477    0.0163 O   0  0  0  0  0  0  0  0  0  0  0  0
   -1.8653    1.9174    0.0445 O   0  0  0  0  0  0  0  0  0  0  0  0
    1.5885   -1.8167   -0.2897 O   0  0  0  0  0  0  0  0  0  0  0  0
   -5.4133   -0.2780   -0.3873 C   0  0  0  0  0  0  0  0  0  0  0  0
   -5.9083   -1.1109    0.7593 C   0  0  0  0  0  0  0  0  0  0  0  0
   -4.2782    0.6722   -0.2170 C   0  0  0  0  0  0  0  0  0  0  0  0
    5.1498    0.4094    0.1559 C   0  0  0  0  0  0  0  0  0  0  0  0
    6.5041   -0.2922    0.1091 C   0  0  0  0  0  0  0  0  0  0  0  0
    4.0012   -0.5735   -0.0220 C   0  0  0  0  0  0  0  0  0  0  0  0
    7.6496    0.6983    0.2439 C   0  0  0  0  0  0  0  0  0  0  0  0
   -1.9200    0.7082   -0.1147 C   0  0  0  0  0  0  0  0  0  0  0  0
   -0.7550   -0.2015   -0.1823 C   0  0  0  0  0  0  0  0  0  0  0  0
    1.6435   -0.6076   -0.1311 C   0  0  0  0  0  0  0  0  0  0  0  0
    0.4787    0.3026   -0.0638 C   0  0  0  0  0  0  0  0  0  0  0  0
  1  6  1  0
  1  7  1  0
  2  8  1  0
  2 13  1  0
  3 11  1  0
  3 15  1  0
  4 13  2  0
  5 15  2  0
  6  7  1  0
  6  8  1  0
  9 10  1  0
  9 11  1  0
 10 12  1  0
 13 14  1  0
 14 16  2  0
 15 16  1  0
M  END
>  <PUBCHEM_COMPOUND_CID>  (1) 
33197

>  <PUBCHEM_CONFORMER_RMSD>  (1) 
0.8

>  <PUBCHEM_CONFORMER_DIVERSEORDER>  (1) 
1
139
112
11
107
83
93
124
90
127
19
10
130
113
103
114
40
128
100
118
41
119
58
12
73
81
115
68
140
43
109
76
78
129
59
25
61
69
8
54
26
71
133
138
15
50
126
105
135
116
7
53
104
85
62
6
121
122
35
21
39
47
60
132
110
38
136
96
77
123
48
86
18
125
63
74
111
33
17
57
137
95
20
2
87
65
131
55
98
37
102
120
84
92
30
51
44
52
99
24
45
101
89
91
4
13
97
72
28
23
31
79
27
94
29
64
67
42
106
46
36
70
108
56
49
34
82
117
88
66
80
134
9
22
16
32
14
5
75
3

>  <PUBCHEM_MMFF94_PARTIAL_CHARGES>  (1) 
18
1 -0.3
11 0.28
13 0.71
14 -0.14
15 0.71
16 -0.14
17 0.1
18 0.1
19 0.1
2 -0.43
3 -0.43
31 0.15
32 0.15
4 -0.57
5 -0.57
6 -0.05
7 -0.05
8 0.38

>  <PUBCHEM_EFFECTIVE_ROTOR_COUNT>  (1) 
9.6

>  <PUBCHEM_PHARMACOPHORE_FEATURES>  (1) 
4
1 1 acceptor
1 12 hydrophobe
1 4 acceptor
1 5 acceptor

>  <PUBCHEM_HEAVY_ATOM_COUNT>  (1) 
16

>  <PUBCHEM_ATOM_DEF_STEREO_COUNT>  (1) 
0

>  <PUBCHEM_ATOM_UDEF_STEREO_COUNT>  (1) 
0

>  <PUBCHEM_BOND_DEF_STEREO_COUNT>  (1) 
0

>  <PUBCHEM_BOND_UDEF_STEREO_COUNT>  (1) 
1

>  <PUBCHEM_ISOTOPIC_ATOM_COUNT>  (1) 
0

>  <PUBCHEM_COMPONENT_COUNT>  (1) 
1

>  <PUBCHEM_CACTVS_TAUTO_COUNT>  (1) 
1

>  <PUBCHEM_CONFORMER_ID>  (1) 
000081AD00000001

>  <PUBCHEM_MMFF94_ENERGY>  (1) 
20.3975

>  <PUBCHEM_FEATURE_SELFOVERLAP>  (1) 
20.297

>  <PUBCHEM_SHAPE_FINGERPRINT>  (1) 
106641 1 17894630392271133864
10968037 39 18411698794690553671
11089746 13 13767927927168184926
11315181 36 18272652347166991241
12091667 2 18131348609948714709
12916748 109 18343585119086817932
13073987 5 18269835329303503568
13533116 47 16443614723917134120
14123256 10 18410292514485538544
1420 363 18411422803859695647
14251718 22 18113898251686593112
14251732 16 18408322185680689866
14251752 14 11383839255374775906
14251764 18 18259982678774453634
14251764 46 18113335314707737967
15048467 5 13254794646757489330
15183329 4 9511467718600486470
15531645 54 8646768897843112622
15716309 27 18412825776449301683
17834076 25 18410573985167294902
19489759 90 15140678068771584685
20621476 8 11527954447887913568
20735858 18 18407757037004829746
20767249 213 18335138705016472988
21054139 6 16950564419700381099
21267235 1 18412831278755991140
220451 1 15913323581175479598
22224240 67 18334009514959213306
22896161 15 18408323306466778378
23035841 295 17203608181542093686
23218964 4 9871749091762498790
23402539 116 13767923520964496111
23521765 1 18341894095134299628
28498 318 9367355829708483760
3545911 37 18412824686076059382
42788 4 18409446977433255036
4325135 7 18408603664641125157
4463277 17 18201719544195943097
474229 33 18409449189120249571
5104073 3 18197776604956071307
559249 180 7853565803645039905
59682541 35 18341049717586172843
59755656 520 16950560021195154955
8209 1 18333167271450162613

>  <PUBCHEM_SHAPE_MULTIPOLES>  (1) 
299.93
19.82
1.19
0.66
10.27
0.01
0.03
-0.03
2.76
-0.38
0.01
-0.25
-0.05
0.47

>  <PUBCHEM_SHAPE_SELFOVERLAP>  (1) 
581.078

>  <PUBCHEM_SHAPE_VOLUME>  (1) 
181.5

>  <PUBCHEM_COORDINATE_TYPE>  (1) 
2
5
10

$$$$
