33198
     RDKit          3D

 14 14  0  0  1  0  0  0  0  0999 V2000
   -5.4361   -0.1952    0.5471 O   0  0  0  0  0  0  0  0  0  0  0  0
   -2.0590    0.0145   -0.2819 O   0  0  0  0  0  0  0  0  0  0  0  0
    3.7394    0.2494    0.1145 O   0  0  0  0  0  0  0  0  0  0  0  0
   -0.9064    1.9789    0.1059 O   0  0  0  0  0  0  0  0  0  0  0  0
    2.5865   -1.7137   -0.2787 O   0  0  0  0  0  0  0  0  0  0  0  0
   -4.4256   -0.2313   -0.4635 C   0  0  0  0  0  0  0  0  0  0  0  0
   -4.6455   -1.3877    0.4604 C   0  0  0  0  0  0  0  0  0  0  0  0
   -3.3025    0.7223   -0.2414 C   0  0  0  0  0  0  0  0  0  0  0  0
   -0.9471    0.7749   -0.0919 C   0  0  0  0  0  0  0  0  0  0  0  0
    0.2271   -0.1224   -0.1656 C   0  0  0  0  0  0  0  0  0  0  0  0
    4.9823   -0.4599    0.0776 C   0  0  0  0  0  0  0  0  0  0  0  0
    1.4537    0.3878   -0.0067 C   0  0  0  0  0  0  0  0  0  0  0  0
    6.1057    0.4924    0.3040 C   0  0  0  0  0  0  0  0  0  0  0  0
    2.6276   -0.5100   -0.0798 C   0  0  0  0  0  0  0  0  0  0  0  0
  1  6  1  0
  1  7  1  0
  2  8  1  0
  2  9  1  0
  3 11  1  0
  3 14  1  0
  4  9  2  0
  5 14  2  0
  6  7  1  0
  6  8  1  0
  9 10  1  0
 10 12  2  0
 11 13  1  0
 12 14  1  0
M  END
>  <PUBCHEM_COMPOUND_CID>  (1) 
33198

>  <PUBCHEM_CONFORMER_RMSD>  (1) 
0.8

>  <PUBCHEM_CONFORMER_DIVERSEORDER>  (1) 
1
55
76
12
65
22
35
78
42
50
63
58
2
68
47
80
25
21
27
9
48
51
4
19
8
44
66
59
74
3
81
52
28
54
79
15
5
75
23
69
14
82
70
17
85
32
61
46
30
13
77
18
84
16
72
38
53
29
20
67
45
83
64
43
62
31
41
11
34
71
49
7
73
10
57
40
86
24
60
39
6
26
36
37
56
33

>  <PUBCHEM_MMFF94_PARTIAL_CHARGES>  (1) 
18
1 -0.3
10 -0.14
11 0.28
12 -0.14
14 0.71
15 0.1
16 0.1
17 0.1
2 -0.43
20 0.15
23 0.15
3 -0.43
4 -0.57
5 -0.57
6 -0.05
7 -0.05
8 0.38
9 0.71

>  <PUBCHEM_EFFECTIVE_ROTOR_COUNT>  (1) 
7.6

>  <PUBCHEM_PHARMACOPHORE_FEATURES>  (1) 
3
1 1 acceptor
1 4 acceptor
1 5 acceptor

>  <PUBCHEM_HEAVY_ATOM_COUNT>  (1) 
14

>  <PUBCHEM_ATOM_DEF_STEREO_COUNT>  (1) 
0

>  <PUBCHEM_ATOM_UDEF_STEREO_COUNT>  (1) 
0

>  <PUBCHEM_BOND_DEF_STEREO_COUNT>  (1) 
0

>  <PUBCHEM_BOND_UDEF_STEREO_COUNT>  (1) 
1

>  <PUBCHEM_ISOTOPIC_ATOM_COUNT>  (1) 
0

>  <PUBCHEM_COMPONENT_COUNT>  (1) 
1

>  <PUBCHEM_CACTVS_TAUTO_COUNT>  (1) 
1

>  <PUBCHEM_CONFORMER_ID>  (1) 
000081AE00000001

>  <PUBCHEM_MMFF94_ENERGY>  (1) 
21.8438

>  <PUBCHEM_FEATURE_SELFOVERLAP>  (1) 
15.223

>  <PUBCHEM_SHAPE_FINGERPRINT>  (1) 
11287383 113 18333732442223533240
11401426 45 12251904802026548340
11858739 19 11819264543598936952
124424 183 11891339733458207660
12815109 37 18409729564737923515
13533116 47 16660913406206733920
13740256 8 18336548325909485267
13911882 115 18202294601594035638
14123238 8 18259984872806474534
1420 363 18411984658992069350
14251718 22 17967813860013408496
14251732 16 18335701701950829552
14252887 29 17775012262615607702
15048467 5 16343705430351883851
15531645 54 9007062370260287880
17834072 33 18114185267429650252
17834076 25 18410855468728652398
187816 3 13406793320129823165
19489759 90 16008743598032640645
200 152 18260265243792032248
20279233 1 17603595105610688026
20281389 69 11743840252839973922
20645477 70 18339923693621605222
21054139 6 16878223164046261459
21150785 3 18041009432266338438
212847 35 10519982673546512578
22485316 2 18409165489798515271
22896161 15 18334858372142314914
23402539 116 14779542379190376903
26918003 58 18335138700383817635
3014965 18 10807672068687430644
42788 4 18408602561309322444
4463277 17 18343302565256021737
474229 33 18409729573497039930
5104073 3 18199182889440118930
59345605 10 18337109063886450163
6430166 295 9727632799869504855

>  <PUBCHEM_SHAPE_MULTIPOLES>  (1) 
258.77
13.6
1.29
0.66
4.29
0.02
0
-2.4
1.69
-0.4
0.04
-0.19
-0.03
0.41

>  <PUBCHEM_SHAPE_SELFOVERLAP>  (1) 
506.199

>  <PUBCHEM_SHAPE_VOLUME>  (1) 
155.3

>  <PUBCHEM_COORDINATE_TYPE>  (1) 
2
5
10

$$$$
