33193
     RDKit          3D

 12 12  0  0  0  0  0  0  0  0999 V2000
   -4.7794    1.2384    0.3513 Cl  0  0  0  0  0  0  0  0  0  0  0  0
    4.1784    0.6984    0.1440 F   0  0  0  0  0  0  0  0  0  0  0  0
   -1.5700   -1.8446   -0.4242 O   0  0  0  0  0  0  0  0  0  0  0  0
    0.1842   -0.3225   -0.0869 C   0  0  0  0  0  0  0  0  0  0  0  0
    0.5908    0.9763   -0.3924 C   0  0  0  0  0  0  0  0  0  0  0  0
    1.1269   -1.2763    0.2968 C   0  0  0  0  0  0  0  0  0  0  0  0
    1.9401    1.3213   -0.3143 C   0  0  0  0  0  0  0  0  0  0  0  0
    2.4762   -0.9312    0.3750 C   0  0  0  0  0  0  0  0  0  0  0  0
   -1.2228   -0.6817   -0.1670 C   0  0  0  0  0  0  0  0  0  0  0  0
    2.8827    0.3675    0.0695 C   0  0  0  0  0  0  0  0  0  0  0  0
   -2.2535    0.3765    0.0985 C   0  0  0  0  0  0  0  0  0  0  0  0
   -3.5536    0.0779    0.0497 C   0  0  0  0  0  0  0  0  0  0  0  0
  1 12  1  0
  2 10  1  0
  3  9  2  0
  4  5  2  0
  4  6  1  0
  4  9  1  0
  5  7  1  0
  6  8  2  0
  7 10  2  0
  8 10  1  0
  9 11  1  0
 11 12  2  0
M  END
>  <PUBCHEM_COMPOUND_CID>  (1) 
33193

>  <PUBCHEM_CONFORMER_RMSD>  (1) 
0.6

>  <PUBCHEM_CONFORMER_DIVERSEORDER>  (1) 
1
3
2

>  <PUBCHEM_MMFF94_PARTIAL_CHARGES>  (1) 
18
1 -0.14
10 0.19
11 -0.14
12 -0.01
13 0.15
14 0.15
15 0.15
16 0.15
17 0.15
18 0.15
2 -0.19
3 -0.57
4 0.09
5 -0.15
6 -0.15
7 -0.15
8 -0.15
9 0.47

>  <PUBCHEM_EFFECTIVE_ROTOR_COUNT>  (1) 
2

>  <PUBCHEM_PHARMACOPHORE_FEATURES>  (1) 
2
1 3 acceptor
6 4 5 6 7 8 10 rings

>  <PUBCHEM_HEAVY_ATOM_COUNT>  (1) 
12

>  <PUBCHEM_ATOM_DEF_STEREO_COUNT>  (1) 
0

>  <PUBCHEM_ATOM_UDEF_STEREO_COUNT>  (1) 
0

>  <PUBCHEM_BOND_DEF_STEREO_COUNT>  (1) 
0

>  <PUBCHEM_BOND_UDEF_STEREO_COUNT>  (1) 
1

>  <PUBCHEM_ISOTOPIC_ATOM_COUNT>  (1) 
0

>  <PUBCHEM_COMPONENT_COUNT>  (1) 
1

>  <PUBCHEM_CACTVS_TAUTO_COUNT>  (1) 
1

>  <PUBCHEM_CONFORMER_ID>  (1) 
000081A900000001

>  <PUBCHEM_MMFF94_ENERGY>  (1) 
29.3904

>  <PUBCHEM_FEATURE_SELFOVERLAP>  (1) 
10.148

>  <PUBCHEM_SHAPE_FINGERPRINT>  (1) 
10219947 1 18409450245882229219
10465860 228 17985278369855127897
10980938 120 18333730186959540435
11062470 55 17632295678894325585
11471102 20 18335698312825935637
12251169 10 18334013904151753221
12346645 6 18341050722624422014
12932764 1 17241031180537281750
13380535 76 18411701002003479119
13922767 16 18410853227188558929
14144814 61 18410292497543039777
14252887 29 12396301422082190169
14325111 11 18410856560177853271
14897335 6 18413105074104323223
15775835 57 18411420617974478049
16945 1 18334845126426231462
177051 138 8070027770159028305
17844478 74 17168140109598991893
18186145 218 18341334388382340421
18511873 20 18409729573143280768
20233049 118 18060417997543084209
20645477 70 18337950070059693807
20871998 22 18049719612345963802
22485316 2 8646765578424217049
23402539 116 17846491530891443261
23402655 69 18343014463709055133
528886 8 18409161143096413514
53812653 166 18411695521751478808

>  <PUBCHEM_SHAPE_MULTIPOLES>  (1) 
235.68
7.32
1.51
0.67
5.29
0.24
0.01
-2.89
1.09
-0.06
-0.09
0.05
0
-0.41

>  <PUBCHEM_SHAPE_SELFOVERLAP>  (1) 
482.536

>  <PUBCHEM_SHAPE_VOLUME>  (1) 
137.2

>  <PUBCHEM_COORDINATE_TYPE>  (1) 
2
5
10

$$$$
