33201
     RDKit          3D

 17 17  0  0  0  0  0  0  0  0999 V2000
    0.6518    1.7363    0.3647 O   0  0  0  0  0  0  0  0  0  0  0  0
    2.5280   -0.3092   -0.1968 N   0  0  0  0  0  0  0  0  0  0  0  0
   -1.7901   -2.6133    1.3763 N   0  0  0  0  0  0  0  0  0  0  0  0
    2.9340    1.0463    0.1731 C   0  0  0  0  0  0  0  0  0  0  0  0
    3.5189   -1.2823    0.2612 C   0  0  0  0  0  0  0  0  0  0  0  0
    2.3432   -0.4104   -1.6440 C   0  0  0  0  0  0  0  0  0  0  0  0
    1.8863    2.0582   -0.2625 C   0  0  0  0  0  0  0  0  0  0  0  0
   -0.3734    2.6489   -0.0031 C   0  0  0  0  0  0  0  0  0  0  0  0
   -1.6766    2.2672    0.6904 C   0  0  0  0  0  0  0  0  0  0  0  0
    3.7239   -1.1913    1.7639 C   0  0  0  0  0  0  0  0  0  0  0  0
    1.8619   -1.7958   -2.0404 C   0  0  0  0  0  0  0  0  0  0  0  0
   -2.1601    0.8950    0.2884 C   0  0  0  0  0  0  0  0  0  0  0  0
   -1.7508   -0.2104    1.0171 C   0  0  0  0  0  0  0  0  0  0  0  0
   -3.0038    0.7656   -0.8035 C   0  0  0  0  0  0  0  0  0  0  0  0
   -2.1969   -1.4784    0.6442 C   0  0  0  0  0  0  0  0  0  0  0  0
   -3.4497   -0.5022   -1.1764 C   0  0  0  0  0  0  0  0  0  0  0  0
   -3.0464   -1.6242   -0.4524 C   0  0  0  0  0  0  0  0  0  0  0  0
  1  7  1  0
  1  8  1  0
  2  4  1  0
  2  5  1  0
  2  6  1  0
  3 15  1  0
  4  7  1  0
  5 10  1  0
  6 11  1  0
  8  9  1  0
  9 12  1  0
 12 13  2  0
 12 14  1  0
 13 15  1  0
 14 16  2  0
 15 17  2  0
 16 17  1  0
M  END
>  <PUBCHEM_COMPOUND_CID>  (1) 
33201

>  <PUBCHEM_CONFORMER_RMSD>  (1) 
0.8

>  <PUBCHEM_CONFORMER_DIVERSEORDER>  (1) 
4
71
107
23
6
197
101
88
124
182
153
38
135
184
86
31
98
33
75
143
83
90
11
119
134
7
176
112
117
25
158
27
151
174
130
187
45
173
5
77
19
133
106
175
169
15
93
142
128
35
108
55
8
165
68
99
195
122
29
137
190
42
34
70
147
120
58
12
191
17
180
94
129
74
152
126
113
136
47
36
156
155
18
132
121
72
91
194
1
179
22
146
178
2
196
78
95
9
80
24
96
183
60
188
76
50
105
43
198
46
51
28
56
114
63
67
73
53
39
139
37
64
48
92
26
123
131
54
10
160
193
154
159
150
14
84
115
192
97
41
185
87
127
170
69
148
102
16
172
125
89
199
21
167
20
157
57
81
44
103
118
52
59
61
189
49
138
40
171
85
141
65
79
163
62
110
13
66
140
32
82
111
3
104
100
109
177
186
116
30
181
168
162
166
149
145
161
164
144

>  <PUBCHEM_MMFF94_PARTIAL_CHARGES>  (1) 
21
1 -0.56
12 -0.14
13 -0.15
14 -0.15
15 0.1
16 -0.15
17 -0.15
2 -0.81
3 -0.9
36 0.15
37 0.15
38 0.15
39 0.15
4 0.27
40 0.4
41 0.4
5 0.27
6 0.27
7 0.28
8 0.28
9 0.14

>  <PUBCHEM_EFFECTIVE_ROTOR_COUNT>  (1) 
8

>  <PUBCHEM_PHARMACOPHORE_FEATURES>  (1) 
5
1 1 acceptor
1 2 cation
1 3 cation
1 3 donor
6 12 13 14 15 16 17 rings

>  <PUBCHEM_HEAVY_ATOM_COUNT>  (1) 
17

>  <PUBCHEM_ATOM_DEF_STEREO_COUNT>  (1) 
0

>  <PUBCHEM_ATOM_UDEF_STEREO_COUNT>  (1) 
0

>  <PUBCHEM_BOND_DEF_STEREO_COUNT>  (1) 
0

>  <PUBCHEM_BOND_UDEF_STEREO_COUNT>  (1) 
0

>  <PUBCHEM_ISOTOPIC_ATOM_COUNT>  (1) 
0

>  <PUBCHEM_COMPONENT_COUNT>  (1) 
1

>  <PUBCHEM_CACTVS_TAUTO_COUNT>  (1) 
1

>  <PUBCHEM_CONFORMER_ID>  (1) 
000081B100000004

>  <PUBCHEM_MMFF94_ENERGY>  (1) 
42.8562

>  <PUBCHEM_FEATURE_SELFOVERLAP>  (1) 
25.371

>  <PUBCHEM_SHAPE_FINGERPRINT>  (1) 
12363563 72 18413388747840480366
12553582 1 18339373984619424904
12633257 1 18339079264121725264
1420 336 18125733291789825575
14251705 54 18122634017624600215
15635459 17 18269566098608874727
17834072 14 18341034268583514456
192875 21 18339626885041500326
20645477 70 18127410279277732093
21315764 371 15410047529782278055
23184049 29 18408886217976659728
232386 152 18189621544951770968
23557571 272 17988075591354453314
23559900 14 18337940273350204592
5262128 65 18340215162411752312
568465 68 17560790005861336864
81228 2 18198635327859140113
9709674 26 18271810090198370164

>  <PUBCHEM_SHAPE_MULTIPOLES>  (1) 
334.02
6.8
2.93
1.58
2.24
0.8
-0.25
-2.65
0.14
-0.53
0.35
0.81
-1.01
0.11

>  <PUBCHEM_SHAPE_SELFOVERLAP>  (1) 
660.634

>  <PUBCHEM_SHAPE_VOLUME>  (1) 
200.9

>  <PUBCHEM_COORDINATE_TYPE>  (1) 
2
5
10

$$$$
