33204
     RDKit          3D

 19 19  0  0  0  0  0  0  0  0999 V2000
   -0.0818   -1.4351   -0.3597 O   0  0  0  0  0  0  0  0  0  0  0  0
    3.4149   -0.3169   -0.0311 N   0  0  0  0  0  0  0  0  0  0  0  0
   -4.8653    2.6951    0.1622 N   0  0  0  0  0  0  0  0  0  0  0  0
    4.2267    0.6193   -0.8079 C   0  0  0  0  0  0  0  0  0  0  0  0
    3.3800    0.0818    1.3754 C   0  0  0  0  0  0  0  0  0  0  0  0
    2.0595   -0.3912   -0.5753 C   0  0  0  0  0  0  0  0  0  0  0  0
    1.2288   -1.4087    0.1904 C   0  0  0  0  0  0  0  0  0  0  0  0
    3.6099    2.0145   -0.7671 C   0  0  0  0  0  0  0  0  0  0  0  0
    4.3492    0.1160   -2.2426 C   0  0  0  0  0  0  0  0  0  0  0  0
    2.7226    1.4513    1.5209 C   0  0  0  0  0  0  0  0  0  0  0  0
    4.7988    0.0928    1.9355 C   0  0  0  0  0  0  0  0  0  0  0  0
   -0.9117   -2.3708    0.3151 C   0  0  0  0  0  0  0  0  0  0  0  0
   -2.3044   -2.3662   -0.3057 C   0  0  0  0  0  0  0  0  0  0  0  0
   -2.9835   -1.0239   -0.1817 C   0  0  0  0  0  0  0  0  0  0  0  0
   -3.7625   -0.7573    0.9331 C   0  0  0  0  0  0  0  0  0  0  0  0
   -2.8161   -0.0824   -1.1849 C   0  0  0  0  0  0  0  0  0  0  0  0
   -4.3903    0.4830    1.0477 C   0  0  0  0  0  0  0  0  0  0  0  0
   -3.4439    1.1580   -1.0702 C   0  0  0  0  0  0  0  0  0  0  0  0
   -4.2311    1.4406    0.0460 C   0  0  0  0  0  0  0  0  0  0  0  0
  1  7  1  0
  1 12  1  0
  2  4  1  0
  2  5  1  0
  2  6  1  0
  3 19  1  0
  4  8  1  0
  4  9  1  0
  5 10  1  0
  5 11  1  0
  6  7  1  0
 12 13  1  0
 13 14  1  0
 14 15  2  0
 14 16  1  0
 15 17  1  0
 16 18  2  0
 17 19  2  0
 18 19  1  0
M  END
>  <PUBCHEM_COMPOUND_CID>  (1) 
33204

>  <PUBCHEM_CONFORMER_RMSD>  (1) 
0.8

>  <PUBCHEM_CONFORMER_DIVERSEORDER>  (1) 
1
4
20
18
14
6
26
28
16
3
8
9
12
11
24
15
17
10
27
5
7
23
13
25
22
19
2
21

>  <PUBCHEM_MMFF94_PARTIAL_CHARGES>  (1) 
21
1 -0.56
12 0.28
13 0.14
14 -0.14
15 -0.15
16 -0.15
17 -0.15
18 -0.15
19 0.1
2 -0.81
3 -0.9
4 0.27
42 0.15
43 0.15
44 0.15
45 0.15
46 0.4
47 0.4
5 0.27
6 0.27
7 0.28

>  <PUBCHEM_EFFECTIVE_ROTOR_COUNT>  (1) 
8

>  <PUBCHEM_PHARMACOPHORE_FEATURES>  (1) 
7
1 1 acceptor
1 2 cation
1 3 cation
1 3 donor
3 4 8 9 hydrophobe
3 5 10 11 hydrophobe
6 14 15 16 17 18 19 rings

>  <PUBCHEM_HEAVY_ATOM_COUNT>  (1) 
19

>  <PUBCHEM_ATOM_DEF_STEREO_COUNT>  (1) 
0

>  <PUBCHEM_ATOM_UDEF_STEREO_COUNT>  (1) 
0

>  <PUBCHEM_BOND_DEF_STEREO_COUNT>  (1) 
0

>  <PUBCHEM_BOND_UDEF_STEREO_COUNT>  (1) 
0

>  <PUBCHEM_ISOTOPIC_ATOM_COUNT>  (1) 
0

>  <PUBCHEM_COMPONENT_COUNT>  (1) 
1

>  <PUBCHEM_CACTVS_TAUTO_COUNT>  (1) 
1

>  <PUBCHEM_CONFORMER_ID>  (1) 
000081B400000001

>  <PUBCHEM_MMFF94_ENERGY>  (1) 
79.6322

>  <PUBCHEM_FEATURE_SELFOVERLAP>  (1) 
35.522

>  <PUBCHEM_SHAPE_FINGERPRINT>  (1) 
10498660 4 18131630080166234697
10670039 82 18334868194585062452
10968037 57 11097862844064205121
11552529 35 16807308031256341699
11595378 159 17312822679833974156
12596602 18 16370732560324296905
12633257 1 18260820497253944660
12788726 201 17608093392253731474
12892183 10 14923945630701650391
13583140 156 16009294440510067495
1420 369 10665239137554127321
14251757 17 17846778554585936882
14251764 38 18057307595112385280
14252887 29 13334732453701407358
14341114 328 16877672274476667797
14848178 5 10591769727283164292
14950920 106 16370723708128012305
15238133 3 18408038503460093368
15342168 16 18337392613743386447
15352361 1 9583513196894439829
15880784 105 15140961776899031361
17834072 32 18408608050140552309
1798214 55 18412542085474999803
18186145 218 17846502555814093986
19078846 21 18262510503040367256
20645477 56 18131078168485115623
20645477 70 15913058637818288374
20671657 53 11167933654660868931
21054139 6 10952048983712037232
21365058 27 14852190424601387482
21864079 5 18262238940336603068
23403322 49 9943520796119607791
23503958 25 18339647844597806683
235170 7 15770053943190166325
23557571 272 18129395937016344599
23559900 14 18272941501239460654
27216 239 18333736819169845363
341906 21 18339916116945256602
4028521 119 17917711284178543475
5281201 14 17489313043830217966
5352402 22 13767926801659977866
59027123 10 15195295208932016171
59682541 52 16414918526709382941
633830 44 18201437003950993468
7064713 232 18335419037057519317
7808743 9 18262808487470463348
960060 61 13110959820908315112

>  <PUBCHEM_SHAPE_MULTIPOLES>  (1) 
375.18
12.15
2.37
1.67
0.27
0.06
0
5.96
0.87
-2.42
-0.03
2.27
0.31
-0.14

>  <PUBCHEM_SHAPE_SELFOVERLAP>  (1) 
749.504

>  <PUBCHEM_SHAPE_VOLUME>  (1) 
224.5

>  <PUBCHEM_COORDINATE_TYPE>  (1) 
2
5
10

$$$$
