33206
     RDKit          3D

 13 12  0  0  1  0  0  0  0  0999 V2000
   -2.1179   -2.0090    1.4656 Cl  0  0  0  0  0  0  0  0  0  0  0  0
   -1.8194   -2.0648   -1.4293 Cl  0  0  0  0  0  0  0  0  0  0  0  0
   -2.2121    0.5410   -0.0566 Si  0  0  0  0  0  4  0  0  0  0  0  0
    2.5628    2.4733   -0.2536 O   0  0  0  0  0  0  0  0  0  0  0  0
    3.0640    0.1211   -0.2507 C   0  0  0  0  0  0  0  0  0  0  0  0
   -2.6450   -1.2817   -0.0663 C   0  0  0  0  0  0  0  0  0  0  0  0
   -2.8291    1.3266   -1.6646 C   0  0  0  0  0  0  0  0  0  0  0  0
   -3.1414    1.3843    1.3606 C   0  0  0  0  0  0  0  0  0  0  0  0
    2.2350    1.2416    0.3867 C   0  0  0  0  0  0  0  0  0  0  0  0
    2.8170   -1.2471    0.3889 C   0  0  0  0  0  0  0  0  0  0  0  0
   -0.3891    0.8247    0.1259 C   0  0  0  0  0  0  0  0  0  0  0  0
    0.7911    1.0120    0.2421 C   0  0  0  0  0  0  0  0  0  0  0  0
    3.6842   -2.3219   -0.2486 C   0  0  0  0  0  0  0  0  0  0  0  0
  1  6  1  0
  2  6  1  0
  3  6  1  0
  3  7  1  0
  3  8  1  0
  3 11  1  0
  4  9  1  0
  5  9  1  0
  5 10  1  0
  9 12  1  0
 10 13  1  0
 11 12  3  0
M  END
>  <PUBCHEM_COMPOUND_CID>  (1) 
33206

>  <PUBCHEM_CONFORMER_RMSD>  (1) 
0.6

>  <PUBCHEM_CONFORMER_DIVERSEORDER>  (1) 
8
6
29
20
17
1
23
10
14
4
27
28
15
21
24
7
16
2
30
5
12
19
25
13
18
9
26
11
22
3

>  <PUBCHEM_MMFF94_PARTIAL_CHARGES>  (1) 
11
1 -0.29
11 -0.29
12 -0.2
2 -0.29
29 0.4
3 0.54
4 -0.68
6 0.5
7 -0.08
8 -0.08
9 0.48

>  <PUBCHEM_EFFECTIVE_ROTOR_COUNT>  (1) 
3

>  <PUBCHEM_PHARMACOPHORE_FEATURES>  (1) 
3
1 13 hydrophobe
1 4 acceptor
1 4 donor

>  <PUBCHEM_HEAVY_ATOM_COUNT>  (1) 
13

>  <PUBCHEM_ATOM_DEF_STEREO_COUNT>  (1) 
0

>  <PUBCHEM_ATOM_UDEF_STEREO_COUNT>  (1) 
1

>  <PUBCHEM_BOND_DEF_STEREO_COUNT>  (1) 
0

>  <PUBCHEM_BOND_UDEF_STEREO_COUNT>  (1) 
0

>  <PUBCHEM_ISOTOPIC_ATOM_COUNT>  (1) 
0

>  <PUBCHEM_COMPONENT_COUNT>  (1) 
1

>  <PUBCHEM_CACTVS_TAUTO_COUNT>  (1) 
1

>  <PUBCHEM_CONFORMER_ID>  (1) 
000081B600000008

>  <PUBCHEM_MMFF94_ENERGY>  (1) 
0.6605

>  <PUBCHEM_FEATURE_SELFOVERLAP>  (1) 
15.223

>  <PUBCHEM_SHAPE_FINGERPRINT>  (1) 
10922523 26 18261386754237108221
12553582 1 18121782729806494162
12932764 1 17749387061577262576
15279308 51 18413387622590729812
15422964 175 17827933045930464779
20442098 301 18201720703689348414
20645477 56 18041270028584499389
20645477 70 18411692197183002238
21069387 34 17845637166984865597
21501502 16 18341615944462289081
21524375 3 18127978512399948481
21665056 4 18041555845862524755
22802520 49 18260264187277452777
23532345 88 18335136522909238884
23557571 272 17024025054540436919
23598291 2 18409456859968568716
3248919 1 18271516572080893248
58051976 100 18410300228431490109
598444 67 18042131977044184115
74978 22 18412540998590090304
93112 12 18334569131569704524
9709674 26 18334852861346190634

>  <PUBCHEM_SHAPE_MULTIPOLES>  (1) 
283.62
6.71
2.79
1.37
4.91
0.76
0.11
1.02
0.08
0.66
0.11
-1.5
0.25
0.13

>  <PUBCHEM_SHAPE_SELFOVERLAP>  (1) 
494.344

>  <PUBCHEM_SHAPE_VOLUME>  (1) 
188.4

>  <PUBCHEM_COORDINATE_TYPE>  (1) 
2
5
10

$$$$
