33227
     RDKit          3D

 20 21  0  0  1  0  0  0  0  0999 V2000
   -3.6613   -1.7803    0.0177 N   0  0  0  0  0  0  0  0  0  0  0  0
   -0.7321    0.6737    0.4516 C   0  0  0  0  0  0  0  0  0  0  0  0
   -0.6957    2.2389    0.3935 C   0  0  0  0  0  0  0  0  0  0  0  0
   -2.1516    0.1528    0.1026 C   0  0  0  0  0  0  0  0  0  0  0  0
    0.3806   -0.0075   -0.3362 C   0  0  0  0  0  0  0  0  0  0  0  0
   -0.7712    2.8257   -1.0322 C   0  0  0  0  0  0  0  0  0  0  0  0
   -2.3157   -1.3466    0.3784 C   0  0  0  0  0  0  0  0  0  0  0  0
   -1.7682    2.8524    1.3067 C   0  0  0  0  0  0  0  0  0  0  0  0
    1.6248   -0.2456    0.2377 C   0  0  0  0  0  0  0  0  0  0  0  0
    0.0792   -0.3678   -1.6373 C   0  0  0  0  0  0  0  0  0  0  0  0
   -0.6696    4.3465   -1.0668 C   0  0  0  0  0  0  0  0  0  0  0  0
    2.6158   -0.8822   -0.5467 C   0  0  0  0  0  0  0  0  0  0  0  0
    1.0538   -0.9941   -2.4086 C   0  0  0  0  0  0  0  0  0  0  0  0
    1.9262    0.1221    1.5592 C   0  0  0  0  0  0  0  0  0  0  0  0
    2.3144   -1.2503   -1.8681 C   0  0  0  0  0  0  0  0  0  0  0  0
   -4.6610   -1.0829    0.8279 C   0  0  0  0  0  0  0  0  0  0  0  0
   -3.7960   -3.2286    0.1798 C   0  0  0  0  0  0  0  0  0  0  0  0
    3.8792   -1.1324    0.0133 C   0  0  0  0  0  0  0  0  0  0  0  0
    3.1868   -0.1339    2.0993 C   0  0  0  0  0  0  0  0  0  0  0  0
    4.1616   -0.7599    1.3278 C   0  0  0  0  0  0  0  0  0  0  0  0
  1  7  1  0
  1 16  1  0
  1 17  1  0
  2  3  1  0
  2  4  1  0
  2  5  1  0
  3  6  1  0
  3  8  1  0
  4  7  1  0
  5  9  2  0
  5 10  1  0
  6 11  1  0
  9 12  1  0
  9 14  1  0
 10 13  2  0
 12 15  2  0
 12 18  1  0
 13 15  1  0
 14 19  2  0
 18 20  2  0
 19 20  1  0
M  END
>  <PUBCHEM_COMPOUND_CID>  (1) 
33227

>  <PUBCHEM_CONFORMER_RMSD>  (1) 
0.8

>  <PUBCHEM_CONFORMER_DIVERSEORDER>  (1) 
1
23
15
37
22
28
16
38
35
45
29
33
4
25
32
46
31
40
19
26
34
30
6
7
44
27
13
20
42
2
8
24
39
21
14
9
41
10
47
17
5
18
12
11
43
36
3

>  <PUBCHEM_MMFF94_PARTIAL_CHARGES>  (1) 
20
1 -0.81
10 -0.15
13 -0.15
14 -0.15
15 -0.15
16 0.27
17 0.27
18 -0.15
19 -0.15
2 0.14
20 -0.15
32 0.15
36 0.15
37 0.15
38 0.15
45 0.15
46 0.15
47 0.15
5 -0.14
7 0.27

>  <PUBCHEM_EFFECTIVE_ROTOR_COUNT>  (1) 
6

>  <PUBCHEM_PHARMACOPHORE_FEATURES>  (1) 
6
1 1 cation
1 11 hydrophobe
1 8 hydrophobe
4 2 3 4 6 hydrophobe
6 5 9 10 12 13 15 rings
6 9 12 14 18 19 20 rings

>  <PUBCHEM_HEAVY_ATOM_COUNT>  (1) 
20

>  <PUBCHEM_ATOM_DEF_STEREO_COUNT>  (1) 
0

>  <PUBCHEM_ATOM_UDEF_STEREO_COUNT>  (1) 
2

>  <PUBCHEM_BOND_DEF_STEREO_COUNT>  (1) 
0

>  <PUBCHEM_BOND_UDEF_STEREO_COUNT>  (1) 
0

>  <PUBCHEM_ISOTOPIC_ATOM_COUNT>  (1) 
0

>  <PUBCHEM_COMPONENT_COUNT>  (1) 
1

>  <PUBCHEM_CACTVS_TAUTO_COUNT>  (1) 
1

>  <PUBCHEM_CONFORMER_ID>  (1) 
000081CB00000001

>  <PUBCHEM_MMFF94_ENERGY>  (1) 
62.9919

>  <PUBCHEM_FEATURE_SELFOVERLAP>  (1) 
30.637

>  <PUBCHEM_SHAPE_FINGERPRINT>  (1) 
10165383 225 17045742277384391677
10610426 29 17459450286307705806
11582403 64 16615823395823148312
12363563 72 18337112379617235099
12553582 1 18336845164042710211
12788726 201 18041293075225411573
13083527 12 18338510975265608920
13294875 104 16611093141923046716
133893 2 17902529395295164377
13583140 156 18053914326783905370
13681431 1 18193851563615450249
14022347 108 18192458370798557731
14178342 30 18190457147882355754
14787075 74 17824261729449889616
14955137 171 17695632135843150672
16945 1 18190745215443870716
17980427 26 11483065876055927636
1813 80 18336557096243136401
18186145 218 12035721007769897295
18219364 16 16988267686970695834
19049666 15 17629207004840301174
200 152 16370718219397028690
20600515 1 18411421730624228529
21304303 282 17467873451904908933
22112679 90 17969808322292604957
22182313 1 17274259431958026838
23366157 5 17755305909395956733
23419403 2 17028768369130299444
23493267 7 17984138163486211874
23557571 272 18270970050466627749
23559900 14 18270126686636426998
238 59 16411499002708251860
25 1 16984327995095870848
2748010 2 17416961725922077684
394222 165 17618797189710562969
5902787 121 18264211485977936355
6049 1 17774168881536491366
621550 5 17128214626312633782
6442390 28 17548432405561837337
81228 2 18268167382827627209
90316 7 18409166584820068529
9841814 1 18191317180871191747
9981440 41 16840178803647505466

>  <PUBCHEM_SHAPE_MULTIPOLES>  (1) 
406.61
6.88
3.73
1.94
1.15
4.14
0.45
-6.32
-3.07
4.65
0.84
-1.62
-0.02
0.6

>  <PUBCHEM_SHAPE_SELFOVERLAP>  (1) 
842.273

>  <PUBCHEM_SHAPE_VOLUME>  (1) 
234

>  <PUBCHEM_COORDINATE_TYPE>  (1) 
2
5
10

$$$$
