33225
     RDKit          3D

 23 26  0  0  1  0  0  0  0  0999 V2000
    0.7299    0.4478    0.4919 N   0  0  0  0  0  0  0  0  0  0  0  0
   -3.7158    1.3741    0.6667 N   0  0  0  0  0  0  0  0  0  0  0  0
   -1.4310    1.1459   -0.3648 C   0  0  0  0  0  0  0  0  0  0  0  0
    0.0046    1.2680   -0.3263 C   0  0  0  0  0  0  0  0  0  0  0  0
   -2.3573    1.9330    0.5539 C   0  0  0  0  0  0  0  0  0  0  0  0
   -4.2813    1.1409   -0.6655 C   0  0  0  0  0  0  0  0  0  0  0  0
   -3.4490    0.0942   -1.4117 C   0  0  0  0  0  0  0  0  0  0  0  0
    2.0719    0.7317    0.3738 C   0  0  0  0  0  0  0  0  0  0  0  0
   -1.9684    0.2941   -1.2630 C   0  0  0  0  0  0  0  0  0  0  0  0
    2.1925    1.7690   -0.5534 C   0  0  0  0  0  0  0  0  0  0  0  0
    0.8773    2.0968   -0.9866 C   0  0  0  0  0  0  0  0  0  0  0  0
    0.1899   -0.5777    1.3645 C   0  0  0  0  0  0  0  0  0  0  0  0
   -4.5739    2.2614    1.4502 C   0  0  0  0  0  0  0  0  0  0  0  0
    3.1769    0.1554    1.0103 C   0  0  0  0  0  0  0  0  0  0  0  0
    0.0927   -1.9034    0.6593 C   0  0  0  0  0  0  0  0  0  0  0  0
    3.4779    2.2567   -0.8620 C   0  0  0  0  0  0  0  0  0  0  0  0
    4.4419    0.6554    0.6885 C   0  0  0  0  0  0  0  0  0  0  0  0
    4.5924    1.6899   -0.2330 C   0  0  0  0  0  0  0  0  0  0  0  0
    1.1585   -2.3483   -0.1111 C   0  0  0  0  0  0  0  0  0  0  0  0
   -1.0613   -2.6644    0.7889 C   0  0  0  0  0  0  0  0  0  0  0  0
    1.0687   -3.5773   -0.7646 C   0  0  0  0  0  0  0  0  0  0  0  0
   -1.1510   -3.8934    0.1354 C   0  0  0  0  0  0  0  0  0  0  0  0
   -0.0861   -4.3498   -0.6414 C   0  0  0  0  0  0  0  0  0  0  0  0
  1  4  1  0
  1  8  1  0
  1 12  1  0
  2  5  1  0
  2  6  1  0
  2 13  1  0
  3  4  1  0
  3  5  1  0
  3  9  2  0
  4 11  2  0
  6  7  1  0
  7  9  1  0
  8 10  2  0
  8 14  1  0
 10 11  1  0
 10 16  1  0
 12 15  1  0
 14 17  2  0
 15 19  2  0
 15 20  1  0
 16 18  2  0
 17 18  1  0
 19 21  1  0
 20 22  2  0
 21 23  2  0
 22 23  1  0
M  END
>  <PUBCHEM_COMPOUND_CID>  (1) 
33225

>  <PUBCHEM_CONFORMER_RMSD>  (1) 
0.6

>  <PUBCHEM_CONFORMER_DIVERSEORDER>  (1) 
1
2
6
5
12
3
7
15
8
4
9
13
14
10
11

>  <PUBCHEM_MMFF94_PARTIAL_CHARGES>  (1) 
33
1 0.05
11 -0.15
12 0.4
13 0.27
14 -0.15
15 -0.14
16 -0.15
17 -0.15
18 -0.15
19 -0.15
2 -0.81
20 -0.15
21 -0.15
22 -0.15
23 -0.15
3 -0.09
30 0.15
31 0.15
37 0.15
38 0.15
39 0.15
4 -0.2
40 0.15
41 0.15
42 0.15
43 0.15
44 0.15
45 0.15
5 0.41
6 0.27
7 0.14
8 -0.15
9 -0.29

>  <PUBCHEM_EFFECTIVE_ROTOR_COUNT>  (1) 
3.8

>  <PUBCHEM_PHARMACOPHORE_FEATURES>  (1) 
6
1 1 cation
1 2 cation
5 1 4 8 10 11 rings
6 15 19 20 21 22 23 rings
6 2 3 5 6 7 9 rings
6 8 10 14 16 17 18 rings

>  <PUBCHEM_HEAVY_ATOM_COUNT>  (1) 
23

>  <PUBCHEM_ATOM_DEF_STEREO_COUNT>  (1) 
0

>  <PUBCHEM_ATOM_UDEF_STEREO_COUNT>  (1) 
0

>  <PUBCHEM_BOND_DEF_STEREO_COUNT>  (1) 
0

>  <PUBCHEM_BOND_UDEF_STEREO_COUNT>  (1) 
0

>  <PUBCHEM_ISOTOPIC_ATOM_COUNT>  (1) 
0

>  <PUBCHEM_COMPONENT_COUNT>  (1) 
1

>  <PUBCHEM_CACTVS_TAUTO_COUNT>  (1) 
1

>  <PUBCHEM_CONFORMER_ID>  (1) 
000081C900000001

>  <PUBCHEM_MMFF94_ENERGY>  (1) 
57.9875

>  <PUBCHEM_FEATURE_SELFOVERLAP>  (1) 
30.541

>  <PUBCHEM_SHAPE_FINGERPRINT>  (1) 
104564 63 17902791095899481182
10930396 42 15459570933346470088
11421498 54 18201440216993317425
116883 192 17906172107240215590
12035758 1 18265050233225164666
12156800 1 17755619196874137479
12160290 23 17974825565701482451
12422481 6 18044684068176020899
12553582 1 17545597851805659855
12643181 29 18410581683125647014
12715332 25 18334283284801401240
12788726 201 17831577948451092586
13004483 165 17619066574169621426
13140716 1 18337108960670241274
13533116 47 18056749941887464921
13540713 5 17825099574949599188
138480 1 17689996739123641655
14081887 123 17620744424750730216
14790565 3 18410016528557134460
15664445 248 17337046896885064303
16752209 62 18121488322498599802
17138139 8 17767646759213330879
1813 80 17337038088070618239
18785283 64 18192724353453588123
20028762 73 18128540564684196943
20602899 9 18272941543856525202
20645477 70 18117262667664339437
20691752 17 18335423400506454349
20739085 24 18118130169063589776
20775438 99 15535828614705230847
21033650 10 17559421143897656088
22182313 1 18266761188955085262
2255824 54 18195244412771921767
22907989 373 17978232990879863382
23419403 2 17538894287791870802
23557571 272 17619892290480532376
23566358 27 18197783185326126431
283562 15 16965769819225058940
3091708 16 9265309059674399851
352729 6 18337115669218882936
38695281 34 18337381656575147021
458136 41 18339929199188799905
474 4 18337950095633935353
6287921 2 18126559012206338483
7164475 11 17831014990102701204
81228 2 17466215753157397856
8272917 22 18264482880877406589
9862522 239 18264218069909483547

>  <PUBCHEM_SHAPE_MULTIPOLES>  (1) 
463.37
7.33
4.81
1.27
0.06
7.21
0.05
-7.79
0.63
0.88
-0.57
0.6
-0.23
-0.89

>  <PUBCHEM_SHAPE_SELFOVERLAP>  (1) 
1017.359

>  <PUBCHEM_SHAPE_VOLUME>  (1) 
250.6

>  <PUBCHEM_COORDINATE_TYPE>  (1) 
2
5
10

$$$$
