33229
     RDKit          3D

 16 17  0  0  0  0  0  0  0  0999 V2000
   -4.3066    0.0738   -0.4734 N   0  0  0  0  0  0  0  0  0  0  0  0
   -0.9001   -0.7054    1.0601 C   0  0  0  0  0  0  0  0  0  0  0  0
   -1.9465   -0.4136   -0.0253 C   0  0  0  0  0  0  0  0  0  0  0  0
    0.4603   -0.9342    0.4770 C   0  0  0  0  0  0  0  0  0  0  0  0
   -3.3379   -0.2212    0.5759 C   0  0  0  0  0  0  0  0  0  0  0  0
    1.3703    0.1164    0.2751 C   0  0  0  0  0  0  0  0  0  0  0  0
    2.6414   -0.1657   -0.2794 C   0  0  0  0  0  0  0  0  0  0  0  0
    0.7983   -2.2441    0.1364 C   0  0  0  0  0  0  0  0  0  0  0  0
    1.0468    1.4409    0.6122 C   0  0  0  0  0  0  0  0  0  0  0  0
    2.9648   -1.4903   -0.6161 C   0  0  0  0  0  0  0  0  0  0  0  0
    2.0483   -2.5216   -0.4091 C   0  0  0  0  0  0  0  0  0  0  0  0
    3.5513    0.8849   -0.4813 C   0  0  0  0  0  0  0  0  0  0  0  0
   -3.9189    1.2790   -1.2085 C   0  0  0  0  0  0  0  0  0  0  0  0
   -5.6471    0.2338    0.0927 C   0  0  0  0  0  0  0  0  0  0  0  0
    1.9630    2.4724    0.4048 C   0  0  0  0  0  0  0  0  0  0  0  0
    3.2127    2.1949   -0.1411 C   0  0  0  0  0  0  0  0  0  0  0  0
  1  5  1  0
  1 13  1  0
  1 14  1  0
  2  3  1  0
  2  4  1  0
  3  5  1  0
  4  6  2  0
  4  8  1  0
  6  7  1  0
  6  9  1  0
  7 10  2  0
  7 12  1  0
  8 11  2  0
  9 15  2  0
 10 11  1  0
 12 16  2  0
 15 16  1  0
M  END
>  <PUBCHEM_COMPOUND_CID>  (1) 
33229

>  <PUBCHEM_CONFORMER_RMSD>  (1) 
0.6

>  <PUBCHEM_CONFORMER_DIVERSEORDER>  (1) 
1
9
12
19
17
11
4
15
5
18
14
13
8
6
2
10
16
3
7

>  <PUBCHEM_MMFF94_PARTIAL_CHARGES>  (1) 
20
1 -0.81
10 -0.15
11 -0.15
12 -0.15
13 0.27
14 0.27
15 -0.15
16 -0.15
2 0.14
23 0.15
24 0.15
25 0.15
26 0.15
33 0.15
34 0.15
35 0.15
4 -0.14
5 0.27
8 -0.15
9 -0.15

>  <PUBCHEM_EFFECTIVE_ROTOR_COUNT>  (1) 
4

>  <PUBCHEM_PHARMACOPHORE_FEATURES>  (1) 
3
1 1 cation
6 4 6 7 8 10 11 rings
6 6 7 9 12 15 16 rings

>  <PUBCHEM_HEAVY_ATOM_COUNT>  (1) 
16

>  <PUBCHEM_ATOM_DEF_STEREO_COUNT>  (1) 
0

>  <PUBCHEM_ATOM_UDEF_STEREO_COUNT>  (1) 
0

>  <PUBCHEM_BOND_DEF_STEREO_COUNT>  (1) 
0

>  <PUBCHEM_BOND_UDEF_STEREO_COUNT>  (1) 
0

>  <PUBCHEM_ISOTOPIC_ATOM_COUNT>  (1) 
0

>  <PUBCHEM_COMPONENT_COUNT>  (1) 
1

>  <PUBCHEM_CACTVS_TAUTO_COUNT>  (1) 
1

>  <PUBCHEM_CONFORMER_ID>  (1) 
000081CD00000001

>  <PUBCHEM_MMFF94_ENERGY>  (1) 
45.294

>  <PUBCHEM_FEATURE_SELFOVERLAP>  (1) 
15.249

>  <PUBCHEM_SHAPE_FINGERPRINT>  (1) 
10498660 4 17313937508022392909
10608611 8 18334296491614735883
10693767 8 17988651731638420174
10764073 3 16969363650125846136
11265709 11 17976538308861018114
11471102 20 18411985753960693050
116883 192 17695914323662664876
12654215 9 18408888434311354274
12730499 353 18336274521807850939
13009979 54 17344077259958388443
13081056 2 18260267439163859813
14178000 15 18197215850105685354
14251717 144 18341896277030654394
16945 1 18198364990465383290
17134986 127 18267306628363406788
18186145 218 18270974534328036674
20606313 2 18411420600799929114
20645477 70 18272375247870684551
21120745 212 16309901756957947083
21524375 3 18192428786799767050
21639500 275 18341893012844732665
221357 26 18338795611881666013
22289505 5 18337947879589274341
22892500 29 18409449180577450278
231179 274 18113896078406871616
23402655 69 18272091625420615309
23557571 272 17604724386152710435
23598291 2 17702121178628904771
25 1 18410857702327937186
2748010 2 17837794557472411466
3060560 45 18343586239530242918
341906 21 15936400110155843021
4072396 5 18410565194281759520
43658 37 18270396234140536913
474 4 18338237171232305801
495365 180 18200867491356414544
5281201 14 18337954481080251557
543358 83 18270124496165890185
7364860 26 18413388717849581810
7471813 234 17917141689641722360
81228 2 17476363799100642354
8272917 22 18271533017858536967
84936 182 17988644150588268520

>  <PUBCHEM_SHAPE_MULTIPOLES>  (1) 
324.29
8.71
2.56
0.92
14.41
0.03
-0.03
-2.7
-1.93
-2.99
-0.1
0.34
-0.07
0.78

>  <PUBCHEM_SHAPE_SELFOVERLAP>  (1) 
681.527

>  <PUBCHEM_SHAPE_VOLUME>  (1) 
183.8

>  <PUBCHEM_COORDINATE_TYPE>  (1) 
2
5
10

$$$$
