33239
     RDKit          3D

  6  5  0  0  0  0  0  0  0  0999 V2000
   -1.8582   -0.7557   -0.5046 Cl  0  0  0  0  0  0  0  0  0  0  0  0
   -0.3483    1.7289   -0.3340 Cl  0  0  0  0  0  0  0  0  0  0  0  0
   -0.2781   -0.1435    1.4150 F   0  0  0  0  0  0  0  0  0  0  0  0
    1.9883   -0.1262   -0.0845 F   0  0  0  0  0  0  0  0  0  0  0  0
   -0.3504   -0.0036    0.0636 C   0  0  0  0  0  0  0  0  0  0  0  0
    0.8467   -0.6998   -0.5555 C   0  0  0  0  0  0  0  0  0  0  0  0
  1  5  1  0
  2  5  1  0
  3  5  1  0
  4  6  1  0
  5  6  1  0
M  END
>  <PUBCHEM_COMPOUND_CID>  (1) 
33239

>  <PUBCHEM_CONFORMER_RMSD>  (1) 
0.4

>  <PUBCHEM_CONFORMER_DIVERSEORDER>  (1) 
1
2
3

>  <PUBCHEM_MMFF94_PARTIAL_CHARGES>  (1) 
6
1 -0.29
2 -0.29
3 -0.34
4 -0.34
5 0.92
6 0.34

>  <PUBCHEM_EFFECTIVE_ROTOR_COUNT>  (1) 
1

>  <PUBCHEM_PHARMACOPHORE_FEATURES>  (1) 
0

>  <PUBCHEM_HEAVY_ATOM_COUNT>  (1) 
6

>  <PUBCHEM_ATOM_DEF_STEREO_COUNT>  (1) 
0

>  <PUBCHEM_ATOM_UDEF_STEREO_COUNT>  (1) 
0

>  <PUBCHEM_BOND_DEF_STEREO_COUNT>  (1) 
0

>  <PUBCHEM_BOND_UDEF_STEREO_COUNT>  (1) 
0

>  <PUBCHEM_ISOTOPIC_ATOM_COUNT>  (1) 
0

>  <PUBCHEM_COMPONENT_COUNT>  (1) 
1

>  <PUBCHEM_CACTVS_TAUTO_COUNT>  (1) 
1

>  <PUBCHEM_CONFORMER_ID>  (1) 
000081D700000001

>  <PUBCHEM_MMFF94_ENERGY>  (1) 
1.5637

>  <PUBCHEM_FEATURE_SELFOVERLAP>  (1) 
0

>  <PUBCHEM_SHAPE_FINGERPRINT>  (1) 
139733 1 11314301746098100663
16714656 1 18268427945439820541
20096714 4 17396987859789007564
21040471 1 17689996739192044628
24536 1 17315103015674312678
29004967 10 18338240465408879147
5943 1 11823458307905067393

>  <PUBCHEM_SHAPE_MULTIPOLES>  (1) 
112.67
1.92
1.39
0.95
0.01
0.86
0.29
-0.69
-0.34
-0.15
-0.27
-0.07
-0.04
0

>  <PUBCHEM_SHAPE_SELFOVERLAP>  (1) 
188.491

>  <PUBCHEM_SHAPE_VOLUME>  (1) 
78.1

>  <PUBCHEM_COORDINATE_TYPE>  (1) 
2
5
10

$$$$
