33243
     RDKit          3D

 20 21  0  0  0  0  0  0  0  0999 V2000
    3.0595   -0.1251   -0.1923 O   0  0  0  0  0  0  0  0  0  0  0  0
   -3.0450    0.1303    0.1571 O   0  0  0  0  0  0  0  0  0  0  0  0
    4.2846    1.7734    0.2743 O   0  0  0  0  0  0  0  0  0  0  0  0
   -4.2756   -1.7805   -0.2395 O   0  0  0  0  0  0  0  0  0  0  0  0
    7.8310   -0.4607   -0.4851 N   0  0  0  0  0  0  0  0  0  0  0  0
   -7.8228    0.4577    0.5044 N   0  0  0  0  0  0  0  0  0  0  0  0
    9.0631    0.0532    0.0992 C   0  0  0  0  0  0  0  0  0  0  0  0
    8.3083   -1.0688    0.7504 C   0  0  0  0  0  0  0  0  0  0  0  0
   -8.3600    1.0516   -0.7132 C   0  0  0  0  0  0  0  0  0  0  0  0
   -9.0729   -0.0742   -0.0228 C   0  0  0  0  0  0  0  0  0  0  0  0
    6.7170    0.4411   -0.2200 C   0  0  0  0  0  0  0  0  0  0  0  0
   -6.7109   -0.4334    0.1972 C   0  0  0  0  0  0  0  0  0  0  0  0
    5.3910   -0.3043   -0.3393 C   0  0  0  0  0  0  0  0  0  0  0  0
   -5.3842    0.3082    0.3317 C   0  0  0  0  0  0  0  0  0  0  0  0
    4.2114    0.5945   -0.0440 C   0  0  0  0  0  0  0  0  0  0  0  0
   -4.2040   -0.5932    0.0461 C   0  0  0  0  0  0  0  0  0  0  0  0
    0.6669   -0.3439   -0.1525 C   0  0  0  0  0  0  0  0  0  0  0  0
   -0.6631    0.3643    0.0794 C   0  0  0  0  0  0  0  0  0  0  0  0
    1.8472    0.5946    0.0543 C   0  0  0  0  0  0  0  0  0  0  0  0
   -1.8415   -0.5848   -0.0855 C   0  0  0  0  0  0  0  0  0  0  0  0
  1 15  1  0
  1 19  1  0
  2 16  1  0
  2 20  1  0
  3 15  2  0
  4 16  2  0
  5  7  1  0
  5  8  1  0
  5 11  1  0
  6  9  1  0
  6 10  1  0
  6 12  1  0
  7  8  1  0
  9 10  1  0
 11 13  1  0
 12 14  1  0
 13 15  1  0
 14 16  1  0
 17 18  1  0
 17 19  1  0
 18 20  1  0
M  END
>  <PUBCHEM_COMPOUND_CID>  (1) 
33243

>  <PUBCHEM_CONFORMER_RMSD>  (1) 
1.2

>  <PUBCHEM_CONFORMER_DIVERSEORDER>  (1) 
1
39
25
7
27
41
23
43
42
22
11
29
36
28
31
6
14
44
4
15
16
32
8
21
20
26
37
12
19
30
40
24
33
2
9
18
10
35
13
38
3
17
5
34

>  <PUBCHEM_MMFF94_PARTIAL_CHARGES>  (1) 
26
1 -0.43
10 -0.04
11 0.27
12 0.27
13 0.06
14 0.06
15 0.66
16 0.66
19 0.28
2 -0.43
20 0.28
21 0.1
22 0.1
23 0.1
24 0.1
25 0.1
26 0.1
27 0.1
28 0.1
3 -0.57
4 -0.57
5 -0.59
6 -0.59
7 -0.04
8 -0.04
9 -0.04

>  <PUBCHEM_EFFECTIVE_ROTOR_COUNT>  (1) 
14.2

>  <PUBCHEM_PHARMACOPHORE_FEATURES>  (1) 
4
1 3 acceptor
1 4 acceptor
1 5 cation
1 6 cation

>  <PUBCHEM_HEAVY_ATOM_COUNT>  (1) 
20

>  <PUBCHEM_ATOM_DEF_STEREO_COUNT>  (1) 
0

>  <PUBCHEM_ATOM_UDEF_STEREO_COUNT>  (1) 
0

>  <PUBCHEM_BOND_DEF_STEREO_COUNT>  (1) 
0

>  <PUBCHEM_BOND_UDEF_STEREO_COUNT>  (1) 
0

>  <PUBCHEM_ISOTOPIC_ATOM_COUNT>  (1) 
0

>  <PUBCHEM_COMPONENT_COUNT>  (1) 
1

>  <PUBCHEM_CACTVS_TAUTO_COUNT>  (1) 
1

>  <PUBCHEM_CONFORMER_ID>  (1) 
000081DB00000001

>  <PUBCHEM_MMFF94_ENERGY>  (1) 
25.3419

>  <PUBCHEM_FEATURE_SELFOVERLAP>  (1) 
20.297

>  <PUBCHEM_SHAPE_FINGERPRINT>  (1) 
10299344 5 18040716970093208666
106641 1 10663817477297987832
11315181 36 17561369504582290467
13885169 127 18343022168658883297
14123256 10 18410575080368111622
14251764 18 17846503612301812722
14251764 46 18411138034621787974
14428016 248 11458427912036882607
15510794 2 17676493848014872451
16120349 18 14405176288484635450
18335252 98 8286206054173527472
20621476 8 18334856121574229149
21095086 128 16370725941526473235
21362267 313 14260805935969375918
21792934 111 17775278374832326944
220451 1 15502367967483303257
22224240 67 14261351353918795828
232437 2 18334295375102775355
23521765 1 18341896289857306637
246663 6 15357698586923951526
249057 3 18202001053189247445
2835820 82 17823691959580020682
28498 318 18410856542929483894
33684 2 18410856555344822275
5283156 175 18113900447100560182
59682541 35 10592038059744267302
67123 10 18411419522478119293
8209 1 18410856563945312876

>  <PUBCHEM_SHAPE_MULTIPOLES>  (1) 
378.15
34.71
1.1
0.69
0.47
0.01
0
0.11
0.44
-0.01
0.01
-0.03
0
-0.01

>  <PUBCHEM_SHAPE_SELFOVERLAP>  (1) 
733.537

>  <PUBCHEM_SHAPE_VOLUME>  (1) 
231

>  <PUBCHEM_COORDINATE_TYPE>  (1) 
2
5
10

$$$$
