33246
     RDKit          3D

 19 20  0  0  0  0  0  0  0  0999 V2000
    2.8548    2.7926    0.7296 Cl  0  0  0  0  0  0  0  0  0  0  0  0
    0.6592   -1.8917   -1.0121 Cl  0  0  0  0  0  0  0  0  0  0  0  0
    5.8927   -1.6121    0.1928 Cl  0  0  0  0  0  0  0  0  0  0  0  0
   -1.6733    2.6791   -0.5243 Cl  0  0  0  0  0  0  0  0  0  0  0  0
    0.6023    1.0261   -0.2333 N   0  0  0  0  0  0  0  0  0  0  0  0
   -0.5343    0.3285   -0.0558 N   0  0  0  0  0  0  0  0  0  0  0  0
    1.8540    0.4022   -0.1331 C   0  0  0  0  0  0  0  0  0  0  0  0
   -2.9369    0.2165    0.0292 C   0  0  0  0  0  0  0  0  0  0  0  0
    2.9749    1.1220    0.3037 C   0  0  0  0  0  0  0  0  0  0  0  0
    2.0034   -0.9511   -0.4682 C   0  0  0  0  0  0  0  0  0  0  0  0
    4.2200    0.5011    0.4039 C   0  0  0  0  0  0  0  0  0  0  0  0
    3.2484   -1.5719   -0.3679 C   0  0  0  0  0  0  0  0  0  0  0  0
    4.3566   -0.8458    0.0682 C   0  0  0  0  0  0  0  0  0  0  0  0
   -2.9717   -0.8873    0.8813 C   0  0  0  0  0  0  0  0  0  0  0  0
   -4.0922    0.6152   -0.6431 C   0  0  0  0  0  0  0  0  0  0  0  0
   -1.6964    0.9517   -0.1581 C   0  0  0  0  0  0  0  0  0  0  0  0
   -4.1618   -1.5922    1.0611 C   0  0  0  0  0  0  0  0  0  0  0  0
   -5.2824   -0.0895   -0.4630 C   0  0  0  0  0  0  0  0  0  0  0  0
   -5.3172   -1.1933    0.3891 C   0  0  0  0  0  0  0  0  0  0  0  0
  1  9  1  0
  2 10  1  0
  3 13  1  0
  4 16  1  0
  5  6  1  0
  5  7  1  0
  6 16  2  0
  7  9  2  0
  7 10  1  0
  8 14  2  0
  8 15  1  0
  8 16  1  0
  9 11  1  0
 10 12  2  0
 11 13  2  0
 12 13  1  0
 14 17  1  0
 15 18  2  0
 17 19  2  0
 18 19  1  0
M  END
>  <PUBCHEM_COMPOUND_CID>  (1) 
33246

>  <PUBCHEM_CONFORMER_RMSD>  (1) 
0.6

>  <PUBCHEM_CONFORMER_DIVERSEORDER>  (1) 
1
2
6
3
4
5

>  <PUBCHEM_MMFF94_PARTIAL_CHARGES>  (1) 
27
1 -0.18
10 0.18
11 -0.15
12 -0.15
13 0.18
14 -0.15
15 -0.15
16 0.57
17 -0.15
18 -0.15
19 -0.15
2 -0.18
20 0.15
21 0.15
22 0.4
23 0.15
24 0.15
25 0.15
26 0.15
27 0.15
3 -0.18
4 -0.21
5 -0.46
6 -0.49
7 0.1
8 0.09
9 0.18

>  <PUBCHEM_EFFECTIVE_ROTOR_COUNT>  (1) 
3

>  <PUBCHEM_PHARMACOPHORE_FEATURES>  (1) 
4
1 5 donor
1 6 acceptor
6 7 9 10 11 12 13 rings
6 8 14 15 17 18 19 rings

>  <PUBCHEM_HEAVY_ATOM_COUNT>  (1) 
19

>  <PUBCHEM_ATOM_DEF_STEREO_COUNT>  (1) 
0

>  <PUBCHEM_ATOM_UDEF_STEREO_COUNT>  (1) 
0

>  <PUBCHEM_BOND_DEF_STEREO_COUNT>  (1) 
0

>  <PUBCHEM_BOND_UDEF_STEREO_COUNT>  (1) 
1

>  <PUBCHEM_ISOTOPIC_ATOM_COUNT>  (1) 
0

>  <PUBCHEM_COMPONENT_COUNT>  (1) 
1

>  <PUBCHEM_CACTVS_TAUTO_COUNT>  (1) 
1

>  <PUBCHEM_CONFORMER_ID>  (1) 
000081DE00000001

>  <PUBCHEM_MMFF94_ENERGY>  (1) 
65.3865

>  <PUBCHEM_FEATURE_SELFOVERLAP>  (1) 
20.297

>  <PUBCHEM_SHAPE_FINGERPRINT>  (1) 
10 15 18339348761215285112
10366900 7 18261402130520708282
11045977 3 18335138708631218163
12236239 1 16774077379924141399
12403259 226 18410006611762036300
12616971 3 17703788150068233165
12916748 109 12751241419375143655
13402501 40 18409168809333721819
13544653 18 18410016563359243869
14341114 176 18410014342634201112
14341114 328 16773805830659108531
14386348 63 18334860524016051163
14790565 3 17328307355782157900
15196674 1 18409450314649295651
15352361 1 18335422369993942405
15375358 24 18408603682427687959
15880784 105 18059293266278750443
15961568 22 17168707573690500172
17844677 252 18413394237167809569
18222031 100 17385724686471110844
19141452 34 18340492261682101043
19489759 90 17603865581403071671
200 152 18060415803189016969
20028762 73 17988637519159276790
20261772 1 18201998854308787230
20374829 77 18259984868822821563
20645477 70 18342455941291812103
21033648 29 17416099738754596024
21033650 10 16515961463527357981
21065201 7 17603860118104386057
21267235 1 18342462504819615214
21637258 2 16660634104557438242
21682296 61 17916031148997574614
221490 88 18410857646720462464
23402539 116 18187643583499452959
23557571 272 17967247572976192693
23559900 14 18260263070628608501
239999 70 18335139808712402354
26918003 58 18411136922536488251
2871803 45 18333448720636106947
3004659 81 17748826323510490279
3286 77 18408886218119084532
350125 39 18412545422960351708
351380 180 18409728460731102378
4214541 1 18337108973707967637
465052 167 18411703175668309622
5104073 3 18413106134713625112
5283173 99 18115015317521493829
542803 24 13984378868549181855
59755656 215 18189612752905971847
7495541 125 18409168814192736680
9709674 26 18340208471190257095

>  <PUBCHEM_SHAPE_MULTIPOLES>  (1) 
388.53
12.53
2.51
0.9
2.14
1.36
-0.04
-5.28
-1.61
-1.26
-0.06
0.37
-0.13
1.37

>  <PUBCHEM_SHAPE_SELFOVERLAP>  (1) 
793.331

>  <PUBCHEM_SHAPE_VOLUME>  (1) 
223.8

>  <PUBCHEM_COORDINATE_TYPE>  (1) 
2
5
10

$$$$
