33240
     RDKit          3D

  6  5  0  0  0  0  0  0  0  0999 V2000
    0.7553    1.6474    0.5110 Cl  0  0  0  0  0  0  0  0  0  0  0  0
    1.9564   -0.9084   -0.1947 Cl  0  0  0  0  0  0  0  0  0  0  0  0
   -1.7554    0.3569   -0.5530 F   0  0  0  0  0  0  0  0  0  0  0  0
   -0.8362   -0.8214    1.0320 F   0  0  0  0  0  0  0  0  0  0  0  0
    0.6050    0.2057   -0.5183 C   0  0  0  0  0  0  0  0  0  0  0  0
   -0.7251   -0.4802   -0.2770 C   0  0  0  0  0  0  0  0  0  0  0  0
  1  5  1  0
  2  5  1  0
  3  6  1  0
  4  6  1  0
  5  6  1  0
M  END
>  <PUBCHEM_COMPOUND_CID>  (1) 
33240

>  <PUBCHEM_CONFORMER_RMSD>  (1) 
0.4

>  <PUBCHEM_CONFORMER_DIVERSEORDER>  (1) 
1
2
3

>  <PUBCHEM_MMFF94_PARTIAL_CHARGES>  (1) 
6
1 -0.29
2 -0.29
3 -0.34
4 -0.34
5 0.58
6 0.68

>  <PUBCHEM_EFFECTIVE_ROTOR_COUNT>  (1) 
1

>  <PUBCHEM_PHARMACOPHORE_FEATURES>  (1) 
0

>  <PUBCHEM_HEAVY_ATOM_COUNT>  (1) 
6

>  <PUBCHEM_ATOM_DEF_STEREO_COUNT>  (1) 
0

>  <PUBCHEM_ATOM_UDEF_STEREO_COUNT>  (1) 
0

>  <PUBCHEM_BOND_DEF_STEREO_COUNT>  (1) 
0

>  <PUBCHEM_BOND_UDEF_STEREO_COUNT>  (1) 
0

>  <PUBCHEM_ISOTOPIC_ATOM_COUNT>  (1) 
0

>  <PUBCHEM_COMPONENT_COUNT>  (1) 
1

>  <PUBCHEM_CACTVS_TAUTO_COUNT>  (1) 
1

>  <PUBCHEM_CONFORMER_ID>  (1) 
000081D800000001

>  <PUBCHEM_MMFF94_ENERGY>  (1) 
1.7592

>  <PUBCHEM_FEATURE_SELFOVERLAP>  (1) 
0

>  <PUBCHEM_SHAPE_FINGERPRINT>  (1) 
137420 1 14093988173389194892
139733 1 8646477514651169790
20096714 4 17699855325576978432
24536 1 17460307978380960542
29004967 10 18343584018968710542
5943 1 10370733886722513488

>  <PUBCHEM_SHAPE_MULTIPOLES>  (1) 
112.67
2.04
1.45
0.87
0.19
0.77
0.12
-0.58
-0.17
0.5
0.21
-0.15
-0.07
0.16

>  <PUBCHEM_SHAPE_SELFOVERLAP>  (1) 
187.536

>  <PUBCHEM_SHAPE_VOLUME>  (1) 
78.3

>  <PUBCHEM_COORDINATE_TYPE>  (1) 
2
5
10

$$$$
