33252
     RDKit          3D

 24 26  0  0  1  0  0  0  0  0999 V2000
   -0.4303    1.9553    0.4327 O   0  0  0  0  0  0  0  0  0  0  0  0
   -0.0234   -2.6209   -1.2017 O   0  0  0  0  0  0  0  0  0  0  0  0
   -4.8032   -1.9980    1.8986 O   0  0  0  0  0  0  0  0  0  0  0  0
   -2.2725    1.1415   -1.0203 C   0  0  0  0  0  0  0  0  0  0  0  0
   -1.7871   -0.3153   -0.8883 C   0  0  0  0  0  0  0  0  0  0  0  0
   -1.8532    2.0272    0.1916 C   0  0  0  0  0  0  0  0  0  0  0  0
   -3.7619    1.1875   -1.4156 C   0  0  0  0  0  0  0  0  0  0  0  0
   -2.6948   -1.2265   -0.0353 C   0  0  0  0  0  0  0  0  0  0  0  0
   -0.3666   -0.3481   -0.3840 C   0  0  0  0  0  0  0  0  0  0  0  0
   -4.1656   -0.9304   -0.1370 C   0  0  0  0  0  0  0  0  0  0  0  0
    0.2070    0.7634    0.2386 C   0  0  0  0  0  0  0  0  0  0  0  0
   -4.6329    0.1561   -0.7697 C   0  0  0  0  0  0  0  0  0  0  0  0
   -2.0935    3.5166   -0.1360 C   0  0  0  0  0  0  0  0  0  0  0  0
   -2.5640    1.7287    1.5181 C   0  0  0  0  0  0  0  0  0  0  0  0
    0.4043   -1.5119   -0.5402 C   0  0  0  0  0  0  0  0  0  0  0  0
    1.5319    0.7127    0.6862 C   0  0  0  0  0  0  0  0  0  0  0  0
   -5.0845   -1.9225    0.5134 C   0  0  0  0  0  0  0  0  0  0  0  0
    2.2864   -0.4483    0.5274 C   0  0  0  0  0  0  0  0  0  0  0  0
    1.7220   -1.5622   -0.0858 C   0  0  0  0  0  0  0  0  0  0  0  0
    3.6995   -0.4908    1.0019 C   0  0  0  0  0  0  0  0  0  0  0  0
    4.7315   -0.0414   -0.0450 C   0  0  0  0  0  0  0  0  0  0  0  0
    6.1769   -0.1620    0.4476 C   0  0  0  0  0  0  0  0  0  0  0  0
    7.1679    0.2715   -0.6333 C   0  0  0  0  0  0  0  0  0  0  0  0
    8.6059    0.1179   -0.1642 C   0  0  0  0  0  0  0  0  0  0  0  0
  1  6  1  0
  1 11  1  0
  2 15  1  0
  3 17  1  0
  4  5  1  0
  4  6  1  0
  4  7  1  0
  5  8  1  0
  5  9  1  0
  6 13  1  0
  6 14  1  0
  7 12  1  0
  8 10  1  0
  9 11  2  0
  9 15  1  0
 10 12  2  0
 10 17  1  0
 11 16  1  0
 15 19  2  0
 16 18  2  0
 18 19  1  0
 18 20  1  0
 20 21  1  0
 21 22  1  0
 22 23  1  0
 23 24  1  0
M  END
>  <PUBCHEM_COMPOUND_CID>  (1) 
33252

>  <PUBCHEM_CONFORMER_RMSD>  (1) 
0.8

>  <PUBCHEM_CONFORMER_DIVERSEORDER>  (1) 
23
43
9
29
60
56
58
45
54
30
61
55
59
24
40
62
35
52
13
7
48
47
42
50
3
15
57
31
34
21
41
39
17
36
64
49
26
27
28
12
38
2
53
10
44
25
6
32
46
51
33
63
22
37
19
1
11
14
8
20
16
4
5
18

>  <PUBCHEM_MMFF94_PARTIAL_CHARGES>  (1) 
22
1 -0.36
10 -0.28
11 0.08
12 -0.29
15 0.08
16 -0.15
17 0.42
18 -0.14
19 -0.15
2 -0.53
20 0.14
3 -0.68
31 0.15
38 0.15
41 0.15
46 0.45
47 0.4
5 0.14
6 0.28
7 0.14
8 0.14
9 -0.14

>  <PUBCHEM_EFFECTIVE_ROTOR_COUNT>  (1) 
5.8

>  <PUBCHEM_PHARMACOPHORE_FEATURES>  (1) 
10
1 1 acceptor
1 2 donor
1 24 hydrophobe
1 3 acceptor
1 3 donor
3 6 13 14 hydrophobe
4 20 21 22 23 hydrophobe
6 1 4 5 6 9 11 rings
6 4 5 7 8 10 12 rings
6 9 11 15 16 18 19 rings

>  <PUBCHEM_HEAVY_ATOM_COUNT>  (1) 
24

>  <PUBCHEM_ATOM_DEF_STEREO_COUNT>  (1) 
0

>  <PUBCHEM_ATOM_UDEF_STEREO_COUNT>  (1) 
2

>  <PUBCHEM_BOND_DEF_STEREO_COUNT>  (1) 
0

>  <PUBCHEM_BOND_UDEF_STEREO_COUNT>  (1) 
0

>  <PUBCHEM_ISOTOPIC_ATOM_COUNT>  (1) 
0

>  <PUBCHEM_COMPONENT_COUNT>  (1) 
1

>  <PUBCHEM_CACTVS_TAUTO_COUNT>  (1) 
9

>  <PUBCHEM_CONFORMER_ID>  (1) 
000081E400000017

>  <PUBCHEM_MMFF94_ENERGY>  (1) 
59.8541

>  <PUBCHEM_FEATURE_SELFOVERLAP>  (1) 
50.813

>  <PUBCHEM_SHAPE_FINGERPRINT>  (1) 
10366900 7 18129924712120180465
10411042 1 18052813942835416335
10591671 39 18335708252134736750
10670039 82 18341609275354472672
10730089 173 18412260636795516270
10906281 52 18198618827285742517
11315181 36 13767933420805811780
11578080 2 17316182654203450726
12011746 2 18272078401195056197
12166972 35 17749391507617591652
12236239 1 17967808332881134934
12390115 104 17916872313862438136
12403259 415 17774709914609541656
12596602 18 17821722828442253434
12616971 3 12463561903518940720
13073987 5 18410289174072120914
13140716 1 18056190521447621091
13583140 156 17168148910161379296
13631057 29 17967813890046979811
14787075 74 18187643669109129195
15021287 119 13542462094489002698
15042514 8 18199180878947752134
15183329 4 18341895144361990398
16945 1 18341332180927574757
17980427 23 17968387753507064668
18335252 98 18335424578108825322
18608769 82 18342455997849540894
19427546 20 18261390010033815565
21236236 1 18272933787008522984
21267235 1 18341891939630656783
21796203 349 18048065105202026155
22182313 1 18059579018705141734
2297311 6 18342175578975329492
23402539 116 12612748004245539575
23559900 14 18336532885133310705
23569943 247 16557916607051498310
335352 9 18412535506197383285
34797466 226 17703798063823767820
350125 39 18343018895814864528
4325135 7 17821728346921308166
497634 4 18040429967366909988
5104073 3 18199179599606297338
9709674 26 18126840500373782927

>  <PUBCHEM_SHAPE_MULTIPOLES>  (1) 
476.3
15.12
2.56
1.2
36.77
1.06
0.18
-2.01
-0.31
-3.73
0.15
-1.06
-0.08
0.73

>  <PUBCHEM_SHAPE_SELFOVERLAP>  (1) 
999.019

>  <PUBCHEM_SHAPE_VOLUME>  (1) 
267.3

>  <PUBCHEM_COORDINATE_TYPE>  (1) 
2
5
10

$$$$
