33255
     RDKit          3D

 29 32  0  0  1  0  0  0  0  0999 V2000
    0.2983   -0.8199    2.4620 S   0  0  0  0  0  0  0  0  0  0  0  0
   -3.6440    1.0226    0.4262 S   0  0  0  0  0  0  0  0  0  0  0  0
   -6.2722    2.5205    0.0825 S   0  0  0  0  0  0  0  0  0  0  0  0
    1.7680   -1.3572   -1.9157 O   0  0  0  0  0  0  0  0  0  0  0  0
   -1.8983   -2.1604   -2.2259 O   0  0  0  0  0  0  0  0  0  0  0  0
   -1.3498    0.0582   -2.3106 O   0  0  0  0  0  0  0  0  0  0  0  0
    4.5964   -0.7927   -0.6621 O   0  0  0  0  0  0  0  0  0  0  0  0
    0.2743   -1.5216   -0.0985 N   0  0  0  0  0  0  0  0  0  0  0  0
    3.0052   -0.6840    1.0243 N   0  0  0  0  0  0  0  0  0  0  0  0
    6.0043    1.3817    0.3412 N   0  0  0  0  0  0  0  0  0  0  0  0
    7.1994    0.8867    0.6480 N   0  0  0  0  0  0  0  0  0  0  0  0
   -6.1036   -0.0334    0.2079 N   0  0  0  0  0  0  0  0  0  0  0  0
    7.3584    2.4097   -0.9723 N   0  0  0  0  0  0  0  0  0  0  0  0
    8.0340    1.5229   -0.1648 N   0  0  0  0  0  0  0  0  0  0  0  0
   -7.4503    0.2454    0.0522 N   0  0  0  0  0  0  0  0  0  0  0  0
    0.7810   -1.9952    1.1767 C   0  0  0  0  0  0  0  0  0  0  0  0
    2.1916   -1.8131    0.5747 C   0  0  0  0  0  0  0  0  0  0  0  0
    1.4483   -1.5490   -0.7659 C   0  0  0  0  0  0  0  0  0  0  0  0
   -1.0269   -1.2050   -0.3230 C   0  0  0  0  0  0  0  0  0  0  0  0
   -1.8978   -1.0266    0.6987 C   0  0  0  0  0  0  0  0  0  0  0  0
   -1.4866   -1.0619    2.1690 C   0  0  0  0  0  0  0  0  0  0  0  0
   -3.3733   -0.7543    0.5297 C   0  0  0  0  0  0  0  0  0  0  0  0
   -1.4319   -1.0009   -1.7218 C   0  0  0  0  0  0  0  0  0  0  0  0
    4.1557   -0.2652    0.3557 C   0  0  0  0  0  0  0  0  0  0  0  0
    4.8055    0.9207    1.0347 C   0  0  0  0  0  0  0  0  0  0  0  0
   -5.4023    1.0651    0.2366 C   0  0  0  0  0  0  0  0  0  0  0  0
    6.0935    2.3017   -0.6365 C   0  0  0  0  0  0  0  0  0  0  0  0
   -7.6751    1.5395   -0.0261 C   0  0  0  0  0  0  0  0  0  0  0  0
   -9.0015    2.1656   -0.1967 C   0  0  0  0  0  0  0  0  0  0  0  0
  1 16  1  0
  1 21  1  0
  2 22  1  0
  2 26  1  0
  3 26  1  0
  3 28  1  0
  4 18  2  0
  5 23  1  0
  6 23  2  0
  7 24  2  0
  8 16  1  0
  8 18  1  0
  8 19  1  0
  9 17  1  0
  9 24  1  0
 10 11  1  0
 10 25  1  0
 10 27  1  0
 11 14  2  0
 12 15  1  0
 12 26  2  0
 13 14  1  0
 13 27  2  0
 15 28  2  0
 16 17  1  0
 17 18  1  0
 19 20  2  0
 19 23  1  0
 20 21  1  0
 20 22  1  0
 24 25  1  0
 28 29  1  0
M  END
>  <PUBCHEM_COMPOUND_CID>  (1) 
33255

>  <PUBCHEM_CONFORMER_RMSD>  (1) 
1

>  <PUBCHEM_CONFORMER_DIVERSEORDER>  (1) 
1
112
74
88
66
83
109
58
79
89
105
48
115
96
84
19
98
17
87
91
103
97
45
77
39
72
56
111
99
43
26
46
90
100
38
85
40
27
68
78
114
101
9
62
106
104
15
64
71
25
67
95
81
44
61
2
59
5
8
21
36
82
55
20
69
75
70
110
28
24
30
41
80
12
34
65
29
31
108
76
32
86
113
50
10
47
35
13
52
23
16
73
49
92
94
33
54
14
18
6
60
11
22
63
4
102
3
42
107
51
7
57
53
93
37

>  <PUBCHEM_MMFF94_PARTIAL_CHARGES>  (1) 
31
1 -0.45
10 0.31
11 -0.42
12 -0.34
13 -0.34
15 -0.34
16 0.44
17 0.28
18 0.58
19 0.12
2 -0.29
20 -0.28
21 0.37
22 0.37
23 0.71
24 0.57
25 0.32
26 0.43
27 0.04
28 0.2
29 0.18
3 -0.08
34 0.37
39 0.5
4 -0.57
40 0.15
5 -0.65
6 -0.57
7 -0.57
8 -0.39
9 -0.65

>  <PUBCHEM_EFFECTIVE_ROTOR_COUNT>  (1) 
8.6

>  <PUBCHEM_PHARMACOPHORE_FEATURES>  (1) 
13
1 12 acceptor
1 15 acceptor
1 4 acceptor
1 5 acceptor
1 6 acceptor
1 7 acceptor
1 9 donor
3 10 13 27 cation
3 5 6 23 anion
4 8 16 17 18 rings
5 10 11 13 14 27 rings
5 3 12 15 26 28 rings
6 1 8 16 19 20 21 rings

>  <PUBCHEM_HEAVY_ATOM_COUNT>  (1) 
29

>  <PUBCHEM_ATOM_DEF_STEREO_COUNT>  (1) 
2

>  <PUBCHEM_ATOM_UDEF_STEREO_COUNT>  (1) 
0

>  <PUBCHEM_BOND_DEF_STEREO_COUNT>  (1) 
0

>  <PUBCHEM_BOND_UDEF_STEREO_COUNT>  (1) 
0

>  <PUBCHEM_ISOTOPIC_ATOM_COUNT>  (1) 
0

>  <PUBCHEM_COMPONENT_COUNT>  (1) 
1

>  <PUBCHEM_CACTVS_TAUTO_COUNT>  (1) 
2

>  <PUBCHEM_CONFORMER_ID>  (1) 
000081E700000001

>  <PUBCHEM_MMFF94_ENERGY>  (1) 
57.615

>  <PUBCHEM_FEATURE_SELFOVERLAP>  (1) 
67.782

>  <PUBCHEM_SHAPE_FINGERPRINT>  (1) 
10 15 17530683208017542976
10753850 27 9583520910565980600
11991303 11 16988832904856754639
12035758 1 15863790595503606167
12633257 1 16515970362667452586
12895837 130 18337676424465024213
13257819 37 16917066664051544935
13911987 19 17275106115983077027
14114211 68 17275104990490746919
14216079 64 10087640399105807265
14565420 104 17967530151590719586
14767858 380 16128658522544138715
14931854 50 16128661825120599946
15131766 46 18338792446480121592
15183329 4 14620795994083558495
15188451 53 10953453025231275398
15475509 35 7997970150699625172
15510800 12 8718549471108014144
15840311 113 18260269607478766263
15961568 22 18341050731694943657
16994733 274 18410849988477061681
17492 54 17203610371949261971
17980427 23 17459190831866049742
18335252 114 17917993863194172096
18393751 57 17167861975922396746
19841028 212 9799153837146250436
19958102 18 16056616360988376308
20105231 36 13254788072070382341
2026 5 10735889351971332788
20505436 4 18412819187938574830
20511986 3 17386843921158298553
20691028 202 18117280466162333748
20771845 171 17702664337563606071
21307412 95 14045741568702484389
21344244 181 12967119519545973501
21585482 111 18115304467061885221
21639891 77 12757136988102849559
22122407 14 18262247736820515720
22224240 67 17240482511608570019
23569943 247 11815355779150426613
23576562 1 16916205811167294377
24771293 8 17749108898673997381
2838139 119 18340763840737566304
3103668 31 16628539535514013655
34797466 226 18200877258718401439
439807 62 10663819680426826449
5104073 3 15647878324077052361
5718773 13 10303820873658927312
57527585 21 17628617688658442309
58260988 647 10879993566415400279
59682541 35 17313110739860953033
59682541 52 17417823807821492726
6438161 24 9871745784669680157
9689198 14 18410578387498223781

>  <PUBCHEM_SHAPE_MULTIPOLES>  (1) 
545.03
22.88
2.64
1.79
5.96
1.05
0.35
26.73
-0.43
-1.18
0.19
-0.24
-1.03
-0.61

>  <PUBCHEM_SHAPE_SELFOVERLAP>  (1) 
1125.864

>  <PUBCHEM_SHAPE_VOLUME>  (1) 
314.2

>  <PUBCHEM_COORDINATE_TYPE>  (1) 
2
5
10

$$$$
