3326
     RDKit          3D

 28 30  0  0  1  0  0  0  0  0999 V2000
   -3.1581    0.5885    1.6976 O   0  0  0  0  0  0  0  0  0  0  0  0
    1.2218    1.9530   -1.7582 N   0  0  0  0  0  0  0  0  0  0  0  0
   -1.2454    0.4617   -1.1891 N   0  0  0  0  0  0  0  0  0  0  0  0
   -2.1160   -0.1790   -0.2957 N   0  0  0  0  0  0  0  0  0  0  0  0
   -0.9455    1.7121   -0.6505 C   0  0  0  0  0  0  0  0  0  0  0  0
    0.0027    2.6330   -1.3431 C   0  0  0  0  0  0  0  0  0  0  0  0
   -1.6274    1.9550    0.4806 C   0  0  0  0  0  0  0  0  0  0  0  0
    1.8898    1.3405   -0.6075 C   0  0  0  0  0  0  0  0  0  0  0  0
   -1.6746    3.1228    1.3897 C   0  0  0  0  0  0  0  0  0  0  0  0
   -2.4380    0.7241    0.7210 C   0  0  0  0  0  0  0  0  0  0  0  0
    3.0907    0.5083   -1.0928 C   0  0  0  0  0  0  0  0  0  0  0  0
    2.2995    2.4521    0.3587 C   0  0  0  0  0  0  0  0  0  0  0  0
    2.1289    2.8837   -2.4335 C   0  0  0  0  0  0  0  0  0  0  0  0
   -3.0866    3.7139    1.4480 C   0  0  0  0  0  0  0  0  0  0  0  0
   -1.1959    2.7554    2.7988 C   0  0  0  0  0  0  0  0  0  0  0  0
   -1.4753    0.2989   -2.6214 C   0  0  0  0  0  0  0  0  0  0  0  0
   -2.3281   -1.5802   -0.2818 C   0  0  0  0  0  0  0  0  0  0  0  0
    3.5273   -0.5527   -0.1113 C   0  0  0  0  0  0  0  0  0  0  0  0
   -3.3970   -2.1239    0.4374 C   0  0  0  0  0  0  0  0  0  0  0  0
   -1.4704   -2.4293   -0.9880 C   0  0  0  0  0  0  0  0  0  0  0  0
    4.4791   -0.2415    0.8466 C   0  0  0  0  0  0  0  0  0  0  0  0
    2.9684   -1.8185   -0.1866 C   0  0  0  0  0  0  0  0  0  0  0  0
   -3.6062   -3.5031    0.4502 C   0  0  0  0  0  0  0  0  0  0  0  0
   -1.6796   -3.8083   -0.9754 C   0  0  0  0  0  0  0  0  0  0  0  0
    4.8827   -1.2220    1.7531 C   0  0  0  0  0  0  0  0  0  0  0  0
    3.3718   -2.7989    0.7198 C   0  0  0  0  0  0  0  0  0  0  0  0
   -2.7475   -4.3451   -0.2562 C   0  0  0  0  0  0  0  0  0  0  0  0
    4.3290   -2.5006    1.6897 C   0  0  0  0  0  0  0  0  0  0  0  0
  1 10  2  0
  2  6  1  0
  2  8  1  0
  2 13  1  0
  3  4  1  0
  3  5  1  0
  3 16  1  0
  4 10  1  0
  4 17  1  0
  5  6  1  0
  5  7  2  0
  7  9  1  0
  7 10  1  0
  8 11  1  0
  8 12  1  0
  9 14  1  0
  9 15  1  0
 11 18  1  0
 17 19  2  0
 17 20  1  0
 18 21  2  0
 18 22  1  0
 19 23  1  0
 20 24  2  0
 21 25  1  0
 22 26  2  0
 23 27  2  0
 24 27  1  0
 25 28  2  0
 26 28  1  0
M  END
>  <PUBCHEM_COMPOUND_CID>  (1) 
3326

>  <PUBCHEM_CONFORMER_RMSD>  (1) 
0.8

>  <PUBCHEM_CONFORMER_DIVERSEORDER>  (1) 
6
68
21
155
74
125
82
19
84
139
114
101
121
147
136
109
14
145
18
25
163
123
86
141
34
94
49
51
65
91
61
156
32
69
60
98
7
28
162
48
56
120
124
110
39
102
134
129
151
2
160
158
57
77
23
166
107
127
83
119
93
143
92
31
89
157
159
10
76
88
54
122
80
66
130
36
100
16
128
79
97
29
43
90
150
142
71
73
115
62
131
46
78
81
33
95
42
164
99
75
103
40
37
1
138
27
133
45
52
146
149
148
30
53
132
135
44
126
140
152
22
111
59
12
104
137
106
67
9
8
112
165
87
58
113
154
105
64
161
11
13
5
153
118
55
85
41
24
117
144
72
116
15
38
96
3
50
20
47
108
70
4
63
26
17
35

>  <PUBCHEM_MMFF94_PARTIAL_CHARGES>  (1) 
35
1 -0.57
10 0.62
11 0.14
13 0.27
16 0.37
17 0.12
18 -0.14
19 -0.15
2 -0.81
20 -0.15
21 -0.15
22 -0.15
23 -0.15
24 -0.15
25 -0.15
26 -0.15
27 -0.15
28 -0.15
3 -0.49
4 -0.16
5 -0.04
50 0.15
51 0.15
52 0.15
53 0.15
54 0.15
55 0.15
56 0.15
57 0.15
58 0.15
59 0.15
6 0.41
7 -0.12
8 0.27
9 0.14

>  <PUBCHEM_EFFECTIVE_ROTOR_COUNT>  (1) 
7

>  <PUBCHEM_PHARMACOPHORE_FEATURES>  (1) 
6
1 1 acceptor
1 2 cation
3 9 14 15 hydrophobe
5 3 4 5 7 10 rings
6 17 19 20 23 24 27 rings
6 18 21 22 25 26 28 rings

>  <PUBCHEM_HEAVY_ATOM_COUNT>  (1) 
28

>  <PUBCHEM_ATOM_DEF_STEREO_COUNT>  (1) 
0

>  <PUBCHEM_ATOM_UDEF_STEREO_COUNT>  (1) 
1

>  <PUBCHEM_BOND_DEF_STEREO_COUNT>  (1) 
0

>  <PUBCHEM_BOND_UDEF_STEREO_COUNT>  (1) 
0

>  <PUBCHEM_ISOTOPIC_ATOM_COUNT>  (1) 
0

>  <PUBCHEM_COMPONENT_COUNT>  (1) 
1

>  <PUBCHEM_CACTVS_TAUTO_COUNT>  (1) 
1

>  <PUBCHEM_CONFORMER_ID>  (1) 
00000CFE00000006

>  <PUBCHEM_MMFF94_ENERGY>  (1) 
94.0861

>  <PUBCHEM_FEATURE_SELFOVERLAP>  (1) 
30.446

>  <PUBCHEM_SHAPE_FINGERPRINT>  (1) 
10928967 22 17969788463028837218
11070050 100 16694470375931091009
114674 6 16827842699716882771
11552529 35 18341879784952525346
11578080 2 17832689550844856765
12160290 23 17774182135975105989
12539773 59 18192144889255624432
12553582 1 17697051584085280735
12788726 201 18197236920856244451
13004483 165 18339924926223977995
13009979 54 18339082696016846346
14178342 30 18412543189561481458
14705955 166 16843902866467922760
14787075 74 17047122666983253836
14950920 106 18198884960791798578
15274700 34 18190481393621712337
15475509 35 17253161233972230363
15475509 8 11675468235401972161
16110190 28 18120096083533614818
17138139 8 17187016825978064326
19319366 153 17398395707245661862
20764821 26 16393235474314901450
20775530 9 18263352767212195762
21421861 104 18048057421278848431
23598288 3 18201721816096278751
345986 75 18267313203900431987
35225 105 17703518696362040371
392239 28 17625526162486898032
463206 1 17833836353692753794
56638632 10 16828391845303127690
56638632 33 17974836578061569683
7097593 13 18336838506653140124

>  <PUBCHEM_SHAPE_MULTIPOLES>  (1) 
555.41
7.97
5.9
2.25
7.81
2.28
0.12
5.85
-3.77
-4.68
-0.83
0.22
-1.88
-3.42

>  <PUBCHEM_SHAPE_SELFOVERLAP>  (1) 
1174.767

>  <PUBCHEM_SHAPE_VOLUME>  (1) 
312.5

>  <PUBCHEM_COORDINATE_TYPE>  (1) 
2
5
10

$$$$
