33260
     RDKit          3D

 13 13  0  0  0  0  0  0  0  0999 V2000
   -0.6299   -0.9488   -0.1800 O   0  0  0  0  0  0  0  0  0  0  0  0
    2.8843   -0.1254    0.2288 O   0  0  0  0  0  0  0  0  0  0  0  0
    5.1444    1.4595   -0.2275 O   0  0  0  0  0  0  0  0  0  0  0  0
   -1.8510   -0.3879    0.2900 C   0  0  0  0  0  0  0  0  0  0  0  0
   -1.9766    1.0532   -0.2026 C   0  0  0  0  0  0  0  0  0  0  0  0
   -3.0242   -1.2472   -0.1789 C   0  0  0  0  0  0  0  0  0  0  0  0
   -3.3153    1.6671    0.1936 C   0  0  0  0  0  0  0  0  0  0  0  0
   -4.3630   -0.6335    0.2174 C   0  0  0  0  0  0  0  0  0  0  0  0
   -4.4877    0.8073   -0.2728 C   0  0  0  0  0  0  0  0  0  0  0  0
    0.4927   -0.2155    0.2884 C   0  0  0  0  0  0  0  0  0  0  0  0
    1.7607   -0.8716   -0.2232 C   0  0  0  0  0  0  0  0  0  0  0  0
    4.1043   -0.6967   -0.2225 C   0  0  0  0  0  0  0  0  0  0  0  0
    5.2613    0.1395    0.2893 C   0  0  0  0  0  0  0  0  0  0  0  0
  1  4  1  0
  1 10  1  0
  2 11  1  0
  2 12  1  0
  3 13  1  0
  4  5  1  0
  4  6  1  0
  5  7  1  0
  6  8  1  0
  7  9  1  0
  8  9  1  0
 10 11  1  0
 12 13  1  0
M  END
>  <PUBCHEM_COMPOUND_CID>  (1) 
33260

>  <PUBCHEM_CONFORMER_RMSD>  (1) 
0.8

>  <PUBCHEM_CONFORMER_DIVERSEORDER>  (1) 
3
28
47
35
43
23
10
53
13
29
37
11
14
48
54
19
27
5
45
15
49
12
20
17
7
8
42
50
40
34
1
25
56
51
26
44
46
30
21
16
31
32
55
57
4
38
52
24
18
22
41
33
2
36
39
9
6

>  <PUBCHEM_MMFF94_PARTIAL_CHARGES>  (1) 
9
1 -0.56
10 0.28
11 0.28
12 0.28
13 0.28
2 -0.56
3 -0.68
33 0.4
4 0.28

>  <PUBCHEM_EFFECTIVE_ROTOR_COUNT>  (1) 
7.2

>  <PUBCHEM_PHARMACOPHORE_FEATURES>  (1) 
5
1 1 acceptor
1 2 acceptor
1 3 acceptor
1 3 donor
6 4 5 6 7 8 9 rings

>  <PUBCHEM_HEAVY_ATOM_COUNT>  (1) 
13

>  <PUBCHEM_ATOM_DEF_STEREO_COUNT>  (1) 
0

>  <PUBCHEM_ATOM_UDEF_STEREO_COUNT>  (1) 
0

>  <PUBCHEM_BOND_DEF_STEREO_COUNT>  (1) 
0

>  <PUBCHEM_BOND_UDEF_STEREO_COUNT>  (1) 
0

>  <PUBCHEM_ISOTOPIC_ATOM_COUNT>  (1) 
0

>  <PUBCHEM_COMPONENT_COUNT>  (1) 
1

>  <PUBCHEM_CACTVS_TAUTO_COUNT>  (1) 
1

>  <PUBCHEM_CONFORMER_ID>  (1) 
000081EC00000003

>  <PUBCHEM_MMFF94_ENERGY>  (1) 
18.9157

>  <PUBCHEM_FEATURE_SELFOVERLAP>  (1) 
25.376

>  <PUBCHEM_SHAPE_FINGERPRINT>  (1) 
10014705 185 18261390023102917805
10680689 15 18341618130695978091
11128504 68 14476957922130691240
114248 4 18131069333478275346
13081056 2 18412265025977877020
13167823 11 18335697205015095402
13214271 11 18411135831899774815
13897977 58 18410294713772655149
14123238 8 18272932726030138454
15501527 16 18341335500942666761
17834072 33 18412261770234365692
17834076 25 17060339617229656050
18522853 276 18408605863648770613
20300324 65 18341893000429368047
20645477 56 18411983550526458159
20645477 70 17202774700595119654
20767249 213 18334293158820340949
21652331 79 18335419071559701732
23272321 79 18336548308587301676
23402539 116 18408598180152803287
23402655 69 18060417984583945534
23557571 272 18201728344256722676
23559900 14 18128255589140250214
42788 4 18410011039857130434
441001 317 18411418397249636793
449060 50 18410295782961088126
49783359 22 11169917194784782585
77779 3 18411420583630687330
81539 233 17775289331246374262

>  <PUBCHEM_SHAPE_MULTIPOLES>  (1) 
249.93
12.07
1.43
0.65
12.51
0.36
0.01
2.74
-0.07
-0.67
-0.06
-0.04
0
0.03

>  <PUBCHEM_SHAPE_SELFOVERLAP>  (1) 
474.441

>  <PUBCHEM_SHAPE_VOLUME>  (1) 
153.1

>  <PUBCHEM_COORDINATE_TYPE>  (1) 
2
5
10

$$$$
