33277
     RDKit          3D

 22 23  0  0  0  0  0  0  0  0999 V2000
    5.0369    2.5510   -1.5398 Cl  0  0  0  0  0  0  0  0  0  0  0  0
    4.9106   -2.1301    2.1696 Cl  0  0  0  0  0  0  0  0  0  0  0  0
    4.1651    0.1203    0.1738 N   0  0  0  0  0  0  0  0  0  0  0  0
   -2.2769   -0.0756   -0.1080 N   0  0  0  0  0  0  0  0  0  0  0  0
   -3.5467   -0.3323   -0.5124 N   0  0  0  0  0  0  0  0  0  0  0  0
   -5.8944   -0.2180   -0.3174 N   0  0  0  0  0  0  0  0  0  0  0  0
   -4.7507    0.7800    1.2585 N   0  0  0  0  0  0  0  0  0  0  0  0
   -6.2391   -0.9489   -1.4745 N   0  0  0  0  0  0  0  0  0  0  0  0
   -6.0953    0.9426    1.5266 N   0  0  0  0  0  0  0  0  0  0  0  0
    4.6390    1.3061    0.8594 C   0  0  0  0  0  0  0  0  0  0  0  0
    5.1238   -0.8806   -0.2506 C   0  0  0  0  0  0  0  0  0  0  0  0
    2.7900   -0.0510   -0.0893 C   0  0  0  0  0  0  0  0  0  0  0  0
    2.3786   -0.7618   -1.2167 C   0  0  0  0  0  0  0  0  0  0  0  0
    1.8416    0.4917    0.7775 C   0  0  0  0  0  0  0  0  0  0  0  0
    4.2915    2.5635    0.0781 C   0  0  0  0  0  0  0  0  0  0  0  0
    4.8282   -2.2263    0.3928 C   0  0  0  0  0  0  0  0  0  0  0  0
    0.0701   -0.3870   -0.6106 C   0  0  0  0  0  0  0  0  0  0  0  0
    1.0186   -0.9297   -1.4775 C   0  0  0  0  0  0  0  0  0  0  0  0
    0.4816    0.3237    0.5169 C   0  0  0  0  0  0  0  0  0  0  0  0
   -1.3479   -0.5611   -0.8830 C   0  0  0  0  0  0  0  0  0  0  0  0
   -4.6604    0.0856    0.1555 C   0  0  0  0  0  0  0  0  0  0  0  0
   -6.7642    0.3378    0.5710 C   0  0  0  0  0  0  0  0  0  0  0  0
  1 15  1  0
  2 16  1  0
  3 10  1  0
  3 11  1  0
  3 12  1  0
  4  5  1  0
  4 20  2  0
  5 21  1  0
  6  8  1  0
  6 21  1  0
  6 22  1  0
  7  9  1  0
  7 21  2  0
  9 22  2  0
 10 15  1  0
 11 16  1  0
 12 13  2  0
 12 14  1  0
 13 18  1  0
 14 19  2  0
 17 18  2  0
 17 19  1  0
 17 20  1  0
M  END
>  <PUBCHEM_COMPOUND_CID>  (1) 
33277

>  <PUBCHEM_CONFORMER_RMSD>  (1) 
0.8

>  <PUBCHEM_CONFORMER_DIVERSEORDER>  (1) 
1
30
47
39
82
56
70
68
75
43
58
14
54
44
60
73
24
53
29
28
64
67
84
86
9
72
21
66
83
81
16
27
32
55
69
80
46
42
31
8
65
2
79
33
38
7
76
34
18
35
36
61
59
10
17
51
15
19
13
78
49
50
5
57
25
23
37
63
12
41
20
11
6
40
45
85
22
71
4
26
48
62
77
3
74
52

>  <PUBCHEM_MMFF94_PARTIAL_CHARGES>  (1) 
31
1 -0.29
10 0.37
11 0.37
12 0.1
13 -0.15
14 -0.15
15 0.29
16 0.29
17 0.09
18 -0.15
19 -0.15
2 -0.29
20 0.3
21 0.27
22 0.04
27 0.15
28 0.15
3 -0.84
33 0.15
34 0.15
35 0.06
36 0.4
37 0.15
38 0.36
39 0.36
4 -0.49
5 -0.44
6 0.45
7 -0.34
8 -0.87
9 -0.34

>  <PUBCHEM_EFFECTIVE_ROTOR_COUNT>  (1) 
8

>  <PUBCHEM_PHARMACOPHORE_FEATURES>  (1) 
7
1 3 cation
1 4 acceptor
1 5 donor
1 8 donor
4 5 6 7 21 cation
5 6 7 9 21 22 rings
6 12 13 14 17 18 19 rings

>  <PUBCHEM_HEAVY_ATOM_COUNT>  (1) 
22

>  <PUBCHEM_ATOM_DEF_STEREO_COUNT>  (1) 
0

>  <PUBCHEM_ATOM_UDEF_STEREO_COUNT>  (1) 
0

>  <PUBCHEM_BOND_DEF_STEREO_COUNT>  (1) 
0

>  <PUBCHEM_BOND_UDEF_STEREO_COUNT>  (1) 
1

>  <PUBCHEM_ISOTOPIC_ATOM_COUNT>  (1) 
0

>  <PUBCHEM_COMPONENT_COUNT>  (1) 
1

>  <PUBCHEM_CACTVS_TAUTO_COUNT>  (1) 
2

>  <PUBCHEM_CONFORMER_ID>  (1) 
000081FD00000001

>  <PUBCHEM_MMFF94_ENERGY>  (1) 
54.1054

>  <PUBCHEM_FEATURE_SELFOVERLAP>  (1) 
35.522

>  <PUBCHEM_SHAPE_FINGERPRINT>  (1) 
10554248 39 18130217173422976445
10670039 82 16773257127207731984
10912923 1 18343298189016474615
11719270 70 17275101696055814471
12236239 1 18060699498663748263
125118 31 18411143507186343145
12596602 18 18333735741011527385
12616971 3 18201710747754521287
13167372 99 18130792217988692737
13533116 47 18113335280680549802
13673619 4 17676766445426115502
13785724 45 17769946675456455590
13955234 65 17894625960044011962
14251764 18 18202275914385950538
14251764 75 17173228864589090116
14528608 73 17561086942361805125
15183329 4 17489593359408436441
15238133 3 17561363963430783458
15348495 7 18113624520783792009
15475509 35 17386275494779158674
1577012 14 18131351925621476937
17844677 252 18114461171517552765
18222031 100 14779268583652036742
20281389 69 18273214188565403505
212847 35 17775847921564915704
220451 1 18260833704320752999
2303208 19 17095243596884656243
23081809 10 18273494589720785487
23522609 53 18128560269672592393
23559900 14 13190632689148374631
3004659 81 18131073719030222626
312425 54 18040720264280410315
34797466 226 15936701405879402510
397830 11 17241621695881082881
4072396 5 17346312666250955150
4073 2 18188493613056341114
4340502 62 18113330934500706882
5104073 3 18342733061219573371
542803 24 18202566189761076805
8272917 22 18410293627768441054
960060 61 8358254856550420534

>  <PUBCHEM_SHAPE_MULTIPOLES>  (1) 
421.62
17.98
2.09
1.54
29.64
0.58
-0.09
1.02
-3.63
-5.99
-0.29
0.08
-0.25
-1.98

>  <PUBCHEM_SHAPE_SELFOVERLAP>  (1) 
855.301

>  <PUBCHEM_SHAPE_VOLUME>  (1) 
247.1

>  <PUBCHEM_COORDINATE_TYPE>  (1) 
2
5
10

$$$$
