33275
     RDKit          3D

 15 15  0  0  0  0  0  0  0  0999 V2000
   -0.5210   -1.2244    0.1450 O   0  0  0  0  0  0  0  0  0  0  0  0
    1.3133   -2.6088    0.1503 O   0  0  0  0  0  0  0  0  0  0  0  0
    5.8580    0.9436    0.9549 O   0  0  0  0  0  0  0  0  0  0  0  0
   -6.3931    0.3572   -0.5405 O   0  0  0  0  0  0  0  0  0  0  0  0
    1.5637   -0.2769   -0.3242 C   0  0  0  0  0  0  0  0  0  0  0  0
   -0.6253    0.1379   -0.0974 C   0  0  0  0  0  0  0  0  0  0  0  0
    0.6538    0.6879   -0.3792 C   0  0  0  0  0  0  0  0  0  0  0  0
    0.8178   -1.5017    0.0100 C   0  0  0  0  0  0  0  0  0  0  0  0
    2.9695   -0.1952   -0.5350 C   0  0  0  0  0  0  0  0  0  0  0  0
   -1.7891    0.7965   -0.0598 C   0  0  0  0  0  0  0  0  0  0  0  0
    3.7366    0.8198   -0.0945 C   0  0  0  0  0  0  0  0  0  0  0  0
   -3.0517    0.1605    0.2359 C   0  0  0  0  0  0  0  0  0  0  0  0
    5.2128    0.9045   -0.3103 C   0  0  0  0  0  0  0  0  0  0  0  0
   -4.2165    0.8243    0.2727 C   0  0  0  0  0  0  0  0  0  0  0  0
   -5.5287    0.1748    0.5721 C   0  0  0  0  0  0  0  0  0  0  0  0
  1  6  1  0
  1  8  1  0
  2  8  2  0
  3 13  1  0
  4 15  1  0
  5  7  2  0
  5  8  1  0
  5  9  1  0
  6  7  1  0
  6 10  2  0
  9 11  2  0
 10 12  1  0
 11 13  1  0
 12 14  2  0
 14 15  1  0
M  END
>  <PUBCHEM_COMPOUND_CID>  (1) 
33275

>  <PUBCHEM_CONFORMER_RMSD>  (1) 
0.6

>  <PUBCHEM_CONFORMER_DIVERSEORDER>  (1) 
3
13
19
5
20
12
6
10
8
4
17
9
7
15
2
14
1
21
11
18
16

>  <PUBCHEM_MMFF94_PARTIAL_CHARGES>  (1) 
23
1 -0.23
10 -0.15
11 -0.29
12 -0.15
13 0.42
14 -0.29
15 0.42
16 0.15
17 0.15
18 0.15
19 0.15
2 -0.57
20 0.15
23 0.15
26 0.4
27 0.4
3 -0.68
4 -0.68
5 0.01
6 0.08
7 -0.15
8 0.71
9 -0.15

>  <PUBCHEM_EFFECTIVE_ROTOR_COUNT>  (1) 
4.2

>  <PUBCHEM_PHARMACOPHORE_FEATURES>  (1) 
6
1 2 acceptor
1 3 acceptor
1 3 donor
1 4 acceptor
1 4 donor
5 1 5 6 7 8 rings

>  <PUBCHEM_HEAVY_ATOM_COUNT>  (1) 
15

>  <PUBCHEM_ATOM_DEF_STEREO_COUNT>  (1) 
0

>  <PUBCHEM_ATOM_UDEF_STEREO_COUNT>  (1) 
0

>  <PUBCHEM_BOND_DEF_STEREO_COUNT>  (1) 
0

>  <PUBCHEM_BOND_UDEF_STEREO_COUNT>  (1) 
3

>  <PUBCHEM_ISOTOPIC_ATOM_COUNT>  (1) 
0

>  <PUBCHEM_COMPONENT_COUNT>  (1) 
1

>  <PUBCHEM_CACTVS_TAUTO_COUNT>  (1) 
1

>  <PUBCHEM_CONFORMER_ID>  (1) 
000081FB00000003

>  <PUBCHEM_MMFF94_ENERGY>  (1) 
18.8006

>  <PUBCHEM_FEATURE_SELFOVERLAP>  (1) 
30.446

>  <PUBCHEM_SHAPE_FINGERPRINT>  (1) 
11401426 45 18334859428767651293
12236239 1 17775288231718525173
12714333 28 16200151006413102144
13533116 47 18059577941475601334
14251718 22 17418093226508576269
15048467 5 15410898456955032112
15242439 84 11959727153846704621
15375358 24 17894640236209420035
17834072 33 17489585662858579957
17834076 25 18342740723414588837
18006028 8 10809338954010505182
20279233 1 17458639886804467971
204376 136 18408610283475904350
20645477 70 18270967812936808095
20735858 18 18334012804397474121
21054139 6 18340198704704106271
21150785 3 18060128844198790709
22079108 93 18271803553416342496
22224240 67 18336261322935234001
23352939 185 13470691472975336138
23402539 116 18341327885306021253
23402655 69 18340204095109108365
23536379 177 15913335671376704412
23590187 198 12757153489345522649
2916195 48 18131629006498679448
300161 21 18336828598817696345
33824 294 18261115127942478971
366044 4 18409732880579367546
4047638 21 18131356306361252100
4072396 5 18040148513817484712
42630746 31 18412263896401855030
42788 4 17989491813854948205
474229 33 18335704961620023515
5104073 3 18116721712254272113
58051976 378 18409173199259400639

>  <PUBCHEM_SHAPE_MULTIPOLES>  (1) 
285.22
12.85
1.48
0.73
6.76
1.1
0.03
-5.65
1.29
-1.01
0.1
-0.17
-0.08
0.2

>  <PUBCHEM_SHAPE_SELFOVERLAP>  (1) 
583.006

>  <PUBCHEM_SHAPE_VOLUME>  (1) 
166.7

>  <PUBCHEM_COORDINATE_TYPE>  (1) 
2
5
10

$$$$
