33279
     RDKit          3D

 30 32  0  0  1  0  0  0  0  0999 V2000
   -3.9653   -1.9916   -1.7294 S   0  0  0  0  0  0  0  0  0  0  0  0
   -1.7914   -0.1679   -1.7644 O   0  0  0  0  0  0  0  0  0  0  0  0
   -3.9976    1.5816   -0.0646 O   0  0  0  0  0  0  0  0  0  0  0  0
    1.8710    2.7203    0.0734 N   0  0  0  0  0  0  0  0  0  0  0  0
   -1.8559    2.3980   -0.4516 N   0  0  0  0  0  0  0  0  0  0  0  0
    0.3935    2.9202    0.3784 C   0  0  0  0  0  0  0  0  0  0  0  0
    2.1821    1.2313    0.0238 C   0  0  0  0  0  0  0  0  0  0  0  0
   -0.4469    2.2833   -0.7127 C   0  0  0  0  0  0  0  0  0  0  0  0
    2.2016    3.3525   -1.2710 C   0  0  0  0  0  0  0  0  0  0  0  0
    2.7071    3.3773    1.1622 C   0  0  0  0  0  0  0  0  0  0  0  0
    3.6604    1.0103   -0.2780 C   0  0  0  0  0  0  0  0  0  0  0  0
    4.0405   -0.4442   -0.4061 C   0  0  0  0  0  0  0  0  0  0  0  0
   -2.8023    1.3527   -0.2924 C   0  0  0  0  0  0  0  0  0  0  0  0
   -2.3138   -0.1130   -0.4301 C   0  0  0  0  0  0  0  0  0  0  0  0
   -2.3539    3.7770   -0.3348 C   0  0  0  0  0  0  0  0  0  0  0  0
   -1.2318   -0.5267    0.5701 C   0  0  0  0  0  0  0  0  0  0  0  0
    4.4512   -1.1594    0.7189 C   0  0  0  0  0  0  0  0  0  0  0  0
    3.9810   -1.0739   -1.6494 C   0  0  0  0  0  0  0  0  0  0  0  0
   -3.5086   -1.0959   -0.3433 C   0  0  0  0  0  0  0  0  0  0  0  0
    4.8024   -2.5041    0.6007 C   0  0  0  0  0  0  0  0  0  0  0  0
    4.3322   -2.4187   -1.7675 C   0  0  0  0  0  0  0  0  0  0  0  0
   -0.2262   -1.4126    0.1828 C   0  0  0  0  0  0  0  0  0  0  0  0
   -1.2507   -0.0177    1.8687 C   0  0  0  0  0  0  0  0  0  0  0  0
   -4.3096   -1.3778    0.7415 C   0  0  0  0  0  0  0  0  0  0  0  0
    4.7429   -3.1337   -0.6424 C   0  0  0  0  0  0  0  0  0  0  0  0
   -5.3113   -2.3421    0.4305 C   0  0  0  0  0  0  0  0  0  0  0  0
    0.7602   -1.7896    1.0943 C   0  0  0  0  0  0  0  0  0  0  0  0
   -0.2642   -0.3946    2.7800 C   0  0  0  0  0  0  0  0  0  0  0  0
   -5.2379   -2.7603   -0.8800 C   0  0  0  0  0  0  0  0  0  0  0  0
    0.7413   -1.2806    2.3927 C   0  0  0  0  0  0  0  0  0  0  0  0
  1 19  1  0
  1 29  1  0
  2 14  1  0
  3 13  2  0
  4  6  1  0
  4  7  1  0
  4  9  1  0
  4 10  1  0
  5  8  1  0
  5 13  1  0
  5 15  1  0
  6  8  1  0
  7 11  1  0
 11 12  1  0
 12 17  2  0
 12 18  1  0
 13 14  1  0
 14 16  1  0
 14 19  1  0
 16 22  2  0
 16 23  1  0
 17 20  1  0
 18 21  2  0
 19 24  2  0
 20 25  2  0
 21 25  1  0
 22 27  1  0
 23 28  2  0
 24 26  1  0
 26 29  2  0
 27 30  2  0
 28 30  1  0
M  CHG  1   4   1
M  END
>  <PUBCHEM_COMPOUND_CID>  (1) 
33279

>  <PUBCHEM_CONFORMER_RMSD>  (1) 
1

>  <PUBCHEM_CONFORMER_DIVERSEORDER>  (1) 
1
2
133
41
31
80
136
38
64
9
34
19
89
35
49
75
93
95
76
33
86
24
73
18
46
112
103
57
135
142
122
60
53
87
23
132
32
59
116
71
82
97
129
141
91
79
104
130
88
29
114
11
21
96
106
139
105
117
70
62
115
126
111
68
101
77
14
36
121
5
120
10
99
30
43
20
108
102
40
74
56
16
85
54
50
140
72
84
45
83
63
48
55
107
42
92
81
44
119
3
58
52
110
124
109
69
131
100
27
125
94
113
118
65
7
134
61
78
8
128
22
123
26
39
12
127
66
138
17
137
51
90
25
28
13
47
37
6
4
15
67
98

>  <PUBCHEM_MMFF94_PARTIAL_CHARGES>  (1) 
44
1 -0.08
10 0.5
11 0.14
12 -0.14
13 0.57
14 0.66
15 0.3
16 -0.14
17 -0.15
18 -0.15
19 -0.14
2 -0.68
20 -0.15
21 -0.15
22 -0.15
23 -0.15
24 -0.15
25 -0.15
26 -0.15
27 -0.15
28 -0.15
29 -0.11
3 -0.57
30 -0.15
4 -1.01
48 0.15
49 0.15
5 -0.66
50 0.4
51 0.15
52 0.15
53 0.15
54 0.15
55 0.15
56 0.15
57 0.15
58 0.15
59 0.15
6 0.5
60 0.15
61 0.15
7 0.5
8 0.3
9 0.5

>  <PUBCHEM_EFFECTIVE_ROTOR_COUNT>  (1) 
10

>  <PUBCHEM_PHARMACOPHORE_FEATURES>  (1) 
7
1 2 acceptor
1 2 donor
1 3 acceptor
1 4 cation
5 1 19 24 26 29 rings
6 12 17 18 20 21 25 rings
6 16 22 23 27 28 30 rings

>  <PUBCHEM_HEAVY_ATOM_COUNT>  (1) 
30

>  <PUBCHEM_ATOM_DEF_STEREO_COUNT>  (1) 
0

>  <PUBCHEM_ATOM_UDEF_STEREO_COUNT>  (1) 
1

>  <PUBCHEM_BOND_DEF_STEREO_COUNT>  (1) 
0

>  <PUBCHEM_BOND_UDEF_STEREO_COUNT>  (1) 
0

>  <PUBCHEM_ISOTOPIC_ATOM_COUNT>  (1) 
0

>  <PUBCHEM_COMPONENT_COUNT>  (1) 
1

>  <PUBCHEM_CACTVS_TAUTO_COUNT>  (1) 
1

>  <PUBCHEM_CONFORMER_ID>  (1) 
000081FF00000001

>  <PUBCHEM_MMFF94_ENERGY>  (1) 
94.6309

>  <PUBCHEM_FEATURE_SELFOVERLAP>  (1) 
35.522

>  <PUBCHEM_SHAPE_FINGERPRINT>  (1) 
10693767 8 18125143082381389423
10906281 52 17684090562244765889
11093857 51 16244595125749047076
11578080 2 17631995512220443872
12422481 6 17988097620790307895
13165053 137 15888276345434002699
13383661 66 16330230104111781054
1361 2 17980481487753103326
14790565 3 17257934793283674072
15297060 5 17193187873438434616
15848702 151 18341051934031948655
17492 89 18413107268774777910
17909252 39 18340487880124116088
1813 80 18272368693771852047
18393751 57 17407939446684740232
19311894 1 18194402182322294616
19319366 153 17172373074905336729
19930381 70 18265613371433940118
20028762 73 17041204013614331395
20691752 17 17385718110280562085
20775438 99 18049990392532750206
20775530 9 18272932743304953652
21285901 2 17970053650766738557
22393880 68 18041824169728100189
23559900 14 18341317947543203151
23569914 152 17908106951779886743
345986 75 17631745974941903041
354706 35 18043264611787067646
44062 13 18268432338901396006
57527295 17 18187938222899546674
59755656 215 18191581067835590084
6669772 16 17972027313109611634
70251023 43 18409449210874433859

>  <PUBCHEM_SHAPE_MULTIPOLES>  (1) 
599.53
10.71
4.71
1.89
0.96
3.4
-0.75
-10.23
3.23
-1.57
0.98
-0.28
-0.76
0.32

>  <PUBCHEM_SHAPE_SELFOVERLAP>  (1) 
1250.005

>  <PUBCHEM_SHAPE_VOLUME>  (1) 
343.6

>  <PUBCHEM_COORDINATE_TYPE>  (1) 
2
5
10

$$$$
