3328
     RDKit          3D

 20 19  0  0  0  0  0  0  0  0999 V2000
    3.4560   -0.8408    1.3071 S   0  0  0  0  0  0  0  0  0  0  0  0
    6.2121    0.6502   -0.9907 O   0  0  0  0  0  0  0  0  0  0  0  0
    6.3259   -0.9372    0.6318 O   0  0  0  0  0  0  0  0  0  0  0  0
   -1.3731    2.7911   -0.3981 C   0  0  0  0  0  0  0  0  0  0  0  0
   -4.1221    0.5251    1.3453 C   0  0  0  0  0  0  0  0  0  0  0  0
    0.1360    2.6297   -0.1753 C   0  0  0  0  0  0  0  0  0  0  0  0
   -3.3690    1.3557    0.3281 C   0  0  0  0  0  0  0  0  0  0  0  0
   -2.2007    1.9843    0.5639 C   0  0  0  0  0  0  0  0  0  0  0  0
   -4.3496   -0.9327    0.9259 C   0  0  0  0  0  0  0  0  0  0  0  0
    0.6200    1.1964   -0.2346 C   0  0  0  0  0  0  0  0  0  0  0  0
   -3.9949    1.4174   -1.0415 C   0  0  0  0  0  0  0  0  0  0  0  0
   -3.0692   -1.6888    0.7015 C   0  0  0  0  0  0  0  0  0  0  0  0
    1.1628    0.5366    0.8082 C   0  0  0  0  0  0  0  0  0  0  0  0
    0.5140    0.5272   -1.5801 C   0  0  0  0  0  0  0  0  0  0  0  0
   -2.6773   -2.3244   -0.4188 C   0  0  0  0  0  0  0  0  0  0  0  0
    1.7099   -0.8583    0.8147 C   0  0  0  0  0  0  0  0  0  0  0  0
   -3.4538   -2.3617   -1.7040 C   0  0  0  0  0  0  0  0  0  0  0  0
   -1.3647   -3.0597   -0.4602 C   0  0  0  0  0  0  0  0  0  0  0  0
    4.1724   -0.3513   -0.2785 C   0  0  0  0  0  0  0  0  0  0  0  0
    5.6652   -0.2590   -0.1445 C   0  0  0  0  0  0  0  0  0  0  0  0
  1 16  1  0
  1 19  1  0
  2 20  1  0
  3 20  2  0
  4  6  1  0
  4  8  1  0
  5  7  1  0
  5  9  1  0
  6 10  1  0
  7  8  2  0
  7 11  1  0
  9 12  1  0
 10 13  2  0
 10 14  1  0
 12 15  2  3
 13 16  1  0
 15 17  1  0
 15 18  1  0
 19 20  1  0
M  END
>  <PUBCHEM_COMPOUND_CID>  (1) 
3328

>  <PUBCHEM_CONFORMER_RMSD>  (1) 
1.2

>  <PUBCHEM_CONFORMER_DIVERSEORDER>  (1) 
2
87
111
109
91
9
129
21
78
121
10
72
88
73
114
59
141
122
52
1
40
19
77
81
55
149
154
117
156
126
136
48
128
83
124
31
49
158
144
94
54
75
61
57
28
137
152
62
89
65
60
70
12
105
108
42
20
139
43
115
45
96
24
13
118
17
46
35
74
106
71
143
130
67
155
85
11
86
148
33
160
153
47
4
147
37
104
63
103
84
25
68
146
32
97
151
150
134
93
18
116
79
39
159
90
92
38
95
36
145
142
82
53
102
138
123
3
29
110
44
140
14
127
120
51
157
133
64
107
7
99
56
16
98
80
119
101
5
113
100
41
125
26
135
23
112
76
66
132
58
15
131
22
69
34
27
8
50
30
6

>  <PUBCHEM_MMFF94_PARTIAL_CHARGES>  (1) 
24
1 -0.46
10 -0.28
11 0.14
12 -0.29
13 -0.29
14 0.14
15 -0.28
16 0.37
17 0.14
18 0.14
19 0.29
2 -0.65
20 0.66
27 0.15
3 -0.57
33 0.15
34 0.15
4 0.14
48 0.5
5 0.14
6 0.14
7 -0.28
8 -0.29
9 0.14

>  <PUBCHEM_EFFECTIVE_ROTOR_COUNT>  (1) 
10

>  <PUBCHEM_PHARMACOPHORE_FEATURES>  (1) 
9
1 11 hydrophobe
1 14 hydrophobe
1 2 acceptor
1 3 acceptor
3 15 17 18 hydrophobe
3 2 3 20 anion
4 1 13 16 19 hydrophobe
4 4 6 8 10 hydrophobe
4 5 7 9 12 hydrophobe

>  <PUBCHEM_HEAVY_ATOM_COUNT>  (1) 
20

>  <PUBCHEM_ATOM_DEF_STEREO_COUNT>  (1) 
0

>  <PUBCHEM_ATOM_UDEF_STEREO_COUNT>  (1) 
0

>  <PUBCHEM_BOND_DEF_STEREO_COUNT>  (1) 
0

>  <PUBCHEM_BOND_UDEF_STEREO_COUNT>  (1) 
2

>  <PUBCHEM_ISOTOPIC_ATOM_COUNT>  (1) 
0

>  <PUBCHEM_COMPONENT_COUNT>  (1) 
1

>  <PUBCHEM_CACTVS_TAUTO_COUNT>  (1) 
1

>  <PUBCHEM_CONFORMER_ID>  (1) 
00000D0000000002

>  <PUBCHEM_MMFF94_ENERGY>  (1) 
20.1101

>  <PUBCHEM_FEATURE_SELFOVERLAP>  (1) 
45.771

>  <PUBCHEM_SHAPE_FINGERPRINT>  (1) 
10366900 7 17702933751944620881
10906281 52 18121220879475964077
11014199 57 17908419508686207714
11552529 35 17846211189469529163
12553582 1 18335128838838648299
12633257 1 17703519877947506859
14251757 5 18409168848257634738
15415430 112 18335417954530127064
15537594 2 18260552199162818043
16110190 28 18337967760961031281
19377110 9 18041266726418592368
20511986 3 17531518789858192080
20600515 1 18129963211954554597
23402539 116 17748827393527072336
23559900 14 18335695061642084264
339767 52 18187081732656752017
445580 160 18341057307437131750
57583515 115 18412827980131372083
602551 16 18272087206184214850
6437827 68 18197216945697437854

>  <PUBCHEM_SHAPE_MULTIPOLES>  (1) 
403.7
12.07
3.24
1.38
20.48
0.32
0.17
2.96
-0.43
-3.77
0.79
-0.55
0.29
-1.05

>  <PUBCHEM_SHAPE_SELFOVERLAP>  (1) 
754.588

>  <PUBCHEM_SHAPE_VOLUME>  (1) 
253.5

>  <PUBCHEM_COORDINATE_TYPE>  (1) 
2
5
10

$$$$
