33285
     RDKit          3D

 24 25  0  0  1  0  0  0  0  0999 V2000
   -2.8262    2.5709   -1.2970 S   0  0  0  0  0  0  0  0  0  0  0  0
   -1.2518    0.3255   -1.8398 O   0  0  0  0  0  0  0  0  0  0  0  0
    0.1310    1.2353    1.0338 O   0  0  0  0  0  0  0  0  0  0  0  0
    4.4350   -0.0709    0.0037 N   0  0  0  0  0  0  0  0  0  0  0  0
    0.7048   -0.6268   -0.2116 N   0  0  0  0  0  0  0  0  0  0  0  0
    3.0354    0.0455   -0.5826 C   0  0  0  0  0  0  0  0  0  0  0  0
    4.4435    0.5009    1.4142 C   0  0  0  0  0  0  0  0  0  0  0  0
    5.4146    0.7053   -0.8644 C   0  0  0  0  0  0  0  0  0  0  0  0
    4.8464   -1.5356    0.0478 C   0  0  0  0  0  0  0  0  0  0  0  0
    2.0553   -0.7411    0.2676 C   0  0  0  0  0  0  0  0  0  0  0  0
    5.8370    0.3823    1.9914 C   0  0  0  0  0  0  0  0  0  0  0  0
    5.4017    0.1324   -2.2648 C   0  0  0  0  0  0  0  0  0  0  0  0
   -1.5666    0.2712   -0.4376 C   0  0  0  0  0  0  0  0  0  0  0  0
   -0.1735    0.3701    0.2140 C   0  0  0  0  0  0  0  0  0  0  0  0
   -2.2957   -1.0434   -0.1572 C   0  0  0  0  0  0  0  0  0  0  0  0
   -2.4426    1.4806   -0.0716 C   0  0  0  0  0  0  0  0  0  0  0  0
   -3.0622   -1.5989   -1.1565 C   0  0  0  0  0  0  0  0  0  0  0  0
   -2.1581   -1.6226    1.0839 C   0  0  0  0  0  0  0  0  0  0  0  0
   -2.9430    1.7672    1.1403 C   0  0  0  0  0  0  0  0  0  0  0  0
   -3.7041    2.9704    1.0840 C   0  0  0  0  0  0  0  0  0  0  0  0
   -3.7271   -2.7981   -0.9010 C   0  0  0  0  0  0  0  0  0  0  0  0
   -2.8229   -2.8221    1.3393 C   0  0  0  0  0  0  0  0  0  0  0  0
   -3.7233    3.5117   -0.1826 C   0  0  0  0  0  0  0  0  0  0  0  0
   -3.6074   -3.4097    0.3468 C   0  0  0  0  0  0  0  0  0  0  0  0
  1 16  1  0
  1 23  1  0
  2 13  1  0
  3 14  2  0
  4  6  1  0
  4  7  1  0
  4  8  1  0
  4  9  1  0
  5 10  1  0
  5 14  1  0
  6 10  1  0
  7 11  1  0
  8 12  1  0
 13 14  1  0
 13 15  1  0
 13 16  1  0
 15 17  2  0
 15 18  1  0
 16 19  2  0
 17 21  1  0
 18 22  2  0
 19 20  1  0
 20 23  2  0
 21 24  2  0
 22 24  1  0
M  CHG  1   4   1
M  END
>  <PUBCHEM_COMPOUND_CID>  (1) 
33285

>  <PUBCHEM_CONFORMER_RMSD>  (1) 
1

>  <PUBCHEM_CONFORMER_DIVERSEORDER>  (1) 
2
116
87
105
10
104
65
75
111
68
63
132
131
109
90
120
98
100
54
81
95
103
53
66
80
92
135
113
127
59
15
73
134
124
101
74
23
117
115
110
22
62
70
26
138
128
106
121
57
96
41
83
56
47
42
55
77
122
20
140
52
48
45
61
136
39
123
107
126
38
58
40
49
94
133
18
137
25
31
28
114
82
35
33
102
1
34
3
12
84
36
97
11
46
99
17
60
32
76
139
112
93
71
64
88
7
69
86
29
50
8
119
72
67
14
9
91
4
43
89
21
37
85
118
30
16
24
79
125
108
5
130
13
78
6
51
27
44
129
19

>  <PUBCHEM_MMFF94_PARTIAL_CHARGES>  (1) 
32
1 -0.08
10 0.3
13 0.66
14 0.57
15 -0.14
16 -0.14
17 -0.15
18 -0.15
19 -0.15
2 -0.68
20 -0.15
21 -0.15
22 -0.15
23 -0.11
24 -0.15
3 -0.57
4 -1.01
42 0.37
43 0.4
44 0.15
45 0.15
46 0.15
47 0.15
48 0.15
49 0.15
5 -0.73
50 0.15
51 0.15
6 0.5
7 0.5
8 0.5
9 0.5

>  <PUBCHEM_EFFECTIVE_ROTOR_COUNT>  (1) 
9

>  <PUBCHEM_PHARMACOPHORE_FEATURES>  (1) 
7
1 2 acceptor
1 2 donor
1 3 acceptor
1 4 cation
1 5 donor
5 1 16 19 20 23 rings
6 15 17 18 21 22 24 rings

>  <PUBCHEM_HEAVY_ATOM_COUNT>  (1) 
24

>  <PUBCHEM_ATOM_DEF_STEREO_COUNT>  (1) 
0

>  <PUBCHEM_ATOM_UDEF_STEREO_COUNT>  (1) 
1

>  <PUBCHEM_BOND_DEF_STEREO_COUNT>  (1) 
0

>  <PUBCHEM_BOND_UDEF_STEREO_COUNT>  (1) 
0

>  <PUBCHEM_ISOTOPIC_ATOM_COUNT>  (1) 
0

>  <PUBCHEM_COMPONENT_COUNT>  (1) 
1

>  <PUBCHEM_CACTVS_TAUTO_COUNT>  (1) 
2

>  <PUBCHEM_CONFORMER_ID>  (1) 
0000820500000002

>  <PUBCHEM_MMFF94_ENERGY>  (1) 
72.3167

>  <PUBCHEM_FEATURE_SELFOVERLAP>  (1) 
35.526

>  <PUBCHEM_SHAPE_FINGERPRINT>  (1) 
10912923 1 17822009831173612480
11056379 131 18339652221090775782
11101153 10 18118974834833955860
11135926 11 15339128940493003764
11405975 8 18339358548992331434
11545043 162 18131358501390272766
12616971 3 17385725760460912912
12788726 201 18261111936470671939
13004483 165 18194123143198585387
13583140 156 17917704700162632886
14178342 30 18335136479764679234
15131766 46 16083090461094594733
15463212 79 18188763934298116737
15806764 133 17632305596596453880
17844677 252 18272653485006205464
19377110 9 17676491683256169064
20101258 96 18265348359346898321
21033648 29 17703777138109690152
21065201 7 18413672396724796454
21120745 212 18191604123330896029
23227448 37 18409173190163700580
23557571 272 18272101482402325548
23559900 14 18117548750549991301
268830 7 17095529487472895132
283562 15 18336539512621367435
3759504 43 18267306439511537193
4015057 19 17345453934558128248
4058900 60 17764601923669196913
4258327 124 18041574584662750629
44062 13 18412550881720924990
497634 4 18113902688493448622
5104073 3 18340477894926767506
5219985 13 18048034065194562789
53917941 68 18264471919978279853
5924683 9 18408878555464879274
59755656 520 18267582404103210149
633830 44 17553766162432777941
77188 2 17978793734011358729
81228 2 18337100259662169577
90127 26 17704071790003872736
9981440 41 17559946628507696575

>  <PUBCHEM_SHAPE_MULTIPOLES>  (1) 
476.06
12.45
3.78
1.71
22.6
0.11
0.16
-0.66
-0.14
-8.79
-0.39
1.45
-0.22
-0.1

>  <PUBCHEM_SHAPE_SELFOVERLAP>  (1) 
976.288

>  <PUBCHEM_SHAPE_VOLUME>  (1) 
278.2

>  <PUBCHEM_COORDINATE_TYPE>  (1) 
2
5
10

$$$$
