33298
     RDKit          3D

 30 31  0  0  0  0  0  0  0  0999 V2000
    3.7320    0.5371    0.2596 O   0  0  0  0  0  0  0  0  0  0  0  0
   -4.6216   -1.1440    0.8471 O   0  0  0  0  0  0  0  0  0  0  0  0
    3.3788    2.4618    1.4722 O   0  0  0  0  0  0  0  0  0  0  0  0
   -3.5803    2.4485    0.7463 O   0  0  0  0  0  0  0  0  0  0  0  0
    7.2774   -0.4393   -0.0264 N   0  0  0  0  0  0  0  0  0  0  0  0
   -2.5344    0.6388   -0.3196 N   0  0  0  0  0  0  0  0  0  0  0  0
    5.8356   -0.5196   -0.2074 C   0  0  0  0  0  0  0  0  0  0  0  0
    7.8604    0.5461   -0.9402 C   0  0  0  0  0  0  0  0  0  0  0  0
    7.8995   -1.7495   -0.2322 C   0  0  0  0  0  0  0  0  0  0  0  0
    5.1427    0.6473    0.4778 C   0  0  0  0  0  0  0  0  0  0  0  0
    9.3557    0.6887   -0.7126 C   0  0  0  0  0  0  0  0  0  0  0  0
    7.6906   -2.2388   -1.6553 C   0  0  0  0  0  0  0  0  0  0  0  0
   -2.9184   -2.8252    0.9248 C   0  0  0  0  0  0  0  0  0  0  0  0
   -2.4528   -4.1766    0.3903 C   0  0  0  0  0  0  0  0  0  0  0  0
   -4.2534   -2.4119    0.3218 C   0  0  0  0  0  0  0  0  0  0  0  0
   -5.3911   -0.3419    0.0449 C   0  0  0  0  0  0  0  0  0  0  0  0
    1.5362    1.2864    0.5190 C   0  0  0  0  0  0  0  0  0  0  0  0
    2.9433    1.5107    0.8094 C   0  0  0  0  0  0  0  0  0  0  0  0
   -4.9390    0.9153   -0.3556 C   0  0  0  0  0  0  0  0  0  0  0  0
   -1.0989   -4.5655    0.9620 C   0  0  0  0  0  0  0  0  0  0  0  0
   -1.1636    0.8564   -0.0365 C   0  0  0  0  0  0  0  0  0  0  0  0
   -3.6369    1.4114    0.0677 C   0  0  0  0  0  0  0  0  0  0  0  0
    0.5750    2.1765    0.9985 C   0  0  0  0  0  0  0  0  0  0  0  0
    1.1473    0.1815   -0.2382 C   0  0  0  0  0  0  0  0  0  0  0  0
   -0.7748    1.9615    0.7207 C   0  0  0  0  0  0  0  0  0  0  0  0
   -0.2026   -0.0336   -0.5160 C   0  0  0  0  0  0  0  0  0  0  0  0
   -6.6415   -0.7987   -0.3716 C   0  0  0  0  0  0  0  0  0  0  0  0
   -5.7374    1.7159   -1.1727 C   0  0  0  0  0  0  0  0  0  0  0  0
   -7.4398    0.0017   -1.1888 C   0  0  0  0  0  0  0  0  0  0  0  0
   -6.9877    1.2590   -1.5892 C   0  0  0  0  0  0  0  0  0  0  0  0
  1 10  1  0
  1 18  1  0
  2 15  1  0
  2 16  1  0
  3 18  2  0
  4 22  2  0
  5  7  1  0
  5  8  1  0
  5  9  1  0
  6 21  1  0
  6 22  1  0
  7 10  1  0
  8 11  1  0
  9 12  1  0
 13 14  1  0
 13 15  1  0
 14 20  1  0
 16 19  2  0
 16 27  1  0
 17 18  1  0
 17 23  2  0
 17 24  1  0
 19 22  1  0
 19 28  1  0
 21 25  2  0
 21 26  1  0
 23 25  1  0
 24 26  2  0
 27 29  2  0
 28 30  2  0
 29 30  1  0
M  END
>  <PUBCHEM_COMPOUND_CID>  (1) 
33298

>  <PUBCHEM_CONFORMER_RMSD>  (1) 
1.2

>  <PUBCHEM_CONFORMER_DIVERSEORDER>  (1) 
1
37
33
5
22
41
50
49
9
47
20
18
40
13
36
43
2
10
48
42
29
6
11
4
25
46
8
23
32
44
38
3
31
17
16
14
19
34
26
35
21
28
39
7
24
27
45
30
15
12

>  <PUBCHEM_MMFF94_PARTIAL_CHARGES>  (1) 
34
1 -0.43
10 0.28
15 0.28
16 0.08
17 0.09
18 0.63
19 0.09
2 -0.36
21 0.12
22 0.54
23 -0.15
24 -0.15
25 -0.15
26 -0.15
27 -0.15
28 -0.15
29 -0.15
3 -0.57
30 -0.15
4 -0.57
5 -0.81
54 0.15
55 0.15
56 0.37
57 0.15
58 0.15
59 0.15
6 -0.55
60 0.15
61 0.15
62 0.15
7 0.27
8 0.27
9 0.27

>  <PUBCHEM_EFFECTIVE_ROTOR_COUNT>  (1) 
14

>  <PUBCHEM_PHARMACOPHORE_FEATURES>  (1) 
8
1 2 acceptor
1 20 hydrophobe
1 3 acceptor
1 4 acceptor
1 5 cation
1 6 donor
6 16 19 27 28 29 30 rings
6 17 21 23 24 25 26 rings

>  <PUBCHEM_HEAVY_ATOM_COUNT>  (1) 
30

>  <PUBCHEM_ATOM_DEF_STEREO_COUNT>  (1) 
0

>  <PUBCHEM_ATOM_UDEF_STEREO_COUNT>  (1) 
0

>  <PUBCHEM_BOND_DEF_STEREO_COUNT>  (1) 
0

>  <PUBCHEM_BOND_UDEF_STEREO_COUNT>  (1) 
0

>  <PUBCHEM_ISOTOPIC_ATOM_COUNT>  (1) 
0

>  <PUBCHEM_COMPONENT_COUNT>  (1) 
1

>  <PUBCHEM_CACTVS_TAUTO_COUNT>  (1) 
3

>  <PUBCHEM_CONFORMER_ID>  (1) 
0000821200000001

>  <PUBCHEM_MMFF94_ENERGY>  (1) 
82.6056

>  <PUBCHEM_FEATURE_SELFOVERLAP>  (1) 
40.596

>  <PUBCHEM_SHAPE_FINGERPRINT>  (1) 
10369192 42 13190339054607513515
10391435 84 18340200891047551658
11200772 48 18113902684030040002
11315181 36 18334297565636550385
11524674 6 18131627902734406031
12643181 29 18408320003948391778
12655364 131 15984837999179174070
13073987 5 11239731772285957684
14028597 1 13326579527357052542
14117953 113 18186511104177733517
15183329 4 18335136466927101048
15230672 131 18260258625459101738
15347590 135 11527950079885413117
15419008 145 10591775242965593350
15927050 60 18337659893838489667
18681886 176 18114174276856805041
20771845 165 17606953998255041661
21150785 3 17894631448643548540
21267235 1 18060418018912678552
21360443 120 18186799150227981883
23516275 137 17897457098694931186
23559900 14 18268140032666433697
23576562 1 17822296854425683308
249057 3 18040435511795421965
3383291 50 17704067387224980286
4017518 198 18411133641266858071
4073 2 18338794637087308392
44802255 64 16950552274002307455
5265222 85 18114747143419759635
57307002 103 18127973216605188936
58902169 19 17385729123494074966
59755656 215 18410007715257122238
6371380 46 18411131463543806650
9962374 69 17417514904783216012

>  <PUBCHEM_SHAPE_MULTIPOLES>  (1) 
583.95
25.81
3.88
1.21
43.76
5.54
0.19
2.03
12.49
-2.85
-1.43
-0.01
-0.12
2.85

>  <PUBCHEM_SHAPE_SELFOVERLAP>  (1) 
1202.251

>  <PUBCHEM_SHAPE_VOLUME>  (1) 
336.7

>  <PUBCHEM_COORDINATE_TYPE>  (1) 
2
5
10

$$$$
