333
     RDKit          3D

 23 23  0  0  1  0  0  0  0  0999 V2000
   -6.7451    0.2659    0.0660 P   0  0  0  0  0  0  0  0  0  0  0  0
   -1.5921    1.2015   -1.0474 O   0  0  0  0  0  0  0  0  0  0  0  0
   -0.3202   -1.4591    1.1342 O   0  0  0  0  0  0  0  0  0  0  0  0
   -2.9233   -1.3077   -1.1551 O   0  0  0  0  0  0  0  0  0  0  0  0
   -5.2957   -0.4477    0.0510 O   0  0  0  0  0  0  0  0  0  0  0  0
   -7.7558   -0.9864    0.2251 O   0  0  0  0  0  0  0  0  0  0  0  0
   -6.8080    0.9810    1.5150 O   0  0  0  0  0  0  0  0  0  0  0  0
   -7.0258    1.1620   -1.1047 O   0  0  0  0  0  0  0  0  0  0  0  0
    6.8259   -1.2334   -0.0668 O   0  0  0  0  0  0  0  0  0  0  0  0
    5.0130    2.9830    0.1893 O   0  0  0  0  0  0  0  0  0  0  0  0
    2.1164   -0.6377   -0.0261 N   0  0  0  0  0  0  0  0  0  0  0  0
    3.6229    1.1598    0.0806 N   0  0  0  0  0  0  0  0  0  0  0  0
    5.9356    0.8805    0.0601 N   0  0  0  0  0  0  0  0  0  0  0  0
    4.3717   -2.4129   -0.1353 N   0  0  0  0  0  0  0  0  0  0  0  0
   -1.5885    0.3027    0.0609 C   0  0  0  0  0  0  0  0  0  0  0  0
   -0.3245   -0.5784    0.0098 C   0  0  0  0  0  0  0  0  0  0  0  0
   -2.8958   -0.5117    0.0314 C   0  0  0  0  0  0  0  0  0  0  0  0
    0.9699    0.2432    0.0283 C   0  0  0  0  0  0  0  0  0  0  0  0
   -4.1366    0.3799    0.0454 C   0  0  0  0  0  0  0  0  0  0  0  0
    3.3988   -0.2000   -0.0012 C   0  0  0  0  0  0  0  0  0  0  0  0
    4.4495   -1.0503   -0.0535 C   0  0  0  0  0  0  0  0  0  0  0  0
    5.8425   -0.4970   -0.0220 C   0  0  0  0  0  0  0  0  0  0  0  0
    4.8653    1.7627    0.1151 C   0  0  0  0  0  0  0  0  0  0  0  0
  1  5  1  0
  1  6  1  0
  1  7  1  0
  1  8  2  0
  2 15  1  0
  3 16  1  0
  4 17  1  0
  5 19  1  0
  9 22  2  0
 10 23  2  0
 11 18  1  0
 11 20  1  0
 12 20  1  0
 12 23  1  0
 13 22  1  0
 13 23  1  0
 14 21  1  0
 15 16  1  0
 15 17  1  0
 16 18  1  0
 17 19  1  0
 20 21  2  0
 21 22  1  0
M  END
>  <PUBCHEM_COMPOUND_CID>  (1) 
333

>  <PUBCHEM_CONFORMER_RMSD>  (1) 
1

>  <PUBCHEM_CONFORMER_DIVERSEORDER>  (1) 
5
428
95
285
102
444
411
363
136
104
79
295
1
154
249
230
335
375
345
9
107
7
210
322
228
283
145
164
178
139
144
325
425
197
374
156
148
73
268
94
192
168
75
279
408
369
48
150
250
160
206
328
433
98
105
30
261
331
258
66
430
435
223
389
232
405
251
153
395
231
45
276
289
366
130
18
141
423
103
280
128
114
242
161
300
27
4
371
175
342
304
152
315
413
174
247
442
299
17
6
349
344
354
269
24
290
12
278
211
327
220
313
57
339
108
427
209
59
119
400
191
36
291
46
11
412
414
403
303
239
137
265
353
402
80
355
169
124
159
236
417
106
216
318
85
378
33
68
329
217
140
3
183
224
245
309
401
184
34
241
347
120
171
229
58
319
266
368
123
370
253
170
26
384
235
419
185
274
133
22
2
222
373
284
296
199
165
49
361
214
16
218
336
43
166
74
35
362
259
117
321
244
262
110
238
350
86
64
404
10
55
360
14
138
84
97
29
359
381
167
147
340
263
346
56
135
195
203
52
126
176
112
254
386
88
173
396
69
317
83
39
424
115
391
225
348
82
89
190
44
376
129
200
257
439
143
25
116
352
47
134
127
338
31
393
316
142
287
420
343
445
392
240
365
20
334
382
399
409
237
61
28
60
180
162
81
337
118
226
67
177
54
53
443
32
91
76
193
255
212
70
385
418
93
267
437
202
432
326
282
21
146
194
15
215
312
38
109
320
271
234
51
356
297
63
351
37
314
397
330
13
305
407
125
431
310
398
286
308
41
394
131
189
158
333
273
213
233
293
201
101
440
77
275
311
72
436
90
99
441
205
8
270
302
155
364
92
196
172
42
132
181
157
252
208
301
324
298
306
71
438
221
62
383
264
121
388
294
204
256
207
19
122
87
380
248
182
187
406
415
367
357
429
243
358
188
198
410
377
307
434
288
227
96
40
151
78
277
292
387
332
426
186
281
100
23
341
179
390
379
416
149
421
272
163
260
50
65
113
323
111
246
372
219
422

>  <PUBCHEM_MMFF94_PARTIAL_CHARGES>  (1) 
33
1 1.51
10 -0.57
11 -0.87
12 -0.54
13 -0.49
14 -0.9
15 0.28
16 0.28
17 0.28
18 0.37
19 0.28
2 -0.68
20 0.21
21 0.11
22 0.62
23 0.69
3 -0.68
31 0.4
32 0.4
33 0.4
34 0.4
35 0.37
36 0.37
37 0.4
38 0.4
39 0.5
4 -0.68
40 0.5
5 -0.55
6 -0.77
7 -0.77
8 -0.7
9 -0.57

>  <PUBCHEM_EFFECTIVE_ROTOR_COUNT>  (1) 
8

>  <PUBCHEM_PHARMACOPHORE_FEATURES>  (1) 
19
1 10 acceptor
1 11 cation
1 11 donor
1 12 donor
1 13 donor
1 14 cation
1 14 donor
1 2 acceptor
1 2 donor
1 3 acceptor
1 3 donor
1 4 acceptor
1 4 donor
1 6 acceptor
1 7 acceptor
1 8 acceptor
1 9 acceptor
4 1 6 7 8 anion
6 12 13 20 21 22 23 rings

>  <PUBCHEM_HEAVY_ATOM_COUNT>  (1) 
23

>  <PUBCHEM_ATOM_DEF_STEREO_COUNT>  (1) 
0

>  <PUBCHEM_ATOM_UDEF_STEREO_COUNT>  (1) 
3

>  <PUBCHEM_BOND_DEF_STEREO_COUNT>  (1) 
0

>  <PUBCHEM_BOND_UDEF_STEREO_COUNT>  (1) 
0

>  <PUBCHEM_ISOTOPIC_ATOM_COUNT>  (1) 
0

>  <PUBCHEM_COMPONENT_COUNT>  (1) 
1

>  <PUBCHEM_CACTVS_TAUTO_COUNT>  (1) 
19

>  <PUBCHEM_CONFORMER_ID>  (1) 
0000014D00000005

>  <PUBCHEM_MMFF94_ENERGY>  (1) 
21.5331

>  <PUBCHEM_FEATURE_SELFOVERLAP>  (1) 
96.566

>  <PUBCHEM_SHAPE_FINGERPRINT>  (1) 
10299344 5 18131070441907041239
10411042 1 18051413969203841534
12091667 2 17675926487477729355
12236239 1 18343303665463559491
12403259 415 17967523567516461836
125118 31 18187085040156837845
12730499 353 18187365415837847618
13167372 99 18272656709841278089
13533116 47 17095793326965612450
14251764 18 18059857281626361863
14251764 46 17846498124241203398
14933364 13 18409167714507210997
15048467 5 18059858368079118385
15183329 4 17275102830285525377
17844677 252 18411986832171953908
19427546 62 18337111293354193922
20157964 124 18413672418072973914
20281389 69 18408040710978578001
20645477 70 18343867702418545646
21150785 3 14405185096650240729
21267235 1 18412267199579501470
21315763 28 18413107256116384689
221357 26 18410009906318281556
22224240 67 17603866724217859187
22956985 138 14275673498030148120
23081809 10 17703787016507979607
23536379 177 18273215287881637923
23559900 14 18335699494743743376
29717793 49 17632301168479585212
335352 9 18410860954589144150
3545911 37 18040715861785950346
397830 11 17532667917148372233
4073 2 18187650266210674602
4325135 7 18272932717429700062
4463277 17 18407758136426715277
54446538 1 18343021068820305504
59755656 215 17531247223186365387
59755656 520 17967247615963210947

>  <PUBCHEM_SHAPE_MULTIPOLES>  (1) 
404.43
21.81
1.86
0.83
20.66
0.57
-0.03
2.23
-0.91
-3.16
-0.01
1.11
0.05
0.2

>  <PUBCHEM_SHAPE_SELFOVERLAP>  (1) 
805.864

>  <PUBCHEM_SHAPE_VOLUME>  (1) 
238.7

>  <PUBCHEM_COORDINATE_TYPE>  (1) 
2
5
10

$$$$
