33309
     RDKit          3D

 21 23  0  0  0  0  0  0  0  0999 V2000
    6.8003    0.5897    0.1493 S   0  0  0  0  0  0  0  0  0  0  0  0
   -4.9518    0.0320   -0.4364 O   0  0  0  0  0  0  0  0  0  0  0  0
   -3.1511    1.4397   -0.5139 O   0  0  0  0  0  0  0  0  0  0  0  0
    1.7820    0.6514   -0.1397 N   0  0  0  0  0  0  0  0  0  0  0  0
    2.6071   -1.3901    0.1627 N   0  0  0  0  0  0  0  0  0  0  0  0
   -2.9019   -0.8721   -0.2097 N   0  0  0  0  0  0  0  0  0  0  0  0
    4.5193    1.7742   -0.1273 N   0  0  0  0  0  0  0  0  0  0  0  0
    0.6930   -0.1808   -0.0962 C   0  0  0  0  0  0  0  0  0  0  0  0
    1.2341   -1.4493    0.0933 C   0  0  0  0  0  0  0  0  0  0  0  0
   -0.6772    0.0598   -0.2031 C   0  0  0  0  0  0  0  0  0  0  0  0
   -1.5207   -1.0522   -0.1110 C   0  0  0  0  0  0  0  0  0  0  0  0
    2.9013   -0.1173    0.0194 C   0  0  0  0  0  0  0  0  0  0  0  0
    0.3720   -2.5550    0.1839 C   0  0  0  0  0  0  0  0  0  0  0  0
   -1.0075   -2.3373    0.0793 C   0  0  0  0  0  0  0  0  0  0  0  0
   -5.8229    1.0664    0.0356 C   0  0  0  0  0  0  0  0  0  0  0  0
    4.2731    0.4241    0.0284 C   0  0  0  0  0  0  0  0  0  0  0  0
   -7.2665    0.6087   -0.1065 C   0  0  0  0  0  0  0  0  0  0  0  0
   -5.4725    1.3967    1.4785 C   0  0  0  0  0  0  0  0  0  0  0  0
   -3.6115    0.3106   -0.3977 C   0  0  0  0  0  0  0  0  0  0  0  0
    5.3841   -0.3766    0.1912 C   0  0  0  0  0  0  0  0  0  0  0  0
    5.8172    1.9774   -0.0800 C   0  0  0  0  0  0  0  0  0  0  0  0
  1 20  1  0
  1 21  1  0
  2 15  1  0
  2 19  1  0
  3 19  2  0
  4  8  1  0
  4 12  1  0
  5  9  1  0
  5 12  2  0
  6 11  1  0
  6 19  1  0
  7 16  1  0
  7 21  2  0
  8  9  2  0
  8 10  1  0
  9 13  1  0
 10 11  2  0
 11 14  1  0
 12 16  1  0
 13 14  2  0
 15 17  1  0
 15 18  1  0
 16 20  2  0
M  END
>  <PUBCHEM_COMPOUND_CID>  (1) 
33309

>  <PUBCHEM_CONFORMER_RMSD>  (1) 
0.8

>  <PUBCHEM_CONFORMER_DIVERSEORDER>  (1) 
1
25
16
23
10
17
15
9
19
32
14
21
20
13
28
18
11
12
8
31
26
27
22
2
24
3
7
29
6
30
4
5

>  <PUBCHEM_MMFF94_PARTIAL_CHARGES>  (1) 
26
1 -0.08
10 -0.15
11 0.12
12 0.19
13 -0.15
14 -0.15
15 0.28
16 0.23
19 0.78
2 -0.43
20 -0.11
21 0.23
22 0.15
23 0.27
24 0.15
25 0.15
27 0.37
3 -0.57
34 0.15
35 0.15
4 0.03
5 -0.57
6 -0.55
7 -0.57
8 -0.15
9 0.23

>  <PUBCHEM_EFFECTIVE_ROTOR_COUNT>  (1) 
5

>  <PUBCHEM_PHARMACOPHORE_FEATURES>  (1) 
9
1 3 acceptor
1 4 donor
1 6 donor
1 7 acceptor
3 15 17 18 hydrophobe
3 4 5 12 cation
5 1 7 16 20 21 rings
5 4 5 8 9 12 rings
6 8 9 10 11 13 14 rings

>  <PUBCHEM_HEAVY_ATOM_COUNT>  (1) 
21

>  <PUBCHEM_ATOM_DEF_STEREO_COUNT>  (1) 
0

>  <PUBCHEM_ATOM_UDEF_STEREO_COUNT>  (1) 
0

>  <PUBCHEM_BOND_DEF_STEREO_COUNT>  (1) 
0

>  <PUBCHEM_BOND_UDEF_STEREO_COUNT>  (1) 
0

>  <PUBCHEM_ISOTOPIC_ATOM_COUNT>  (1) 
0

>  <PUBCHEM_COMPONENT_COUNT>  (1) 
1

>  <PUBCHEM_CACTVS_TAUTO_COUNT>  (1) 
4

>  <PUBCHEM_CONFORMER_ID>  (1) 
0000821D00000001

>  <PUBCHEM_MMFF94_ENERGY>  (1) 
37.3208

>  <PUBCHEM_FEATURE_SELFOVERLAP>  (1) 
45.778

>  <PUBCHEM_SHAPE_FINGERPRINT>  (1) 
10 15 17821731649709090609
10354089 29 17458062664484934700
10493431 412 18407760343897578119
106641 1 16805328820379599705
10906281 52 18200611262165755836
11724838 91 18260831523168177255
117890 112 18343018917653275408
11796584 16 13830121802235196204
12236239 1 18131631162614070007
12293681 160 17847063280805645331
12390115 104 18340501044193830739
12403259 415 18042120973147775767
12838862 33 18337371799936906597
12892183 10 16226598589971359347
13167372 99 18341895147792067288
13533116 47 17988359266003596962
13631057 29 18270956969041385607
13685833 64 10015580623366560381
13785724 45 17833263126484395954
14251752 14 14979960233235331581
14251764 18 18334572460153372075
14257110 125 18411418410440311775
14790565 3 18411422812423620224
15048467 5 18412261744127120556
15183329 4 15051738568663119427
15188451 53 14851900196444021289
15196674 1 18336543932421880374
15475509 35 15864905410084177610
15716309 27 12251902602892614041
15728490 51 18342739663871515359
15778101 99 18411139168509368174
17980427 23 18115307902882033567
18006028 8 8502654805179258415
18222031 100 11097857358958548890
200 152 8646769993408004271
20281389 69 18260544515471904956
20526848 3 18342742901400955361
20554085 129 17560785642565480690
20645477 56 18333448755053854718
21033648 29 18269546307990334472
21150785 3 15626221329613074793
21236236 1 18338233881588394551
21585482 111 18192435169612766701
21637258 2 11746936520701794811
22224240 67 18113618989303926747
22956985 138 12181496394306786600
23198884 109 16773800286093712393
23402539 116 18271237318081913510
23402655 69 18131067142876422326
23559900 14 18342458158650380134
25147074 1 18339624694819831991
2838139 119 18410284817915038292
293599 30 18410292523286619182
29717793 49 17418100901878826556
3009799 131 16415477164736769314
3014063 24 11386369266106325257
335352 9 18410293610662399182
3472631 163 18342461482121455492
351380 3 8935000360816949881
3545911 37 18407759231094658678
397830 11 15864649390840695277
4073 2 18041564740776874178
4340502 62 16588023498355339122
445580 204 17703516510181853152
465052 167 8286196171406306840
5104073 3 18042677472640496002
5385378 56 18336828593937530706
5758199 1 18412829075522002097
59682541 35 18261403273889091545
59682541 52 17203061698994179484
59755656 520 18335413586601810231
636775 72 18201996685931188584
77188 2 17472695823747213498
999808 66 11959721725361867397

>  <PUBCHEM_SHAPE_MULTIPOLES>  (1) 
404.36
17.59
2.11
0.75
5.69
0.82
0.15
-11.97
1.17
-0.54
0.16
0.63
-0.16
-0.57

>  <PUBCHEM_SHAPE_SELFOVERLAP>  (1) 
864.851

>  <PUBCHEM_SHAPE_VOLUME>  (1) 
227.2

>  <PUBCHEM_COORDINATE_TYPE>  (1) 
2
5
10

$$$$
