33315
     RDKit          3D

 22 24  0  0  1  0  0  0  0  0999 V2000
   -0.3808   -0.0376    2.1598 S   0  0  0  0  0  0  0  0  0  0  0  0
    4.4571   -1.2290    0.2130 N   0  0  0  0  0  0  0  0  0  0  0  0
   -0.4472   -0.4220    0.3350 C   0  0  0  0  0  0  0  0  0  0  0  0
    0.6663   -1.4175    0.0080 C   0  0  0  0  0  0  0  0  0  0  0  0
   -0.2438    0.9156   -0.3613 C   0  0  0  0  0  0  0  0  0  0  0  0
   -0.0779    1.7578    1.9556 C   0  0  0  0  0  0  0  0  0  0  0  0
   -0.0547    2.0268    0.4771 C   0  0  0  0  0  0  0  0  0  0  0  0
   -1.7874   -1.0157    0.0347 C   0  0  0  0  0  0  0  0  0  0  0  0
    2.0423   -0.8133    0.2729 C   0  0  0  0  0  0  0  0  0  0  0  0
   -0.2268    1.0773   -1.7503 C   0  0  0  0  0  0  0  0  0  0  0  0
   -1.1684    2.5349    2.6854 C   0  0  0  0  0  0  0  0  0  0  0  0
    3.1478   -1.8251   -0.0243 C   0  0  0  0  0  0  0  0  0  0  0  0
    0.1638    3.2899   -0.0756 C   0  0  0  0  0  0  0  0  0  0  0  0
   -2.8713   -0.1818   -0.2278 C   0  0  0  0  0  0  0  0  0  0  0  0
   -1.9443   -2.3993    0.0185 C   0  0  0  0  0  0  0  0  0  0  0  0
   -0.0188    2.3436   -2.2964 C   0  0  0  0  0  0  0  0  0  0  0  0
    0.1778    3.4456   -1.4621 C   0  0  0  0  0  0  0  0  0  0  0  0
   -4.1206   -0.7350   -0.5080 C   0  0  0  0  0  0  0  0  0  0  0  0
   -3.1938   -2.9525   -0.2619 C   0  0  0  0  0  0  0  0  0  0  0  0
   -4.2819   -2.1203   -0.5251 C   0  0  0  0  0  0  0  0  0  0  0  0
    4.6418   -0.0412   -0.6226 C   0  0  0  0  0  0  0  0  0  0  0  0
    5.5206   -2.2014   -0.0449 C   0  0  0  0  0  0  0  0  0  0  0  0
  1  3  1  0
  1  6  1  0
  2 12  1  0
  2 21  1  0
  2 22  1  0
  3  4  1  0
  3  5  1  0
  3  8  1  0
  4  9  1  0
  5  7  2  0
  5 10  1  0
  6  7  1  0
  6 11  1  0
  7 13  1  0
  8 14  2  0
  8 15  1  0
  9 12  1  0
 10 16  2  0
 13 17  2  0
 14 18  1  0
 15 19  2  0
 16 17  1  0
 18 20  2  0
 19 20  1  0
M  END
>  <PUBCHEM_COMPOUND_CID>  (1) 
33315

>  <PUBCHEM_CONFORMER_RMSD>  (1) 
0.8

>  <PUBCHEM_CONFORMER_DIVERSEORDER>  (1) 
1
12
16
8
9
7
5
13
3
14
10
6
4
2
11
15

>  <PUBCHEM_MMFF94_PARTIAL_CHARGES>  (1) 
28
1 -0.46
10 -0.15
12 0.27
13 -0.15
14 -0.15
15 -0.15
16 -0.15
17 -0.15
18 -0.15
19 -0.15
2 -0.81
20 -0.15
21 0.27
22 0.27
28 0.15
3 0.52
34 0.15
35 0.15
36 0.15
37 0.15
38 0.15
39 0.15
40 0.15
41 0.15
5 -0.14
6 0.37
7 -0.14
8 -0.14

>  <PUBCHEM_EFFECTIVE_ROTOR_COUNT>  (1) 
5.6

>  <PUBCHEM_PHARMACOPHORE_FEATURES>  (1) 
4
1 2 cation
5 1 3 5 6 7 rings
6 5 7 10 13 16 17 rings
6 8 14 15 18 19 20 rings

>  <PUBCHEM_HEAVY_ATOM_COUNT>  (1) 
22

>  <PUBCHEM_ATOM_DEF_STEREO_COUNT>  (1) 
0

>  <PUBCHEM_ATOM_UDEF_STEREO_COUNT>  (1) 
2

>  <PUBCHEM_BOND_DEF_STEREO_COUNT>  (1) 
0

>  <PUBCHEM_BOND_UDEF_STEREO_COUNT>  (1) 
0

>  <PUBCHEM_ISOTOPIC_ATOM_COUNT>  (1) 
0

>  <PUBCHEM_COMPONENT_COUNT>  (1) 
1

>  <PUBCHEM_CACTVS_TAUTO_COUNT>  (1) 
1

>  <PUBCHEM_CONFORMER_ID>  (1) 
0000822300000001

>  <PUBCHEM_MMFF94_ENERGY>  (1) 
67.7599

>  <PUBCHEM_FEATURE_SELFOVERLAP>  (1) 
20.356

>  <PUBCHEM_SHAPE_FINGERPRINT>  (1) 
10764073 3 16486147088726461707
11045515 52 18259985980939705174
11582403 64 15653517534485252269
12788726 201 17969211244740105018
12916754 54 18340207385049145878
13004483 165 18336256869249891886
13134695 92 17773586303651196521
14142880 1 18056480547883365016
14181834 199 18194692685340932021
14790565 3 17905324031456688861
14817 1 11166226258804539489
14863182 85 16682017775017712271
14910302 57 18056491539084977806
14955137 171 18262537943396874995
15238133 3 17773624735519936035
15849732 13 18266192651633918465
16945 1 18263926712344802137
17980427 26 17054128690988464729
1813 80 18188478181222684346
18769570 83 17822282449337103669
20600515 1 18342747316279182815
21304303 64 17531543056185875853
21452121 71 18341902929892746057
21524375 3 16886388936648094772
2306618 200 18266456504132856074
23352939 185 18408605885329335444
23419403 2 18057296522654956352
23557571 272 18271527494678547398
23559900 14 18120641681792968471
298252 57 11818991889630262786
3178227 256 18335154077148005323
497634 4 18201165343676284254
531348 171 17827922815883172990
57262259 84 18337384933803953446
59755656 520 17553772759475703234
7364860 26 18049438437921459719
81228 2 18194701288160873866
9925002 15 18269017343654586385

>  <PUBCHEM_SHAPE_MULTIPOLES>  (1) 
451.62
7.19
4.1
1.92
7.54
2.16
0.76
-9.38
-1.43
-0.43
-0.58
-0.46
2.15
-0.83

>  <PUBCHEM_SHAPE_SELFOVERLAP>  (1) 
947.839

>  <PUBCHEM_SHAPE_VOLUME>  (1) 
258

>  <PUBCHEM_COORDINATE_TYPE>  (1) 
2
5
10

$$$$
