33335
     RDKit          3D

 10 11  0  0  1  0  0  0  0  0999 V2000
   -3.5374    0.5015   -0.4395 O   0  0  0  0  0  0  0  0  0  0  0  0
   -0.2536   -0.3902    0.2976 O   0  0  0  0  0  0  0  0  0  0  0  0
    1.8738   -1.1359    0.0863 O   0  0  0  0  0  0  0  0  0  0  0  0
   -2.6018    0.0884    0.5460 C   0  0  0  0  0  0  0  0  0  0  0  0
   -3.1441   -0.8769   -0.4431 C   0  0  0  0  0  0  0  0  0  0  0  0
   -1.2255    0.6788    0.3245 C   0  0  0  0  0  0  0  0  0  0  0  0
    1.0168   -0.0816    0.1014 C   0  0  0  0  0  0  0  0  0  0  0  0
    1.6971    1.0969   -0.0995 C   0  0  0  0  0  0  0  0  0  0  0  0
    3.0597    0.7441   -0.2472 C   0  0  0  0  0  0  0  0  0  0  0  0
    3.1149   -0.6250   -0.1264 C   0  0  0  0  0  0  0  0  0  0  0  0
  1  4  1  0
  1  5  1  0
  2  6  1  0
  2  7  1  0
  3  7  1  0
  3 10  1  0
  4  5  1  0
  4  6  1  0
  7  8  2  0
  8  9  1  0
  9 10  2  0
M  END
>  <PUBCHEM_COMPOUND_CID>  (1) 
33335

>  <PUBCHEM_CONFORMER_RMSD>  (1) 
0.6

>  <PUBCHEM_CONFORMER_DIVERSEORDER>  (1) 
1
38
44
8
46
2
30
39
4
42
28
45
13
20
43
6
37
11
21
7
23
41
10
3
35
40
12
17
5
24
29
27
15
19
16
36
9
32
22
33
34
18
26
31
25
14

>  <PUBCHEM_MMFF94_PARTIAL_CHARGES>  (1) 
16
1 -0.3
10 -0.01
11 0.1
12 0.1
13 0.1
16 0.15
17 0.15
18 0.15
2 -0.34
3 -0.28
4 -0.05
5 -0.05
6 0.38
7 0.2
8 -0.15
9 -0.15

>  <PUBCHEM_EFFECTIVE_ROTOR_COUNT>  (1) 
3.6

>  <PUBCHEM_PHARMACOPHORE_FEATURES>  (1) 
4
1 1 acceptor
1 2 acceptor
1 3 acceptor
5 3 7 8 9 10 rings

>  <PUBCHEM_HEAVY_ATOM_COUNT>  (1) 
10

>  <PUBCHEM_ATOM_DEF_STEREO_COUNT>  (1) 
0

>  <PUBCHEM_ATOM_UDEF_STEREO_COUNT>  (1) 
1

>  <PUBCHEM_BOND_DEF_STEREO_COUNT>  (1) 
0

>  <PUBCHEM_BOND_UDEF_STEREO_COUNT>  (1) 
0

>  <PUBCHEM_ISOTOPIC_ATOM_COUNT>  (1) 
0

>  <PUBCHEM_COMPONENT_COUNT>  (1) 
1

>  <PUBCHEM_CACTVS_TAUTO_COUNT>  (1) 
1

>  <PUBCHEM_CONFORMER_ID>  (1) 
0000823700000001

>  <PUBCHEM_MMFF94_ENERGY>  (1) 
12.0535

>  <PUBCHEM_FEATURE_SELFOVERLAP>  (1) 
20.357

>  <PUBCHEM_SHAPE_FINGERPRINT>  (1) 
11062470 55 17675925399954328133
12897270 3 18410856568440805241
12932764 1 13695871458364189401
14144814 61 18343023276464734867
14325111 11 18410294722188412489
14390081 3 17530681009305361221
190213 19 17775286066590673973
20201158 50 18334577931883568075
20645477 70 18337388236560431575
21119208 17 18413670197311079493
23402655 69 18410573963761348789
3248919 1 17346886632594679725

>  <PUBCHEM_SHAPE_MULTIPOLES>  (1) 
188.19
6.34
1.09
0.69
2.36
0.03
0
0.31
-0.85
-0.31
-0.04
0.18
-0.01
-0.19

>  <PUBCHEM_SHAPE_SELFOVERLAP>  (1) 
388.372

>  <PUBCHEM_SHAPE_VOLUME>  (1) 
110.5

>  <PUBCHEM_COORDINATE_TYPE>  (1) 
2
5
10

$$$$
