33332
     RDKit          3D

 21 21  0  0  0  0  0  0  0  0999 V2000
    6.7357    2.9823   -0.0196 Cl  0  0  0  0  0  0  0  0  0  0  0  0
    8.3372   -1.9673   -0.0488 Cl  0  0  0  0  0  0  0  0  0  0  0  0
    3.5318   -0.7886    0.0186 N   0  0  0  0  0  0  0  0  0  0  0  0
    5.8179   -1.3098   -0.0132 N   0  0  0  0  0  0  0  0  0  0  0  0
    5.0791    0.9732    0.0004 N   0  0  0  0  0  0  0  0  0  0  0  0
    7.4254    0.4716   -0.0324 N   0  0  0  0  0  0  0  0  0  0  0  0
   -3.9908   -0.4505    0.0573 C   0  0  0  0  0  0  0  0  0  0  0  0
   -2.6670    0.3196    0.0678 C   0  0  0  0  0  0  0  0  0  0  0  0
   -5.2235    0.4573    0.0255 C   0  0  0  0  0  0  0  0  0  0  0  0
   -1.4352   -0.5874    0.0255 C   0  0  0  0  0  0  0  0  0  0  0  0
   -6.5119   -0.3658   -0.0560 C   0  0  0  0  0  0  0  0  0  0  0  0
   -0.1423    0.2314    0.0698 C   0  0  0  0  0  0  0  0  0  0  0  0
   -7.7816    0.4906   -0.0688 C   0  0  0  0  0  0  0  0  0  0  0  0
   -9.0708   -0.3338   -0.0759 C   0  0  0  0  0  0  0  0  0  0  0  0
    1.0906   -0.6777    0.0573 C   0  0  0  0  0  0  0  0  0  0  0  0
  -10.3046    0.5677   -0.0148 C   0  0  0  0  0  0  0  0  0  0  0  0
    2.4000    0.1064    0.0354 C   0  0  0  0  0  0  0  0  0  0  0  0
  -11.5882   -0.2464    0.0173 C   0  0  0  0  0  0  0  0  0  0  0  0
    4.8505   -0.3618    0.0014 C   0  0  0  0  0  0  0  0  0  0  0  0
    6.3783    1.3120   -0.0169 C   0  0  0  0  0  0  0  0  0  0  0  0
    7.0693   -0.8231   -0.0297 C   0  0  0  0  0  0  0  0  0  0  0  0
  1 20  1  0
  2 21  1  0
  3 17  1  0
  3 19  1  0
  4 19  2  0
  4 21  1  0
  5 19  1  0
  5 20  2  0
  6 20  1  0
  6 21  2  0
  7  8  1  0
  7  9  1  0
  8 10  1  0
  9 11  1  0
 10 12  1  0
 11 13  1  0
 12 15  1  0
 13 14  1  0
 14 16  1  0
 15 17  1  0
 16 18  1  0
M  END
>  <PUBCHEM_COMPOUND_CID>  (1) 
33332

>  <PUBCHEM_CONFORMER_RMSD>  (1) 
1.2

>  <PUBCHEM_CONFORMER_DIVERSEORDER>  (1) 
1
66
130
100
8
81
42
82
5
163
115
19
156
39
102
108
6
31
84
68
141
133
105
142
40
49
92
25
169
127
138
14
129
116
76
56
90
79
155
167
51
26
46
122
144
143
174
29
114
160
17
136
111
162
20
15
85
48
123
21
107
65
164
47
128
22
132
53
12
139
62
154
99
110
93
30
23
121
38
159
158
80
98
109
120
4
135
153
72
89
146
11
64
61
52
54
157
119
166
67
168
125
50
170
95
71
16
137
13
88
32
106
131
161
18
37
176
3
147
73
172
103
175
101
45
134
7
86
118
140
113
60
57
44
94
171
34
75
124
58
9
59
77
117
152
43
165
78
33
173
10
112
87
150
2
96
148
104
41
145
70
74
63
69
24
55
97
91
35
126
151
83
149
28
27
36

>  <PUBCHEM_MMFF94_PARTIAL_CHARGES>  (1) 
11
1 -0.18
17 0.37
19 0.72
2 -0.18
20 0.8
21 0.8
3 -0.87
4 -0.62
47 0.4
5 -0.62
6 -0.62

>  <PUBCHEM_EFFECTIVE_ROTOR_COUNT>  (1) 
12

>  <PUBCHEM_PHARMACOPHORE_FEATURES>  (1) 
4
1 18 hydrophobe
1 3 donor
4 3 4 5 19 cation
6 4 5 6 19 20 21 rings

>  <PUBCHEM_HEAVY_ATOM_COUNT>  (1) 
21

>  <PUBCHEM_ATOM_DEF_STEREO_COUNT>  (1) 
0

>  <PUBCHEM_ATOM_UDEF_STEREO_COUNT>  (1) 
0

>  <PUBCHEM_BOND_DEF_STEREO_COUNT>  (1) 
0

>  <PUBCHEM_BOND_UDEF_STEREO_COUNT>  (1) 
0

>  <PUBCHEM_ISOTOPIC_ATOM_COUNT>  (1) 
0

>  <PUBCHEM_COMPONENT_COUNT>  (1) 
1

>  <PUBCHEM_CACTVS_TAUTO_COUNT>  (1) 
3

>  <PUBCHEM_CONFORMER_ID>  (1) 
0000823400000001

>  <PUBCHEM_MMFF94_ENERGY>  (1) 
17.5995

>  <PUBCHEM_FEATURE_SELFOVERLAP>  (1) 
20.297

>  <PUBCHEM_SHAPE_FINGERPRINT>  (1) 
10299344 5 18131631188310085743
11315181 36 18272374183921081515
12089408 11 18202282520504373423
13533116 47 17095794431378791010
14251764 18 17846502530508273897
14251764 46 18410855455838482243
14251920 1 18412262823377312706
14428016 248 17988649601882831721
15061470 23 18342173359300612073
15510794 2 18334018298615993019
155225 1 18410856603312863592
15840311 113 18261114097261052676
16120349 18 18411698811359148500
20771845 171 17274836757283273524
21150785 3 17917992780830472449
21315763 28 18412263913507617744
21362267 2 18337094762041916277
21362267 313 18264765459887124219
21792934 111 18273206505064005696
22224240 67 17748826328248894363
232437 2 18411419506327203527
23521765 1 18342175562275495147
23581129 1 18409449176171810315
33684 2 18272369759630168411
5283156 175 17989205928352908978
59682541 35 17749392581538275977
67123 10 18411136944728755895
8209 1 18411418406583207307

>  <PUBCHEM_SHAPE_MULTIPOLES>  (1) 
415.99
41.18
1.66
0.61
79.07
0.98
0
0.6
0.89
-6.14
0.02
0.06
0
0.02

>  <PUBCHEM_SHAPE_SELFOVERLAP>  (1) 
783.113

>  <PUBCHEM_SHAPE_VOLUME>  (1) 
253.6

>  <PUBCHEM_COORDINATE_TYPE>  (1) 
2
5
10

$$$$
