3334
     RDKit          3D

 21 23  0  0  0  0  0  0  0  0999 V2000
   -3.4190   -1.6862   -0.8262 S   0  0  0  0  0  0  0  0  0  0  0  0
    5.8211    1.5350   -0.2823 O   0  0  0  0  0  0  0  0  0  0  0  0
    5.2130   -0.3403    0.8724 O   0  0  0  0  0  0  0  0  0  0  0  0
    1.3744    0.5256   -0.9304 N   0  0  0  0  0  0  0  0  0  0  0  0
    2.3370   -0.9510    0.4234 N   0  0  0  0  0  0  0  0  0  0  0  0
    3.6782    0.8495   -0.4521 N   0  0  0  0  0  0  0  0  0  0  0  0
    0.3859   -0.3646   -0.5976 C   0  0  0  0  0  0  0  0  0  0  0  0
    1.0116   -1.2763    0.2480 C   0  0  0  0  0  0  0  0  0  0  0  0
   -0.9608   -0.4480   -0.9528 C   0  0  0  0  0  0  0  0  0  0  0  0
   -1.6890   -1.5139   -0.4142 C   0  0  0  0  0  0  0  0  0  0  0  0
    2.5203    0.1331   -0.2963 C   0  0  0  0  0  0  0  0  0  0  0  0
    0.2648   -2.3408    0.7802 C   0  0  0  0  0  0  0  0  0  0  0  0
   -1.0892   -2.4445    0.4372 C   0  0  0  0  0  0  0  0  0  0  0  0
   -4.0758   -0.1446   -0.2080 C   0  0  0  0  0  0  0  0  0  0  0  0
   -3.9552    0.1682    1.1442 C   0  0  0  0  0  0  0  0  0  0  0  0
   -4.7063    0.7403   -1.0798 C   0  0  0  0  0  0  0  0  0  0  0  0
   -4.4680    1.3722    1.6270 C   0  0  0  0  0  0  0  0  0  0  0  0
   -5.2191    1.9442   -0.5968 C   0  0  0  0  0  0  0  0  0  0  0  0
    4.9223    0.5830    0.1221 C   0  0  0  0  0  0  0  0  0  0  0  0
   -5.0999    2.2601    0.7566 C   0  0  0  0  0  0  0  0  0  0  0  0
    7.1537    1.3992    0.2254 C   0  0  0  0  0  0  0  0  0  0  0  0
  1 10  1  0
  1 14  1  0
  2 19  1  0
  2 21  1  0
  3 19  2  0
  4  7  1  0
  4 11  1  0
  5  8  1  0
  5 11  2  0
  6 11  1  0
  6 19  1  0
  7  8  2  0
  7  9  1  0
  8 12  1  0
  9 10  2  0
 10 13  1  0
 12 13  2  0
 14 15  2  0
 14 16  1  0
 15 17  1  0
 16 18  2  0
 17 20  2  0
 18 20  1  0
M  END
>  <PUBCHEM_COMPOUND_CID>  (1) 
3334

>  <PUBCHEM_CONFORMER_RMSD>  (1) 
0.8

>  <PUBCHEM_CONFORMER_DIVERSEORDER>  (1) 
1
14
10
20
18
17
13
5
2
11
6
4
19
9
3
15
12
16
7
8

>  <PUBCHEM_MMFF94_PARTIAL_CHARGES>  (1) 
31
1 -0.2
10 0.1
11 0.25
12 -0.15
13 -0.15
14 0.1
15 -0.15
16 -0.15
17 -0.15
18 -0.15
19 0.78
2 -0.43
20 -0.15
21 0.28
22 0.15
23 0.27
24 0.15
25 0.15
26 0.37
27 0.15
28 0.15
29 0.15
3 -0.57
30 0.15
31 0.15
4 0.03
5 -0.57
6 -0.49
7 -0.15
8 0.23
9 -0.15

>  <PUBCHEM_EFFECTIVE_ROTOR_COUNT>  (1) 
5

>  <PUBCHEM_PHARMACOPHORE_FEATURES>  (1) 
6
1 3 acceptor
1 4 donor
1 6 donor
5 4 5 7 8 11 rings
6 14 15 16 17 18 20 rings
6 7 8 9 10 12 13 rings

>  <PUBCHEM_HEAVY_ATOM_COUNT>  (1) 
21

>  <PUBCHEM_ATOM_DEF_STEREO_COUNT>  (1) 
0

>  <PUBCHEM_ATOM_UDEF_STEREO_COUNT>  (1) 
0

>  <PUBCHEM_BOND_DEF_STEREO_COUNT>  (1) 
0

>  <PUBCHEM_BOND_UDEF_STEREO_COUNT>  (1) 
0

>  <PUBCHEM_ISOTOPIC_ATOM_COUNT>  (1) 
0

>  <PUBCHEM_COMPONENT_COUNT>  (1) 
1

>  <PUBCHEM_CACTVS_TAUTO_COUNT>  (1) 
5

>  <PUBCHEM_CONFORMER_ID>  (1) 
00000D0600000001

>  <PUBCHEM_MMFF94_ENERGY>  (1) 
44.7498

>  <PUBCHEM_FEATURE_SELFOVERLAP>  (1) 
30.589

>  <PUBCHEM_SHAPE_FINGERPRINT>  (1) 
10 15 18113343007358253225
10042902 136 11314609643919565777
10382601 240 17895471410722897355
105312 117 17275108344548618069
10906281 52 18041572433542894286
11089746 13 18060129955930408792
11135609 201 18130519522647718353
11640471 11 18127970811739519863
12390115 104 18410302418870280703
12403259 118 17385452024804254061
12422481 6 17385721361828813950
12596602 18 17821729433553471841
13073987 5 18408322220019985402
13583140 156 15068607319027361039
13631057 29 18340761667917040615
13782708 43 7853586690798747124
14251764 38 17986104334446850472
14466204 15 18408601465692112152
14576447 43 10663816364727495452
14739800 52 17916281910198434626
14790565 3 18261114118767511452
14950920 106 15140972780811478661
15183329 4 16988567875024813812
15188451 53 15141261957307882825
15209294 21 18409165515225460231
15415430 10 9151173160194933991
167882 2 17417260822770498286
17780758 139 13190335760583933741
18222031 100 10231753358072290614
193927 3 8142079896967365097
19784866 240 9583511023952062059
20281389 69 18411136952638442448
20621476 66 18409171030375113324
20739085 24 17750523879380590510
21033648 29 16951409802872047341
21713013 43 13038602026764953421
21756936 100 18341896316118052111
22393880 68 12463284748931267315
23379529 103 10158821695562239757
23402539 116 18340761628549561446
23559900 14 18131639967714096166
270888 7 18200036115091205425
2838139 119 17775564238854079120
2916195 48 18342736359933401568
293599 30 18409730664228445918
314194 84 9655571937488117420
328310 18 16200165270067817921
351380 3 9007054669352608973
397830 11 13479421629770190660
441001 317 18060137656648391497
46194498 28 14044866306460743315
5104073 3 17895464951761465058
6327066 14 18340764837428649949
6328613 192 18337393854958117764
636775 72 18270113669108160664
6431902 208 9511462225422314813
7062679 6 18411704296232774308
7226269 152 18343585144229335728
7808743 9 18273215258091154105
7970288 3 8646472017389255065

>  <PUBCHEM_SHAPE_MULTIPOLES>  (1) 
409.34
15.05
2.41
1.15
18.77
0.42
-0.16
-13.04
-1.28
-1.81
-0.39
-1.18
-0.13
-0.93

>  <PUBCHEM_SHAPE_SELFOVERLAP>  (1) 
877.279

>  <PUBCHEM_SHAPE_VOLUME>  (1) 
227.4

>  <PUBCHEM_COORDINATE_TYPE>  (1) 
2
5
10

$$$$
