33346
     RDKit          3D

 23 24  0  0  0  0  0  0  0  0999 V2000
   -0.3112    0.1029   -0.5318 O   0  0  0  0  0  0  0  0  0  0  0  0
   -6.3650   -1.2083    0.2154 O   0  0  0  0  0  0  0  0  0  0  0  0
   -0.2389    0.7161    1.7165 O   0  0  0  0  0  0  0  0  0  0  0  0
   -6.6334    0.9999   -0.3771 O   0  0  0  0  0  0  0  0  0  0  0  0
    5.9384    0.4463   -0.0271 N   0  0  0  0  0  0  0  0  0  0  0  0
    7.8950   -0.7064   -0.5729 N   0  0  0  0  0  0  0  0  0  0  0  0
    5.9405   -1.8818   -0.6525 N   0  0  0  0  0  0  0  0  0  0  0  0
    1.7804    0.4485    0.4767 C   0  0  0  0  0  0  0  0  0  0  0  0
   -1.7051    0.0838   -0.4365 C   0  0  0  0  0  0  0  0  0  0  0  0
   -4.4519    0.0458   -0.2515 C   0  0  0  0  0  0  0  0  0  0  0  0
    2.6130    0.1366    1.5513 C   0  0  0  0  0  0  0  0  0  0  0  0
    2.3324    0.7596   -0.7660 C   0  0  0  0  0  0  0  0  0  0  0  0
   -2.4024    1.2390   -0.7118 C   0  0  0  0  0  0  0  0  0  0  0  0
   -2.3268   -1.0897   -0.0725 C   0  0  0  0  0  0  0  0  0  0  0  0
    4.5499    0.4466    0.1407 C   0  0  0  0  0  0  0  0  0  0  0  0
   -3.7939    1.2197   -0.6179 C   0  0  0  0  0  0  0  0  0  0  0  0
   -3.7184   -1.1089    0.0213 C   0  0  0  0  0  0  0  0  0  0  0  0
    0.3367    0.4497    0.6519 C   0  0  0  0  0  0  0  0  0  0  0  0
    3.9977    0.1357    1.3835 C   0  0  0  0  0  0  0  0  0  0  0  0
    3.7172    0.7587   -0.9340 C   0  0  0  0  0  0  0  0  0  0  0  0
   -5.9029    0.0255   -0.1538 C   0  0  0  0  0  0  0  0  0  0  0  0
    6.5321   -0.6635   -0.3967 C   0  0  0  0  0  0  0  0  0  0  0  0
   -7.7832   -1.3558    0.3448 C   0  0  0  0  0  0  0  0  0  0  0  0
  1  9  1  0
  1 18  1  0
  2 21  1  0
  2 23  1  0
  3 18  2  0
  4 21  2  0
  5 15  1  0
  5 22  2  3
  6 22  1  0
  7 22  1  0
  8 11  2  0
  8 12  1  0
  8 18  1  0
  9 13  2  0
  9 14  1  0
 10 16  2  0
 10 17  1  0
 10 21  1  0
 11 19  1  0
 12 20  2  0
 13 16  1  0
 14 17  2  0
 15 19  2  0
 15 20  1  0
M  END
>  <PUBCHEM_COMPOUND_CID>  (1) 
33346

>  <PUBCHEM_CONFORMER_RMSD>  (1) 
0.8

>  <PUBCHEM_CONFORMER_DIVERSEORDER>  (1) 
1
41
29
63
51
21
16
62
3
69
57
34
2
39
11
61
49
27
59
30
60
4
54
50
23
44
64
9
14
42
22
33
65
10
40
52
56
5
53
43
18
47
70
45
20
46
7
67
68
24
6
66
8
25
31
28
48
17
35
55
32
26
12
36
13
58
15
38
37
19

>  <PUBCHEM_MMFF94_PARTIAL_CHARGES>  (1) 
35
1 -0.23
10 0.09
11 -0.15
12 -0.15
13 -0.15
14 -0.15
15 0.18
16 -0.15
17 -0.15
18 0.63
19 -0.15
2 -0.43
20 -0.15
21 0.63
22 0.55
23 0.28
24 0.15
25 0.15
26 0.15
27 0.15
28 0.15
29 0.15
3 -0.57
30 0.15
31 0.15
35 0.4
36 0.4
37 0.4
38 0.4
4 -0.57
5 -0.63
6 -0.85
7 -0.85
8 0.09
9 0.08

>  <PUBCHEM_EFFECTIVE_ROTOR_COUNT>  (1) 
6

>  <PUBCHEM_PHARMACOPHORE_FEATURES>  (1) 
7
1 3 acceptor
1 4 acceptor
1 6 donor
1 7 donor
4 5 6 7 22 cation
6 8 11 12 15 19 20 rings
6 9 10 13 14 16 17 rings

>  <PUBCHEM_HEAVY_ATOM_COUNT>  (1) 
23

>  <PUBCHEM_ATOM_DEF_STEREO_COUNT>  (1) 
0

>  <PUBCHEM_ATOM_UDEF_STEREO_COUNT>  (1) 
0

>  <PUBCHEM_BOND_DEF_STEREO_COUNT>  (1) 
0

>  <PUBCHEM_BOND_UDEF_STEREO_COUNT>  (1) 
0

>  <PUBCHEM_ISOTOPIC_ATOM_COUNT>  (1) 
0

>  <PUBCHEM_COMPONENT_COUNT>  (1) 
1

>  <PUBCHEM_CACTVS_TAUTO_COUNT>  (1) 
3

>  <PUBCHEM_CONFORMER_ID>  (1) 
0000824200000001

>  <PUBCHEM_MMFF94_ENERGY>  (1) 
83.789

>  <PUBCHEM_FEATURE_SELFOVERLAP>  (1) 
35.576

>  <PUBCHEM_SHAPE_FINGERPRINT>  (1) 
10 15 8142077651274332918
10299344 5 17821727230150722371
10968037 39 16877660167507049401
11089746 13 12535342411467028641
11315181 36 18412267246428840673
11524674 6 17346597500013710287
11796584 16 18272933826122567374
12166972 35 18413390951344021272
12236239 1 17530678810487912053
12616971 3 15123499337485230392
13288520 33 18335138700726878021
13668630 136 18411421696132744622
13685833 64 17775850116309002042
13885169 127 18342177735096638153
14123256 10 16225766315814755758
14251764 18 14620791617591050704
14251764 46 18273213097121139260
14729087 3 10231761080766379939
15183329 4 18040998415121160514
1577012 14 17240474772204297497
18681886 176 18113615715985179916
2026 5 18268429032679561150
21095086 128 18259703406562500195
21150785 3 16805325500401541518
21267235 1 18186241749371748093
21315759 40 18130510807784248143
21641784 216 14563094651041348214
220451 1 16949995929096209609
221357 26 17167859760246812156
22224240 67 13110957618291855444
2297311 6 18408321077584753021
23035841 295 18259982673609132770
23536379 177 18409449172346309004
23559900 14 18340761654108764784
23569943 247 17534053070056123306
246663 6 18412548725695087811
26918003 58 16056879160608383598
28498 318 17918275316046978965
29717793 49 18260833700547603092
3004659 81 18113616798374850428
33532 11 18343864411424239478
34797466 226 18335702780251650796
3545911 37 18113897156385549613
4073 2 17895480340444916794
4325135 7 14634869760030752443
465052 167 17418374684685083126
5104073 3 14404361464073591406
5486654 2 15285358431314287857
59755656 215 18409448063907506790
59755656 520 17131826590977372023
636775 8 17531537576614981003

>  <PUBCHEM_SHAPE_MULTIPOLES>  (1) 
434.91
20.82
1.29
1.1
1.44
0.2
0.4
7.08
-3.42
0.81
-0.25
-1.13
-0.04
0.71

>  <PUBCHEM_SHAPE_SELFOVERLAP>  (1) 
934.473

>  <PUBCHEM_SHAPE_VOLUME>  (1) 
236.3

>  <PUBCHEM_COORDINATE_TYPE>  (1) 
2
5
10

$$$$
