3335
     RDKit          3D

 19 20  0  0  0  0  0  0  0  0999 V2000
    2.6782    2.1539   -0.0068 O   0  0  0  0  0  0  0  0  0  0  0  0
    6.9721   -0.5121    0.0146 O   0  0  0  0  0  0  0  0  0  0  0  0
    5.3067   -2.0593   -0.0083 O   0  0  0  0  0  0  0  0  0  0  0  0
    0.8345    0.6940    0.0013 C   0  0  0  0  0  0  0  0  0  0  0  0
   -1.8643    0.1590    0.0011 C   0  0  0  0  0  0  0  0  0  0  0  0
    3.2751   -0.1805    0.0135 C   0  0  0  0  0  0  0  0  0  0  0  0
    2.2986    0.9851    0.0013 C   0  0  0  0  0  0  0  0  0  0  0  0
   -3.2838   -0.1216    0.0005 C   0  0  0  0  0  0  0  0  0  0  0  0
    0.4228   -0.6190    0.0125 C   0  0  0  0  0  0  0  0  0  0  0  0
   -0.0468    1.7509   -0.0098 C   0  0  0  0  0  0  0  0  0  0  0  0
   -0.9454   -0.8902    0.0123 C   0  0  0  0  0  0  0  0  0  0  0  0
   -1.4151    1.4796   -0.0099 C   0  0  0  0  0  0  0  0  0  0  0  0
    4.7266    0.2846   -0.0128 C   0  0  0  0  0  0  0  0  0  0  0  0
   -3.9651   -0.2680   -1.2079 C   0  0  0  0  0  0  0  0  0  0  0  0
   -3.9708   -0.2465    1.2080 C   0  0  0  0  0  0  0  0  0  0  0  0
   -5.3334   -0.5388   -1.2088 C   0  0  0  0  0  0  0  0  0  0  0  0
   -5.3392   -0.5174    1.2071 C   0  0  0  0  0  0  0  0  0  0  0  0
    5.6698   -0.8902   -0.0063 C   0  0  0  0  0  0  0  0  0  0  0  0
   -6.0204   -0.6636   -0.0014 C   0  0  0  0  0  0  0  0  0  0  0  0
  1  7  2  0
  2 18  1  0
  3 18  2  0
  4  7  1  0
  4  9  2  0
  4 10  1  0
  5  8  1  0
  5 11  2  0
  5 12  1  0
  6  7  1  0
  6 13  1  0
  8 14  2  0
  8 15  1  0
  9 11  1  0
 10 12  2  0
 13 18  1  0
 14 16  1  0
 15 17  2  0
 16 19  2  0
 17 19  1  0
M  END
>  <PUBCHEM_COMPOUND_CID>  (1) 
3335

>  <PUBCHEM_CONFORMER_RMSD>  (1) 
0.8

>  <PUBCHEM_CONFORMER_DIVERSEORDER>  (1) 
1
15
11
12
8
3
9
13
14
4
7
17
10
5
2
16
6

>  <PUBCHEM_MMFF94_PARTIAL_CHARGES>  (1) 
27
1 -0.57
10 -0.15
11 -0.15
12 -0.15
13 0.06
14 -0.15
15 -0.15
16 -0.15
17 -0.15
18 0.66
19 -0.15
2 -0.65
22 0.15
23 0.15
24 0.15
25 0.15
28 0.15
29 0.15
3 -0.57
30 0.15
31 0.15
32 0.15
33 0.5
4 0.09
6 0.06
7 0.42
9 -0.15

>  <PUBCHEM_EFFECTIVE_ROTOR_COUNT>  (1) 
5

>  <PUBCHEM_PHARMACOPHORE_FEATURES>  (1) 
6
1 1 acceptor
1 2 acceptor
1 3 acceptor
3 2 3 18 anion
6 4 5 9 10 11 12 rings
6 8 14 15 16 17 19 rings

>  <PUBCHEM_HEAVY_ATOM_COUNT>  (1) 
19

>  <PUBCHEM_ATOM_DEF_STEREO_COUNT>  (1) 
0

>  <PUBCHEM_ATOM_UDEF_STEREO_COUNT>  (1) 
0

>  <PUBCHEM_BOND_DEF_STEREO_COUNT>  (1) 
0

>  <PUBCHEM_BOND_UDEF_STEREO_COUNT>  (1) 
0

>  <PUBCHEM_ISOTOPIC_ATOM_COUNT>  (1) 
0

>  <PUBCHEM_COMPONENT_COUNT>  (1) 
1

>  <PUBCHEM_CACTVS_TAUTO_COUNT>  (1) 
2

>  <PUBCHEM_CONFORMER_ID>  (1) 
00000D0700000001

>  <PUBCHEM_MMFF94_ENERGY>  (1) 
52.2857

>  <PUBCHEM_FEATURE_SELFOVERLAP>  (1) 
30.505

>  <PUBCHEM_SHAPE_FINGERPRINT>  (1) 
10 15 12823286918880144166
106641 1 16845563249997227770
10912923 1 17489310844907254177
11315181 36 17385730196486980861
12236239 1 17918274277234553329
12555020 224 18408879668278380695
12596602 18 16200429170060068794
12616971 3 18131072666657922157
12670543 26 18114173108313912341
12760667 363 18412545392330753424
13288520 33 18412544310531874693
13403585 85 15051735278876511187
13533116 47 18273495698023113384
13551218 46 18130227060490796054
13685833 64 18408044017844627938
13760787 5 18339363062718083821
13862211 1 18413106164730708295
13955234 65 18268428113308204856
1420 363 18259989270731809314
14251764 18 17846216679054742952
14350574 20 18260267451705954780
15048467 5 10737282441808639215
15183329 4 16298381336367516084
15188451 53 16343408605747600637
15348495 7 14045728357615300574
17834072 8 17821725043980687535
17834076 25 10881400937104108918
17857418 61 18201717353556867998
17862501 102 17847063293954037177
17870717 6 17022621983852456731
1813 80 18341909475507665444
18222031 100 18410283722956762472
19141452 34 18059855103376764862
19489759 90 16370724820766732023
19784866 140 18187361008626031696
200 152 18343580741929730201
20645477 70 18334011713776409032
21150785 3 16226053305592947054
21236236 1 18339080389477418793
21267235 1 18409735062074444859
21682296 61 18339647737086922150
22224240 67 17489862748943378918
2297311 6 16660082213917619197
23175994 123 18113620118775083957
23198884 109 14345793837904071252
23402539 116 18060699481410266405
23522609 53 18127442070367973776
23559900 14 17749107837147473784
2767999 5 8790882973839112270
2916195 48 11600005440371333267
3004659 81 17967532376990114732
335352 9 18410574002827173431
345986 75 18059003970145398082
34797466 226 16443356415313295349
351380 3 18413386531890732102
465052 167 18411705395934215198
5104073 3 17346037913035174307
559249 180 18060134358783655439
59682541 35 18271516581852015682
59755656 215 17821725018258759579

>  <PUBCHEM_SHAPE_MULTIPOLES>  (1) 
373.4
15.61
1.51
0.92
10.48
0.41
0
-7.14
0
1.59
-0.01
-1.5
-0.11
-0.01

>  <PUBCHEM_SHAPE_SELFOVERLAP>  (1) 
801.524

>  <PUBCHEM_SHAPE_VOLUME>  (1) 
205.8

>  <PUBCHEM_COORDINATE_TYPE>  (1) 
2
5
10

$$$$
