33351
     RDKit          3D

 18 18  0  0  0  0  0  0  0  0999 V2000
    0.7704   -0.2077   -1.0627 O   0  0  0  0  0  0  0  0  0  0  0  0
    0.2776    1.3202    0.6155 N   0  0  0  0  0  0  0  0  0  0  0  0
    3.3919   -0.2543   -0.2467 N   0  0  0  0  0  0  0  0  0  0  0  0
   -1.0262    1.7183    0.1346 C   0  0  0  0  0  0  0  0  0  0  0  0
   -2.0071    0.5394    0.0857 C   0  0  0  0  0  0  0  0  0  0  0  0
   -0.8387    2.3121   -1.2737 C   0  0  0  0  0  0  0  0  0  0  0  0
   -1.5551    2.8109    1.0820 C   0  0  0  0  0  0  0  0  0  0  0  0
   -2.9955    0.5500   -0.8684 C   0  0  0  0  0  0  0  0  0  0  0  0
   -1.8551   -0.4765    0.9978 C   0  0  0  0  0  0  0  0  0  0  0  0
    1.0727    0.3835   -0.0285 C   0  0  0  0  0  0  0  0  0  0  0  0
    2.3706    0.1384    0.7137 C   0  0  0  0  0  0  0  0  0  0  0  0
   -3.8872   -0.5217   -0.9132 C   0  0  0  0  0  0  0  0  0  0  0  0
   -2.7467   -1.5484    0.9529 C   0  0  0  0  0  0  0  0  0  0  0  0
   -3.7627   -1.5709   -0.0025 C   0  0  0  0  0  0  0  0  0  0  0  0
    4.6617   -0.5132    0.4186 C   0  0  0  0  0  0  0  0  0  0  0  0
    5.7427   -0.8638   -0.5985 C   0  0  0  0  0  0  0  0  0  0  0  0
   -4.7163   -2.7164   -0.0498 C   0  0  0  0  0  0  0  0  0  0  0  0
    7.1029   -1.1000    0.0432 C   0  0  0  0  0  0  0  0  0  0  0  0
  1 10  2  0
  2  4  1  0
  2 10  1  0
  3 11  1  0
  3 15  1  0
  4  5  1  0
  4  6  1  0
  4  7  1  0
  5  8  2  0
  5  9  1  0
  8 12  1  0
  9 13  2  0
 10 11  1  0
 12 14  2  0
 13 14  1  0
 14 17  1  0
 15 16  1  0
 16 18  1  0
M  END
>  <PUBCHEM_COMPOUND_CID>  (1) 
33351

>  <PUBCHEM_CONFORMER_RMSD>  (1) 
0.8

>  <PUBCHEM_CONFORMER_DIVERSEORDER>  (1) 
2
29
37
35
13
22
8
15
42
24
5
40
33
10
19
7
17
38
9
36
16
41
28
6
14
31
3
32
12
11
26
39
1
21
34
27
23
25
30
18
20
4

>  <PUBCHEM_MMFF94_PARTIAL_CHARGES>  (1) 
20
1 -0.57
10 0.57
11 0.33
12 -0.15
13 -0.15
14 -0.14
15 0.27
17 0.14
2 -0.73
25 0.37
26 0.15
27 0.15
3 -0.9
30 0.15
31 0.15
34 0.36
4 0.44
5 -0.14
8 -0.15
9 -0.15

>  <PUBCHEM_EFFECTIVE_ROTOR_COUNT>  (1) 
7

>  <PUBCHEM_PHARMACOPHORE_FEATURES>  (1) 
7
1 1 acceptor
1 18 hydrophobe
1 2 donor
1 3 cation
1 3 donor
3 4 6 7 hydrophobe
6 5 8 9 12 13 14 rings

>  <PUBCHEM_HEAVY_ATOM_COUNT>  (1) 
18

>  <PUBCHEM_ATOM_DEF_STEREO_COUNT>  (1) 
0

>  <PUBCHEM_ATOM_UDEF_STEREO_COUNT>  (1) 
0

>  <PUBCHEM_BOND_DEF_STEREO_COUNT>  (1) 
0

>  <PUBCHEM_BOND_UDEF_STEREO_COUNT>  (1) 
0

>  <PUBCHEM_ISOTOPIC_ATOM_COUNT>  (1) 
0

>  <PUBCHEM_COMPONENT_COUNT>  (1) 
1

>  <PUBCHEM_CACTVS_TAUTO_COUNT>  (1) 
2

>  <PUBCHEM_CONFORMER_ID>  (1) 
0000824700000002

>  <PUBCHEM_MMFF94_ENERGY>  (1) 
41.8495

>  <PUBCHEM_FEATURE_SELFOVERLAP>  (1) 
35.52

>  <PUBCHEM_SHAPE_FINGERPRINT>  (1) 
11046707 91 18410855464607823442
11315181 36 18334859399040483760
12403259 118 12607407736573190355
12633257 1 15769496537902328567
12916754 54 18409168814209087140
13288520 33 18411138034627199175
13631057 29 18408884036360243666
14251732 16 18411979192231827184
14508225 48 18261104201424488965
16079462 125 12685102514443009326
17844677 252 17917994950206058944
17870717 6 18259984864164104327
18927931 339 18343589520922043854
19489759 90 18260547784695968946
19784866 240 18339083808566532147
200 152 17167582674642021636
20281389 69 9151168749775380014
20374829 77 18408036329726729875
20671657 53 18114467871930226733
20871999 31 17676198083370269877
21054139 6 18113616773354484010
21267235 1 18334017224457249099
21307412 95 18189609609555296991
21426921 1 18338235960067599264
2297311 6 18342182159155344886
2303208 19 17346607323183696822
23402539 116 18408885131006879943
23403322 49 18409164424282862899
23559900 14 18335129930061119000
25 1 11314292958747837789
270888 7 8934460509361728959
293599 30 8430325635874482478
3004659 81 18040991877632426438
3286 77 17632015354995166096
5104073 3 18059851715528069194
531348 171 16879337906271393090
59755656 520 17981324491292413185
7062679 117 18334580118813199338
76465 3 18197774608461351631
77188 2 18270681012501687961
7970288 3 18340767168836905279

>  <PUBCHEM_SHAPE_MULTIPOLES>  (1) 
354.6
12.25
2.54
1.09
25.89
0.74
-0.04
-10.48
-1.29
-3.28
0.24
-0.45
0.3
0.2

>  <PUBCHEM_SHAPE_SELFOVERLAP>  (1) 
713.576

>  <PUBCHEM_SHAPE_VOLUME>  (1) 
209.3

>  <PUBCHEM_COORDINATE_TYPE>  (1) 
2
5
10

$$$$
