33384
     RDKit          3D

 15 15  0  0  0  0  0  0  0  0999 V2000
    2.3280    0.0337   -0.2031 N   0  0  0  0  0  0  0  0  0  0  0  0
   -2.3441    0.0431    0.2047 N   0  0  0  0  0  0  0  0  0  0  0  0
   -0.0080    0.0701    0.0026 N   0  0  0  0  0  0  0  0  0  0  0  0
   -1.2076   -2.0056    0.1044 N   0  0  0  0  0  0  0  0  0  0  0  0
    1.1829   -2.0103   -0.1042 N   0  0  0  0  0  0  0  0  0  0  0  0
    1.1300   -0.6572   -0.0976 C   0  0  0  0  0  0  0  0  0  0  0  0
   -1.1273   -0.6651    0.0994 C   0  0  0  0  0  0  0  0  0  0  0  0
    2.4261    1.4720   -0.2099 C   0  0  0  0  0  0  0  0  0  0  0  0
   -2.4118    1.4709    0.2125 C   0  0  0  0  0  0  0  0  0  0  0  0
   -0.0136   -2.6110   -0.0006 C   0  0  0  0  0  0  0  0  0  0  0  0
   -0.0170   -4.1018   -0.0044 C   0  0  0  0  0  0  0  0  0  0  0  0
    3.8644    1.8572   -0.3418 C   0  0  0  0  0  0  0  0  0  0  0  0
   -3.8423    1.8857    0.3405 C   0  0  0  0  0  0  0  0  0  0  0  0
    4.5280    2.5876    0.5617 C   0  0  0  0  0  0  0  0  0  0  0  0
   -4.4878    2.6305   -0.5642 C   0  0  0  0  0  0  0  0  0  0  0  0
  1  6  1  0
  1  8  1  0
  2  7  1  0
  2  9  1  0
  3  6  2  0
  3  7  1  0
  4  7  2  0
  4 10  1  0
  5  6  1  0
  5 10  2  0
  8 12  1  0
  9 13  1  0
 10 11  1  0
 12 14  2  0
 13 15  2  0
M  END
>  <PUBCHEM_COMPOUND_CID>  (1) 
33384

>  <PUBCHEM_CONFORMER_RMSD>  (1) 
0.8

>  <PUBCHEM_CONFORMER_DIVERSEORDER>  (1) 
1
8
7
25
10
5
17
9
21
14
4
23
15
18
16
3
20
12
19
11
2
24
22
6
13

>  <PUBCHEM_MMFF94_PARTIAL_CHARGES>  (1) 
23
1 -0.87
10 0.48
11 0.14
12 -0.29
13 -0.29
14 -0.3
15 -0.3
16 0.4
17 0.4
2 -0.87
25 0.15
26 0.15
27 0.15
28 0.15
29 0.15
3 -0.62
30 0.15
4 -0.62
5 -0.62
6 0.72
7 0.72
8 0.51
9 0.51

>  <PUBCHEM_EFFECTIVE_ROTOR_COUNT>  (1) 
6

>  <PUBCHEM_PHARMACOPHORE_FEATURES>  (1) 
7
1 1 donor
1 14 hydrophobe
1 15 hydrophobe
1 2 donor
4 1 3 5 6 cation
4 2 3 4 7 cation
6 3 4 5 6 7 10 rings

>  <PUBCHEM_HEAVY_ATOM_COUNT>  (1) 
15

>  <PUBCHEM_ATOM_DEF_STEREO_COUNT>  (1) 
0

>  <PUBCHEM_ATOM_UDEF_STEREO_COUNT>  (1) 
0

>  <PUBCHEM_BOND_DEF_STEREO_COUNT>  (1) 
0

>  <PUBCHEM_BOND_UDEF_STEREO_COUNT>  (1) 
0

>  <PUBCHEM_ISOTOPIC_ATOM_COUNT>  (1) 
0

>  <PUBCHEM_COMPONENT_COUNT>  (1) 
1

>  <PUBCHEM_CACTVS_TAUTO_COUNT>  (1) 
5

>  <PUBCHEM_CONFORMER_ID>  (1) 
0000826800000001

>  <PUBCHEM_MMFF94_ENERGY>  (1) 
34.1847

>  <PUBCHEM_FEATURE_SELFOVERLAP>  (1) 
35.563

>  <PUBCHEM_SHAPE_FINGERPRINT>  (1) 
10411042 1 17185877736348409326
11357001 24 17902516217960849994
11833330 49 17761488497047920315
12107183 9 18335687344498080584
12173636 292 18338799038737683878
12500047 106 18340767160726368944
12532896 13 18411985783999194550
13134695 92 17543910105635699967
13955234 65 18121224173688610329
14123255 52 18410575084668925316
14178000 15 17547007429653468891
14178000 22 18338794619322019268
14508225 48 17335050643219675783
15042514 8 17904772424226741218
15422964 175 9078825239078397662
17134986 127 18338520746347544126
1741750 31 18340488958245537160
17834072 32 18411139168720813016
1798214 55 18410577279471242004
19784866 34 18342177739386694769
20510252 161 18198633317798186274
20645477 56 18198356245532400800
20671657 1 18195816154533700799
212916 134 18270381876503048016
21426921 1 17978512258765778652
21499 59 18410570657000553621
21524375 3 18261108603591347880
21639500 275 18120929508751444773
21650355 55 17545881993851494906
2255824 54 18053382098399313751
2306618 200 17609471067685391070
23402539 116 17839742908587410679
23558518 356 18189339129219642514
2748010 2 18264791937501017759
3071541 12 18195815063337973671
3091708 16 9048292939236182466
43658 37 18411416172831396541
474 4 18339357444821719897
6327066 14 18334852848509398604
68521 5 17907300210191000206
7364860 26 18122628240898959335
77188 2 17329709821190439990
84936 182 18200309901290427385
9981440 41 18409162221128008665

>  <PUBCHEM_SHAPE_MULTIPOLES>  (1) 
283.79
7.48
4.61
0.66
0.23
3.99
0
-12.11
-0.01
-0.11
0.01
0
-0.17
0.49

>  <PUBCHEM_SHAPE_SELFOVERLAP>  (1) 
563.486

>  <PUBCHEM_SHAPE_VOLUME>  (1) 
160.2

>  <PUBCHEM_COORDINATE_TYPE>  (1) 
2
5
10

$$$$
