33405
     RDKit          3D

 16 16  0  0  0  0  0  0  0  0999 V2000
   -0.5870    2.3010   -0.0324 N   0  0  0  0  0  0  0  0  0  0  0  0
   -0.2293   -2.3722    0.1338 N   0  0  0  0  0  0  0  0  0  0  0  0
   -0.4397   -0.0382    0.0495 N   0  0  0  0  0  0  0  0  0  0  0  0
    1.7146   -1.0690    0.2825 N   0  0  0  0  0  0  0  0  0  0  0  0
    1.5314    1.3221    0.1975 N   0  0  0  0  0  0  0  0  0  0  0  0
   -2.0272    2.2773   -0.1699 C   0  0  0  0  0  0  0  0  0  0  0  0
   -1.6411   -2.5561    0.0071 C   0  0  0  0  0  0  0  0  0  0  0  0
    0.1910    1.1615    0.0753 C   0  0  0  0  0  0  0  0  0  0  0  0
    0.3779   -1.0978    0.1571 C   0  0  0  0  0  0  0  0  0  0  0  0
   -2.4956    3.5949   -0.7731 C   0  0  0  0  0  0  0  0  0  0  0  0
   -2.6643    2.0329    1.1919 C   0  0  0  0  0  0  0  0  0  0  0  0
   -2.0161   -3.9371    0.5282 C   0  0  0  0  0  0  0  0  0  0  0  0
   -2.0478   -2.3837   -1.4506 C   0  0  0  0  0  0  0  0  0  0  0  0
    2.2216    0.1744    0.2954 C   0  0  0  0  0  0  0  0  0  0  0  0
    3.7017    0.2924    0.4301 C   0  0  0  0  0  0  0  0  0  0  0  0
    4.4098    0.2976   -0.9224 C   0  0  0  0  0  0  0  0  0  0  0  0
  1  6  1  0
  1  8  1  0
  2  7  1  0
  2  9  1  0
  3  8  2  0
  3  9  1  0
  4  9  2  0
  4 14  1  0
  5  8  1  0
  5 14  2  0
  6 10  1  0
  6 11  1  0
  7 12  1  0
  7 13  1  0
 14 15  1  0
 15 16  1  0
M  END
>  <PUBCHEM_COMPOUND_CID>  (1) 
33405

>  <PUBCHEM_CONFORMER_RMSD>  (1) 
0.6

>  <PUBCHEM_CONFORMER_DIVERSEORDER>  (1) 
1
85
110
108
51
14
75
49
22
113
10
26
50
82
20
48
112
42
97
87
90
55
98
53
34
12
31
24
28
109
96
111
35
45
72
21
58
68
79
95
99
93
94
17
2
18
84
30
44
63
6
27
39
80
71
56
54
107
104
73
33
19
57
38
62
36
32
67
15
102
89
59
77
23
88
92
81
86
91
61
106
103
11
29
101
41
25
40
52
76
46
16
5
66
65
70
13
83
78
105
47
74
69
9
100
60
43
8
64
7
4
37
3

>  <PUBCHEM_MMFF94_PARTIAL_CHARGES>  (1) 
13
1 -0.87
14 0.48
15 0.14
19 0.4
2 -0.87
20 0.4
3 -0.62
4 -0.62
5 -0.62
6 0.37
7 0.37
8 0.72
9 0.72

>  <PUBCHEM_EFFECTIVE_ROTOR_COUNT>  (1) 
5

>  <PUBCHEM_PHARMACOPHORE_FEATURES>  (1) 
8
1 1 donor
1 16 hydrophobe
1 2 donor
3 6 10 11 hydrophobe
3 7 12 13 hydrophobe
4 1 3 5 8 cation
4 2 3 4 9 cation
6 3 4 5 8 9 14 rings

>  <PUBCHEM_HEAVY_ATOM_COUNT>  (1) 
16

>  <PUBCHEM_ATOM_DEF_STEREO_COUNT>  (1) 
0

>  <PUBCHEM_ATOM_UDEF_STEREO_COUNT>  (1) 
0

>  <PUBCHEM_BOND_DEF_STEREO_COUNT>  (1) 
0

>  <PUBCHEM_BOND_UDEF_STEREO_COUNT>  (1) 
0

>  <PUBCHEM_ISOTOPIC_ATOM_COUNT>  (1) 
0

>  <PUBCHEM_COMPONENT_COUNT>  (1) 
1

>  <PUBCHEM_CACTVS_TAUTO_COUNT>  (1) 
10

>  <PUBCHEM_CONFORMER_ID>  (1) 
0000827D00000001

>  <PUBCHEM_MMFF94_ENERGY>  (1) 
34.0232

>  <PUBCHEM_FEATURE_SELFOVERLAP>  (1) 
40.637

>  <PUBCHEM_SHAPE_FINGERPRINT>  (1) 
1 1 17833830465123136276
104564 63 18340769337736555366
116883 192 18270121352139046862
12532896 13 18268145366514031526
12841375 5 17120869686817727005
13052359 8 18409441458310517992
13140716 1 18195522825241499129
14178000 15 17691970779286519403
15309172 13 18196094339307578072
16945 1 18410004464262063968
17539 30 18340762749430615086
19591789 44 18194972828878222370
20097449 115 17978790439017335218
20339313 130 17763468709105624434
20645477 70 17543624232765880997
20671657 53 17907867553943619882
20711985 344 18338789121827262034
21041028 32 17978519950799290635
21160774 45 18409164411698602405
2255824 54 17476636477794179501
22620623 9 18130240332076358270
23419403 2 17058913653711796288
23530152 11 18194961838119799684
23557571 272 18201167641441745692
23558518 356 18259704506522566522
23559900 14 18201442421007176710
2748010 2 18122076303136008080
3060560 45 17760927338385856182
3091708 16 9272619708123761680
4175511 71 17905898332828714483
458136 41 17907878200988049481
54173680 148 18410292561925539642
58779409 8 18337680706779488126
6025842 7 17689707568135664877
6438718 38 18060699515764730303
68521 5 18265898132408850358
7364860 26 17331111698520934209
81228 2 18339353188239838000
81539 233 17902792959662184061
8272917 22 17476636478132419829
9925002 15 18116733982395971196

>  <PUBCHEM_SHAPE_MULTIPOLES>  (1) 
304.37
5.4
4.86
0.97
6.59
1.24
0.16
-1.28
0.65
-7.1
0.29
-0.37
0.04
-0.13

>  <PUBCHEM_SHAPE_SELFOVERLAP>  (1) 
599.781

>  <PUBCHEM_SHAPE_VOLUME>  (1) 
175.1

>  <PUBCHEM_COORDINATE_TYPE>  (1) 
2
5
10

$$$$
