33407
     RDKit          3D

 18 18  0  0  0  0  0  0  0  0999 V2000
   -2.3528    0.7240    0.1385 N   0  0  0  0  0  0  0  0  0  0  0  0
    2.3282    0.8272   -0.1297 N   0  0  0  0  0  0  0  0  0  0  0  0
   -0.0128    0.8074    0.0060 N   0  0  0  0  0  0  0  0  0  0  0  0
    1.2175   -1.2322   -0.2845 N   0  0  0  0  0  0  0  0  0  0  0  0
   -1.1775   -1.2849   -0.1473 N   0  0  0  0  0  0  0  0  0  0  0  0
   -1.1361    0.0576   -0.0069 C   0  0  0  0  0  0  0  0  0  0  0  0
    1.1188    0.0988   -0.1370 C   0  0  0  0  0  0  0  0  0  0  0  0
   -3.6130   -0.0078    0.1378 C   0  0  0  0  0  0  0  0  0  0  0  0
   -2.3993    2.1707    0.3095 C   0  0  0  0  0  0  0  0  0  0  0  0
    3.5965    0.1428   -0.2763 C   0  0  0  0  0  0  0  0  0  0  0  0
    2.3139    2.2691    0.0105 C   0  0  0  0  0  0  0  0  0  0  0  0
    0.0295   -1.8581   -0.2804 C   0  0  0  0  0  0  0  0  0  0  0  0
    0.0534   -3.3404   -0.4377 C   0  0  0  0  0  0  0  0  0  0  0  0
   -4.0378   -0.3149   -1.2854 C   0  0  0  0  0  0  0  0  0  0  0  0
   -2.1134    2.5352    1.7536 C   0  0  0  0  0  0  0  0  0  0  0  0
    4.0268   -0.4496    1.0519 C   0  0  0  0  0  0  0  0  0  0  0  0
    2.0109    2.9208   -1.3251 C   0  0  0  0  0  0  0  0  0  0  0  0
    0.1471   -4.0657    0.9025 C   0  0  0  0  0  0  0  0  0  0  0  0
  1  6  1  0
  1  8  1  0
  1  9  1  0
  2  7  1  0
  2 10  1  0
  2 11  1  0
  3  6  2  0
  3  7  1  0
  4  7  2  0
  4 12  1  0
  5  6  1  0
  5 12  2  0
  8 14  1  0
  9 15  1  0
 10 16  1  0
 11 17  1  0
 12 13  1  0
 13 18  1  0
M  END
>  <PUBCHEM_COMPOUND_CID>  (1) 
33407

>  <PUBCHEM_CONFORMER_RMSD>  (1) 
0.8

>  <PUBCHEM_CONFORMER_DIVERSEORDER>  (1) 
1
15
8
11
13
5
6
4
12
9
3
7
14
10
2

>  <PUBCHEM_MMFF94_PARTIAL_CHARGES>  (1) 
13
1 -0.84
10 0.37
11 0.37
12 0.48
13 0.14
2 -0.84
3 -0.62
4 -0.62
5 -0.62
6 0.72
7 0.72
8 0.37
9 0.37

>  <PUBCHEM_EFFECTIVE_ROTOR_COUNT>  (1) 
7

>  <PUBCHEM_PHARMACOPHORE_FEATURES>  (1) 
4
1 18 hydrophobe
4 1 3 5 6 cation
4 2 3 4 7 cation
6 3 4 5 6 7 12 rings

>  <PUBCHEM_HEAVY_ATOM_COUNT>  (1) 
18

>  <PUBCHEM_ATOM_DEF_STEREO_COUNT>  (1) 
0

>  <PUBCHEM_ATOM_UDEF_STEREO_COUNT>  (1) 
0

>  <PUBCHEM_BOND_DEF_STEREO_COUNT>  (1) 
0

>  <PUBCHEM_BOND_UDEF_STEREO_COUNT>  (1) 
0

>  <PUBCHEM_ISOTOPIC_ATOM_COUNT>  (1) 
0

>  <PUBCHEM_COMPONENT_COUNT>  (1) 
1

>  <PUBCHEM_CACTVS_TAUTO_COUNT>  (1) 
3

>  <PUBCHEM_CONFORMER_ID>  (1) 
0000827F00000001

>  <PUBCHEM_MMFF94_ENERGY>  (1) 
41.8081

>  <PUBCHEM_FEATURE_SELFOVERLAP>  (1) 
20.34

>  <PUBCHEM_SHAPE_FINGERPRINT>  (1) 
10090160 65 18409724080581664407
10382601 240 17835819499164648304
12403260 363 18411972568263602669
12553582 1 17186164163374887663
13140716 1 18267867357597294203
13380535 76 18413106182011090174
13538477 17 18191866949469540204
13583140 156 17313660559408046073
14178342 30 18197500623321900001
15420108 30 17769081350681905322
15490181 8 18340785796119597646
16945 1 18340498819168500447
192875 21 18411972576880164333
193761 8 17184751291043270204
19591789 44 18194122919739174606
20510252 161 18271249446589444521
20645476 183 18117284854985069862
21501502 16 18054224328743302835
21524375 3 18343018895587764271
2334 1 17979918542121029327
23402539 116 18201707470842355749
23419403 2 16035688423514761052
23557571 272 17060625477431656249
23558518 356 18269570368228307947
23559900 14 18128541660196288660
23598288 3 17836366317332143358
23598291 2 17912927175926396647
2748010 2 17192066874109907209
305870 269 18195811773408576514
3060560 45 18336257977187521606
3091708 16 8763156606043066842
352729 6 18339929340923155766
43471831 8 18338514119092063827
474 4 18337679615894964785
58807428 26 18267584607189181834
6992083 37 18334573547218090704
7364860 26 18054228717741320223
74978 22 18263925613043956732
7832392 63 17909838634768477249
81228 2 17836072751732337251

>  <PUBCHEM_SHAPE_MULTIPOLES>  (1) 
345.53
6.02
4.17
1.13
0.26
2.99
0.16
-2.42
-0.14
-0.5
0.57
0.3
-0.48
-1.38

>  <PUBCHEM_SHAPE_SELFOVERLAP>  (1) 
678.507

>  <PUBCHEM_SHAPE_VOLUME>  (1) 
201.2

>  <PUBCHEM_COORDINATE_TYPE>  (1) 
2
5
10

$$$$
