33402
     RDKit          3D

 20 20  0  0  0  0  0  0  0  0999 V2000
   -0.8228   -3.3263   -1.4628 Cl  0  0  0  0  0  0  0  0  0  0  0  0
    1.6544   -3.4528    0.0050 Cl  0  0  0  0  0  0  0  0  0  0  0  0
   -0.8313   -3.3135    1.4639 Cl  0  0  0  0  0  0  0  0  0  0  0  0
   -2.3434    1.4536   -0.0021 N   0  0  0  0  0  0  0  0  0  0  0  0
    2.3464    1.4761   -0.0032 N   0  0  0  0  0  0  0  0  0  0  0  0
    0.0015    1.4965   -0.0044 N   0  0  0  0  0  0  0  0  0  0  0  0
    1.2111   -0.5758   -0.0030 N   0  0  0  0  0  0  0  0  0  0  0  0
   -1.1884   -0.5872   -0.0026 N   0  0  0  0  0  0  0  0  0  0  0  0
   -7.1342    0.7035    0.0100 N   0  0  0  0  0  0  0  0  0  0  0  0
    7.1197    0.7110    0.0007 N   0  0  0  0  0  0  0  0  0  0  0  0
   -3.6354    0.8061    0.0007 C   0  0  0  0  0  0  0  0  0  0  0  0
    3.6214    0.8297   -0.0010 C   0  0  0  0  0  0  0  0  0  0  0  0
   -1.1406    0.7671   -0.0037 C   0  0  0  0  0  0  0  0  0  0  0  0
    1.1271    0.7644   -0.0042 C   0  0  0  0  0  0  0  0  0  0  0  0
    0.0143   -1.1845   -0.0023 C   0  0  0  0  0  0  0  0  0  0  0  0
   -4.7598    1.8363   -0.0068 C   0  0  0  0  0  0  0  0  0  0  0  0
    4.7505    1.8547    0.0084 C   0  0  0  0  0  0  0  0  0  0  0  0
    0.0216   -2.6753    0.0007 C   0  0  0  0  0  0  0  0  0  0  0  0
   -6.0864    1.2020    0.0025 C   0  0  0  0  0  0  0  0  0  0  0  0
    6.0742    1.2144    0.0041 C   0  0  0  0  0  0  0  0  0  0  0  0
  1 18  1  0
  2 18  1  0
  3 18  1  0
  4 11  1  0
  4 13  1  0
  5 12  1  0
  5 14  1  0
  6 13  2  0
  6 14  1  0
  7 14  2  0
  7 15  1  0
  8 13  1  0
  8 15  2  0
  9 19  3  0
 10 20  3  0
 11 16  1  0
 12 17  1  0
 15 18  1  0
 16 19  1  0
 17 20  1  0
M  END
>  <PUBCHEM_COMPOUND_CID>  (1) 
33402

>  <PUBCHEM_CONFORMER_RMSD>  (1) 
0.8

>  <PUBCHEM_CONFORMER_DIVERSEORDER>  (1) 
1
111
18
120
90
44
98
60
70
78
2
137
141
75
125
115
62
119
68
36
73
59
4
72
94
128
17
58
52
130
138
45
69
105
43
7
31
97
93
89
14
42
142
80
48
123
35
92
15
100
28
104
126
46
40
139
54
131
39
16
133
24
38
85
63
134
127
74
79
25
81
3
109
143
27
118
71
106
67
108
88
110
66
61
113
49
77
124
23
76
116
140
33
135
86
102
136
37
53
11
121
50
5
57
20
30
99
84
65
87
47
55
129
95
29
107
41
64
103
22
96
56
26
32
82
112
132
83
114
117
13
6
21
91
122
34
19
51
101
8
9
12
10

>  <PUBCHEM_MMFF94_PARTIAL_CHARGES>  (1) 
22
1 -0.29
10 -0.56
11 0.37
12 0.37
13 0.72
14 0.72
15 0.48
16 0.2
17 0.2
18 1.01
19 0.36
2 -0.29
20 0.36
25 0.4
26 0.4
3 -0.29
4 -0.87
5 -0.87
6 -0.62
7 -0.62
8 -0.62
9 -0.56

>  <PUBCHEM_EFFECTIVE_ROTOR_COUNT>  (1) 
7

>  <PUBCHEM_PHARMACOPHORE_FEATURES>  (1) 
7
1 10 acceptor
1 4 donor
1 5 donor
1 9 acceptor
4 4 6 8 13 cation
4 5 6 7 14 cation
6 6 7 8 13 14 15 rings

>  <PUBCHEM_HEAVY_ATOM_COUNT>  (1) 
20

>  <PUBCHEM_ATOM_DEF_STEREO_COUNT>  (1) 
0

>  <PUBCHEM_ATOM_UDEF_STEREO_COUNT>  (1) 
0

>  <PUBCHEM_BOND_DEF_STEREO_COUNT>  (1) 
0

>  <PUBCHEM_BOND_UDEF_STEREO_COUNT>  (1) 
0

>  <PUBCHEM_ISOTOPIC_ATOM_COUNT>  (1) 
0

>  <PUBCHEM_COMPONENT_COUNT>  (1) 
1

>  <PUBCHEM_CACTVS_TAUTO_COUNT>  (1) 
5

>  <PUBCHEM_CONFORMER_ID>  (1) 
0000827A00000001

>  <PUBCHEM_MMFF94_ENERGY>  (1) 
38.8075

>  <PUBCHEM_FEATURE_SELFOVERLAP>  (1) 
35.563

>  <PUBCHEM_SHAPE_FINGERPRINT>  (1) 
13590594 115 17620190271423626471
13968360 50 18336542738046328343
15042514 8 18190747620683254010
15927050 60 18410572894362666130
17539 30 17841424040306898494
20554085 129 18059840763044998632
20645477 70 18267020549661555999
20681677 155 18336260245679443976
21054139 6 18341323492445865245
22224240 67 18409165528580139857
23402539 116 18272365412395752204
23558518 356 17682682075343802552
23598288 3 17972891533659944758
335352 9 18411139147941938828
33824 294 18336265635731265035
3411729 13 18263362508086701387
3759504 43 18334295408998056116
42630746 31 18341331085109436511
474229 33 18409450301922844289
5104073 3 18118130178349922249
559249 180 18410007771967227938
5758199 1 18343305860065799673
59755656 215 18410297977689363492
59755656 520 18340761615448427357
6669772 16 18202286866436875446
7364860 26 18196652891530505463

>  <PUBCHEM_SHAPE_MULTIPOLES>  (1) 
382.33
13.51
4.03
0.84
0.03
5.45
0
-14.65
0.04
-0.15
0
0.21
0.85
0

>  <PUBCHEM_SHAPE_SELFOVERLAP>  (1) 
738.865

>  <PUBCHEM_SHAPE_VOLUME>  (1) 
223.5

>  <PUBCHEM_COORDINATE_TYPE>  (1) 
2
5
10

$$$$
