33406
     RDKit          3D

 18 18  0  0  0  0  0  0  0  0999 V2000
   -2.3193    0.0753   -0.2886 N   0  0  0  0  0  0  0  0  0  0  0  0
    2.3504   -0.0077    0.1375 N   0  0  0  0  0  0  0  0  0  0  0  0
    0.0162    0.0655   -0.0749 N   0  0  0  0  0  0  0  0  0  0  0  0
    1.1875   -2.0283   -0.1152 N   0  0  0  0  0  0  0  0  0  0  0  0
   -1.2017   -1.9858   -0.3332 N   0  0  0  0  0  0  0  0  0  0  0  0
   -3.8460    2.0165   -0.2445 C   0  0  0  0  0  0  0  0  0  0  0  0
    3.8900    1.8940    0.3721 C   0  0  0  0  0  0  0  0  0  0  0  0
   -2.3963    1.5141   -0.1934 C   0  0  0  0  0  0  0  0  0  0  0  0
    2.4371    1.4149    0.2466 C   0  0  0  0  0  0  0  0  0  0  0  0
   -4.6983    1.4290    0.8815 C   0  0  0  0  0  0  0  0  0  0  0  0
   -3.9257    3.5440   -0.2384 C   0  0  0  0  0  0  0  0  0  0  0  0
    4.7423    1.4658   -0.8237 C   0  0  0  0  0  0  0  0  0  0  0  0
    3.9807    3.4063    0.5832 C   0  0  0  0  0  0  0  0  0  0  0  0
   -1.1319   -0.6366   -0.2311 C   0  0  0  0  0  0  0  0  0  0  0  0
    1.1252   -0.6899   -0.0261 C   0  0  0  0  0  0  0  0  0  0  0  0
   -0.0138   -2.6085   -0.2675 C   0  0  0  0  0  0  0  0  0  0  0  0
   -0.0306   -4.0955   -0.3727 C   0  0  0  0  0  0  0  0  0  0  0  0
   -0.1659   -4.7730    0.9887 C   0  0  0  0  0  0  0  0  0  0  0  0
  1  8  1  0
  1 14  1  0
  2  9  1  0
  2 15  1  0
  3 14  2  0
  3 15  1  0
  4 15  2  0
  4 16  1  0
  5 14  1  0
  5 16  2  0
  6  8  1  0
  6 10  1  0
  6 11  1  0
  7  9  1  0
  7 12  1  0
  7 13  1  0
 16 17  1  0
 17 18  1  0
M  END
>  <PUBCHEM_COMPOUND_CID>  (1) 
33406

>  <PUBCHEM_CONFORMER_RMSD>  (1) 
0.8

>  <PUBCHEM_CONFORMER_DIVERSEORDER>  (1) 
1
18
2
30
20
15
6
23
17
9
29
25
28
12
11
5
31
16
13
19
22
24
14
27
3
21
26
10
4
7
8

>  <PUBCHEM_MMFF94_PARTIAL_CHARGES>  (1) 
13
1 -0.87
14 0.72
15 0.72
16 0.48
17 0.14
2 -0.87
3 -0.62
37 0.4
38 0.4
4 -0.62
5 -0.62
8 0.37
9 0.37

>  <PUBCHEM_EFFECTIVE_ROTOR_COUNT>  (1) 
7

>  <PUBCHEM_PHARMACOPHORE_FEATURES>  (1) 
8
1 1 donor
1 18 hydrophobe
1 2 donor
3 6 10 11 hydrophobe
3 7 12 13 hydrophobe
4 1 3 5 14 cation
4 2 3 4 15 cation
6 3 4 5 14 15 16 rings

>  <PUBCHEM_HEAVY_ATOM_COUNT>  (1) 
18

>  <PUBCHEM_ATOM_DEF_STEREO_COUNT>  (1) 
0

>  <PUBCHEM_ATOM_UDEF_STEREO_COUNT>  (1) 
0

>  <PUBCHEM_BOND_DEF_STEREO_COUNT>  (1) 
0

>  <PUBCHEM_BOND_UDEF_STEREO_COUNT>  (1) 
0

>  <PUBCHEM_ISOTOPIC_ATOM_COUNT>  (1) 
0

>  <PUBCHEM_COMPONENT_COUNT>  (1) 
1

>  <PUBCHEM_CACTVS_TAUTO_COUNT>  (1) 
10

>  <PUBCHEM_CONFORMER_ID>  (1) 
0000827E00000001

>  <PUBCHEM_MMFF94_ENERGY>  (1) 
36.2178

>  <PUBCHEM_FEATURE_SELFOVERLAP>  (1) 
40.638

>  <PUBCHEM_SHAPE_FINGERPRINT>  (1) 
10411042 1 17185592962847260934
10681291 71 18411990156149729804
11833330 49 17689148328468873899
12107183 9 18336809941580185008
12173636 292 18339355400327395676
12293681 160 17834641132090980823
12390115 104 18270698565626415785
12532896 13 18412265059936961830
12788726 201 17976802500425034578
13134695 92 17545030503678783047
13140716 1 18337106778610414419
13590594 115 16898781484744230097
138480 1 17690841164037884316
13955234 65 18122067507665452497
14123255 52 18411979161022941500
14508225 48 17406540889273469663
14955137 171 18048312241762691874
15042514 8 17904205076300577235
15422964 175 8718539480802203158
17134986 127 18340486673280529820
1741750 31 18340763844747664472
17834072 32 18412545448424525128
18785283 64 18191307078686157050
20101258 96 17472144345898262176
20671657 1 18124318207703778679
21041028 32 17041192438286344471
21426921 1 17978228589092467228
21524375 3 18272923912720336959
22182937 141 18198346353927572496
2255824 54 18053941758302395295
23557571 272 17762330714786673612
23558518 356 18263923400988749350
23559900 14 17832983846229574609
23845131 108 18408605864355600707
283562 15 18268138933201986055
3071541 12 18196371412016331975
3091708 16 9337086269630988483
458136 41 18339647724454851041
474 4 18268423543082706153
621550 34 18261959531840879645
633830 44 18201436939489840317
6442390 28 18410863182795897155
77188 2 17257651123340668246
7808743 9 18194118749394904744
84936 182 18200305503280761441
9981440 41 18409440380453361241

>  <PUBCHEM_SHAPE_MULTIPOLES>  (1) 
345.53
8.36
6.17
0.81
0.58
6.64
-0.07
-14.04
-0.41
-0.59
-0.96
0.04
0.08
0.39

>  <PUBCHEM_SHAPE_SELFOVERLAP>  (1) 
674.175

>  <PUBCHEM_SHAPE_VOLUME>  (1) 
199.4

>  <PUBCHEM_COORDINATE_TYPE>  (1) 
2
5
10

$$$$
