33414
     RDKit          3D

 13 13  0  0  0  0  0  0  0  0999 V2000
   -1.1024   -0.2637    0.0011 N   0  0  0  0  0  0  0  0  0  0  0  0
    1.0199    0.8560    0.0019 N   0  0  0  0  0  0  0  0  0  0  0  0
    0.9285   -1.5417    0.0011 N   0  0  0  0  0  0  0  0  0  0  0  0
   -1.1603   -2.6079   -0.0013 N   0  0  0  0  0  0  0  0  0  0  0  0
    2.9875   -0.4195    0.0002 N   0  0  0  0  0  0  0  0  0  0  0  0
   -1.0183    2.1482    0.0000 C   0  0  0  0  0  0  0  0  0  0  0  0
   -0.3103    0.8060    0.0017 C   0  0  0  0  0  0  0  0  0  0  0  0
   -1.8640    2.3369   -1.2618 C   0  0  0  0  0  0  0  0  0  0  0  0
   -1.8677    2.3380    1.2591 C   0  0  0  0  0  0  0  0  0  0  0  0
   -0.4081   -1.4131    0.0011 C   0  0  0  0  0  0  0  0  0  0  0  0
    1.5767   -0.3658    0.0017 C   0  0  0  0  0  0  0  0  0  0  0  0
   -2.5896   -2.6242   -0.0019 C   0  0  0  0  0  0  0  0  0  0  0  0
    3.8080    0.7509   -0.0029 C   0  0  0  0  0  0  0  0  0  0  0  0
  1  7  2  0
  1 10  1  0
  2  7  1  0
  2 11  2  0
  3 10  2  0
  3 11  1  0
  4 10  1  0
  4 12  1  0
  5 11  1  0
  5 13  1  0
  6  7  1  0
  6  8  1  0
  6  9  1  0
M  END
>  <PUBCHEM_COMPOUND_CID>  (1) 
33414

>  <PUBCHEM_CONFORMER_RMSD>  (1) 
0.6

>  <PUBCHEM_CONFORMER_DIVERSEORDER>  (1) 
1
4
3
5
6
2

>  <PUBCHEM_MMFF94_PARTIAL_CHARGES>  (1) 
13
1 -0.62
10 0.72
11 0.72
12 0.37
13 0.37
2 -0.62
21 0.4
22 0.4
3 -0.62
4 -0.87
5 -0.87
6 0.14
7 0.48

>  <PUBCHEM_EFFECTIVE_ROTOR_COUNT>  (1) 
3

>  <PUBCHEM_PHARMACOPHORE_FEATURES>  (1) 
6
1 4 donor
1 5 donor
3 6 8 9 hydrophobe
4 1 3 4 10 cation
4 2 3 5 11 cation
6 1 2 3 7 10 11 rings

>  <PUBCHEM_HEAVY_ATOM_COUNT>  (1) 
13

>  <PUBCHEM_ATOM_DEF_STEREO_COUNT>  (1) 
0

>  <PUBCHEM_ATOM_UDEF_STEREO_COUNT>  (1) 
0

>  <PUBCHEM_BOND_DEF_STEREO_COUNT>  (1) 
0

>  <PUBCHEM_BOND_UDEF_STEREO_COUNT>  (1) 
0

>  <PUBCHEM_ISOTOPIC_ATOM_COUNT>  (1) 
0

>  <PUBCHEM_COMPONENT_COUNT>  (1) 
1

>  <PUBCHEM_CACTVS_TAUTO_COUNT>  (1) 
10

>  <PUBCHEM_CONFORMER_ID>  (1) 
0000828600000001

>  <PUBCHEM_MMFF94_ENERGY>  (1) 
36.0913

>  <PUBCHEM_FEATURE_SELFOVERLAP>  (1) 
30.489

>  <PUBCHEM_SHAPE_FINGERPRINT>  (1) 
1 1 17688874137735442485
13380535 76 18197488529005074646
14648413 74 17037254554624419171
14817 1 8597050867747453477
15490181 7 18118973485696759602
15490181 8 18053939554751914334
16945 1 17257934793124444005
18410436 195 17981889958053685879
193761 8 18338798884188010694
20510252 161 18340483486662586256
20645477 70 17325764778545967717
20871998 184 18201723997987280566
21040471 1 18266741264527393890
21160774 45 18408884014811352685
21524375 3 18044659689667055448
23419403 2 17415257693072958489
23530152 11 18122627141545450791
23557571 272 18198072563195512980
23559900 14 18056207878560633646
241688 4 18194119839740753730
2748010 2 18048891696800034567
3071541 12 17257658244617549253
3071541 158 17758391164350181999
3071541 236 18263905688310914490
68521 5 18336546143797047702
81228 2 18336559303487262778

>  <PUBCHEM_SHAPE_MULTIPOLES>  (1) 
242.63
4.15
3.41
0.85
4.48
1.03
0
-0.55
0
-3.62
0
-0.53
-0.62
0

>  <PUBCHEM_SHAPE_SELFOVERLAP>  (1) 
484.37

>  <PUBCHEM_SHAPE_VOLUME>  (1) 
137.2

>  <PUBCHEM_COORDINATE_TYPE>  (1) 
2
5
10

$$$$
