33416
     RDKit          3D

 17 17  0  0  0  0  0  0  0  0999 V2000
   -0.1619    2.3480   -0.0849 N   0  0  0  0  0  0  0  0  0  0  0  0
   -1.1603   -2.2310    0.0873 N   0  0  0  0  0  0  0  0  0  0  0  0
    1.0830   -1.5487    0.0521 N   0  0  0  0  0  0  0  0  0  0  0  0
    1.5937    0.7943   -0.0359 N   0  0  0  0  0  0  0  0  0  0  0  0
   -0.6921    0.0652    0.0029 N   0  0  0  0  0  0  0  0  0  0  0  0
    3.3842   -0.8232    0.0115 C   0  0  0  0  0  0  0  0  0  0  0  0
   -1.5534    2.7445   -0.0937 C   0  0  0  0  0  0  0  0  0  0  0  0
   -2.5703   -1.9964    0.0879 C   0  0  0  0  0  0  0  0  0  0  0  0
    1.9276   -0.5056    0.0097 C   0  0  0  0  0  0  0  0  0  0  0  0
    0.2589    1.0305   -0.0373 C   0  0  0  0  0  0  0  0  0  0  0  0
   -0.2103   -1.1874    0.0460 C   0  0  0  0  0  0  0  0  0  0  0  0
    4.1094   -0.2566    1.2470 C   0  0  0  0  0  0  0  0  0  0  0  0
    4.0924   -0.3495   -1.2721 C   0  0  0  0  0  0  0  0  0  0  0  0
   -1.6709    4.1518   -0.6638 C   0  0  0  0  0  0  0  0  0  0  0  0
   -2.1125    2.6705    1.3212 C   0  0  0  0  0  0  0  0  0  0  0  0
   -3.2822   -3.2189    0.6515 C   0  0  0  0  0  0  0  0  0  0  0  0
   -3.0353   -1.6876   -1.3293 C   0  0  0  0  0  0  0  0  0  0  0  0
  1  7  1  0
  1 10  1  0
  2  8  1  0
  2 11  1  0
  3  9  2  0
  3 11  1  0
  4  9  1  0
  4 10  2  0
  5 10  1  0
  5 11  2  0
  6  9  1  0
  6 12  1  0
  6 13  1  0
  7 14  1  0
  7 15  1  0
  8 16  1  0
  8 17  1  0
M  END
>  <PUBCHEM_COMPOUND_CID>  (1) 
33416

>  <PUBCHEM_CONFORMER_RMSD>  (1) 
0.6

>  <PUBCHEM_CONFORMER_DIVERSEORDER>  (1) 
1
76
111
99
106
101
7
34
118
88
54
6
110
122
109
124
9
22
87
121
98
75
123
97
112
19
92
68
117
14
64
11
108
95
114
120
93
32
86
52
60
125
23
90
55
13
20
26
96
46
70
4
51
62
47
49
63
28
24
27
113
61
102
79
82
78
56
104
37
57
43
45
10
83
91
41
36
66
81
40
8
38
33
80
94
71
74
116
30
115
25
18
58
103
77
119
67
89
12
72
65
105
84
69
31
21
35
39
50
59
73
29
85
44
2
100
16
53
48
107
5
42
17
15
3

>  <PUBCHEM_MMFF94_PARTIAL_CHARGES>  (1) 
13
1 -0.87
10 0.72
11 0.72
2 -0.87
21 0.4
22 0.4
3 -0.62
4 -0.62
5 -0.62
6 0.14
7 0.37
8 0.37
9 0.48

>  <PUBCHEM_EFFECTIVE_ROTOR_COUNT>  (1) 
5

>  <PUBCHEM_PHARMACOPHORE_FEATURES>  (1) 
8
1 1 donor
1 2 donor
3 6 12 13 hydrophobe
3 7 14 15 hydrophobe
3 8 16 17 hydrophobe
4 1 4 5 10 cation
4 2 3 5 11 cation
6 3 4 5 9 10 11 rings

>  <PUBCHEM_HEAVY_ATOM_COUNT>  (1) 
17

>  <PUBCHEM_ATOM_DEF_STEREO_COUNT>  (1) 
0

>  <PUBCHEM_ATOM_UDEF_STEREO_COUNT>  (1) 
0

>  <PUBCHEM_BOND_DEF_STEREO_COUNT>  (1) 
0

>  <PUBCHEM_BOND_UDEF_STEREO_COUNT>  (1) 
0

>  <PUBCHEM_ISOTOPIC_ATOM_COUNT>  (1) 
0

>  <PUBCHEM_COMPONENT_COUNT>  (1) 
1

>  <PUBCHEM_CACTVS_TAUTO_COUNT>  (1) 
10

>  <PUBCHEM_CONFORMER_ID>  (1) 
0000828800000001

>  <PUBCHEM_MMFF94_ENERGY>  (1) 
37.8082

>  <PUBCHEM_FEATURE_SELFOVERLAP>  (1) 
40.637

>  <PUBCHEM_SHAPE_FINGERPRINT>  (1) 
104564 63 18412831269691413367
116883 192 18341897402338349646
11833330 49 18335692871107977616
121448 382 18052233138570582821
12532896 13 18051969216955944636
12553582 1 18267308809975197838
13052359 8 18264482893245064177
13134695 92 18050271854692306271
13140716 1 18339359772604180857
14178000 15 18124597749945231803
14178000 22 17976806606735262808
14178342 30 18263631901890380634
15309172 13 17907583519013517664
15842332 3 17822295631193115178
16945 1 18410012100703412074
17357779 13 18200579401961009431
18785283 64 17180813372746968771
19591789 44 17834686989140002543
20097449 115 18267021845860938707
20261772 1 18267605549323051641
20339313 130 18124321759309825578
20510252 161 18342170085912566370
21041028 32 18267031737682369763
21160774 45 18337111147035331053
21524375 3 17835800798608035128
22620623 9 18059025994537082214
23419403 2 17758636256949409980
23526113 38 17608927925968242691
23530152 11 17834396722201382005
23557571 272 18201438052476894780
23558518 356 18187929400804904618
23559900 14 17985549945592156590
2748010 2 18196639903248670133
3060560 45 17184188340720759566
3084891 72 18337095805370179007
3091708 16 9277115611280630889
31174 14 17686342379638889691
4175511 71 18195254544605112711
458136 41 17404042334856295433
54173680 148 18410012108945336522
58779409 8 18121792625009925510
6438718 38 17988360373851497351
68521 5 18410294726557349862
7164475 11 18408323276818881910
7364860 26 17547013386704699079
7615 1 17894631431679379006
81228 2 18410855451580438416
9925002 15 18189640334949142004

>  <PUBCHEM_SHAPE_MULTIPOLES>  (1) 
324.95
6.25
4.58
1.07
5.92
3.55
-0.01
-3.33
-0.04
-6.93
0.03
0.11
0.08
-0.07

>  <PUBCHEM_SHAPE_SELFOVERLAP>  (1) 
640.994

>  <PUBCHEM_SHAPE_VOLUME>  (1) 
187.6

>  <PUBCHEM_COORDINATE_TYPE>  (1) 
2
5
10

$$$$
