33435
     RDKit          3D

 15 15  0  0  0  0  0  0  0  0999 V2000
   -1.7253   -3.1272    1.2170 Cl  0  0  0  0  0  0  0  0  0  0  0  0
   -2.0734    1.7089    0.0911 N   0  0  0  0  0  0  0  0  0  0  0  0
    2.5875    1.2021    0.2067 N   0  0  0  0  0  0  0  0  0  0  0  0
    1.2495   -0.6373   -0.3635 N   0  0  0  0  0  0  0  0  0  0  0  0
   -1.1352   -0.3779   -0.4227 N   0  0  0  0  0  0  0  0  0  0  0  0
    0.2604    1.4864    0.1555 N   0  0  0  0  0  0  0  0  0  0  0  0
   -0.1476   -2.5172   -0.9441 C   0  0  0  0  0  0  0  0  0  0  0  0
   -0.0018   -1.0862   -0.5523 C   0  0  0  0  0  0  0  0  0  0  0  0
   -0.9544    0.9194   -0.0632 C   0  0  0  0  0  0  0  0  0  0  0  0
    1.3034    0.6575   -0.0115 C   0  0  0  0  0  0  0  0  0  0  0  0
   -3.4310    1.2190   -0.1124 C   0  0  0  0  0  0  0  0  0  0  0  0
    3.7877    0.4383    0.0677 C   0  0  0  0  0  0  0  0  0  0  0  0
   -0.2813   -3.4860    0.2379 C   0  0  0  0  0  0  0  0  0  0  0  0
   -4.4545    2.3074    0.1637 C   0  0  0  0  0  0  0  0  0  0  0  0
    5.0160    1.2928    0.3302 C   0  0  0  0  0  0  0  0  0  0  0  0
  1 13  1  0
  2  9  1  0
  2 11  1  0
  3 10  1  0
  3 12  1  0
  4  8  2  0
  4 10  1  0
  5  8  1  0
  5  9  2  0
  6  9  1  0
  6 10  2  0
  7  8  1  0
  7 13  1  0
 11 14  1  0
 12 15  1  0
M  END
>  <PUBCHEM_COMPOUND_CID>  (1) 
33435

>  <PUBCHEM_CONFORMER_RMSD>  (1) 
0.8

>  <PUBCHEM_CONFORMER_DIVERSEORDER>  (1) 
1
21
7
16
23
5
28
18
26
15
13
12
25
20
27
29
24
19
17
2
14
9
8
6
22
30
3
10
4
11

>  <PUBCHEM_MMFF94_PARTIAL_CHARGES>  (1) 
15
1 -0.29
10 0.72
11 0.37
12 0.37
13 0.29
2 -0.87
22 0.4
23 0.4
3 -0.87
4 -0.62
5 -0.62
6 -0.62
7 0.14
8 0.48
9 0.72

>  <PUBCHEM_EFFECTIVE_ROTOR_COUNT>  (1) 
6

>  <PUBCHEM_PHARMACOPHORE_FEATURES>  (1) 
5
1 2 donor
1 3 donor
4 2 5 6 9 cation
4 3 4 6 10 cation
6 4 5 6 8 9 10 rings

>  <PUBCHEM_HEAVY_ATOM_COUNT>  (1) 
15

>  <PUBCHEM_ATOM_DEF_STEREO_COUNT>  (1) 
0

>  <PUBCHEM_ATOM_UDEF_STEREO_COUNT>  (1) 
0

>  <PUBCHEM_BOND_DEF_STEREO_COUNT>  (1) 
0

>  <PUBCHEM_BOND_UDEF_STEREO_COUNT>  (1) 
0

>  <PUBCHEM_ISOTOPIC_ATOM_COUNT>  (1) 
0

>  <PUBCHEM_COMPONENT_COUNT>  (1) 
1

>  <PUBCHEM_CACTVS_TAUTO_COUNT>  (1) 
10

>  <PUBCHEM_CONFORMER_ID>  (1) 
0000829B00000001

>  <PUBCHEM_MMFF94_ENERGY>  (1) 
29.7189

>  <PUBCHEM_FEATURE_SELFOVERLAP>  (1) 
25.414

>  <PUBCHEM_SHAPE_FINGERPRINT>  (1) 
11357001 24 18192429894864516554
12532896 13 18412825780912976950
12716301 132 18270104842205679034
13052359 8 18335980964803215251
13380535 76 18412825759263911037
15042514 8 18336265742730862074
204376 136 18411982433845848461
20602899 9 15626506107493288660
20645476 183 18261686942797719580
20645477 70 17981883039605437341
20871998 184 18127697243275342558
21041028 32 17758962910196366514
21524375 3 18272365330627544228
22224240 67 18413393142409981473
23419403 2 17126256434510649279
23558518 356 17972877248762424024
23598288 3 18124034787391706814
2748010 2 18270421437077416198
3071541 37 18266746766064132228
3091708 16 9267559760092417427
33824 294 18265899047653622225
366044 4 18413105048102651156
3759504 43 18408603673299826260
474229 33 18411419544580709727
54173680 148 18122060081044771399
7364860 26 17981887441223988583
81228 2 17978767323503263501
81539 233 18264486183311410381

>  <PUBCHEM_SHAPE_MULTIPOLES>  (1) 
285.66
6.9
3.88
0.83
4.68
4.12
-0.05
-7.59
-1.18
-3.35
-0.68
-0.17
0.54
0.59

>  <PUBCHEM_SHAPE_SELFOVERLAP>  (1) 
552.164

>  <PUBCHEM_SHAPE_VOLUME>  (1) 
172.7

>  <PUBCHEM_COORDINATE_TYPE>  (1) 
2
5
10

$$$$
