33431
     RDKit          3D

 21 21  0  0  0  0  0  0  0  0999 V2000
    2.8610   -0.6515   -0.1483 N   0  0  0  0  0  0  0  0  0  0  0  0
   -1.6534   -1.9179   -0.0468 N   0  0  0  0  0  0  0  0  0  0  0  0
   -1.0242    0.1521    0.8575 N   0  0  0  0  0  0  0  0  0  0  0  0
    1.2857    0.8002    0.8056 N   0  0  0  0  0  0  0  0  0  0  0  0
    0.6115   -1.3127   -0.1104 N   0  0  0  0  0  0  0  0  0  0  0  0
   -0.6975    3.4313    0.8165 C   0  0  0  0  0  0  0  0  0  0  0  0
    5.2769   -0.2760   -0.4033 C   0  0  0  0  0  0  0  0  0  0  0  0
   -3.9080   -2.8945   -0.1168 C   0  0  0  0  0  0  0  0  0  0  0  0
   -1.9420    3.1453   -0.0297 C   0  0  0  0  0  0  0  0  0  0  0  0
   -0.3578    2.2943    1.7868 C   0  0  0  0  0  0  0  0  0  0  0  0
    3.9341    0.2545    0.1181 C   0  0  0  0  0  0  0  0  0  0  0  0
   -3.0287   -1.6987    0.2747 C   0  0  0  0  0  0  0  0  0  0  0  0
   -2.2578    4.3150   -0.9627 C   0  0  0  0  0  0  0  0  0  0  0  0
   -0.0087    0.9952    1.1050 C   0  0  0  0  0  0  0  0  0  0  0  0
    1.5210   -0.3748    0.1998 C   0  0  0  0  0  0  0  0  0  0  0  0
   -0.6393   -0.9809    0.2483 C   0  0  0  0  0  0  0  0  0  0  0  0
    5.6562   -1.6115    0.2389 C   0  0  0  0  0  0  0  0  0  0  0  0
    5.2978   -0.3877   -1.9287 C   0  0  0  0  0  0  0  0  0  0  0  0
   -3.8461   -3.1873   -1.6169 C   0  0  0  0  0  0  0  0  0  0  0  0
   -3.5663   -4.1481    0.6903 C   0  0  0  0  0  0  0  0  0  0  0  0
   -3.5143    4.0536   -1.7778 C   0  0  0  0  0  0  0  0  0  0  0  0
  1 11  1  0
  1 15  1  0
  2 12  1  0
  2 16  1  0
  3 14  2  0
  3 16  1  0
  4 14  1  0
  4 15  2  0
  5 15  1  0
  5 16  2  0
  6  9  1  0
  6 10  1  0
  7 11  1  0
  7 17  1  0
  7 18  1  0
  8 12  1  0
  8 19  1  0
  8 20  1  0
  9 13  1  0
 10 14  1  0
 13 21  1  0
M  END
>  <PUBCHEM_COMPOUND_CID>  (1) 
33431

>  <PUBCHEM_CONFORMER_RMSD>  (1) 
1

>  <PUBCHEM_CONFORMER_DIVERSEORDER>  (1) 
1
25
35
54
42
3
75
81
78
67
6
32
58
49
31
14
80
18
74
43
30
20
40
85
83
57
38
73
51
72
65
23
55
15
69
13
36
76
21
19
45
86
61
77
11
59
84
26
27
41
82
5
29
47
63
10
71
48
7
62
60
44
9
16
39
52
50
4
17
66
53
24
70
12
56
34
8
28
37
33
2
46
64
68
79
22

>  <PUBCHEM_MMFF94_PARTIAL_CHARGES>  (1) 
13
1 -0.87
10 0.14
11 0.37
12 0.37
14 0.48
15 0.72
16 0.72
2 -0.87
3 -0.62
36 0.4
37 0.4
4 -0.62
5 -0.62

>  <PUBCHEM_EFFECTIVE_ROTOR_COUNT>  (1) 
10

>  <PUBCHEM_PHARMACOPHORE_FEATURES>  (1) 
9
1 1 donor
1 2 donor
1 21 hydrophobe
3 7 17 18 hydrophobe
3 8 19 20 hydrophobe
4 1 4 5 15 cation
4 2 3 5 16 cation
4 6 9 10 13 hydrophobe
6 3 4 5 14 15 16 rings

>  <PUBCHEM_HEAVY_ATOM_COUNT>  (1) 
21

>  <PUBCHEM_ATOM_DEF_STEREO_COUNT>  (1) 
0

>  <PUBCHEM_ATOM_UDEF_STEREO_COUNT>  (1) 
0

>  <PUBCHEM_BOND_DEF_STEREO_COUNT>  (1) 
0

>  <PUBCHEM_BOND_UDEF_STEREO_COUNT>  (1) 
0

>  <PUBCHEM_ISOTOPIC_ATOM_COUNT>  (1) 
0

>  <PUBCHEM_COMPONENT_COUNT>  (1) 
1

>  <PUBCHEM_CACTVS_TAUTO_COUNT>  (1) 
10

>  <PUBCHEM_CONFORMER_ID>  (1) 
0000829700000001

>  <PUBCHEM_MMFF94_ENERGY>  (1) 
35.7547

>  <PUBCHEM_FEATURE_SELFOVERLAP>  (1) 
45.715

>  <PUBCHEM_SHAPE_FINGERPRINT>  (1) 
11045515 52 18338520866569763523
11991303 11 18190191078705026367
12788726 201 18260823778751455419
13052359 8 18266735783927734264
13899415 180 18197484336937879679
14251757 5 18409722942272958285
14508225 48 18340767160182751189
14556957 393 18043834145745655644
17539 30 18411976953593913029
1813 80 18056776535248802166
18222031 100 17845657091655168982
18785283 64 17254834698783833603
19427546 20 18408893914900718132
21049683 271 17979645859274890792
21641784 216 18263662803810927500
22182313 1 17987214772861512264
23419403 2 17345737702909984896
23559900 14 17904192982305973331
266924 1 18041832905528511458
2838139 119 17243021142345321972
3057174 1 17690276015393452525
4409770 3 18338515227699762001
57262259 84 18341617031136760669
58779409 54 18341607071197135624
58779409 8 18267020566029476968
59755656 520 17555758528677906168
621550 5 17969780989537555847
68521 5 18411704300432503658
7164475 11 18410580591618267572
7237137 82 18410865360434325028

>  <PUBCHEM_SHAPE_MULTIPOLES>  (1) 
407.27
10.22
6.18
1.48
16.14
3.67
-0.43
-7.66
-4.7
-12.96
-1.48
-0.27
0.78
1.23

>  <PUBCHEM_SHAPE_SELFOVERLAP>  (1) 
789.97

>  <PUBCHEM_SHAPE_VOLUME>  (1) 
237.3

>  <PUBCHEM_COORDINATE_TYPE>  (1) 
2
5
10

$$$$
