33449
     RDKit          3D

 17 16  0  0  0  0  0  0  0  0999 V2000
    1.8794   -0.0817    0.1841 C   0  0  0  0  0  0  0  0  0  0  0  0
    0.7459   -0.9915   -0.2929 C   0  0  0  0  0  0  0  0  0  0  0  0
    3.2399   -0.5905   -0.2952 C   0  0  0  0  0  0  0  0  0  0  0  0
   -0.6123   -0.5012    0.2141 C   0  0  0  0  0  0  0  0  0  0  0  0
    4.3764    0.3004    0.2094 C   0  0  0  0  0  0  0  0  0  0  0  0
   -1.7403   -1.4320   -0.2366 C   0  0  0  0  0  0  0  0  0  0  0  0
    5.7399   -0.2276   -0.2425 C   0  0  0  0  0  0  0  0  0  0  0  0
   -3.1284   -0.9701    0.2184 C   0  0  0  0  0  0  0  0  0  0  0  0
    6.8728    0.6835    0.2355 C   0  0  0  0  0  0  0  0  0  0  0  0
   -4.2477   -1.9417   -0.1709 C   0  0  0  0  0  0  0  0  0  0  0  0
    8.2581    0.2165   -0.2167 C   0  0  0  0  0  0  0  0  0  0  0  0
   -5.6284   -1.5117    0.3383 C   0  0  0  0  0  0  0  0  0  0  0  0
    9.3852    1.1328    0.2340 C   0  0  0  0  0  0  0  0  0  0  0  0
   -6.0966   -0.2084   -0.2425 C   0  0  0  0  0  0  0  0  0  0  0  0
   -6.4288    0.8603    0.4969 C   0  0  0  0  0  0  0  0  0  0  0  0
   -6.8921    2.1638   -0.0830 C   0  0  0  0  0  0  0  0  0  0  0  0
   -5.7231    3.0989   -0.3502 C   0  0  0  0  0  0  0  0  0  0  0  0
  1  2  1  0
  1  3  1  0
  2  4  1  0
  3  5  1  0
  4  6  1  0
  5  7  1  0
  6  8  1  0
  7  9  1  0
  8 10  1  0
  9 11  1  0
 10 12  1  0
 11 13  1  0
 12 14  1  0
 14 15  2  0
 15 16  1  0
 16 17  1  0
M  END
>  <PUBCHEM_COMPOUND_CID>  (1) 
33449

>  <PUBCHEM_CONFORMER_RMSD>  (1) 
1.2

>  <PUBCHEM_CONFORMER_DIVERSEORDER>  (1) 
1
98
6
100
3
49
31
79
67
16
8
2
17
62
71
103
27
30
104
91
24
41
18
93
57
20
43
96
58
10
102
83
12
81
88
82
55
35
37
7
85
80
66
23
72
59
46
50
77
84
5
22
94
52
64
28
54
11
13
105
45
26
51
9
32
60
21
76
15
99
38
56
90
42
97
36
74
33
65
29
47
69
92
40
34
101
89
86
70
73
44
75
25
19
61
39
48
95
78
68
4
87
14
53
63

>  <PUBCHEM_MMFF94_PARTIAL_CHARGES>  (1) 
6
12 0.14
14 -0.29
15 -0.29
16 0.14
45 0.15
46 0.15

>  <PUBCHEM_EFFECTIVE_ROTOR_COUNT>  (1) 
13

>  <PUBCHEM_PHARMACOPHORE_FEATURES>  (1) 
2
1 13 hydrophobe
1 17 hydrophobe

>  <PUBCHEM_HEAVY_ATOM_COUNT>  (1) 
17

>  <PUBCHEM_ATOM_DEF_STEREO_COUNT>  (1) 
0

>  <PUBCHEM_ATOM_UDEF_STEREO_COUNT>  (1) 
0

>  <PUBCHEM_BOND_DEF_STEREO_COUNT>  (1) 
0

>  <PUBCHEM_BOND_UDEF_STEREO_COUNT>  (1) 
1

>  <PUBCHEM_ISOTOPIC_ATOM_COUNT>  (1) 
0

>  <PUBCHEM_COMPONENT_COUNT>  (1) 
1

>  <PUBCHEM_CACTVS_TAUTO_COUNT>  (1) 
1

>  <PUBCHEM_CONFORMER_ID>  (1) 
000082A900000001

>  <PUBCHEM_MMFF94_ENERGY>  (1) 
-4.867

>  <PUBCHEM_FEATURE_SELFOVERLAP>  (1) 
10.149

>  <PUBCHEM_SHAPE_FINGERPRINT>  (1) 
100830 39 18411138013638172649
10087517 78 18261110756140447605
10411042 1 17977948214287709243
10666366 153 18131080295221363046
10669705 176 18271249326931889580
10730089 173 18411700968060231785
11315181 36 17489313013776263059
12091667 2 18411701023863521827
125118 31 18336266838475634300
13167372 99 18333733528597181644
13885169 127 18409730672776403234
13964095 4 18343865523841413226
14251764 18 18040432196676443258
14251764 46 15936404572474369443
14428016 248 17821736065895593196
14598715 104 18201987841870267841
14729087 3 18342457040834958259
155225 5 18196091041495926873
16079462 125 17846208960687379883
17093844 174 18410294735553784859
20281389 69 18408605834385599475
20621476 8 18343024389647481910
21150785 3 13039188104531506458
21304253 13 18335420201020277324
23521765 1 18342177808696625106
246663 6 12612749117142936914
28498 318 17989492914405741430
444735 82 18339361998168172192
59567204 34 18411981343478290145
59682541 35 12107788532431207078
5969126 39 14261356829791303659
6327066 14 18264202506087563605
636775 72 18410855456266542753
7062679 6 18334300842907119869
8209 1 17704076226726448338

>  <PUBCHEM_SHAPE_MULTIPOLES>  (1) 
349.85
29.55
2.24
0.69
42.96
1.55
0
16.07
0.92
-6.45
-0.2
-0.09
0.01
0.62

>  <PUBCHEM_SHAPE_SELFOVERLAP>  (1) 
628.422

>  <PUBCHEM_SHAPE_VOLUME>  (1) 
226.1

>  <PUBCHEM_COORDINATE_TYPE>  (1) 
2
5
10

$$$$
