33453
     RDKit          3D

 31 33  0  0  0  0  0  0  0  0999 V2000
    4.6774   -0.1497    2.9253 Cl  0  0  0  0  0  0  0  0  0  0  0  0
    7.2655    1.1609    1.4903 Cl  0  0  0  0  0  0  0  0  0  0  0  0
   -1.4875   -1.7725   -1.0839 O   0  0  0  0  0  0  0  0  0  0  0  0
   -5.2980    0.1946    1.1279 O   0  0  0  0  0  0  0  0  0  0  0  0
   -1.9578    2.9773   -0.5773 O   0  0  0  0  0  0  0  0  0  0  0  0
   -3.8960   -2.1912    0.2263 O   0  0  0  0  0  0  0  0  0  0  0  0
   -0.4209    0.9012   -2.7590 O   0  0  0  0  0  0  0  0  0  0  0  0
    1.6046   -3.5207   -0.1169 N   0  0  0  0  0  0  0  0  0  0  0  0
   -3.6602    1.5044    0.2882 C   0  0  0  0  0  0  0  0  0  0  0  0
   -2.2052   -0.7004   -0.6313 C   0  0  0  0  0  0  0  0  0  0  0  0
   -1.7230    0.5956   -0.8315 C   0  0  0  0  0  0  0  0  0  0  0  0
   -4.1060    0.1990    0.4677 C   0  0  0  0  0  0  0  0  0  0  0  0
   -2.4392    1.7116   -0.3773 C   0  0  0  0  0  0  0  0  0  0  0  0
   -3.4168   -0.9297    0.0277 C   0  0  0  0  0  0  0  0  0  0  0  0
   -0.5351   -2.3340   -0.1865 C   0  0  0  0  0  0  0  0  0  0  0  0
    0.5959   -2.9481   -0.9959 C   0  0  0  0  0  0  0  0  0  0  0  0
   -4.6492    2.3345    0.8788 C   0  0  0  0  0  0  0  0  0  0  0  0
   -0.4550    0.7942   -1.5264 C   0  0  0  0  0  0  0  0  0  0  0  0
   -5.6184    1.4921    1.3720 C   0  0  0  0  0  0  0  0  0  0  0  0
    2.7152   -4.0755   -0.8948 C   0  0  0  0  0  0  0  0  0  0  0  0
    1.0196   -4.5565    0.7381 C   0  0  0  0  0  0  0  0  0  0  0  0
    0.8063    0.8335   -0.7146 C   0  0  0  0  0  0  0  0  0  0  0  0
   -1.7084    3.7600    0.5851 C   0  0  0  0  0  0  0  0  0  0  0  0
   -4.1009   -2.5998    1.5765 C   0  0  0  0  0  0  0  0  0  0  0  0
    1.9960    0.9861   -1.3145 C   0  0  0  0  0  0  0  0  0  0  0  0
    3.2889    1.0221   -0.6086 C   0  0  0  0  0  0  0  0  0  0  0  0
    3.3812    0.4906    0.6676 C   0  0  0  0  0  0  0  0  0  0  0  0
    4.3877    1.5866   -1.2358 C   0  0  0  0  0  0  0  0  0  0  0  0
    4.6058    0.5242    1.3347 C   0  0  0  0  0  0  0  0  0  0  0  0
    5.6122    1.6205   -0.5685 C   0  0  0  0  0  0  0  0  0  0  0  0
    5.7213    1.0892    0.7166 C   0  0  0  0  0  0  0  0  0  0  0  0
  1 29  1  0
  2 31  1  0
  3 10  1  0
  3 15  1  0
  4 12  1  0
  4 19  1  0
  5 13  1  0
  5 23  1  0
  6 14  1  0
  6 24  1  0
  7 18  2  0
  8 16  1  0
  8 20  1  0
  8 21  1  0
  9 12  2  0
  9 13  1  0
  9 17  1  0
 10 11  1  0
 10 14  2  0
 11 13  2  0
 11 18  1  0
 12 14  1  0
 15 16  1  0
 17 19  2  0
 18 22  1  0
 22 25  2  0
 25 26  1  0
 26 27  2  0
 26 28  1  0
 27 29  1  0
 28 30  2  0
 29 31  2  0
 30 31  1  0
M  END
>  <PUBCHEM_COMPOUND_CID>  (1) 
33453

>  <PUBCHEM_CONFORMER_RMSD>  (1) 
1

>  <PUBCHEM_CONFORMER_DIVERSEORDER>  (1) 
1
40
15
14
70
52
29
10
47
75
76
24
46
79
18
82
20
85
60
39
37
84
59
58
13
26
57
77
28
31
48
49
54
30
4
67
53
22
36
74
5
71
80
33
32
21
42
6
55
45
41
65
87
11
16
9
50
68
17
43
64
56
69
34
44
81
3
51
61
66
35
27
83
38
73
72
63
23
62
2
12
25
86
78
7
8
88
19

>  <PUBCHEM_MMFF94_PARTIAL_CHARGES>  (1) 
37
1 -0.18
10 0.08
11 0.09
12 0.14
13 0.08
14 0.08
15 0.28
16 0.27
17 -0.15
18 0.47
19 -0.01
2 -0.18
20 0.27
21 0.27
22 -0.14
23 0.28
24 0.28
25 -0.18
26 0.03
27 -0.15
28 -0.15
29 0.18
3 -0.36
30 -0.15
31 0.18
36 0.15
37 0.15
4 -0.28
44 0.15
5 -0.36
51 0.15
52 0.15
53 0.15
54 0.15
6 -0.36
7 -0.57
8 -0.81

>  <PUBCHEM_EFFECTIVE_ROTOR_COUNT>  (1) 
9

>  <PUBCHEM_PHARMACOPHORE_FEATURES>  (1) 
9
1 3 acceptor
1 4 acceptor
1 5 acceptor
1 6 acceptor
1 7 acceptor
1 8 cation
5 4 9 12 17 19 rings
6 26 27 28 29 30 31 rings
6 9 10 11 12 13 14 rings

>  <PUBCHEM_HEAVY_ATOM_COUNT>  (1) 
31

>  <PUBCHEM_ATOM_DEF_STEREO_COUNT>  (1) 
0

>  <PUBCHEM_ATOM_UDEF_STEREO_COUNT>  (1) 
0

>  <PUBCHEM_BOND_DEF_STEREO_COUNT>  (1) 
0

>  <PUBCHEM_BOND_UDEF_STEREO_COUNT>  (1) 
1

>  <PUBCHEM_ISOTOPIC_ATOM_COUNT>  (1) 
0

>  <PUBCHEM_COMPONENT_COUNT>  (1) 
1

>  <PUBCHEM_CACTVS_TAUTO_COUNT>  (1) 
1

>  <PUBCHEM_CONFORMER_ID>  (1) 
000082AD00000001

>  <PUBCHEM_MMFF94_ENERGY>  (1) 
109.5443

>  <PUBCHEM_FEATURE_SELFOVERLAP>  (1) 
45.782

>  <PUBCHEM_SHAPE_FINGERPRINT>  (1) 
10006869 2 17771913723344100817
12422481 6 18115297887297730426
12633257 1 18340766035075860772
12788726 201 17761785356750934230
12839892 36 18335422391347628503
12925494 130 17978510827972651973
131258 38 16387051807977910435
13140716 1 17907887303157788945
14020679 6 17988072409147983064
14739800 52 17703225101193498809
14840074 17 17749110036692689948
15420108 30 18201718440511070639
15475509 84 9909483777104577107
15775530 1 17827064122068448950
1813 80 16877957009381029677
20554085 129 18130781223210051113
21033648 29 17561372793752077665
23559900 14 17976828588461831775
3411729 13 18342183206705625311
392239 28 18270411606266534289
4112364 45 17339311934537335201
469060 322 18267887127537200705
5265222 85 18197227052060804308
6287921 2 18336828572262272838
9961470 85 17692527815181725184

>  <PUBCHEM_SHAPE_MULTIPOLES>  (1) 
607.38
13.73
4.69
1.89
11.02
5.49
-0.37
-7.8
-8.44
-0.79
-0.03
1.48
-0.16
0.05

>  <PUBCHEM_SHAPE_SELFOVERLAP>  (1) 
1284.523

>  <PUBCHEM_SHAPE_VOLUME>  (1) 
345.8

>  <PUBCHEM_COORDINATE_TYPE>  (1) 
2
5
10

$$$$
