33457
     RDKit          3D

 30 32  0  0  0  0  0  0  0  0999 V2000
    6.9893    1.1253    1.7831 F   0  0  0  0  0  0  0  0  0  0  0  0
   -1.2730   -1.7789   -1.0373 O   0  0  0  0  0  0  0  0  0  0  0  0
   -5.1810    0.1948    0.9908 O   0  0  0  0  0  0  0  0  0  0  0  0
   -1.7646    2.9723   -0.5656 O   0  0  0  0  0  0  0  0  0  0  0  0
   -3.7396   -2.1936    0.1613 O   0  0  0  0  0  0  0  0  0  0  0  0
   -0.1292    0.8900   -2.6684 O   0  0  0  0  0  0  0  0  0  0  0  0
    1.7705   -3.5252    0.0762 N   0  0  0  0  0  0  0  0  0  0  0  0
   -3.5056    1.5021    0.2242 C   0  0  0  0  0  0  0  0  0  0  0  0
   -2.0105   -0.7055   -0.6212 C   0  0  0  0  0  0  0  0  0  0  0  0
   -1.5191    0.5899   -0.8024 C   0  0  0  0  0  0  0  0  0  0  0  0
   -3.9597    0.1972    0.3864 C   0  0  0  0  0  0  0  0  0  0  0  0
   -2.2552    1.7072   -0.3847 C   0  0  0  0  0  0  0  0  0  0  0  0
   -3.2513   -0.9328   -0.0183 C   0  0  0  0  0  0  0  0  0  0  0  0
   -0.3633   -2.3383   -0.0954 C   0  0  0  0  0  0  0  0  0  0  0  0
    0.8037   -2.9548   -0.8499 C   0  0  0  0  0  0  0  0  0  0  0  0
   -4.5206    2.3340    0.7662 C   0  0  0  0  0  0  0  0  0  0  0  0
   -0.2202    0.7863   -1.4385 C   0  0  0  0  0  0  0  0  0  0  0  0
   -5.5118    1.4931    1.2163 C   0  0  0  0  0  0  0  0  0  0  0  0
    1.1463   -4.5586    0.9060 C   0  0  0  0  0  0  0  0  0  0  0  0
    2.9157   -4.0823   -0.6480 C   0  0  0  0  0  0  0  0  0  0  0  0
    1.0022    0.8275   -0.5693 C   0  0  0  0  0  0  0  0  0  0  0  0
   -1.5689    3.7580    0.6049 C   0  0  0  0  0  0  0  0  0  0  0  0
   -4.0068   -2.5986    1.5017 C   0  0  0  0  0  0  0  0  0  0  0  0
    2.2184    0.9782   -1.1141 C   0  0  0  0  0  0  0  0  0  0  0  0
    3.4773    1.0159   -0.3492 C   0  0  0  0  0  0  0  0  0  0  0  0
    3.5099    0.4885    0.9314 C   0  0  0  0  0  0  0  0  0  0  0  0
    4.6040    1.5789   -0.9263 C   0  0  0  0  0  0  0  0  0  0  0  0
    4.7020    0.5252    1.6549 C   0  0  0  0  0  0  0  0  0  0  0  0
    5.7961    1.6155   -0.2028 C   0  0  0  0  0  0  0  0  0  0  0  0
    5.8451    1.0886    1.0877 C   0  0  0  0  0  0  0  0  0  0  0  0
  1 30  1  0
  2  9  1  0
  2 14  1  0
  3 11  1  0
  3 18  1  0
  4 12  1  0
  4 22  1  0
  5 13  1  0
  5 23  1  0
  6 17  2  0
  7 15  1  0
  7 19  1  0
  7 20  1  0
  8 11  2  0
  8 12  1  0
  8 16  1  0
  9 10  1  0
  9 13  2  0
 10 12  2  0
 10 17  1  0
 11 13  1  0
 14 15  1  0
 16 18  2  0
 17 21  1  0
 21 24  2  0
 24 25  1  0
 25 26  2  0
 25 27  1  0
 26 28  1  0
 27 29  2  0
 28 30  2  0
 29 30  1  0
M  END
>  <PUBCHEM_COMPOUND_CID>  (1) 
33457

>  <PUBCHEM_CONFORMER_RMSD>  (1) 
1

>  <PUBCHEM_CONFORMER_DIVERSEORDER>  (1) 
1
29
40
26
16
12
17
35
9
7
6
37
27
24
43
15
23
13
8
14
25
10
38
42
39
3
21
20
11
36
22
2
32
41
18
4
34
31
30
33
19
28
5

>  <PUBCHEM_MMFF94_PARTIAL_CHARGES>  (1) 
37
1 -0.19
10 0.09
11 0.14
12 0.08
13 0.08
14 0.28
15 0.27
16 -0.15
17 0.47
18 -0.01
19 0.27
2 -0.36
20 0.27
21 -0.14
22 0.28
23 0.28
24 -0.18
25 0.03
26 -0.15
27 -0.15
28 -0.15
29 -0.15
3 -0.28
30 0.19
35 0.15
36 0.15
4 -0.36
43 0.15
5 -0.36
50 0.15
51 0.15
52 0.15
53 0.15
54 0.15
6 -0.57
7 -0.81
9 0.08

>  <PUBCHEM_EFFECTIVE_ROTOR_COUNT>  (1) 
9

>  <PUBCHEM_PHARMACOPHORE_FEATURES>  (1) 
9
1 2 acceptor
1 3 acceptor
1 4 acceptor
1 5 acceptor
1 6 acceptor
1 7 cation
5 3 8 11 16 18 rings
6 25 26 27 28 29 30 rings
6 8 9 10 11 12 13 rings

>  <PUBCHEM_HEAVY_ATOM_COUNT>  (1) 
30

>  <PUBCHEM_ATOM_DEF_STEREO_COUNT>  (1) 
0

>  <PUBCHEM_ATOM_UDEF_STEREO_COUNT>  (1) 
0

>  <PUBCHEM_BOND_DEF_STEREO_COUNT>  (1) 
0

>  <PUBCHEM_BOND_UDEF_STEREO_COUNT>  (1) 
1

>  <PUBCHEM_ISOTOPIC_ATOM_COUNT>  (1) 
0

>  <PUBCHEM_COMPONENT_COUNT>  (1) 
1

>  <PUBCHEM_CACTVS_TAUTO_COUNT>  (1) 
1

>  <PUBCHEM_CONFORMER_ID>  (1) 
000082B100000001

>  <PUBCHEM_MMFF94_ENERGY>  (1) 
106.5286

>  <PUBCHEM_FEATURE_SELFOVERLAP>  (1) 
45.782

>  <PUBCHEM_SHAPE_FINGERPRINT>  (1) 
10006869 2 17771630053596903905
1100329 8 17761498384606584839
12166972 35 11455891382066906146
12422481 6 18115015317273164410
12633257 1 18340485663937445612
12788726 201 17688607368848729142
12839892 36 18334580174035941967
12925494 130 17978508633233807688
12930653 34 18412550911617157367
13140716 1 17979660127942153937
14068700 675 17911505816919855087
14178342 30 18334869341678927159
14466204 15 18412547638683519641
14739800 52 17845931823321800345
14790565 3 18265626548547306428
14840074 17 17603870052622146604
15420108 30 18201717345236361871
15775530 1 17825938222230165102
1813 80 16877954805941500493
20642791 35 18267032647719973791
21033648 29 17632307790760473341
21859007 373 17243573084618998981
22182313 1 17678173789880401365
23559900 14 18128279833871746036
3411729 13 18341899536926760287
350125 39 18122638153725501413
392239 28 18270409411464412569
4112364 45 17339311938811210009
469060 322 18267604561617652435
5265222 85 18196943378092512364
58807428 26 18408887338773142006
6287921 2 18335985251217824750
79837 15 18263646332501038386

>  <PUBCHEM_SHAPE_MULTIPOLES>  (1) 
575.78
12.67
4.88
1.53
9.98
5.68
0.13
-7.45
-7.1
0.49
-0.56
0.8
-0.22
0.46

>  <PUBCHEM_SHAPE_SELFOVERLAP>  (1) 
1237.168

>  <PUBCHEM_SHAPE_VOLUME>  (1) 
322.6

>  <PUBCHEM_COORDINATE_TYPE>  (1) 
2
5
10

$$$$
