33466
     RDKit          3D

 12 12  0  0  1  0  0  0  0  0999 V2000
   -2.6824   -0.5432    0.3737 O   0  0  0  0  0  0  0  0  0  0  0  0
   -2.0014    1.5254   -0.3970 O   0  0  0  0  0  0  0  0  0  0  0  0
    0.5558    0.9153   -0.0762 N   0  0  0  0  0  0  0  0  0  0  0  0
    2.6867   -0.1602    0.3605 N   0  0  0  0  0  0  0  0  0  0  0  0
    2.5050    2.0862   -0.1395 N   0  0  0  0  0  0  0  0  0  0  0  0
   -0.1710   -1.3715   -0.6123 C   0  0  0  0  0  0  0  0  0  0  0  0
   -0.3834   -0.1336    0.2527 C   0  0  0  0  0  0  0  0  0  0  0  0
    1.2580   -1.9230   -0.6281 C   0  0  0  0  0  0  0  0  0  0  0  0
    2.1166   -1.4911    0.5546 C   0  0  0  0  0  0  0  0  0  0  0  0
   -1.7635    0.4035    0.0296 C   0  0  0  0  0  0  0  0  0  0  0  0
    1.9311    0.8520    0.0725 C   0  0  0  0  0  0  0  0  0  0  0  0
   -4.0514   -0.1598    0.2094 C   0  0  0  0  0  0  0  0  0  0  0  0
  1 10  1  0
  1 12  1  0
  2 10  2  0
  3  7  1  0
  3 11  1  0
  4  9  1  0
  4 11  2  0
  5 11  1  0
  6  7  1  0
  6  8  1  0
  7 10  1  0
  8  9  1  0
M  END
>  <PUBCHEM_COMPOUND_CID>  (1) 
33466

>  <PUBCHEM_CONFORMER_RMSD>  (1) 
0.6

>  <PUBCHEM_CONFORMER_DIVERSEORDER>  (1) 
4
10
11
7
5
3
12
6
8
2
9
1

>  <PUBCHEM_MMFF94_PARTIAL_CHARGES>  (1) 
13
1 -0.43
10 0.66
11 0.55
12 0.28
2 -0.57
20 0.4
21 0.4
22 0.4
3 -0.82
4 -0.7
5 -0.85
7 0.43
9 0.25

>  <PUBCHEM_EFFECTIVE_ROTOR_COUNT>  (1) 
3

>  <PUBCHEM_PHARMACOPHORE_FEATURES>  (1) 
5
1 2 acceptor
1 3 donor
1 5 donor
4 3 4 5 11 cation
7 3 4 6 7 8 9 11 rings

>  <PUBCHEM_HEAVY_ATOM_COUNT>  (1) 
12

>  <PUBCHEM_ATOM_DEF_STEREO_COUNT>  (1) 
0

>  <PUBCHEM_ATOM_UDEF_STEREO_COUNT>  (1) 
1

>  <PUBCHEM_BOND_DEF_STEREO_COUNT>  (1) 
0

>  <PUBCHEM_BOND_UDEF_STEREO_COUNT>  (1) 
0

>  <PUBCHEM_ISOTOPIC_ATOM_COUNT>  (1) 
0

>  <PUBCHEM_COMPONENT_COUNT>  (1) 
1

>  <PUBCHEM_CACTVS_TAUTO_COUNT>  (1) 
3

>  <PUBCHEM_CONFORMER_ID>  (1) 
000082BA00000004

>  <PUBCHEM_MMFF94_ENERGY>  (1) 
30.42

>  <PUBCHEM_FEATURE_SELFOVERLAP>  (1) 
25.429

>  <PUBCHEM_SHAPE_FINGERPRINT>  (1) 
1 1 18341895207847425070
10219947 1 18409168844030764881
10608611 8 18335416821049579677
12346645 6 18413109471850030517
12696612 119 18339083683342203830
12932764 1 17346307198657185121
13380535 76 18338234980698816458
13380536 305 18341341049787095126
14251717 144 18342734122593206463
14325111 11 18411138065029573889
15219456 202 18335699404196125669
15775835 57 18271247247576881024
16945 1 18410568479130218646
17990270 104 18267305335224855290
19973954 147 18338799983672907433
20201158 50 18409168770916367099
20645477 70 18410852140820419487
20653091 64 18338240340944297314
20871998 22 18053665776731436758
21040471 1 18270395135092937728
21501502 16 18337958878968773161
21524375 3 18267867370735189024
23552423 10 18335704888441990723
241688 4 17548988754118200482
2748010 2 17910104716582308366
449060 62 18410299150447647601
5084963 1 18342737390519798467
528862 383 18409726278993074514
581208 293 18342172289062061719
7364860 26 18342741810478833294
81539 233 18188209909017600524

>  <PUBCHEM_SHAPE_MULTIPOLES>  (1) 
220.27
5.06
1.93
0.72
4.3
0.12
0.01
0.48
-0.68
-1.4
0.3
-0.07
-0.15
0.03

>  <PUBCHEM_SHAPE_SELFOVERLAP>  (1) 
437.608

>  <PUBCHEM_SHAPE_VOLUME>  (1) 
127.9

>  <PUBCHEM_COORDINATE_TYPE>  (1) 
2
5
10

$$$$
