33463
     RDKit          3D

 30 32  0  0  1  0  0  0  0  0999 V2000
    3.5308   -3.0124   -0.9847 Cl  0  0  0  0  0  0  0  0  0  0  0  0
    0.4709    2.0415   -1.4782 O   0  0  0  0  0  0  0  0  0  0  0  0
    3.1608    2.4381   -1.1778 O   0  0  0  0  0  0  0  0  0  0  0  0
    4.5061    1.3052    0.9550 O   0  0  0  0  0  0  0  0  0  0  0  0
   -5.4833    1.4176   -0.0445 O   0  0  0  0  0  0  0  0  0  0  0  0
   -4.6070   -0.6095   -1.7206 O   0  0  0  0  0  0  0  0  0  0  0  0
    0.5932   -4.4605   -0.2462 O   0  0  0  0  0  0  0  0  0  0  0  0
    0.3563   -2.1567   -0.3962 N   0  0  0  0  0  0  0  0  0  0  0  0
   -0.6983   -2.0353    0.5922 C   0  0  0  0  0  0  0  0  0  0  0  0
   -0.1429   -2.0398    2.0346 C   0  0  0  0  0  0  0  0  0  0  0  0
    0.3560   -0.7106    2.6164 C   0  0  0  0  0  0  0  0  0  0  0  0
   -1.6041   -0.8588    0.2161 C   0  0  0  0  0  0  0  0  0  0  0  0
    1.0958    0.1453    1.6224 C   0  0  0  0  0  0  0  0  0  0  0  0
    0.4019    0.7306    0.5424 C   0  0  0  0  0  0  0  0  0  0  0  0
   -1.0652    0.4991    0.3935 C   0  0  0  0  0  0  0  0  0  0  0  0
    1.1072    1.4971   -0.3987 C   0  0  0  0  0  0  0  0  0  0  0  0
    2.4760    0.3492    1.7483 C   0  0  0  0  0  0  0  0  0  0  0  0
   -2.7991   -1.1532   -0.3284 C   0  0  0  0  0  0  0  0  0  0  0  0
   -1.8082    1.6135    0.5351 C   0  0  0  0  0  0  0  0  0  0  0  0
    2.4811    1.6928   -0.2597 C   0  0  0  0  0  0  0  0  0  0  0  0
    3.1634    1.1217    0.8124 C   0  0  0  0  0  0  0  0  0  0  0  0
   -3.8742   -0.2501   -0.8008 C   0  0  0  0  0  0  0  0  0  0  0  0
    0.9133   -3.3759   -0.7294 C   0  0  0  0  0  0  0  0  0  0  0  0
   -3.2396    1.7609    0.5364 C   0  0  0  0  0  0  0  0  0  0  0  0
   -4.1601    1.0053   -0.0681 C   0  0  0  0  0  0  0  0  0  0  0  0
    1.9753   -3.2616   -1.7930 C   0  0  0  0  0  0  0  0  0  0  0  0
    0.4141    1.2482   -2.6600 C   0  0  0  0  0  0  0  0  0  0  0  0
    3.2712    3.8360   -0.9217 C   0  0  0  0  0  0  0  0  0  0  0  0
    5.3603    0.3497    0.3298 C   0  0  0  0  0  0  0  0  0  0  0  0
   -6.1519    0.8728    1.0735 C   0  0  0  0  0  0  0  0  0  0  0  0
  1 26  1  0
  2 16  1  0
  2 27  1  0
  3 20  1  0
  3 28  1  0
  4 21  1  0
  4 29  1  0
  5 25  1  0
  5 30  1  0
  6 22  2  0
  7 23  2  0
  8  9  1  0
  8 23  1  0
  9 10  1  0
  9 12  1  0
 10 11  1  0
 11 13  1  0
 12 15  1  0
 12 18  2  0
 13 14  2  0
 13 17  1  0
 14 15  1  0
 14 16  1  0
 15 19  2  0
 16 20  2  0
 17 21  2  0
 18 22  1  0
 19 24  1  0
 20 21  1  0
 22 25  1  0
 23 26  1  0
 24 25  2  0
M  END
>  <PUBCHEM_COMPOUND_CID>  (1) 
33463

>  <PUBCHEM_CONFORMER_RMSD>  (1) 
1

>  <PUBCHEM_CONFORMER_DIVERSEORDER>  (1) 
1
16
9
4
10
7
12
8
2
5
3
11
13
15
6
14

>  <PUBCHEM_MMFF94_PARTIAL_CHARGES>  (1) 
34
1 -0.29
11 0.14
12 -0.14
13 -0.14
14 0.03
15 -0.03
16 0.08
17 -0.15
18 -0.14
19 -0.15
2 -0.36
20 0.08
21 0.08
22 0.54
23 0.57
24 -0.15
25 0.09
26 0.35
27 0.28
28 0.28
29 0.28
3 -0.36
30 0.28
36 0.37
37 0.15
38 0.15
39 0.15
4 -0.36
40 0.15
5 -0.36
6 -0.57
7 -0.57
8 -0.73
9 0.44

>  <PUBCHEM_EFFECTIVE_ROTOR_COUNT>  (1) 
7.6

>  <PUBCHEM_PHARMACOPHORE_FEATURES>  (1) 
10
1 2 acceptor
1 3 acceptor
1 4 acceptor
1 5 acceptor
1 6 acceptor
1 7 acceptor
1 8 donor
6 13 14 16 17 20 21 rings
7 12 15 18 19 22 24 25 rings
7 9 10 11 12 13 14 15 rings

>  <PUBCHEM_HEAVY_ATOM_COUNT>  (1) 
30

>  <PUBCHEM_ATOM_DEF_STEREO_COUNT>  (1) 
1

>  <PUBCHEM_ATOM_UDEF_STEREO_COUNT>  (1) 
0

>  <PUBCHEM_BOND_DEF_STEREO_COUNT>  (1) 
0

>  <PUBCHEM_BOND_UDEF_STEREO_COUNT>  (1) 
0

>  <PUBCHEM_ISOTOPIC_ATOM_COUNT>  (1) 
0

>  <PUBCHEM_COMPONENT_COUNT>  (1) 
1

>  <PUBCHEM_CACTVS_TAUTO_COUNT>  (1) 
2

>  <PUBCHEM_CONFORMER_ID>  (1) 
000082B700000001

>  <PUBCHEM_MMFF94_ENERGY>  (1) 
135.5737

>  <PUBCHEM_FEATURE_SELFOVERLAP>  (1) 
50.78

>  <PUBCHEM_SHAPE_FINGERPRINT>  (1) 
11045515 52 17476374802796421678
11112662 9 18335977644756403420
11370993 70 18272647995853313302
11488393 25 18046891698319296866
12236239 1 18333725840743248769
12422481 6 18051379947870650234
12788726 201 17695334163839059623
13140716 1 17241884483803625448
133893 2 18056506987369768859
1361 2 18411421683606564902
14955137 171 17894639149140102257
17980427 26 17057768980624436264
1813 80 17977945683570186323
18681886 176 18338785827650942240
20691752 17 17968377818983782467
20775438 99 16115106255916809255
21033648 144 18042114530634145309
22149856 69 18341911675833297937
22182313 1 17971464110085474885
23559900 14 18343582967039567144
23598288 3 17901668494611846874
350125 39 17912370823475655017
35225 105 17342947267590862350
4017518 198 18060421335898738086
404807 14 17051917143914337246
474 4 18187641406093647161
5081480 168 18053945048415740525
5265222 85 18198630028760845356
59755656 215 18340205180944790277
6287921 2 18269830930935518359

>  <PUBCHEM_SHAPE_MULTIPOLES>  (1) 
579.06
9.05
4.22
1.99
8.62
3.01
0.07
-4.59
-0.17
-4.42
-1.91
-0.59
0.22
0.02

>  <PUBCHEM_SHAPE_SELFOVERLAP>  (1) 
1225.612

>  <PUBCHEM_SHAPE_VOLUME>  (1) 
323

>  <PUBCHEM_COORDINATE_TYPE>  (1) 
2
5
10

$$$$
