33473
     RDKit          3D

 17 18  0  0  0  0  0  0  0  0999 V2000
    0.8943   -2.7185   -0.8136 Cl  0  0  0  0  0  0  0  0  0  0  0  0
    0.8945    2.7194   -0.8101 Cl  0  0  0  0  0  0  0  0  0  0  0  0
    4.9182   -0.0012    1.5131 Cl  0  0  0  0  0  0  0  0  0  0  0  0
   -0.1694    0.0010   -1.4271 O   0  0  0  0  0  0  0  0  0  0  0  0
   -4.8731   -0.0019    1.5396 N   0  0  0  0  0  0  0  0  0  0  0  0
    1.0294    0.0004   -0.7339 C   0  0  0  0  0  0  0  0  0  0  0  0
   -1.3204    0.0008   -0.7006 C   0  0  0  0  0  0  0  0  0  0  0  0
   -2.5546    0.0014   -1.3504 C   0  0  0  0  0  0  0  0  0  0  0  0
   -1.2660   -0.0002    0.6931 C   0  0  0  0  0  0  0  0  0  0  0  0
    1.6162   -1.2078   -0.3951 C   0  0  0  0  0  0  0  0  0  0  0  0
    1.6163    1.2082   -0.3937 C   0  0  0  0  0  0  0  0  0  0  0  0
   -3.6801   -0.0005    0.7875 C   0  0  0  0  0  0  0  0  0  0  0  0
   -3.7345    0.0007   -0.6063 C   0  0  0  0  0  0  0  0  0  0  0  0
   -2.4458   -0.0009    1.4372 C   0  0  0  0  0  0  0  0  0  0  0  0
    2.8237   -1.2083    0.3032 C   0  0  0  0  0  0  0  0  0  0  0  0
    2.8238    1.2077    0.3044 C   0  0  0  0  0  0  0  0  0  0  0  0
    3.4275   -0.0005    0.6529 C   0  0  0  0  0  0  0  0  0  0  0  0
  1 10  1  0
  2 11  1  0
  3 17  1  0
  4  6  1  0
  4  7  1  0
  5 12  1  0
  6 10  2  0
  6 11  1  0
  7  8  2  0
  7  9  1  0
  8 13  1  0
  9 14  2  0
 10 15  1  0
 11 16  2  0
 12 13  2  0
 12 14  1  0
 15 17  2  0
 16 17  1  0
M  END
>  <PUBCHEM_COMPOUND_CID>  (1) 
33473

>  <PUBCHEM_CONFORMER_RMSD>  (1) 
0.6

>  <PUBCHEM_CONFORMER_DIVERSEORDER>  (1) 
1
2

>  <PUBCHEM_MMFF94_PARTIAL_CHARGES>  (1) 
25
1 -0.18
10 0.18
11 0.18
12 0.1
13 -0.15
14 -0.15
15 -0.15
16 -0.15
17 0.18
18 0.15
19 0.15
2 -0.18
20 0.15
21 0.15
22 0.15
23 0.15
24 0.4
25 0.4
3 -0.18
4 -0.17
5 -0.9
6 0.08
7 0.08
8 -0.15
9 -0.15

>  <PUBCHEM_EFFECTIVE_ROTOR_COUNT>  (1) 
2

>  <PUBCHEM_PHARMACOPHORE_FEATURES>  (1) 
5
1 4 acceptor
1 5 cation
1 5 donor
6 6 10 11 15 16 17 rings
6 7 8 9 12 13 14 rings

>  <PUBCHEM_HEAVY_ATOM_COUNT>  (1) 
17

>  <PUBCHEM_ATOM_DEF_STEREO_COUNT>  (1) 
0

>  <PUBCHEM_ATOM_UDEF_STEREO_COUNT>  (1) 
0

>  <PUBCHEM_BOND_DEF_STEREO_COUNT>  (1) 
0

>  <PUBCHEM_BOND_UDEF_STEREO_COUNT>  (1) 
0

>  <PUBCHEM_ISOTOPIC_ATOM_COUNT>  (1) 
0

>  <PUBCHEM_COMPONENT_COUNT>  (1) 
1

>  <PUBCHEM_CACTVS_TAUTO_COUNT>  (1) 
1

>  <PUBCHEM_CONFORMER_ID>  (1) 
000082C100000001

>  <PUBCHEM_MMFF94_ENERGY>  (1) 
63.4436

>  <PUBCHEM_FEATURE_SELFOVERLAP>  (1) 
25.371

>  <PUBCHEM_SHAPE_FINGERPRINT>  (1) 
10219947 1 18410287012991128716
10465860 250 17458896072708018264
10498660 4 15195290802701505843
11471102 22 18335134280830847572
11578080 2 17054660570974237985
11640471 11 17561371677281659113
11796584 16 16081634574855898410
12236239 1 17632568362115127615
12251169 10 18335139816706224850
124424 183 17603853499185210508
12633257 1 18114189661001768331
13134695 92 18114169865645687668
13288520 33 15574705860072495794
13764800 53 15698009543629297207
13965767 371 16913164372461647265
14178342 30 18343025514449144683
14252887 29 18336543829147441106
15209294 21 17561071528003390984
15309172 13 18411410726775662750
15653759 3 17167859772604049933
15775835 57 17203891859546785898
16752209 62 14274006784636801321
16945 1 18410859858248519820
17804303 29 16660361485017106449
1813 80 18057061111893319598
18186145 218 18202849846148689903
19049666 15 17751632161500032781
20279233 1 17894628137012461295
204376 136 18342452690439509550
21637258 2 15213286535472984538
22182313 1 18124297330442635998
23175994 123 18040710342673990364
23184049 59 18411694392222403166
232386 152 15574720204815079131
23402539 116 17603852408843798799
23402655 69 10663827368581342371
23559900 14 16153420662678653748
26918003 58 18259982674004823777
2748010 2 17979615868055904622
2838139 119 14547866556708998218
31174 14 17968386761411680349
3250762 1 17619056245152725526
3286 77 17822015345521425281
3472631 163 15985104115568858153
4340502 62 18272944825665629355
474 4 17988639735403585528
568465 68 17967816041751358514
633830 44 17704074027339085796
7364860 26 15983995725958623862
76465 3 17022904609648606267
77492 1 17703783734583279591
81228 2 17755304470123412252

>  <PUBCHEM_SHAPE_MULTIPOLES>  (1) 
344.61
7.98
1.93
1.48
1.96
0
-0.26
0
-4.62
-1.51
0.83
0.66
0
0

>  <PUBCHEM_SHAPE_SELFOVERLAP>  (1) 
719.231

>  <PUBCHEM_SHAPE_VOLUME>  (1) 
198.9

>  <PUBCHEM_COORDINATE_TYPE>  (1) 
2
5
10

$$$$
