33479
     RDKit          3D

 14 14  0  0  0  0  0  0  0  0999 V2000
   -4.3914   -1.2820   -0.4605 O   0  0  0  0  0  0  0  0  0  0  0  0
   -4.6003    0.9727   -0.6582 O   0  0  0  0  0  0  0  0  0  0  0  0
    2.6026    0.0579   -0.1488 C   0  0  0  0  0  0  0  0  0  0  0  0
    4.0772    0.0211    0.2644 C   0  0  0  0  0  0  0  0  0  0  0  0
    1.6462    0.1292    1.0471 C   0  0  0  0  0  0  0  0  0  0  0  0
    4.9920   -0.0757   -0.9571 C   0  0  0  0  0  0  0  0  0  0  0  0
    0.1880    0.0912    0.6642 C   0  0  0  0  0  0  0  0  0  0  0  0
    6.4555   -0.1516   -0.5521 C   0  0  0  0  0  0  0  0  0  0  0  0
   -0.4799    1.2796    0.4104 C   0  0  0  0  0  0  0  0  0  0  0  0
   -0.4605   -1.1308    0.5714 C   0  0  0  0  0  0  0  0  0  0  0  0
   -1.8285    1.2451    0.0553 C   0  0  0  0  0  0  0  0  0  0  0  0
   -1.8088   -1.1655    0.2161 C   0  0  0  0  0  0  0  0  0  0  0  0
   -2.4928    0.0226   -0.0419 C   0  0  0  0  0  0  0  0  0  0  0  0
   -3.8993   -0.0138   -0.4103 C   0  0  0  0  0  0  0  0  0  0  0  0
  1 14  1  0
  2 14  2  0
  3  4  1  0
  3  5  1  0
  4  6  1  0
  5  7  1  0
  6  8  1  0
  7  9  2  0
  7 10  1  0
  9 11  1  0
 10 12  2  0
 11 13  2  0
 12 13  1  0
 13 14  1  0
M  END
>  <PUBCHEM_COMPOUND_CID>  (1) 
33479

>  <PUBCHEM_CONFORMER_RMSD>  (1) 
0.6

>  <PUBCHEM_CONFORMER_DIVERSEORDER>  (1) 
1
19
27
26
17
4
16
21
29
22
2
28
18
5
12
24
3
6
15
10
30
20
11
25
13
23
14
9
7
8

>  <PUBCHEM_MMFF94_PARTIAL_CHARGES>  (1) 
15
1 -0.65
10 -0.15
11 -0.15
12 -0.15
13 0.09
14 0.63
2 -0.57
26 0.15
27 0.15
28 0.15
29 0.15
30 0.5
5 0.14
7 -0.14
9 -0.15

>  <PUBCHEM_EFFECTIVE_ROTOR_COUNT>  (1) 
5

>  <PUBCHEM_PHARMACOPHORE_FEATURES>  (1) 
6
1 1 acceptor
1 2 acceptor
1 8 hydrophobe
3 1 2 14 anion
4 3 4 5 6 hydrophobe
6 7 9 10 11 12 13 rings

>  <PUBCHEM_HEAVY_ATOM_COUNT>  (1) 
14

>  <PUBCHEM_ATOM_DEF_STEREO_COUNT>  (1) 
0

>  <PUBCHEM_ATOM_UDEF_STEREO_COUNT>  (1) 
0

>  <PUBCHEM_BOND_DEF_STEREO_COUNT>  (1) 
0

>  <PUBCHEM_BOND_UDEF_STEREO_COUNT>  (1) 
0

>  <PUBCHEM_ISOTOPIC_ATOM_COUNT>  (1) 
0

>  <PUBCHEM_COMPONENT_COUNT>  (1) 
1

>  <PUBCHEM_CACTVS_TAUTO_COUNT>  (1) 
1

>  <PUBCHEM_CONFORMER_ID>  (1) 
000082C700000001

>  <PUBCHEM_MMFF94_ENERGY>  (1) 
26.3369

>  <PUBCHEM_FEATURE_SELFOVERLAP>  (1) 
30.504

>  <PUBCHEM_SHAPE_FINGERPRINT>  (1) 
10968037 39 18342460361403873292
11315181 36 18343590646788920752
114248 4 18342740724020918964
12032990 46 18271522104531143715
12236239 1 17603583024226256978
12251169 10 9511457819117568034
12670543 26 18341328890338956876
12714333 28 17748827419333857732
13214271 11 11602821311203908771
13288520 33 17847064380343314636
14251718 22 18411702101920808142
14350574 20 18131633413018606072
14911166 2 18410290319767916817
14993402 34 17967530181396767101
15048467 5 16805599240437512525
15501527 24 18259704523359121790
17834072 8 18342451535035258973
17834076 25 17458063763643069572
17870717 6 18272382957510833494
1813 80 14476692927081041856
187816 3 18410294709298268520
200 152 16702023067394247442
20300324 65 18412548699782846296
20374829 77 18202843253616483286
20645476 183 17748825249890473107
20645477 56 12251902611893862434
20645477 70 17346605136929194590
20871999 31 18412262800826543792
21119208 17 18187085061736441380
21267235 1 18339644542511955579
21637258 2 15410600489551558541
22854114 59 12324239464620921658
22926399 37 16443347576534480388
23379529 103 17553468577018423079
23402539 116 18410290307094005244
23402655 69 18188203208763273013
23557571 272 18131357362849918900
23559900 14 18342734161379820104
26918003 58 14117516549528542614
351380 3 14189576313231889012
42 15 12103847860654712576
449060 50 13551191069629624544
69474 34 8070021151783841006

>  <PUBCHEM_SHAPE_MULTIPOLES>  (1) 
276.37
11.75
1.18
0.9
13.77
0
-0.04
0.76
4.72
-1.15
-0.04
0.33
0
0.11

>  <PUBCHEM_SHAPE_SELFOVERLAP>  (1) 
558.251

>  <PUBCHEM_SHAPE_VOLUME>  (1) 
162

>  <PUBCHEM_COORDINATE_TYPE>  (1) 
2
5
10

$$$$
