33472
     RDKit          3D

 19 21  0  0  1  0  0  0  0  0999 V2000
    3.0395   -1.1097   -0.1264 O   0  0  0  0  0  0  0  0  0  0  0  0
   -3.1557    1.6192    0.1098 O   0  0  0  0  0  0  0  0  0  0  0  0
   -4.8669    0.3566    0.8306 O   0  0  0  0  0  0  0  0  0  0  0  0
    4.8782    0.2644   -0.1810 O   0  0  0  0  0  0  0  0  0  0  0  0
   -1.0005    0.6296   -0.6962 C   0  0  0  0  0  0  0  0  0  0  0  0
   -1.3562   -0.6281    0.1484 C   0  0  0  0  0  0  0  0  0  0  0  0
   -0.6729   -1.9603   -0.2825 C   0  0  0  0  0  0  0  0  0  0  0  0
    0.5189    0.9941   -0.7297 C   0  0  0  0  0  0  0  0  0  0  0  0
    1.3384    0.4579    0.4526 C   0  0  0  0  0  0  0  0  0  0  0  0
    1.6744   -1.0312    0.3476 C   0  0  0  0  0  0  0  0  0  0  0  0
    0.8228   -1.8572   -0.6181 C   0  0  0  0  0  0  0  0  0  0  0  0
   -1.7361    1.8024   -0.0172 C   0  0  0  0  0  0  0  0  0  0  0  0
   -2.8824   -0.8098    0.2142 C   0  0  0  0  0  0  0  0  0  0  0  0
   -1.4926    0.5109   -2.1562 C   0  0  0  0  0  0  0  0  0  0  0  0
    2.7055    1.0498    0.5042 C   0  0  0  0  0  0  0  0  0  0  0  0
   -0.8684   -3.0534    0.7842 C   0  0  0  0  0  0  0  0  0  0  0  0
   -3.7022    0.4326    0.4434 C   0  0  0  0  0  0  0  0  0  0  0  0
    3.6964    0.0693    0.0366 C   0  0  0  0  0  0  0  0  0  0  0  0
    3.0599    2.2629    0.9356 C   0  0  0  0  0  0  0  0  0  0  0  0
  1 10  1  0
  1 18  1  0
  2 12  1  0
  2 17  1  0
  3 17  2  0
  4 18  2  0
  5  6  1  0
  5  8  1  0
  5 12  1  0
  5 14  1  0
  6  7  1  0
  6 13  1  0
  7 11  1  0
  7 16  1  0
  8  9  1  0
  9 10  1  0
  9 15  1  0
 10 11  1  0
 13 17  1  0
 15 18  1  0
 15 19  2  0
M  END
>  <PUBCHEM_COMPOUND_CID>  (1) 
33472

>  <PUBCHEM_CONFORMER_RMSD>  (1) 
0.6

>  <PUBCHEM_CONFORMER_DIVERSEORDER>  (1) 
1
4
3
2

>  <PUBCHEM_MMFF94_PARTIAL_CHARGES>  (1) 
14
1 -0.43
10 0.28
12 0.28
13 0.06
15 -0.12
17 0.66
18 0.71
19 -0.3
2 -0.43
3 -0.57
38 0.15
39 0.15
4 -0.57
9 0.14

>  <PUBCHEM_EFFECTIVE_ROTOR_COUNT>  (1) 
1.4

>  <PUBCHEM_PHARMACOPHORE_FEATURES>  (1) 
5
1 3 acceptor
1 4 acceptor
5 1 9 10 15 18 rings
6 2 5 6 12 13 17 rings
7 5 6 7 8 9 10 11 rings

>  <PUBCHEM_HEAVY_ATOM_COUNT>  (1) 
19

>  <PUBCHEM_ATOM_DEF_STEREO_COUNT>  (1) 
5

>  <PUBCHEM_ATOM_UDEF_STEREO_COUNT>  (1) 
0

>  <PUBCHEM_BOND_DEF_STEREO_COUNT>  (1) 
0

>  <PUBCHEM_BOND_UDEF_STEREO_COUNT>  (1) 
0

>  <PUBCHEM_ISOTOPIC_ATOM_COUNT>  (1) 
0

>  <PUBCHEM_COMPONENT_COUNT>  (1) 
1

>  <PUBCHEM_CACTVS_TAUTO_COUNT>  (1) 
1

>  <PUBCHEM_CONFORMER_ID>  (1) 
000082C000000001

>  <PUBCHEM_MMFF94_ENERGY>  (1) 
65.5279

>  <PUBCHEM_FEATURE_SELFOVERLAP>  (1) 
25.415

>  <PUBCHEM_SHAPE_FINGERPRINT>  (1) 
10608611 8 18341890857130002216
10863032 1 18202002174365784643
10922049 32 18343023272096037847
10948715 1 18273216400051171235
10967382 1 18410855438684980394
11132069 177 18261107504401466881
12011746 2 18408325475462101959
12173636 292 18412257358997361421
12251169 10 18261115192229448421
12382932 28 18337953522864707579
12403814 3 17530962501103128493
12633257 1 18410284826815969050
12969540 114 18188468247474954007
13140716 1 18266451178436608826
14178342 30 18120361314574246954
14787075 74 18272929462356075641
14943859 89 16774076280159325508
15196674 1 18338237059425811051
15209289 33 18341612586019455226
15295992 7 17845929749142525816
15309172 13 18334853905244445311
15775835 57 18343021090257919722
16945 1 17896021291069250638
17804303 29 18411425033353696286
18186145 218 18201709657149572604
19591789 44 18263926536135384306
20510252 161 18341333292886540449
21041028 32 17840588093995226834
21501502 16 18269264841434707198
21524375 3 18413671296606760571
23402539 116 18412818101363654639
23559900 14 18341891893187531848
238 59 17977910572053994013
25 1 18271803471827664718
2748010 2 18115858612115038878
298252 57 16630526219901886335
3286 77 18263928726346977295
465052 167 17241060876515900337
5104073 3 18339072821992366402
633830 44 18130788915296037541
69090 78 18413385458111900371
7364860 26 18053103926115517999
81228 2 17901089030261330114
8809292 202 18337110163503417242
9709674 26 18271248317330011382
9981440 41 16265127917303626456

>  <PUBCHEM_SHAPE_MULTIPOLES>  (1) 
367.53
7.03
2.45
1.1
1.25
1.16
0.47
-2.51
-1.66
-0.17
-0.46
-0.42
-0.17
0.53

>  <PUBCHEM_SHAPE_SELFOVERLAP>  (1) 
781.267

>  <PUBCHEM_SHAPE_VOLUME>  (1) 
203.7

>  <PUBCHEM_COORDINATE_TYPE>  (1) 
2
5
10

$$$$
