33470
     RDKit          3D

  8  8  0  0  0  0  0  0  0  0999 V2000
    2.1038   -0.8106   -0.2851 S   0  0  0  0  0  0  0  0  0  0  0  0
   -0.4950   -1.3101    0.0631 N   0  0  0  0  0  0  0  0  0  0  0  0
    0.1332    0.9888   -0.2163 N   0  0  0  0  0  0  0  0  0  0  0  0
   -2.1721    0.4056    0.1047 N   0  0  0  0  0  0  0  0  0  0  0  0
    0.3969   -0.3249   -0.1294 C   0  0  0  0  0  0  0  0  0  0  0  0
    2.9639    0.6420    0.3824 C   0  0  0  0  0  0  0  0  0  0  0  0
   -1.7592   -0.8705    0.1710 C   0  0  0  0  0  0  0  0  0  0  0  0
   -1.1716    1.2797   -0.0904 C   0  0  0  0  0  0  0  0  0  0  0  0
  1  5  1  0
  1  6  1  0
  2  5  2  0
  2  7  1  0
  3  5  1  0
  3  8  2  0
  4  7  2  0
  4  8  1  0
M  END
>  <PUBCHEM_COMPOUND_CID>  (1) 
33470

>  <PUBCHEM_CONFORMER_RMSD>  (1) 
0.4

>  <PUBCHEM_CONFORMER_DIVERSEORDER>  (1) 
2
1
3

>  <PUBCHEM_MMFF94_PARTIAL_CHARGES>  (1) 
10
1 -0.33
12 0.15
13 0.15
2 -0.62
3 -0.62
4 -0.62
5 0.72
6 0.23
7 0.47
8 0.47

>  <PUBCHEM_EFFECTIVE_ROTOR_COUNT>  (1) 
1

>  <PUBCHEM_PHARMACOPHORE_FEATURES>  (1) 
5
1 6 hydrophobe
3 2 3 5 cation
3 2 4 7 cation
3 3 4 8 cation
6 2 3 4 5 7 8 rings

>  <PUBCHEM_HEAVY_ATOM_COUNT>  (1) 
8

>  <PUBCHEM_ATOM_DEF_STEREO_COUNT>  (1) 
0

>  <PUBCHEM_ATOM_UDEF_STEREO_COUNT>  (1) 
0

>  <PUBCHEM_BOND_DEF_STEREO_COUNT>  (1) 
0

>  <PUBCHEM_BOND_UDEF_STEREO_COUNT>  (1) 
0

>  <PUBCHEM_ISOTOPIC_ATOM_COUNT>  (1) 
0

>  <PUBCHEM_COMPONENT_COUNT>  (1) 
1

>  <PUBCHEM_CACTVS_TAUTO_COUNT>  (1) 
1

>  <PUBCHEM_CONFORMER_ID>  (1) 
000082BE00000002

>  <PUBCHEM_MMFF94_ENERGY>  (1) 
14.6746

>  <PUBCHEM_FEATURE_SELFOVERLAP>  (1) 
28.144

>  <PUBCHEM_SHAPE_FINGERPRINT>  (1) 
10857977 72 18336824298716487866
14390081 3 18272367568611285104
16714656 1 18409170991139866559
20645464 45 18201435866011558442
21040471 1 18191874417958693061
23552423 10 18187370908863544678
29004967 10 18335710471941712618
369184 2 18259697891692226962
5084963 1 17823428084608024414

>  <PUBCHEM_SHAPE_MULTIPOLES>  (1) 
153.54
3.59
1.38
0.64
1.91
0.03
0
0.33
0.36
-0.19
-0.01
0.12
0
0.23

>  <PUBCHEM_SHAPE_SELFOVERLAP>  (1) 
294.677

>  <PUBCHEM_SHAPE_VOLUME>  (1) 
94.1

>  <PUBCHEM_COORDINATE_TYPE>  (1) 
2
5
10

$$$$
