33480
     RDKit          3D

 17 17  0  0  1  0  0  0  0  0999 V2000
    4.5958   -1.1550   -0.7965 O   0  0  0  0  0  0  0  0  0  0  0  0
   -4.5774   -1.2031    0.8006 O   0  0  0  0  0  0  0  0  0  0  0  0
    2.3272    0.2673    0.2177 N   0  0  0  0  0  0  0  0  0  0  0  0
   -2.3421    0.2385   -0.2189 N   0  0  0  0  0  0  0  0  0  0  0  0
   -0.0072    0.2212   -0.0024 N   0  0  0  0  0  0  0  0  0  0  0  0
   -1.2147    2.2919   -0.1121 N   0  0  0  0  0  0  0  0  0  0  0  0
    1.1744    2.3065    0.1112 N   0  0  0  0  0  0  0  0  0  0  0  0
    2.4194   -1.1862    0.2241 C   0  0  0  0  0  0  0  0  0  0  0  0
   -2.4039   -1.1896   -0.2269 C   0  0  0  0  0  0  0  0  0  0  0  0
    3.8681   -1.6714    0.3173 C   0  0  0  0  0  0  0  0  0  0  0  0
   -3.8428   -1.7036   -0.3162 C   0  0  0  0  0  0  0  0  0  0  0  0
    1.1342    0.9492    0.1053 C   0  0  0  0  0  0  0  0  0  0  0  0
   -1.1290    0.9518   -0.1063 C   0  0  0  0  0  0  0  0  0  0  0  0
    3.9935   -3.1893    0.2859 C   0  0  0  0  0  0  0  0  0  0  0  0
   -3.9378   -3.2237   -0.2864 C   0  0  0  0  0  0  0  0  0  0  0  0
   -0.0240    2.9022    0.0001 C   0  0  0  0  0  0  0  0  0  0  0  0
   -0.0335    4.3930    0.0034 C   0  0  0  0  0  0  0  0  0  0  0  0
  1 10  1  0
  2 11  1  0
  3  8  1  0
  3 12  1  0
  4  9  1  0
  4 13  1  0
  5 12  2  0
  5 13  1  0
  6 13  2  0
  6 16  1  0
  7 12  1  0
  7 16  2  0
  8 10  1  0
  9 11  1  0
 10 14  1  0
 11 15  1  0
 16 17  1  0
M  END
>  <PUBCHEM_COMPOUND_CID>  (1) 
33480

>  <PUBCHEM_CONFORMER_RMSD>  (1) 
0.8

>  <PUBCHEM_CONFORMER_DIVERSEORDER>  (1) 
1
115
135
34
120
63
123
38
149
6
101
8
84
65
17
132
26
86
142
105
44
83
9
125
3
2
104
112
136
103
156
89
80
119
130
45
46
148
121
152
94
39
102
61
48
150
131
55
91
50
155
116
13
70
111
67
126
109
93
114
92
16
30
68
97
87
96
127
100
134
138
19
108
78
95
146
54
72
41
27
25
154
107
33
76
71
144
151
51
153
122
49
18
66
157
147
23
59
99
79
137
117
141
15
140
69
118
74
82
52
32
7
56
128
106
73
20
60
88
85
37
64
143
11
5
43
98
90
139
124
53
75
29
22
81
21
62
40
36
145
28
35
14
31
24
110
57
4
133
47
77
10
12
42
129
113
58

>  <PUBCHEM_MMFF94_PARTIAL_CHARGES>  (1) 
19
1 -0.68
10 0.28
11 0.28
12 0.72
13 0.72
16 0.48
17 0.14
2 -0.68
24 0.4
25 0.4
3 -0.87
32 0.4
33 0.4
4 -0.87
5 -0.62
6 -0.62
7 -0.62
8 0.37
9 0.37

>  <PUBCHEM_EFFECTIVE_ROTOR_COUNT>  (1) 
6

>  <PUBCHEM_PHARMACOPHORE_FEATURES>  (1) 
9
1 1 acceptor
1 1 donor
1 2 acceptor
1 2 donor
1 3 donor
1 4 donor
4 3 5 7 12 cation
4 4 5 6 13 cation
6 5 6 7 12 13 16 rings

>  <PUBCHEM_HEAVY_ATOM_COUNT>  (1) 
17

>  <PUBCHEM_ATOM_DEF_STEREO_COUNT>  (1) 
0

>  <PUBCHEM_ATOM_UDEF_STEREO_COUNT>  (1) 
2

>  <PUBCHEM_BOND_DEF_STEREO_COUNT>  (1) 
0

>  <PUBCHEM_BOND_UDEF_STEREO_COUNT>  (1) 
0

>  <PUBCHEM_ISOTOPIC_ATOM_COUNT>  (1) 
0

>  <PUBCHEM_COMPONENT_COUNT>  (1) 
1

>  <PUBCHEM_CACTVS_TAUTO_COUNT>  (1) 
5

>  <PUBCHEM_CONFORMER_ID>  (1) 
000082C800000001

>  <PUBCHEM_MMFF94_ENERGY>  (1) 
39.4471

>  <PUBCHEM_FEATURE_SELFOVERLAP>  (1) 
45.719

>  <PUBCHEM_SHAPE_FINGERPRINT>  (1) 
10616163 171 18051130298702108222
11056379 131 18195818362537554030
12107183 9 18341626906300510643
12553582 1 18410851062087562062
12841375 25 18410574002331346327
12969540 37 18119242011257636087
13533116 47 17981606280582380299
138480 1 14880313298243548327
13955234 65 17980202216669492251
14844126 61 18120082884397579298
14863182 85 18120090847704574428
14866123 147 17980196388409459819
15042514 8 18194405489737048601
15352361 1 18410852165894267575
15422964 175 18339345461678211184
15442244 35 18340491170580826081
17859628 70 18049445047902963187
20291156 8 18410571790423624098
20645477 70 17974834375281013959
20671657 53 18411983593692525811
20871998 22 18411414046410953064
21426921 1 18194403286766725428
21452121 199 18335409193129412480
21478907 32 18337951177960347787
21665056 4 17545877136021644716
221490 88 18191025805731301347
2255824 54 17905889528203734493
22849339 104 17836944303892182758
23530152 11 17111847622291356117
3091708 16 9353945098594395865
314173 41 18338804510463267359
3421961 26 18339921644452225923
458136 41 17686632642028770285
53777708 50 18119819015266689630
54173680 148 18266736874907540424
7364860 26 18122904506059396809
77188 2 18410854382134159757
9709674 26 17839175208890575478

>  <PUBCHEM_SHAPE_MULTIPOLES>  (1) 
313.21
8.19
5.09
0.68
0.33
3.67
0
-12.25
0.01
-0.16
0
0
-0.13
-0.18

>  <PUBCHEM_SHAPE_SELFOVERLAP>  (1) 
617.908

>  <PUBCHEM_SHAPE_VOLUME>  (1) 
184

>  <PUBCHEM_COORDINATE_TYPE>  (1) 
2
5
10

$$$$
