33492
     RDKit          3D

  9  9  0  0  1  0  0  0  0  0999 V2000
   -2.1911   -0.4961    0.4311 S   0  0  0  0  0  0  0  0  0  0  0  0
   -1.8690    1.4923    0.0172 S   0  0  0  0  0  0  0  0  0  0  0  0
   -2.5739   -0.9694   -0.9402 O   0  0  0  0  0  0  0  0  0  0  0  0
    1.8259   -0.0794    0.2271 N   0  0  0  0  0  0  0  0  0  0  0  0
    0.4091    0.0707   -0.0947 C   0  0  0  0  0  0  0  0  0  0  0  0
   -0.4366   -0.9298    0.6928 C   0  0  0  0  0  0  0  0  0  0  0  0
   -0.0638    1.4854    0.2428 C   0  0  0  0  0  0  0  0  0  0  0  0
    2.6295    0.8743   -0.5379 C   0  0  0  0  0  0  0  0  0  0  0  0
    2.2698   -1.4482   -0.0383 C   0  0  0  0  0  0  0  0  0  0  0  0
  1  2  1  0
  1  3  2  0
  1  6  1  0
  2  7  1  0
  4  5  1  0
  4  8  1  0
  4  9  1  0
  5  6  1  0
  5  7  1  0
M  END
>  <PUBCHEM_COMPOUND_CID>  (1) 
33492

>  <PUBCHEM_CONFORMER_RMSD>  (1) 
0.4

>  <PUBCHEM_CONFORMER_DIVERSEORDER>  (1) 
6
11
9
3
8
14
5
12
16
10
7
13
15
2
1
4

>  <PUBCHEM_MMFF94_PARTIAL_CHARGES>  (1) 
9
1 0.35
2 -0.28
3 -0.5
4 -0.81
5 0.27
6 0.19
7 0.23
8 0.27
9 0.27

>  <PUBCHEM_EFFECTIVE_ROTOR_COUNT>  (1) 
1.8

>  <PUBCHEM_PHARMACOPHORE_FEATURES>  (1) 
2
1 4 cation
5 1 2 5 6 7 rings

>  <PUBCHEM_HEAVY_ATOM_COUNT>  (1) 
9

>  <PUBCHEM_ATOM_DEF_STEREO_COUNT>  (1) 
0

>  <PUBCHEM_ATOM_UDEF_STEREO_COUNT>  (1) 
2

>  <PUBCHEM_BOND_DEF_STEREO_COUNT>  (1) 
0

>  <PUBCHEM_BOND_UDEF_STEREO_COUNT>  (1) 
0

>  <PUBCHEM_ISOTOPIC_ATOM_COUNT>  (1) 
0

>  <PUBCHEM_COMPONENT_COUNT>  (1) 
1

>  <PUBCHEM_CACTVS_TAUTO_COUNT>  (1) 
1

>  <PUBCHEM_CONFORMER_ID>  (1) 
000082D400000006

>  <PUBCHEM_MMFF94_ENERGY>  (1) 
12.837

>  <PUBCHEM_FEATURE_SELFOVERLAP>  (1) 
10.148

>  <PUBCHEM_SHAPE_FINGERPRINT>  (1) 
12897270 3 18337113474569605556
12932764 1 18060423520817876234
14128692 85 17701538635060994165
14325111 11 18335707096007902992
15310529 11 18413392042106770231
16945 1 18337112392095487160
19973954 147 18335990778713809288
20201158 50 18334856172786853970
20653085 51 18116160969455065273
21040471 1 18049722919058967841
23235687 12 17989213611564013967
23552423 10 18261396589859941490
29004967 10 18337960089827563602
3248919 1 18040716978366463256
5084963 1 18339079276758577296

>  <PUBCHEM_SHAPE_MULTIPOLES>  (1) 
182.06
3.96
1.69
0.81
0.8
0.24
-0.05
-0.42
-0.65
-0.11
-0.01
-0.24
-0.11
-0.26

>  <PUBCHEM_SHAPE_SELFOVERLAP>  (1) 
325.75

>  <PUBCHEM_SHAPE_VOLUME>  (1) 
121.2

>  <PUBCHEM_COORDINATE_TYPE>  (1) 
2
5
10

$$$$
