33498
     RDKit          3D

 14 15  0  0  1  0  0  0  0  0999 V2000
    1.2646    2.2342   -0.3487 S   0  0  0  0  0  0  0  0  0  0  0  0
    1.2555   -2.4064   -0.0657 O   0  0  0  0  0  0  0  0  0  0  0  0
   -2.2438   -1.5578    1.0338 O   0  0  0  0  0  0  0  0  0  0  0  0
   -1.9102   -1.6926   -1.2247 O   0  0  0  0  0  0  0  0  0  0  0  0
    0.4544   -0.2155    0.2769 N   0  0  0  0  0  0  0  0  0  0  0  0
    3.2350    0.0513   -0.8077 N   0  0  0  0  0  0  0  0  0  0  0  0
    1.3818    0.7989    0.7434 C   0  0  0  0  0  0  0  0  0  0  0  0
    2.5018   -0.2159    0.4255 C   0  0  0  0  0  0  0  0  0  0  0  0
    1.3446   -1.2272    0.1856 C   0  0  0  0  0  0  0  0  0  0  0  0
   -0.8676    0.0107    0.0646 C   0  0  0  0  0  0  0  0  0  0  0  0
   -1.3670    1.2674   -0.0097 C   0  0  0  0  0  0  0  0  0  0  0  0
   -0.4964    2.5213    0.0342 C   0  0  0  0  0  0  0  0  0  0  0  0
   -2.8320    1.5999   -0.1620 C   0  0  0  0  0  0  0  0  0  0  0  0
   -1.7208   -1.1683   -0.1456 C   0  0  0  0  0  0  0  0  0  0  0  0
  1  7  1  0
  1 12  1  0
  2  9  2  0
  3 14  1  0
  4 14  2  0
  5  7  1  0
  5  9  1  0
  5 10  1  0
  6  8  1  0
  7  8  1  0
  8  9  1  0
 10 11  2  0
 10 14  1  0
 11 12  1  0
 11 13  1  0
M  END
>  <PUBCHEM_COMPOUND_CID>  (1) 
33498

>  <PUBCHEM_CONFORMER_RMSD>  (1) 
0.6

>  <PUBCHEM_CONFORMER_DIVERSEORDER>  (1) 
1
2

>  <PUBCHEM_MMFF94_PARTIAL_CHARGES>  (1) 
17
1 -0.45
10 0.12
11 -0.28
12 0.37
13 0.14
14 0.71
19 0.36
2 -0.57
20 0.36
24 0.5
3 -0.65
4 -0.57
5 -0.39
6 -0.93
7 0.44
8 0.26
9 0.58

>  <PUBCHEM_EFFECTIVE_ROTOR_COUNT>  (1) 
1.6

>  <PUBCHEM_PHARMACOPHORE_FEATURES>  (1) 
8
1 2 acceptor
1 3 acceptor
1 4 acceptor
1 6 cation
1 6 donor
3 3 4 14 anion
4 5 7 8 9 rings
6 1 5 7 10 11 12 rings

>  <PUBCHEM_HEAVY_ATOM_COUNT>  (1) 
14

>  <PUBCHEM_ATOM_DEF_STEREO_COUNT>  (1) 
2

>  <PUBCHEM_ATOM_UDEF_STEREO_COUNT>  (1) 
0

>  <PUBCHEM_BOND_DEF_STEREO_COUNT>  (1) 
0

>  <PUBCHEM_BOND_UDEF_STEREO_COUNT>  (1) 
0

>  <PUBCHEM_ISOTOPIC_ATOM_COUNT>  (1) 
0

>  <PUBCHEM_COMPONENT_COUNT>  (1) 
1

>  <PUBCHEM_CACTVS_TAUTO_COUNT>  (1) 
1

>  <PUBCHEM_CONFORMER_ID>  (1) 
000082DA00000001

>  <PUBCHEM_MMFF94_ENERGY>  (1) 
47.2776

>  <PUBCHEM_FEATURE_SELFOVERLAP>  (1) 
40.909

>  <PUBCHEM_SHAPE_FINGERPRINT>  (1) 
10353120 184 18264215870843847638
10967382 1 18266176128182664729
11206711 2 18409166649065061180
12423570 1 12678922163012843938
12524768 44 18268143154458109385
13140716 1 18410289246142631472
13380535 21 18266473026318220714
13380535 76 18266449910857078578
14251711 518 18411411808780464523
14614273 12 18188197724301123780
16945 1 18340480054556870864
193761 8 18337669827480121113
20588541 1 18267302036726895304
20645476 183 17606702235028432854
20871998 184 18342460318132394941
21501502 16 18337947887820434578
22802520 49 18127426565761985486
2334 1 18193836165852024704
23419403 2 16611024276422931161
23552423 10 18336541728417796845
23559900 14 18200878371468534454
2748010 2 18266169707212046296
5084963 1 17987518289367357114
5255222 1 18268982103431916408
528886 8 18409446955995471832
53812654 25 18195789796076851064
66348 1 18267862796146677824
81228 2 18337662027803551177

>  <PUBCHEM_SHAPE_MULTIPOLES>  (1) 
264.39
3.8
2.74
0.85
0.38
0.34
-0.04
-0.22
-0.34
-0.59
-0.21
-0.05
-0.17
-0.07

>  <PUBCHEM_SHAPE_SELFOVERLAP>  (1) 
546.745

>  <PUBCHEM_SHAPE_VOLUME>  (1) 
153.4

>  <PUBCHEM_COORDINATE_TYPE>  (1) 
2
5
10

$$$$
