33508
     RDKit          3D

 24 27  0  0  1  0  0  0  0  0999 V2000
    1.7840   -1.1667    1.2062 O   0  0  0  0  0  0  0  0  0  0  0  0
    3.0493    1.0098   -0.2159 O   0  0  0  0  0  0  0  0  0  0  0  0
   -3.2390   -1.5873    0.9799 O   0  0  0  0  0  0  0  0  0  0  0  0
   -0.8892    2.7811   -1.0168 O   0  0  0  0  0  0  0  0  0  0  0  0
    3.8308    2.8354    0.9648 O   0  0  0  0  0  0  0  0  0  0  0  0
    0.7110   -2.4966   -2.1381 N   0  0  0  0  0  0  0  0  0  0  0  0
   -0.4011   -1.5704    0.3633 N   0  0  0  0  0  0  0  0  0  0  0  0
   -3.5282    2.9870   -0.4597 N   0  0  0  0  0  0  0  0  0  0  0  0
    1.4708   -2.1456   -0.9420 C   0  0  0  0  0  0  0  0  0  0  0  0
    0.9745   -1.1268    0.0379 C   0  0  0  0  0  0  0  0  0  0  0  0
    0.5083   -3.2868   -0.9312 C   0  0  0  0  0  0  0  0  0  0  0  0
   -0.6385   -2.9620   -0.0164 C   0  0  0  0  0  0  0  0  0  0  0  0
    0.7821    0.3220   -0.5218 C   0  0  0  0  0  0  0  0  0  0  0  0
   -1.2786   -0.5156    0.2409 C   0  0  0  0  0  0  0  0  0  0  0  0
   -0.6827    0.5793   -0.2308 C   0  0  0  0  0  0  0  0  0  0  0  0
    1.7148    1.3519    0.1095 C   0  0  0  0  0  0  0  0  0  0  0  0
   -2.7124   -0.5718    0.5380 C   0  0  0  0  0  0  0  0  0  0  0  0
   -1.4370    1.8013   -0.5208 C   0  0  0  0  0  0  0  0  0  0  0  0
    1.9386   -2.4945    1.6880 C   0  0  0  0  0  0  0  0  0  0  0  0
   -3.4934    0.6850    0.2914 C   0  0  0  0  0  0  0  0  0  0  0  0
   -2.9050    1.7972   -0.1996 C   0  0  0  0  0  0  0  0  0  0  0  0
   -4.9546    0.5761    0.6386 C   0  0  0  0  0  0  0  0  0  0  0  0
    4.0205    1.8405    0.2780 C   0  0  0  0  0  0  0  0  0  0  0  0
    5.3752    1.3576   -0.1434 C   0  0  0  0  0  0  0  0  0  0  0  0
  1 10  1  0
  1 19  1  0
  2 16  1  0
  2 23  1  0
  3 17  2  0
  4 18  2  0
  5 23  2  0
  6  9  1  0
  6 11  1  0
  7 10  1  0
  7 12  1  0
  7 14  1  0
  8 21  1  0
  9 10  1  0
  9 11  1  0
 10 13  1  0
 11 12  1  0
 13 15  1  0
 13 16  1  0
 14 15  2  0
 14 17  1  0
 15 18  1  0
 17 20  1  0
 18 21  1  0
 20 21  2  0
 20 22  1  0
 23 24  1  0
M  END
>  <PUBCHEM_COMPOUND_CID>  (1) 
33508

>  <PUBCHEM_CONFORMER_RMSD>  (1) 
0.8

>  <PUBCHEM_CONFORMER_DIVERSEORDER>  (1) 
1
3
6
5
4
2

>  <PUBCHEM_MMFF94_PARTIAL_CHARGES>  (1) 
29
1 -0.56
10 0.74
11 -0.04
12 0.46
13 0.14
14 0.11
15 -0.12
16 0.28
17 0.54
18 0.54
19 0.28
2 -0.43
20 -0.12
21 0.11
22 0.14
23 0.66
24 0.06
25 0.1
26 0.1
27 0.36
3 -0.57
39 0.4
4 -0.57
40 0.4
5 -0.57
6 -0.68
7 -0.84
8 -0.9
9 -0.04

>  <PUBCHEM_EFFECTIVE_ROTOR_COUNT>  (1) 
4.6

>  <PUBCHEM_PHARMACOPHORE_FEATURES>  (1) 
12
1 1 acceptor
1 3 acceptor
1 4 acceptor
1 5 acceptor
1 6 cation
1 6 donor
1 7 cation
1 8 cation
1 8 donor
5 7 10 13 14 15 rings
6 14 15 17 18 20 21 rings
6 6 7 9 10 11 12 rings

>  <PUBCHEM_HEAVY_ATOM_COUNT>  (1) 
24

>  <PUBCHEM_ATOM_DEF_STEREO_COUNT>  (1) 
4

>  <PUBCHEM_ATOM_UDEF_STEREO_COUNT>  (1) 
0

>  <PUBCHEM_BOND_DEF_STEREO_COUNT>  (1) 
0

>  <PUBCHEM_BOND_UDEF_STEREO_COUNT>  (1) 
0

>  <PUBCHEM_ISOTOPIC_ATOM_COUNT>  (1) 
0

>  <PUBCHEM_COMPONENT_COUNT>  (1) 
1

>  <PUBCHEM_CACTVS_TAUTO_COUNT>  (1) 
21

>  <PUBCHEM_CONFORMER_ID>  (1) 
000082E400000001

>  <PUBCHEM_MMFF94_ENERGY>  (1) 
89.1985

>  <PUBCHEM_FEATURE_SELFOVERLAP>  (1) 
61.168

>  <PUBCHEM_SHAPE_FINGERPRINT>  (1) 
10165383 225 18201446916582947761
10871710 139 17905042913029932300
10906281 52 18188226389498510329
10948715 1 18342178916170362098
10967382 1 18335989683824034045
1100329 8 17543350909536696035
11578080 2 16372397074768116598
12035759 4 18054482949677227974
12788726 201 17469054705508062614
13004483 165 17193459934294796230
13140716 1 18117844296372482705
14223421 5 18337678499182271217
14790565 3 18264498445253922309
15042514 8 18049447242288236626
15230672 131 18410298017783966302
16945 1 18117846722538420179
17980427 23 17835484207978907458
1813 80 14784911053714197602
19591789 44 18410574015648953320
19784866 170 18333736835727430177
20691752 17 16879085052708855685
20905425 154 18335424538657014838
21033648 29 18201428233850328328
21524375 3 18410858806313990832
22182313 1 18264227888542299391
2334 1 18335428962979699391
23419403 2 17619967959156876554
23559900 14 17906734704795399863
2748010 2 18263098660009214247
3298306 158 18342464703816276638
34934 24 18334573560271381985
350125 39 18336549305030341800
3729539 64 17914081753899756510
495365 180 18127672864793349137
5104073 3 18189628146707428617
5265222 85 18193571176146563860
5939293 188 17977939090715817106
59755656 215 18337115579082709204
7364860 26 18269841904217971252
81228 2 17546989180543319064
84936 31 17272842109149858255
9709674 26 18194682554177816263
9862522 239 18339911718983069864

>  <PUBCHEM_SHAPE_MULTIPOLES>  (1) 
449.62
7.46
4.02
1.18
1.43
1.01
0.09
-6.78
-1.72
1.34
0.64
0.39
0.78
0.8

>  <PUBCHEM_SHAPE_SELFOVERLAP>  (1) 
984.143

>  <PUBCHEM_SHAPE_VOLUME>  (1) 
245.7

>  <PUBCHEM_COORDINATE_TYPE>  (1) 
2
5
10

$$$$
