3351
     RDKit          3D

 27 30  0  0  0  0  0  0  0  0999 V2000
   -9.5525   -0.4024   -1.2186 Cl  0  0  0  0  0  0  0  0  0  0  0  0
   -1.9915    1.8088    1.1335 O   0  0  0  0  0  0  0  0  0  0  0  0
    6.2830    1.2179   -1.7578 O   0  0  0  0  0  0  0  0  0  0  0  0
   -4.1812    0.5567    0.9504 O   0  0  0  0  0  0  0  0  0  0  0  0
    7.7762    1.0139    0.1228 O   0  0  0  0  0  0  0  0  0  0  0  0
    1.8684   -1.0540   -0.2153 N   0  0  0  0  0  0  0  0  0  0  0  0
   -0.6828    0.2212    0.0554 N   0  0  0  0  0  0  0  0  0  0  0  0
    1.7012    0.0964    0.6847 C   0  0  0  0  0  0  0  0  0  0  0  0
    0.6307   -1.8456   -0.2732 C   0  0  0  0  0  0  0  0  0  0  0  0
    0.5517    0.9879    0.2162 C   0  0  0  0  0  0  0  0  0  0  0  0
   -0.5438   -0.9921   -0.7553 C   0  0  0  0  0  0  0  0  0  0  0  0
    2.9903   -1.8860    0.2175 C   0  0  0  0  0  0  0  0  0  0  0  0
    4.2864   -1.1197    0.2256 C   0  0  0  0  0  0  0  0  0  0  0  0
   -1.8841    0.7272    0.5500 C   0  0  0  0  0  0  0  0  0  0  0  0
    4.6012   -0.3042   -0.8556 C   0  0  0  0  0  0  0  0  0  0  0  0
    5.1462   -1.2456    1.3226 C   0  0  0  0  0  0  0  0  0  0  0  0
   -3.1099   -0.1274    0.3476 C   0  0  0  0  0  0  0  0  0  0  0  0
    5.7996    0.3776   -0.8026 C   0  0  0  0  0  0  0  0  0  0  0  0
    6.6523    0.2611    0.2712 C   0  0  0  0  0  0  0  0  0  0  0  0
    6.3537   -0.5438    1.3512 C   0  0  0  0  0  0  0  0  0  0  0  0
    7.5352    1.6178   -1.1645 C   0  0  0  0  0  0  0  0  0  0  0  0
   -5.4414    0.3311    0.4431 C   0  0  0  0  0  0  0  0  0  0  0  0
   -5.7373   -0.8992   -0.1244 C   0  0  0  0  0  0  0  0  0  0  0  0
   -6.3919    1.3391    0.5068 C   0  0  0  0  0  0  0  0  0  0  0  0
   -7.0133   -1.1267   -0.6402 C   0  0  0  0  0  0  0  0  0  0  0  0
   -7.6678    1.1114   -0.0089 C   0  0  0  0  0  0  0  0  0  0  0  0
   -7.9785   -0.1214   -0.5824 C   0  0  0  0  0  0  0  0  0  0  0  0
  1 27  1  0
  2 14  2  0
  3 18  1  0
  3 21  1  0
  4 17  1  0
  4 22  1  0
  5 19  1  0
  5 21  1  0
  6  8  1  0
  6  9  1  0
  6 12  1  0
  7 10  1  0
  7 11  1  0
  7 14  1  0
  8 10  1  0
  9 11  1  0
 12 13  1  0
 13 15  1  0
 13 16  2  0
 14 17  1  0
 15 18  2  0
 16 20  1  0
 18 19  1  0
 19 20  2  0
 22 23  2  0
 22 24  1  0
 23 25  1  0
 24 26  2  0
 25 27  2  0
 26 27  1  0
M  END
>  <PUBCHEM_COMPOUND_CID>  (1) 
3351

>  <PUBCHEM_CONFORMER_RMSD>  (1) 
1

>  <PUBCHEM_CONFORMER_DIVERSEORDER>  (1) 
1
188
139
11
182
22
210
136
134
91
169
195
174
51
30
63
119
106
131
175
154
204
29
99
15
218
121
67
38
86
66
102
130
133
42
13
184
140
80
185
107
19
100
111
214
187
9
4
181
147
90
81
14
203
186
89
113
2
35
219
27
120
183
76
44
36
87
197
167
207
93
126
50
46
18
161
6
217
16
190
163
54
148
82
39
155
65
124
20
200
3
189
31
52
8
64
213
164
58
103
112
191
180
85
101
146
71
165
110
150
78
176
159
95
26
88
69
211
144
125
68
5
23
118
45
104
171
114
168
201
209
192
178
105
212
141
157
194
37
206
193
17
205
137
62
198
98
53
122
151
83
48
32
55
57
40
33
94
129
215
24
115
142
12
166
152
10
116
84
56
34
73
59
41
143
123
61
196
132
199
28
202
128
97
179
77
208
216
108
177
170
47
70
25
160
158
138
21
162
7
43
75
109
173
149
79
156
135
127
74
96
72
145
49
153
172
92
60
117

>  <PUBCHEM_MMFF94_PARTIAL_CHARGES>  (1) 
34
1 -0.18
10 0.3
11 0.3
12 0.41
13 -0.14
14 0.57
15 -0.15
16 -0.15
17 0.34
18 0.08
19 0.08
2 -0.57
20 -0.15
21 0.56
22 0.08
23 -0.15
24 -0.15
25 -0.15
26 -0.15
27 0.18
3 -0.36
38 0.15
39 0.15
4 -0.36
42 0.15
45 0.15
46 0.15
47 0.15
48 0.15
5 -0.36
6 -0.81
7 -0.66
8 0.27
9 0.27

>  <PUBCHEM_EFFECTIVE_ROTOR_COUNT>  (1) 
7.8

>  <PUBCHEM_PHARMACOPHORE_FEATURES>  (1) 
9
1 2 acceptor
1 3 acceptor
1 4 acceptor
1 5 acceptor
1 6 cation
5 3 5 18 19 21 rings
6 13 15 16 18 19 20 rings
6 22 23 24 25 26 27 rings
6 6 7 8 9 10 11 rings

>  <PUBCHEM_HEAVY_ATOM_COUNT>  (1) 
27

>  <PUBCHEM_ATOM_DEF_STEREO_COUNT>  (1) 
0

>  <PUBCHEM_ATOM_UDEF_STEREO_COUNT>  (1) 
0

>  <PUBCHEM_BOND_DEF_STEREO_COUNT>  (1) 
0

>  <PUBCHEM_BOND_UDEF_STEREO_COUNT>  (1) 
0

>  <PUBCHEM_ISOTOPIC_ATOM_COUNT>  (1) 
0

>  <PUBCHEM_COMPONENT_COUNT>  (1) 
1

>  <PUBCHEM_CACTVS_TAUTO_COUNT>  (1) 
1

>  <PUBCHEM_CONFORMER_ID>  (1) 
00000D1700000001

>  <PUBCHEM_MMFF94_ENERGY>  (1) 
73.2632

>  <PUBCHEM_FEATURE_SELFOVERLAP>  (1) 
45.846

>  <PUBCHEM_SHAPE_FINGERPRINT>  (1) 
10162869 55 18186798118823336023
10299344 5 18410572881830302147
10319688 140 15625395506423699670
10835480 77 17603873320612106561
11315181 36 18409168814857368627
11719270 70 18341047436816698019
12089408 11 18411698765021434395
12166972 35 11887668481139684915
12516196 113 17917709081002849521
12730499 353 16128658527255974142
13533116 47 16732980869937174218
13617811 41 18412543219568581400
14251764 18 18411698786111110003
14251764 46 16008746905684764723
14344974 52 17274537733217786192
14429380 56 18113898294889805564
1454969 45 18342177760639335241
15183329 4 18410296904327522969
15301273 46 15482674559353202017
15461852 350 17703787046905287895
15840311 113 18114184164530501220
15849732 13 17132113550252993549
15979999 66 18408036334660891037
16120349 18 18040433317162014269
17093844 174 16370448856971631657
1754911 235 18411705395913129596
1818759 1 16917067789918538871
18681886 176 17917703626594765715
195137 175 18341337708782976641
20105231 36 15985105219412032311
20157964 124 17603304843769206122
21049683 271 18343864433384567841
21095086 128 13398628360109816253
21150785 3 18411982468453233917
21267235 1 10015588298589149682
21344244 78 18115289087869857032
22224240 67 17603586326476313858
23576562 1 18198063783807937757
246663 6 14045744824503744709
24771293 8 18411707560318482269
255183 451 18122348974533257086
3009799 131 16298107579594638437
328311 84 13686300170805077365
335352 9 18201432602559184799
34797466 226 16128654163584863176
397638 26 13623533467650489465
4073 2 18333737910013054219
4093350 32 14851874842598400200
4325135 7 18410293609786660286
4340502 62 16660365874932833906
4516262 110 17822866385597979772
45377200 153 15051439570784357855
5486654 2 18202565072948604711
5758199 1 18202005408819205987

>  <PUBCHEM_SHAPE_MULTIPOLES>  (1) 
524.08
29.3
1.62
1.17
25.13
0.08
-0.1
-5.28
-6.75
-0.96
-0.03
-1.02
-0.15
-2.4

>  <PUBCHEM_SHAPE_SELFOVERLAP>  (1) 
1123.825

>  <PUBCHEM_SHAPE_VOLUME>  (1) 
290.5

>  <PUBCHEM_COORDINATE_TYPE>  (1) 
2
5
10

$$$$
