33516
     RDKit          3D

  9  8  0  0  0  0  0  0  0  0999 V2000
    0.2240    2.2849    0.8417 O   0  0  0  0  0  0  0  0  0  0  0  0
   -0.0053    0.4656   -0.1966 N   0  0  0  0  0  0  0  0  0  0  0  0
    0.4632    1.6954   -0.2190 N   0  0  0  0  0  0  0  0  0  0  0  0
   -1.3810    0.3930   -0.6981 C   0  0  0  0  0  0  0  0  0  0  0  0
    0.8297   -0.5067   -0.9159 C   0  0  0  0  0  0  0  0  0  0  0  0
   -2.1537   -0.6137    0.0362 C   0  0  0  0  0  0  0  0  0  0  0  0
    1.9483   -0.9554   -0.0811 C   0  0  0  0  0  0  0  0  0  0  0  0
   -2.7912   -1.4367    0.6345 C   0  0  0  0  0  0  0  0  0  0  0  0
    2.8661   -1.3265    0.5983 C   0  0  0  0  0  0  0  0  0  0  0  0
  1  3  2  0
  2  3  1  0
  2  4  1  0
  2  5  1  0
  4  6  1  0
  5  7  1  0
  6  8  3  0
  7  9  3  0
M  END
>  <PUBCHEM_COMPOUND_CID>  (1) 
33516

>  <PUBCHEM_CONFORMER_RMSD>  (1) 
0.6

>  <PUBCHEM_CONFORMER_DIVERSEORDER>  (1) 
3
19
1
18
22
24
7
2
12
15
27
26
13
9
14
4
23
25
8
10
20
16
5
11
6
21
17

>  <PUBCHEM_MMFF94_PARTIAL_CHARGES>  (1) 
11
1 -0.16
14 0.18
15 0.18
2 -0.36
3 -0.01
4 0.47
5 0.47
6 -0.2
7 -0.2
8 -0.18
9 -0.18

>  <PUBCHEM_EFFECTIVE_ROTOR_COUNT>  (1) 
3

>  <PUBCHEM_PHARMACOPHORE_FEATURES>  (1) 
2
1 8 hydrophobe
1 9 hydrophobe

>  <PUBCHEM_HEAVY_ATOM_COUNT>  (1) 
9

>  <PUBCHEM_ATOM_DEF_STEREO_COUNT>  (1) 
0

>  <PUBCHEM_ATOM_UDEF_STEREO_COUNT>  (1) 
0

>  <PUBCHEM_BOND_DEF_STEREO_COUNT>  (1) 
0

>  <PUBCHEM_BOND_UDEF_STEREO_COUNT>  (1) 
0

>  <PUBCHEM_ISOTOPIC_ATOM_COUNT>  (1) 
0

>  <PUBCHEM_COMPONENT_COUNT>  (1) 
1

>  <PUBCHEM_CACTVS_TAUTO_COUNT>  (1) 
1

>  <PUBCHEM_CONFORMER_ID>  (1) 
000082EC00000003

>  <PUBCHEM_MMFF94_ENERGY>  (1) 
17.5449

>  <PUBCHEM_FEATURE_SELFOVERLAP>  (1) 
10.149

>  <PUBCHEM_SHAPE_FINGERPRINT>  (1) 
10857977 72 18341037550081005402
14128692 85 17822301175305018902
20653091 64 18267318688362353873
21028194 46 10303809886731599103
21061003 4 18343864402886610546
23552449 11 18269281321102993607
29004967 10 18343021073125627310
528862 383 18197211675080715572
58734985 188 18271522112773003264

>  <PUBCHEM_SHAPE_MULTIPOLES>  (1) 
169.38
3.9
1.98
0.91
0.05
1.08
-0.02
-3.01
0.83
0.08
0.62
0.03
0.05
0.18

>  <PUBCHEM_SHAPE_SELFOVERLAP>  (1) 
316.676

>  <PUBCHEM_SHAPE_VOLUME>  (1) 
105.1

>  <PUBCHEM_COORDINATE_TYPE>  (1) 
2
5
10

$$$$
