33515
     RDKit          3D

  8  8  0  0  0  0  0  0  0  0999 V2000
   -2.7450   -1.0683   -0.0002 Cl  0  0  0  0  0  0  0  0  0  0  0  0
    2.6573   -1.1610   -0.0002 Cl  0  0  0  0  0  0  0  0  0  0  0  0
    1.2579    1.0206    0.0000 N   0  0  0  0  0  0  0  0  0  0  0  0
   -1.2199   -0.2730    0.0001 C   0  0  0  0  0  0  0  0  0  0  0  0
   -0.0447   -1.0160    0.0003 C   0  0  0  0  0  0  0  0  0  0  0  0
   -1.1577    1.1161   -0.0001 C   0  0  0  0  0  0  0  0  0  0  0  0
    1.1577   -0.3275    0.0000 C   0  0  0  0  0  0  0  0  0  0  0  0
    0.0945    1.7091    0.0000 C   0  0  0  0  0  0  0  0  0  0  0  0
  1  4  1  0
  2  7  1  0
  3  7  2  0
  3  8  1  0
  4  5  2  0
  4  6  1  0
  5  7  1  0
  6  8  2  0
M  END
>  <PUBCHEM_COMPOUND_CID>  (1) 
33515

>  <PUBCHEM_CONFORMER_RMSD>  (1) 
0.4

>  <PUBCHEM_CONFORMER_DIVERSEORDER>  (1) 
1

>  <PUBCHEM_MMFF94_PARTIAL_CHARGES>  (1) 
11
1 -0.18
10 0.15
11 0.15
2 -0.18
3 -0.62
4 0.18
5 -0.15
6 -0.15
7 0.49
8 0.16
9 0.15

>  <PUBCHEM_EFFECTIVE_ROTOR_COUNT>  (1) 
0

>  <PUBCHEM_PHARMACOPHORE_FEATURES>  (1) 
2
1 3 acceptor
6 3 4 5 6 7 8 rings

>  <PUBCHEM_HEAVY_ATOM_COUNT>  (1) 
8

>  <PUBCHEM_ATOM_DEF_STEREO_COUNT>  (1) 
0

>  <PUBCHEM_ATOM_UDEF_STEREO_COUNT>  (1) 
0

>  <PUBCHEM_BOND_DEF_STEREO_COUNT>  (1) 
0

>  <PUBCHEM_BOND_UDEF_STEREO_COUNT>  (1) 
0

>  <PUBCHEM_ISOTOPIC_ATOM_COUNT>  (1) 
0

>  <PUBCHEM_COMPONENT_COUNT>  (1) 
1

>  <PUBCHEM_CACTVS_TAUTO_COUNT>  (1) 
1

>  <PUBCHEM_CONFORMER_ID>  (1) 
000082EB00000001

>  <PUBCHEM_MMFF94_ENERGY>  (1) 
14.4143

>  <PUBCHEM_FEATURE_SELFOVERLAP>  (1) 
10.148

>  <PUBCHEM_SHAPE_FINGERPRINT>  (1) 
10857977 72 18340472392545971226
14128692 85 18410580590937870014
16714656 1 18122629353427136908
18185500 45 18410292505916839371
21040471 1 17113819051071874337
23552423 10 18187933833052313518
241688 4 18409166575924230953
2748010 2 18410848858763655365
29004967 10 18263363766612267907
5084963 1 18272369767312845859

>  <PUBCHEM_SHAPE_MULTIPOLES>  (1) 
163.39
3.3
1.73
0.62
0.13
0.51
0
-1.87
0
-0.05
0
-0.01
-0.02
0

>  <PUBCHEM_SHAPE_SELFOVERLAP>  (1) 
319.443

>  <PUBCHEM_SHAPE_VOLUME>  (1) 
100.1

>  <PUBCHEM_COORDINATE_TYPE>  (1) 
2
5
10

$$$$
