33521
     RDKit          3D

 11 11  0  0  0  0  0  0  0  0999 V2000
    2.8773   -0.0426    0.1888 N   0  0  0  0  0  0  0  0  0  0  0  0
    0.6424   -0.1479   -0.7082 N   0  0  0  0  0  0  0  0  0  0  0  0
   -2.7260   -1.1524    0.3898 N   0  0  0  0  0  0  0  0  0  0  0  0
    3.5610   -0.2790   -1.0748 C   0  0  0  0  0  0  0  0  0  0  0  0
    3.7013    0.3968    1.3062 C   0  0  0  0  0  0  0  0  0  0  0  0
    1.4963    0.0017    0.2556 C   0  0  0  0  0  0  0  0  0  0  0  0
   -0.7133   -0.0532   -0.3506 C   0  0  0  0  0  0  0  0  0  0  0  0
   -1.3685    1.1676   -0.3771 C   0  0  0  0  0  0  0  0  0  0  0  0
   -1.4218   -1.1741    0.0346 C   0  0  0  0  0  0  0  0  0  0  0  0
   -2.7105    1.2304   -0.0183 C   0  0  0  0  0  0  0  0  0  0  0  0
   -3.3381    0.0526    0.3540 C   0  0  0  0  0  0  0  0  0  0  0  0
  1  4  1  0
  1  5  1  0
  1  6  1  0
  2  6  2  0
  2  7  1  0
  3  9  2  0
  3 11  1  0
  7  8  2  0
  7  9  1  0
  8 10  1  0
 10 11  2  0
M  END
>  <PUBCHEM_COMPOUND_CID>  (1) 
33521

>  <PUBCHEM_CONFORMER_RMSD>  (1) 
0.4

>  <PUBCHEM_CONFORMER_DIVERSEORDER>  (1) 
1
12
9
11
10
3
6
5
4
8
7
2

>  <PUBCHEM_MMFF94_PARTIAL_CHARGES>  (1) 
16
1 -0.79
10 -0.15
11 0.16
18 0.06
19 0.15
2 -0.63
20 0.15
21 0.15
22 0.15
3 -0.62
4 0.37
5 0.37
6 0.44
7 0.18
8 -0.15
9 0.16

>  <PUBCHEM_EFFECTIVE_ROTOR_COUNT>  (1) 
2

>  <PUBCHEM_PHARMACOPHORE_FEATURES>  (1) 
3
1 3 acceptor
3 1 2 6 cation
6 3 7 8 9 10 11 rings

>  <PUBCHEM_HEAVY_ATOM_COUNT>  (1) 
11

>  <PUBCHEM_ATOM_DEF_STEREO_COUNT>  (1) 
0

>  <PUBCHEM_ATOM_UDEF_STEREO_COUNT>  (1) 
0

>  <PUBCHEM_BOND_DEF_STEREO_COUNT>  (1) 
0

>  <PUBCHEM_BOND_UDEF_STEREO_COUNT>  (1) 
0

>  <PUBCHEM_ISOTOPIC_ATOM_COUNT>  (1) 
0

>  <PUBCHEM_COMPONENT_COUNT>  (1) 
1

>  <PUBCHEM_CACTVS_TAUTO_COUNT>  (1) 
1

>  <PUBCHEM_CONFORMER_ID>  (1) 
000082F100000001

>  <PUBCHEM_MMFF94_ENERGY>  (1) 
28.1999

>  <PUBCHEM_FEATURE_SELFOVERLAP>  (1) 
15.223

>  <PUBCHEM_SHAPE_FINGERPRINT>  (1) 
10857977 72 18410854386586908321
11062470 55 14634871954864171951
12932764 1 17988922267069026878
13024252 1 14634868639640016781
14144814 61 17967814942218560044
14325111 11 18410293584059034838
18186145 218 16200435775613722684
190213 19 17676204667354713410
19422 9 17458064850406997698
20279233 1 18060415811694568662
20645464 45 18131067134307359183
20645477 70 16845294887228449398
20715346 28 18060700602343723364
20871998 184 18342182223485389655
22485316 2 14273739568250016873
23402539 116 18340758304819809311
3248919 1 18114177536456940214
369184 2 17275102829879226463

>  <PUBCHEM_SHAPE_MULTIPOLES>  (1) 
211.43
6.8
1.13
0.97
4.15
0.02
0.05
0.38
1.01
-0.89
0.02
0.9
0.04
0.55

>  <PUBCHEM_SHAPE_SELFOVERLAP>  (1) 
425.898

>  <PUBCHEM_SHAPE_VOLUME>  (1) 
123.4

>  <PUBCHEM_COORDINATE_TYPE>  (1) 
2
5
10

$$$$
