33524
     RDKit          3D

 16 17  0  0  0  0  0  0  0  0999 V2000
    3.5111    0.3096    0.1179 S   0  0  0  0  0  0  0  0  0  0  0  0
    1.9516   -0.1608    0.2581 O   0  0  0  0  0  0  0  0  0  0  0  0
    4.0547    0.2950    1.6559 O   0  0  0  0  0  0  0  0  0  0  0  0
    4.2186   -0.7305   -0.6055 O   0  0  0  0  0  0  0  0  0  0  0  0
    3.5481    1.6808   -0.3555 O   0  0  0  0  0  0  0  0  0  0  0  0
   -1.2113    0.1268   -0.2312 C   0  0  0  0  0  0  0  0  0  0  0  0
   -0.1880   -0.8087   -0.4548 C   0  0  0  0  0  0  0  0  0  0  0  0
   -2.4812   -0.3262    0.1990 C   0  0  0  0  0  0  0  0  0  0  0  0
    1.1781   -0.3977   -0.9098 C   0  0  0  0  0  0  0  0  0  0  0  0
   -0.4133   -2.1712   -0.2569 C   0  0  0  0  0  0  0  0  0  0  0  0
   -1.0021    1.5020   -0.4254 C   0  0  0  0  0  0  0  0  0  0  0  0
   -2.6903   -1.7012    0.3931 C   0  0  0  0  0  0  0  0  0  0  0  0
   -3.5045    0.6094    0.4225 C   0  0  0  0  0  0  0  0  0  0  0  0
   -1.6622   -2.6166    0.1662 C   0  0  0  0  0  0  0  0  0  0  0  0
   -2.0302    2.4173   -0.1984 C   0  0  0  0  0  0  0  0  0  0  0  0
   -3.2790    1.9719    0.2248 C   0  0  0  0  0  0  0  0  0  0  0  0
  1  2  1  0
  1  3  1  0
  1  4  2  0
  1  5  2  0
  2  9  1  0
  6  7  2  0
  6  8  1  0
  6 11  1  0
  7  9  1  0
  7 10  1  0
  8 12  2  0
  8 13  1  0
 10 14  2  0
 11 15  2  0
 12 14  1  0
 13 16  2  0
 15 16  1  0
M  END
>  <PUBCHEM_COMPOUND_CID>  (1) 
33524

>  <PUBCHEM_CONFORMER_RMSD>  (1) 
0.6

>  <PUBCHEM_CONFORMER_DIVERSEORDER>  (1) 
2
6
3
4
5
1
7

>  <PUBCHEM_MMFF94_PARTIAL_CHARGES>  (1) 
22
1 1.67
10 -0.15
11 -0.15
12 -0.15
13 -0.15
14 -0.15
15 -0.15
16 -0.15
19 0.15
2 -0.46
20 0.15
21 0.15
22 0.15
23 0.15
24 0.15
25 0.15
26 0.5
3 -0.68
4 -0.65
5 -0.65
7 -0.14
9 0.42

>  <PUBCHEM_EFFECTIVE_ROTOR_COUNT>  (1) 
3

>  <PUBCHEM_PHARMACOPHORE_FEATURES>  (1) 
6
1 3 acceptor
1 4 acceptor
1 5 acceptor
4 1 3 4 5 anion
6 6 7 8 10 12 14 rings
6 6 8 11 13 15 16 rings

>  <PUBCHEM_HEAVY_ATOM_COUNT>  (1) 
16

>  <PUBCHEM_ATOM_DEF_STEREO_COUNT>  (1) 
0

>  <PUBCHEM_ATOM_UDEF_STEREO_COUNT>  (1) 
0

>  <PUBCHEM_BOND_DEF_STEREO_COUNT>  (1) 
0

>  <PUBCHEM_BOND_UDEF_STEREO_COUNT>  (1) 
0

>  <PUBCHEM_ISOTOPIC_ATOM_COUNT>  (1) 
0

>  <PUBCHEM_COMPONENT_COUNT>  (1) 
1

>  <PUBCHEM_CACTVS_TAUTO_COUNT>  (1) 
1

>  <PUBCHEM_CONFORMER_ID>  (1) 
000082F400000002

>  <PUBCHEM_MMFF94_ENERGY>  (1) 
36.6407

>  <PUBCHEM_FEATURE_SELFOVERLAP>  (1) 
30.531

>  <PUBCHEM_SHAPE_FINGERPRINT>  (1) 
10608611 8 18342740723772992700
11132069 177 18412825789349930425
12173636 292 18411415107257085508
122479 349 18343864394264890980
12251169 10 18333448725099840244
13140716 1 18193572270829967457
13296909 8 18409166636296288207
13380535 76 18339924810043531199
13583140 156 16877661253664777157
14420673 8 18047184160382033498
15042514 8 18336836398067336571
15295992 7 17846490414178522808
15669948 3 18337110180414222038
16945 1 18336283266498194623
17846911 113 18412260610493222201
1813 80 16588589674467840558
18186145 218 18059305244678444006
20510252 161 18341620342746274731
20645477 56 18413387640139929168
20871998 184 18270689774039338167
21524375 3 18271521979613153679
21650355 55 18192988446708298595
23402539 116 18342451591265726183
23419403 2 14761781001816144463
23557571 272 18200328717520571366
23559900 14 18270407092546024118
2748010 2 17975152954511427639
43471831 8 18261392200530485395
5706482 22 18337944611039871635
58807428 26 18263085431341326291
7097593 13 18115008716014010258
7364860 26 17764030164521131679
77492 1 17530971314639906718
81228 2 18265323087563941743
84936 182 17549817785706663217
90316 7 17967807232631471052
9709674 26 18342746204109681886

>  <PUBCHEM_SHAPE_MULTIPOLES>  (1) 
309.64
7.08
2.61
0.88
8.08
0.35
-0.17
-2.32
-1.49
-2.22
0.07
0.61
-0.02
0.26

>  <PUBCHEM_SHAPE_SELFOVERLAP>  (1) 
654.885

>  <PUBCHEM_SHAPE_VOLUME>  (1) 
174.1

>  <PUBCHEM_COORDINATE_TYPE>  (1) 
2
5
10

$$$$
