33532
     RDKit          3D

 19 18  0  0  0  0  0  0  0  0999 V2000
   -5.4335   -0.0838   -1.9611 O   0  0  0  0  0  0  0  0  0  0  0  0
   -1.5291    1.8406    0.8042 C   0  0  0  0  0  0  0  0  0  0  0  0
   -0.3765    1.9764    1.8053 C   0  0  0  0  0  0  0  0  0  0  0  0
   -2.1832    0.4575    0.8024 C   0  0  0  0  0  0  0  0  0  0  0  0
    0.3009    3.3520    1.8479 C   0  0  0  0  0  0  0  0  0  0  0  0
   -3.3377    0.3876   -0.2026 C   0  0  0  0  0  0  0  0  0  0  0  0
    0.9794    3.8315    0.5619 C   0  0  0  0  0  0  0  0  0  0  0  0
   -3.9934   -0.9890   -0.2537 C   0  0  0  0  0  0  0  0  0  0  0  0
    2.1030    2.9410    0.1167 C   0  0  0  0  0  0  0  0  0  0  0  0
    2.1327    2.3179   -1.0708 C   0  0  0  0  0  0  0  0  0  0  0  0
   -5.0838   -1.0508   -1.2916 C   0  0  0  0  0  0  0  0  0  0  0  0
    3.2384    1.4039   -1.5089 C   0  0  0  0  0  0  0  0  0  0  0  0
    2.7186    0.0269   -1.8034 C   0  0  0  0  0  0  0  0  0  0  0  0
    3.1326   -1.0793   -1.1672 C   0  0  0  0  0  0  0  0  0  0  0  0
    2.6117   -2.4556   -1.4642 C   0  0  0  0  0  0  0  0  0  0  0  0
    2.0107   -3.1911   -0.2959 C   0  0  0  0  0  0  0  0  0  0  0  0
    1.8165   -2.7353    0.9519 C   0  0  0  0  0  0  0  0  0  0  0  0
    1.2019   -3.5568    2.0475 C   0  0  0  0  0  0  0  0  0  0  0  0
   -0.3093   -3.3934    2.0816 C   0  0  0  0  0  0  0  0  0  0  0  0
  1 11  2  0
  2  3  1  0
  2  4  1  0
  3  5  1  0
  4  6  1  0
  5  7  1  0
  6  8  1  0
  7  9  1  0
  8 11  1  0
  9 10  2  0
 10 12  1  0
 12 13  1  0
 13 14  2  0
 14 15  1  0
 15 16  1  0
 16 17  2  0
 17 18  1  0
 18 19  1  0
M  END
>  <PUBCHEM_COMPOUND_CID>  (1) 
33532

>  <PUBCHEM_CONFORMER_RMSD>  (1) 
1.4

>  <PUBCHEM_CONFORMER_DIVERSEORDER>  (1) 
1
65
50
56
18
46
20
42
19
60
29
33
48
66
7
16
57
58
22
38
8
43
6
4
12
23
31
2
39
14
67
49
53
25
10
26
64
41
11
44
21
54
62
55
63
13
37
51
17
40
30
5
9
35
36
59
47
52
32
45
15
27
24
68
34
3
61
28

>  <PUBCHEM_MMFF94_PARTIAL_CHARGES>  (1) 
20
1 -0.57
10 -0.29
11 0.45
12 0.28
13 -0.29
14 -0.29
15 0.28
16 -0.29
17 -0.29
18 0.14
34 0.15
35 0.15
36 0.06
39 0.15
40 0.15
43 0.15
46 0.15
7 0.14
8 0.06
9 -0.29

>  <PUBCHEM_EFFECTIVE_ROTOR_COUNT>  (1) 
13

>  <PUBCHEM_PHARMACOPHORE_FEATURES>  (1) 
2
1 1 acceptor
1 19 hydrophobe

>  <PUBCHEM_HEAVY_ATOM_COUNT>  (1) 
19

>  <PUBCHEM_ATOM_DEF_STEREO_COUNT>  (1) 
0

>  <PUBCHEM_ATOM_UDEF_STEREO_COUNT>  (1) 
0

>  <PUBCHEM_BOND_DEF_STEREO_COUNT>  (1) 
0

>  <PUBCHEM_BOND_UDEF_STEREO_COUNT>  (1) 
3

>  <PUBCHEM_ISOTOPIC_ATOM_COUNT>  (1) 
0

>  <PUBCHEM_COMPONENT_COUNT>  (1) 
1

>  <PUBCHEM_CACTVS_TAUTO_COUNT>  (1) 
2

>  <PUBCHEM_CONFORMER_ID>  (1) 
000082FC00000001

>  <PUBCHEM_MMFF94_ENERGY>  (1) 
2.2169

>  <PUBCHEM_FEATURE_SELFOVERLAP>  (1) 
10.148

>  <PUBCHEM_SHAPE_FINGERPRINT>  (1) 
11112662 9 16841882174802928680
11427363 43 16814865713561160639
12100795 323 16324297190379796795
12539773 59 17118635487812014552
13402501 40 17474411525763325402
13422730 73 18266455584799014203
14114207 22 17169239639076518416
15324115 91 18113890589913505607
19026451 147 18341041947974938591
21315764 21 17241898583716488727
238 59 18268155438054240866
444735 86 17196827691382624335
6438754 60 18338231540783453317

>  <PUBCHEM_SHAPE_MULTIPOLES>  (1) 
385.14
7.81
5.99
2.34
12.94
0.32
0.36
2.49
-7.22
-4.89
3.91
0.11
0.83
-0.96

>  <PUBCHEM_SHAPE_SELFOVERLAP>  (1) 
712.562

>  <PUBCHEM_SHAPE_VOLUME>  (1) 
240.3

>  <PUBCHEM_COORDINATE_TYPE>  (1) 
2
5
10

$$$$
