33535
     RDKit          3D

  8  8  0  0  0  0  0  0  0  0999 V2000
   -2.4839    0.1994   -0.1213 S   0  0  0  0  0  0  0  0  0  0  0  0
    2.6846    0.2809    0.4456 O   0  0  0  0  0  0  0  0  0  0  0  0
    0.6836   -0.1545    0.0424 N   0  0  0  0  0  0  0  0  0  0  0  0
    1.9341   -0.3356   -0.3172 N   0  0  0  0  0  0  0  0  0  0  0  0
   -0.1683   -1.3056   -0.2898 C   0  0  0  0  0  0  0  0  0  0  0  0
    0.1106    1.1236   -0.4084 C   0  0  0  0  0  0  0  0  0  0  0  0
   -1.5345   -1.2555    0.3920 C   0  0  0  0  0  0  0  0  0  0  0  0
   -1.2262    1.4473    0.2569 C   0  0  0  0  0  0  0  0  0  0  0  0
  1  7  1  0
  1  8  1  0
  2  4  2  0
  3  4  1  0
  3  5  1  0
  3  6  1  0
  5  7  1  0
  6  8  1  0
M  END
>  <PUBCHEM_COMPOUND_CID>  (1) 
33535

>  <PUBCHEM_CONFORMER_RMSD>  (1) 
0.4

>  <PUBCHEM_CONFORMER_DIVERSEORDER>  (1) 
1
13
7
10
3
11
9
6
12
4
5
8
2

>  <PUBCHEM_MMFF94_PARTIAL_CHARGES>  (1) 
8
1 -0.46
2 -0.16
3 -0.36
4 -0.01
5 0.27
6 0.27
7 0.23
8 0.23

>  <PUBCHEM_EFFECTIVE_ROTOR_COUNT>  (1) 
2.2

>  <PUBCHEM_PHARMACOPHORE_FEATURES>  (1) 
1
6 1 3 5 6 7 8 rings

>  <PUBCHEM_HEAVY_ATOM_COUNT>  (1) 
8

>  <PUBCHEM_ATOM_DEF_STEREO_COUNT>  (1) 
0

>  <PUBCHEM_ATOM_UDEF_STEREO_COUNT>  (1) 
0

>  <PUBCHEM_BOND_DEF_STEREO_COUNT>  (1) 
0

>  <PUBCHEM_BOND_UDEF_STEREO_COUNT>  (1) 
0

>  <PUBCHEM_ISOTOPIC_ATOM_COUNT>  (1) 
0

>  <PUBCHEM_COMPONENT_COUNT>  (1) 
1

>  <PUBCHEM_CACTVS_TAUTO_COUNT>  (1) 
1

>  <PUBCHEM_CONFORMER_ID>  (1) 
000082FF00000001

>  <PUBCHEM_MMFF94_ENERGY>  (1) 
12.2579

>  <PUBCHEM_FEATURE_SELFOVERLAP>  (1) 
5.074

>  <PUBCHEM_SHAPE_FINGERPRINT>  (1) 
10857977 72 18338790221064336505
16714656 1 18410294705024361079
18185500 45 18263365939749759399
21040471 1 18265341594546196357
23235685 24 18410290272913679573
23552423 10 18042408095911469662
23552449 1 18340767164535656187
29004967 10 18411144666088346291
5084963 1 18268150868224725716

>  <PUBCHEM_SHAPE_MULTIPOLES>  (1) 
152.65
3.17
1.52
0.69
1.11
0
-0.01
0.13
0.27
-0.53
0.02
-0.04
0
0.08

>  <PUBCHEM_SHAPE_SELFOVERLAP>  (1) 
280.617

>  <PUBCHEM_SHAPE_VOLUME>  (1) 
97.4

>  <PUBCHEM_COORDINATE_TYPE>  (1) 
2
5
10

$$$$
